data_PCOD8283969
_publ_section_title
;
Structure prediction by ZEFSAII (Michael W. Deem and Ramdas Pophale) SiO2 
 PCOD8283969
Probable space group: F M M M
;
_chemical_formula_sum "Si O2"
_cell_formula_units_Z 176
_cell_length_a 27.928146
_cell_length_b 18.307212
_cell_length_c 16.794223
_cell_angle_alpha 90.000000
_cell_angle_beta 90.000000
_cell_angle_gamma 90.000000
_cell_volume 8586.659323
_symmetry_space_group_name_H-M "F M M M"
_symmetry_group_IT_number 69
_symmetry_cell_setting 'orthorhombic'
loop_
_space_group_symop_operation_xyz
x,y,z
-x,-y,z
x,-y,-z
-x,y,-z
-x,-y,-z
x,y,-z
-x,y,z
x,-y,z
x,1/2+y,1/2+z
-x,1/2-y,1/2+z
x,1/2-y,1/2-z
-x,1/2+y,1/2-z
-x,1/2-y,1/2-z
x,1/2+y,1/2-z
-x,1/2+y,1/2+z
x,1/2-y,1/2+z
1/2+x,y,1/2+z
1/2-x,-y,1/2+z
1/2+x,-y,1/2-z
1/2-x,y,1/2-z
1/2-x,-y,1/2-z
1/2+x,y,1/2-z
1/2-x,y,1/2+z
1/2+x,-y,1/2+z
1/2+x,1/2+y,z
1/2-x,1/2-y,z
1/2+x,1/2-y,-z
1/2-x,1/2+y,-z
1/2-x,1/2-y,-z
1/2+x,1/2+y,-z
1/2-x,1/2+y,z
1/2+x,1/2-y,z
loop_
_atom_site_type_symbol
_atom_site_label
_atom_site_fract_x
_atom_site_fract_y
_atom_site_fract_z
Si Si1 0.384405 0.682988 0.594626
Si Si2 0.944153 0.080117 0.000000
Si Si3 0.443602 0.414952 0.301618
Si Si4 0.809137 0.416757 0.592998
Si Si5 0.900296 0.841729 0.851906
Si Si6 0.776856 0.819942 0.407035
O O1 0.387082 0.693680 0.500000
O O2 0.417457 0.614356 0.618845
O O3 0.403699 0.754802 0.639338
O O4 0.330300 0.668405 0.626325
O O5 0.930140 0.122360 0.921710
O O6 0.000000 0.069465 0.000000
O O7 0.919098 0.000000 0.000000
O O8 0.500000 0.403161 0.310872
O O9 0.431226 0.500000 0.288568
O O10 0.423760 0.366528 0.229864
O O11 0.821931 0.405963 0.500000
O O12 0.813848 0.500000 0.620133
O O13 0.845104 0.367177 0.643849
O O14 0.754826 0.391659 0.610499
O O15 0.782343 0.804687 0.500000
O O16 0.750000 0.750000 0.368149
#
# Coordination Sequence:
#
# PCOD8283969 Si02
#       6
#    32  16  32  32  32  32
#     4  11  23  42  69  98 126 166 217 269 320 377
#     4  11  22  34  56  91 129 163 201 256 319 388
#     4  11  27  48  66  88 127 176 220 268 324 378
#     4  10  18  30  56  93 129 167 207 252 312 381
#     4  12  21  39  64  95 129 164 209 263 323 391
#     4   9  17  33  58  89 127 163 203 254 310 374
#
# _framework density 20.496911000000001
#
# number of rings (size 3 to 8) (size 9 to 14) (size 15 to 20)
#    0.000    1.364    3.636    2.727    0.000    5.091 
#    0.000    3.636    0.000    2.182    0.000    0.000 
#    0.000    0.000    0.000    0.000    0.000    0.000 
#
# Total GULP energy -545675.596084 kJ/mol
# GULP energy per Si atom -12401.718093 kJ/mol
# Density = 2.045026 g / cm^3
# Si number density = 20.496911 Si / 1000 Ang^3
#
#
#
# Elastic Constant Matrix: (Units=GPa)
#
#
# Indices 1 2 3 4 5 6 
#
# 1 128.5628 52.1878 36.6390 0.0000 0.0000 0.0000
# 2 52.1878 88.6999 33.3710 0.0000 0.0000 0.0000
# 3 36.6390 33.3710 51.1533 0.0000 0.0000 0.0000
# 4 0.0000 0.0000 0.0000 27.5388 0.0000 0.0000
# 5 0.0000 0.0000 0.0000 0.0000 38.0713 0.0000
# 6 0.0000 0.0000 0.0000 0.0000 0.0000 33.6756
#
#
#
# Elastic Compliance Matrix: (Units=1/GPa)
#
#
# Indices 1 2 3 4 5 6 
#
# 1 0.011066 -0.004677 -0.004875 0.000000 0.000000 0.000000
# 2 -0.004677 0.016918 -0.007687 0.000000 0.000000 0.000000
# 3 -0.004875 -0.007687 0.028056 0.000000 0.000000 0.000000
# 4 0.000000 0.000000 0.000000 0.036312 0.000000 0.000000
# 5 0.000000 0.000000 0.000000 0.000000 0.026267 0.000000
# 6 0.000000 0.000000 0.000000 0.000000 0.000000 0.029695
#
#
# Mechanical properties :
#
#
# Convention : Reuss Voigt Hill
#
# Bulk Modulus (GPa) = 46.37826 56.97904 51.67865
# Shear Modulus (GPa) = 26.31884 29.60504 27.96194
#
# Velocity S-wave (km/s) = 3.58724 3.80460 3.69752
# Velocity P-wave (km/s) = 6.31140 6.86726 6.59519
#
# Compressibility (1/GPa) = 0.02156182
#
# Stress axis : x y z
#
# Youngs Moduli (GPa) = 90.36587 59.11027 35.64344
#
# Poissons Ratio (x) = 0.27644 0.17377
# Poissons Ratio (y) = 0.42262 0.27398
# Poissons Ratio (z) = 0.44056 0.45437
#
# Static dielectric constant tensor:
#      x y z
#    x 3.922160 0.000000 0.000000 
#    y 0.000000 3.887490 0.000000 
#    z 0.000000 0.000000 3.019220 
# 
# 
# High freq. dielectric constant tensor:
#      x y z
#    x 1.815020 0.000000 0.000000 
#    y 0.000000 1.807820 0.000000 
#    z 0.000000 0.000000 1.773100 
# 
# From -- ./inp_files/27687.got.cif
#   From: 2010.03.12/outbox.cif.g09.slc.cpg/sg69_14_cif.got.tgz:27687.got - 2010.04.10 23:52:46.
