data_PCOD8283796
_publ_section_title
;
Structure prediction by ZEFSAII (Michael W. Deem and Ramdas Pophale) SiO2 
 PCOD8283796
Probable space group: F M M M
;
_chemical_formula_sum "Si O2"
_cell_formula_units_Z 144
_cell_length_a 14.057211
_cell_length_b 30.815634
_cell_length_c 19.260908
_cell_angle_alpha 90.000000
_cell_angle_beta 90.000000
_cell_angle_gamma 90.000000
_cell_volume 8343.476131
_symmetry_space_group_name_H-M "F M M M"
_symmetry_group_IT_number 69
_symmetry_cell_setting 'orthorhombic'
loop_
_space_group_symop_operation_xyz
x,y,z
-x,-y,z
x,-y,-z
-x,y,-z
-x,-y,-z
x,y,-z
-x,y,z
x,-y,z
x,1/2+y,1/2+z
-x,1/2-y,1/2+z
x,1/2-y,1/2-z
-x,1/2+y,1/2-z
-x,1/2-y,1/2-z
x,1/2+y,1/2-z
-x,1/2+y,1/2+z
x,1/2-y,1/2+z
1/2+x,y,1/2+z
1/2-x,-y,1/2+z
1/2+x,-y,1/2-z
1/2-x,y,1/2-z
1/2-x,-y,1/2-z
1/2+x,y,1/2-z
1/2-x,y,1/2+z
1/2+x,-y,1/2+z
1/2+x,1/2+y,z
1/2-x,1/2-y,z
1/2+x,1/2-y,-z
1/2-x,1/2+y,-z
1/2-x,1/2-y,-z
1/2+x,1/2+y,-z
1/2-x,1/2+y,z
1/2+x,1/2-y,z
loop_
_atom_site_type_symbol
_atom_site_label
_atom_site_fract_x
_atom_site_fract_y
_atom_site_fract_z
Si Si1 0.792964 0.383497 0.327056
Si Si2 0.000000 0.117916 0.781316
Si Si3 0.807835 0.949911 0.579518
Si Si4 0.500000 0.792767 0.795452
Si Si5 0.000000 0.450475 0.157971
Si Si6 0.788042 0.205961 0.671061
O O1 0.750000 0.390112 0.250000
O O2 0.766691 0.422876 0.376391
O O3 0.754983 0.338298 0.361045
O O4 0.906565 0.385737 0.327795
O O5 0.000000 0.165791 0.752176
O O6 0.000000 0.081250 0.722875
O O7 0.805645 0.934786 0.500000
O O8 0.911495 0.940628 0.609247
O O9 0.779376 0.000000 0.586839
O O10 0.500000 0.750000 0.750000
O O11 0.402376 0.794214 0.839360
O O12 0.000000 0.500000 0.185642
O O13 0.750000 0.206711 0.750000
O O14 0.750000 0.250000 0.633785
#
# Coordination Sequence:
#
# PCOD8283796 Si02
#       6
#    32  16  32  16  16  32
#     4  11  20  33  52  76 106 135 168 214 257 306
#     4  12  20  31  49  81 108 130 168 214 262 303
#     4  10  21  37  55  75 102 137 174 211 256 310
#     4  12  16  24  43  68 104 138 166 202 252 306
#     4  10  19  32  54  79 103 129 164 215 265 309
#     4  10  17  27  43  71 104 136 167 206 254 302
#
# _framework density 17.258993
#
# number of rings (size 3 to 8) (size 9 to 14) (size 15 to 20)
#    0.000    1.333    8.889    0.333    0.000    2.667 
#    0.000    0.556    0.000    2.000    0.000    0.000 
#    0.000    0.000    0.000    0.000    0.000    0.000 
#
# Total GULP energy -446230.371669 kJ/mol
# GULP energy per Si atom -12395.288102 kJ/mol
# Density = 1.721971 g / cm^3
# Si number density = 17.258993 Si / 1000 Ang^3
#
#
#
# Elastic Constant Matrix: (Units=GPa)
#
#
# Indices 1 2 3 4 5 6 
#
# 1 177.5547 63.7875 41.6027 0.0000 0.0000 0.0000
# 2 63.7875 120.2251 52.9521 0.0000 0.0000 0.0000
# 3 41.6027 52.9521 43.6610 0.0000 0.0000 0.0000
# 4 0.0000 0.0000 0.0000 8.5922 0.0000 0.0000
# 5 0.0000 0.0000 0.0000 0.0000 -48.6536 0.0000
# 6 0.0000 0.0000 0.0000 0.0000 0.0000 29.1914
#
#
#
# Elastic Compliance Matrix: (Units=1/GPa)
#
#
# Indices 1 2 3 4 5 6 
#
# 1 0.007422 -0.001767 -0.004929 0.000000 0.000000 0.000000
# 2 -0.001767 0.018276 -0.020482 0.000000 0.000000 0.000000
# 3 -0.004929 -0.020482 0.052441 0.000000 0.000000 0.000000
# 4 0.000000 0.000000 0.000000 0.116385 0.000000 0.000000
# 5 0.000000 0.000000 0.000000 0.000000 -0.020553 0.000000
# 6 0.000000 0.000000 0.000000 0.000000 0.000000 0.034257
#
#
# Mechanical properties :
#
#
# Convention : Reuss Voigt Hill
#
# Bulk Modulus (GPa) = 42.04627 73.12505 57.58566
# Shear Modulus (GPa) = 18.48353 10.03257 14.25805
#
# Velocity S-wave (km/s) = 3.27609 2.41362 2.87735
# Velocity P-wave (km/s) = 6.22296 7.08722 6.66910
#
# Compressibility (1/GPa) = 0.02378333
#
# Stress axis : x y z
#
# Youngs Moduli (GPa) = 134.73974 54.71588 19.06899
#
# Poissons Ratio (x) = 0.09667 0.09399
# Poissons Ratio (y) = 0.23805 0.39057
# Poissons Ratio (z) = 0.66415 1.12069
#
# Static dielectric constant tensor:
#      x y z
#    x 3.483290 0.000000 0.000000 
#    y 0.000000 3.748260 0.000000 
#    z 0.000000 0.000000 2.822420 
# 
# 
# High freq. dielectric constant tensor:
#      x y z
#    x 1.682500 0.000000 0.000000 
#    y 0.000000 1.693270 0.000000 
#    z 0.000000 0.000000 1.597180 
# 
# From -- ./inp_files/15615.got.cif
#   From: 2010.03.12/outbox.cif.g09.slc.cpg/sg69_8_cif.got.tgz:15615.got - 2010.04.10 23:52:46.
