data_PCOD8283799
_publ_section_title
;
Structure prediction by ZEFSAII (Michael W. Deem and Ramdas Pophale) SiO2 
 PCOD8283799
Probable space group: F M M M
;
_chemical_formula_sum "Si O2"
_cell_formula_units_Z 208
_cell_length_a 16.901152
_cell_length_b 28.979387
_cell_length_c 22.719715
_cell_angle_alpha 90.000000
_cell_angle_beta 90.000000
_cell_angle_gamma 90.000000
_cell_volume 11127.776169
_symmetry_space_group_name_H-M "F M M M"
_symmetry_group_IT_number 69
_symmetry_cell_setting 'orthorhombic'
loop_
_space_group_symop_operation_xyz
x,y,z
-x,-y,z
x,-y,-z
-x,y,-z
-x,-y,-z
x,y,-z
-x,y,z
x,-y,z
x,1/2+y,1/2+z
-x,1/2-y,1/2+z
x,1/2-y,1/2-z
-x,1/2+y,1/2-z
-x,1/2-y,1/2-z
x,1/2+y,1/2-z
-x,1/2+y,1/2+z
x,1/2-y,1/2+z
1/2+x,y,1/2+z
1/2-x,-y,1/2+z
1/2+x,-y,1/2-z
1/2-x,y,1/2-z
1/2-x,-y,1/2-z
1/2+x,y,1/2-z
1/2-x,y,1/2+z
1/2+x,-y,1/2+z
1/2+x,1/2+y,z
1/2-x,1/2-y,z
1/2+x,1/2-y,-z
1/2-x,1/2+y,-z
1/2-x,1/2-y,-z
1/2+x,1/2+y,-z
1/2-x,1/2+y,z
1/2+x,1/2-y,z
loop_
_atom_site_type_symbol
_atom_site_label
_atom_site_fract_x
_atom_site_fract_y
_atom_site_fract_z
Si Si1 0.594063 0.052388 0.500000
Si Si2 0.590609 0.400918 0.116207
Si Si3 0.412566 0.272611 0.569710
Si Si4 0.834779 0.181063 0.069166
Si Si5 0.593126 0.054132 0.861777
Si Si6 0.166721 0.136797 0.569246
Si Si7 0.593943 0.948962 0.729965
O O1 0.500000 0.059414 0.500000
O O2 0.631303 0.074826 0.440892
O O3 0.620238 0.000000 0.500000
O O4 0.500000 0.416097 0.118441
O O5 0.599431 0.346397 0.106715
O O6 0.629608 0.416406 0.178374
O O7 0.410575 0.275788 0.500000
O O8 0.500000 0.258474 0.592307
O O9 0.346550 0.234502 0.588765
O O10 0.392560 0.323665 0.593617
O O11 0.751838 0.157948 0.086262
O O12 0.852414 0.176403 0.000000
O O13 0.500000 0.063879 0.872510
O O14 0.646692 0.087548 0.901867
O O15 0.619654 0.066704 0.795164
O O16 0.610816 0.000000 0.875434
O O17 0.159394 0.129116 0.500000
O O18 0.500000 0.949299 0.729130
O O19 0.626672 0.000000 0.716836
#
# Coordination Sequence:
#
# PCOD8283799 Si02
#       7
#    16  32  32  32  32  32  32
#     4   9  16  24  38  64  95 126 161 203 243 278
#     4  10  17  27  46  70  98 131 168 206 242 290
#     4   9  17  30  51  76  99 128 167 208 248 299
#     4  10  19  31  46  70 107 138 163 194 247 303
#     4   9  18  34  55  75  96 127 169 215 259 303
#     4  10  20  33  50  73 104 134 166 206 259 306
#     4   8  15  29  49  71  94 125 168 214 256 296
#
# _framework density 18.691963999999999
#
# number of rings (size 3 to 8) (size 9 to 14) (size 15 to 20)
#    0.000    2.692    0.769    2.769    0.000    5.538 
#    0.000    3.077    0.000    2.769    0.000    6.462 
#    0.000    0.000    0.000    0.000    0.000    0.000 
#
# Total GULP energy -644201.470315 kJ/mol
# GULP energy per Si atom -12388.489814 kJ/mol
# Density = 1.864942 g / cm^3
# Si number density = 18.691964 Si / 1000 Ang^3
#
#
#
# Elastic Constant Matrix: (Units=GPa)
#
#
# Indices 1 2 3 4 5 6 
#
# 1 49.2020 39.3409 29.1096 0.0000 0.0000 0.0000
# 2 39.3409 127.5829 52.6570 0.0000 0.0000 0.0000
# 3 29.1096 52.6570 79.6600 0.0000 0.0000 0.0000
# 4 0.0000 0.0000 0.0000 18.6627 0.0000 0.0000
# 5 0.0000 0.0000 0.0000 0.0000 12.5588 0.0000
# 6 0.0000 0.0000 0.0000 0.0000 0.0000 25.8257
#
#
#
# Elastic Compliance Matrix: (Units=1/GPa)
#
#
# Indices 1 2 3 4 5 6 
#
# 1 0.029231 -0.006333 -0.006496 0.000000 0.000000 0.000000
# 2 -0.006333 0.012151 -0.005718 0.000000 0.000000 0.000000
# 3 -0.006496 -0.005718 0.018707 0.000000 0.000000 0.000000
# 4 0.000000 0.000000 0.000000 0.053583 0.000000 0.000000
# 5 0.000000 0.000000 0.000000 0.000000 0.079625 0.000000
# 6 0.000000 0.000000 0.000000 0.000000 0.000000 0.038721
#
#
# Mechanical properties :
#
#
# Convention : Reuss Voigt Hill
#
# Bulk Modulus (GPa) = 43.48568 55.40664 49.44616
# Shear Modulus (GPa) = 18.06526 20.43194 19.24860
#
# Velocity S-wave (km/s) = 3.11219 3.30977 3.21250
# Velocity P-wave (km/s) = 6.01906 6.65676 6.34593
#
# Compressibility (1/GPa) = 0.02299608
#
# Stress axis : x y z
#
# Youngs Moduli (GPa) = 34.21044 82.30058 53.45718
#
# Poissons Ratio (x) = 0.52117 0.34724
# Poissons Ratio (y) = 0.21664 0.30565
# Poissons Ratio (z) = 0.22222 0.47057
#
# Static dielectric constant tensor:
#      x y z
#    x 3.202350 0.000000 0.000000 
#    y 0.000000 3.601070 0.000000 
#    z 0.000000 0.000000 3.381950 
# 
# 
# High freq. dielectric constant tensor:
#      x y z
#    x 1.700590 0.000000 0.000000 
#    y 0.000000 1.731980 0.000000 
#    z 0.000000 0.000000 1.692140 
# 
# From -- ./inp_files/26126.got.cif
#   From: 2010.03.12/outbox.cif.g09.slc.cpg/sg69_14_cif.got.tgz:26126.got - 2010.04.10 23:52:46.
