data_PCOD8283261
_publ_section_title
;
Structure prediction by ZEFSAII (Michael W. Deem and Ramdas Pophale) SiO2 
 PCOD8283261
Probable space group: C C C A
;
_chemical_formula_sum "Si O2"
_cell_formula_units_Z 100
_cell_length_a 8.459555
_cell_length_b 21.244781
_cell_length_c 23.420730
_cell_angle_alpha 90.000000
_cell_angle_beta 90.000000
_cell_angle_gamma 90.000000
_cell_volume 4209.206228
_symmetry_space_group_name_H-M "C C C A"
_symmetry_group_IT_number 68
_space_group.IT_coordinate_system_code '2'
_symmetry_cell_setting 'orthorhombic'
loop_
_space_group_symop_operation_xyz
x,y,z
-x,1/2-y,z
x,1/2-y,1/2-z
-x,y,1/2-z
-x,-y,-z
x,1/2+y,-z
-x,1/2+y,1/2+z
x,-y,1/2+z
1/2+x,1/2+y,z
1/2-x,-y,z
1/2+x,-y,1/2-z
1/2-x,1/2+y,1/2-z
1/2-x,1/2-y,-z
1/2+x,y,-z
1/2-x,y,1/2+z
1/2+x,1/2-y,1/2+z
loop_
_atom_site_type_symbol
_atom_site_label
_atom_site_fract_x
_atom_site_fract_y
_atom_site_fract_z
Si Si1 0.022235 0.175748 0.931513
Si Si2 0.684052 0.568087 0.241196
Si Si3 0.295004 0.145990 0.629555
Si Si4 0.500000 0.750000 0.338806
Si Si5 0.273196 0.834407 0.823867
Si Si6 0.750000 0.000000 0.511175
Si Si7 0.000000 0.750000 0.250000
Si Si8 0.006079 0.586238 0.960752
O O1 0.175887 0.163372 0.890996
O O2 0.000000 0.250000 0.942988
O O3 0.869691 0.143001 0.903305
O O4 0.036989 0.140769 0.992260
O O5 0.500000 0.560734 0.250000
O O6 0.750000 0.500000 0.225232
O O7 0.730452 0.617928 0.192054
O O8 0.768364 0.594994 0.298472
O O9 0.352086 0.218686 0.628211
O O10 0.442080 0.110555 0.600612
O O11 0.403298 0.806208 0.307651
O O12 0.400438 0.792383 0.792137
O O13 0.613814 0.974307 0.470989
O O14 0.826826 0.940887 0.545878
#
# Coordination Sequence:
#
# PCOD8283261 Si02
#       8
#    16  16  16   8  16   8   4  16
#     4  12  26  47  74 114 153 192 244 309 382 449
#     4  12  30  50  72 109 148 195 251 308 368 441
#     4  12  27  48  74 108 151 195 241 314 376 448
#     4  12  24  45  75 106 143 184 248 295 378 440
#     4  12  25  47  74 111 146 200 243 307 372 453
#     4  10  24  48  70 100 142 194 254 288 364 438
#     4  12  24  42  78 104 150 190 256 290 374 454
#     4  11  26  47  74 108 144 200 246 310 368 444
#
# _framework density 23.757449999999999
#
# number of rings (size 3 to 8) (size 9 to 14) (size 15 to 20)
#    0.000    0.320    5.600    1.920    7.840    1.280 
#    2.880    0.000    0.000    0.000    0.000    0.000 
#    0.000    0.000    0.000    0.000    0.000    0.000 
#
# Total GULP energy -619639.139813 kJ/mol
# GULP energy per Si atom -12392.782796 kJ/mol
# Density = 2.370338 g / cm^3
# Si number density = 23.757450 Si / 1000 Ang^3
#
#
#
# Elastic Constant Matrix: (Units=GPa)
#
#
# Indices 1 2 3 4 5 6 
#
# 1 91.1245 27.6173 16.9075 0.0000 0.0000 0.0000
# 2 27.6173 116.3739 35.1520 0.0000 0.0000 0.0000
# 3 16.9075 35.1520 82.1812 0.0000 0.0000 0.0000
# 4 0.0000 0.0000 0.0000 6.9524 0.0000 0.0000
# 5 0.0000 0.0000 0.0000 0.0000 29.5753 0.0000
# 6 0.0000 0.0000 0.0000 0.0000 0.0000 43.3344
#
#
#
# Elastic Compliance Matrix: (Units=1/GPa)
#
#
# Indices 1 2 3 4 5 6 
#
# 1 0.011970 -0.002408 -0.001433 0.000000 0.000000 0.000000
# 2 -0.002408 0.010352 -0.003933 0.000000 0.000000 0.000000
# 3 -0.001433 -0.003933 0.014145 0.000000 0.000000 0.000000
# 4 0.000000 0.000000 0.000000 0.143836 0.000000 0.000000
# 5 0.000000 0.000000 0.000000 0.000000 0.033812 0.000000
# 6 0.000000 0.000000 0.000000 0.000000 0.000000 0.023076
#
#
# Mechanical properties :
#
#
# Convention : Reuss Voigt Hill
#
# Bulk Modulus (GPa) = 47.79955 49.89258 48.84607
# Shear Modulus (GPa) = 19.25217 29.97259 24.61238
#
# Velocity S-wave (km/s) = 2.84978 3.55577 3.22217
# Velocity P-wave (km/s) = 5.56703 6.15665 5.86925
#
# Compressibility (1/GPa) = 0.02092070
#
# Stress axis : x y z
#
# Youngs Moduli (GPa) = 83.54533 96.59673 70.69565
#
# Poissons Ratio (x) = 0.23259 0.10128
# Poissons Ratio (y) = 0.20116 0.27802
# Poissons Ratio (z) = 0.11969 0.37989
#
# Static dielectric constant tensor:
#      x y z
#    x 4.673590 0.000000 0.000000 
#    y 0.000000 4.891740 0.000000 
#    z 0.000000 0.000000 4.129080 
# 
# 
# High freq. dielectric constant tensor:
#      x y z
#    x 1.964730 0.000000 0.000000 
#    y 0.000000 1.956370 0.000000 
#    z 0.000000 0.000000 1.918500 
# 
# From -- ./inp_files/49480.got.cif
#   From: 2010.03.12/outbox.cif.g09.slc.cpg/sg68_25_cif.got.tgz:49480.got - 2010.04.10 23:14:56.
