data_PCOD8283324
_publ_section_title
;
Structure prediction by ZEFSAII (Michael W. Deem and Ramdas Pophale) SiO2 
 PCOD8283324
Probable space group: C C C A
;
_chemical_formula_sum "Si O2"
_cell_formula_units_Z 64
_cell_length_a 27.928452
_cell_length_b 9.521247
_cell_length_c 9.385594
_cell_angle_alpha 90.000000
_cell_angle_beta 90.000000
_cell_angle_gamma 90.000000
_cell_volume 2495.757932
_symmetry_space_group_name_H-M "C C C A"
_symmetry_group_IT_number 68
_space_group.IT_coordinate_system_code '2'
_symmetry_cell_setting 'orthorhombic'
loop_
_space_group_symop_operation_xyz
x,y,z
-x,1/2-y,z
x,1/2-y,1/2-z
-x,y,1/2-z
-x,-y,-z
x,1/2+y,-z
-x,1/2+y,1/2+z
x,-y,1/2+z
1/2+x,1/2+y,z
1/2-x,-y,z
1/2+x,-y,1/2-z
1/2-x,1/2+y,1/2-z
1/2-x,1/2-y,-z
1/2+x,y,-z
1/2-x,y,1/2+z
1/2+x,1/2-y,1/2+z
loop_
_atom_site_type_symbol
_atom_site_label
_atom_site_fract_x
_atom_site_fract_y
_atom_site_fract_z
Si Si1 0.576883 0.250000 0.750000
Si Si2 0.032504 0.473857 0.636381
Si Si3 0.372671 0.369683 0.009773
Si Si4 0.750000 0.000000 0.677376
Si Si5 0.190229 0.623400 0.431439
O O1 0.543557 0.120120 0.713318
O O2 0.612826 0.223153 0.877480
O O3 0.081078 0.388384 0.609744
O O4 0.000000 0.387712 0.750000
O O5 0.000000 0.500000 0.500000
O O6 0.354420 0.520213 0.958058
O O7 0.329860 0.282453 0.085701
O O8 0.785715 0.083535 0.781355
O O9 0.724852 0.113221 0.570937
#
# Coordination Sequence:
#
# PCOD8283324 Si02
#       5
#     8  16  16   8  16
#     4  12  25  52  76 112 170 208 258 346 394 458
#     4  12  27  49  81 116 161 218 266 332 401 470
#     4  12  26  48  81 117 155 219 260 334 392 494
#     4  10  26  50  78 116 158 212 252 354 398 502
#     4  11  26  48  79 114 159 202 273 317 422 478
#
# _framework density 25.643514
#
# number of rings (size 3 to 8) (size 9 to 14) (size 15 to 20)
#    0.000    0.500    5.000    1.875    0.000    7.000 
#    4.500    3.750    0.000    0.000    0.000    0.000 
#    0.000    0.000    0.000    0.000    0.000    0.000 
#
# Total GULP energy -396825.030627 kJ/mol
# GULP energy per Si atom -12400.782207 kJ/mol
# Density = 2.558515 g / cm^3
# Si number density = 25.643514 Si / 1000 Ang^3
#
#
#
# Elastic Constant Matrix: (Units=GPa)
#
#
# Indices 1 2 3 4 5 6 
#
# 1 164.2122 38.6016 81.5050 0.0000 0.0000 0.0000
# 2 38.6016 89.7479 26.7903 0.0000 0.0000 0.0000
# 3 81.5050 26.7903 170.8890 0.0000 0.0000 0.0000
# 4 0.0000 0.0000 0.0000 29.7140 0.0000 0.0000
# 5 0.0000 0.0000 0.0000 0.0000 169.0537 0.0000
# 6 0.0000 0.0000 0.0000 0.0000 0.0000 49.4078
#
#
#
# Elastic Compliance Matrix: (Units=1/GPa)
#
#
# Indices 1 2 3 4 5 6 
#
# 1 0.008508 -0.002568 -0.003655 0.000000 0.000000 0.000000
# 2 -0.002568 0.012465 -0.000729 0.000000 0.000000 0.000000
# 3 -0.003655 -0.000729 0.007709 0.000000 0.000000 0.000000
# 4 0.000000 0.000000 0.000000 0.033654 0.000000 0.000000
# 5 0.000000 0.000000 0.000000 0.000000 0.005915 0.000000
# 6 0.000000 0.000000 0.000000 0.000000 0.000000 0.020240
#
#
# Mechanical properties :
#
#
# Convention : Reuss Voigt Hill
#
# Bulk Modulus (GPa) = 67.67422 79.84921 73.76172
# Shear Modulus (GPa) = 46.58927 68.16525 57.37726
#
# Velocity S-wave (km/s) = 4.26702 5.16135 4.73535
# Velocity P-wave (km/s) = 7.12210 8.16855 7.66321
#
# Compressibility (1/GPa) = 0.01477667
#
# Stress axis : x y z
#
# Youngs Moduli (GPa) = 117.54324 80.22737 129.71305
#
# Poissons Ratio (x) = 0.20603 0.47410
# Poissons Ratio (y) = 0.30187 0.09459
# Poissons Ratio (z) = 0.42962 0.05850
#
# Static dielectric constant tensor:
#      x y z
#    x 5.028530 0.000000 0.000000 
#    y 0.000000 4.532850 0.000000 
#    z 0.000000 0.000000 4.908700 
# 
# 
# High freq. dielectric constant tensor:
#      x y z
#    x 2.050010 0.000000 0.000000 
#    y 0.000000 2.017230 0.000000 
#    z 0.000000 0.000000 2.043270 
# 
# From -- ./inp_files/4085.got.cif
#   From: 2010.03.12/outbox.cif.g09.slc.cpg/sg68_3_cif.got.tgz:4085.got - 2010.04.10 23:14:56.
