data_PCOD8283370
_publ_section_title
;
Structure prediction by ZEFSAII (Michael W. Deem and Ramdas Pophale) SiO2 
 PCOD8283370
Probable space group: C C C A
;
_chemical_formula_sum "Si O2"
_cell_formula_units_Z 96
_cell_length_a 14.355067
_cell_length_b 21.696464
_cell_length_c 14.114689
_cell_angle_alpha 90.000000
_cell_angle_beta 90.000000
_cell_angle_gamma 90.000000
_cell_volume 4396.079091
_symmetry_space_group_name_H-M "C C C A"
_symmetry_group_IT_number 68
_space_group.IT_coordinate_system_code '2'
_symmetry_cell_setting 'orthorhombic'
loop_
_space_group_symop_operation_xyz
x,y,z
-x,1/2-y,z
x,1/2-y,1/2-z
-x,y,1/2-z
-x,-y,-z
x,1/2+y,-z
-x,1/2+y,1/2+z
x,-y,1/2+z
1/2+x,1/2+y,z
1/2-x,-y,z
1/2+x,-y,1/2-z
1/2-x,1/2+y,1/2-z
1/2-x,1/2-y,-z
1/2+x,y,-z
1/2-x,y,1/2+z
1/2+x,1/2-y,1/2+z
loop_
_atom_site_type_symbol
_atom_site_label
_atom_site_fract_x
_atom_site_fract_y
_atom_site_fract_z
Si Si1 0.845688 0.027090 0.920926
Si Si2 0.261582 0.616426 0.776619
Si Si3 0.122788 0.226665 0.652521
Si Si4 0.394932 0.603636 0.407529
Si Si5 0.576754 0.853158 0.008078
Si Si6 0.725273 0.842051 0.573601
O O1 0.818898 0.059090 0.820476
O O2 0.897139 0.076423 0.986072
O O3 0.750000 0.000000 0.966289
O O4 0.916865 0.969672 0.910445
O O5 0.294380 0.681614 0.817949
O O6 0.151877 0.615094 0.804918
O O7 0.275203 0.612875 0.664346
O O8 0.073483 0.250000 0.750000
O O9 0.050173 0.187719 0.586110
O O10 0.165360 0.281474 0.591135
O O11 0.487640 0.644511 0.422592
O O12 0.316407 0.620342 0.485805
O O13 0.667600 0.821586 0.054265
#
# Coordination Sequence:
#
# PCOD8283370 Si02
#       6
#    16  16  16  16  16  16
#     4   9  17  40  58  81 124 160 201 262 306 374
#     4   9  20  39  62  86 123 168 207 259 312 382
#     4   9  19  39  63  88 124 165 203 259 312 380
#     4  11  22  38  61  90 124 161 211 261 318 374
#     4  11  21  36  65  90 122 160 209 261 321 376
#     4  11  21  39  64  87 124 169 210 252 326 379
#
# _framework density 21.837641999999999
#
# number of rings (size 3 to 8) (size 9 to 14) (size 15 to 20)
#    0.000    2.000    5.000    1.000    0.000    1.333 
#    9.000   10.000    7.333    3.000    0.000    0.000 
#    0.000    0.000    0.000    0.000    0.000    0.000 
#
# Total GULP energy -594792.543962 kJ/mol
# GULP energy per Si atom -12391.511333 kJ/mol
# Density = 2.178794 g / cm^3
# Si number density = 21.837642 Si / 1000 Ang^3
#
#
#
# Elastic Constant Matrix: (Units=GPa)
#
#
# Indices 1 2 3 4 5 6 
#
# 1 97.7617 17.8081 16.9980 0.0000 0.0000 0.0000
# 2 17.8081 97.0546 26.3095 0.0000 0.0000 0.0000
# 3 16.9980 26.3095 61.4901 0.0000 0.0000 0.0000
# 4 0.0000 0.0000 0.0000 29.3446 0.0000 0.0000
# 5 0.0000 0.0000 0.0000 0.0000 2.4021 0.0000
# 6 0.0000 0.0000 0.0000 0.0000 0.0000 8.7671
#
#
#
# Elastic Compliance Matrix: (Units=1/GPa)
#
#
# Indices 1 2 3 4 5 6 
#
# 1 0.010897 -0.001338 -0.002440 0.000000 0.000000 0.000000
# 2 -0.001338 0.011820 -0.004687 0.000000 0.000000 0.000000
# 3 -0.002440 -0.004687 0.018943 0.000000 0.000000 0.000000
# 4 0.000000 0.000000 0.000000 0.034078 0.000000 0.000000
# 5 0.000000 0.000000 0.000000 0.000000 0.416307 0.000000
# 6 0.000000 0.000000 0.000000 0.000000 0.000000 0.114063
#
#
# Mechanical properties :
#
#
# Convention : Reuss Voigt Hill
#
# Bulk Modulus (GPa) = 40.43838 42.05974 41.24906
# Shear Modulus (GPa) = 7.92041 21.11548 14.51795
#
# Velocity S-wave (km/s) = 1.90652 3.11292 2.58119
# Velocity P-wave (km/s) = 4.83781 5.67648 5.27384
#
# Compressibility (1/GPa) = 0.02472898
#
# Stress axis : x y z
#
# Youngs Moduli (GPa) = 91.76921 84.60505 52.79061
#
# Poissons Ratio (x) = 0.11321 0.12880
# Poissons Ratio (y) = 0.12279 0.24745
# Poissons Ratio (z) = 0.22390 0.39657
#
# Static dielectric constant tensor:
#      x y z
#    x 3.757310 0.000000 0.000000 
#    y 0.000000 4.253490 0.000000 
#    z 0.000000 0.000000 4.035060 
# 
# 
# High freq. dielectric constant tensor:
#      x y z
#    x 1.841920 0.000000 0.000000 
#    y 0.000000 1.871890 0.000000 
#    z 0.000000 0.000000 1.839680 
# 
# From -- ./inp_files/22364.got.cif
#   From: 2010.03.12/outbox.cif.g09.slc.cpg/sg68_12_cif.got.tgz:22364.got - 2010.04.10 23:14:56.
