data_PCOD8283045
_publ_section_title
;
Structure prediction by ZEFSAII (Michael W. Deem and Ramdas Pophale) SiO2 
 PCOD8283045
Probable space group: C C C A
;
_chemical_formula_sum "Si O2"
_cell_formula_units_Z 104
_cell_length_a 19.588341
_cell_length_b 26.042023
_cell_length_c 9.098574
_cell_angle_alpha 90.000000
_cell_angle_beta 90.000000
_cell_angle_gamma 90.000000
_cell_volume 4641.364813
_symmetry_space_group_name_H-M "C C C A"
_symmetry_group_IT_number 68
_space_group.IT_coordinate_system_code '2'
_symmetry_cell_setting 'orthorhombic'
loop_
_space_group_symop_operation_xyz
x,y,z
-x,1/2-y,z
x,1/2-y,1/2-z
-x,y,1/2-z
-x,-y,-z
x,1/2+y,-z
-x,1/2+y,1/2+z
x,-y,1/2+z
1/2+x,1/2+y,z
1/2-x,-y,z
1/2+x,-y,1/2-z
1/2-x,1/2+y,1/2-z
1/2-x,1/2-y,-z
1/2+x,y,-z
1/2-x,y,1/2+z
1/2+x,1/2-y,1/2+z
loop_
_atom_site_type_symbol
_atom_site_label
_atom_site_fract_x
_atom_site_fract_y
_atom_site_fract_z
Si Si1 0.681680 0.032295 0.899894
Si Si2 0.825236 0.145448 0.949594
Si Si3 0.920189 0.807488 0.244406
Si Si4 0.381702 0.360747 0.942067
Si Si5 0.500000 0.092545 0.750000
Si Si6 0.219180 0.691569 0.746934
Si Si7 0.123889 0.544341 0.591315
O O1 0.673912 0.092126 0.949563
O O2 0.671926 0.028851 0.726648
O O3 0.750000 0.000000 0.943709
O O4 0.618561 0.004261 0.983079
O O5 0.898991 0.164825 0.895746
O O6 0.777241 0.152779 0.806499
O O7 0.794202 0.179545 0.077979
O O8 0.834843 0.087634 0.001869
O O9 0.889336 0.750000 0.250000
O O10 0.000000 0.805433 0.250000
O O11 0.894691 0.839121 0.103100
O O12 0.451987 0.374859 0.858823
O O13 0.349186 0.315825 0.842802
O O14 0.548322 0.058712 0.644830
O O15 0.244470 0.750000 0.750000
#
# Coordination Sequence:
#
# PCOD8283045 Si02
#       7
#    16  16  16  16   8  16  16
#     4  11  24  44  68 102 137 179 235 291 368 432
#     4  12  24  44  66 104 140 184 229 303 350 436
#     4  11  25  45  72 104 146 195 249 293 355 423
#     4  11  24  46  70 104 143 190 236 306 356 435
#     4  10  22  48  67 102 140 186 247 292 372 420
#     4  12  24  42  71 101 138 183 235 294 365 424
#     4  11  25  41  71  97 140 184 231 293 355 436
#
# _framework density 22.407202000000002
#
# number of rings (size 3 to 8) (size 9 to 14) (size 15 to 20)
#    0.000    0.769    3.077    5.077    2.154    2.462 
#    1.385    0.000    0.000    0.000    0.000    0.000 
#    0.000    0.000    0.000    0.000    0.000    0.000 
#
# Total GULP energy -644591.149900 kJ/mol
# GULP energy per Si atom -12395.983652 kJ/mol
# Density = 2.235620 g / cm^3
# Si number density = 22.407202 Si / 1000 Ang^3
#
#
#
# Elastic Constant Matrix: (Units=GPa)
#
#
# Indices 1 2 3 4 5 6 
#
# 1 104.6026 36.8847 38.5236 0.0000 0.0000 0.0000
# 2 36.8847 118.0917 63.6493 0.0000 0.0000 0.0000
# 3 38.5236 63.6493 139.7187 0.0000 0.0000 0.0000
# 4 0.0000 0.0000 0.0000 44.9104 0.0000 0.0000
# 5 0.0000 0.0000 0.0000 0.0000 46.8738 0.0000
# 6 0.0000 0.0000 0.0000 0.0000 0.0000 29.3334
#
#
#
# Elastic Compliance Matrix: (Units=1/GPa)
#
#
# Indices 1 2 3 4 5 6 
#
# 1 0.011138 -0.002417 -0.001970 0.000000 0.000000 0.000000
# 2 -0.002417 0.011748 -0.004686 0.000000 0.000000 0.000000
# 3 -0.001970 -0.004686 0.009835 0.000000 0.000000 0.000000
# 4 0.000000 0.000000 0.000000 0.022267 0.000000 0.000000
# 5 0.000000 0.000000 0.000000 0.000000 0.021334 0.000000
# 6 0.000000 0.000000 0.000000 0.000000 0.000000 0.034091
#
#
# Mechanical properties :
#
#
# Convention : Reuss Voigt Hill
#
# Bulk Modulus (GPa) = 68.60550 71.16983 69.88766
# Shear Modulus (GPa) = 37.47678 39.11387 38.29533
#
# Velocity S-wave (km/s) = 4.09410 4.18256 4.13857
# Velocity P-wave (km/s) = 7.28237 7.42672 7.35490
#
# Compressibility (1/GPa) = 0.01457609
#
# Stress axis : x y z
#
# Youngs Moduli (GPa) = 89.78475 85.11811 101.67878
#
# Poissons Ratio (x) = 0.20574 0.20029
# Poissons Ratio (y) = 0.21701 0.47642
# Poissons Ratio (z) = 0.17686 0.39883
#
# Static dielectric constant tensor:
#      x y z
#    x 4.151030 0.000000 0.000000 
#    y 0.000000 4.164450 0.000000 
#    z 0.000000 0.000000 4.261610 
# 
# 
# High freq. dielectric constant tensor:
#      x y z
#    x 1.890210 0.000000 0.000000 
#    y 0.000000 1.883710 0.000000 
#    z 0.000000 0.000000 1.898210 
# 
# From -- ./inp_files/7400.got.cif
#   From: 2010.03.12/outbox.cif.g09.slc.cpg/sg68_4_cif.got.tgz:7400.got - 2010.04.10 23:14:56.
