data_PCOD8283006
_publ_section_title
;
Structure prediction by ZEFSAII (Michael W. Deem and Ramdas Pophale) SiO2 
 PCOD8283006
Probable space group: C C C A
;
_chemical_formula_sum "Si O2"
_cell_formula_units_Z 96
_cell_length_a 13.883594
_cell_length_b 22.974334
_cell_length_c 14.759923
_cell_angle_alpha 90.000000
_cell_angle_beta 90.000000
_cell_angle_gamma 90.000000
_cell_volume 4707.918407
_symmetry_space_group_name_H-M "C C C A"
_symmetry_group_IT_number 68
_space_group.IT_coordinate_system_code '2'
_symmetry_cell_setting 'orthorhombic'
loop_
_space_group_symop_operation_xyz
x,y,z
-x,1/2-y,z
x,1/2-y,1/2-z
-x,y,1/2-z
-x,-y,-z
x,1/2+y,-z
-x,1/2+y,1/2+z
x,-y,1/2+z
1/2+x,1/2+y,z
1/2-x,-y,z
1/2+x,-y,1/2-z
1/2-x,1/2+y,1/2-z
1/2-x,1/2-y,-z
1/2+x,y,-z
1/2-x,y,1/2+z
1/2+x,1/2-y,1/2+z
loop_
_atom_site_type_symbol
_atom_site_label
_atom_site_fract_x
_atom_site_fract_y
_atom_site_fract_z
Si Si1 0.792611 0.617060 0.241675
Si Si2 0.007100 0.642302 0.644216
Si Si3 0.000000 0.577307 0.250000
Si Si4 0.750000 0.000000 0.661263
Si Si5 0.199022 0.326399 0.421324
Si Si6 0.458063 0.510411 0.098194
Si Si7 0.291781 0.192172 0.894324
O O1 0.749094 0.555648 0.273178
O O2 0.759282 0.628302 0.139271
O O3 0.749461 0.668873 0.300661
O O4 0.907597 0.618822 0.250324
O O5 0.914226 0.662791 0.588718
O O6 0.000000 0.659635 0.750000
O O7 0.017168 0.573500 0.635847
O O8 0.095887 0.675663 0.597670
O O9 0.991971 0.536769 0.162226
O O10 0.657053 0.001008 0.596762
O O11 0.232119 0.337815 0.524263
O O12 0.224026 0.260838 0.393503
O O13 0.500000 0.500000 0.000000
#
# Coordination Sequence:
#
# PCOD8283006 Si02
#       7
#    16  16   8   8  16  16  16
#     4  11  23  43  67  89 137 172 214 272 334 386
#     4  12  23  43  71  99 130 175 226 283 329 392
#     4  10  26  42  57  98 131 168 214 264 314 420
#     4  10  22  44  62  98 132 170 214 274 318 412
#     4  11  26  42  69  98 129 176 224 280 328 389
#     4  11  24  41  65  94 132 171 218 262 336 394
#     4  11  25  45  65 100 132 168 232 273 330 398
#
# _framework density 20.391176999999999
#
# number of rings (size 3 to 8) (size 9 to 14) (size 15 to 20)
#    0.000    1.000    4.167    1.000    9.333    0.667 
#    0.000    4.167    0.000    0.000    0.000    0.000 
#    0.000    0.000    0.000    0.000    0.000    0.000 
#
# Total GULP energy -595507.033965 kJ/mol
# GULP energy per Si atom -12406.396541 kJ/mol
# Density = 2.034477 g / cm^3
# Si number density = 20.391177 Si / 1000 Ang^3
#
#
#
# Elastic Constant Matrix: (Units=GPa)
#
#
# Indices 1 2 3 4 5 6 
#
# 1 127.2906 25.2068 43.3634 0.0000 0.0000 0.0000
# 2 25.2068 57.5277 11.4465 0.0000 0.0000 0.0000
# 3 43.3634 11.4465 99.2170 0.0000 0.0000 0.0000
# 4 0.0000 0.0000 0.0000 26.2897 0.0000 0.0000
# 5 0.0000 0.0000 0.0000 0.0000 39.5271 0.0000
# 6 0.0000 0.0000 0.0000 0.0000 0.0000 22.4193
#
#
#
# Elastic Compliance Matrix: (Units=1/GPa)
#
#
# Indices 1 2 3 4 5 6 
#
# 1 0.009894 -0.003556 -0.003914 0.000000 0.000000 0.000000
# 2 -0.003556 0.019070 -0.000646 0.000000 0.000000 0.000000
# 3 -0.003914 -0.000646 0.011864 0.000000 0.000000 0.000000
# 4 0.000000 0.000000 0.000000 0.038038 0.000000 0.000000
# 5 0.000000 0.000000 0.000000 0.000000 0.025299 0.000000
# 6 0.000000 0.000000 0.000000 0.000000 0.000000 0.044604
#
#
# Mechanical properties :
#
#
# Convention : Reuss Voigt Hill
#
# Bulk Modulus (GPa) = 40.65773 49.34098 44.99935
# Shear Modulus (GPa) = 28.86860 31.24845 30.05853
#
# Velocity S-wave (km/s) = 3.76671 3.91890 3.84356
# Velocity P-wave (km/s) = 6.23696 6.68781 6.46631
#
# Compressibility (1/GPa) = 0.02459557
#
# Stress axis : x y z
#
# Youngs Moduli (GPa) = 101.07586 52.43931 84.28902
#
# Poissons Ratio (x) = 0.18649 0.32989
# Poissons Ratio (y) = 0.35946 0.05443
# Poissons Ratio (z) = 0.39559 0.03386
#
# Static dielectric constant tensor:
#      x y z
#    x 3.796270 0.000000 0.000000 
#    y 0.000000 3.793720 0.000000 
#    z 0.000000 0.000000 3.723100 
# 
# 
# High freq. dielectric constant tensor:
#      x y z
#    x 1.810690 0.000000 0.000000 
#    y 0.000000 1.802830 0.000000 
#    z 0.000000 0.000000 1.796380 
# 
# From -- ./inp_files/22405.got.cif
#   From: 2010.03.12/outbox.cif.g09.slc.cpg/sg68_12_cif.got.tgz:22405.got - 2010.04.10 23:14:56.
