data_PCOD8283847
_publ_section_title
;
Structure prediction by ZEFSAII (Michael W. Deem and Ramdas Pophale) SiO2 
 PCOD8283847
Probable space group: F M M M
;
_chemical_formula_sum "Si O2"
_cell_formula_units_Z 160
_cell_length_a 28.078444
_cell_length_b 27.805901
_cell_length_c 13.983894
_cell_angle_alpha 90.000000
_cell_angle_beta 90.000000
_cell_angle_gamma 90.000000
_cell_volume 10917.875375
_symmetry_space_group_name_H-M "F M M M"
_symmetry_group_IT_number 69
_symmetry_cell_setting 'orthorhombic'
loop_
_space_group_symop_operation_xyz
x,y,z
-x,-y,z
x,-y,-z
-x,y,-z
-x,-y,-z
x,y,-z
-x,y,z
x,-y,z
x,1/2+y,1/2+z
-x,1/2-y,1/2+z
x,1/2-y,1/2-z
-x,1/2+y,1/2-z
-x,1/2-y,1/2-z
x,1/2+y,1/2-z
-x,1/2+y,1/2+z
x,1/2-y,1/2+z
1/2+x,y,1/2+z
1/2-x,-y,1/2+z
1/2+x,-y,1/2-z
1/2-x,y,1/2-z
1/2-x,-y,1/2-z
1/2+x,y,1/2-z
1/2-x,y,1/2+z
1/2+x,-y,1/2+z
1/2+x,1/2+y,z
1/2-x,1/2-y,z
1/2+x,1/2-y,-z
1/2-x,1/2+y,-z
1/2-x,1/2-y,-z
1/2+x,1/2+y,-z
1/2-x,1/2+y,z
1/2+x,1/2-y,z
loop_
_atom_site_type_symbol
_atom_site_label
_atom_site_fract_x
_atom_site_fract_y
_atom_site_fract_z
Si Si1 0.197562 0.693523 0.250129
Si Si2 0.056550 0.053603 0.106886
Si Si3 0.880042 0.681577 0.109405
Si Si4 0.383968 0.205156 0.609429
Si Si5 0.443935 0.359100 0.766482
O O1 0.204943 0.750000 0.250000
O O2 0.250000 0.668845 0.250000
O O3 0.171955 0.673058 0.155217
O O4 0.163861 0.683154 0.341819
O O5 0.075075 0.091019 0.186673
O O6 0.000000 0.055390 0.104709
O O7 0.074145 0.000000 0.135040
O O8 0.075406 0.066926 0.000000
O O9 0.890769 0.737966 0.121660
O O10 0.919302 0.649655 0.163996
O O11 0.879547 0.664922 0.000000
O O12 0.381859 0.189548 0.500000
O O13 0.430388 0.183175 0.659903
O O14 0.500000 0.359329 0.749707
#
# Coordination Sequence:
#
# PCOD8283847 Si02
#       5
#    32  32  32  32  32
#     4   8  14  25  40  56  74  99 131 164 199 236
#     4   8  14  25  41  60  78  95 121 161 206 243
#     4   9  18  29  38  53  80 110 138 165 189 221
#     4   9  17  27  38  56  81 105 132 166 198 229
#     4  10  18  27  40  56  77 107 138 164 193 229
#
# _framework density 14.654864999999999
#
# number of rings (size 3 to 8) (size 9 to 14) (size 15 to 20)
#    0.000    3.200    0.000    3.000    0.000    4.000 
#    0.000    6.000    0.000    0.600    0.000    2.800 
#    0.000   12.800    0.000   16.000    0.000    1.600 
#
# Total GULP energy -495613.739869 kJ/mol
# GULP energy per Si atom -12390.343497 kJ/mol
# Density = 1.462151 g / cm^3
# Si number density = 14.654865 Si / 1000 Ang^3
#
#
#
# Elastic Constant Matrix: (Units=GPa)
#
#
# Indices 1 2 3 4 5 6 
#
# 1 82.1042 28.4465 48.9248 0.0000 0.0000 0.0000
# 2 28.4465 43.1807 41.3433 0.0000 0.0000 0.0000
# 3 48.9248 41.3433 138.8521 0.0000 0.0000 0.0000
# 4 0.0000 0.0000 0.0000 21.0058 0.0000 0.0000
# 5 0.0000 0.0000 0.0000 0.0000 9.7826 0.0000
# 6 0.0000 0.0000 0.0000 0.0000 0.0000 1.6947
#
#
#
# Elastic Compliance Matrix: (Units=1/GPa)
#
#
# Indices 1 2 3 4 5 6 
#
# 1 0.017057 -0.007669 -0.003727 0.000000 0.000000 0.000000
# 2 -0.007669 0.035841 -0.007970 0.000000 0.000000 0.000000
# 3 -0.003727 -0.007970 0.010888 0.000000 0.000000 0.000000
# 4 0.000000 0.000000 0.000000 0.047606 0.000000 0.000000
# 5 0.000000 0.000000 0.000000 0.000000 0.102223 0.000000
# 6 0.000000 0.000000 0.000000 0.000000 0.000000 0.590091
#
#
# Mechanical properties :
#
#
# Convention : Reuss Voigt Hill
#
# Bulk Modulus (GPa) = 39.91056 55.72960 47.82008
# Shear Modulus (GPa) = 5.87690 16.19144 11.03417
#
# Velocity S-wave (km/s) = 2.00472 3.32754 2.74694
# Velocity P-wave (km/s) = 5.71413 7.27145 6.53931
#
# Compressibility (1/GPa) = 0.02505602
#
# Stress axis : x y z
#
# Youngs Moduli (GPa) = 58.62559 27.90099 91.84423
#
# Poissons Ratio (x) = 0.21397 0.34229
# Poissons Ratio (y) = 0.44959 0.73196
# Poissons Ratio (z) = 0.21849 0.22236
#
# Static dielectric constant tensor:
#      x y z
#    x 2.859960 0.000000 0.000000 
#    y 0.000000 2.747320 0.000000 
#    z 0.000000 0.000000 3.003970 
# 
# 
# High freq. dielectric constant tensor:
#      x y z
#    x 1.543350 0.000000 0.000000 
#    y 0.000000 1.522780 0.000000 
#    z 0.000000 0.000000 1.564620 
# 
# From -- ./inp_files/18892.got.cif
#   From: 2010.03.12/outbox.cif.g09.slc.cpg/sg69_10_cif.got.tgz:18892.got - 2010.04.10 23:52:46.
