data_PCOD8283361
_publ_section_title
;
Structure prediction by ZEFSAII (Michael W. Deem and Ramdas Pophale) SiO2 
 PCOD8283361
Probable space group: C C C A
;
_chemical_formula_sum "Si O2"
_cell_formula_units_Z 116
_cell_length_a 17.633636
_cell_length_b 16.720416
_cell_length_c 17.566132
_cell_angle_alpha 90.000000
_cell_angle_beta 90.000000
_cell_angle_gamma 90.000000
_cell_volume 5179.228740
_symmetry_space_group_name_H-M "C C C A"
_symmetry_group_IT_number 68
_space_group.IT_coordinate_system_code '2'
_symmetry_cell_setting 'orthorhombic'
loop_
_space_group_symop_operation_xyz
x,y,z
-x,1/2-y,z
x,1/2-y,1/2-z
-x,y,1/2-z
-x,-y,-z
x,1/2+y,-z
-x,1/2+y,1/2+z
x,-y,1/2+z
1/2+x,1/2+y,z
1/2-x,-y,z
1/2+x,-y,1/2-z
1/2-x,1/2+y,1/2-z
1/2-x,1/2-y,-z
1/2+x,y,-z
1/2-x,y,1/2+z
1/2+x,1/2-y,1/2+z
loop_
_atom_site_type_symbol
_atom_site_label
_atom_site_fract_x
_atom_site_fract_y
_atom_site_fract_z
Si Si1 0.701828 0.361373 0.609477
Si Si2 0.962162 0.831209 0.949854
Si Si3 0.065994 0.855590 0.382775
Si Si4 0.734500 0.807618 0.627387
Si Si5 0.204425 0.071899 0.480789
Si Si6 0.500000 0.250000 0.250000
Si Si7 0.570591 0.039438 0.609259
Si Si8 0.303887 0.924589 0.268593
O O1 0.628498 0.333287 0.562236
O O2 0.753629 0.286483 0.632748
O O3 0.760019 0.419454 0.564519
O O4 0.671896 0.411104 0.681664
O O5 0.000000 0.750000 0.917093
O O6 0.996751 0.905987 0.902943
O O7 0.980165 0.833134 0.040544
O O8 0.151991 0.833533 0.399738
O O9 0.046813 0.807351 0.305982
O O10 0.048770 0.949084 0.369994
O O11 0.789131 0.843744 0.562264
O O12 0.754978 0.846853 0.708111
O O13 0.116466 0.045094 0.472137
O O14 0.250000 0.000000 0.438086
O O15 0.621397 0.070640 0.679388
O O16 0.250000 0.000000 0.278267
#
# Coordination Sequence:
#
# PCOD8283361 Si02
#       8
#    16  16  16  16  16   4  16  16
#     4  12  26  39  70 111 141 185 246 306 363 432
#     4  12  26  46  69 107 151 191 246 300 371 452
#     4  12  25  48  69 102 142 195 247 297 369 442
#     4  11  22  42  68  95 136 184 235 298 352 421
#     4  11  20  41  69 101 128 181 242 299 353 419
#     4  12  32  44  72 108 150 186 238 312 376 440
#     4  11  24  46  75  98 147 200 238 301 375 446
#     4  11  23  44  68 104 139 184 246 301 363 426
#
# _framework density 22.397158000000001
#
# number of rings (size 3 to 8) (size 9 to 14) (size 15 to 20)
#    0.000    0.552    4.828    4.138    3.862    1.655 
#    0.000    0.690    0.000    0.000    0.000    0.000 
#    0.000    0.000    0.000    0.000    0.000    0.000 
#
# Total GULP energy -718847.060800 kJ/mol
# GULP energy per Si atom -12393.914841 kJ/mol
# Density = 2.234618 g / cm^3
# Si number density = 22.397158 Si / 1000 Ang^3
#
#
#
# Elastic Constant Matrix: (Units=GPa)
#
#
# Indices 1 2 3 4 5 6 
#
# 1 39.7137 33.5567 20.2737 0.0000 0.0000 0.0000
# 2 33.5567 138.3056 41.7244 0.0000 0.0000 0.0000
# 3 20.2737 41.7244 135.2873 0.0000 0.0000 0.0000
# 4 0.0000 0.0000 0.0000 20.0932 0.0000 0.0000
# 5 0.0000 0.0000 0.0000 0.0000 28.0020 0.0000
# 6 0.0000 0.0000 0.0000 0.0000 0.0000 38.3501
#
#
#
# Elastic Compliance Matrix: (Units=1/GPa)
#
#
# Indices 1 2 3 4 5 6 
#
# 1 0.032539 -0.007083 -0.002692 0.000000 0.000000 0.000000
# 2 -0.007083 0.009514 -0.001873 0.000000 0.000000 0.000000
# 3 -0.002692 -0.001873 0.008373 0.000000 0.000000 0.000000
# 4 0.000000 0.000000 0.000000 0.049768 0.000000 0.000000
# 5 0.000000 0.000000 0.000000 0.000000 0.035712 0.000000
# 6 0.000000 0.000000 0.000000 0.000000 0.000000 0.026076
#
#
# Mechanical properties :
#
#
# Convention : Reuss Voigt Hill
#
# Bulk Modulus (GPa) = 36.85840 56.04627 46.45233
# Shear Modulus (GPa) = 25.73084 31.80584 28.76834
#
# Velocity S-wave (km/s) = 3.39314 3.77249 3.58783
# Velocity P-wave (km/s) = 5.64302 6.63730 6.16025
#
# Compressibility (1/GPa) = 0.02713086
#
# Stress axis : x y z
#
# Youngs Moduli (GPa) = 30.73221 105.11003 119.43651
#
# Poissons Ratio (x) = 0.74448 0.32150
# Poissons Ratio (y) = 0.21767 0.22368
# Poissons Ratio (z) = 0.08272 0.19685
#
# Static dielectric constant tensor:
#      x y z
#    x 3.885910 0.000000 0.000000 
#    y 0.000000 4.210210 0.000000 
#    z 0.000000 0.000000 4.036520 
# 
# 
# High freq. dielectric constant tensor:
#      x y z
#    x 1.865780 0.000000 0.000000 
#    y 0.000000 1.899300 0.000000 
#    z 0.000000 0.000000 1.878800 
# 
# From -- ./inp_files/32161.got.cif
#   From: 2010.03.12/outbox.cif.g09.slc.cpg/sg68_17_cif.got.tgz:32161.got - 2010.04.10 23:14:56.
