data_PCOD8283674
_publ_section_title
;
Structure prediction by ZEFSAII (Michael W. Deem and Ramdas Pophale) SiO2 
 PCOD8283674
Probable space group: C C C A
;
_chemical_formula_sum "Si O2"
_cell_formula_units_Z 112
_cell_length_a 11.885178
_cell_length_b 26.792074
_cell_length_c 17.851917
_cell_angle_alpha 90.000000
_cell_angle_beta 90.000000
_cell_angle_gamma 90.000000
_cell_volume 5684.560375
_symmetry_space_group_name_H-M "C C C A"
_symmetry_group_IT_number 68
_space_group.IT_coordinate_system_code '2'
_symmetry_cell_setting 'orthorhombic'
loop_
_space_group_symop_operation_xyz
x,y,z
-x,1/2-y,z
x,1/2-y,1/2-z
-x,y,1/2-z
-x,-y,-z
x,1/2+y,-z
-x,1/2+y,1/2+z
x,-y,1/2+z
1/2+x,1/2+y,z
1/2-x,-y,z
1/2+x,-y,1/2-z
1/2-x,1/2+y,1/2-z
1/2-x,1/2-y,-z
1/2+x,y,-z
1/2-x,y,1/2+z
1/2+x,1/2-y,1/2+z
loop_
_atom_site_type_symbol
_atom_site_label
_atom_site_fract_x
_atom_site_fract_y
_atom_site_fract_z
Si Si1 0.286498 0.096865 0.716263
Si Si2 0.179192 0.304987 0.758380
Si Si3 0.996739 0.305256 0.875411
Si Si4 0.596967 0.599199 0.936228
Si Si5 0.558381 0.560185 0.098332
Si Si6 0.802704 0.053861 0.128354
Si Si7 0.564067 0.458550 0.172987
O O1 0.274369 0.152880 0.748647
O O2 0.387148 0.099886 0.655824
O O3 0.318653 0.059005 0.782583
O O4 0.168513 0.078286 0.682189
O O5 0.234578 0.250000 0.750000
O O6 0.089791 0.309891 0.692482
O O7 0.119628 0.314165 0.839251
O O8 0.957800 0.345169 0.938605
O O9 0.000000 0.250000 0.912227
O O10 0.725003 0.597983 0.905565
O O11 0.527920 0.567699 0.877148
O O12 0.601811 0.573088 0.016329
O O13 0.424418 0.560241 0.092117
O O14 0.605687 0.507457 0.128711
O O15 0.750000 0.000000 0.108976
O O16 0.500000 0.472527 0.250000
#
# Coordination Sequence:
#
# PCOD8283674 Si02
#       7
#    16  16  16  16  16  16  16
#     4  12  22  39  66  91 128 173 215 264 313 384
#     4   9  17  32  64 101 116 149 212 279 317 351
#     4   9  17  35  64  96 121 149 211 279 320 355
#     4  12  24  39  64  95 128 166 214 273 323 373
#     4  12  28  39  58  92 136 174 209 256 328 398
#     4  12  24  41  62  87 129 175 212 254 311 389
#     4  12  21  41  65  92 124 172 224 262 308 377
#
# _framework density 19.702490999999998
#
# number of rings (size 3 to 8) (size 9 to 14) (size 15 to 20)
#    0.000    0.857    5.714    3.857    2.000    0.000 
#    0.000    0.000    3.143    3.429    0.000    0.000 
#    0.000    0.000    0.000    0.000    0.000    0.000 
#
# Total GULP energy -694253.201807 kJ/mol
# GULP energy per Si atom -12397.378604 kJ/mol
# Density = 1.965765 g / cm^3
# Si number density = 19.702491 Si / 1000 Ang^3
#
#
#
# Elastic Constant Matrix: (Units=GPa)
#
#
# Indices 1 2 3 4 5 6 
#
# 1 68.8717 19.7127 24.2787 0.0000 0.0000 0.0000
# 2 19.7127 126.0251 32.6783 0.0000 0.0000 0.0000
# 3 24.2787 32.6783 102.1891 0.0000 0.0000 0.0000
# 4 0.0000 0.0000 0.0000 21.9485 0.0000 0.0000
# 5 0.0000 0.0000 0.0000 0.0000 -32.6365 0.0000
# 6 0.0000 0.0000 0.0000 0.0000 0.0000 22.0026
#
#
#
# Elastic Compliance Matrix: (Units=1/GPa)
#
#
# Indices 1 2 3 4 5 6 
#
# 1 0.016163 -0.001671 -0.003306 0.000000 0.000000 0.000000
# 2 -0.001671 0.008825 -0.002425 0.000000 0.000000 0.000000
# 3 -0.003306 -0.002425 0.011347 0.000000 0.000000 0.000000
# 4 0.000000 0.000000 0.000000 0.045561 0.000000 0.000000
# 5 0.000000 0.000000 0.000000 0.000000 -0.030641 0.000000
# 6 0.000000 0.000000 0.000000 0.000000 0.000000 0.045449
#
#
# Mechanical properties :
#
#
# Convention : Reuss Voigt Hill
#
# Bulk Modulus (GPa) = 46.44409 50.04728 48.24568
# Shear Modulus (GPa) = 42.12790 16.95733 29.54261
#
# Velocity S-wave (km/s) = 4.62909 2.93690 3.87646
# Velocity P-wave (km/s) = 7.22462 6.07924 6.67654
#
# Compressibility (1/GPa) = 0.02153127
#
# Stress axis : x y z
#
# Youngs Moduli (GPa) = 61.86813 113.31260 88.13134
#
# Poissons Ratio (x) = 0.18935 0.29135
# Poissons Ratio (y) = 0.10339 0.21373
# Poissons Ratio (z) = 0.20453 0.27480
#
# Static dielectric constant tensor:
#      x y z
#    x 3.682710 0.000000 0.000000 
#    y 0.000000 4.154200 0.000000 
#    z 0.000000 0.000000 3.431380 
# 
# 
# High freq. dielectric constant tensor:
#      x y z
#    x 1.755760 0.000000 0.000000 
#    y 0.000000 1.764620 0.000000 
#    z 0.000000 0.000000 1.750120 
# 
# From -- ./inp_files/37943.got.cif
#   From: 2010.03.12/outbox.cif.g09.slc.cpg/sg68_19_cif.got.tgz:37943.got - 2010.04.10 23:14:56.
