data_PCOD8283717
_publ_section_title
;
Structure prediction by ZEFSAII (Michael W. Deem and Ramdas Pophale) SiO2 
 PCOD8283717
Probable space group: C C C A
;
_chemical_formula_sum "Si O2"
_cell_formula_units_Z 64
_cell_length_a 11.053396
_cell_length_b 15.817842
_cell_length_c 15.581032
_cell_angle_alpha 90.000000
_cell_angle_beta 90.000000
_cell_angle_gamma 90.000000
_cell_volume 2724.201214
_symmetry_space_group_name_H-M "C C C A"
_symmetry_group_IT_number 68
_space_group.IT_coordinate_system_code '2'
_symmetry_cell_setting 'orthorhombic'
loop_
_space_group_symop_operation_xyz
x,y,z
-x,1/2-y,z
x,1/2-y,1/2-z
-x,y,1/2-z
-x,-y,-z
x,1/2+y,-z
-x,1/2+y,1/2+z
x,-y,1/2+z
1/2+x,1/2+y,z
1/2-x,-y,z
1/2+x,-y,1/2-z
1/2-x,1/2+y,1/2-z
1/2-x,1/2-y,-z
1/2+x,y,-z
1/2-x,y,1/2+z
1/2+x,1/2-y,1/2+z
loop_
_atom_site_type_symbol
_atom_site_label
_atom_site_fract_x
_atom_site_fract_y
_atom_site_fract_z
Si Si1 0.498721 0.017383 0.657807
Si Si2 0.500000 0.250000 0.983215
Si Si3 0.860672 0.686916 0.831634
Si Si4 0.250000 0.500000 0.439371
Si Si5 0.155303 0.114044 0.927972
O O1 0.500000 0.970983 0.750000
O O2 0.537205 0.114591 0.674359
O O3 0.365752 0.006390 0.620943
O O4 0.595615 0.975446 0.595549
O O5 0.385352 0.233917 0.921506
O O6 0.455084 0.325966 0.043620
O O7 0.867952 0.750000 0.750000
O O8 0.724954 0.651276 0.844656
O O9 0.248441 0.413204 0.496156
#
# Coordination Sequence:
#
# PCOD8283717 Si02
#       5
#    16   8  16   8  16
#     4  12  27  47  76 111 146 200 255 310 380 462
#     4  12  25  46  69 114 150 190 250 314 379 450
#     4  12  26  47  74 106 152 198 246 313 384 450
#     4  12  24  48  82 106 148 204 252 318 376 456
#     4  12  26  47  77 110 152 196 256 315 379 459
#
# _framework density 23.493126
#
# number of rings (size 3 to 8) (size 9 to 14) (size 15 to 20)
#    0.000    0.000    5.000    4.875    3.500    2.000 
#    0.000    0.000    0.000    0.000    0.000    0.000 
#    0.000    0.000    0.000    0.000    0.000    0.000 
#
# Total GULP energy -396616.568277 kJ/mol
# GULP energy per Si atom -12394.267759 kJ/mol
# Density = 2.343965 g / cm^3
# Si number density = 23.493126 Si / 1000 Ang^3
#
#
#
# Elastic Constant Matrix: (Units=GPa)
#
#
# Indices 1 2 3 4 5 6 
#
# 1 151.2355 64.8192 73.4341 0.0000 0.0000 0.0000
# 2 64.8192 131.7656 70.1065 0.0000 0.0000 0.0000
# 3 73.4341 70.1065 128.9808 0.0000 0.0000 0.0000
# 4 0.0000 0.0000 0.0000 42.5717 0.0000 0.0000
# 5 0.0000 0.0000 0.0000 0.0000 41.2737 0.0000
# 6 0.0000 0.0000 0.0000 0.0000 0.0000 37.7320
#
#
#
# Elastic Compliance Matrix: (Units=1/GPa)
#
#
# Indices 1 2 3 4 5 6 
#
# 1 0.009727 -0.002587 -0.004132 0.000000 0.000000 0.000000
# 2 -0.002587 0.011365 -0.004705 0.000000 0.000000 0.000000
# 3 -0.004132 -0.004705 0.012663 0.000000 0.000000 0.000000
# 4 0.000000 0.000000 0.000000 0.023490 0.000000 0.000000
# 5 0.000000 0.000000 0.000000 0.000000 0.024228 0.000000
# 6 0.000000 0.000000 0.000000 0.000000 0.000000 0.026503
#
#
# Mechanical properties :
#
#
# Convention : Reuss Voigt Hill
#
# Bulk Modulus (GPa) = 91.67459 92.07794 91.87626
# Shear Modulus (GPa) = 37.18621 37.89031 37.53826
#
# Velocity S-wave (km/s) = 3.98283 4.02036 4.00164
# Velocity P-wave (km/s) = 7.76255 7.79934 7.78096
#
# Compressibility (1/GPa) = 0.01090815
#
# Stress axis : x y z
#
# Youngs Moduli (GPa) = 102.80418 87.99171 78.97105
#
# Poissons Ratio (x) = 0.22759 0.32633
# Poissons Ratio (y) = 0.26591 0.37153
# Poissons Ratio (z) = 0.42481 0.41396
#
# Static dielectric constant tensor:
#      x y z
#    x 4.070570 0.000000 0.000000 
#    y 0.000000 4.290950 0.000000 
#    z 0.000000 0.000000 4.468390 
# 
# 
# High freq. dielectric constant tensor:
#      x y z
#    x 1.933700 0.000000 0.000000 
#    y 0.000000 1.930670 0.000000 
#    z 0.000000 0.000000 1.939860 
# 
# From -- ./inp_files/20493.got.cif
#   From: 2010.03.12/outbox.cif.g09.slc.cpg/sg68_11_cif.got.tgz:20493.got - 2010.04.10 23:14:56.
