data_PCOD8283826
_publ_section_title
;
Structure prediction by ZEFSAII (Michael W. Deem and Ramdas Pophale) SiO2 
 PCOD8283826
Probable space group: F M M M
;
_chemical_formula_sum "Si O2"
_cell_formula_units_Z 160
_cell_length_a 17.378961
_cell_length_b 22.453601
_cell_length_c 22.834763
_cell_angle_alpha 90.000000
_cell_angle_beta 90.000000
_cell_angle_gamma 90.000000
_cell_volume 8910.587066
_symmetry_space_group_name_H-M "F M M M"
_symmetry_group_IT_number 69
_symmetry_cell_setting 'orthorhombic'
loop_
_space_group_symop_operation_xyz
x,y,z
-x,-y,z
x,-y,-z
-x,y,-z
-x,-y,-z
x,y,-z
-x,y,z
x,-y,z
x,1/2+y,1/2+z
-x,1/2-y,1/2+z
x,1/2-y,1/2-z
-x,1/2+y,1/2-z
-x,1/2-y,1/2-z
x,1/2+y,1/2-z
-x,1/2+y,1/2+z
x,1/2-y,1/2+z
1/2+x,y,1/2+z
1/2-x,-y,1/2+z
1/2+x,-y,1/2-z
1/2-x,y,1/2-z
1/2-x,-y,1/2-z
1/2+x,y,1/2-z
1/2-x,y,1/2+z
1/2+x,-y,1/2+z
1/2+x,1/2+y,z
1/2-x,1/2-y,z
1/2+x,1/2-y,-z
1/2-x,1/2+y,-z
1/2-x,1/2-y,-z
1/2+x,1/2+y,-z
1/2-x,1/2+y,z
1/2+x,1/2-y,z
loop_
_atom_site_type_symbol
_atom_site_label
_atom_site_fract_x
_atom_site_fract_y
_atom_site_fract_z
Si Si1 0.000000 0.932069 0.222104
Si Si2 0.124494 0.361293 0.336097
Si Si3 0.204332 0.568189 0.567941
Si Si4 0.500000 0.264784 0.181533
Si Si5 0.348237 0.933726 0.854988
Si Si6 0.500000 0.632701 0.658303
Si Si7 0.250000 0.386589 0.250000
O O1 0.076312 0.918634 0.185336
O O2 0.000000 0.883913 0.273600
O O3 0.000000 0.000000 0.244150
O O4 0.152206 0.382285 0.400004
O O5 0.074979 0.301339 0.338663
O O6 0.195401 0.347209 0.292055
O O7 0.202196 0.584006 0.500000
O O8 0.176066 0.500000 0.579411
O O9 0.290912 0.575318 0.591044
O O10 0.500000 0.250000 0.250000
O O11 0.500000 0.203092 0.146914
O O12 0.420832 0.891729 0.868685
O O13 0.305041 0.924770 0.792704
O O14 0.381791 0.000000 0.853075
#
# Coordination Sequence:
#
# PCOD8283826 Si02
#       7
#    16  32  32  16  32  16  16
#     4  11  19  30  50  80 113 142 171 216 275 339
#     4  10  20  33  55  78 110 149 183 225 276 334
#     4   9  19  37  59  84 113 142 181 233 283 332
#     4  11  20  38  50  73 112 150 185 219 269 324
#     4  10  19  31  52  80 109 139 174 221 283 340
#     4  12  21  33  51  75 113 146 179 221 270 331
#     4  10  17  30  47  80 106 138 176 220 278 338
#
# _framework density 17.956168000000002
#
# number of rings (size 3 to 8) (size 9 to 14) (size 15 to 20)
#    0.000    1.800    4.000    1.800    0.000    1.600 
#    0.000   12.000    0.000   11.400    0.000    0.000 
#    0.000    0.000    0.000    0.000    0.000    0.000 
#
# Total GULP energy -495763.327005 kJ/mol
# GULP energy per Si atom -12394.083175 kJ/mol
# Density = 1.791530 g / cm^3
# Si number density = 17.956168 Si / 1000 Ang^3
#
#
#
# Elastic Constant Matrix: (Units=GPa)
#
#
# Indices 1 2 3 4 5 6 
#
# 1 112.6497 66.9206 47.6397 0.0000 0.0000 0.0000
# 2 66.9206 141.7465 44.0988 0.0000 0.0000 0.0000
# 3 47.6397 44.0988 108.3520 0.0000 0.0000 0.0000
# 4 0.0000 0.0000 0.0000 19.4843 0.0000 0.0000
# 5 0.0000 0.0000 0.0000 0.0000 18.8449 0.0000
# 6 0.0000 0.0000 0.0000 0.0000 0.0000 22.1439
#
#
#
# Elastic Compliance Matrix: (Units=1/GPa)
#
#
# Indices 1 2 3 4 5 6 
#
# 1 0.013614 -0.005227 -0.003858 0.000000 0.000000 0.000000
# 2 -0.005227 0.010084 -0.001806 0.000000 0.000000 0.000000
# 3 -0.003858 -0.001806 0.011661 0.000000 0.000000 0.000000
# 4 0.000000 0.000000 0.000000 0.051323 0.000000 0.000000
# 5 0.000000 0.000000 0.000000 0.000000 0.053065 0.000000
# 6 0.000000 0.000000 0.000000 0.000000 0.000000 0.045159
#
#
# Mechanical properties :
#
#
# Convention : Reuss Voigt Hill
#
# Bulk Modulus (GPa) = 73.65869 75.56294 74.61081
# Shear Modulus (GPa) = 23.67259 25.70056 24.68658
#
# Velocity S-wave (km/s) = 3.63485 3.78735 3.71189
# Velocity P-wave (km/s) = 7.66333 7.82934 7.74678
#
# Compressibility (1/GPa) = 0.01357613
#
# Stress axis : x y z
#
# Youngs Moduli (GPa) = 73.45430 99.16219 85.75813
#
# Poissons Ratio (x) = 0.51832 0.33089
# Poissons Ratio (y) = 0.38394 0.15489
# Poissons Ratio (z) = 0.28341 0.17910
#
# Static dielectric constant tensor:
#      x y z
#    x 3.569480 0.000000 0.000000 
#    y 0.000000 3.204720 0.000000 
#    z 0.000000 0.000000 3.080200 
# 
# 
# High freq. dielectric constant tensor:
#      x y z
#    x 1.709880 0.000000 0.000000 
#    y 0.000000 1.677950 0.000000 
#    z 0.000000 0.000000 1.667350 
# 
# From -- ./inp_files/30891.got.cif
#   From: 2010.03.12/outbox.cif.g09.slc.cpg/sg69_16_cif.got.tgz:30891.got - 2010.04.10 23:52:46.
