data_PCOD8283497
_publ_section_title
;
Structure prediction by ZEFSAII (Michael W. Deem and Ramdas Pophale) SiO2 
 PCOD8283497
Probable space group: C C C A
;
_chemical_formula_sum "Si O2"
_cell_formula_units_Z 112
_cell_length_a 14.614542
_cell_length_b 31.744199
_cell_length_c 11.122048
_cell_angle_alpha 90.000000
_cell_angle_beta 90.000000
_cell_angle_gamma 90.000000
_cell_volume 5159.817579
_symmetry_space_group_name_H-M "C C C A"
_symmetry_group_IT_number 68
_space_group.IT_coordinate_system_code '2'
_symmetry_cell_setting 'orthorhombic'
loop_
_space_group_symop_operation_xyz
x,y,z
-x,1/2-y,z
x,1/2-y,1/2-z
-x,y,1/2-z
-x,-y,-z
x,1/2+y,-z
-x,1/2+y,1/2+z
x,-y,1/2+z
1/2+x,1/2+y,z
1/2-x,-y,z
1/2+x,-y,1/2-z
1/2-x,1/2+y,1/2-z
1/2-x,1/2-y,-z
1/2+x,y,-z
1/2-x,y,1/2+z
1/2+x,1/2-y,1/2+z
loop_
_atom_site_type_symbol
_atom_site_label
_atom_site_fract_x
_atom_site_fract_y
_atom_site_fract_z
Si Si1 0.289658 0.201104 0.732717
Si Si2 0.414277 0.156583 0.541152
Si Si3 0.884160 0.361541 0.398432
Si Si4 0.053417 0.506489 0.373585
Si Si5 0.139220 0.418312 0.319774
Si Si6 0.156353 0.591752 0.367690
Si Si7 0.400848 0.667659 0.729695
O O1 0.306199 0.250000 0.750000
O O2 0.356945 0.186663 0.627732
O O3 0.316558 0.174578 0.850569
O O4 0.182248 0.192241 0.703466
O O5 0.523205 0.161901 0.559307
O O6 0.392501 0.107458 0.563259
O O7 0.380966 0.168619 0.410397
O O8 0.907699 0.397508 0.298430
O O9 0.831594 0.383671 0.507243
O O10 0.114464 0.466309 0.342030
O O11 0.116052 0.546464 0.397371
O O12 0.000000 0.515915 0.250000
O O13 0.000000 0.500000 0.500000
O O14 0.247408 0.413824 0.301405
O O15 0.092939 0.619826 0.280210
O O16 0.500000 0.689486 0.750000
#
# Coordination Sequence:
#
# PCOD8283497 Si02
#       7
#    16  16  16  16  16  16  16
#     4  11  26  47  72 105 138 181 237 293 356 434
#     4  11  23  43  73 100 140 187 229 291 355 425
#     4  11  23  45  71 102 142 186 236 292 360 430
#     4  12  27  43  64 102 144 187 245 303 355 421
#     4  11  23  41  67  99 139 184 240 292 349 417
#     4  12  24  43  70  98 138 190 236 289 358 424
#     4  12  25  44  70 103 139 184 233 285 361 426
#
# _framework density 21.706192999999999
#
# number of rings (size 3 to 8) (size 9 to 14) (size 15 to 20)
#    0.000    0.571    4.286    6.000    2.000    2.000 
#    0.000    4.286    0.000    0.000    0.000    0.000 
#    0.000    0.000    0.000    0.000    0.000    0.000 
#
# Total GULP energy -694331.289915 kJ/mol
# GULP energy per Si atom -12398.773034 kJ/mol
# Density = 2.165679 g / cm^3
# Si number density = 21.706193 Si / 1000 Ang^3
#
#
#
# Elastic Constant Matrix: (Units=GPa)
#
#
# Indices 1 2 3 4 5 6 
#
# 1 87.3326 26.9068 10.0646 0.0000 0.0000 0.0000
# 2 26.9068 149.3122 36.5708 0.0000 0.0000 0.0000
# 3 10.0646 36.5708 107.5833 0.0000 0.0000 0.0000
# 4 0.0000 0.0000 0.0000 13.5551 0.0000 0.0000
# 5 0.0000 0.0000 0.0000 0.0000 27.0227 0.0000
# 6 0.0000 0.0000 0.0000 0.0000 0.0000 21.9370
#
#
#
# Elastic Compliance Matrix: (Units=1/GPa)
#
#
# Indices 1 2 3 4 5 6 
#
# 1 0.012142 -0.002083 -0.000428 0.000000 0.000000 0.000000
# 2 -0.002083 0.007663 -0.002410 0.000000 0.000000 0.000000
# 3 -0.000428 -0.002410 0.010154 0.000000 0.000000 0.000000
# 4 0.000000 0.000000 0.000000 0.073773 0.000000 0.000000
# 5 0.000000 0.000000 0.000000 0.000000 0.037006 0.000000
# 6 0.000000 0.000000 0.000000 0.000000 0.000000 0.045585
#
#
# Mechanical properties :
#
#
# Convention : Reuss Voigt Hill
#
# Bulk Modulus (GPa) = 49.70886 54.59027 52.14957
# Shear Modulus (GPa) = 24.64625 30.54868 27.59747
#
# Velocity S-wave (km/s) = 3.37330 3.75557 3.56955
# Velocity P-wave (km/s) = 6.17435 6.63400 6.40830
#
# Compressibility (1/GPa) = 0.02011714
#
# Stress axis : x y z
#
# Youngs Moduli (GPa) = 82.36142 130.49612 98.47975
#
# Poissons Ratio (x) = 0.27185 0.04212
# Poissons Ratio (y) = 0.17158 0.23734
# Poissons Ratio (z) = 0.03523 0.31450
#
# Static dielectric constant tensor:
#      x y z
#    x 4.054990 0.000000 0.000000 
#    y 0.000000 3.899220 0.000000 
#    z 0.000000 0.000000 4.067650 
# 
# 
# High freq. dielectric constant tensor:
#      x y z
#    x 1.868670 0.000000 0.000000 
#    y 0.000000 1.840770 0.000000 
#    z 0.000000 0.000000 1.859990 
# 
# From -- ./inp_files/13615.got.cif
#   From: 2010.03.12/outbox.cif.g09.slc.cpg/sg68_7_cif.got.tgz:13615.got - 2010.04.10 23:14:56.
