data_PCOD8283443
_publ_section_title
;
Structure prediction by ZEFSAII (Michael W. Deem and Ramdas Pophale) SiO2 
 PCOD8283443
Probable space group: C C C A
;
_chemical_formula_sum "Si O2"
_cell_formula_units_Z 96
_cell_length_a 21.448583
_cell_length_b 24.134701
_cell_length_c 7.474012
_cell_angle_alpha 90.000000
_cell_angle_beta 90.000000
_cell_angle_gamma 90.000000
_cell_volume 3868.960710
_symmetry_space_group_name_H-M "C C C A"
_symmetry_group_IT_number 68
_space_group.IT_coordinate_system_code '2'
_symmetry_cell_setting 'orthorhombic'
loop_
_space_group_symop_operation_xyz
x,y,z
-x,1/2-y,z
x,1/2-y,1/2-z
-x,y,1/2-z
-x,-y,-z
x,1/2+y,-z
-x,1/2+y,1/2+z
x,-y,1/2+z
1/2+x,1/2+y,z
1/2-x,-y,z
1/2+x,-y,1/2-z
1/2-x,1/2+y,1/2-z
1/2-x,1/2-y,-z
1/2+x,y,-z
1/2-x,y,1/2+z
1/2+x,1/2-y,1/2+z
loop_
_atom_site_type_symbol
_atom_site_label
_atom_site_fract_x
_atom_site_fract_y
_atom_site_fract_z
Si Si1 0.930450 0.973635 0.186718
Si Si2 0.933011 0.686594 0.284130
Si Si3 0.124629 0.924470 0.669317
Si Si4 0.651521 0.604399 0.623179
Si Si5 0.572160 0.810859 0.305636
Si Si6 0.238599 0.064026 0.930264
O O1 0.903411 0.939824 0.355415
O O2 0.000000 0.986245 0.250000
O O3 0.891977 0.031130 0.176284
O O4 0.920280 0.938352 0.004166
O O5 0.942306 0.750000 0.250000
O O6 0.880057 0.664859 0.146654
O O7 0.914052 0.678356 0.487239
O O8 0.000000 0.656682 0.250000
O O9 0.108452 0.865105 0.769054
O O10 0.197638 0.930613 0.614888
O O11 0.693635 0.595179 0.445847
O O12 0.700176 0.595906 0.783218
O O13 0.599116 0.750000 0.250000
O O14 0.500000 0.813091 0.250000
O O15 0.250000 0.000000 0.884422
#
# Coordination Sequence:
#
# PCOD8283443 Si02
#       6
#    16  16  16  16  16  16
#     4  11  22  40  63  98 137 169 218 281 349 404
#     4  11  23  47  70  97 132 175 227 280 340 403
#     4  11  24  41  65  97 138 172 225 277 335 413
#     4  11  24  41  65  94 129 172 225 273 330 400
#     4  11  23  44  66  98 137 177 223 277 337 400
#     4  11  22  42  64  91 132 177 220 266 332 406
#
# _framework density 24.812864999999999
#
# number of rings (size 3 to 8) (size 9 to 14) (size 15 to 20)
#    0.000    1.000    5.000    4.000    2.333    0.000 
#    9.000    1.667    0.000    0.000    0.000    0.000 
#    0.000    0.000    0.000    0.000    0.000    0.000 
#
# Total GULP energy -594848.317816 kJ/mol
# GULP energy per Si atom -12392.673288 kJ/mol
# Density = 2.475639 g / cm^3
# Si number density = 24.812865 Si / 1000 Ang^3
#
#
#
# Elastic Constant Matrix: (Units=GPa)
#
#
# Indices 1 2 3 4 5 6 
#
# 1 134.3131 34.8330 -20.8418 0.0000 0.0000 0.0000
# 2 34.8330 153.0344 -14.7979 0.0000 0.0000 0.0000
# 3 -20.8418 -14.7979 24.9941 0.0000 0.0000 0.0000
# 4 0.0000 0.0000 0.0000 21.1033 0.0000 0.0000
# 5 0.0000 0.0000 0.0000 0.0000 37.6718 0.0000
# 6 0.0000 0.0000 0.0000 0.0000 0.0000 42.0308
#
#
#
# Elastic Compliance Matrix: (Units=1/GPa)
#
#
# Indices 1 2 3 4 5 6 
#
# 1 0.008816 -0.001375 0.006538 0.000000 0.000000 0.000000
# 2 -0.001375 0.007146 0.003084 0.000000 0.000000 0.000000
# 3 0.006538 0.003084 0.047287 0.000000 0.000000 0.000000
# 4 0.000000 0.000000 0.000000 0.047386 0.000000 0.000000
# 5 0.000000 0.000000 0.000000 0.000000 0.026545 0.000000
# 6 0.000000 0.000000 0.000000 0.000000 0.000000 0.023792
#
#
# Mechanical properties :
#
#
# Convention : Reuss Voigt Hill
#
# Bulk Modulus (GPa) = 12.54006 34.52536 23.53271
# Shear Modulus (GPa) = 29.22979 41.03773 35.13376
#
# Velocity S-wave (km/s) = 3.43594 4.07122 3.76699
# Velocity P-wave (km/s) = 4.56133 6.00369 5.33151
#
# Compressibility (1/GPa) = 0.07974446
#
# Stress axis : x y z
#
# Youngs Moduli (GPa) = 113.42690 139.94628 21.14734
#
# Poissons Ratio (x) = 0.19236 -0.13826
# Poissons Ratio (y) = 0.15591 -0.06523
# Poissons Ratio (z) = -0.74156 -0.43165
#
# Static dielectric constant tensor:
#      x y z
#    x 4.913770 0.000000 0.000000 
#    y 0.000000 4.267330 0.000000 
#    z 0.000000 0.000000 4.474240 
# 
# 
# High freq. dielectric constant tensor:
#      x y z
#    x 1.994880 0.000000 0.000000 
#    y 0.000000 1.977130 0.000000 
#    z 0.000000 0.000000 2.015770 
# 
# From -- ./inp_files/7297.got.cif
#   From: 2010.03.12/outbox.cif.g09.slc.cpg/sg68_4_cif.got.tgz:7297.got - 2010.04.10 23:14:56.
