data_PCOD8283863
_publ_section_title
;
Structure prediction by ZEFSAII (Michael W. Deem and Ramdas Pophale) SiO2 
 PCOD8283863
Probable space group: F M M M
;
_chemical_formula_sum "Si O2"
_cell_formula_units_Z 112
_cell_length_a 25.020839
_cell_length_b 10.401411
_cell_length_c 27.490628
_cell_angle_alpha 90.000000
_cell_angle_beta 90.000000
_cell_angle_gamma 90.000000
_cell_volume 7154.491743
_symmetry_space_group_name_H-M "F M M M"
_symmetry_group_IT_number 69
_symmetry_cell_setting 'orthorhombic'
loop_
_space_group_symop_operation_xyz
x,y,z
-x,-y,z
x,-y,-z
-x,y,-z
-x,-y,-z
x,y,-z
-x,y,z
x,-y,z
x,1/2+y,1/2+z
-x,1/2-y,1/2+z
x,1/2-y,1/2-z
-x,1/2+y,1/2-z
-x,1/2-y,1/2-z
x,1/2+y,1/2-z
-x,1/2+y,1/2+z
x,1/2-y,1/2+z
1/2+x,y,1/2+z
1/2-x,-y,1/2+z
1/2+x,-y,1/2-z
1/2-x,y,1/2-z
1/2-x,-y,1/2-z
1/2+x,y,1/2-z
1/2-x,y,1/2+z
1/2+x,-y,1/2+z
1/2+x,1/2+y,z
1/2-x,1/2-y,z
1/2+x,1/2-y,-z
1/2-x,1/2+y,-z
1/2-x,1/2-y,-z
1/2+x,1/2+y,-z
1/2-x,1/2+y,z
1/2+x,1/2-y,z
loop_
_atom_site_type_symbol
_atom_site_label
_atom_site_fract_x
_atom_site_fract_y
_atom_site_fract_z
Si Si1 0.000000 0.348524 0.053033
Si Si2 0.384151 0.649795 0.442786
Si Si3 0.813759 0.000000 0.806489
Si Si4 0.186714 0.746953 0.137816
Si Si5 0.687020 0.000000 0.802358
O O1 0.056480 0.311702 0.078423
O O2 0.000000 0.500000 0.045398
O O3 0.000000 0.282826 0.000000
O O4 0.380269 0.680773 0.500000
O O5 0.371798 0.500000 0.433387
O O6 0.340962 0.736447 0.414810
O O7 0.833542 0.875017 0.835440
O O8 0.750516 0.000000 0.801197
O O9 0.837655 0.000000 0.751943
O O10 0.250000 0.750000 0.129554
O O11 0.167140 0.627304 0.170294
#
# Coordination Sequence:
#
# PCOD8283863 Si02
#       5
#    16  32  16  32  16
#     4   7  12  24  44  67  84 106 151 200 223 239
#     4   9  16  28  46  67  91 118 151 188 220 257
#     4   9  18  28  43  64  91 116 149 188 221 259
#     4  10  18  28  44  67  93 119 147 179 223 273
#     4   9  16  30  45  62  85 120 155 186 217 255
#
# _framework density 15.654500000000001
#
# number of rings (size 3 to 8) (size 9 to 14) (size 15 to 20)
#    0.000    3.000    1.429    2.571    0.000    4.000 
#    0.000    0.714    0.000    0.857    0.000    9.000 
#    0.000    0.000    0.000    0.000    0.000    0.000 
#
# Total GULP energy -346922.991625 kJ/mol
# GULP energy per Si atom -12390.106844 kJ/mol
# Density = 1.561887 g / cm^3
# Si number density = 15.654500 Si / 1000 Ang^3
#
#
#
# Elastic Constant Matrix: (Units=GPa)
#
#
# Indices 1 2 3 4 5 6 
#
# 1 58.9022 29.8685 45.1226 0.0000 0.0000 0.0000
# 2 29.8685 101.6396 50.6983 0.0000 0.0000 0.0000
# 3 45.1226 50.6983 98.7407 0.0000 0.0000 0.0000
# 4 0.0000 0.0000 0.0000 26.4819 0.0000 0.0000
# 5 0.0000 0.0000 0.0000 0.0000 4.2622 0.0000
# 6 0.0000 0.0000 0.0000 0.0000 0.0000 12.8999
#
#
#
# Elastic Compliance Matrix: (Units=1/GPa)
#
#
# Indices 1 2 3 4 5 6 
#
# 1 0.026533 -0.002351 -0.010918 0.000000 0.000000 0.000000
# 2 -0.002351 0.013434 -0.005823 0.000000 0.000000 0.000000
# 3 -0.010918 -0.005823 0.018107 0.000000 0.000000 0.000000
# 4 0.000000 0.000000 0.000000 0.037762 0.000000 0.000000
# 5 0.000000 0.000000 0.000000 0.000000 0.234623 0.000000
# 6 0.000000 0.000000 0.000000 0.000000 0.000000 0.077520
#
#
# Mechanical properties :
#
#
# Convention : Reuss Voigt Hill
#
# Bulk Modulus (GPa) = 50.27826 56.74014 53.50920
# Shear Modulus (GPa) = 11.04255 17.63501 14.33878
#
# Velocity S-wave (km/s) = 2.65880 3.36000 3.02975
# Velocity P-wave (km/s) = 6.45080 7.16776 6.81871
#
# Compressibility (1/GPa) = 0.01988931
#
# Stress axis : x y z
#
# Youngs Moduli (GPa) = 37.68831 74.43590 55.22783
#
# Poissons Ratio (x) = 0.17503 0.60297
# Poissons Ratio (y) = 0.08862 0.32161
# Poissons Ratio (z) = 0.41148 0.43347
#
# Static dielectric constant tensor:
#      x y z
#    x 2.909440 0.000000 0.000000 
#    y 0.000000 2.883070 0.000000 
#    z 0.000000 0.000000 2.926670 
# 
# 
# High freq. dielectric constant tensor:
#      x y z
#    x 1.571480 0.000000 0.000000 
#    y 0.000000 1.583540 0.000000 
#    z 0.000000 0.000000 1.592370 
# 
# From -- ./inp_files/5446.got.cif
#   From: 2010.03.12/outbox.cif.g09.slc.cpg/sg69_3_cif.got.tgz:5446.got - 2010.04.10 23:52:46.
