data_PCOD8283519
_publ_section_title
;
Structure prediction by ZEFSAII (Michael W. Deem and Ramdas Pophale) SiO2 
 PCOD8283519
Probable space group: C C C A
;
_chemical_formula_sum "Si O2"
_cell_formula_units_Z 116
_cell_length_a 19.279747
_cell_length_b 25.825353
_cell_length_c 9.350811
_cell_angle_alpha 90.000000
_cell_angle_beta 90.000000
_cell_angle_gamma 90.000000
_cell_volume 4655.827445
_symmetry_space_group_name_H-M "C C C A"
_symmetry_group_IT_number 68
_space_group.IT_coordinate_system_code '2'
_symmetry_cell_setting 'orthorhombic'
loop_
_space_group_symop_operation_xyz
x,y,z
-x,1/2-y,z
x,1/2-y,1/2-z
-x,y,1/2-z
-x,-y,-z
x,1/2+y,-z
-x,1/2+y,1/2+z
x,-y,1/2+z
1/2+x,1/2+y,z
1/2-x,-y,z
1/2+x,-y,1/2-z
1/2-x,1/2+y,1/2-z
1/2-x,1/2-y,-z
1/2+x,y,-z
1/2-x,y,1/2+z
1/2+x,1/2-y,1/2+z
loop_
_atom_site_type_symbol
_atom_site_label
_atom_site_fract_x
_atom_site_fract_y
_atom_site_fract_z
Si Si1 0.398400 0.169147 0.130866
Si Si2 0.898280 0.015707 0.167301
Si Si3 0.424618 0.592968 0.610187
Si Si4 0.000000 0.750000 0.250000
Si Si5 0.216190 0.624792 0.977794
Si Si6 0.537329 0.620202 0.379543
Si Si7 0.249978 0.808749 0.250636
Si Si8 0.189569 0.032983 0.589903
O O1 0.419626 0.123426 0.241027
O O2 0.452503 0.215872 0.145960
O O3 0.322751 0.190620 0.164828
O O4 0.400795 0.149807 0.963580
O O5 0.947351 0.965773 0.148482
O O6 0.833017 0.996470 0.263685
O O7 0.938595 0.068029 0.210537
O O8 0.876310 0.033706 0.009829
O O9 0.348639 0.591367 0.533489
O O10 0.481858 0.614964 0.506803
O O11 0.192828 0.659929 0.843228
O O12 0.279243 0.591158 0.904412
O O13 0.244694 0.664257 0.096364
O O14 0.500000 0.652163 0.250000
O O15 0.276208 0.750000 0.250000
O O16 0.250000 0.000000 0.516949
#
# Coordination Sequence:
#
# PCOD8283519 Si02
#       8
#    16  16  16   4  16  16  16  16
#     4  11  24  46  78 101 137 190 253 298 361 445
#     4  12  25  43  68  98 141 195 228 292 352 430
#     4  11  23  44  67 101 141 190 242 287 357 443
#     4  12  20  48  86  96 128 196 254 308 354 438
#     4  11  25  42  69  99 143 188 239 304 356 434
#     4  12  26  43  66 106 147 183 234 302 367 429
#     4  11  24  45  72 108 140 186 244 307 376 426
#     4  12  25  42  67  98 139 185 245 280 344 434
#
# _framework density 24.915012999999998
#
# number of rings (size 3 to 8) (size 9 to 14) (size 15 to 20)
#    0.000    0.552    3.448    5.379    1.931    2.207 
#    0.000    0.345    0.000    0.000    0.000    0.000 
#    0.000    0.000    0.000    0.000    0.000    0.000 
#
# Total GULP energy -718615.373188 kJ/mol
# GULP energy per Si atom -12389.920227 kJ/mol
# Density = 2.485830 g / cm^3
# Si number density = 24.915013 Si / 1000 Ang^3
#
#
#
# Elastic Constant Matrix: (Units=GPa)
#
#
# Indices 1 2 3 4 5 6 
#
# 1 42.0102 5.9504 13.0776 0.0000 0.0000 0.0000
# 2 5.9504 117.3694 25.6303 0.0000 0.0000 0.0000
# 3 13.0776 25.6303 104.8651 0.0000 0.0000 0.0000
# 4 0.0000 0.0000 0.0000 28.9840 0.0000 0.0000
# 5 0.0000 0.0000 0.0000 0.0000 36.2792 0.0000
# 6 0.0000 0.0000 0.0000 0.0000 0.0000 24.3842
#
#
#
# Elastic Compliance Matrix: (Units=1/GPa)
#
#
# Indices 1 2 3 4 5 6 
#
# 1 0.024807 -0.000615 -0.002943 0.000000 0.000000 0.000000
# 2 -0.000615 0.009016 -0.002127 0.000000 0.000000 0.000000
# 3 -0.002943 -0.002127 0.010423 0.000000 0.000000 0.000000
# 4 0.000000 0.000000 0.000000 0.034502 0.000000 0.000000
# 5 0.000000 0.000000 0.000000 0.000000 0.027564 0.000000
# 6 0.000000 0.000000 0.000000 0.000000 0.000000 0.041010
#
#
# Mechanical properties :
#
#
# Convention : Reuss Voigt Hill
#
# Bulk Modulus (GPa) = 30.41782 39.28459 34.85120
# Shear Modulus (GPa) = 29.47233 32.56856 31.02044
#
# Velocity S-wave (km/s) = 3.44308 3.61943 3.53236
# Velocity P-wave (km/s) = 5.29543 5.76790 5.53671
#
# Compressibility (1/GPa) = 0.03287547
#
# Stress axis : x y z
#
# Youngs Moduli (GPa) = 40.31105 110.91722 95.94204
#
# Poissons Ratio (x) = 0.06820 0.28239
# Poissons Ratio (y) = 0.02479 0.20406
# Poissons Ratio (z) = 0.11865 0.23591
#
# Static dielectric constant tensor:
#      x y z
#    x 4.478520 0.000000 0.000000 
#    y 0.000000 4.584290 0.000000 
#    z 0.000000 0.000000 4.530400 
# 
# 
# High freq. dielectric constant tensor:
#      x y z
#    x 1.992040 0.000000 0.000000 
#    y 0.000000 1.986370 0.000000 
#    z 0.000000 0.000000 1.999870 
# 
# From -- ./inp_files/8372.got.cif
#   From: 2010.03.12/outbox.cif.g09.slc.cpg/sg68_5_cif.got.tgz:8372.got - 2010.04.10 23:14:56.
