data_PCOD8283616
_publ_section_title
;
Structure prediction by ZEFSAII (Michael W. Deem and Ramdas Pophale) SiO2 
 PCOD8283616
Probable space group: C C C A
;
_chemical_formula_sum "Si O2"
_cell_formula_units_Z 64
_cell_length_a 17.380574
_cell_length_b 7.355075
_cell_length_c 22.518752
_cell_angle_alpha 90.000000
_cell_angle_beta 90.000000
_cell_angle_gamma 90.000000
_cell_volume 2878.694239
_symmetry_space_group_name_H-M "C C C A"
_symmetry_group_IT_number 68
_space_group.IT_coordinate_system_code '2'
_symmetry_cell_setting 'orthorhombic'
loop_
_space_group_symop_operation_xyz
x,y,z
-x,1/2-y,z
x,1/2-y,1/2-z
-x,y,1/2-z
-x,-y,-z
x,1/2+y,-z
-x,1/2+y,1/2+z
x,-y,1/2+z
1/2+x,1/2+y,z
1/2-x,-y,z
1/2+x,-y,1/2-z
1/2-x,1/2+y,1/2-z
1/2-x,1/2-y,-z
1/2+x,y,-z
1/2-x,y,1/2+z
1/2+x,1/2-y,1/2+z
loop_
_atom_site_type_symbol
_atom_site_label
_atom_site_fract_x
_atom_site_fract_y
_atom_site_fract_z
Si Si1 0.902373 0.901423 0.086415
Si Si2 0.983132 0.462289 0.184791
Si Si3 0.835973 0.948216 0.377194
Si Si4 0.914503 0.274367 0.041583
O O1 0.836942 0.770781 0.113942
O O2 0.970324 0.924576 0.134771
O O3 0.868221 0.094531 0.063676
O O4 0.931205 0.793353 0.028113
O O5 0.000000 0.250000 0.182016
O O6 0.000000 0.541387 0.250000
O O7 0.892055 0.491817 0.175783
O O8 0.750000 0.000000 0.360032
O O9 0.866788 0.051702 0.436189
O O10 0.000000 0.250000 0.071040
#
# Coordination Sequence:
#
# PCOD8283616 Si02
#       4
#    16  16  16  16
#     4  12  23  42  74  97 136 187 236 279 337 412
#     4  11  24  48  75  99 131 182 242 287 334 417
#     4  12  26  42  66 105 143 172 225 285 355 413
#     4  12  22  40  67 103 134 182 234 278 332 413
#
# _framework density 22.232302000000001
#
# number of rings (size 3 to 8) (size 9 to 14) (size 15 to 20)
#    0.000    0.250    7.500    3.000    0.000    4.000 
#    0.000    5.000    0.000    0.000    0.000    0.000 
#    0.000    0.000    0.000    0.000    0.000    0.000 
#
# Total GULP energy -396498.007965 kJ/mol
# GULP energy per Si atom -12390.562749 kJ/mol
# Density = 2.218170 g / cm^3
# Si number density = 22.232302 Si / 1000 Ang^3
#
#
#
# Elastic Constant Matrix: (Units=GPa)
#
#
# Indices 1 2 3 4 5 6 
#
# 1 133.1695 46.2164 64.3541 0.0000 0.0000 0.0000
# 2 46.2164 151.3765 45.1158 0.0000 0.0000 0.0000
# 3 64.3541 45.1158 168.9887 0.0000 0.0000 0.0000
# 4 0.0000 0.0000 0.0000 19.3415 0.0000 0.0000
# 5 0.0000 0.0000 0.0000 0.0000 8.4639 0.0000
# 6 0.0000 0.0000 0.0000 0.0000 0.0000 27.2515
#
#
#
# Elastic Compliance Matrix: (Units=1/GPa)
#
#
# Indices 1 2 3 4 5 6 
#
# 1 0.009745 -0.002031 -0.003169 0.000000 0.000000 0.000000
# 2 -0.002031 0.007600 -0.001256 0.000000 0.000000 0.000000
# 3 -0.003169 -0.001256 0.007460 0.000000 0.000000 0.000000
# 4 0.000000 0.000000 0.000000 0.051702 0.000000 0.000000
# 5 0.000000 0.000000 0.000000 0.000000 0.118149 0.000000
# 6 0.000000 0.000000 0.000000 0.000000 0.000000 0.036695
#
#
# Mechanical properties :
#
#
# Convention : Reuss Voigt Hill
#
# Bulk Modulus (GPa) = 84.07488 84.98971 84.53230
# Shear Modulus (GPa) = 20.14280 30.86795 25.50537
#
# Velocity S-wave (km/s) = 3.01327 3.73020 3.39074
# Velocity P-wave (km/s) = 7.07143 7.54079 7.30988
#
# Compressibility (1/GPa) = 0.01189416
#
# Stress axis : x y z
#
# Youngs Moduli (GPa) = 102.61153 131.57320 134.05471
#
# Poissons Ratio (x) = 0.26721 0.42483
# Poissons Ratio (y) = 0.20839 0.16833
# Poissons Ratio (z) = 0.32518 0.16522
#
# Static dielectric constant tensor:
#      x y z
#    x 3.476560 0.000000 0.000000 
#    y 0.000000 4.414580 0.000000 
#    z 0.000000 0.000000 4.198290 
# 
# 
# High freq. dielectric constant tensor:
#      x y z
#    x 1.823730 0.000000 0.000000 
#    y 0.000000 1.905810 0.000000 
#    z 0.000000 0.000000 1.872120 
# 
# From -- ./inp_files/44969.got.cif
#   From: 2010.03.12/outbox.cif.g09.slc.cpg/sg68_23_cif.got.tgz:44969.got - 2010.04.10 23:14:56.
