data_PCOD8283922
_publ_section_title
;
Structure prediction by ZEFSAII (Michael W. Deem and Ramdas Pophale) SiO2 
 PCOD8283922
Probable space group: F M M M
;
_chemical_formula_sum "Si O2"
_cell_formula_units_Z 96
_cell_length_a 34.104642
_cell_length_b 8.611328
_cell_length_c 19.561390
_cell_angle_alpha 90.000000
_cell_angle_beta 90.000000
_cell_angle_gamma 90.000000
_cell_volume 5744.911442
_symmetry_space_group_name_H-M "F M M M"
_symmetry_group_IT_number 69
_symmetry_cell_setting 'orthorhombic'
loop_
_space_group_symop_operation_xyz
x,y,z
-x,-y,z
x,-y,-z
-x,y,-z
-x,-y,-z
x,y,-z
-x,y,z
x,-y,z
x,1/2+y,1/2+z
-x,1/2-y,1/2+z
x,1/2-y,1/2-z
-x,1/2+y,1/2-z
-x,1/2-y,1/2-z
x,1/2+y,1/2-z
-x,1/2+y,1/2+z
x,1/2-y,1/2+z
1/2+x,y,1/2+z
1/2-x,-y,1/2+z
1/2+x,-y,1/2-z
1/2-x,y,1/2-z
1/2-x,-y,1/2-z
1/2+x,y,1/2-z
1/2-x,y,1/2+z
1/2+x,-y,1/2+z
1/2+x,1/2+y,z
1/2-x,1/2-y,z
1/2+x,1/2-y,-z
1/2-x,1/2+y,-z
1/2-x,1/2-y,-z
1/2+x,1/2+y,-z
1/2-x,1/2+y,z
1/2+x,1/2-y,z
loop_
_atom_site_type_symbol
_atom_site_label
_atom_site_fract_x
_atom_site_fract_y
_atom_site_fract_z
Si Si1 0.140418 0.823826 0.924498
Si Si2 0.420696 0.682104 0.675069
Si Si3 0.793234 0.684142 0.000000
Si Si4 0.500000 0.316320 0.825889
O O1 0.115969 0.720835 0.872292
O O2 0.183853 0.747887 0.932438
O O3 0.143958 0.000000 0.896954
O O4 0.120177 0.821889 0.000000
O O5 0.426225 0.500000 0.681675
O O6 0.413048 0.750000 0.750000
O O7 0.459953 0.753986 0.639656
O O8 0.750000 0.750000 0.000000
O O9 0.792541 0.500000 0.000000
O O10 0.500000 0.500000 0.826872
O O11 0.500000 0.250000 0.750000
#
# Coordination Sequence:
#
# PCOD8283922 Si02
#       4
#    32  32  16  16
#     4   9  19  34  52  75 103 131 166 208 251 297
#     4  11  20  32  51  74 102 134 172 211 251 297
#     4  10  18  32  54  79 102 131 166 202 244 296
#     4  10  18  30  47  68  97 132 173 211 248 294
#
# _framework density 16.710440999999999
#
# number of rings (size 3 to 8) (size 9 to 14) (size 15 to 20)
#    1.000    1.000    0.000    8.500    0.000    0.000 
#    0.000    0.833    0.000    6.000    0.000    7.000 
#    0.000    0.000    0.000    0.000    0.000    0.000 
#
# Total GULP energy -297405.512391 kJ/mol
# GULP energy per Si atom -12391.896350 kJ/mol
# Density = 1.667241 g / cm^3
# Si number density = 16.710441 Si / 1000 Ang^3
#
#
#
# Elastic Constant Matrix: (Units=GPa)
#
#
# Indices 1 2 3 4 5 6 
#
# 1 143.7569 55.7943 45.7120 0.0000 0.0000 0.0000
# 2 55.7943 169.9251 30.8399 0.0000 0.0000 0.0000
# 3 45.7120 30.8399 49.0829 0.0000 0.0000 0.0000
# 4 0.0000 0.0000 0.0000 24.9872 0.0000 0.0000
# 5 0.0000 0.0000 0.0000 0.0000 45.0633 0.0000
# 6 0.0000 0.0000 0.0000 0.0000 0.0000 34.2710
#
#
#
# Elastic Compliance Matrix: (Units=1/GPa)
#
#
# Indices 1 2 3 4 5 6 
#
# 1 0.010382 -0.001867 -0.008496 0.000000 0.000000 0.000000
# 2 -0.001867 0.006978 -0.002646 0.000000 0.000000 0.000000
# 3 -0.008496 -0.002646 0.029949 0.000000 0.000000 0.000000
# 4 0.000000 0.000000 0.000000 0.040020 0.000000 0.000000
# 5 0.000000 0.000000 0.000000 0.000000 0.022191 0.000000
# 6 0.000000 0.000000 0.000000 0.000000 0.000000 0.029179
#
#
# Mechanical properties :
#
#
# Convention : Reuss Voigt Hill
#
# Bulk Modulus (GPa) = 46.96746 69.71746 58.34246
# Shear Modulus (GPa) = 29.10101 36.22556 32.66328
#
# Velocity S-wave (km/s) = 4.17764 4.66106 4.42595
# Velocity P-wave (km/s) = 7.17202 8.41301 7.81718
#
# Compressibility (1/GPa) = 0.02129134
#
# Stress axis : x y z
#
# Youngs Moduli (GPa) = 96.31605 143.30431 33.39027
#
# Poissons Ratio (x) = 0.26756 0.28369
# Poissons Ratio (y) = 0.17983 0.08834
# Poissons Ratio (z) = 0.81833 0.37914
#
# Static dielectric constant tensor:
#      x y z
#    x 3.458480 0.000000 0.000000 
#    y 0.000000 3.268770 0.000000 
#    z 0.000000 0.000000 2.778430 
# 
# 
# High freq. dielectric constant tensor:
#      x y z
#    x 1.641540 0.000000 0.000000 
#    y 0.000000 1.671150 0.000000 
#    z 0.000000 0.000000 1.601080 
# 
# From -- ./inp_files/38012.got.cif
#   From: 2010.03.12/outbox.cif.g09.slc.cpg/sg69_20_cif.got.tgz:38012.got - 2010.04.10 23:52:46.
