data_PCOD8283462
_publ_section_title
;
Structure prediction by ZEFSAII (Michael W. Deem and Ramdas Pophale) SiO2 
 PCOD8283462
Probable space group: C C C A
;
_chemical_formula_sum "Si O2"
_cell_formula_units_Z 68
_cell_length_a 22.051670
_cell_length_b 16.132616
_cell_length_c 8.447689
_cell_angle_alpha 90.000000
_cell_angle_beta 90.000000
_cell_angle_gamma 90.000000
_cell_volume 3005.274859
_symmetry_space_group_name_H-M "C C C A"
_symmetry_group_IT_number 68
_space_group.IT_coordinate_system_code '2'
_symmetry_cell_setting 'orthorhombic'
loop_
_space_group_symop_operation_xyz
x,y,z
-x,1/2-y,z
x,1/2-y,1/2-z
-x,y,1/2-z
-x,-y,-z
x,1/2+y,-z
-x,1/2+y,1/2+z
x,-y,1/2+z
1/2+x,1/2+y,z
1/2-x,-y,z
1/2+x,-y,1/2-z
1/2-x,1/2+y,1/2-z
1/2-x,1/2-y,-z
1/2+x,y,-z
1/2-x,y,1/2+z
1/2+x,1/2-y,1/2+z
loop_
_atom_site_type_symbol
_atom_site_label
_atom_site_fract_x
_atom_site_fract_y
_atom_site_fract_z
Si Si1 0.435324 0.060811 0.204346
Si Si2 0.173991 0.339961 0.679574
Si Si3 0.794770 0.659659 0.687666
Si Si4 0.584052 0.892750 0.150636
Si Si5 0.500000 0.250000 0.750000
O O1 0.500000 0.101962 0.250000
O O2 0.384182 0.100898 0.313895
O O3 0.442008 0.962206 0.232058
O O4 0.416239 0.072561 0.024764
O O5 0.155845 0.250000 0.750000
O O6 0.189884 0.335853 0.495284
O O7 0.229624 0.384139 0.776158
O O8 0.779427 0.750000 0.750000
O O9 0.847440 0.622620 0.795392
O O10 0.544206 0.808699 0.148078
#
# Coordination Sequence:
#
# PCOD8283462 Si02
#       5
#    16  16  16  16   4
#     4  12  27  45  71 103 148 182 235 295 354 422
#     4  11  24  42  69 105 141 190 239 293 359 422
#     4  11  22  43  70 101 143 186 243 295 350 424
#     4  12  26  47  73 105 143 189 234 294 355 423
#     4  12  28  44  78 100 142 188 236 272 364 416
#
# _framework density 22.626881000000001
#
# number of rings (size 3 to 8) (size 9 to 14) (size 15 to 20)
#    0.000    0.471    2.353    7.765    3.294    1.412 
#    0.000    4.706    0.000    0.000    0.000    0.000 
#    0.000    0.000    0.000    0.000    0.000    0.000 
#
# Total GULP energy -421559.958305 kJ/mol
# GULP energy per Si atom -12398.822303 kJ/mol
# Density = 2.257538 g / cm^3
# Si number density = 22.626881 Si / 1000 Ang^3
#
#
#
# Elastic Constant Matrix: (Units=GPa)
#
#
# Indices 1 2 3 4 5 6 
#
# 1 196.3093 55.0607 51.1217 0.0000 0.0000 0.0000
# 2 55.0607 96.2592 43.7779 0.0000 0.0000 0.0000
# 3 51.1217 43.7779 159.1168 0.0000 0.0000 0.0000
# 4 0.0000 0.0000 0.0000 31.7619 0.0000 0.0000
# 5 0.0000 0.0000 0.0000 0.0000 31.8528 0.0000
# 6 0.0000 0.0000 0.0000 0.0000 0.0000 35.9042
#
#
#
# Elastic Compliance Matrix: (Units=1/GPa)
#
#
# Indices 1 2 3 4 5 6 
#
# 1 0.006253 -0.003044 -0.001171 0.000000 0.000000 0.000000
# 2 -0.003044 0.013356 -0.002697 0.000000 0.000000 0.000000
# 3 -0.001171 -0.002697 0.007403 0.000000 0.000000 0.000000
# 4 0.000000 0.000000 0.000000 0.031484 0.000000 0.000000
# 5 0.000000 0.000000 0.000000 0.000000 0.031394 0.000000
# 6 0.000000 0.000000 0.000000 0.000000 0.000000 0.027852
#
#
# Mechanical properties :
#
#
# Convention : Reuss Voigt Hill
#
# Bulk Modulus (GPa) = 75.82734 83.51176 79.66955
# Shear Modulus (GPa) = 36.77479 40.01877 38.39678
#
# Velocity S-wave (km/s) = 4.03584 4.21008 4.12388
# Velocity P-wave (km/s) = 7.43654 7.78597 7.61326
#
# Compressibility (1/GPa) = 0.01318785
#
# Stress axis : x y z
#
# Youngs Moduli (GPa) = 159.92811 74.87175 135.07989
#
# Poissons Ratio (x) = 0.22790 0.15824
# Poissons Ratio (y) = 0.48680 0.36428
# Poissons Ratio (z) = 0.18735 0.20191
#
# Static dielectric constant tensor:
#      x y z
#    x 4.680610 0.000000 0.000000 
#    y 0.000000 4.369860 0.000000 
#    z 0.000000 0.000000 3.973880 
# 
# 
# High freq. dielectric constant tensor:
#      x y z
#    x 1.924940 0.000000 0.000000 
#    y 0.000000 1.878900 0.000000 
#    z 0.000000 0.000000 1.897960 
# 
# From -- ./inp_files/6831.got.cif
#   From: 2010.03.12/outbox.cif.g09.slc.cpg/sg68_4_cif.got.tgz:6831.got - 2010.04.10 23:14:56.
