data_PCOD8283676
_publ_section_title
;
Structure prediction by ZEFSAII (Michael W. Deem and Ramdas Pophale) SiO2 
 PCOD8283676
Probable space group: C C C A
;
_chemical_formula_sum "Si O2"
_cell_formula_units_Z 64
_cell_length_a 17.988193
_cell_length_b 8.925537
_cell_length_c 20.103538
_cell_angle_alpha 90.000000
_cell_angle_beta 90.000000
_cell_angle_gamma 90.000000
_cell_volume 3227.709113
_symmetry_space_group_name_H-M "C C C A"
_symmetry_group_IT_number 68
_space_group.IT_coordinate_system_code '2'
_symmetry_cell_setting 'orthorhombic'
loop_
_space_group_symop_operation_xyz
x,y,z
-x,1/2-y,z
x,1/2-y,1/2-z
-x,y,1/2-z
-x,-y,-z
x,1/2+y,-z
-x,1/2+y,1/2+z
x,-y,1/2+z
1/2+x,1/2+y,z
1/2-x,-y,z
1/2+x,-y,1/2-z
1/2-x,1/2+y,1/2-z
1/2-x,1/2-y,-z
1/2+x,y,-z
1/2-x,y,1/2+z
1/2+x,1/2-y,1/2+z
loop_
_atom_site_type_symbol
_atom_site_label
_atom_site_fract_x
_atom_site_fract_y
_atom_site_fract_z
Si Si1 0.267825 0.174908 0.069253
Si Si2 0.582678 0.506230 0.755751
Si Si3 0.784950 0.158552 0.192306
Si Si4 0.583683 0.270816 0.140691
O O1 0.213447 0.244355 0.125379
O O2 0.354209 0.216952 0.083399
O O3 0.250000 0.000000 0.065417
O O4 0.250000 0.250000 0.000000
O O5 0.500000 0.442443 0.750000
O O6 0.634833 0.366785 0.773554
O O7 0.595791 0.626957 0.813604
O O8 0.597357 0.580225 0.684002
O O9 0.739110 0.250000 0.250000
O O10 0.750000 0.000000 0.175701
O O11 0.500000 0.250000 0.110529
#
# Coordination Sequence:
#
# PCOD8283676 Si02
#       4
#    16  16  16  16
#     4  12  26  43  64  93 128 173 227 275 327 395
#     4   9  18  34  63  97 125 157 206 260 325 386
#     4  12  22  36  63  93 126 163 209 264 322 379
#     4   9  18  38  65  93 126 167 209 267 331 393
#
# _framework density 19.828305
#
# number of rings (size 3 to 8) (size 9 to 14) (size 15 to 20)
#    0.000    1.500    2.500    6.000    0.000    0.500 
#    0.000    1.250    5.500    0.000    0.000    0.000 
#    0.000    0.000    0.000    0.000    0.000    0.000 
#
# Total GULP energy -396491.173347 kJ/mol
# GULP energy per Si atom -12390.349167 kJ/mol
# Density = 1.978318 g / cm^3
# Si number density = 19.828305 Si / 1000 Ang^3
#
#
#
# Elastic Constant Matrix: (Units=GPa)
#
#
# Indices 1 2 3 4 5 6 
#
# 1 152.8604 45.8650 60.1826 0.0000 0.0000 0.0000
# 2 45.8650 125.1381 61.5670 0.0000 0.0000 0.0000
# 3 60.1826 61.5670 146.4210 0.0000 0.0000 0.0000
# 4 0.0000 0.0000 0.0000 35.1216 0.0000 0.0000
# 5 0.0000 0.0000 0.0000 0.0000 32.9066 0.0000
# 6 0.0000 0.0000 0.0000 0.0000 0.0000 32.5025
#
#
#
# Elastic Compliance Matrix: (Units=1/GPa)
#
#
# Indices 1 2 3 4 5 6 
#
# 1 0.008073 -0.001672 -0.002615 0.000000 0.000000 0.000000
# 2 -0.001672 0.010422 -0.003695 0.000000 0.000000 0.000000
# 3 -0.002615 -0.003695 0.009458 0.000000 0.000000 0.000000
# 4 0.000000 0.000000 0.000000 0.028472 0.000000 0.000000
# 5 0.000000 0.000000 0.000000 0.000000 0.030389 0.000000
# 6 0.000000 0.000000 0.000000 0.000000 0.000000 0.030767
#
#
# Mechanical properties :
#
#
# Convention : Reuss Voigt Hill
#
# Bulk Modulus (GPa) = 83.41184 84.40540 83.90862
# Shear Modulus (GPa) = 36.35236 37.22647 36.78942
#
# Velocity S-wave (km/s) = 4.28642 4.33765 4.31211
# Velocity P-wave (km/s) = 8.16433 8.23088 8.19767
#
# Compressibility (1/GPa) = 0.01198871
#
# Stress axis : x y z
#
# Youngs Moduli (GPa) = 123.86510 95.95144 105.72949
#
# Poissons Ratio (x) = 0.16047 0.27650
# Poissons Ratio (y) = 0.20715 0.39065
# Poissons Ratio (z) = 0.32392 0.35452
#
# Static dielectric constant tensor:
#      x y z
#    x 4.258430 0.000000 0.000000 
#    y 0.000000 3.675630 0.000000 
#    z 0.000000 0.000000 3.342810 
# 
# 
# High freq. dielectric constant tensor:
#      x y z
#    x 1.782630 0.000000 0.000000 
#    y 0.000000 1.787220 0.000000 
#    z 0.000000 0.000000 1.743650 
# 
# From -- ./inp_files/40030.got.cif
#   From: 2010.03.12/outbox.cif.g09.slc.cpg/sg68_21_cif.got.tgz:40030.got - 2010.04.10 23:14:56.
