data_PCOD8283899
_publ_section_title
;
Structure prediction by ZEFSAII (Michael W. Deem and Ramdas Pophale) SiO2 
 PCOD8283899
Probable space group: F M M M
;
_chemical_formula_sum "Si O2"
_cell_formula_units_Z 176
_cell_length_a 16.178041
_cell_length_b 23.223427
_cell_length_c 25.846991
_cell_angle_alpha 90.000000
_cell_angle_beta 90.000000
_cell_angle_gamma 90.000000
_cell_volume 9710.961465
_symmetry_space_group_name_H-M "F M M M"
_symmetry_group_IT_number 69
_symmetry_cell_setting 'orthorhombic'
loop_
_space_group_symop_operation_xyz
x,y,z
-x,-y,z
x,-y,-z
-x,y,-z
-x,-y,-z
x,y,-z
-x,y,z
x,-y,z
x,1/2+y,1/2+z
-x,1/2-y,1/2+z
x,1/2-y,1/2-z
-x,1/2+y,1/2-z
-x,1/2-y,1/2-z
x,1/2+y,1/2-z
-x,1/2+y,1/2+z
x,1/2-y,1/2+z
1/2+x,y,1/2+z
1/2-x,-y,1/2+z
1/2+x,-y,1/2-z
1/2-x,y,1/2-z
1/2-x,-y,1/2-z
1/2+x,y,1/2-z
1/2-x,y,1/2+z
1/2+x,-y,1/2+z
1/2+x,1/2+y,z
1/2-x,1/2-y,z
1/2+x,1/2-y,-z
1/2-x,1/2+y,-z
1/2-x,1/2-y,-z
1/2+x,1/2+y,-z
1/2-x,1/2+y,z
1/2+x,1/2-y,z
loop_
_atom_site_type_symbol
_atom_site_label
_atom_site_fract_x
_atom_site_fract_y
_atom_site_fract_z
Si Si1 0.162245 0.129927 0.902269
Si Si2 0.744253 0.318306 0.690081
Si Si3 0.093824 0.348736 0.128419
Si Si4 0.678153 0.433845 0.440459
Si Si5 0.500000 0.931337 0.561067
Si Si6 0.593378 0.757575 0.441908
O O1 0.185712 0.146954 0.842836
O O2 0.234213 0.095105 0.929805
O O3 0.079148 0.092473 0.907686
O O4 0.153979 0.189358 0.933192
O O5 0.750000 0.333118 0.750000
O O6 0.750000 0.250000 0.679627
O O7 0.654203 0.344109 0.676967
O O8 0.106988 0.406537 0.095269
O O9 0.119981 0.295416 0.092901
O O10 0.000000 0.346027 0.148198
O O11 0.652960 0.425991 0.500000
O O12 0.685784 0.500000 0.424980
O O13 0.500000 0.911794 0.500000
O O14 0.500000 0.000000 0.564274
O O15 0.601095 0.735182 0.500000
O O16 0.500000 0.777874 0.428975
#
# Coordination Sequence:
#
# PCOD8283899 Si02
#       6
#    32  32  32  32  16  32
#     4  11  20  34  56  83 116 153 190 233 281 336
#     4  10  21  40  58  82 114 146 187 240 296 343
#     4  10  21  37  56  82 111 143 188 232 280 335
#     4  10  21  35  53  79 113 154 192 224 267 328
#     4  11  22  36  58  89 126 162 193 228 276 346
#     4  10  18  29  49  81 118 148 176 220 279 341
#
# _framework density 18.123847999999999
#
# number of rings (size 3 to 8) (size 9 to 14) (size 15 to 20)
#    0.000    1.727    2.727    2.727    0.000    2.909 
#    1.636    4.545    0.000   13.636    0.000    0.000 
#    0.000    0.000    0.000    0.000    0.000    0.000 
#
# Total GULP energy -545540.093381 kJ/mol
# GULP energy per Si atom -12398.638486 kJ/mol
# Density = 1.808260 g / cm^3
# Si number density = 18.123848 Si / 1000 Ang^3
#
#
#
# Elastic Constant Matrix: (Units=GPa)
#
#
# Indices 1 2 3 4 5 6 
#
# 1 103.0286 39.0750 49.4416 0.0000 0.0000 0.0000
# 2 39.0750 102.8407 47.9217 0.0000 0.0000 0.0000
# 3 49.4416 47.9217 116.0933 0.0000 0.0000 0.0000
# 4 0.0000 0.0000 0.0000 14.0251 0.0000 0.0000
# 5 0.0000 0.0000 0.0000 0.0000 19.7013 0.0000
# 6 0.0000 0.0000 0.0000 0.0000 0.0000 22.1075
#
#
#
# Elastic Compliance Matrix: (Units=1/GPa)
#
#
# Indices 1 2 3 4 5 6 
#
# 1 0.012857 -0.002889 -0.004283 0.000000 0.000000 0.000000
# 2 -0.002889 0.012689 -0.004007 0.000000 0.000000 0.000000
# 3 -0.004283 -0.004007 0.012092 0.000000 0.000000 0.000000
# 4 0.000000 0.000000 0.000000 0.071301 0.000000 0.000000
# 5 0.000000 0.000000 0.000000 0.000000 0.050758 0.000000
# 6 0.000000 0.000000 0.000000 0.000000 0.000000 0.045234
#
#
# Mechanical properties :
#
#
# Convention : Reuss Voigt Hill
#
# Bulk Modulus (GPa) = 65.44996 66.09325 65.77161
# Shear Modulus (GPa) = 21.51627 23.53507 22.52567
#
# Velocity S-wave (km/s) = 3.44929 3.60748 3.52927
# Velocity P-wave (km/s) = 7.21488 7.34156 7.27850
#
# Compressibility (1/GPa) = 0.01527885
#
# Stress axis : x y z
#
# Youngs Moduli (GPa) = 77.77758 78.80879 82.70004
#
# Poissons Ratio (x) = 0.22771 0.35419
# Poissons Ratio (y) = 0.22473 0.33140
# Poissons Ratio (z) = 0.33311 0.31581
#
# Static dielectric constant tensor:
#      x y z
#    x 3.495190 0.000000 0.000000 
#    y 0.000000 3.477950 0.000000 
#    z 0.000000 0.000000 3.179740 
# 
# 
# High freq. dielectric constant tensor:
#      x y z
#    x 1.708650 0.000000 0.000000 
#    y 0.000000 1.707210 0.000000 
#    z 0.000000 0.000000 1.681400 
# 
# From -- ./inp_files/41123.got.cif
#   From: 2010.03.12/outbox.cif.g09.slc.cpg/sg69_21_cif.got.tgz:41123.got - 2010.04.10 23:52:46.
