data_PCOD8283472
_publ_section_title
;
Structure prediction by ZEFSAII (Michael W. Deem and Ramdas Pophale) SiO2 
 PCOD8283472
Probable space group: C C C A
;
_chemical_formula_sum "Si O2"
_cell_formula_units_Z 96
_cell_length_a 26.089091
_cell_length_b 8.368811
_cell_length_c 19.345022
_cell_angle_alpha 90.000000
_cell_angle_beta 90.000000
_cell_angle_gamma 90.000000
_cell_volume 4223.689028
_symmetry_space_group_name_H-M "C C C A"
_symmetry_group_IT_number 68
_space_group.IT_coordinate_system_code '2'
_symmetry_cell_setting 'orthorhombic'
loop_
_space_group_symop_operation_xyz
x,y,z
-x,1/2-y,z
x,1/2-y,1/2-z
-x,y,1/2-z
-x,-y,-z
x,1/2+y,-z
-x,1/2+y,1/2+z
x,-y,1/2+z
1/2+x,1/2+y,z
1/2-x,-y,z
1/2+x,-y,1/2-z
1/2-x,1/2+y,1/2-z
1/2-x,1/2-y,-z
1/2+x,y,-z
1/2-x,y,1/2+z
1/2+x,1/2-y,1/2+z
loop_
_atom_site_type_symbol
_atom_site_label
_atom_site_fract_x
_atom_site_fract_y
_atom_site_fract_z
Si Si1 0.804585 0.946028 0.903934
Si Si2 0.881975 0.052509 0.016189
Si Si3 0.158060 0.065178 0.737781
Si Si4 0.551305 0.166462 0.945871
Si Si5 0.052377 0.583754 0.785427
Si Si6 0.694797 0.428183 0.876993
O O1 0.807434 0.754632 0.902215
O O2 0.750000 0.000000 0.935157
O O3 0.849214 0.037328 0.945959
O O4 0.809143 0.011681 0.827036
O O5 0.937648 0.974583 0.000801
O O6 0.897148 0.228051 0.043639
O O7 0.847334 0.974843 0.077010
O O8 0.170037 0.250000 0.750000
O O9 0.097126 0.042685 0.728176
O O10 0.179191 0.951853 0.798168
O O11 0.500000 0.250000 0.971141
O O12 0.545038 0.108138 0.867140
O O13 0.068166 0.750000 0.750000
O O14 0.000000 0.519578 0.750000
O O15 0.750000 0.500000 0.892997
#
# Coordination Sequence:
#
# PCOD8283472 Si02
#       6
#    16  16  16  16  16  16
#     4  12  26  47  74 104 148 195 244 300 364 435
#     4  12  26  45  73 102 151 183 241 296 363 431
#     4  12  26  45  71 108 148 187 245 307 361 430
#     4  12  25  47  72 109 139 196 235 301 356 442
#     4  11  22  45  79 100 140 190 249 292 370 429
#     4  12  27  46  74 105 145 198 244 298 366 434
#
# _framework density 22.728947000000002
#
# number of rings (size 3 to 8) (size 9 to 14) (size 15 to 20)
#    0.000    0.167    5.000    5.000    4.667    1.667 
#    0.000    0.000    0.000    0.000    0.000    0.000 
#    0.000    0.000    0.000    0.000    0.000    0.000 
#
# Total GULP energy -595059.684890 kJ/mol
# GULP energy per Si atom -12397.076769 kJ/mol
# Density = 2.267721 g / cm^3
# Si number density = 22.728947 Si / 1000 Ang^3
#
#
#
# Elastic Constant Matrix: (Units=GPa)
#
#
# Indices 1 2 3 4 5 6 
#
# 1 121.5572 33.5661 32.3692 0.0000 0.0000 0.0000
# 2 33.5661 66.5230 21.4586 0.0000 0.0000 0.0000
# 3 32.3692 21.4586 117.5602 0.0000 0.0000 0.0000
# 4 0.0000 0.0000 0.0000 22.6775 0.0000 0.0000
# 5 0.0000 0.0000 0.0000 0.0000 33.1325 0.0000
# 6 0.0000 0.0000 0.0000 0.0000 0.0000 46.2757
#
#
#
# Elastic Compliance Matrix: (Units=1/GPa)
#
#
# Indices 1 2 3 4 5 6 
#
# 1 0.009958 -0.004399 -0.001939 0.000000 0.000000 0.000000
# 2 -0.004399 0.017916 -0.002059 0.000000 0.000000 0.000000
# 3 -0.001939 -0.002059 0.009416 0.000000 0.000000 0.000000
# 4 0.000000 0.000000 0.000000 0.044097 0.000000 0.000000
# 5 0.000000 0.000000 0.000000 0.000000 0.030182 0.000000
# 6 0.000000 0.000000 0.000000 0.000000 0.000000 0.021610
#
#
# Mechanical properties :
#
#
# Convention : Reuss Voigt Hill
#
# Bulk Modulus (GPa) = 48.78980 53.38090 51.08535
# Shear Modulus (GPa) = 31.88704 34.96690 33.42697
#
# Velocity S-wave (km/s) = 3.74963 3.92654 3.83910
# Velocity P-wave (km/s) = 6.34498 6.64032 6.49433
#
# Compressibility (1/GPa) = 0.02049609
#
# Stress axis : x y z
#
# Youngs Moduli (GPa) = 100.42625 55.81531 106.20269
#
# Poissons Ratio (x) = 0.24553 0.20590
# Poissons Ratio (y) = 0.44177 0.21868
# Poissons Ratio (z) = 0.19470 0.11493
#
# Static dielectric constant tensor:
#      x y z
#    x 4.342270 0.000000 0.000000 
#    y 0.000000 4.148810 0.000000 
#    z 0.000000 0.000000 4.164670 
# 
# 
# High freq. dielectric constant tensor:
#      x y z
#    x 1.924100 0.000000 0.000000 
#    y 0.000000 1.882460 0.000000 
#    z 0.000000 0.000000 1.904920 
# 
# From -- ./inp_files/41205.got.cif
#   From: 2010.03.12/outbox.cif.g09.slc.cpg/sg68_21_cif.got.tgz:41205.got - 2010.04.10 23:14:56.
