data_PCOD8283317
_publ_section_title
;
Structure prediction by ZEFSAII (Michael W. Deem and Ramdas Pophale) SiO2 
 PCOD8283317
Probable space group: C C C A
;
_chemical_formula_sum "Si O2"
_cell_formula_units_Z 84
_cell_length_a 17.757817
_cell_length_b 10.073875
_cell_length_c 20.412768
_cell_angle_alpha 90.000000
_cell_angle_beta 90.000000
_cell_angle_gamma 90.000000
_cell_volume 3651.640654
_symmetry_space_group_name_H-M "C C C A"
_symmetry_group_IT_number 68
_space_group.IT_coordinate_system_code '2'
_symmetry_cell_setting 'orthorhombic'
loop_
_space_group_symop_operation_xyz
x,y,z
-x,1/2-y,z
x,1/2-y,1/2-z
-x,y,1/2-z
-x,-y,-z
x,1/2+y,-z
-x,1/2+y,1/2+z
x,-y,1/2+z
1/2+x,1/2+y,z
1/2-x,-y,z
1/2+x,-y,1/2-z
1/2-x,1/2+y,1/2-z
1/2-x,1/2-y,-z
1/2+x,y,-z
1/2-x,y,1/2+z
1/2+x,1/2-y,1/2+z
loop_
_atom_site_type_symbol
_atom_site_label
_atom_site_fract_x
_atom_site_fract_y
_atom_site_fract_z
Si Si1 0.250000 0.500000 0.889960
Si Si2 0.500000 0.750000 0.250000
Si Si3 0.386798 0.921797 0.329662
Si Si4 0.378520 0.181882 0.581219
Si Si5 0.000000 0.250000 0.525360
Si Si6 0.151663 0.890429 0.222356
Si Si7 0.472885 0.951970 0.633592
O O1 0.302510 0.403326 0.934564
O O2 0.198671 0.410710 0.843383
O O3 0.449266 0.842528 0.292482
O O4 0.351030 0.819594 0.382816
O O5 0.331150 0.993491 0.277180
O O6 0.436071 0.038437 0.363232
O O7 0.427916 0.205738 0.516959
O O8 0.432082 0.095693 0.628761
O O9 0.961964 0.365337 0.568387
O O10 0.177300 0.750000 0.250000
O O11 0.063986 0.885604 0.198641
#
# Coordination Sequence:
#
# PCOD8283317 Si02
#       7
#     8   4  16  16   8  16  16
#     4  10  26  44  64  88 142 178 232 282 342 424
#     4  12  14  32  58  96 128 170 208 270 328 420
#     4  12  20  36  68  99 134 174 224 278 353 417
#     4  11  23  42  63  96 126 181 234 278 343 412
#     4  12  23  40  73  93 136 175 240 292 344 404
#     4  11  24  40  62 100 139 175 214 276 359 424
#     4  11  21  38  63 101 133 167 222 299 343 389
#
# _framework density 23.003357999999999
#
# number of rings (size 3 to 8) (size 9 to 14) (size 15 to 20)
#    0.000    0.762    5.714    2.857    2.667    0.762 
#    0.000    3.810    0.000    0.000    0.000    0.000 
#    0.000    0.000    0.000    0.000    0.000    0.000 
#
# Total GULP energy -520338.731569 kJ/mol
# GULP energy per Si atom -12389.017418 kJ/mol
# Density = 2.295100 g / cm^3
# Si number density = 23.003358 Si / 1000 Ang^3
#
#
#
# Elastic Constant Matrix: (Units=GPa)
#
#
# Indices 1 2 3 4 5 6 
#
# 1 84.7285 29.4403 21.7148 0.0000 0.0000 0.0000
# 2 29.4403 114.1041 42.3470 0.0000 0.0000 0.0000
# 3 21.7148 42.3470 79.3589 0.0000 0.0000 0.0000
# 4 0.0000 0.0000 0.0000 43.3063 0.0000 0.0000
# 5 0.0000 0.0000 0.0000 0.0000 21.6853 0.0000
# 6 0.0000 0.0000 0.0000 0.0000 0.0000 33.2776
#
#
#
# Elastic Compliance Matrix: (Units=1/GPa)
#
#
# Indices 1 2 3 4 5 6 
#
# 1 0.013280 -0.002591 -0.002251 0.000000 0.000000 0.000000
# 2 -0.002591 0.011434 -0.005392 0.000000 0.000000 0.000000
# 3 -0.002251 -0.005392 0.016094 0.000000 0.000000 0.000000
# 4 0.000000 0.000000 0.000000 0.023091 0.000000 0.000000
# 5 0.000000 0.000000 0.000000 0.000000 0.046114 0.000000
# 6 0.000000 0.000000 0.000000 0.000000 0.000000 0.030050
#
#
# Mechanical properties :
#
#
# Convention : Reuss Voigt Hill
#
# Bulk Modulus (GPa) = 49.16638 51.68840 50.42739
# Shear Modulus (GPa) = 29.88442 31.96647 30.92545
#
# Velocity S-wave (km/s) = 3.60826 3.73184 3.67057
# Velocity P-wave (km/s) = 6.22731 6.40996 6.31929
#
# Compressibility (1/GPa) = 0.02033910
#
# Stress axis : x y z
#
# Youngs Moduli (GPa) = 75.30367 87.46171 62.13378
#
# Poissons Ratio (x) = 0.22660 0.13987
# Poissons Ratio (y) = 0.19510 0.33504
# Poissons Ratio (z) = 0.16952 0.47161
#
# Static dielectric constant tensor:
#      x y z
#    x 4.080690 0.000000 0.000000 
#    y 0.000000 4.439610 0.000000 
#    z 0.000000 0.000000 4.036620 
# 
# 
# High freq. dielectric constant tensor:
#      x y z
#    x 1.886580 0.000000 0.000000 
#    y 0.000000 1.918290 0.000000 
#    z 0.000000 0.000000 1.894390 
# 
# From -- ./inp_files/32764.got.cif
#   From: 2010.03.12/outbox.cif.g09.slc.cpg/sg68_17_cif.got.tgz:32764.got - 2010.04.10 23:14:56.
