data_PCOD8283406
_publ_section_title
;
Structure prediction by ZEFSAII (Michael W. Deem and Ramdas Pophale) SiO2 
 PCOD8283406
Probable space group: C C C A
;
_chemical_formula_sum "Si O2"
_cell_formula_units_Z 112
_cell_length_a 14.778065
_cell_length_b 14.718407
_cell_length_c 25.865040
_cell_angle_alpha 90.000000
_cell_angle_beta 90.000000
_cell_angle_gamma 90.000000
_cell_volume 5625.893867
_symmetry_space_group_name_H-M "C C C A"
_symmetry_group_IT_number 68
_space_group.IT_coordinate_system_code '2'
_symmetry_cell_setting 'orthorhombic'
loop_
_space_group_symop_operation_xyz
x,y,z
-x,1/2-y,z
x,1/2-y,1/2-z
-x,y,1/2-z
-x,-y,-z
x,1/2+y,-z
-x,1/2+y,1/2+z
x,-y,1/2+z
1/2+x,1/2+y,z
1/2-x,-y,z
1/2+x,-y,1/2-z
1/2-x,1/2+y,1/2-z
1/2-x,1/2-y,-z
1/2+x,y,-z
1/2-x,y,1/2+z
1/2+x,1/2-y,1/2+z
loop_
_atom_site_type_symbol
_atom_site_label
_atom_site_fract_x
_atom_site_fract_y
_atom_site_fract_z
Si Si1 0.327256 0.927584 0.098231
Si Si2 0.003693 0.498685 0.148819
Si Si3 0.597513 0.457506 0.490213
Si Si4 0.257195 0.760787 0.359003
Si Si5 0.068766 0.326124 0.605003
Si Si6 0.849403 0.250000 0.250000
Si Si7 0.326602 0.934116 0.409917
Si Si8 0.500000 0.895693 0.250000
O O1 0.402498 0.969064 0.135714
O O2 0.285186 0.837863 0.122386
O O3 0.250000 0.000000 0.092638
O O4 0.368019 0.908664 0.041708
O O5 0.016337 0.607421 0.144995
O O6 0.073110 0.452229 0.110091
O O7 0.029050 0.463002 0.204892
O O8 0.500000 0.500000 0.500000
O O9 0.601622 0.381125 0.445366
O O10 0.664396 0.539992 0.471152
O O11 0.150431 0.777963 0.364187
O O12 0.287317 0.774920 0.299393
O O13 0.306184 0.830091 0.398194
O O14 0.000000 0.250000 0.585291
O O15 0.913416 0.165386 0.264910
O O16 0.250000 0.000000 0.383854
#
# Coordination Sequence:
#
# PCOD8283406 Si02
#       8
#    16  16  16  16  16   8  16   8
#     4  12  26  44  67 101 143 176 228 288 340 414
#     4  11  22  45  69  96 136 181 220 285 346 402
#     4  11  23  43  70  96 135 184 227 280 340 409
#     4  12  25  44  71 102 132 179 228 289 349 407
#     4  11  25  47  66  96 142 182 226 278 343 421
#     4  11  24  42  69 104 136 160 231 296 338 411
#     4  11  21  43  68  95 133 176 226 273 339 415
#     4  11  22  42  71 100 128 174 223 290 348 395
#
# _framework density 19.907947
#
# number of rings (size 3 to 8) (size 9 to 14) (size 15 to 20)
#    0.000    0.714    8.571    1.286    0.000    2.286 
#    5.143    1.429    0.000    0.000    0.000    0.000 
#    0.000    0.000    0.000    0.000    0.000    0.000 
#
# Total GULP energy -694212.661823 kJ/mol
# GULP energy per Si atom -12396.654675 kJ/mol
# Density = 1.986264 g / cm^3
# Si number density = 19.907947 Si / 1000 Ang^3
#
#
#
# Elastic Constant Matrix: (Units=GPa)
#
#
# Indices 1 2 3 4 5 6 
#
# 1 103.4262 47.5735 26.5788 0.0000 0.0000 0.0000
# 2 47.5735 110.2357 31.3909 0.0000 0.0000 0.0000
# 3 26.5788 31.3909 87.2449 0.0000 0.0000 0.0000
# 4 0.0000 0.0000 0.0000 42.8766 0.0000 0.0000
# 5 0.0000 0.0000 0.0000 0.0000 29.6999 0.0000
# 6 0.0000 0.0000 0.0000 0.0000 0.0000 39.6910
#
#
#
# Elastic Compliance Matrix: (Units=1/GPa)
#
#
# Indices 1 2 3 4 5 6 
#
# 1 0.012387 -0.004759 -0.002062 0.000000 0.000000 0.000000
# 2 -0.004759 0.011935 -0.002845 0.000000 0.000000 0.000000
# 3 -0.002062 -0.002845 0.013113 0.000000 0.000000 0.000000
# 4 0.000000 0.000000 0.000000 0.023323 0.000000 0.000000
# 5 0.000000 0.000000 0.000000 0.000000 0.033670 0.000000
# 6 0.000000 0.000000 0.000000 0.000000 0.000000 0.025195
#
#
# Mechanical properties :
#
#
# Convention : Reuss Voigt Hill
#
# Bulk Modulus (GPa) = 55.22952 56.88812 56.05882
# Shear Modulus (GPa) = 34.48534 35.47775 34.98154
#
# Velocity S-wave (km/s) = 4.16653 4.22606 4.19640
# Velocity P-wave (km/s) = 7.13788 7.24226 7.19026
#
# Compressibility (1/GPa) = 0.01810626
#
# Stress axis : x y z
#
# Youngs Moduli (GPa) = 80.72663 83.78538 76.25731
#
# Poissons Ratio (x) = 0.39873 0.15721
# Poissons Ratio (y) = 0.38417 0.21692
# Poissons Ratio (z) = 0.16642 0.23833
#
# Static dielectric constant tensor:
#      x y z
#    x 3.806560 0.000000 0.000000 
#    y 0.000000 3.698730 0.000000 
#    z 0.000000 0.000000 3.981010 
# 
# 
# High freq. dielectric constant tensor:
#      x y z
#    x 1.794560 0.000000 0.000000 
#    y 0.000000 1.775240 0.000000 
#    z 0.000000 0.000000 1.768100 
# 
# From -- ./inp_files/51013.got.cif
#   From: 2010.03.12/outbox.cif.g09.slc.cpg/sg68_26_cif.got.tgz:51013.got - 2010.04.10 23:14:56.
