data_PCOD8283037
_publ_section_title
;
Structure prediction by ZEFSAII (Michael W. Deem and Ramdas Pophale) SiO2 
 PCOD8283037
Probable space group: C C C A
;
_chemical_formula_sum "Si O2"
_cell_formula_units_Z 104
_cell_length_a 19.342477
_cell_length_b 24.223729
_cell_length_c 9.597373
_cell_angle_alpha 90.000000
_cell_angle_beta 90.000000
_cell_angle_gamma 90.000000
_cell_volume 4496.819569
_symmetry_space_group_name_H-M "C C C A"
_symmetry_group_IT_number 68
_space_group.IT_coordinate_system_code '2'
_symmetry_cell_setting 'orthorhombic'
loop_
_space_group_symop_operation_xyz
x,y,z
-x,1/2-y,z
x,1/2-y,1/2-z
-x,y,1/2-z
-x,-y,-z
x,1/2+y,-z
-x,1/2+y,1/2+z
x,-y,1/2+z
1/2+x,1/2+y,z
1/2-x,-y,z
1/2+x,-y,1/2-z
1/2-x,1/2+y,1/2-z
1/2-x,1/2-y,-z
1/2+x,y,-z
1/2-x,y,1/2+z
1/2+x,1/2-y,1/2+z
loop_
_atom_site_type_symbol
_atom_site_label
_atom_site_fract_x
_atom_site_fract_y
_atom_site_fract_z
Si Si1 0.678729 0.032081 0.888666
Si Si2 0.825129 0.155693 0.970062
Si Si3 0.921314 0.753854 0.085179
Si Si4 0.372491 0.350166 0.902712
Si Si5 0.500000 0.095453 0.750000
Si Si6 0.245617 0.688765 0.726468
Si Si7 0.116492 0.544561 0.593169
O O1 0.675705 0.096166 0.937969
O O2 0.663983 0.027996 0.724702
O O3 0.750000 0.000000 0.924193
O O4 0.617981 0.003321 0.978265
O O5 0.882843 0.202662 0.985786
O O6 0.797624 0.148759 0.811650
O O7 0.757788 0.173525 0.063267
O O8 0.854359 0.098836 0.021222
O O9 0.916217 0.750000 0.250000
O O10 0.000000 0.750000 0.033617
O O11 0.887396 0.812295 0.037920
O O12 0.444764 0.367936 0.833016
O O13 0.332318 0.314812 0.786215
O O14 0.538211 0.055370 0.640226
O O15 0.275903 0.750000 0.750000
#
# Coordination Sequence:
#
# PCOD8283037 Si02
#       7
#    16  16  16  16   8  16  16
#     4  11  24  46  68 102 140 180 241 294 369 428
#     4  12  25  45  68 106 141 183 236 296 359 441
#     4  11  26  46  70 105 147 191 241 300 370 442
#     4  11  24  43  71 100 139 189 235 295 361 440
#     4  10  22  46  69 100 134 178 255 286 362 434
#     4  12  24  41  68 104 137 182 227 285 365 424
#     4  11  25  43  71 101 134 190 231 306 351 428
#
# _framework density 23.127458000000001
#
# number of rings (size 3 to 8) (size 9 to 14) (size 15 to 20)
#    0.000    0.769    4.615    3.231    2.154    3.692 
#    0.000    1.538    0.000    0.000    0.000    0.000 
#    0.000    0.000    0.000    0.000    0.000    0.000 
#
# Total GULP energy -644832.862708 kJ/mol
# GULP energy per Si atom -12400.631975 kJ/mol
# Density = 2.307482 g / cm^3
# Si number density = 23.127458 Si / 1000 Ang^3
#
#
#
# Elastic Constant Matrix: (Units=GPa)
#
#
# Indices 1 2 3 4 5 6 
#
# 1 75.9568 3.7132 11.3933 0.0000 0.0000 0.0000
# 2 3.7132 107.7293 43.4432 0.0000 0.0000 0.0000
# 3 11.3933 43.4432 96.3947 0.0000 0.0000 0.0000
# 4 0.0000 0.0000 0.0000 43.9441 0.0000 0.0000
# 5 0.0000 0.0000 0.0000 0.0000 36.3277 0.0000
# 6 0.0000 0.0000 0.0000 0.0000 0.0000 52.4190
#
#
#
# Elastic Compliance Matrix: (Units=1/GPa)
#
#
# Indices 1 2 3 4 5 6 
#
# 1 0.013407 0.000216 -0.001682 0.000000 0.000000 0.000000
# 2 0.000216 0.011348 -0.005140 0.000000 0.000000 0.000000
# 3 -0.001682 -0.005140 0.012889 0.000000 0.000000 0.000000
# 4 0.000000 0.000000 0.000000 0.022756 0.000000 0.000000
# 5 0.000000 0.000000 0.000000 0.000000 0.027527 0.000000
# 6 0.000000 0.000000 0.000000 0.000000 0.000000 0.019077
#
#
# Mechanical properties :
#
#
# Convention : Reuss Voigt Hill
#
# Bulk Modulus (GPa) = 40.92859 44.13115 42.52987
# Shear Modulus (GPa) = 38.95292 41.30690 40.12991
#
# Velocity S-wave (km/s) = 4.10844 4.23076 4.17005
# Velocity P-wave (km/s) = 6.34359 6.55659 6.45097
#
# Compressibility (1/GPa) = 0.02443280
#
# Stress axis : x y z
#
# Youngs Moduli (GPa) = 74.58721 88.12315 77.58423
#
# Poissons Ratio (x) = -0.01905 0.13050
# Poissons Ratio (y) = -0.01613 0.39876
# Poissons Ratio (z) = 0.12546 0.45293
#
# Static dielectric constant tensor:
#      x y z
#    x 4.376210 0.000000 0.000000 
#    y 0.000000 4.212990 0.000000 
#    z 0.000000 0.000000 4.224630 
# 
# 
# High freq. dielectric constant tensor:
#      x y z
#    x 1.923980 0.000000 0.000000 
#    y 0.000000 1.913570 0.000000 
#    z 0.000000 0.000000 1.919450 
# 
# From -- ./inp_files/7401.got.cif
#   From: 2010.03.12/outbox.cif.g09.slc.cpg/sg68_4_cif.got.tgz:7401.got - 2010.04.10 23:14:56.
