data_PCOD8283187
_publ_section_title
;
Structure prediction by ZEFSAII (Michael W. Deem and Ramdas Pophale) SiO2 
 PCOD8283187
Probable space group: C C C A
;
_chemical_formula_sum "Si O2"
_cell_formula_units_Z 104
_cell_length_a 20.263031
_cell_length_b 8.602115
_cell_length_c 27.640149
_cell_angle_alpha 90.000000
_cell_angle_beta 90.000000
_cell_angle_gamma 90.000000
_cell_volume 4817.814041
_symmetry_space_group_name_H-M "C C C A"
_symmetry_group_IT_number 68
_space_group.IT_coordinate_system_code '2'
_symmetry_cell_setting 'orthorhombic'
loop_
_space_group_symop_operation_xyz
x,y,z
-x,1/2-y,z
x,1/2-y,1/2-z
-x,y,1/2-z
-x,-y,-z
x,1/2+y,-z
-x,1/2+y,1/2+z
x,-y,1/2+z
1/2+x,1/2+y,z
1/2-x,-y,z
1/2+x,-y,1/2-z
1/2-x,1/2+y,1/2-z
1/2-x,1/2-y,-z
1/2+x,y,-z
1/2-x,y,1/2+z
1/2+x,1/2-y,1/2+z
loop_
_atom_site_type_symbol
_atom_site_label
_atom_site_fract_x
_atom_site_fract_y
_atom_site_fract_z
Si Si1 0.678468 0.571352 0.762229
Si Si2 0.366947 0.370707 0.020942
Si Si3 0.673731 0.044761 0.835793
Si Si4 0.967325 0.089426 0.074130
Si Si5 0.250000 0.500000 0.073551
Si Si6 0.357598 0.390816 0.647455
Si Si7 0.603306 0.956109 0.931525
O O1 0.685736 0.750000 0.750000
O O2 0.750000 0.500000 0.770126
O O3 0.640971 0.507469 0.714822
O O4 0.639851 0.526453 0.811698
O O5 0.415360 0.510184 0.037971
O O6 0.291354 0.385663 0.038728
O O7 0.389271 0.202635 0.038571
O O8 0.369960 0.394320 0.962673
O O9 0.662472 0.226798 0.831519
O O10 0.750000 0.000000 0.835730
O O11 0.642450 0.955874 0.881282
O O12 0.930867 0.119425 0.124991
O O13 0.000000 0.250000 0.053624
O O14 0.026660 0.969209 0.081856
O O15 0.303368 0.584054 0.106319
#
# Coordination Sequence:
#
# PCOD8283187 Si02
#       7
#    16  16  16  16   8  16  16
#     4  11  23  40  69 103 140 176 221 273 346 412
#     4  11  26  42  69  98 141 178 228 282 337 408
#     4  11  24  40  68 100 134 177 221 280 341 404
#     4  11  23  45  69  96 128 184 231 277 331 399
#     4  10  24  40  70 104 136 176 218 286 348 382
#     4  11  22  43  71  98 139 171 225 279 337 409
#     4  12  25  44  66  99 138 181 233 274 338 406
#
# _framework density 21.586552000000001
#
# number of rings (size 3 to 8) (size 9 to 14) (size 15 to 20)
#    0.000    0.923    2.308    5.077    7.538    0.615 
#    0.000    0.769    0.000    0.923    0.000    0.000 
#    0.000    0.000    0.000    0.000    0.000    0.000 
#
# Total GULP energy -644459.817708 kJ/mol
# GULP energy per Si atom -12393.458033 kJ/mol
# Density = 2.153742 g / cm^3
# Si number density = 21.586552 Si / 1000 Ang^3
#
#
#
# Elastic Constant Matrix: (Units=GPa)
#
#
# Indices 1 2 3 4 5 6 
#
# 1 104.7020 31.9905 42.0630 0.0000 0.0000 0.0000
# 2 31.9905 111.4095 11.5179 0.0000 0.0000 0.0000
# 3 42.0630 11.5179 106.4235 0.0000 0.0000 0.0000
# 4 0.0000 0.0000 0.0000 42.6258 0.0000 0.0000
# 5 0.0000 0.0000 0.0000 0.0000 20.1960 0.0000
# 6 0.0000 0.0000 0.0000 0.0000 0.0000 36.0448
#
#
#
# Elastic Compliance Matrix: (Units=1/GPa)
#
#
# Indices 1 2 3 4 5 6 
#
# 1 0.012309 -0.003066 -0.004533 0.000000 0.000000 0.000000
# 2 -0.003066 0.009841 0.000147 0.000000 0.000000 0.000000
# 3 -0.004533 0.000147 0.011172 0.000000 0.000000 0.000000
# 4 0.000000 0.000000 0.000000 0.023460 0.000000 0.000000
# 5 0.000000 0.000000 0.000000 0.000000 0.049515 0.000000
# 6 0.000000 0.000000 0.000000 0.000000 0.000000 0.027743
#
#
# Mechanical properties :
#
#
# Convention : Reuss Voigt Hill
#
# Bulk Modulus (GPa) = 54.29596 54.85308 54.57452
# Shear Modulus (GPa) = 32.24067 35.57089 33.90578
#
# Velocity S-wave (km/s) = 3.86884 4.06375 3.96749
# Velocity P-wave (km/s) = 6.72046 6.89091 6.80622
#
# Compressibility (1/GPa) = 0.01841758
#
# Stress axis : x y z
#
# Youngs Moduli (GPa) = 81.24297 101.61529 89.50764
#
# Poissons Ratio (x) = 0.31152 0.40575
# Poissons Ratio (y) = 0.24907 -0.01312
# Poissons Ratio (z) = 0.36829 -0.01490
#
# Static dielectric constant tensor:
#      x y z
#    x 3.973440 0.000000 0.000000 
#    y 0.000000 3.921180 0.000000 
#    z 0.000000 0.000000 4.383580 
# 
# 
# High freq. dielectric constant tensor:
#      x y z
#    x 1.836550 0.000000 0.000000 
#    y 0.000000 1.857250 0.000000 
#    z 0.000000 0.000000 1.858020 
# 
# From -- ./inp_files/51826.got.cif
#   From: 2010.03.12/outbox.cif.g09.slc.cpg/sg68_26_cif.got.tgz:51826.got - 2010.04.10 23:14:56.
