data_PCOD8283719
_publ_section_title
;
Structure prediction by ZEFSAII (Michael W. Deem and Ramdas Pophale) SiO2 
 PCOD8283719
Probable space group: C C C A
;
_chemical_formula_sum "Si O2"
_cell_formula_units_Z 48
_cell_length_a 30.990676
_cell_length_b 4.865324
_cell_length_c 13.318190
_cell_angle_alpha 90.000000
_cell_angle_beta 90.000000
_cell_angle_gamma 90.000000
_cell_volume 2008.112423
_symmetry_space_group_name_H-M "C C C A"
_symmetry_group_IT_number 68
_space_group.IT_coordinate_system_code '2'
_symmetry_cell_setting 'orthorhombic'
loop_
_space_group_symop_operation_xyz
x,y,z
-x,1/2-y,z
x,1/2-y,1/2-z
-x,y,1/2-z
-x,-y,-z
x,1/2+y,-z
-x,1/2+y,1/2+z
x,-y,1/2+z
1/2+x,1/2+y,z
1/2-x,-y,z
1/2+x,-y,1/2-z
1/2-x,1/2+y,1/2-z
1/2-x,1/2-y,-z
1/2+x,y,-z
1/2-x,y,1/2+z
1/2+x,1/2-y,1/2+z
loop_
_atom_site_type_symbol
_atom_site_label
_atom_site_fract_x
_atom_site_fract_y
_atom_site_fract_z
Si Si1 0.919909 0.514037 0.813648
Si Si2 0.500000 0.750000 0.425619
Si Si3 0.721026 0.250000 0.250000
Si Si4 0.661670 0.573928 0.932921
O O1 0.936490 0.250000 0.750000
O O2 0.958962 0.699595 0.855447
O O3 0.888214 0.397524 0.898995
O O4 0.894120 0.750000 0.750000
O O5 0.500000 0.500000 0.500000
O O6 0.750000 0.500000 0.209368
O O7 0.692229 0.138480 0.159715
O O8 0.670759 0.268797 0.972313
#
# Coordination Sequence:
#
# PCOD8283719 Si02
#       4
#    16   8   8  16
#     4  12  25  45  74 105 147 200 255 306 376 446
#     4  12  25  44  67 106 148 190 254 311 368 441
#     4  12  28  48  76 112 155 193 248 316 376 452
#     4  12  26  47  77 111 149 199 250 304 377 452
#
# _framework density 23.903043
#
# number of rings (size 3 to 8) (size 9 to 14) (size 15 to 20)
#    0.000    0.000    1.667    8.500    2.333    5.333 
#    0.000    0.000    0.000    0.000    0.000    0.000 
#    0.000    0.000    0.000    0.000    0.000    0.000 
#
# Total GULP energy -297586.869508 kJ/mol
# GULP energy per Si atom -12399.452896 kJ/mol
# Density = 2.384864 g / cm^3
# Si number density = 23.903043 Si / 1000 Ang^3
#
#
#
# Elastic Constant Matrix: (Units=GPa)
#
#
# Indices 1 2 3 4 5 6 
#
# 1 132.7019 44.3807 54.6669 0.0000 0.0000 0.0000
# 2 44.3807 167.6761 51.1492 0.0000 0.0000 0.0000
# 3 54.6669 51.1492 122.4349 0.0000 0.0000 0.0000
# 4 0.0000 0.0000 0.0000 64.1863 0.0000 0.0000
# 5 0.0000 0.0000 0.0000 0.0000 101.2630 0.0000
# 6 0.0000 0.0000 0.0000 0.0000 0.0000 42.9652
#
#
#
# Elastic Compliance Matrix: (Units=1/GPa)
#
#
# Indices 1 2 3 4 5 6 
#
# 1 0.009513 -0.001401 -0.003662 0.000000 0.000000 0.000000
# 2 -0.001401 0.007041 -0.002316 0.000000 0.000000 0.000000
# 3 -0.003662 -0.002316 0.010770 0.000000 0.000000 0.000000
# 4 0.000000 0.000000 0.000000 0.015580 0.000000 0.000000
# 5 0.000000 0.000000 0.000000 0.000000 0.009875 0.000000
# 6 0.000000 0.000000 0.000000 0.000000 0.000000 0.023275
#
#
# Mechanical properties :
#
#
# Convention : Reuss Voigt Hill
#
# Bulk Modulus (GPa) = 79.57902 80.35628 79.96765
# Shear Modulus (GPa) = 52.63105 59.85731 56.24418
#
# Velocity S-wave (km/s) = 4.69748 5.00960 4.85605
# Velocity P-wave (km/s) = 7.92379 8.19463 8.06035
#
# Compressibility (1/GPa) = 0.01256613
#
# Stress axis : x y z
#
# Youngs Moduli (GPa) = 105.12130 142.02218 92.84682
#
# Poissons Ratio (x) = 0.19893 0.34003
# Poissons Ratio (y) = 0.14724 0.21505
# Poissons Ratio (z) = 0.38499 0.32895
#
# Static dielectric constant tensor:
#      x y z
#    x 4.296510 0.000000 0.000000 
#    y 0.000000 4.604810 0.000000 
#    z 0.000000 0.000000 4.488190 
# 
# 
# High freq. dielectric constant tensor:
#      x y z
#    x 1.937740 0.000000 0.000000 
#    y 0.000000 1.977270 0.000000 
#    z 0.000000 0.000000 1.965740 
# 
# From -- ./inp_files/25709.got.cif
#   From: 2010.03.12/outbox.cif.g09.slc.cpg/sg68_13_cif.got.tgz:25709.got - 2010.04.10 23:14:56.
