data_PCOD8283434
_publ_section_title
;
Structure prediction by ZEFSAII (Michael W. Deem and Ramdas Pophale) SiO2 
 PCOD8283434
Probable space group: C C C A
;
_chemical_formula_sum "Si O2"
_cell_formula_units_Z 96
_cell_length_a 27.104626
_cell_length_b 18.849081
_cell_length_c 8.472966
_cell_angle_alpha 90.000000
_cell_angle_beta 90.000000
_cell_angle_gamma 90.000000
_cell_volume 4328.815376
_symmetry_space_group_name_H-M "C C C A"
_symmetry_group_IT_number 68
_space_group.IT_coordinate_system_code '2'
_symmetry_cell_setting 'orthorhombic'
loop_
_space_group_symop_operation_xyz
x,y,z
-x,1/2-y,z
x,1/2-y,1/2-z
-x,y,1/2-z
-x,-y,-z
x,1/2+y,-z
-x,1/2+y,1/2+z
x,-y,1/2+z
1/2+x,1/2+y,z
1/2-x,-y,z
1/2+x,-y,1/2-z
1/2-x,1/2+y,1/2-z
1/2-x,1/2-y,-z
1/2+x,y,-z
1/2-x,y,1/2+z
1/2+x,1/2-y,1/2+z
loop_
_atom_site_type_symbol
_atom_site_label
_atom_site_fract_x
_atom_site_fract_y
_atom_site_fract_z
Si Si1 0.606037 0.651170 0.445524
Si Si2 0.405052 0.600968 0.401039
Si Si3 0.552280 0.774047 0.568962
Si Si4 0.463363 0.961206 0.612668
Si Si5 0.297290 0.914623 0.569163
Si Si6 0.696160 0.071219 0.057625
O O1 0.600086 0.642301 0.260685
O O2 0.595896 0.733399 0.478494
O O3 0.565558 0.605263 0.541957
O O4 0.661540 0.637581 0.501837
O O5 0.441492 0.642168 0.524698
O O6 0.422641 0.522029 0.349043
O O7 0.353567 0.603407 0.490912
O O8 0.500000 0.750000 0.498890
O O9 0.556083 0.750000 0.750000
O O10 0.500000 0.933972 0.750000
O O11 0.500000 0.000000 0.500000
O O12 0.302334 0.920676 0.755418
O O13 0.242414 0.887789 0.522650
O O14 0.304019 0.988780 0.481929
#
# Coordination Sequence:
#
# PCOD8283434 Si02
#       6
#    16  16  16  16  16  16
#     4  12  25  43  68  96 134 176 224 273 337 394
#     4  12  25  44  66  98 133 178 222 275 334 399
#     4  11  27  45  67  93 135 182 226 272 331 400
#     4  12  26  40  65  98 132 171 224 282 328 389
#     4  11  22  39  65  98 132 171 215 275 338 394
#     4  11  22  39  65  97 134 168 218 273 338 396
#
# _framework density 22.176969
#
# number of rings (size 3 to 8) (size 9 to 14) (size 15 to 20)
#    0.000    0.500    3.333    6.500    7.000    0.667 
#    0.000    0.833    0.000    0.000    0.000    0.000 
#    0.000    0.000    0.000    0.000    0.000    0.000 
#
# Total GULP energy -595055.038792 kJ/mol
# GULP energy per Si atom -12396.979975 kJ/mol
# Density = 2.212649 g / cm^3
# Si number density = 22.176969 Si / 1000 Ang^3
#
#
#
# Elastic Constant Matrix: (Units=GPa)
#
#
# Indices 1 2 3 4 5 6 
#
# 1 140.5656 15.2874 24.2340 0.0000 0.0000 0.0000
# 2 15.2874 58.4517 5.7864 0.0000 0.0000 0.0000
# 3 24.2340 5.7864 126.6834 0.0000 0.0000 0.0000
# 4 0.0000 0.0000 0.0000 33.8744 0.0000 0.0000
# 5 0.0000 0.0000 0.0000 0.0000 42.1348 0.0000
# 6 0.0000 0.0000 0.0000 0.0000 0.0000 37.2979
#
#
#
# Elastic Compliance Matrix: (Units=1/GPa)
#
#
# Indices 1 2 3 4 5 6 
#
# 1 0.007549 -0.001840 -0.001360 0.000000 0.000000 0.000000
# 2 -0.001840 0.017634 -0.000454 0.000000 0.000000 0.000000
# 3 -0.001360 -0.000454 0.008175 0.000000 0.000000 0.000000
# 4 0.000000 0.000000 0.000000 0.029521 0.000000 0.000000
# 5 0.000000 0.000000 0.000000 0.000000 0.023733 0.000000
# 6 0.000000 0.000000 0.000000 0.000000 0.000000 0.026811
#
#
# Mechanical properties :
#
#
# Convention : Reuss Voigt Hill
#
# Bulk Modulus (GPa) = 38.38617 46.25736 42.32177
# Shear Modulus (GPa) = 38.63606 41.35428 39.99517
#
# Velocity S-wave (km/s) = 4.17846 4.32295 4.25132
# Velocity P-wave (km/s) = 6.37385 6.76910 6.57445
#
# Compressibility (1/GPa) = 0.02605105
#
# Stress axis : x y z
#
# Youngs Moduli (GPa) = 132.47388 56.70804 122.33061
#
# Poissons Ratio (x) = 0.10432 0.16637
# Poissons Ratio (y) = 0.24370 0.05548
# Poissons Ratio (z) = 0.18016 0.02572
#
# Static dielectric constant tensor:
#      x y z
#    x 4.497920 0.000000 0.000000 
#    y 0.000000 4.012640 0.000000 
#    z 0.000000 0.000000 3.821730 
# 
# 
# High freq. dielectric constant tensor:
#      x y z
#    x 1.891750 0.000000 0.000000 
#    y 0.000000 1.852850 0.000000 
#    z 0.000000 0.000000 1.889590 
# 
# From -- ./inp_files/8944.got.cif
#   From: 2010.03.12/outbox.cif.g09.slc.cpg/sg68_5_cif.got.tgz:8944.got - 2010.04.10 23:14:56.
