data_PCOD8283702
_publ_section_title
;
Structure prediction by ZEFSAII (Michael W. Deem and Ramdas Pophale) SiO2 
 PCOD8283702
Probable space group: C C C A
;
_chemical_formula_sum "Si O2"
_cell_formula_units_Z 96
_cell_length_a 16.033797
_cell_length_b 10.901877
_cell_length_c 25.617017
_cell_angle_alpha 90.000000
_cell_angle_beta 90.000000
_cell_angle_gamma 90.000000
_cell_volume 4477.815704
_symmetry_space_group_name_H-M "C C C A"
_symmetry_group_IT_number 68
_space_group.IT_coordinate_system_code '2'
_symmetry_cell_setting 'orthorhombic'
loop_
_space_group_symop_operation_xyz
x,y,z
-x,1/2-y,z
x,1/2-y,1/2-z
-x,y,1/2-z
-x,-y,-z
x,1/2+y,-z
-x,1/2+y,1/2+z
x,-y,1/2+z
1/2+x,1/2+y,z
1/2-x,-y,z
1/2+x,-y,1/2-z
1/2-x,1/2+y,1/2-z
1/2-x,1/2-y,-z
1/2+x,y,-z
1/2-x,y,1/2+z
1/2+x,1/2-y,1/2+z
loop_
_atom_site_type_symbol
_atom_site_label
_atom_site_fract_x
_atom_site_fract_y
_atom_site_fract_z
Si Si1 0.867099 0.244629 0.691347
Si Si2 0.262198 0.755247 0.103038
Si Si3 0.575793 0.595366 0.102087
Si Si4 0.000000 0.250000 0.483953
Si Si5 0.496832 0.453837 0.191039
Si Si6 0.750000 0.500000 0.448543
Si Si7 0.645416 0.104631 0.466034
O O1 0.831906 0.250000 0.750000
O O2 0.790776 0.279247 0.654527
O O3 0.935842 0.348075 0.684378
O O4 0.907171 0.110035 0.679054
O O5 0.356760 0.798251 0.114953
O O6 0.251020 0.613592 0.090160
O O7 0.229959 0.827378 0.051844
O O8 0.520774 0.635292 0.052827
O O9 0.516472 0.566949 0.151802
O O10 0.617887 0.468868 0.085057
O O11 0.923338 0.292751 0.519957
O O12 0.500000 0.506488 0.250000
O O13 0.667902 0.515434 0.485484
#
# Coordination Sequence:
#
# PCOD8283702 Si02
#       7
#    16  16  16   8  16   8  16
#     4   9  20  40  66  96 123 162 220 267 317 389
#     4  12  24  41  67  95 129 172 218 272 326 388
#     4  12  24  42  64  96 131 170 215 268 330 388
#     4  12  28  40  57  98 137 172 216 258 320 404
#     4   9  20  40  67  95 124 164 214 270 324 385
#     4  12  24  42  60  94 140 174 212 268 334 382
#     4  12  24  43  66  92 129 177 222 268 318 387
#
# _framework density 21.439024
#
# number of rings (size 3 to 8) (size 9 to 14) (size 15 to 20)
#    0.000    1.000    5.000    3.000    4.667    0.000 
#    0.000    5.417    0.000    0.000    0.000    0.000 
#    0.000    0.000    0.000    0.000    0.000    0.000 
#
# Total GULP energy -595098.788262 kJ/mol
# GULP energy per Si atom -12397.891422 kJ/mol
# Density = 2.139023 g / cm^3
# Si number density = 21.439024 Si / 1000 Ang^3
#
#
#
# Elastic Constant Matrix: (Units=GPa)
#
#
# Indices 1 2 3 4 5 6 
#
# 1 65.7000 16.3527 33.3951 0.0000 0.0000 0.0000
# 2 16.3527 92.6431 35.8443 0.0000 0.0000 0.0000
# 3 33.3951 35.8443 103.6172 0.0000 0.0000 0.0000
# 4 0.0000 0.0000 0.0000 -6.0346 0.0000 0.0000
# 5 0.0000 0.0000 0.0000 0.0000 32.5464 0.0000
# 6 0.0000 0.0000 0.0000 0.0000 0.0000 29.6491
#
#
#
# Elastic Compliance Matrix: (Units=1/GPa)
#
#
# Indices 1 2 3 4 5 6 
#
# 1 0.018298 -0.001095 -0.005519 0.000000 0.000000 0.000000
# 2 -0.001095 0.012528 -0.003981 0.000000 0.000000 0.000000
# 3 -0.005519 -0.003981 0.012807 0.000000 0.000000 0.000000
# 4 0.000000 0.000000 0.000000 -0.165710 0.000000 0.000000
# 5 0.000000 0.000000 0.000000 0.000000 0.030725 0.000000
# 6 0.000000 0.000000 0.000000 0.000000 0.000000 0.033728
#
#
# Mechanical properties :
#
#
# Convention : Reuss Voigt Hill
#
# Bulk Modulus (GPa) = 44.55530 48.12718 46.34124
# Shear Modulus (GPa) = -172.68484 22.99006 -74.84739
#
# Velocity S-wave (km/s) = -8.98453 3.27822 -5.91503
# Velocity P-wave (km/s) = 9.31674 6.06845 4.99878
#
# Compressibility (1/GPa) = 0.02244402
#
# Stress axis : x y z
#
# Youngs Moduli (GPa) = 54.64983 79.82405 78.08440
#
# Poissons Ratio (x) = 0.08738 0.43093
# Poissons Ratio (y) = 0.05982 0.31084
# Poissons Ratio (z) = 0.30160 0.31777
#
# Static dielectric constant tensor:
#      x y z
#    x 4.016580 0.000000 0.000000 
#    y 0.000000 3.784910 0.000000 
#    z 0.000000 0.000000 3.984550 
# 
# 
# High freq. dielectric constant tensor:
#      x y z
#    x 1.830740 0.000000 0.000000 
#    y 0.000000 1.834490 0.000000 
#    z 0.000000 0.000000 1.843250 
# 
# From -- ./inp_files/46025.got.cif
#   From: 2010.03.12/outbox.cif.g09.slc.cpg/sg68_24_cif.got.tgz:46025.got - 2010.04.10 23:14:56.
