data_PCOD8283380
_publ_section_title
;
Structure prediction by ZEFSAII (Michael W. Deem and Ramdas Pophale) SiO2 
 PCOD8283380
Probable space group: C C C A
;
_chemical_formula_sum "Si O2"
_cell_formula_units_Z 88
_cell_length_a 25.353851
_cell_length_b 5.625937
_cell_length_c 27.305989
_cell_angle_alpha 90.000000
_cell_angle_beta 90.000000
_cell_angle_gamma 90.000000
_cell_volume 3894.903564
_symmetry_space_group_name_H-M "C C C A"
_symmetry_group_IT_number 68
_space_group.IT_coordinate_system_code '2'
_symmetry_cell_setting 'orthorhombic'
loop_
_space_group_symop_operation_xyz
x,y,z
-x,1/2-y,z
x,1/2-y,1/2-z
-x,y,1/2-z
-x,-y,-z
x,1/2+y,-z
-x,1/2+y,1/2+z
x,-y,1/2+z
1/2+x,1/2+y,z
1/2-x,-y,z
1/2+x,-y,1/2-z
1/2-x,1/2+y,1/2-z
1/2-x,1/2-y,-z
1/2+x,y,-z
1/2-x,y,1/2+z
1/2+x,1/2-y,1/2+z
loop_
_atom_site_type_symbol
_atom_site_label
_atom_site_fract_x
_atom_site_fract_y
_atom_site_fract_z
Si Si1 0.000000 0.250000 0.040724
Si Si2 0.404120 0.696518 0.303371
Si Si3 0.110157 0.906818 0.976851
Si Si4 0.697279 0.135813 0.303639
Si Si5 0.134794 0.573111 0.125330
Si Si6 0.452521 0.073930 0.117457
O O1 0.955729 0.077234 0.014975
O O2 0.957950 0.385655 0.074573
O O3 0.425699 0.750000 0.250000
O O4 0.349639 0.552699 0.301435
O O5 0.450006 0.547886 0.329542
O O6 0.397227 0.942078 0.331992
O O7 0.137398 0.903152 0.922380
O O8 0.130567 0.656615 0.999586
O O9 0.703737 0.250000 0.250000
O O10 0.687752 0.330336 0.347405
O O11 0.750000 0.000000 0.318593
O O12 0.101933 0.796543 0.105330
O O13 0.500000 0.250000 0.117199
#
# Coordination Sequence:
#
# PCOD8283380 Si02
#       6
#     8  16  16  16  16  16
#     4  12  22  40  63  96 130 180 241 312 348 386
#     4  11  22  41  65  90 134 179 224 274 345 431
#     4  12  26  42  68 100 135 187 247 299 356 411
#     4  11  24  41  72 107 133 165 218 283 354 429
#     4  11  24  42  64  95 139 179 219 287 350 411
#     4  11  21  38  62  87 136 183 229 279 340 409
#
# _framework density 22.593627999999999
#
# number of rings (size 3 to 8) (size 9 to 14) (size 15 to 20)
#    0.000    0.727    5.455    2.182    2.545    0.000 
#    0.000    6.818    0.000    1.091    0.000    0.000 
#    0.000    0.000    0.000    0.000    0.000    0.000 
#
# Total GULP energy -545215.603344 kJ/mol
# GULP energy per Si atom -12391.263712 kJ/mol
# Density = 2.254220 g / cm^3
# Si number density = 22.593628 Si / 1000 Ang^3
#
#
#
# Elastic Constant Matrix: (Units=GPa)
#
#
# Indices 1 2 3 4 5 6 
#
# 1 33.2504 -5.3220 12.7121 0.0000 0.0000 0.0000
# 2 -5.3220 94.1240 34.3047 0.0000 0.0000 0.0000
# 3 12.7121 34.3047 135.1772 0.0000 0.0000 0.0000
# 4 0.0000 0.0000 0.0000 26.7086 0.0000 0.0000
# 5 0.0000 0.0000 0.0000 0.0000 14.9504 0.0000
# 6 0.0000 0.0000 0.0000 0.0000 0.0000 35.0009
#
#
#
# Elastic Compliance Matrix: (Units=1/GPa)
#
#
# Indices 1 2 3 4 5 6 
#
# 1 0.032052 0.003208 -0.003828 0.000000 0.000000 0.000000
# 2 0.003208 0.012028 -0.003354 0.000000 0.000000 0.000000
# 3 -0.003828 -0.003354 0.008609 0.000000 0.000000 0.000000
# 4 0.000000 0.000000 0.000000 0.037441 0.000000 0.000000
# 5 0.000000 0.000000 0.000000 0.000000 0.066888 0.000000
# 6 0.000000 0.000000 0.000000 0.000000 0.000000 0.028571
#
#
# Mechanical properties :
#
#
# Convention : Reuss Voigt Hill
#
# Bulk Modulus (GPa) = 22.35171 38.43790 30.39480
# Shear Modulus (GPa) = 23.98646 30.05577 27.02111
#
# Velocity S-wave (km/s) = 3.26183 3.65125 3.46202
# Velocity P-wave (km/s) = 4.90922 5.90129 5.42796
#
# Compressibility (1/GPa) = 0.04473931
#
# Stress axis : x y z
#
# Youngs Moduli (GPa) = 31.19952 83.13878 116.15914
#
# Poissons Ratio (x) = -0.26667 0.44467
# Poissons Ratio (y) = -0.10007 0.38961
# Poissons Ratio (z) = 0.11944 0.27885
#
# Static dielectric constant tensor:
#      x y z
#    x 3.766210 0.000000 0.000000 
#    y 0.000000 4.485920 0.000000 
#    z 0.000000 0.000000 4.599000 
# 
# 
# High freq. dielectric constant tensor:
#      x y z
#    x 1.836690 0.000000 0.000000 
#    y 0.000000 1.920750 0.000000 
#    z 0.000000 0.000000 1.907370 
# 
# From -- ./inp_files/52452.got.cif
#   From: 2010.03.12/outbox.cif.g09.slc.cpg/sg68_27_cif.got.tgz:52452.got - 2010.04.10 23:14:56.
