data_PCOD8283148
_publ_section_title
;
Structure prediction by ZEFSAII (Michael W. Deem and Ramdas Pophale) SiO2 
 PCOD8283148
Probable space group: C C C A
;
_chemical_formula_sum "Si O2"
_cell_formula_units_Z 104
_cell_length_a 9.313749
_cell_length_b 25.820876
_cell_length_c 19.599303
_cell_angle_alpha 90.000000
_cell_angle_beta 90.000000
_cell_angle_gamma 90.000000
_cell_volume 4713.419876
_symmetry_space_group_name_H-M "C C C A"
_symmetry_group_IT_number 68
_space_group.IT_coordinate_system_code '2'
_symmetry_cell_setting 'orthorhombic'
loop_
_space_group_symop_operation_xyz
x,y,z
-x,1/2-y,z
x,1/2-y,1/2-z
-x,y,1/2-z
-x,-y,-z
x,1/2+y,-z
-x,1/2+y,1/2+z
x,-y,1/2+z
1/2+x,1/2+y,z
1/2-x,-y,z
1/2+x,-y,1/2-z
1/2-x,1/2+y,1/2-z
1/2-x,1/2-y,-z
1/2+x,y,-z
1/2-x,y,1/2+z
1/2+x,1/2-y,1/2+z
loop_
_atom_site_type_symbol
_atom_site_label
_atom_site_fract_x
_atom_site_fract_y
_atom_site_fract_z
Si Si1 0.000000 0.827520 0.750000
Si Si2 0.051863 0.400651 0.139252
Si Si3 0.000000 0.250000 0.989284
Si Si4 0.130386 0.148733 0.039610
Si Si5 0.586335 0.987527 0.683301
Si Si6 0.758899 0.750000 0.750000
Si Si7 0.132082 0.614502 0.111959
Si Si8 0.628205 0.187712 0.374860
O O1 0.953506 0.864844 0.811794
O O2 0.134879 0.794425 0.777580
O O3 0.017122 0.460462 0.153061
O O4 0.217592 0.384583 0.152496
O O5 0.000887 0.387931 0.062891
O O6 0.118659 0.275214 0.940371
O O7 0.075446 0.207837 0.036997
O O8 0.254848 0.146182 0.097724
O O9 0.173071 0.125605 0.966470
O O10 0.500000 0.969118 0.750000
O O11 0.569422 0.943018 0.625531
O O12 0.750000 0.000000 0.703325
O O13 0.664117 0.723996 0.690041
O O14 0.021748 0.657834 0.140637
#
# Coordination Sequence:
#
# PCOD8283148 Si02
#       8
#     8  16   8  16  16   8  16  16
#     4  11  24  42  66  94 130 178 226 271 328 402
#     4  11  23  44  70  95 134 175 226 270 337 411
#     4  10  24  39  62  93 130 180 218 276 332 386
#     4  11  23  43  68  94 133 182 230 267 330 412
#     4  10  23  44  69  99 130 174 219 279 345 405
#     4  11  26  41  64 100 129 179 224 276 339 401
#     4  10  24  43  67 100 134 174 219 288 340 393
#     4  11  24  43  64  98 133 176 220 284 334 401
#
# _framework density 22.064658999999999
#
# number of rings (size 3 to 8) (size 9 to 14) (size 15 to 20)
#    0.000    1.385    2.308    2.308    6.462    4.615 
#    0.000    1.538    0.000    0.000    0.000    0.000 
#    0.000    0.000    0.000    0.000    0.000    0.000 
#
# Total GULP energy -644458.367311 kJ/mol
# GULP energy per Si atom -12393.430141 kJ/mol
# Density = 2.201444 g / cm^3
# Si number density = 22.064659 Si / 1000 Ang^3
#
#
#
# Elastic Constant Matrix: (Units=GPa)
#
#
# Indices 1 2 3 4 5 6 
#
# 1 71.6913 29.3511 31.1308 0.0000 0.0000 0.0000
# 2 29.3511 127.1487 44.7887 0.0000 0.0000 0.0000
# 3 31.1308 44.7887 85.0884 0.0000 0.0000 0.0000
# 4 0.0000 0.0000 0.0000 37.4066 0.0000 0.0000
# 5 0.0000 0.0000 0.0000 0.0000 30.7787 0.0000
# 6 0.0000 0.0000 0.0000 0.0000 0.0000 27.2421
#
#
#
# Elastic Compliance Matrix: (Units=1/GPa)
#
#
# Indices 1 2 3 4 5 6 
#
# 1 0.017042 -0.002133 -0.005112 0.000000 0.000000 0.000000
# 2 -0.002133 0.009922 -0.004442 0.000000 0.000000 0.000000
# 3 -0.005112 -0.004442 0.015961 0.000000 0.000000 0.000000
# 4 0.000000 0.000000 0.000000 0.026733 0.000000 0.000000
# 5 0.000000 0.000000 0.000000 0.000000 0.032490 0.000000
# 6 0.000000 0.000000 0.000000 0.000000 0.000000 0.036708
#
#
# Mechanical properties :
#
#
# Convention : Reuss Voigt Hill
#
# Bulk Modulus (GPa) = 51.15129 54.94106 53.04617
# Shear Modulus (GPa) = 29.62994 30.99600 30.31297
#
# Velocity S-wave (km/s) = 3.66849 3.75211 3.71054
# Velocity P-wave (km/s) = 6.41690 6.61250 6.51543
#
# Compressibility (1/GPa) = 0.01954985
#
# Stress axis : x y z
#
# Youngs Moduli (GPa) = 58.67881 100.78553 62.65200
#
# Poissons Ratio (x) = 0.21499 0.32029
# Poissons Ratio (y) = 0.12517 0.27832
# Poissons Ratio (z) = 0.29998 0.44772
#
# Static dielectric constant tensor:
#      x y z
#    x 4.007150 0.000000 0.000000 
#    y 0.000000 4.103110 0.000000 
#    z 0.000000 0.000000 3.757090 
# 
# 
# High freq. dielectric constant tensor:
#      x y z
#    x 1.871910 0.000000 0.000000 
#    y 0.000000 1.870530 0.000000 
#    z 0.000000 0.000000 1.857970 
# 
# From -- ./inp_files/36630.got.cif
#   From: 2010.03.12/outbox.cif.g09.slc.cpg/sg68_19_cif.got.tgz:36630.got - 2010.04.10 23:14:56.
