data_PCOD8283341
_publ_section_title
;
Structure prediction by ZEFSAII (Michael W. Deem and Ramdas Pophale) SiO2 
 PCOD8283341
Probable space group: C C C A
;
_chemical_formula_sum "Si O2"
_cell_formula_units_Z 104
_cell_length_a 19.427951
_cell_length_b 19.653762
_cell_length_c 13.775629
_cell_angle_alpha 90.000000
_cell_angle_beta 90.000000
_cell_angle_gamma 90.000000
_cell_volume 5259.980451
_symmetry_space_group_name_H-M "C C C A"
_symmetry_group_IT_number 68
_space_group.IT_coordinate_system_code '2'
_symmetry_cell_setting 'orthorhombic'
loop_
_space_group_symop_operation_xyz
x,y,z
-x,1/2-y,z
x,1/2-y,1/2-z
-x,y,1/2-z
-x,-y,-z
x,1/2+y,-z
-x,1/2+y,1/2+z
x,-y,1/2+z
1/2+x,1/2+y,z
1/2-x,-y,z
1/2+x,-y,1/2-z
1/2-x,1/2+y,1/2-z
1/2-x,1/2-y,-z
1/2+x,y,-z
1/2-x,y,1/2+z
1/2+x,1/2-y,1/2+z
loop_
_atom_site_type_symbol
_atom_site_label
_atom_site_fract_x
_atom_site_fract_y
_atom_site_fract_z
Si Si1 0.325937 0.495661 0.095938
Si Si2 0.998847 0.669867 0.859945
Si Si3 0.848470 0.349013 0.396711
Si Si4 0.227604 0.344867 0.909143
Si Si5 0.125646 0.915772 0.576603
Si Si6 0.279258 0.250000 0.750000
Si Si7 0.676618 0.530648 0.692910
O O1 0.250000 0.500000 0.047678
O O2 0.339361 0.572389 0.127278
O O3 0.329660 0.450785 0.193797
O O4 0.378363 0.459993 0.022496
O O5 0.061997 0.635816 0.917907
O O6 0.000000 0.750000 0.858760
O O7 0.000000 0.641161 0.750000
O O8 0.929244 0.654547 0.918104
O O9 0.803260 0.321085 0.487256
O O10 0.828307 0.306603 0.300001
O O11 0.305084 0.371482 0.922495
O O12 0.230338 0.283368 0.831793
O O13 0.172590 0.400461 0.869892
O O14 0.121311 0.973237 0.661017
O O15 0.750000 0.500000 0.668652
#
# Coordination Sequence:
#
# PCOD8283341 Si02
#       7
#    16  16  16  16  16   8  16
#     4  11  19  36  63  93 127 161 201 265 323 374
#     4  11  24  42  62  90 130 168 208 261 317 375
#     4  12  23  41  63  95 126 164 216 264 317 383
#     4  11  22  39  61  96 127 164 213 261 320 380
#     4  11  20  38  64  91 125 166 207 261 322 372
#     4  12  24  38  63  94 131 168 212 270 320 386
#     4   9  18  34  58  90 126 159 203 256 317 375
#
# _framework density 19.771937000000001
#
# number of rings (size 3 to 8) (size 9 to 14) (size 15 to 20)
#    0.000    1.077    3.077    7.385    0.000    0.615 
#    0.000    0.000    0.000    0.000    0.000    0.000 
#    0.000    0.000    0.000    0.000    0.000    0.000 
#
# Total GULP energy -644578.003174 kJ/mol
# GULP energy per Si atom -12395.730830 kJ/mol
# Density = 1.972693 g / cm^3
# Si number density = 19.771937 Si / 1000 Ang^3
#
#
#
# Elastic Constant Matrix: (Units=GPa)
#
#
# Indices 1 2 3 4 5 6 
#
# 1 110.1683 39.9411 40.7002 0.0000 0.0000 0.0000
# 2 39.9411 95.2302 38.6650 0.0000 0.0000 0.0000
# 3 40.7002 38.6650 120.4377 0.0000 0.0000 0.0000
# 4 0.0000 0.0000 0.0000 49.3213 0.0000 0.0000
# 5 0.0000 0.0000 0.0000 0.0000 21.9461 0.0000
# 6 0.0000 0.0000 0.0000 0.0000 0.0000 32.8111
#
#
#
# Elastic Compliance Matrix: (Units=1/GPa)
#
#
# Indices 1 2 3 4 5 6 
#
# 1 0.011403 -0.003700 -0.002666 0.000000 0.000000 0.000000
# 2 -0.003700 0.013276 -0.003011 0.000000 0.000000 0.000000
# 3 -0.002666 -0.003011 0.010171 0.000000 0.000000 0.000000
# 4 0.000000 0.000000 0.000000 0.020275 0.000000 0.000000
# 5 0.000000 0.000000 0.000000 0.000000 0.045566 0.000000
# 6 0.000000 0.000000 0.000000 0.000000 0.000000 0.030478
#
#
# Mechanical properties :
#
#
# Convention : Reuss Voigt Hill
#
# Bulk Modulus (GPa) = 62.13281 62.71652 62.42466
# Shear Modulus (GPa) = 32.19812 34.58435 33.39124
#
# Velocity S-wave (km/s) = 4.03982 4.18684 4.11398
# Velocity P-wave (km/s) = 7.29747 7.42709 7.36257
#
# Compressibility (1/GPa) = 0.01609456
#
# Stress axis : x y z
#
# Youngs Moduli (GPa) = 87.69322 75.32611 98.32227
#
# Poissons Ratio (x) = 0.27874 0.26209
# Poissons Ratio (y) = 0.32451 0.29609
# Poissons Ratio (z) = 0.23376 0.22684
#
# Static dielectric constant tensor:
#      x y z
#    x 3.206270 0.000000 0.000000 
#    y 0.000000 3.650020 0.000000 
#    z 0.000000 0.000000 3.691240 
# 
# 
# High freq. dielectric constant tensor:
#      x y z
#    x 1.731480 0.000000 0.000000 
#    y 0.000000 1.778080 0.000000 
#    z 0.000000 0.000000 1.780100 
# 
# From -- ./inp_files/24644.got.cif
#   From: 2010.03.12/outbox.cif.g09.slc.cpg/sg68_13_cif.got.tgz:24644.got - 2010.04.10 23:14:56.
