data_PCOD8283026
_publ_section_title
;
Structure prediction by ZEFSAII (Michael W. Deem and Ramdas Pophale) SiO2 
 PCOD8283026
Probable space group: C C C A
;
_chemical_formula_sum "Si O2"
_cell_formula_units_Z 112
_cell_length_a 24.685171
_cell_length_b 13.060912
_cell_length_c 16.791658
_cell_angle_alpha 90.000000
_cell_angle_beta 90.000000
_cell_angle_gamma 90.000000
_cell_volume 5413.812664
_symmetry_space_group_name_H-M "C C C A"
_symmetry_group_IT_number 68
_space_group.IT_coordinate_system_code '2'
_symmetry_cell_setting 'orthorhombic'
loop_
_space_group_symop_operation_xyz
x,y,z
-x,1/2-y,z
x,1/2-y,1/2-z
-x,y,1/2-z
-x,-y,-z
x,1/2+y,-z
-x,1/2+y,1/2+z
x,-y,1/2+z
1/2+x,1/2+y,z
1/2-x,-y,z
1/2+x,-y,1/2-z
1/2-x,1/2+y,1/2-z
1/2-x,1/2-y,-z
1/2+x,y,-z
1/2-x,y,1/2+z
1/2+x,1/2-y,1/2+z
loop_
_atom_site_type_symbol
_atom_site_label
_atom_site_fract_x
_atom_site_fract_y
_atom_site_fract_z
Si Si1 0.399668 0.521134 0.896954
Si Si2 0.493913 0.440681 0.660194
Si Si3 0.309960 0.462863 0.106994
Si Si4 0.898174 0.128028 0.055234
Si Si5 0.046064 0.336402 0.627091
Si Si6 0.629702 0.343714 0.507319
Si Si7 0.857766 0.857032 0.243946
O O1 0.446827 0.439505 0.877544
O O2 0.357563 0.439331 0.933380
O O3 0.376447 0.587363 0.824752
O O4 0.417730 0.602349 0.965140
O O5 0.500000 0.399226 0.750000
O O6 0.450671 0.370634 0.612792
O O7 0.478665 0.558850 0.658100
O O8 0.250000 0.500000 0.089636
O O9 0.354472 0.547236 0.084986
O O10 0.319327 0.438875 0.200012
O O11 0.322043 0.357849 0.057691
O O12 0.868072 0.237482 0.054972
O O13 0.071644 0.351027 0.538879
O O14 0.092202 0.313926 0.691411
O O15 0.000000 0.250000 0.627493
O O16 0.824096 0.750000 0.250000
#
# Coordination Sequence:
#
# PCOD8283026 Si02
#       7
#    16  16  16  16  16  16  16
#     4  11  21  36  59  87 130 161 203 260 305 375
#     4  12  21  36  56  86 130 172 207 244 310 381
#     4  10  22  45  66  85 120 162 208 276 335 378
#     4  11  22  40  61  89 126 162 213 263 313 389
#     4  11  21  34  57  88 124 167 205 247 305 375
#     4  10  23  39  60  92 120 164 213 257 319 383
#     4  11  21  39  60  92 123 156 211 260 320 387
#
# _framework density 20.687823999999999
#
# number of rings (size 3 to 8) (size 9 to 14) (size 15 to 20)
#    0.000    1.143    5.714    3.857    2.000    0.571 
#    0.000    7.857    0.000    0.000    0.000    0.000 
#    0.000    0.000    0.000    0.000    0.000    0.000 
#
# Total GULP energy -693871.200824 kJ/mol
# GULP energy per Si atom -12390.557158 kJ/mol
# Density = 2.064074 g / cm^3
# Si number density = 20.687824 Si / 1000 Ang^3
#
#
#
# Elastic Constant Matrix: (Units=GPa)
#
#
# Indices 1 2 3 4 5 6 
#
# 1 71.8535 13.2949 37.5554 0.0000 0.0000 0.0000
# 2 13.2949 105.3916 56.6613 0.0000 0.0000 0.0000
# 3 37.5554 56.6613 128.8866 0.0000 0.0000 0.0000
# 4 0.0000 0.0000 0.0000 1.4196 0.0000 0.0000
# 5 0.0000 0.0000 0.0000 0.0000 14.0825 0.0000
# 6 0.0000 0.0000 0.0000 0.0000 0.0000 26.1503
#
#
#
# Elastic Compliance Matrix: (Units=1/GPa)
#
#
# Indices 1 2 3 4 5 6 
#
# 1 0.016452 0.000657 -0.005083 0.000000 0.000000 0.000000
# 2 0.000657 0.012451 -0.005665 0.000000 0.000000 0.000000
# 3 -0.005083 -0.005665 0.011730 0.000000 0.000000 0.000000
# 4 0.000000 0.000000 0.000000 0.704447 0.000000 0.000000
# 5 0.000000 0.000000 0.000000 0.000000 0.071010 0.000000
# 6 0.000000 0.000000 0.000000 0.000000 0.000000 0.038240
#
#
# Mechanical properties :
#
#
# Convention : Reuss Voigt Hill
#
# Bulk Modulus (GPa) = 48.89480 57.90611 53.40046
# Shear Modulus (GPa) = 5.67324 21.57181 13.62252
#
# Velocity S-wave (km/s) = 1.65779 3.23264 2.56887
# Velocity P-wave (km/s) = 5.22975 6.47954 5.88790
#
# Compressibility (1/GPa) = 0.02045207
#
# Stress axis : x y z
#
# Youngs Moduli (GPa) = 60.78200 80.31232 85.24815
#
# Poissons Ratio (x) = -0.05279 0.43330
# Poissons Ratio (y) = -0.03995 0.48297
# Poissons Ratio (z) = 0.30895 0.45500
#
# Static dielectric constant tensor:
#      x y z
#    x 3.558360 0.000000 0.000000 
#    y 0.000000 3.779020 0.000000 
#    z 0.000000 0.000000 4.121480 
# 
# 
# High freq. dielectric constant tensor:
#      x y z
#    x 1.764590 0.000000 0.000000 
#    y 0.000000 1.815010 0.000000 
#    z 0.000000 0.000000 1.821360 
# 
# From -- ./inp_files/26083.got.cif
#   From: 2010.03.12/outbox.cif.g09.slc.cpg/sg68_14_cif.got.tgz:26083.got - 2010.04.10 23:14:56.
