data_PCOD8283833
_publ_section_title
;
Structure prediction by ZEFSAII (Michael W. Deem and Ramdas Pophale) SiO2 
 PCOD8283833
Probable space group: F M M M
;
_chemical_formula_sum "Si O2"
_cell_formula_units_Z 128
_cell_length_a 23.890659
_cell_length_b 30.917028
_cell_length_c 8.738174
_cell_angle_alpha 90.000000
_cell_angle_beta 90.000000
_cell_angle_gamma 90.000000
_cell_volume 6454.261499
_symmetry_space_group_name_H-M "F M M M"
_symmetry_group_IT_number 69
_symmetry_cell_setting 'orthorhombic'
loop_
_space_group_symop_operation_xyz
x,y,z
-x,-y,z
x,-y,-z
-x,y,-z
-x,-y,-z
x,y,-z
-x,y,z
x,-y,z
x,1/2+y,1/2+z
-x,1/2-y,1/2+z
x,1/2-y,1/2-z
-x,1/2+y,1/2-z
-x,1/2-y,1/2-z
x,1/2+y,1/2-z
-x,1/2+y,1/2+z
x,1/2-y,1/2+z
1/2+x,y,1/2+z
1/2-x,-y,1/2+z
1/2+x,-y,1/2-z
1/2-x,y,1/2-z
1/2-x,-y,1/2-z
1/2+x,y,1/2-z
1/2-x,y,1/2+z
1/2+x,-y,1/2+z
1/2+x,1/2+y,z
1/2-x,1/2-y,z
1/2+x,1/2-y,-z
1/2-x,1/2+y,-z
1/2-x,1/2-y,-z
1/2+x,1/2+y,-z
1/2-x,1/2+y,z
1/2+x,1/2-y,z
loop_
_atom_site_type_symbol
_atom_site_label
_atom_site_fract_x
_atom_site_fract_y
_atom_site_fract_z
Si Si1 0.500000 0.672325 0.172882
Si Si2 0.883174 0.048009 0.682065
Si Si3 0.000000 0.918102 0.320400
Si Si4 0.620686 0.205226 0.322594
Si Si5 0.189137 0.372398 0.818677
O O1 0.500000 0.632691 0.288982
O O2 0.445842 0.701723 0.202228
O O3 0.500000 0.653868 0.000000
O O4 0.885900 0.049748 0.500000
O O5 0.944346 0.059957 0.750117
O O6 0.837527 0.082474 0.741325
O O7 0.866217 0.000000 0.739371
O O8 0.000000 0.925427 0.500000
O O9 0.637608 0.203986 0.500000
O O10 0.641735 0.250000 0.250000
O O11 0.650304 0.166346 0.235736
O O12 0.250000 0.367083 0.750000
O O13 0.192927 0.371381 0.000000
#
# Coordination Sequence:
#
# PCOD8283833 Si02
#       5
#    16  32  16  32  32
#     4  10  21  36  58  88 124 155 184 232 292 349
#     4   9  18  33  57  89 120 152 193 240 289 343
#     4  10  17  31  59  89 117 153 194 236 284 347
#     4  11  23  40  62  89 120 154 192 237 290 349
#     4  11  23  40  61  85 116 155 200 247 293 343
#
# _framework density 19.831859000000001
#
# number of rings (size 3 to 8) (size 9 to 14) (size 15 to 20)
#    0.000    1.750    2.500    2.250    0.000    3.500 
#    0.000    2.500    0.000    6.750    0.000    0.000 
#    0.000    0.000    0.000    0.000    0.000    0.000 
#
# Total GULP energy -396839.813252 kJ/mol
# GULP energy per Si atom -12401.244164 kJ/mol
# Density = 1.978672 g / cm^3
# Si number density = 19.831859 Si / 1000 Ang^3
#
#
#
# Elastic Constant Matrix: (Units=GPa)
#
#
# Indices 1 2 3 4 5 6 
#
# 1 108.0907 35.0773 36.3835 0.0106 -0.0256 -0.0084
# 2 35.0773 143.7567 34.6222 0.0057 -0.0042 -0.0045
# 3 36.3835 34.6222 56.0193 0.0201 -0.0785 -0.0031
# 4 0.0106 0.0057 0.0201 24.5603 -0.0132 -0.0006
# 5 -0.0256 -0.0042 -0.0785 -0.0132 16.1082 0.0003
# 6 -0.0084 -0.0045 -0.0031 -0.0006 0.0003 9.3621
#
#
#
# Elastic Compliance Matrix: (Units=1/GPa)
#
#
# Indices 1 2 3 4 5 6 
#
# 1 0.012024 -0.001237 -0.007045 0.000001 -0.000016 0.000008
# 2 -0.001237 0.008300 -0.004326 0.000002 -0.000021 0.000001
# 3 -0.007045 -0.004326 0.025100 -0.000016 0.000110 0.000000
# 4 0.000001 0.000002 -0.000016 0.040716 0.000033 0.000002
# 5 -0.000016 -0.000021 0.000110 0.000033 0.062081 -0.000002
# 6 0.000008 0.000001 0.000000 0.000002 -0.000002 0.106814
#
#
# Mechanical properties :
#
#
# Convention : Reuss Voigt Hill
#
# Bulk Modulus (GPa) = 49.48527 57.78141 53.63334
# Shear Modulus (GPa) = 17.42230 23.45835 20.44033
#
# Velocity S-wave (km/s) = 2.96717 3.44301 3.21391
# Velocity P-wave (km/s) = 6.06179 6.70855 6.39336
#
# Compressibility (1/GPa) = 0.02020803
#
# Stress axis : x y z
#
# Youngs Moduli (GPa) = 83.16465 120.48165 39.83995
#
# Poissons Ratio (x) = 0.14907 0.28067
# Poissons Ratio (y) = 0.10290 0.17235
# Poissons Ratio (z) = 0.58589 0.52122
#
# Static dielectric constant tensor:
#      x y z
#    x 3.730910 0.000010 0.000050 
#    y 0.000010 3.719660 -0.000010 
#    z 0.000050 -0.000010 3.395790 
# 
# 
# High freq. dielectric constant tensor:
#      x y z
#    x 1.776530 0.000000 0.000000 
#    y 0.000000 1.784510 0.000000 
#    z 0.000000 0.000000 1.749650 
# 
# From -- ./inp_files/4821.got.cif
#   From: 2010.03.12/outbox.cif.g09.slc.cpg/sg69_3_cif.got.tgz:4821.got - 2010.04.10 23:52:46.
