data_PCOD8283175
_publ_section_title
;
Structure prediction by ZEFSAII (Michael W. Deem and Ramdas Pophale) SiO2 
 PCOD8283175
Probable space group: C C C A
;
_chemical_formula_sum "Si O2"
_cell_formula_units_Z 64
_cell_length_a 25.097083
_cell_length_b 7.319241
_cell_length_c 16.295178
_cell_angle_alpha 90.000000
_cell_angle_beta 90.000000
_cell_angle_gamma 90.000000
_cell_volume 2993.287301
_symmetry_space_group_name_H-M "C C C A"
_symmetry_group_IT_number 68
_space_group.IT_coordinate_system_code '2'
_symmetry_cell_setting 'orthorhombic'
loop_
_space_group_symop_operation_xyz
x,y,z
-x,1/2-y,z
x,1/2-y,1/2-z
-x,y,1/2-z
-x,-y,-z
x,1/2+y,-z
-x,1/2+y,1/2+z
x,-y,1/2+z
1/2+x,1/2+y,z
1/2-x,-y,z
1/2+x,-y,1/2-z
1/2-x,1/2+y,1/2-z
1/2-x,1/2-y,-z
1/2+x,y,-z
1/2-x,y,1/2+z
1/2+x,1/2-y,1/2+z
loop_
_atom_site_type_symbol
_atom_site_label
_atom_site_fract_x
_atom_site_fract_y
_atom_site_fract_z
Si Si1 0.863690 0.961573 0.437365
Si Si2 0.306839 0.250000 0.750000
Si Si3 0.117598 0.636294 0.618034
Si Si4 0.941676 0.303047 0.844118
Si Si5 0.750000 0.000000 0.370056
O O1 0.889273 0.147373 0.399288
O O2 0.863796 0.962787 0.535294
O O3 0.897070 0.796604 0.398774
O O4 0.800877 0.936798 0.422003
O O5 0.342885 0.389623 0.696090
O O6 0.267268 0.164591 0.685890
O O7 0.064720 0.523586 0.645210
O O8 0.934418 0.250000 0.750000
O O9 0.000000 0.250000 0.877083
#
# Coordination Sequence:
#
# PCOD8283175 Si02
#       5
#    16   8  16  16   8
#     4  11  24  43  66 100 135 172 221 275 331 398
#     4  10  24  38  66  99 135 176 220 272 328 400
#     4  11  23  45  65 100 135 172 222 276 330 395
#     4  11  25  45  71  96 130 178 220 277 340 396
#     4  10  24  38  64 102 126 184 212 270 334 394
#
# _framework density 21.381177000000001
#
# number of rings (size 3 to 8) (size 9 to 14) (size 15 to 20)
#    0.000    1.250    2.500    3.000    5.250    7.000 
#    0.000    2.500    0.000    0.000    0.000    0.000 
#    0.000    0.000    0.000    0.000    0.000    0.000 
#
# Total GULP energy -396474.609151 kJ/mol
# GULP energy per Si atom -12389.831536 kJ/mol
# Density = 2.133251 g / cm^3
# Si number density = 21.381177 Si / 1000 Ang^3
#
#
#
# Elastic Constant Matrix: (Units=GPa)
#
#
# Indices 1 2 3 4 5 6 
#
# 1 143.3880 49.7115 46.3126 0.0000 0.0000 0.0000
# 2 49.7115 101.3611 21.0068 0.0000 0.0000 0.0000
# 3 46.3126 21.0068 124.1417 0.0000 0.0000 0.0000
# 4 0.0000 0.0000 0.0000 -92.1231 0.0000 0.0000
# 5 0.0000 0.0000 0.0000 0.0000 19.7115 0.0000
# 6 0.0000 0.0000 0.0000 0.0000 0.0000 41.2523
#
#
#
# Elastic Compliance Matrix: (Units=1/GPa)
#
#
# Indices 1 2 3 4 5 6 
#
# 1 0.009244 -0.003958 -0.002779 0.000000 0.000000 0.000000
# 2 -0.003958 0.011919 -0.000540 0.000000 0.000000 0.000000
# 3 -0.002779 -0.000540 0.009183 0.000000 0.000000 0.000000
# 4 0.000000 0.000000 0.000000 -0.010855 0.000000 0.000000
# 5 0.000000 0.000000 0.000000 0.000000 0.050732 0.000000
# 6 0.000000 0.000000 0.000000 0.000000 0.000000 0.024241
#
#
# Mechanical properties :
#
#
# Convention : Reuss Voigt Hill
#
# Bulk Modulus (GPa) = 63.32229 66.99474 65.15851
# Shear Modulus (GPa) = 43.75178 10.55881 27.15529
#
# Velocity S-wave (km/s) = 4.52849 2.22465 3.56765
# Velocity P-wave (km/s) = 7.55136 6.16444 6.89287
#
# Compressibility (1/GPa) = 0.01579223
#
# Stress axis : x y z
#
# Youngs Moduli (GPa) = 108.18244 83.90213 108.89199
#
# Poissons Ratio (x) = 0.33205 0.30259
# Poissons Ratio (y) = 0.42814 0.05885
# Poissons Ratio (z) = 0.30061 0.04534
#
# Static dielectric constant tensor:
#      x y z
#    x 5.153590 0.000000 0.000000 
#    y 0.000000 3.903950 0.000000 
#    z 0.000000 0.000000 4.214880 
# 
# 
# High freq. dielectric constant tensor:
#      x y z
#    x 1.824130 0.000000 0.000000 
#    y 0.000000 1.841510 0.000000 
#    z 0.000000 0.000000 1.863500 
# 
# From -- ./inp_files/33393.got.cif
#   From: 2010.03.12/outbox.cif.g09.slc.cpg/sg68_17_cif.got.tgz:33393.got - 2010.04.10 23:14:56.
