data_PCOD8283785
_publ_section_title
;
Structure prediction by ZEFSAII (Michael W. Deem and Ramdas Pophale) SiO2 
 PCOD8283785
Probable space group: F M M M
;
_chemical_formula_sum "Si O2"
_cell_formula_units_Z 136
_cell_length_a 14.001475
_cell_length_b 22.229045
_cell_length_c 25.713805
_cell_angle_alpha 90.000000
_cell_angle_beta 90.000000
_cell_angle_gamma 90.000000
_cell_volume 8003.149699
_symmetry_space_group_name_H-M "F M M M"
_symmetry_group_IT_number 69
_symmetry_cell_setting 'orthorhombic'
loop_
_space_group_symop_operation_xyz
x,y,z
-x,-y,z
x,-y,-z
-x,y,-z
-x,-y,-z
x,y,-z
-x,y,z
x,-y,z
x,1/2+y,1/2+z
-x,1/2-y,1/2+z
x,1/2-y,1/2-z
-x,1/2+y,1/2-z
-x,1/2-y,1/2-z
x,1/2+y,1/2-z
-x,1/2+y,1/2+z
x,1/2-y,1/2+z
1/2+x,y,1/2+z
1/2-x,-y,1/2+z
1/2+x,-y,1/2-z
1/2-x,y,1/2-z
1/2-x,-y,1/2-z
1/2+x,y,1/2-z
1/2-x,y,1/2+z
1/2+x,-y,1/2+z
1/2+x,1/2+y,z
1/2-x,1/2-y,z
1/2+x,1/2-y,-z
1/2-x,1/2+y,-z
1/2-x,1/2-y,-z
1/2+x,1/2+y,-z
1/2-x,1/2+y,z
1/2+x,1/2-y,z
loop_
_atom_site_type_symbol
_atom_site_label
_atom_site_fract_x
_atom_site_fract_y
_atom_site_fract_z
Si Si1 0.750000 0.250000 0.250000
Si Si2 0.703845 0.825822 0.657005
Si Si3 0.106954 0.782857 0.388335
Si Si4 0.861406 0.256243 0.000000
Si Si5 0.894711 0.118474 0.000000
Si Si6 0.887179 0.430946 0.607618
O O1 0.687568 0.205170 0.286418
O O2 0.816869 0.824785 0.642063
O O3 0.641015 0.786586 0.616778
O O4 0.664818 0.893724 0.653992
O O5 0.105047 0.794836 0.450158
O O6 0.000000 0.793261 0.365645
O O7 0.750000 0.250000 0.000000
O O8 0.905712 0.189963 0.000000
O O9 0.844752 0.093050 0.052413
O O10 0.000000 0.089392 0.000000
O O11 0.858958 0.500000 0.615261
O O12 0.000000 0.420571 0.611928
#
# Coordination Sequence:
#
# PCOD8283785 Si02
#       6
#     8  32  32  16  16  32
#     4   8  20  36  52  70  92 122 156 210 254 290
#     4  10  19  34  49  69  96 124 162 199 249 289
#     4  10  18  28  46  70 100 128 156 195 238 290
#     4  12  16  25  41  72 101 133 158 186 233 285
#     4  10  17  26  42  68 103 131 153 181 223 280
#     4  10  19  31  49  73 101 131 160 193 235 286
#
# _framework density 16.993310000000001
#
# number of rings (size 3 to 8) (size 9 to 14) (size 15 to 20)
#    0.000    2.118    4.706    2.118    0.000    1.412 
#    0.000   15.294    0.000    0.706    0.000    0.000 
#    0.000    5.647    0.000    0.000    0.000    0.000 
#
# Total GULP energy -421326.152434 kJ/mol
# GULP energy per Si atom -12391.945660 kJ/mol
# Density = 1.695463 g / cm^3
# Si number density = 16.993310 Si / 1000 Ang^3
#
#
#
# Elastic Constant Matrix: (Units=GPa)
#
#
# Indices 1 2 3 4 5 6 
#
# 1 102.3884 26.3681 20.0737 0.0000 0.0000 0.0000
# 2 26.3681 99.4840 39.4119 0.0000 0.0000 0.0000
# 3 20.0737 39.4119 97.0245 0.0000 0.0000 0.0000
# 4 0.0000 0.0000 0.0000 16.9836 0.0000 0.0000
# 5 0.0000 0.0000 0.0000 0.0000 10.4588 0.0000
# 6 0.0000 0.0000 0.0000 0.0000 0.0000 23.3792
#
#
#
# Elastic Compliance Matrix: (Units=1/GPa)
#
#
# Indices 1 2 3 4 5 6 
#
# 1 0.010609 -0.002315 -0.001255 0.000000 0.000000 0.000000
# 2 -0.002315 0.012485 -0.004592 0.000000 0.000000 0.000000
# 3 -0.001255 -0.004592 0.012432 0.000000 0.000000 0.000000
# 4 0.000000 0.000000 0.000000 0.058880 0.000000 0.000000
# 5 0.000000 0.000000 0.000000 0.000000 0.095613 0.000000
# 6 0.000000 0.000000 0.000000 0.000000 0.000000 0.042773
#
#
# Mechanical properties :
#
#
# Convention : Reuss Voigt Hill
#
# Bulk Modulus (GPa) = 52.07912 52.28937 52.18425
# Shear Modulus (GPa) = 19.56821 24.36719 21.96770
#
# Velocity S-wave (km/s) = 3.39709 3.79083 3.59935
# Velocity P-wave (km/s) = 6.78972 7.07092 6.93175
#
# Compressibility (1/GPa) = 0.01920155
#
# Stress axis : x y z
#
# Youngs Moduli (GPa) = 94.26096 80.09752 80.43930
#
# Poissons Ratio (x) = 0.18541 0.10092
# Poissons Ratio (y) = 0.21820 0.36941
# Poissons Ratio (z) = 0.11826 0.36785
#
# Static dielectric constant tensor:
#      x y z
#    x 3.085760 0.000000 0.000000 
#    y 0.000000 2.955820 0.000000 
#    z 0.000000 0.000000 3.224370 
# 
# 
# High freq. dielectric constant tensor:
#      x y z
#    x 1.639370 0.000000 0.000000 
#    y 0.000000 1.616650 0.000000 
#    z 0.000000 0.000000 1.648350 
# 
# From -- ./inp_files/35952.got.cif
#   From: 2010.03.12/outbox.cif.g09.slc.cpg/sg69_18_cif.got.tgz:35952.got - 2010.04.10 23:52:46.
