data_PCOD8283362
_publ_section_title
;
Structure prediction by ZEFSAII (Michael W. Deem and Ramdas Pophale) SiO2 
 PCOD8283362
Probable space group: C C C A
;
_chemical_formula_sum "Si O2"
_cell_formula_units_Z 100
_cell_length_a 11.415587
_cell_length_b 28.717522
_cell_length_c 13.654381
_cell_angle_alpha 90.000000
_cell_angle_beta 90.000000
_cell_angle_gamma 90.000000
_cell_volume 4476.279823
_symmetry_space_group_name_H-M "C C C A"
_symmetry_group_IT_number 68
_space_group.IT_coordinate_system_code '2'
_symmetry_cell_setting 'orthorhombic'
loop_
_space_group_symop_operation_xyz
x,y,z
-x,1/2-y,z
x,1/2-y,1/2-z
-x,y,1/2-z
-x,-y,-z
x,1/2+y,-z
-x,1/2+y,1/2+z
x,-y,1/2+z
1/2+x,1/2+y,z
1/2-x,-y,z
1/2+x,-y,1/2-z
1/2-x,1/2+y,1/2-z
1/2-x,1/2-y,-z
1/2+x,y,-z
1/2-x,y,1/2+z
1/2+x,1/2-y,1/2+z
loop_
_atom_site_type_symbol
_atom_site_label
_atom_site_fract_x
_atom_site_fract_y
_atom_site_fract_z
Si Si1 0.000000 0.250000 0.750000
Si Si2 0.944177 0.949796 0.993584
Si Si3 0.380876 0.067015 0.708353
Si Si4 0.922413 0.326649 0.167920
Si Si5 0.162118 0.326540 0.823853
Si Si6 0.401475 0.365360 0.528733
Si Si7 0.798377 0.601261 0.341525
O O1 0.080636 0.281648 0.818511
O O2 0.049401 0.917198 0.957951
O O3 0.851781 0.950691 0.902143
O O4 0.889242 0.928329 0.092456
O O5 0.000000 0.000000 0.000000
O O6 0.500000 0.042897 0.750000
O O7 0.395530 0.122451 0.710518
O O8 0.269711 0.060473 0.780511
O O9 0.792833 0.305090 0.157192
O O10 0.000000 0.299651 0.250000
O O11 0.999948 0.328815 0.068482
O O12 0.141317 0.361122 0.731172
O O13 0.124837 0.356137 0.916999
O O14 0.282409 0.365579 0.590928
#
# Coordination Sequence:
#
# PCOD8283362 Si02
#       7
#     4  16  16  16  16  16  16
#     4  12  28  48  62 104 154 168 212 290 348 416
#     4  11  24  39  59  97 142 178 230 287 344 408
#     4   9  16  38  63  87 123 167 225 284 323 387
#     4   9  16  38  72  95 122 171 232 273 324 405
#     4  11  24  43  70  98 136 183 225 280 347 422
#     4  11  20  41  69  99 129 178 239 277 335 422
#     4  11  20  41  72  93 127 184 230 277 347 401
#
# _framework density 22.339980000000001
#
# number of rings (size 3 to 8) (size 9 to 14) (size 15 to 20)
#    0.000    1.600    6.400    3.840    0.000    0.640 
#    2.880    3.600    0.000    0.000    0.000    0.000 
#    0.000    0.000    0.000    0.000    0.000    0.000 
#
# Total GULP energy -619518.417114 kJ/mol
# GULP energy per Si atom -12390.368342 kJ/mol
# Density = 2.228913 g / cm^3
# Si number density = 22.339980 Si / 1000 Ang^3
#
#
#
# Elastic Constant Matrix: (Units=GPa)
#
#
# Indices 1 2 3 4 5 6 
#
# 1 111.0913 42.5684 46.3544 0.0000 0.0000 0.0000
# 2 42.5684 69.9350 45.0401 0.0000 0.0000 0.0000
# 3 46.3544 45.0401 158.3330 0.0000 0.0000 0.0000
# 4 0.0000 0.0000 0.0000 -0.7487 0.0000 0.0000
# 5 0.0000 0.0000 0.0000 0.0000 49.9551 0.0000
# 6 0.0000 0.0000 0.0000 0.0000 0.0000 19.5903
#
#
#
# Elastic Compliance Matrix: (Units=1/GPa)
#
#
# Indices 1 2 3 4 5 6 
#
# 1 0.012135 -0.006242 -0.001777 0.000000 0.000000 0.000000
# 2 -0.006242 0.020717 -0.004066 0.000000 0.000000 0.000000
# 3 -0.001777 -0.004066 0.007993 0.000000 0.000000 0.000000
# 4 0.000000 0.000000 0.000000 -1.335646 0.000000 0.000000
# 5 0.000000 0.000000 0.000000 0.000000 0.020018 0.000000
# 6 0.000000 0.000000 0.000000 0.000000 0.000000 0.051046
#
#
# Mechanical properties :
#
#
# Convention : Reuss Voigt Hill
#
# Bulk Modulus (GPa) = 59.97043 67.47613 63.72328
# Shear Modulus (GPa) = -4.18757 27.45243 11.63243
#
# Velocity S-wave (km/s) = -1.37060 3.50930 2.28436
# Velocity P-wave (km/s) = 4.93943 6.83301 5.96188
#
# Compressibility (1/GPa) = 0.01667488
#
# Stress axis : x y z
#
# Youngs Moduli (GPa) = 82.40706 48.27006 125.11496
#
# Poissons Ratio (x) = 0.30129 0.22234
# Poissons Ratio (y) = 0.51437 0.50869
# Poissons Ratio (z) = 0.14645 0.19626
#
# Static dielectric constant tensor:
#      x y z
#    x 4.838660 0.000000 0.000000 
#    y 0.000000 3.438540 0.000000 
#    z 0.000000 0.000000 4.273720 
# 
# 
# High freq. dielectric constant tensor:
#      x y z
#    x 1.887990 0.000000 0.000000 
#    y 0.000000 1.822470 0.000000 
#    z 0.000000 0.000000 1.897450 
# 
# From -- ./inp_files/21204.got.cif
#   From: 2010.03.12/outbox.cif.g09.slc.cpg/sg68_11_cif.got.tgz:21204.got - 2010.04.10 23:14:56.
