data_PCOD8283064
_publ_section_title
;
Structure prediction by ZEFSAII (Michael W. Deem and Ramdas Pophale) SiO2 
 PCOD8283064
Probable space group: C C C A
;
_chemical_formula_sum "Si O2"
_cell_formula_units_Z 68
_cell_length_a 22.696092
_cell_length_b 25.052115
_cell_length_c 5.159818
_cell_angle_alpha 90.000000
_cell_angle_beta 90.000000
_cell_angle_gamma 90.000000
_cell_volume 2933.795669
_symmetry_space_group_name_H-M "C C C A"
_symmetry_group_IT_number 68
_space_group.IT_coordinate_system_code '2'
_symmetry_cell_setting 'orthorhombic'
loop_
_space_group_symop_operation_xyz
x,y,z
-x,1/2-y,z
x,1/2-y,1/2-z
-x,y,1/2-z
-x,-y,-z
x,1/2+y,-z
-x,1/2+y,1/2+z
x,-y,1/2+z
1/2+x,1/2+y,z
1/2-x,-y,z
1/2+x,-y,1/2-z
1/2-x,1/2+y,1/2-z
1/2-x,1/2-y,-z
1/2+x,y,-z
1/2-x,y,1/2+z
1/2+x,1/2-y,1/2+z
loop_
_atom_site_type_symbol
_atom_site_label
_atom_site_fract_x
_atom_site_fract_y
_atom_site_fract_z
Si Si1 0.500000 0.750000 0.750000
Si Si2 0.895830 0.608321 0.873856
Si Si3 0.500000 0.035807 0.750000
Si Si4 0.102911 0.675006 0.126375
Si Si5 0.724886 0.560201 0.405328
Si Si6 0.292006 0.750000 0.750000
O O1 0.454177 0.786237 0.918023
O O2 0.880365 0.652686 0.657487
O O3 0.844778 0.564819 0.923893
O O4 0.945232 0.574318 0.738343
O O5 0.915403 0.632562 0.150527
O O6 0.500000 0.000000 0.500000
O O7 0.163124 0.700141 0.239349
O O8 0.750000 0.500000 0.387936
O O9 0.753110 0.590820 0.649116
O O10 0.250000 0.750000 0.500000
#
# Coordination Sequence:
#
# PCOD8283064 Si02
#       6
#     4  16   8  16  16   8
#     4  10  24  48  72  98 140 168 228 270 364 384
#     4  12  25  44  68 100 135 171 241 267 339 403
#     4  12  28  43  70  93 134 181 218 297 338 398
#     4  11  25  43  72 100 132 182 215 288 327 413
#     4  10  23  39  64  90 128 175 220 274 324 386
#     4  11  24  43  68 101 146 173 218 270 350 403
#
# _framework density 23.178166000000001
#
# number of rings (size 3 to 8) (size 9 to 14) (size 15 to 20)
#    0.000    0.941    0.000    5.647    6.588    9.412 
#    0.000    0.000    0.000    0.000    0.000    0.000 
#    0.000    0.000    0.000    0.000    0.000    0.000 
#
# Total GULP energy -421302.597640 kJ/mol
# GULP energy per Si atom -12391.252872 kJ/mol
# Density = 2.312541 g / cm^3
# Si number density = 23.178166 Si / 1000 Ang^3
#
#
#
# Elastic Constant Matrix: (Units=GPa)
#
#
# Indices 1 2 3 4 5 6 
#
# 1 166.5516 45.0580 34.1604 0.0000 0.0000 0.0000
# 2 45.0580 79.1841 24.0042 0.0000 0.0000 0.0000
# 3 34.1604 24.0042 176.8870 0.0000 0.0000 0.0000
# 4 0.0000 0.0000 0.0000 27.4447 0.0000 0.0000
# 5 0.0000 0.0000 0.0000 0.0000 34.0963 0.0000
# 6 0.0000 0.0000 0.0000 0.0000 0.0000 126.1354
#
#
#
# Elastic Compliance Matrix: (Units=1/GPa)
#
#
# Indices 1 2 3 4 5 6 
#
# 1 0.007224 -0.003846 -0.000873 0.000000 0.000000 0.000000
# 2 -0.003846 0.015218 -0.001322 0.000000 0.000000 0.000000
# 3 -0.000873 -0.001322 0.006001 0.000000 0.000000 0.000000
# 4 0.000000 0.000000 0.000000 0.036437 0.000000 0.000000
# 5 0.000000 0.000000 0.000000 0.000000 0.029329 0.000000
# 6 0.000000 0.000000 0.000000 0.000000 0.000000 0.007928
#
#
# Mechanical properties :
#
#
# Convention : Reuss Voigt Hill
#
# Bulk Modulus (GPa) = 61.12331 69.89643 65.50987
# Shear Modulus (GPa) = 41.78056 58.82862 50.30459
#
# Velocity S-wave (km/s) = 4.25029 5.04343 4.66375
# Velocity P-wave (km/s) = 7.10739 8.00853 7.57137
#
# Compressibility (1/GPa) = 0.01636037
#
# Stress axis : x y z
#
# Youngs Moduli (GPa) = 138.43424 65.71145 166.62748
#
# Poissons Ratio (x) = 0.25271 0.14549
# Poissons Ratio (y) = 0.53239 0.22036
# Poissons Ratio (z) = 0.12087 0.08690
#
# Static dielectric constant tensor:
#      x y z
#    x 4.351600 0.000000 0.000000 
#    y 0.000000 4.143570 0.000000 
#    z 0.000000 0.000000 4.775980 
# 
# 
# High freq. dielectric constant tensor:
#      x y z
#    x 1.932400 0.000000 0.000000 
#    y 0.000000 1.905140 0.000000 
#    z 0.000000 0.000000 1.934290 
# 
# From -- ./inp_files/1565.got.cif
#   From: 2010.03.12/outbox.cif.g09.slc.cpg/sg68_1_cif.got.tgz:1565.got - 2010.04.10 23:14:56.
