data_PCOD8283282
_publ_section_title
;
Structure prediction by ZEFSAII (Michael W. Deem and Ramdas Pophale) SiO2 
 PCOD8283282
Probable space group: C C C A
;
_chemical_formula_sum "Si O2"
_cell_formula_units_Z 60
_cell_length_a 11.168303
_cell_length_b 18.643043
_cell_length_c 12.666871
_cell_angle_alpha 90.000000
_cell_angle_beta 90.000000
_cell_angle_gamma 90.000000
_cell_volume 2637.383817
_symmetry_space_group_name_H-M "C C C A"
_symmetry_group_IT_number 68
_space_group.IT_coordinate_system_code '2'
_symmetry_cell_setting 'orthorhombic'
loop_
_space_group_symop_operation_xyz
x,y,z
-x,1/2-y,z
x,1/2-y,1/2-z
-x,y,1/2-z
-x,-y,-z
x,1/2+y,-z
-x,1/2+y,1/2+z
x,-y,1/2+z
1/2+x,1/2+y,z
1/2-x,-y,z
1/2+x,-y,1/2-z
1/2-x,1/2+y,1/2-z
1/2-x,1/2-y,-z
1/2+x,y,-z
1/2-x,y,1/2+z
1/2+x,1/2-y,1/2+z
loop_
_atom_site_type_symbol
_atom_site_label
_atom_site_fract_x
_atom_site_fract_y
_atom_site_fract_z
Si Si1 0.346172 0.061873 0.084062
Si Si2 0.500000 0.984734 0.250000
Si Si3 0.000000 0.250000 0.250000
Si Si4 0.361062 0.333564 0.246787
Si Si5 0.355157 0.373219 0.637584
O O1 0.294379 0.127749 0.154502
O O2 0.250000 0.000000 0.058793
O O3 0.459448 0.030730 0.148469
O O4 0.393132 0.100315 0.978123
O O5 0.387170 0.936494 0.281440
O O6 0.079881 0.200664 0.327868
O O7 0.342285 0.250000 0.250000
O O8 0.500000 0.354811 0.250000
O O9 0.289651 0.362294 0.143456
#
# Coordination Sequence:
#
# PCOD8283282 Si02
#       5
#    16   8   4  16  16
#     4  12  26  43  76 109 147 196 245 314 378 448
#     4  11  24  47  71 108 145 186 246 322 369 450
#     4  10  24  52  74 106 154 196 246 326 358 474
#     4  11  25  47  69 103 152 194 249 311 364 451
#     4  11  25  46  75 104 147 197 254 301 386 442
#
# _framework density 22.749817
#
# number of rings (size 3 to 8) (size 9 to 14) (size 15 to 20)
#    0.000    0.800    5.333    0.800    3.733    5.333 
#    0.000    0.000    0.000    0.000    0.000    0.000 
#    0.000    0.000    0.000    0.000    0.000    0.000 
#
# Total GULP energy -371711.526205 kJ/mol
# GULP energy per Si atom -12390.384207 kJ/mol
# Density = 2.269804 g / cm^3
# Si number density = 22.749817 Si / 1000 Ang^3
#
#
#
# Elastic Constant Matrix: (Units=GPa)
#
#
# Indices 1 2 3 4 5 6 
#
# 1 137.0947 58.2911 57.7765 0.0000 0.0000 0.0000
# 2 58.2911 171.1782 76.1473 0.0000 0.0000 0.0000
# 3 57.7765 76.1473 146.2213 0.0000 0.0000 0.0000
# 4 0.0000 0.0000 0.0000 18.2566 0.0000 0.0000
# 5 0.0000 0.0000 0.0000 0.0000 29.6793 0.0000
# 6 0.0000 0.0000 0.0000 0.0000 0.0000 16.8531
#
#
#
# Elastic Compliance Matrix: (Units=1/GPa)
#
#
# Indices 1 2 3 4 5 6 
#
# 1 0.009241 -0.001982 -0.002619 0.000000 0.000000 0.000000
# 2 -0.001982 0.008028 -0.003398 0.000000 0.000000 0.000000
# 3 -0.002619 -0.003398 0.009643 0.000000 0.000000 0.000000
# 4 0.000000 0.000000 0.000000 0.054775 0.000000 0.000000
# 5 0.000000 0.000000 0.000000 0.000000 0.033694 0.000000
# 6 0.000000 0.000000 0.000000 0.000000 0.000000 0.059336
#
#
# Mechanical properties :
#
#
# Convention : Reuss Voigt Hill
#
# Bulk Modulus (GPa) = 91.61881 93.21380 92.41630
# Shear Modulus (GPa) = 25.72648 30.44308 28.08478
#
# Velocity S-wave (km/s) = 3.36645 3.66207 3.51737
# Velocity P-wave (km/s) = 7.44785 7.67746 7.56352
#
# Compressibility (1/GPa) = 0.01091479
#
# Stress axis : x y z
#
# Youngs Moduli (GPa) = 108.21777 124.56204 103.69764
#
# Poissons Ratio (x) = 0.24682 0.27162
# Poissons Ratio (y) = 0.21443 0.35235
# Poissons Ratio (z) = 0.28346 0.42324
#
# Static dielectric constant tensor:
#      x y z
#    x 4.073620 0.000000 0.000000 
#    y 0.000000 4.475350 0.000000 
#    z 0.000000 0.000000 3.921140 
# 
# 
# High freq. dielectric constant tensor:
#      x y z
#    x 1.893150 0.000000 0.000000 
#    y 0.000000 1.930650 0.000000 
#    z 0.000000 0.000000 1.880060 
# 
# From -- ./inp_files/11566.got.cif
#   From: 2010.03.12/outbox.cif.g09.slc.cpg/sg68_6_cif.got.tgz:11566.got - 2010.04.10 23:14:56.
