data_PCOD8283761
_publ_section_title
;
Structure prediction by ZEFSAII (Michael W. Deem and Ramdas Pophale) SiO2 
 PCOD8283761
Probable space group: F M M M
;
_chemical_formula_sum "Si O2"
_cell_formula_units_Z 112
_cell_length_a 36.474647
_cell_length_b 8.831390
_cell_length_c 19.245307
_cell_angle_alpha 90.000000
_cell_angle_beta 90.000000
_cell_angle_gamma 90.000000
_cell_volume 6199.333563
_symmetry_space_group_name_H-M "F M M M"
_symmetry_group_IT_number 69
_symmetry_cell_setting 'orthorhombic'
loop_
_space_group_symop_operation_xyz
x,y,z
-x,-y,z
x,-y,-z
-x,y,-z
-x,-y,-z
x,y,-z
-x,y,z
x,-y,z
x,1/2+y,1/2+z
-x,1/2-y,1/2+z
x,1/2-y,1/2-z
-x,1/2+y,1/2-z
-x,1/2-y,1/2-z
x,1/2+y,1/2-z
-x,1/2+y,1/2+z
x,1/2-y,1/2+z
1/2+x,y,1/2+z
1/2-x,-y,1/2+z
1/2+x,-y,1/2-z
1/2-x,y,1/2-z
1/2-x,-y,1/2-z
1/2+x,y,1/2-z
1/2-x,y,1/2+z
1/2+x,-y,1/2+z
1/2+x,1/2+y,z
1/2-x,1/2-y,z
1/2+x,1/2-y,-z
1/2-x,1/2+y,-z
1/2-x,1/2-y,-z
1/2+x,1/2+y,-z
1/2-x,1/2+y,z
1/2+x,1/2-y,z
loop_
_atom_site_type_symbol
_atom_site_label
_atom_site_fract_x
_atom_site_fract_y
_atom_site_fract_z
Si Si1 0.348328 0.175812 0.174730
Si Si2 0.570542 0.324981 0.324413
Si Si3 0.287633 0.322764 0.080462
Si Si4 0.000000 0.820629 0.827357
O O1 0.344419 0.250000 0.250000
O O2 0.389267 0.195818 0.141610
O O3 0.321417 0.254309 0.121415
O O4 0.338462 0.000000 0.182566
O O5 0.559977 0.500000 0.316782
O O6 0.573946 0.250000 0.250000
O O7 0.537186 0.240370 0.365535
O O8 0.285623 0.500000 0.094001
O O9 0.250000 0.250000 0.108211
O O10 0.293458 0.282532 0.000000
O O11 0.000000 0.750000 0.750000
O O12 0.000000 0.000000 0.826267
#
# Coordination Sequence:
#
# PCOD8283761 Si02
#       4
#    32  32  32  16
#     4  10  20  33  51  75 103 133 165 204 248 294
#     4   9  16  26  40  61  91 125 159 196 238 283
#     4  10  21  37  56  76  99 128 163 203 245 293
#     4  10  16  22  36  58  87 124 161 196 235 281
#
# _framework density 18.066457
#
# number of rings (size 3 to 8) (size 9 to 14) (size 15 to 20)
#    0.000    2.286    0.000    5.571    0.000    5.714 
#    0.000    2.857    0.000    0.000    0.000    1.000 
#    0.000    8.000    0.000    0.000    0.000    0.000 
#
# Total GULP energy -346981.509779 kJ/mol
# GULP energy per Si atom -12392.196778 kJ/mol
# Density = 1.802534 g / cm^3
# Si number density = 18.066457 Si / 1000 Ang^3
#
#
#
# Elastic Constant Matrix: (Units=GPa)
#
#
# Indices 1 2 3 4 5 6 
#
# 1 174.9877 84.4024 47.8826 0.0000 0.0000 0.0000
# 2 84.4024 142.9400 37.6531 0.0000 0.0000 0.0000
# 3 47.8826 37.6531 35.4663 0.0000 0.0000 0.0000
# 4 0.0000 0.0000 0.0000 21.3982 0.0000 0.0000
# 5 0.0000 0.0000 0.0000 0.0000 -8.5386 0.0000
# 6 0.0000 0.0000 0.0000 0.0000 0.0000 37.2772
#
#
#
# Elastic Compliance Matrix: (Units=1/GPa)
#
#
# Indices 1 2 3 4 5 6 
#
# 1 0.010060 -0.003280 -0.010101 0.000000 0.000000 0.000000
# 2 -0.003280 0.010781 -0.007018 0.000000 0.000000 0.000000
# 3 -0.010101 -0.007018 0.049283 0.000000 0.000000 0.000000
# 4 0.000000 0.000000 0.000000 0.046733 0.000000 0.000000
# 5 0.000000 0.000000 0.000000 0.000000 -0.117116 0.000000
# 6 0.000000 0.000000 0.000000 0.000000 0.000000 0.026826
#
#
# Mechanical properties :
#
#
# Convention : Reuss Voigt Hill
#
# Bulk Modulus (GPa) = 34.09688 77.03001 55.56345
# Shear Modulus (GPa) = 64.81668 22.25776 43.53722
#
# Velocity S-wave (km/s) = 5.99622 3.51378 4.91433
# Velocity P-wave (km/s) = 8.17640 7.69362 7.93868
#
# Compressibility (1/GPa) = 0.02932819
#
# Stress axis : x y z
#
# Youngs Moduli (GPa) = 99.39869 92.75366 20.29094
#
# Poissons Ratio (x) = 0.30421 0.20495
# Poissons Ratio (y) = 0.32601 0.14240
# Poissons Ratio (z) = 1.00398 0.65094
#
# Static dielectric constant tensor:
#      x y z
#    x 4.560470 0.000000 0.000000 
#    y 0.000000 3.529360 0.000000 
#    z 0.000000 0.000000 2.769710 
# 
# 
# High freq. dielectric constant tensor:
#      x y z
#    x 1.732770 0.000000 0.000000 
#    y 0.000000 1.723730 0.000000 
#    z 0.000000 0.000000 1.626410 
# 
# From -- ./inp_files/3990.got.cif
#   From: 2010.03.12/outbox.cif.g09.slc.cpg/sg69_2_cif.got.tgz:3990.got - 2010.04.10 23:52:46.
