data_PCOD8283063
_publ_section_title
;
Structure prediction by ZEFSAII (Michael W. Deem and Ramdas Pophale) SiO2 
 PCOD8283063
Probable space group: C C C A
;
_chemical_formula_sum "Si O2"
_cell_formula_units_Z 84
_cell_length_a 9.475209
_cell_length_b 21.183173
_cell_length_c 20.836861
_cell_angle_alpha 90.000000
_cell_angle_beta 90.000000
_cell_angle_gamma 90.000000
_cell_volume 4182.270378
_symmetry_space_group_name_H-M "C C C A"
_symmetry_group_IT_number 68
_space_group.IT_coordinate_system_code '2'
_symmetry_cell_setting 'orthorhombic'
loop_
_space_group_symop_operation_xyz
x,y,z
-x,1/2-y,z
x,1/2-y,1/2-z
-x,y,1/2-z
-x,-y,-z
x,1/2+y,-z
-x,1/2+y,1/2+z
x,-y,1/2+z
1/2+x,1/2+y,z
1/2-x,-y,z
1/2+x,-y,1/2-z
1/2-x,1/2+y,1/2-z
1/2-x,1/2-y,-z
1/2+x,y,-z
1/2-x,y,1/2+z
1/2+x,1/2-y,1/2+z
loop_
_atom_site_type_symbol
_atom_site_label
_atom_site_fract_x
_atom_site_fract_y
_atom_site_fract_z
Si Si1 0.500000 0.250000 0.750000
Si Si2 0.250000 0.500000 0.500988
Si Si3 0.593274 0.974000 0.187698
Si Si4 0.499123 0.558505 0.577778
Si Si5 0.627328 0.834147 0.142060
Si Si6 0.500000 0.250000 0.965317
Si Si7 0.919337 0.306682 0.912514
O O1 0.406334 0.204481 0.793839
O O2 0.346884 0.546094 0.543977
O O3 0.360247 0.461001 0.459228
O O4 0.500000 0.962747 0.250000
O O5 0.596329 0.908191 0.148879
O O6 0.750000 0.000000 0.204008
O O7 0.505703 0.023798 0.145813
O O8 0.521178 0.632895 0.585059
O O9 0.549787 0.807493 0.079207
O O10 0.790774 0.825396 0.131217
O O11 0.615914 0.218366 0.014231
O O12 0.000000 0.250000 0.875684
#
# Coordination Sequence:
#
# PCOD8283063 Si02
#       7
#     4   8  16  16  16   8  16
#     4  10  24  44  70  92 124 182 226 272 320 394
#     4  10  24  38  68  98 132 174 214 274 342 406
#     4  12  26  47  70  94 134 182 233 282 324 395
#     4  11  23  43  65  99 137 172 219 277 336 400
#     4  11  21  47  66  97 132 172 226 269 332 393
#     4   9  24  35  70 101 132 173 208 268 336 413
#     4  10  23  39  64 101 132 169 208 270 339 392
#
# _framework density 20.084783999999999
#
# number of rings (size 3 to 8) (size 9 to 14) (size 15 to 20)
#    0.571    0.762    3.810    0.571    9.333    0.000 
#    6.857    0.476    0.000    0.000    0.000    0.000 
#    0.000    0.000    0.000    0.000    0.000    0.000 
#
# Total GULP energy -520428.839506 kJ/mol
# GULP energy per Si atom -12391.162845 kJ/mol
# Density = 2.003907 g / cm^3
# Si number density = 20.084784 Si / 1000 Ang^3
#
#
#
# Elastic Constant Matrix: (Units=GPa)
#
#
# Indices 1 2 3 4 5 6 
#
# 1 88.6076 42.7098 33.1379 0.0000 0.0000 0.0000
# 2 42.7098 167.2325 45.8266 0.0000 0.0000 0.0000
# 3 33.1379 45.8266 101.6318 0.0000 0.0000 0.0000
# 4 0.0000 0.0000 0.0000 33.8098 0.0000 0.0000
# 5 0.0000 0.0000 0.0000 0.0000 19.3872 0.0000
# 6 0.0000 0.0000 0.0000 0.0000 0.0000 26.4058
#
#
#
# Elastic Compliance Matrix: (Units=1/GPa)
#
#
# Indices 1 2 3 4 5 6 
#
# 1 0.013785 -0.002612 -0.003317 0.000000 0.000000 0.000000
# 2 -0.002612 0.007318 -0.002448 0.000000 0.000000 0.000000
# 3 -0.003317 -0.002448 0.012025 0.000000 0.000000 0.000000
# 4 0.000000 0.000000 0.000000 0.029577 0.000000 0.000000
# 5 0.000000 0.000000 0.000000 0.000000 0.051580 0.000000
# 6 0.000000 0.000000 0.000000 0.000000 0.000000 0.037870
#
#
# Mechanical properties :
#
#
# Convention : Reuss Voigt Hill
#
# Bulk Modulus (GPa) = 61.07260 66.75783 63.91521
# Shear Modulus (GPa) = 28.67517 31.64042 30.15780
#
# Velocity S-wave (km/s) = 3.78260 3.97336 3.87915
# Velocity P-wave (km/s) = 7.03923 7.37295 7.20802
#
# Compressibility (1/GPa) = 0.01637396
#
# Stress axis : x y z
#
# Youngs Moduli (GPa) = 72.54214 136.65865 83.16115
#
# Poissons Ratio (x) = 0.35690 0.27586
# Poissons Ratio (y) = 0.18945 0.20358
# Poissons Ratio (z) = 0.24063 0.33454
#
# Static dielectric constant tensor:
#      x y z
#    x 3.535550 0.000000 0.000000 
#    y 0.000000 3.879490 0.000000 
#    z 0.000000 0.000000 3.620780 
# 
# 
# High freq. dielectric constant tensor:
#      x y z
#    x 1.773720 0.000000 0.000000 
#    y 0.000000 1.804300 0.000000 
#    z 0.000000 0.000000 1.780580 
# 
# From -- ./inp_files/36243.got.cif
#   From: 2010.03.12/outbox.cif.g09.slc.cpg/sg68_19_cif.got.tgz:36243.got - 2010.04.10 23:14:56.
