data_PCOD8283646
_publ_section_title
;
Structure prediction by ZEFSAII (Michael W. Deem and Ramdas Pophale) SiO2 
 PCOD8283646
Probable space group: C C C A
;
_chemical_formula_sum "Si O2"
_cell_formula_units_Z 64
_cell_length_a 9.304848
_cell_length_b 27.727229
_cell_length_c 9.599424
_cell_angle_alpha 90.000000
_cell_angle_beta 90.000000
_cell_angle_gamma 90.000000
_cell_volume 2476.628846
_symmetry_space_group_name_H-M "C C C A"
_symmetry_group_IT_number 68
_space_group.IT_coordinate_system_code '2'
_symmetry_cell_setting 'orthorhombic'
loop_
_space_group_symop_operation_xyz
x,y,z
-x,1/2-y,z
x,1/2-y,1/2-z
-x,y,1/2-z
-x,-y,-z
x,1/2+y,-z
-x,1/2+y,1/2+z
x,-y,1/2+z
1/2+x,1/2+y,z
1/2-x,-y,z
1/2+x,-y,1/2-z
1/2-x,1/2+y,1/2-z
1/2-x,1/2-y,-z
1/2+x,y,-z
1/2-x,y,1/2+z
1/2+x,1/2-y,1/2+z
loop_
_atom_site_type_symbol
_atom_site_label
_atom_site_fract_x
_atom_site_fract_y
_atom_site_fract_z
Si Si1 0.750000 0.000000 0.163652
Si Si2 0.896712 0.588496 0.475804
Si Si3 0.147675 0.649246 0.412737
Si Si4 0.000000 0.558750 0.750000
Si Si5 0.348984 0.304164 0.696916
O O1 0.648526 0.970177 0.265485
O O2 0.861958 0.965057 0.081420
O O3 0.743656 0.608742 0.515830
O O4 0.005200 0.588487 0.608026
O O5 0.991620 0.624837 0.378079
O O6 0.217143 0.666166 0.266172
O O7 0.146752 0.692892 0.527600
O O8 0.332286 0.250000 0.750000
O O9 0.500000 0.326133 0.750000
#
# Coordination Sequence:
#
# PCOD8283646 Si02
#       5
#     8  16  16   8  16
#     4  12  28  44  70 102 142 198 244 308 366 432
#     4  12  26  46  69 103 146 190 250 297 367 432
#     4  12  25  47  76 107 145 196 244 304 364 449
#     4  12  26  46  66  96 143 188 243 306 366 428
#     4  11  25  49  76 111 151 191 242 311 380 444
#
# _framework density 25.84158
#
# number of rings (size 3 to 8) (size 9 to 14) (size 15 to 20)
#    0.000    0.250    5.000    3.750    3.500    1.000 
#    0.000    1.250    0.000    0.000    0.000    0.000 
#    0.000    0.000    0.000    0.000    0.000    0.000 
#
# Total GULP energy -396512.367020 kJ/mol
# GULP energy per Si atom -12391.011469 kJ/mol
# Density = 2.578276 g / cm^3
# Si number density = 25.841580 Si / 1000 Ang^3
#
#
#
# Elastic Constant Matrix: (Units=GPa)
#
#
# Indices 1 2 3 4 5 6 
#
# 1 127.0553 32.0876 16.2581 0.0000 0.0000 0.0000
# 2 32.0876 95.9317 8.2242 0.0000 0.0000 0.0000
# 3 16.2581 8.2242 88.0245 0.0000 0.0000 0.0000
# 4 0.0000 0.0000 0.0000 8.5114 0.0000 0.0000
# 5 0.0000 0.0000 0.0000 0.0000 36.8768 0.0000
# 6 0.0000 0.0000 0.0000 0.0000 0.0000 47.8133
#
#
#
# Elastic Compliance Matrix: (Units=1/GPa)
#
#
# Indices 1 2 3 4 5 6 
#
# 1 0.008754 -0.002812 -0.001354 0.000000 0.000000 0.000000
# 2 -0.002812 0.011412 -0.000547 0.000000 0.000000 0.000000
# 3 -0.001354 -0.000547 0.011662 0.000000 0.000000 0.000000
# 4 0.000000 0.000000 0.000000 0.117489 0.000000 0.000000
# 5 0.000000 0.000000 0.000000 0.000000 0.027117 0.000000
# 6 0.000000 0.000000 0.000000 0.000000 0.000000 0.020915
#
#
# Mechanical properties :
#
#
# Convention : Reuss Voigt Hill
#
# Bulk Modulus (GPa) = 44.64019 47.12792 45.88406
# Shear Modulus (GPa) = 23.33817 35.60307 29.47062
#
# Velocity S-wave (km/s) = 3.00846 3.71582 3.38070
# Velocity P-wave (km/s) = 5.42032 6.05695 5.74746
#
# Compressibility (1/GPa) = 0.02240134
#
# Stress axis : x y z
#
# Youngs Moduli (GPa) = 114.23309 87.63065 85.75098
#
# Poissons Ratio (x) = 0.24642 0.11612
# Poissons Ratio (y) = 0.32122 0.04689
# Poissons Ratio (z) = 0.15469 0.04792
#
# Static dielectric constant tensor:
#      x y z
#    x 4.925070 0.000000 0.000000 
#    y 0.000000 4.536950 0.000000 
#    z 0.000000 0.000000 4.596920 
# 
# 
# High freq. dielectric constant tensor:
#      x y z
#    x 2.054150 0.000000 0.000000 
#    y 0.000000 2.026250 0.000000 
#    z 0.000000 0.000000 2.035160 
# 
# From -- ./inp_files/10816.got.cif
#   From: 2010.03.12/outbox.cif.g09.slc.cpg/sg68_6_cif.got.tgz:10816.got - 2010.04.10 23:14:56.
