data_PCOD8283412
_publ_section_title
;
Structure prediction by ZEFSAII (Michael W. Deem and Ramdas Pophale) SiO2 
 PCOD8283412
Probable space group: C C C A
;
_chemical_formula_sum "Si O2"
_cell_formula_units_Z 88
_cell_length_a 10.954730
_cell_length_b 24.214462
_cell_length_c 14.270887
_cell_angle_alpha 90.000000
_cell_angle_beta 90.000000
_cell_angle_gamma 90.000000
_cell_volume 3785.536776
_symmetry_space_group_name_H-M "C C C A"
_symmetry_group_IT_number 68
_space_group.IT_coordinate_system_code '2'
_symmetry_cell_setting 'orthorhombic'
loop_
_space_group_symop_operation_xyz
x,y,z
-x,1/2-y,z
x,1/2-y,1/2-z
-x,y,1/2-z
-x,-y,-z
x,1/2+y,-z
-x,1/2+y,1/2+z
x,-y,1/2+z
1/2+x,1/2+y,z
1/2-x,-y,z
1/2+x,-y,1/2-z
1/2-x,1/2+y,1/2-z
1/2-x,1/2-y,-z
1/2+x,y,-z
1/2-x,y,1/2+z
1/2+x,1/2-y,1/2+z
loop_
_atom_site_type_symbol
_atom_site_label
_atom_site_fract_x
_atom_site_fract_y
_atom_site_fract_z
Si Si1 0.866773 0.269675 0.939317
Si Si2 0.862579 0.365182 0.226659
Si Si3 0.279956 0.936513 0.869120
Si Si4 0.252898 0.250000 0.250000
Si Si5 0.742388 0.859763 0.959664
Si Si6 0.491858 0.869358 0.855060
O O1 0.834279 0.238031 0.842821
O O2 0.749836 0.207535 0.990873
O O3 0.892925 0.333412 0.911953
O O4 0.000000 0.250000 0.981544
O O5 0.779002 0.411125 0.275462
O O6 0.829928 0.304050 0.265277
O O7 0.851794 0.370128 0.113591
O O8 0.000000 0.379167 0.250000
O O9 0.427505 0.929798 0.857670
O O10 0.250000 0.000000 0.879518
O O11 0.230430 0.905031 0.960314
O O12 0.620561 0.867123 0.902023
O O13 0.500000 0.845902 0.750000
#
# Coordination Sequence:
#
# PCOD8283412 Si02
#       6
#    16  16  16   8  16  16
#     4  11  23  37  71 109 146 192 239 292 355 439
#     4  12  27  47  71 108 150 186 241 311 374 440
#     4  11  27  49  73 106 141 190 254 310 379 441
#     4  12  22  46  70 106 150 199 239 288 366 448
#     4  11  25  46  73 106 146 192 249 297 368 450
#     4  11  21  45  70 100 144 188 245 297 359 449
#
# _framework density 23.246372999999998
#
# number of rings (size 3 to 8) (size 9 to 14) (size 15 to 20)
#    0.000    0.727    5.455    2.727    5.091    6.545 
#    0.000    0.000    0.000    0.000    0.000    0.000 
#    0.000    0.000    0.000    0.000    0.000    0.000 
#
# Total GULP energy -545428.078526 kJ/mol
# GULP energy per Si atom -12396.092694 kJ/mol
# Density = 2.319346 g / cm^3
# Si number density = 23.246373 Si / 1000 Ang^3
#
#
#
# Elastic Constant Matrix: (Units=GPa)
#
#
# Indices 1 2 3 4 5 6 
#
# 1 124.5226 34.0074 24.0342 0.0000 0.0000 0.0000
# 2 34.0074 161.9069 42.3872 0.0000 0.0000 0.0000
# 3 24.0342 42.3872 125.0417 0.0000 0.0000 0.0000
# 4 0.0000 0.0000 0.0000 33.0271 0.0000 0.0000
# 5 0.0000 0.0000 0.0000 0.0000 -8.1216 0.0000
# 6 0.0000 0.0000 0.0000 0.0000 0.0000 97.3188
#
#
#
# Elastic Compliance Matrix: (Units=1/GPa)
#
#
# Indices 1 2 3 4 5 6 
#
# 1 0.008668 -0.001519 -0.001151 0.000000 0.000000 0.000000
# 2 -0.001519 0.007044 -0.002096 0.000000 0.000000 0.000000
# 3 -0.001151 -0.002096 0.008929 0.000000 0.000000 0.000000
# 4 0.000000 0.000000 0.000000 0.030278 0.000000 0.000000
# 5 0.000000 0.000000 0.000000 0.000000 -0.123129 0.000000
# 6 0.000000 0.000000 0.000000 0.000000 0.000000 0.010276
#
#
# Mechanical properties :
#
#
# Convention : Reuss Voigt Hill
#
# Bulk Modulus (GPa) = 66.18704 68.03654 67.11179
# Shear Modulus (GPa) = -115.29937 45.18102 -35.05917
#
# Velocity S-wave (km/s) = -7.05029 4.41338 -3.88771
# Velocity P-wave (km/s) = 6.14342 7.43651 2.96312
#
# Compressibility (1/GPa) = 0.01510870
#
# Stress axis : x y z
#
# Youngs Moduli (GPa) = 115.37025 141.96086 111.99418
#
# Poissons Ratio (x) = 0.21568 0.12891
# Poissons Ratio (y) = 0.17528 0.23472
# Poissons Ratio (z) = 0.13279 0.29753
#
# Static dielectric constant tensor:
#      x y z
#    x 4.451960 0.000000 0.000000 
#    y 0.000000 4.279170 0.000000 
#    z 0.000000 0.000000 4.859840 
# 
# 
# High freq. dielectric constant tensor:
#      x y z
#    x 1.934420 0.000000 0.000000 
#    y 0.000000 1.912390 0.000000 
#    z 0.000000 0.000000 1.938100 
# 
# From -- ./inp_files/20947.got.cif
#   From: 2010.03.12/outbox.cif.g09.slc.cpg/sg68_11_cif.got.tgz:20947.got - 2010.04.10 23:14:56.
