data_PCOD8283920
_publ_section_title
;
Structure prediction by ZEFSAII (Michael W. Deem and Ramdas Pophale) SiO2 
 PCOD8283920
Probable space group: F M M M
;
_chemical_formula_sum "Si O2"
_cell_formula_units_Z 112
_cell_length_a 24.435421
_cell_length_b 28.800241
_cell_length_c 8.565875
_cell_angle_alpha 90.000000
_cell_angle_beta 90.000000
_cell_angle_gamma 90.000000
_cell_volume 6028.200385
_symmetry_space_group_name_H-M "F M M M"
_symmetry_group_IT_number 69
_symmetry_cell_setting 'orthorhombic'
loop_
_space_group_symop_operation_xyz
x,y,z
-x,-y,z
x,-y,-z
-x,y,-z
-x,-y,-z
x,y,-z
-x,y,z
x,-y,z
x,1/2+y,1/2+z
-x,1/2-y,1/2+z
x,1/2-y,1/2-z
-x,1/2+y,1/2-z
-x,1/2-y,1/2-z
x,1/2+y,1/2-z
-x,1/2+y,1/2+z
x,1/2-y,1/2+z
1/2+x,y,1/2+z
1/2-x,-y,1/2+z
1/2+x,-y,1/2-z
1/2-x,y,1/2-z
1/2-x,-y,1/2-z
1/2+x,y,1/2-z
1/2-x,y,1/2+z
1/2+x,-y,1/2+z
1/2+x,1/2+y,z
1/2-x,1/2-y,z
1/2+x,1/2-y,-z
1/2-x,1/2+y,-z
1/2-x,1/2-y,-z
1/2+x,1/2+y,-z
1/2-x,1/2+y,z
1/2+x,1/2-y,z
loop_
_atom_site_type_symbol
_atom_site_label
_atom_site_fract_x
_atom_site_fract_y
_atom_site_fract_z
Si Si1 0.000000 0.801407 0.314533
Si Si2 0.085002 0.370996 0.685251
Si Si3 0.500000 0.447556 0.184574
Si Si4 0.689460 0.000000 0.685043
Si Si5 0.310132 0.594718 0.316277
O O1 0.000000 0.750000 0.250000
O O2 0.946133 0.826453 0.250116
O O3 0.000000 0.801912 0.500000
O O4 0.088962 0.367670 0.500000
O O5 0.145675 0.367625 0.760226
O O6 0.053491 0.418331 0.737337
O O7 0.500000 0.500000 0.257715
O O8 0.500000 0.452259 0.000000
O O9 0.750000 0.000000 0.750000
O O10 0.663006 0.046915 0.750359
O O11 0.686877 0.000000 0.500000
O O12 0.304676 0.592489 0.500000
O O13 0.250000 0.605949 0.250000
#
# Coordination Sequence:
#
# PCOD8283920 Si02
#       5
#    16  32  16  16  32
#     4  11  22  40  64  88 113 142 181 232 284 337
#     4  10  20  35  56  83 113 146 187 230 280 336
#     4   8  16  30  49  75 106 144 183 222 270 324
#     4  10  18  30  46  67  98 143 192 234 271 316
#     4  11  21  34  51  76 110 149 192 236 279 328
#
# _framework density 18.579343000000001
#
# number of rings (size 3 to 8) (size 9 to 14) (size 15 to 20)
#    0.000    1.857    0.000    8.571    2.000    0.000 
#    0.000    0.000    0.000    3.429    0.000    6.000 
#    0.000    0.000    0.000    0.000    0.000    0.000 
#
# Total GULP energy -347063.812279 kJ/mol
# GULP energy per Si atom -12395.136153 kJ/mol
# Density = 1.853706 g / cm^3
# Si number density = 18.579343 Si / 1000 Ang^3
#
#
#
# Elastic Constant Matrix: (Units=GPa)
#
#
# Indices 1 2 3 4 5 6 
#
# 1 142.6008 59.3982 59.3253 -0.0066 0.0036 0.0033
# 2 59.3982 116.8749 41.3832 -0.0146 0.0109 0.0099
# 3 59.3253 41.3832 159.7844 -0.0266 0.0171 0.0182
# 4 -0.0066 -0.0146 -0.0266 26.7631 0.0143 0.0137
# 5 0.0036 0.0109 0.0171 0.0143 30.8012 -0.0082
# 6 0.0033 0.0099 0.0182 0.0137 -0.0082 15.5109
#
#
#
# Elastic Compliance Matrix: (Units=1/GPa)
#
#
# Indices 1 2 3 4 5 6 
#
# 1 0.009774 -0.004054 -0.002579 -0.000002 0.000002 0.000004
# 2 -0.004054 0.011102 -0.001370 0.000004 -0.000003 -0.000005
# 3 -0.002579 -0.001370 0.007571 0.000006 -0.000003 -0.000007
# 4 -0.000002 0.000004 0.000006 0.037365 -0.000017 -0.000033
# 5 0.000002 -0.000003 -0.000003 -0.000017 0.032466 0.000017
# 6 0.000004 -0.000005 -0.000007 -0.000033 0.000017 0.064471
#
#
# Mechanical properties :
#
#
# Convention : Reuss Voigt Hill
#
# Bulk Modulus (GPa) = 80.38438 82.16373 81.27405
# Shear Modulus (GPa) = 27.33701 31.89193 29.61447
#
# Velocity S-wave (km/s) = 3.84000 4.14759 3.99676
# Velocity P-wave (km/s) = 7.93853 8.20097 8.07081
#
# Compressibility (1/GPa) = 0.01244023
#
# Stress axis : x y z
#
# Youngs Moduli (GPa) = 102.30953 90.07611 132.08664
#
# Poissons Ratio (x) = 0.36520 0.34065
# Poissons Ratio (y) = 0.41479 0.18096
# Poissons Ratio (z) = 0.26385 0.12340
#
# Static dielectric constant tensor:
#      x y z
#    x 3.496210 0.000000 0.000000 
#    y 0.000000 3.816700 0.000010 
#    z 0.000000 0.000010 3.384270 
# 
# 
# High freq. dielectric constant tensor:
#      x y z
#    x 1.725690 0.000000 0.000000 
#    y 0.000000 1.690820 0.000000 
#    z 0.000000 0.000000 1.727760 
# 
# From -- ./inp_files/3819.got.cif
#   From: 2010.03.12/outbox.cif.g09.slc.cpg/sg69_2_cif.got.tgz:3819.got - 2010.04.10 23:52:46.
