data_PCOD8283298
_publ_section_title
;
Structure prediction by ZEFSAII (Michael W. Deem and Ramdas Pophale) SiO2 
 PCOD8283298
Probable space group: C C C A
;
_chemical_formula_sum "Si O2"
_cell_formula_units_Z 72
_cell_length_a 7.765020
_cell_length_b 21.446812
_cell_length_c 17.846960
_cell_angle_alpha 90.000000
_cell_angle_beta 90.000000
_cell_angle_gamma 90.000000
_cell_volume 2972.142129
_symmetry_space_group_name_H-M "C C C A"
_symmetry_group_IT_number 68
_space_group.IT_coordinate_system_code '2'
_symmetry_cell_setting 'orthorhombic'
loop_
_space_group_symop_operation_xyz
x,y,z
-x,1/2-y,z
x,1/2-y,1/2-z
-x,y,1/2-z
-x,-y,-z
x,1/2+y,-z
-x,1/2+y,1/2+z
x,-y,1/2+z
1/2+x,1/2+y,z
1/2-x,-y,z
1/2+x,-y,1/2-z
1/2-x,1/2+y,1/2-z
1/2-x,1/2-y,-z
1/2+x,y,-z
1/2-x,y,1/2+z
1/2+x,1/2-y,1/2+z
loop_
_atom_site_type_symbol
_atom_site_label
_atom_site_fract_x
_atom_site_fract_y
_atom_site_fract_z
Si Si1 0.158657 0.877040 0.448114
Si Si2 0.939854 0.027016 0.669206
Si Si3 0.041509 0.597929 0.894652
Si Si4 0.660890 0.782362 0.330426
Si Si5 0.500000 0.750000 0.914737
O O1 0.042948 0.916147 0.389429
O O2 0.351523 0.877600 0.416577
O O3 0.078971 0.807737 0.461367
O O4 0.158054 0.906510 0.530620
O O5 0.000000 0.051865 0.750000
O O6 0.750000 0.000000 0.673411
O O7 0.057213 0.970034 0.641425
O O8 0.120925 0.643757 0.831419
O O9 0.500000 0.750000 0.375122
O O10 0.666972 0.750000 0.250000
O O11 0.846119 0.774729 0.365018
#
# Coordination Sequence:
#
# PCOD8283298 Si02
#       5
#    16  16  16  16   8
#     4  11  25  44  69 104 139 185 240 286 356 423
#     4  10  25  45  69 100 139 183 238 295 352 419
#     4  11  24  46  71 100 143 187 233 297 349 420
#     4  11  25  43  68 104 144 182 232 284 355 414
#     4  12  25  44  70 102 141 182 234 292 348 429
#
# _framework density 24.224951000000001
#
# number of rings (size 3 to 8) (size 9 to 14) (size 15 to 20)
#    0.000    1.111    2.222    2.333    4.667    7.111 
#    0.000    0.000    0.000    0.000    0.000    0.000 
#    0.000    0.000    0.000    0.000    0.000    0.000 
#
# Total GULP energy -446232.615048 kJ/mol
# GULP energy per Si atom -12395.350418 kJ/mol
# Density = 2.416981 g / cm^3
# Si number density = 24.224951 Si / 1000 Ang^3
#
#
#
# Elastic Constant Matrix: (Units=GPa)
#
#
# Indices 1 2 3 4 5 6 
#
# 1 81.7768 11.4136 -1.5674 0.0000 0.0000 0.0000
# 2 11.4136 124.5903 46.0525 0.0000 0.0000 0.0000
# 3 -1.5674 46.0525 122.4152 0.0000 0.0000 0.0000
# 4 0.0000 0.0000 0.0000 146.3942 0.0000 0.0000
# 5 0.0000 0.0000 0.0000 0.0000 29.4576 0.0000
# 6 0.0000 0.0000 0.0000 0.0000 0.0000 33.6317
#
#
#
# Elastic Compliance Matrix: (Units=1/GPa)
#
#
# Indices 1 2 3 4 5 6 
#
# 1 0.012436 -0.001392 0.000683 0.000000 0.000000 0.000000
# 2 -0.001392 0.009478 -0.003584 0.000000 0.000000 0.000000
# 3 0.000683 -0.003584 0.009526 0.000000 0.000000 0.000000
# 4 0.000000 0.000000 0.000000 0.006831 0.000000 0.000000
# 5 0.000000 0.000000 0.000000 0.000000 0.033947 0.000000
# 6 0.000000 0.000000 0.000000 0.000000 0.000000 0.029734
#
#
# Mechanical properties :
#
#
# Convention : Reuss Voigt Hill
#
# Bulk Modulus (GPa) = 43.75400 48.95331 46.35366
# Shear Modulus (GPa) = 42.31730 60.08892 51.20311
#
# Velocity S-wave (km/s) = 4.18406 4.98582 4.60243
# Velocity P-wave (km/s) = 6.43759 7.30727 6.88618
#
# Compressibility (1/GPa) = 0.02285505
#
# Stress axis : x y z
#
# Youngs Moduli (GPa) = 80.41350 105.50307 104.97805
#
# Poissons Ratio (x) = 0.14682 -0.07167
# Poissons Ratio (y) = 0.11190 0.37620
# Poissons Ratio (z) = -0.05490 0.37808
#
# Static dielectric constant tensor:
#      x y z
#    x 0.803260 0.000000 0.000000 
#    y 0.000000 4.673570 0.000000 
#    z 0.000000 0.000000 4.203910 
# 
# 
# High freq. dielectric constant tensor:
#      x y z
#    x 1.977660 0.000000 0.000000 
#    y 0.000000 1.970140 0.000000 
#    z 0.000000 0.000000 1.950350 
# 
# From -- ./inp_files/28158.got.cif
#   From: 2010.03.12/outbox.cif.g09.slc.cpg/sg68_15_cif.got.tgz:28158.got - 2010.04.10 23:14:56.
