data_PCOD8283150
_publ_section_title
;
Structure prediction by ZEFSAII (Michael W. Deem and Ramdas Pophale) SiO2 
 PCOD8283150
Probable space group: C C C A
;
_chemical_formula_sum "Si O2"
_cell_formula_units_Z 116
_cell_length_a 18.026774
_cell_length_b 12.795754
_cell_length_c 23.584623
_cell_angle_alpha 90.000000
_cell_angle_beta 90.000000
_cell_angle_gamma 90.000000
_cell_volume 5440.174553
_symmetry_space_group_name_H-M "C C C A"
_symmetry_group_IT_number 68
_space_group.IT_coordinate_system_code '2'
_symmetry_cell_setting 'orthorhombic'
loop_
_space_group_symop_operation_xyz
x,y,z
-x,1/2-y,z
x,1/2-y,1/2-z
-x,y,1/2-z
-x,-y,-z
x,1/2+y,-z
-x,1/2+y,1/2+z
x,-y,1/2+z
1/2+x,1/2+y,z
1/2-x,-y,z
1/2+x,-y,1/2-z
1/2-x,1/2+y,1/2-z
1/2-x,1/2-y,-z
1/2+x,y,-z
1/2-x,y,1/2+z
1/2+x,1/2-y,1/2+z
loop_
_atom_site_type_symbol
_atom_site_label
_atom_site_fract_x
_atom_site_fract_y
_atom_site_fract_z
Si Si1 0.257969 0.613436 0.653450
Si Si2 0.453270 0.650164 0.018680
Si Si3 0.674502 0.435577 0.628799
Si Si4 0.500000 0.750000 0.750000
Si Si5 0.582084 0.930805 0.689865
Si Si6 0.865890 0.866863 0.748004
Si Si7 0.699414 0.258787 0.945263
Si Si8 0.026469 0.030742 0.589050
O O1 0.250000 0.500000 0.624823
O O2 0.336179 0.612891 0.683290
O O3 0.197715 0.637653 0.701211
O O4 0.252162 0.696527 0.603609
O O5 0.500000 0.750000 0.033599
O O6 0.369498 0.664644 0.041499
O O7 0.497374 0.561094 0.050320
O O8 0.454248 0.629229 0.951109
O O9 0.750000 0.500000 0.622944
O O10 0.670945 0.384840 0.690875
O O11 0.670876 0.352812 0.577237
O O12 0.601838 0.507299 0.623013
O O13 0.548431 0.826876 0.713829
O O14 0.541155 0.950855 0.631239
O O15 0.579189 0.036837 0.729530
O O16 0.904412 0.750000 0.750000
O O17 0.750000 0.250000 0.000000
#
# Coordination Sequence:
#
# PCOD8283150 Si02
#       8
#    16  16  16   4  16  16  16  16
#     4  10  23  44  72 101 138 183 236 299 362 432
#     4  11  24  46  70 100 140 184 234 296 365 434
#     4  12  25  44  70 105 143 184 241 305 363 434
#     4  12  28  44  62 104 152 192 242 278 364 454
#     4  11  26  44  72 104 145 194 236 295 369 445
#     4  11  23  46  76 108 141 186 243 307 370 432
#     4  12  26  42  71 105 138 188 241 291 362 432
#     4  11  26  45  72 100 141 184 239 299 363 436
#
# _framework density 21.322845000000001
#
# number of rings (size 3 to 8) (size 9 to 14) (size 15 to 20)
#    0.000    0.828    2.759    4.552    3.862    3.862 
#    0.000    2.414    0.000    0.000    0.000    0.000 
#    0.000    0.000    0.000    0.000    0.000    0.000 
#
# Total GULP energy -718861.752766 kJ/mol
# GULP energy per Si atom -12394.168151 kJ/mol
# Density = 2.127431 g / cm^3
# Si number density = 21.322845 Si / 1000 Ang^3
#
#
#
# Elastic Constant Matrix: (Units=GPa)
#
#
# Indices 1 2 3 4 5 6 
#
# 1 51.6549 33.4896 5.6271 0.0000 0.0000 0.0000
# 2 33.4896 111.3901 33.2867 0.0000 0.0000 0.0000
# 3 5.6271 33.2867 113.3749 0.0000 0.0000 0.0000
# 4 0.0000 0.0000 0.0000 35.9573 0.0000 0.0000
# 5 0.0000 0.0000 0.0000 0.0000 21.4982 0.0000
# 6 0.0000 0.0000 0.0000 0.0000 0.0000 37.9577
#
#
#
# Elastic Compliance Matrix: (Units=1/GPa)
#
#
# Indices 1 2 3 4 5 6 
#
# 1 0.024154 -0.007568 0.001023 0.000000 0.000000 0.000000
# 2 -0.007568 0.012212 -0.003210 0.000000 0.000000 0.000000
# 3 0.001023 -0.003210 0.009712 0.000000 0.000000 0.000000
# 4 0.000000 0.000000 0.000000 0.027811 0.000000 0.000000
# 5 0.000000 0.000000 0.000000 0.000000 0.046516 0.000000
# 6 0.000000 0.000000 0.000000 0.000000 0.000000 0.026345
#
#
# Mechanical properties :
#
#
# Convention : Reuss Voigt Hill
#
# Bulk Modulus (GPa) = 37.63779 46.80298 42.22038
# Shear Modulus (GPa) = 28.55271 32.68374 30.61823
#
# Velocity S-wave (km/s) = 3.66330 3.91935 3.79348
# Velocity P-wave (km/s) = 5.96512 6.51760 6.24747
#
# Compressibility (1/GPa) = 0.02656904
#
# Stress axis : x y z
#
# Youngs Moduli (GPa) = 41.40067 81.88741 102.96639
#
# Poissons Ratio (x) = 0.61970 -0.10534
# Poissons Ratio (y) = 0.31331 0.33050
# Poissons Ratio (z) = -0.04235 0.26284
#
# Static dielectric constant tensor:
#      x y z
#    x 3.660650 0.000000 0.000000 
#    y 0.000000 4.524510 0.000000 
#    z 0.000000 0.000000 4.214070 
# 
# 
# High freq. dielectric constant tensor:
#      x y z
#    x 1.842510 0.000000 0.000000 
#    y 0.000000 1.848020 0.000000 
#    z 0.000000 0.000000 1.847310 
# 
# From -- ./inp_files/51508.got.cif
#   From: 2010.03.12/outbox.cif.g09.slc.cpg/sg68_26_cif.got.tgz:51508.got - 2010.04.10 23:14:56.
