data_PCOD8283268
_publ_section_title
;
Structure prediction by ZEFSAII (Michael W. Deem and Ramdas Pophale) SiO2 
 PCOD8283268
Probable space group: C C C A
;
_chemical_formula_sum "Si O2"
_cell_formula_units_Z 64
_cell_length_a 8.958344
_cell_length_b 25.061108
_cell_length_c 12.381238
_cell_angle_alpha 90.000000
_cell_angle_beta 90.000000
_cell_angle_gamma 90.000000
_cell_volume 2779.662546
_symmetry_space_group_name_H-M "C C C A"
_symmetry_group_IT_number 68
_space_group.IT_coordinate_system_code '2'
_symmetry_cell_setting 'orthorhombic'
loop_
_space_group_symop_operation_xyz
x,y,z
-x,1/2-y,z
x,1/2-y,1/2-z
-x,y,1/2-z
-x,-y,-z
x,1/2+y,-z
-x,1/2+y,1/2+z
x,-y,1/2+z
1/2+x,1/2+y,z
1/2-x,-y,z
1/2+x,-y,1/2-z
1/2-x,1/2+y,1/2-z
1/2-x,1/2-y,-z
1/2+x,y,-z
1/2-x,y,1/2+z
1/2+x,1/2-y,1/2+z
loop_
_atom_site_type_symbol
_atom_site_label
_atom_site_fract_x
_atom_site_fract_y
_atom_site_fract_z
Si Si1 0.230959 0.790438 0.350013
Si Si2 0.250000 0.000000 0.727574
Si Si3 0.040215 0.553345 0.939138
Si Si4 0.000000 0.250000 0.019161
Si Si5 0.723392 0.592141 0.872547
O O1 0.206821 0.750000 0.250000
O O2 0.395495 0.785251 0.402184
O O3 0.209985 0.851428 0.309515
O O4 0.106705 0.784299 0.442443
O O5 0.360091 0.037256 0.661888
O O6 0.160090 0.042677 0.801753
O O7 0.896716 0.583772 0.897567
O O8 0.131552 0.593541 0.015937
O O9 0.000000 0.500000 0.000000
#
# Coordination Sequence:
#
# PCOD8283268 Si02
#       5
#    16   8  16   8  16
#     4  11  25  48  72 105 140 190 243 300 362 426
#     4  12  24  40  70 100 140 180 232 280 354 430
#     4  12  23  46  65 101 141 182 231 283 355 426
#     4  10  24  48  74  98 142 184 246 302 356 426
#     4  12  26  43  72 102 141 186 231 296 352 428
#
# _framework density 23.024377999999999
#
# number of rings (size 3 to 8) (size 9 to 14) (size 15 to 20)
#    0.000    0.500    5.000    3.000    0.000    8.000 
#    9.000    0.000    0.000    0.000    0.000    0.000 
#    0.000    0.000    0.000    0.000    0.000    0.000 
#
# Total GULP energy -396750.535012 kJ/mol
# GULP energy per Si atom -12398.454219 kJ/mol
# Density = 2.297197 g / cm^3
# Si number density = 23.024378 Si / 1000 Ang^3
#
#
#
# Elastic Constant Matrix: (Units=GPa)
#
#
# Indices 1 2 3 4 5 6 
#
# 1 80.3848 1.4536 15.2093 0.0000 0.0000 0.0000
# 2 1.4536 170.3351 45.4996 0.0000 0.0000 0.0000
# 3 15.2093 45.4996 108.2368 0.0000 0.0000 0.0000
# 4 0.0000 0.0000 0.0000 28.9664 0.0000 0.0000
# 5 0.0000 0.0000 0.0000 0.0000 29.4609 0.0000
# 6 0.0000 0.0000 0.0000 0.0000 0.0000 17.0244
#
#
#
# Elastic Compliance Matrix: (Units=1/GPa)
#
#
# Indices 1 2 3 4 5 6 
#
# 1 0.012806 0.000418 -0.001975 0.000000 0.000000 0.000000
# 2 0.000418 0.006627 -0.002845 0.000000 0.000000 0.000000
# 3 -0.001975 -0.002845 0.010712 0.000000 0.000000 0.000000
# 4 0.000000 0.000000 0.000000 0.034523 0.000000 0.000000
# 5 0.000000 0.000000 0.000000 0.000000 0.033943 0.000000
# 6 0.000000 0.000000 0.000000 0.000000 0.000000 0.058739
#
#
# Mechanical properties :
#
#
# Convention : Reuss Voigt Hill
#
# Bulk Modulus (GPa) = 46.85485 53.69798 50.27641
# Shear Modulus (GPa) = 28.85692 34.87661 31.86676
#
# Velocity S-wave (km/s) = 3.54407 3.89623 3.72431
# Velocity P-wave (km/s) = 6.09438 6.60406 6.35433
#
# Compressibility (1/GPa) = 0.02134251
#
# Stress axis : x y z
#
# Youngs Moduli (GPa) = 78.08621 150.89654 93.34997
#
# Poissons Ratio (x) = -0.06313 0.18440
# Poissons Ratio (y) = -0.03267 0.26554
# Poissons Ratio (z) = 0.15425 0.42924
#
# Static dielectric constant tensor:
#      x y z
#    x 4.168780 0.000000 0.000000 
#    y 0.000000 4.029620 0.000000 
#    z 0.000000 0.000000 4.029830 
# 
# 
# High freq. dielectric constant tensor:
#      x y z
#    x 1.921330 0.000000 0.000000 
#    y 0.000000 1.904270 0.000000 
#    z 0.000000 0.000000 1.915660 
# 
# From -- ./inp_files/10779.got.cif
#   From: 2010.03.12/outbox.cif.g09.slc.cpg/sg68_6_cif.got.tgz:10779.got - 2010.04.10 23:14:56.
