data_PCOD8283017
_publ_section_title
;
Structure prediction by ZEFSAII (Michael W. Deem and Ramdas Pophale) SiO2 
 PCOD8283017
Probable space group: C C C A
;
_chemical_formula_sum "Si O2"
_cell_formula_units_Z 88
_cell_length_a 14.903689
_cell_length_b 23.479416
_cell_length_c 10.712429
_cell_angle_alpha 90.000000
_cell_angle_beta 90.000000
_cell_angle_gamma 90.000000
_cell_volume 3748.599358
_symmetry_space_group_name_H-M "C C C A"
_symmetry_group_IT_number 68
_space_group.IT_coordinate_system_code '2'
_symmetry_cell_setting 'orthorhombic'
loop_
_space_group_symop_operation_xyz
x,y,z
-x,1/2-y,z
x,1/2-y,1/2-z
-x,y,1/2-z
-x,-y,-z
x,1/2+y,-z
-x,1/2+y,1/2+z
x,-y,1/2+z
1/2+x,1/2+y,z
1/2-x,-y,z
1/2+x,-y,1/2-z
1/2-x,1/2+y,1/2-z
1/2-x,1/2-y,-z
1/2+x,y,-z
1/2-x,y,1/2+z
1/2+x,1/2-y,1/2+z
loop_
_atom_site_type_symbol
_atom_site_label
_atom_site_fract_x
_atom_site_fract_y
_atom_site_fract_z
Si Si1 0.610462 0.541385 0.603089
Si Si2 0.099814 0.535522 0.124674
Si Si3 0.119303 0.343268 0.568635
Si Si4 0.976439 0.184662 0.112578
Si Si5 0.864833 0.250000 0.750000
Si Si6 0.308970 0.163340 0.046657
O O1 0.642254 0.502306 0.486415
O O2 0.624618 0.509665 0.738171
O O3 0.503960 0.549296 0.596820
O O4 0.666554 0.600005 0.595132
O O5 0.144367 0.597662 0.134313
O O6 0.038922 0.354438 0.473121
O O7 0.080489 0.293993 0.662022
O O8 0.209526 0.324843 0.500727
O O9 0.000000 0.250000 0.097806
O O10 0.000000 0.162295 0.250000
O O11 0.873936 0.176874 0.070557
O O12 0.809504 0.207981 0.839576
#
# Coordination Sequence:
#
# PCOD8283017 Si02
#       6
#    16  16  16  16   8  16
#     4  10  22  44  71 102 138 182 239 296 356 427
#     4  10  22  44  71 102 138 182 239 296 356 427
#     4  12  26  44  72 105 140 189 236 297 359 423
#     4  11  26  42  65 100 145 184 233 290 363 428
#     4  12  26  45  72 103 146 178 246 295 352 427
#     4  12  26  44  72 105 140 189 236 297 359 423
#
# _framework density 23.475434
#
# number of rings (size 3 to 8) (size 9 to 14) (size 15 to 20)
#    0.000    0.909    5.455    0.545    2.545    3.636 
#    0.000    1.818    0.000    0.000    0.000    0.000 
#    0.000    0.000    0.000    0.000    0.000    0.000 
#
# Total GULP energy -545081.332388 kJ/mol
# GULP energy per Si atom -12388.212100 kJ/mol
# Density = 2.342200 g / cm^3
# Si number density = 23.475434 Si / 1000 Ang^3
#
#
#
# Elastic Constant Matrix: (Units=GPa)
#
#
# Indices 1 2 3 4 5 6 
#
# 1 39.5348 -6.2048 12.5108 0.0000 0.0000 0.0000
# 2 -6.2048 133.4628 70.4631 0.0000 0.0000 0.0000
# 3 12.5108 70.4631 192.7841 0.0000 0.0000 0.0000
# 4 0.0000 0.0000 0.0000 32.6221 0.0000 0.0000
# 5 0.0000 0.0000 0.0000 0.0000 8.8978 0.0000
# 6 0.0000 0.0000 0.0000 0.0000 0.0000 24.8384
#
#
#
# Elastic Compliance Matrix: (Units=1/GPa)
#
#
# Indices 1 2 3 4 5 6 
#
# 1 0.026564 0.002658 -0.002695 0.000000 0.000000 0.000000
# 2 0.002658 0.009550 -0.003663 0.000000 0.000000 0.000000
# 3 -0.002695 -0.003663 0.006701 0.000000 0.000000 0.000000
# 4 0.000000 0.000000 0.000000 0.030654 0.000000 0.000000
# 5 0.000000 0.000000 0.000000 0.000000 0.112388 0.000000
# 6 0.000000 0.000000 0.000000 0.000000 0.000000 0.040260
#
#
# Mechanical properties :
#
#
# Convention : Reuss Voigt Hill
#
# Bulk Modulus (GPa) = 28.23695 57.70221 42.96958
# Shear Modulus (GPa) = 20.38126 32.53917 26.46021
#
# Velocity S-wave (km/s) = 2.94971 3.72707 3.36094
# Velocity P-wave (km/s) = 4.86369 6.56921 5.77971
#
# Compressibility (1/GPa) = 0.03541459
#
# Stress axis : x y z
#
# Youngs Moduli (GPa) = 37.64444 104.70866 149.23223
#
# Poissons Ratio (x) = -0.27833 0.40225
# Poissons Ratio (y) = -0.10006 0.54666
# Poissons Ratio (z) = 0.10147 0.38356
#
# Static dielectric constant tensor:
#      x y z
#    x 3.849370 0.000000 0.000000 
#    y 0.000000 4.187930 0.000000 
#    z 0.000000 0.000000 4.820000 
# 
# 
# High freq. dielectric constant tensor:
#      x y z
#    x 1.902750 0.000000 0.000000 
#    y 0.000000 1.929960 0.000000 
#    z 0.000000 0.000000 1.950400 
# 
# From -- ./inp_files/13287.got.cif
#   From: 2010.03.12/outbox.cif.g09.slc.cpg/sg68_7_cif.got.tgz:13287.got - 2010.04.10 23:14:56.
