data_PCOD8283130
_publ_section_title
;
Structure prediction by ZEFSAII (Michael W. Deem and Ramdas Pophale) SiO2 
 PCOD8283130
Probable space group: C C C A
;
_chemical_formula_sum "Si O2"
_cell_formula_units_Z 64
_cell_length_a 22.428437
_cell_length_b 9.001432
_cell_length_c 13.377808
_cell_angle_alpha 90.000000
_cell_angle_beta 90.000000
_cell_angle_gamma 90.000000
_cell_volume 2700.819577
_symmetry_space_group_name_H-M "C C C A"
_symmetry_group_IT_number 68
_space_group.IT_coordinate_system_code '2'
_symmetry_cell_setting 'orthorhombic'
loop_
_space_group_symop_operation_xyz
x,y,z
-x,1/2-y,z
x,1/2-y,1/2-z
-x,y,1/2-z
-x,-y,-z
x,1/2+y,-z
-x,1/2+y,1/2+z
x,-y,1/2+z
1/2+x,1/2+y,z
1/2-x,-y,z
1/2+x,-y,1/2-z
1/2-x,1/2+y,1/2-z
1/2-x,1/2-y,-z
1/2+x,y,-z
1/2-x,y,1/2+z
1/2+x,1/2-y,1/2+z
loop_
_atom_site_type_symbol
_atom_site_label
_atom_site_fract_x
_atom_site_fract_y
_atom_site_fract_z
Si Si1 0.319353 0.749975 0.520771
Si Si2 0.505371 0.916653 0.367374
Si Si3 0.388636 0.395455 0.309344
Si Si4 0.877238 0.026105 0.106615
O O1 0.250000 0.750000 0.500000
O O2 0.334481 0.844540 0.620254
O O3 0.355768 0.809595 0.424361
O O4 0.339867 0.582101 0.535928
O O5 0.500000 0.750000 0.413977
O O6 0.500000 0.900061 0.250000
O O7 0.448012 0.003101 0.412009
O O8 0.563946 0.019922 0.382824
O O9 0.415540 0.250000 0.250000
O O10 0.363177 0.506755 0.224702
#
# Coordination Sequence:
#
# PCOD8283130 Si02
#       4
#    16  16  16  16
#     4  11  24  44  66  96 136 179 234 282 322 412
#     4   9  19  38  68 100 136 171 224 288 348 426
#     4   9  21  43  71  98 136 182 223 280 362 408
#     4  10  23  43  68  98 134 176 228 279 352 403
#
# _framework density 23.69651
#
# number of rings (size 3 to 8) (size 9 to 14) (size 15 to 20)
#    0.000    2.250    0.000    0.750    3.500   12.500 
#    0.000   15.000    0.000    0.000    0.000    0.000 
#    0.000    0.000    0.000    0.000    0.000    0.000 
#
# Total GULP energy -396530.473425 kJ/mol
# GULP energy per Si atom -12391.577295 kJ/mol
# Density = 2.364258 g / cm^3
# Si number density = 23.696510 Si / 1000 Ang^3
#
#
#
# Elastic Constant Matrix: (Units=GPa)
#
#
# Indices 1 2 3 4 5 6 
#
# 1 189.2117 64.7171 39.6700 0.0000 0.0000 0.0000
# 2 64.7171 83.0909 34.6522 0.0000 0.0000 0.0000
# 3 39.6700 34.6522 74.9293 0.0000 0.0000 0.0000
# 4 0.0000 0.0000 0.0000 43.1005 0.0000 0.0000
# 5 0.0000 0.0000 0.0000 0.0000 37.8635 0.0000
# 6 0.0000 0.0000 0.0000 0.0000 0.0000 38.8024
#
#
#
# Elastic Compliance Matrix: (Units=1/GPa)
#
#
# Indices 1 2 3 4 5 6 
#
# 1 0.007345 -0.005079 -0.001540 0.000000 0.000000 0.000000
# 2 -0.005079 0.018422 -0.005831 0.000000 0.000000 0.000000
# 3 -0.001540 -0.005831 0.016858 0.000000 0.000000 0.000000
# 4 0.000000 0.000000 0.000000 0.023202 0.000000 0.000000
# 5 0.000000 0.000000 0.000000 0.000000 0.026411 0.000000
# 6 0.000000 0.000000 0.000000 0.000000 0.000000 0.025772
#
#
# Mechanical properties :
#
#
# Convention : Reuss Voigt Hill
#
# Bulk Modulus (GPa) = 56.41385 69.47895 62.94640
# Shear Modulus (GPa) = 33.59836 37.83277 35.71557
#
# Velocity S-wave (km/s) = 3.76953 4.00003 3.88649
# Velocity P-wave (km/s) = 6.54250 7.12163 6.83820
#
# Compressibility (1/GPa) = 0.01772614
#
# Stress axis : x y z
#
# Youngs Moduli (GPa) = 136.14667 54.28209 59.31954
#
# Poissons Ratio (x) = 0.27568 0.09135
# Poissons Ratio (y) = 0.69143 0.34589
# Poissons Ratio (z) = 0.20967 0.31651
#
# Static dielectric constant tensor:
#      x y z
#    x 4.048660 0.000000 0.000000 
#    y 0.000000 4.650910 0.000000 
#    z 0.000000 0.000000 4.444880 
# 
# 
# High freq. dielectric constant tensor:
#      x y z
#    x 1.912340 0.000000 0.000000 
#    y 0.000000 1.946440 0.000000 
#    z 0.000000 0.000000 1.944520 
# 
# From -- ./inp_files/25020.got.cif
#   From: 2010.03.12/outbox.cif.g09.slc.cpg/sg68_13_cif.got.tgz:25020.got - 2010.04.10 23:14:56.
