data_PCOD8283234
_publ_section_title
;
Structure prediction by ZEFSAII (Michael W. Deem and Ramdas Pophale) SiO2 
 PCOD8283234
Probable space group: C C C A
;
_chemical_formula_sum "Si O2"
_cell_formula_units_Z 52
_cell_length_a 11.370436
_cell_length_b 22.701393
_cell_length_c 8.519972
_cell_angle_alpha 90.000000
_cell_angle_beta 90.000000
_cell_angle_gamma 90.000000
_cell_volume 2199.215525
_symmetry_space_group_name_H-M "C C C A"
_symmetry_group_IT_number 68
_space_group.IT_coordinate_system_code '2'
_symmetry_cell_setting 'orthorhombic'
loop_
_space_group_symop_operation_xyz
x,y,z
-x,1/2-y,z
x,1/2-y,1/2-z
-x,y,1/2-z
-x,-y,-z
x,1/2+y,-z
-x,1/2+y,1/2+z
x,-y,1/2+z
1/2+x,1/2+y,z
1/2-x,-y,z
1/2+x,-y,1/2-z
1/2-x,1/2+y,1/2-z
1/2-x,1/2-y,-z
1/2+x,y,-z
1/2-x,y,1/2+z
1/2+x,1/2-y,1/2+z
loop_
_atom_site_type_symbol
_atom_site_label
_atom_site_fract_x
_atom_site_fract_y
_atom_site_fract_z
Si Si1 0.098170 0.852663 0.556227
Si Si2 0.086584 0.053821 0.528500
Si Si3 0.267679 0.409127 0.198269
Si Si4 0.000000 0.750000 0.750000
O O1 0.169745 0.889081 0.682518
O O2 0.173941 0.853306 0.394935
O O3 0.078232 0.788383 0.629734
O O4 0.974301 0.884796 0.523009
O O5 0.204785 0.046946 0.424735
O O6 0.127090 0.056230 0.711412
O O7 0.000000 0.000000 0.500000
#
# Coordination Sequence:
#
# PCOD8283234 Si02
#       4
#    16  16  16   4
#     4  11  24  45  70 103 143 187 243 299 366 426
#     4  11  24  45  72 106 150 185 245 298 364 445
#     4  10  24  45  71 108 141 195 239 290 380 436
#     4  12  24  48  74 100 154 188 250 322 348 452
#
# _framework density 23.644794999999998
#
# number of rings (size 3 to 8) (size 9 to 14) (size 15 to 20)
#    0.000    1.231    3.077    0.923    0.000   13.538 
#    0.000    6.154    0.000    0.000    0.000    0.000 
#    0.000    0.000    0.000    0.000    0.000    0.000 
#
# Total GULP energy -322260.851631 kJ/mol
# GULP energy per Si atom -12394.648140 kJ/mol
# Density = 2.359098 g / cm^3
# Si number density = 23.644795 Si / 1000 Ang^3
#
#
#
# Elastic Constant Matrix: (Units=GPa)
#
#
# Indices 1 2 3 4 5 6 
#
# 1 127.0019 48.6902 67.9110 0.0000 0.0000 0.0000
# 2 48.6902 114.7939 49.4335 0.0000 0.0000 0.0000
# 3 67.9110 49.4335 155.6564 0.0000 0.0000 0.0000
# 4 0.0000 0.0000 0.0000 37.4029 0.0000 0.0000
# 5 0.0000 0.0000 0.0000 0.0000 38.6634 0.0000
# 6 0.0000 0.0000 0.0000 0.0000 0.0000 29.8816
#
#
#
# Elastic Compliance Matrix: (Units=1/GPa)
#
#
# Indices 1 2 3 4 5 6 
#
# 1 0.011117 -0.003043 -0.003884 0.000000 0.000000 0.000000
# 2 -0.003043 0.010924 -0.002142 0.000000 0.000000 0.000000
# 3 -0.003884 -0.002142 0.008799 0.000000 0.000000 0.000000
# 4 0.000000 0.000000 0.000000 0.026736 0.000000 0.000000
# 5 0.000000 0.000000 0.000000 0.000000 0.025864 0.000000
# 6 0.000000 0.000000 0.000000 0.000000 0.000000 0.033465
#
#
# Mechanical properties :
#
#
# Convention : Reuss Voigt Hill
#
# Bulk Modulus (GPa) = 78.71902 81.05796 79.88849
# Shear Modulus (GPa) = 35.89940 36.61740 36.25840
#
# Velocity S-wave (km/s) = 3.90074 3.93955 3.92019
# Velocity P-wave (km/s) = 7.32477 7.41953 7.37230
#
# Compressibility (1/GPa) = 0.01270341
#
# Stress axis : x y z
#
# Youngs Moduli (GPa) = 89.94939 91.53975 113.64763
#
# Poissons Ratio (x) = 0.27855 0.44141
# Poissons Ratio (y) = 0.27371 0.24340
# Poissons Ratio (z) = 0.34936 0.19605
#
# Static dielectric constant tensor:
#      x y z
#    x 4.765030 0.000000 0.000000 
#    y 0.000000 3.911380 0.000000 
#    z 0.000000 0.000000 5.000960 
# 
# 
# High freq. dielectric constant tensor:
#      x y z
#    x 1.962830 0.000000 0.000000 
#    y 0.000000 1.890870 0.000000 
#    z 0.000000 0.000000 1.966440 
# 
# From -- ./inp_files/3836.got.cif
#   From: 2010.03.12/outbox.cif.g09.slc.cpg/sg68_2_cif.got.tgz:3836.got - 2010.04.10 23:14:56.
