data_PCOD8283620
_publ_section_title
;
Structure prediction by ZEFSAII (Michael W. Deem and Ramdas Pophale) SiO2 
 PCOD8283620
Probable space group: C C C A
;
_chemical_formula_sum "Si O2"
_cell_formula_units_Z 64
_cell_length_a 10.581645
_cell_length_b 27.406353
_cell_length_c 10.597373
_cell_angle_alpha 90.000000
_cell_angle_beta 90.000000
_cell_angle_gamma 90.000000
_cell_volume 3073.283720
_symmetry_space_group_name_H-M "C C C A"
_symmetry_group_IT_number 68
_space_group.IT_coordinate_system_code '2'
_symmetry_cell_setting 'orthorhombic'
loop_
_space_group_symop_operation_xyz
x,y,z
-x,1/2-y,z
x,1/2-y,1/2-z
-x,y,1/2-z
-x,-y,-z
x,1/2+y,-z
-x,1/2+y,1/2+z
x,-y,1/2+z
1/2+x,1/2+y,z
1/2-x,-y,z
1/2+x,-y,1/2-z
1/2-x,1/2+y,1/2-z
1/2-x,1/2-y,-z
1/2+x,y,-z
1/2-x,y,1/2+z
1/2+x,1/2-y,1/2+z
loop_
_atom_site_type_symbol
_atom_site_label
_atom_site_fract_x
_atom_site_fract_y
_atom_site_fract_z
Si Si1 0.978199 0.053406 0.551635
Si Si2 0.645479 0.233888 0.895259
Si Si3 0.201616 0.553043 0.265685
Si Si4 0.401878 0.371989 0.849322
O O1 0.842933 0.052000 0.620991
O O2 0.977182 0.094578 0.446750
O O3 0.088145 0.068947 0.645163
O O4 0.000000 0.000000 0.500000
O O5 0.500000 0.250000 0.929233
O O6 0.679859 0.250000 0.750000
O O7 0.660575 0.175424 0.910668
O O8 0.750000 0.250000 0.000000
O O9 0.250000 0.500000 0.308269
O O10 0.306416 0.593983 0.273737
O O11 0.500000 0.349857 0.750000
#
# Coordination Sequence:
#
# PCOD8283620 Si02
#       4
#    16  16  16  16
#     4  11  25  42  62  98 138 180 226 275 337 412
#     4  11  27  52  76 108 143 186 246 310 369 433
#     4  11  25  41  63  98 138 181 228 274 336 413
#     4  12  26  43  76  96 137 179 229 283 353 410
#
# _framework density 20.824629999999999
#
# number of rings (size 3 to 8) (size 9 to 14) (size 15 to 20)
#    0.000    0.750    5.000    1.500   14.000    0.500 
#    0.000    0.000    0.000    0.000    0.000    0.000 
#    0.000    0.000    0.000    0.000    0.000    0.000 
#
# Total GULP energy -396679.183472 kJ/mol
# GULP energy per Si atom -12396.224484 kJ/mol
# Density = 2.077723 g / cm^3
# Si number density = 20.824630 Si / 1000 Ang^3
#
#
#
# Elastic Constant Matrix: (Units=GPa)
#
#
# Indices 1 2 3 4 5 6 
#
# 1 112.3659 39.2315 54.9847 0.0000 0.0000 0.0000
# 2 39.2315 164.3001 41.8694 0.0000 0.0000 0.0000
# 3 54.9847 41.8694 117.0281 0.0000 0.0000 0.0000
# 4 0.0000 0.0000 0.0000 27.6423 0.0000 0.0000
# 5 0.0000 0.0000 0.0000 0.0000 41.0836 0.0000
# 6 0.0000 0.0000 0.0000 0.0000 0.0000 17.3734
#
#
#
# Elastic Compliance Matrix: (Units=1/GPa)
#
#
# Indices 1 2 3 4 5 6 
#
# 1 0.011909 -0.001560 -0.005037 0.000000 0.000000 0.000000
# 2 -0.001560 0.006901 -0.001736 0.000000 0.000000 0.000000
# 3 -0.005037 -0.001736 0.011533 0.000000 0.000000 0.000000
# 4 0.000000 0.000000 0.000000 0.036176 0.000000 0.000000
# 5 0.000000 0.000000 0.000000 0.000000 0.024341 0.000000
# 6 0.000000 0.000000 0.000000 0.000000 0.000000 0.057559
#
#
# Mechanical properties :
#
#
# Convention : Reuss Voigt Hill
#
# Bulk Modulus (GPa) = 73.11847 73.98501 73.55174
# Shear Modulus (GPa) = 29.47329 34.39376 31.93353
#
# Velocity S-wave (km/s) = 3.76614 4.06839 3.92018
# Velocity P-wave (km/s) = 7.35524 7.59433 7.47574
#
# Compressibility (1/GPa) = 0.01367643
#
# Stress axis : x y z
#
# Youngs Moduli (GPa) = 83.96973 144.89922 86.70906
#
# Poissons Ratio (x) = 0.22604 0.43678
# Poissons Ratio (y) = 0.13099 0.15054
# Poissons Ratio (z) = 0.42298 0.25157
#
# Static dielectric constant tensor:
#      x y z
#    x 4.362650 0.000000 0.000000 
#    y 0.000000 3.723170 0.000000 
#    z 0.000000 0.000000 3.970770 
# 
# 
# High freq. dielectric constant tensor:
#      x y z
#    x 1.823840 0.000000 0.000000 
#    y 0.000000 1.821730 0.000000 
#    z 0.000000 0.000000 1.823500 
# 
# From -- ./inp_files/11686.got.cif
#   From: 2010.03.12/outbox.cif.g09.slc.cpg/sg68_6_cif.got.tgz:11686.got - 2010.04.10 23:14:56.
