data_PCOD8283004
_publ_section_title
;
Structure prediction by ZEFSAII (Michael W. Deem and Ramdas Pophale) SiO2 
 PCOD8283004
Probable space group: C C C A
;
_chemical_formula_sum "Si O2"
_cell_formula_units_Z 80
_cell_length_a 15.879246
_cell_length_b 7.096431
_cell_length_c 32.742583
_cell_angle_alpha 90.000000
_cell_angle_beta 90.000000
_cell_angle_gamma 90.000000
_cell_volume 3689.629843
_symmetry_space_group_name_H-M "C C C A"
_symmetry_group_IT_number 68
_space_group.IT_coordinate_system_code '2'
_symmetry_cell_setting 'orthorhombic'
loop_
_space_group_symop_operation_xyz
x,y,z
-x,1/2-y,z
x,1/2-y,1/2-z
-x,y,1/2-z
-x,-y,-z
x,1/2+y,-z
-x,1/2+y,1/2+z
x,-y,1/2+z
1/2+x,1/2+y,z
1/2-x,-y,z
1/2+x,-y,1/2-z
1/2-x,1/2+y,1/2-z
1/2-x,1/2-y,-z
1/2+x,y,-z
1/2-x,y,1/2+z
1/2+x,1/2-y,1/2+z
loop_
_atom_site_type_symbol
_atom_site_label
_atom_site_fract_x
_atom_site_fract_y
_atom_site_fract_z
Si Si1 0.067078 0.407964 0.652892
Si Si2 0.500000 0.250000 0.902604
Si Si3 0.739318 0.717858 0.634175
Si Si4 0.250000 0.000000 0.503740
Si Si5 0.333258 0.797801 0.441575
Si Si6 0.824430 0.871599 0.712787
O O1 0.144125 0.294931 0.631908
O O2 0.098533 0.508670 0.694256
O O3 0.000000 0.250000 0.665487
O O4 0.023596 0.564662 0.623719
O O5 0.576069 0.205178 0.933660
O O6 0.750000 0.500000 0.621654
O O7 0.793953 0.843506 0.602905
O O8 0.782055 0.742656 0.678146
O O9 0.267473 0.167735 0.534514
O O10 0.168303 0.024074 0.472742
O O11 0.861777 0.750000 0.750000
O O12 0.750000 0.000000 0.731207
#
# Coordination Sequence:
#
# PCOD8283004 Si02
#       6
#    16   8  16   8  16  16
#     4  11  25  41  71 108 137 186 231 286 352 411
#     4  12  24  44  71 100 146 180 234 290 359 418
#     4  11  21  42  75  98 134 186 235 282 343 423
#     4  10  24  40  64  96 132 184 240 282 348 418
#     4  11  22  41  65  97 134 182 229 289 349 417
#     4  10  22  43  74 101 135 178 234 283 332 416
#
# _framework density 21.682390999999999
#
# number of rings (size 3 to 8) (size 9 to 14) (size 15 to 20)
#    0.000    1.200    3.000    3.000    1.400    0.800 
#    0.000    0.500   13.200    0.000    0.000    0.000 
#    0.000    0.000    0.000    0.000    0.000    0.000 
#
# Total GULP energy -495576.669317 kJ/mol
# GULP energy per Si atom -12389.416733 kJ/mol
# Density = 2.163304 g / cm^3
# Si number density = 21.682391 Si / 1000 Ang^3
#
#
#
# Elastic Constant Matrix: (Units=GPa)
#
#
# Indices 1 2 3 4 5 6 
#
# 1 151.2488 46.7547 53.6068 0.0000 0.0000 0.0000
# 2 46.7547 103.4527 30.8667 0.0000 0.0000 0.0000
# 3 53.6068 30.8667 115.7353 0.0000 0.0000 0.0000
# 4 0.0000 0.0000 0.0000 22.2599 0.0000 0.0000
# 5 0.0000 0.0000 0.0000 0.0000 19.8986 0.0000
# 6 0.0000 0.0000 0.0000 0.0000 0.0000 33.6235
#
#
#
# Elastic Compliance Matrix: (Units=1/GPa)
#
#
# Indices 1 2 3 4 5 6 
#
# 1 0.008669 -0.002955 -0.003227 0.000000 0.000000 0.000000
# 2 -0.002955 0.011509 -0.001701 0.000000 0.000000 0.000000
# 3 -0.003227 -0.001701 0.010589 0.000000 0.000000 0.000000
# 4 0.000000 0.000000 0.000000 0.044924 0.000000 0.000000
# 5 0.000000 0.000000 0.000000 0.000000 0.050255 0.000000
# 6 0.000000 0.000000 0.000000 0.000000 0.000000 0.029741
#
#
# Mechanical properties :
#
#
# Convention : Reuss Voigt Hill
#
# Bulk Modulus (GPa) = 66.66258 70.32147 68.49203
# Shear Modulus (GPa) = 28.33619 31.10364 29.71992
#
# Velocity S-wave (km/s) = 3.61900 3.79160 3.70630
# Velocity P-wave (km/s) = 6.94799 7.18827 7.06915
#
# Compressibility (1/GPa) = 0.01500092
#
# Stress axis : x y z
#
# Youngs Moduli (GPa) = 115.35510 86.88713 94.43933
#
# Poissons Ratio (x) = 0.25675 0.30478
# Poissons Ratio (y) = 0.34087 0.16062
# Poissons Ratio (z) = 0.37227 0.14778
#
# Static dielectric constant tensor:
#      x y z
#    x 3.995340 0.000000 0.000000 
#    y 0.000000 4.263280 0.000000 
#    z 0.000000 0.000000 3.932700 
# 
# 
# High freq. dielectric constant tensor:
#      x y z
#    x 1.838880 0.000000 0.000000 
#    y 0.000000 1.861530 0.000000 
#    z 0.000000 0.000000 1.856730 
# 
# From -- ./inp_files/55550.got.cif
#   From: 2010.03.12/outbox.cif.g09.slc.cpg/sg68_28_cif.got.tgz:55550.got - 2010.04.10 23:14:56.
