data_PCOD8283157
_publ_section_title
;
Structure prediction by ZEFSAII (Michael W. Deem and Ramdas Pophale) SiO2 
 PCOD8283157
Probable space group: C C C A
;
_chemical_formula_sum "Si O2"
_cell_formula_units_Z 112
_cell_length_a 17.390793
_cell_length_b 28.157482
_cell_length_c 10.984053
_cell_angle_alpha 90.000000
_cell_angle_beta 90.000000
_cell_angle_gamma 90.000000
_cell_volume 5378.681408
_symmetry_space_group_name_H-M "C C C A"
_symmetry_group_IT_number 68
_space_group.IT_coordinate_system_code '2'
_symmetry_cell_setting 'orthorhombic'
loop_
_space_group_symop_operation_xyz
x,y,z
-x,1/2-y,z
x,1/2-y,1/2-z
-x,y,1/2-z
-x,-y,-z
x,1/2+y,-z
-x,1/2+y,1/2+z
x,-y,1/2+z
1/2+x,1/2+y,z
1/2-x,-y,z
1/2+x,-y,1/2-z
1/2-x,1/2+y,1/2-z
1/2-x,1/2-y,-z
1/2+x,y,-z
1/2-x,y,1/2+z
1/2+x,1/2-y,1/2+z
loop_
_atom_site_type_symbol
_atom_site_label
_atom_site_fract_x
_atom_site_fract_y
_atom_site_fract_z
Si Si1 0.663991 0.364755 0.360736
Si Si2 0.082052 0.271603 0.070545
Si Si3 0.321327 0.685371 0.406924
Si Si4 0.842386 0.864892 0.667598
Si Si5 0.455888 0.445015 0.624110
Si Si6 0.045824 0.445143 0.625141
Si Si7 0.341624 0.707646 0.838083
O O1 0.636184 0.331016 0.470291
O O2 0.755561 0.367129 0.381131
O O3 0.625396 0.416224 0.369320
O O4 0.636412 0.339630 0.236629
O O5 0.142132 0.235472 0.131839
O O6 0.100658 0.324111 0.117984
O O7 0.000000 0.250000 0.106881
O O8 0.088817 0.275196 0.923368
O O9 0.336769 0.643278 0.311649
O O10 0.230496 0.694662 0.424201
O O11 0.878001 0.915054 0.629999
O O12 0.500000 0.433532 0.750000
O O13 0.431611 0.499829 0.619651
O O14 0.500970 0.431245 0.499509
O O15 0.000000 0.433883 0.750000
O O16 0.315846 0.750000 0.750000
#
# Coordination Sequence:
#
# PCOD8283157 Si02
#       7
#    16  16  16  16  16  16  16
#     4  11  23  40  66  92 126 168 215 266 325 384
#     4  12  26  39  59  92 128 165 217 263 311 382
#     4  11  22  42  61  87 125 168 207 261 317 378
#     4  11  25  39  65  94 125 167 220 262 321 390
#     4  10  23  45  67  95 132 168 212 271 336 398
#     4  10  24  43  69  96 128 171 214 271 337 395
#     4  11  22  40  62  85 125 172 211 257 319 379
#
# _framework density 20.822946999999999
#
# number of rings (size 3 to 8) (size 9 to 14) (size 15 to 20)
#    0.000    1.143    2.857    3.429    6.000    1.429 
#    0.000    0.000    0.000    6.857    0.000    0.000 
#    0.000    0.000    0.000    0.000    0.000    0.000 
#
# Total GULP energy -694161.612912 kJ/mol
# GULP energy per Si atom -12395.743088 kJ/mol
# Density = 2.077555 g / cm^3
# Si number density = 20.822947 Si / 1000 Ang^3
#
#
#
# Elastic Constant Matrix: (Units=GPa)
#
#
# Indices 1 2 3 4 5 6 
#
# 1 87.2113 47.9875 27.8856 0.0000 0.0000 0.0000
# 2 47.9875 95.7891 16.8654 0.0000 0.0000 0.0000
# 3 27.8856 16.8654 95.3106 0.0000 0.0000 0.0000
# 4 0.0000 0.0000 0.0000 26.5428 0.0000 0.0000
# 5 0.0000 0.0000 0.0000 0.0000 22.3361 0.0000
# 6 0.0000 0.0000 0.0000 0.0000 0.0000 41.5611
#
#
#
# Elastic Compliance Matrix: (Units=1/GPa)
#
#
# Indices 1 2 3 4 5 6 
#
# 1 0.016926 -0.007852 -0.003563 0.000000 0.000000 0.000000
# 2 -0.007852 0.014418 -0.000254 0.000000 0.000000 0.000000
# 3 -0.003563 -0.000254 0.011579 0.000000 0.000000 0.000000
# 4 0.000000 0.000000 0.000000 0.037675 0.000000 0.000000
# 5 0.000000 0.000000 0.000000 0.000000 0.044771 0.000000
# 6 0.000000 0.000000 0.000000 0.000000 0.000000 0.024061
#
#
# Mechanical properties :
#
#
# Convention : Reuss Voigt Hill
#
# Bulk Modulus (GPa) = 51.05746 51.53199 51.29473
# Shear Modulus (GPa) = 27.88675 30.45949 29.17312
#
# Velocity S-wave (km/s) = 3.66352 3.82879 3.74707
# Velocity P-wave (km/s) = 6.51676 6.65940 6.58847
#
# Compressibility (1/GPa) = 0.01958578
#
# Stress axis : x y z
#
# Youngs Moduli (GPa) = 59.07982 69.35740 86.36093
#
# Poissons Ratio (x) = 0.54461 0.30768
# Poissons Ratio (y) = 0.46391 0.02193
# Poissons Ratio (z) = 0.21049 0.01761
#
# Static dielectric constant tensor:
#      x y z
#    x 3.472240 0.000000 0.000000 
#    y 0.000000 3.690770 0.000000 
#    z 0.000000 0.000000 4.018510 
# 
# 
# High freq. dielectric constant tensor:
#      x y z
#    x 1.795420 0.000000 0.000000 
#    y 0.000000 1.813720 0.000000 
#    z 0.000000 0.000000 1.837160 
# 
# From -- ./inp_files/13610.got.cif
#   From: 2010.03.12/outbox.cif.g09.slc.cpg/sg68_7_cif.got.tgz:13610.got - 2010.04.10 23:14:56.
