data_PCOD8283280
_publ_section_title
;
Structure prediction by ZEFSAII (Michael W. Deem and Ramdas Pophale) SiO2 
 PCOD8283280
Probable space group: C C C A
;
_chemical_formula_sum "Si O2"
_cell_formula_units_Z 64
_cell_length_a 9.006127
_cell_length_b 27.210689
_cell_length_c 10.460652
_cell_angle_alpha 90.000000
_cell_angle_beta 90.000000
_cell_angle_gamma 90.000000
_cell_volume 2563.517934
_symmetry_space_group_name_H-M "C C C A"
_symmetry_group_IT_number 68
_space_group.IT_coordinate_system_code '2'
_symmetry_cell_setting 'orthorhombic'
loop_
_space_group_symop_operation_xyz
x,y,z
-x,1/2-y,z
x,1/2-y,1/2-z
-x,y,1/2-z
-x,-y,-z
x,1/2+y,-z
-x,1/2+y,1/2+z
x,-y,1/2+z
1/2+x,1/2+y,z
1/2-x,-y,z
1/2+x,-y,1/2-z
1/2-x,1/2+y,1/2-z
1/2-x,1/2-y,-z
1/2+x,y,-z
1/2-x,y,1/2+z
1/2+x,1/2-y,1/2+z
loop_
_atom_site_type_symbol
_atom_site_label
_atom_site_fract_x
_atom_site_fract_y
_atom_site_fract_z
Si Si1 0.250000 0.500000 0.382949
Si Si2 0.500000 0.943568 0.750000
Si Si3 0.379389 0.095136 0.502009
Si Si4 0.000000 0.250000 0.554926
Si Si5 0.268613 0.813506 0.396932
Si Si6 0.500000 0.137390 0.750000
O O1 0.369175 0.479859 0.285111
O O2 0.301219 0.543035 0.477467
O O3 0.531827 0.907781 0.630837
O O4 0.266276 0.140416 0.488802
O O5 0.486598 0.104244 0.623238
O O6 0.116890 0.283267 0.636872
O O7 0.103107 0.216880 0.466347
O O8 0.347673 0.830807 0.264807
#
# Coordination Sequence:
#
# PCOD8283280 Si02
#       6
#     8   8  16   8  16   8
#     4  12  26  46  82 120 156 208 266 336 396 480
#     4  12  27  50  78 114 164 212 266 318 405 484
#     4  12  26  50  79 118 160 212 266 333 398 483
#     4  10  24  51  81 114 160 209 265 326 414 479
#     4  11  24  50  78 117 164 210 260 334 403 484
#     4  12  25  47  80 117 170 207 264 335 401 474
#
# _framework density 24.965692000000001
#
# number of rings (size 3 to 8) (size 9 to 14) (size 15 to 20)
#    0.000    0.500    2.500    5.250    0.000    0.500 
#    0.000    1.250    0.000    0.000    0.000    0.000 
#    0.000    0.000    0.000    0.000    0.000    0.000 
#
# Total GULP energy -396704.100873 kJ/mol
# GULP energy per Si atom -12397.003152 kJ/mol
# Density = 2.490887 g / cm^3
# Si number density = 24.965692 Si / 1000 Ang^3
#
#
#
# Elastic Constant Matrix: (Units=GPa)
#
#
# Indices 1 2 3 4 5 6 
#
# 1 168.6530 77.1429 72.7366 0.0000 0.0000 0.0000
# 2 77.1429 158.2158 69.3795 0.0000 0.0000 0.0000
# 3 72.7366 69.3795 167.2028 0.0000 0.0000 0.0000
# 4 0.0000 0.0000 0.0000 -118.1070 0.0000 0.0000
# 5 0.0000 0.0000 0.0000 0.0000 64.8512 0.0000
# 6 0.0000 0.0000 0.0000 0.0000 0.0000 36.8900
#
#
#
# Elastic Compliance Matrix: (Units=1/GPa)
#
#
# Indices 1 2 3 4 5 6 
#
# 1 0.008335 -0.003024 -0.002371 0.000000 0.000000 0.000000
# 2 -0.003024 0.008824 -0.002346 0.000000 0.000000 0.000000
# 3 -0.002371 -0.002346 0.007986 0.000000 0.000000 0.000000
# 4 0.000000 0.000000 0.000000 -0.008467 0.000000 0.000000
# 5 0.000000 0.000000 0.000000 0.000000 0.015420 0.000000
# 6 0.000000 0.000000 0.000000 0.000000 0.000000 0.027108
#
#
# Mechanical properties :
#
#
# Convention : Reuss Voigt Hill
#
# Bulk Modulus (GPa) = 103.49496 103.62105 103.55801
# Shear Modulus (GPa) = 64.17808 15.04768 39.61288
#
# Velocity S-wave (km/s) = 5.07566 2.45773 3.98765
# Velocity P-wave (km/s) = 8.71175 7.04623 7.92288
#
# Compressibility (1/GPa) = 0.00966231
#
# Stress axis : x y z
#
# Youngs Moduli (GPa) = 119.97162 113.33095 125.22624
#
# Poissons Ratio (x) = 0.34276 0.29692
# Poissons Ratio (y) = 0.36284 0.29374
# Poissons Ratio (z) = 0.28446 0.26584
#
# Static dielectric constant tensor:
#      x y z
#    x 5.033060 0.000000 0.000000 
#    y 0.000000 4.865180 0.000000 
#    z 0.000000 0.000000 4.226360 
# 
# 
# High freq. dielectric constant tensor:
#      x y z
#    x 2.009740 0.000000 0.000000 
#    y 0.000000 2.010360 0.000000 
#    z 0.000000 0.000000 1.986180 
# 
# From -- ./inp_files/10828.got.cif
#   From: 2010.03.12/outbox.cif.g09.slc.cpg/sg68_6_cif.got.tgz:10828.got - 2010.04.10 23:14:56.
