data_PCOD8283721
_publ_section_title
;
Structure prediction by ZEFSAII (Michael W. Deem and Ramdas Pophale) SiO2 
 PCOD8283721
Probable space group: C C C A
;
_chemical_formula_sum "Si O2"
_cell_formula_units_Z 92
_cell_length_a 19.571090
_cell_length_b 18.868676
_cell_length_c 10.648648
_cell_angle_alpha 90.000000
_cell_angle_beta 90.000000
_cell_angle_gamma 90.000000
_cell_volume 3932.338656
_symmetry_space_group_name_H-M "C C C A"
_symmetry_group_IT_number 68
_space_group.IT_coordinate_system_code '2'
_symmetry_cell_setting 'orthorhombic'
loop_
_space_group_symop_operation_xyz
x,y,z
-x,1/2-y,z
x,1/2-y,1/2-z
-x,y,1/2-z
-x,-y,-z
x,1/2+y,-z
-x,1/2+y,1/2+z
x,-y,1/2+z
1/2+x,1/2+y,z
1/2-x,-y,z
1/2+x,-y,1/2-z
1/2-x,1/2+y,1/2-z
1/2-x,1/2-y,-z
1/2+x,y,-z
1/2-x,y,1/2+z
1/2+x,1/2-y,1/2+z
loop_
_atom_site_type_symbol
_atom_site_label
_atom_site_fract_x
_atom_site_fract_y
_atom_site_fract_z
Si Si1 0.328362 0.750000 0.750000
Si Si2 0.613297 0.001071 0.769944
Si Si3 0.916485 0.136446 0.398912
Si Si4 0.686737 0.458066 0.979954
Si Si5 0.437390 0.645271 0.674533
Si Si6 0.000000 0.250000 0.250000
Si Si7 0.757877 0.175450 0.433863
O O1 0.376775 0.703339 0.659195
O O2 0.280342 0.812138 0.697108
O O3 0.566129 0.065210 0.820975
O O4 0.633403 0.029587 0.631913
O O5 0.668256 0.989158 0.882101
O O6 0.577441 0.925424 0.755222
O O7 0.954039 0.124757 0.532031
O O8 0.834403 0.147057 0.412890
O O9 0.949804 0.204106 0.335013
O O10 0.750000 0.500000 0.925955
O O11 0.709809 0.376835 0.986783
O O12 0.500000 0.681162 0.750000
O O13 0.750000 0.250000 0.500000
#
# Coordination Sequence:
#
# PCOD8283721 Si02
#       7
#     8  16  16  16  16   4  16
#     4  12  26  44  74 112 146 196 248 324 380 450
#     4  12  26  48  74 113 153 198 256 316 384 456
#     4  12  29  52  75 114 150 211 254 319 394 460
#     4  12  25  44  75 113 156 194 246 322 390 460
#     4  12  28  49  77 109 150 206 268 307 374 466
#     4  12  34  52  74 102 168 202 258 322 380 466
#     4  12  26  44  76 111 154 193 255 312 398 462
#
# _framework density 23.395745000000002
#
# number of rings (size 3 to 8) (size 9 to 14) (size 15 to 20)
#    0.000    0.000    6.957    1.304    8.522    2.087 
#    0.000    0.000    0.000    0.000    0.000    0.000 
#    0.000    0.000    0.000    0.000    0.000    0.000 
#
# Total GULP energy -569902.845154 kJ/mol
# GULP energy per Si atom -12389.192286 kJ/mol
# Density = 2.334250 g / cm^3
# Si number density = 23.395745 Si / 1000 Ang^3
#
#
#
# Elastic Constant Matrix: (Units=GPa)
#
#
# Indices 1 2 3 4 5 6 
#
# 1 77.3245 17.6337 38.5432 0.0000 0.0000 0.0000
# 2 17.6337 135.9004 35.9220 0.0000 0.0000 0.0000
# 3 38.5432 35.9220 142.7594 0.0000 0.0000 0.0000
# 4 0.0000 0.0000 0.0000 79.4296 0.0000 0.0000
# 5 0.0000 0.0000 0.0000 0.0000 32.4668 0.0000
# 6 0.0000 0.0000 0.0000 0.0000 0.0000 29.3221
#
#
#
# Elastic Compliance Matrix: (Units=1/GPa)
#
#
# Indices 1 2 3 4 5 6 
#
# 1 0.015055 -0.000942 -0.003828 0.000000 0.000000 0.000000
# 2 -0.000942 0.007942 -0.001744 0.000000 0.000000 0.000000
# 3 -0.003828 -0.001744 0.008477 0.000000 0.000000 0.000000
# 4 0.000000 0.000000 0.000000 0.012590 0.000000 0.000000
# 5 0.000000 0.000000 0.000000 0.000000 0.030801 0.000000
# 6 0.000000 0.000000 0.000000 0.000000 0.000000 0.034104
#
#
# Mechanical properties :
#
#
# Convention : Reuss Voigt Hill
#
# Bulk Modulus (GPa) = 54.20988 60.02023 57.11506
# Shear Modulus (GPa) = 39.01853 45.83607 42.42730
#
# Velocity S-wave (km/s) = 4.08825 4.43104 4.26310
# Velocity P-wave (km/s) = 6.74583 7.20340 6.97836
#
# Compressibility (1/GPa) = 0.01844682
#
# Stress axis : x y z
#
# Youngs Moduli (GPa) = 66.42194 125.92057 117.96512
#
# Poissons Ratio (x) = 0.11858 0.45154
# Poissons Ratio (y) = 0.06255 0.20574
# Poissons Ratio (z) = 0.25425 0.21961
#
# Static dielectric constant tensor:
#      x y z
#    x 3.892700 0.000000 0.000000 
#    y 0.000000 4.785210 0.000000 
#    z 0.000000 0.000000 3.463620 
# 
# 
# High freq. dielectric constant tensor:
#      x y z
#    x 1.910690 0.000000 0.000000 
#    y 0.000000 1.953220 0.000000 
#    z 0.000000 0.000000 1.936010 
# 
# From -- ./inp_files/15470.got.cif
#   From: 2010.03.12/outbox.cif.g09.slc.cpg/sg68_8_cif.got.tgz:15470.got - 2010.04.10 23:14:56.
