data_PCOD8283990
_publ_section_title
;
Structure prediction by ZEFSAII (Michael W. Deem and Ramdas Pophale) SiO2 
 PCOD8283990
Probable space group: F M M M
;
_chemical_formula_sum "Si O2"
_cell_formula_units_Z 176
_cell_length_a 10.533176
_cell_length_b 27.816147
_cell_length_c 30.590195
_cell_angle_alpha 90.000000
_cell_angle_beta 90.000000
_cell_angle_gamma 90.000000
_cell_volume 8962.693793
_symmetry_space_group_name_H-M "F M M M"
_symmetry_group_IT_number 69
_symmetry_cell_setting 'orthorhombic'
loop_
_space_group_symop_operation_xyz
x,y,z
-x,-y,z
x,-y,-z
-x,y,-z
-x,-y,-z
x,y,-z
-x,y,z
x,-y,z
x,1/2+y,1/2+z
-x,1/2-y,1/2+z
x,1/2-y,1/2-z
-x,1/2+y,1/2-z
-x,1/2-y,1/2-z
x,1/2+y,1/2-z
-x,1/2+y,1/2+z
x,1/2-y,1/2+z
1/2+x,y,1/2+z
1/2-x,-y,1/2+z
1/2+x,-y,1/2-z
1/2-x,y,1/2-z
1/2-x,-y,1/2-z
1/2+x,y,1/2-z
1/2-x,y,1/2+z
1/2+x,-y,1/2+z
1/2+x,1/2+y,z
1/2-x,1/2-y,z
1/2+x,1/2-y,-z
1/2-x,1/2+y,-z
1/2-x,1/2-y,-z
1/2+x,1/2+y,-z
1/2-x,1/2+y,z
1/2+x,1/2-y,z
loop_
_atom_site_type_symbol
_atom_site_label
_atom_site_fract_x
_atom_site_fract_y
_atom_site_fract_z
Si Si1 0.643831 0.146096 0.047761
Si Si2 0.000000 0.443221 0.451587
Si Si3 0.643118 0.847817 0.217693
Si Si4 0.356060 0.947397 0.181427
Si Si5 0.760482 0.945169 0.412384
Si Si6 0.351611 0.291591 0.628530
O O1 0.500000 0.161477 0.042070
O O2 0.644460 0.090457 0.062854
O O3 0.699881 0.180824 0.085343
O O4 0.711684 0.152767 0.000000
O O5 0.121806 0.425762 0.425118
O O6 0.000000 0.500000 0.455285
O O7 0.000000 0.420150 0.500000
O O8 0.500000 0.836837 0.235400
O O9 0.750000 0.825428 0.250000
O O10 0.667818 0.905296 0.216244
O O11 0.658995 0.827484 0.169269
O O12 0.500000 0.944088 0.163679
O O13 0.266490 0.940964 0.139679
O O14 0.331544 0.000000 0.203271
O O15 0.787042 0.000000 0.427922
O O16 0.500000 0.274188 0.624239
O O17 0.250000 0.250000 0.637158
#
# Coordination Sequence:
#
# PCOD8283990 Si02
#       6
#    32  16  32  32  32  32
#     4  10  20  35  57  85 115 146 184 232 283 334
#     4   9  18  30  42  64 108 158 191 226 274 316
#     4  10  21  39  61  87 119 150 185 233 288 342
#     4   9  17  32  56  83 113 149 186 227 277 331
#     4  10  18  31  52  78 112 154 196 230 272 329
#     4  10  22  42  63  84 114 148 184 237 297 345
#
# _framework density 19.636952999999998
#
# number of rings (size 3 to 8) (size 9 to 14) (size 15 to 20)
#    0.000    2.273    1.818    1.091    0.000    4.000 
#    3.273    2.727    0.000    0.000    0.000    0.000 
#    0.000    0.000    0.000    0.000    0.000    0.000 
#
# Total GULP energy -545225.544855 kJ/mol
# GULP energy per Si atom -12391.489656 kJ/mol
# Density = 1.959226 g / cm^3
# Si number density = 19.636953 Si / 1000 Ang^3
#
#
#
# Elastic Constant Matrix: (Units=GPa)
#
#
# Indices 1 2 3 4 5 6 
#
# 1 82.4012 30.6955 39.7954 0.0000 0.0000 0.0000
# 2 30.6955 73.9413 16.8082 0.0000 0.0000 0.0000
# 3 39.7954 16.8082 80.9262 0.0000 0.0000 0.0000
# 4 0.0000 0.0000 0.0000 13.8143 0.0000 0.0000
# 5 0.0000 0.0000 0.0000 0.0000 28.6465 0.0000
# 6 0.0000 0.0000 0.0000 0.0000 0.0000 23.3677
#
#
#
# Elastic Compliance Matrix: (Units=1/GPa)
#
#
# Indices 1 2 3 4 5 6 
#
# 1 0.017956 -0.005717 -0.007643 0.000000 0.000000 0.000000
# 2 -0.005717 0.016015 -0.000515 0.000000 0.000000 0.000000
# 3 -0.007643 -0.000515 0.016222 0.000000 0.000000 0.000000
# 4 0.000000 0.000000 0.000000 0.072389 0.000000 0.000000
# 5 0.000000 0.000000 0.000000 0.000000 0.034908 0.000000
# 6 0.000000 0.000000 0.000000 0.000000 0.000000 0.042794
#
#
# Mechanical properties :
#
#
# Convention : Reuss Voigt Hill
#
# Bulk Modulus (GPa) = 44.55509 45.76300 45.15904
# Shear Modulus (GPa) = 21.23012 23.16369 22.19691
#
# Velocity S-wave (km/s) = 3.29162 3.43825 3.36574
# Velocity P-wave (km/s) = 6.09795 6.25438 6.17666
#
# Compressibility (1/GPa) = 0.02244413
#
# Stress axis : x y z
#
# Youngs Moduli (GPa) = 55.69052 62.44307 61.64419
#
# Poissons Ratio (x) = 0.35699 0.47112
# Poissons Ratio (y) = 0.31838 0.03174
# Poissons Ratio (z) = 0.42562 0.03215
#
# Static dielectric constant tensor:
#      x y z
#    x 3.656480 0.000000 0.000000 
#    y 0.000000 3.453730 0.000000 
#    z 0.000000 0.000000 3.573140 
# 
# 
# High freq. dielectric constant tensor:
#      x y z
#    x 1.751530 0.000000 0.000000 
#    y 0.000000 1.749450 0.000000 
#    z 0.000000 0.000000 1.759680 
# 
# From -- ./inp_files/10641.got.cif
#   From: 2010.03.12/outbox.cif.g09.slc.cpg/sg69_6_cif.got.tgz:10641.got - 2010.04.10 23:52:46.
