data_PCOD8283279
_publ_section_title
;
Structure prediction by ZEFSAII (Michael W. Deem and Ramdas Pophale) SiO2 
 PCOD8283279
Probable space group: C C C A
;
_chemical_formula_sum "Si O2"
_cell_formula_units_Z 64
_cell_length_a 26.734346
_cell_length_b 8.363160
_cell_length_c 11.354946
_cell_angle_alpha 90.000000
_cell_angle_beta 90.000000
_cell_angle_gamma 90.000000
_cell_volume 2538.779853
_symmetry_space_group_name_H-M "C C C A"
_symmetry_group_IT_number 68
_space_group.IT_coordinate_system_code '2'
_symmetry_cell_setting 'orthorhombic'
loop_
_space_group_symop_operation_xyz
x,y,z
-x,1/2-y,z
x,1/2-y,1/2-z
-x,y,1/2-z
-x,-y,-z
x,1/2+y,-z
-x,1/2+y,1/2+z
x,-y,1/2+z
1/2+x,1/2+y,z
1/2-x,-y,z
1/2+x,-y,1/2-z
1/2-x,1/2+y,1/2-z
1/2-x,1/2-y,-z
1/2+x,y,-z
1/2-x,y,1/2+z
1/2+x,1/2-y,1/2+z
loop_
_atom_site_type_symbol
_atom_site_label
_atom_site_fract_x
_atom_site_fract_y
_atom_site_fract_z
Si Si1 0.159009 0.998491 0.919543
Si Si2 0.129293 0.250000 0.250000
Si Si3 0.068646 0.023156 0.091729
Si Si4 0.250000 0.000000 0.589490
Si Si5 0.301917 0.250000 0.250000
Si Si6 0.500000 0.250000 0.053885
O O1 0.159767 0.143020 0.825937
O O2 0.164497 0.828165 0.850906
O O3 0.108262 0.979164 0.991089
O O4 0.203580 0.039350 0.007141
O O5 0.095290 0.102830 0.204199
O O6 0.031054 0.146358 0.036538
O O7 0.037321 0.863543 0.130911
O O8 0.264174 0.851634 0.670832
#
# Coordination Sequence:
#
# PCOD8283279 Si02
#       6
#    16   8  16   8   8   8
#     4  12  27  48  77 114 156 198 257 320 377 473
#     4  12  26  48  82 111 160 209 254 313 405 454
#     4  11  24  49  75 114 156 202 257 328 378 465
#     4  12  28  52  76 112 154 198 258 320 376 476
#     4  12  28  47  78 112 154 210 254 304 405 452
#     4  10  24  49  77 108 156 200 260 328 386 442
#
# _framework density 25.208960000000001
#
# number of rings (size 3 to 8) (size 9 to 14) (size 15 to 20)
#    0.000    0.500    2.500    4.500    3.500    7.500 
#    0.000    1.250    0.000    0.000    0.000    0.000 
#    0.000    0.000    0.000    0.000    0.000    0.000 
#
# Total GULP energy -396773.477988 kJ/mol
# GULP energy per Si atom -12399.171187 kJ/mol
# Density = 2.515158 g / cm^3
# Si number density = 25.208960 Si / 1000 Ang^3
#
#
#
# Elastic Constant Matrix: (Units=GPa)
#
#
# Indices 1 2 3 4 5 6 
#
# 1 115.3276 48.4007 38.7766 0.0000 0.0000 0.0000
# 2 48.4007 142.9923 50.3115 0.0000 0.0000 0.0000
# 3 38.7766 50.3115 111.4535 0.0000 0.0000 0.0000
# 4 0.0000 0.0000 0.0000 33.2454 0.0000 0.0000
# 5 0.0000 0.0000 0.0000 0.0000 17.7701 0.0000
# 6 0.0000 0.0000 0.0000 0.0000 0.0000 57.7347
#
#
#
# Elastic Compliance Matrix: (Units=1/GPa)
#
#
# Indices 1 2 3 4 5 6 
#
# 1 0.010650 -0.002736 -0.002470 0.000000 0.000000 0.000000
# 2 -0.002736 0.009017 -0.003118 0.000000 0.000000 0.000000
# 3 -0.002470 -0.003118 0.011240 0.000000 0.000000 0.000000
# 4 0.000000 0.000000 0.000000 0.030079 0.000000 0.000000
# 5 0.000000 0.000000 0.000000 0.000000 0.056274 0.000000
# 6 0.000000 0.000000 0.000000 0.000000 0.000000 0.017321
#
#
# Mechanical properties :
#
#
# Convention : Reuss Voigt Hill
#
# Bulk Modulus (GPa) = 70.14072 71.63901 70.88986
# Shear Modulus (GPa) = 32.05520 37.23568 34.64544
#
# Velocity S-wave (km/s) = 3.56979 3.84745 3.71122
# Velocity P-wave (km/s) = 6.69890 6.94384 6.82247
#
# Compressibility (1/GPa) = 0.01425705
#
# Stress axis : x y z
#
# Youngs Moduli (GPa) = 93.90018 110.90724 88.97178
#
# Poissons Ratio (x) = 0.30339 0.21979
# Poissons Ratio (y) = 0.25687 0.27745
# Poissons Ratio (z) = 0.23196 0.34586
#
# Static dielectric constant tensor:
#      x y z
#    x 4.635770 0.000000 0.000000 
#    y 0.000000 4.957020 0.000000 
#    z 0.000000 0.000000 4.721100 
# 
# 
# High freq. dielectric constant tensor:
#      x y z
#    x 2.014630 0.000000 0.000000 
#    y 0.000000 2.025980 0.000000 
#    z 0.000000 0.000000 2.003740 
# 
# From -- ./inp_files/10822.got.cif
#   From: 2010.03.12/outbox.cif.g09.slc.cpg/sg68_6_cif.got.tgz:10822.got - 2010.04.10 23:14:56.
