data_PCOD8283666
_publ_section_title
;
Structure prediction by ZEFSAII (Michael W. Deem and Ramdas Pophale) SiO2 
 PCOD8283666
Probable space group: C C C A
;
_chemical_formula_sum "Si O2"
_cell_formula_units_Z 112
_cell_length_a 14.177959
_cell_length_b 14.264847
_cell_length_c 24.489252
_cell_angle_alpha 90.000000
_cell_angle_beta 90.000000
_cell_angle_gamma 90.000000
_cell_volume 4952.863445
_symmetry_space_group_name_H-M "C C C A"
_symmetry_group_IT_number 68
_space_group.IT_coordinate_system_code '2'
_symmetry_cell_setting 'orthorhombic'
loop_
_space_group_symop_operation_xyz
x,y,z
-x,1/2-y,z
x,1/2-y,1/2-z
-x,y,1/2-z
-x,-y,-z
x,1/2+y,-z
-x,1/2+y,1/2+z
x,-y,1/2+z
1/2+x,1/2+y,z
1/2-x,-y,z
1/2+x,-y,1/2-z
1/2-x,1/2+y,1/2-z
1/2-x,1/2-y,-z
1/2+x,y,-z
1/2-x,y,1/2+z
1/2+x,1/2-y,1/2+z
loop_
_atom_site_type_symbol
_atom_site_label
_atom_site_fract_x
_atom_site_fract_y
_atom_site_fract_z
Si Si1 0.972429 0.511582 0.618198
Si Si2 0.352584 0.859664 0.385487
Si Si3 0.104630 0.990268 0.230388
Si Si4 0.726916 0.895135 0.999242
Si Si5 0.030470 0.653760 0.457354
Si Si6 0.241958 0.855233 0.771079
Si Si7 0.900347 0.672852 0.556595
O O1 0.912752 0.464549 0.666948
O O2 0.010797 0.433343 0.576012
O O3 0.894588 0.579484 0.592066
O O4 0.065241 0.570254 0.635149
O O5 0.293654 0.898280 0.436441
O O6 0.279945 0.851463 0.335438
O O7 0.400720 0.761213 0.402508
O O8 0.156177 0.904421 0.261416
O O9 0.000000 0.009354 0.250000
O O10 0.164016 0.085945 0.237535
O O11 0.750000 0.000000 0.980212
O O12 0.642157 0.855957 0.962436
O O13 0.813070 0.824567 0.985651
O O14 0.000000 0.750000 0.426771
O O15 0.995020 0.660870 0.520156
O O16 0.244836 0.750000 0.750000
#
# Coordination Sequence:
#
# PCOD8283666 Si02
#       7
#    16  16  16  16  16  16  16
#     4  12  24  46  77 103 146 203 243 301 386 440
#     4  12  25  45  77 106 144 197 248 303 375 446
#     4  11  26  51  75 109 149 186 251 326 371 444
#     4  12  25  43  71 105 154 196 237 300 374 443
#     4  12  25  46  68 108 152 192 245 299 358 464
#     4  11  27  51  78 108 145 190 259 316 377 445
#     4  12  24  45  71 114 154 193 244 307 365 461
#
# _framework density 22.613181999999998
#
# number of rings (size 3 to 8) (size 9 to 14) (size 15 to 20)
#    0.000    0.286    5.714    3.000    2.000    5.143 
#    2.571    0.000    0.000    0.000    0.000    0.000 
#    0.000    0.000    0.000    0.000    0.000    0.000 
#
# Total GULP energy -694315.366154 kJ/mol
# GULP energy per Si atom -12398.488681 kJ/mol
# Density = 2.256171 g / cm^3
# Si number density = 22.613182 Si / 1000 Ang^3
#
#
#
# Elastic Constant Matrix: (Units=GPa)
#
#
# Indices 1 2 3 4 5 6 
#
# 1 96.6027 31.4016 8.7391 0.0000 0.0000 0.0000
# 2 31.4016 157.1379 34.2276 0.0000 0.0000 0.0000
# 3 8.7391 34.2276 86.2626 0.0000 0.0000 0.0000
# 4 0.0000 0.0000 0.0000 34.6736 0.0000 0.0000
# 5 0.0000 0.0000 0.0000 0.0000 43.0479 0.0000
# 6 0.0000 0.0000 0.0000 0.0000 0.0000 35.8636
#
#
#
# Elastic Compliance Matrix: (Units=1/GPa)
#
#
# Indices 1 2 3 4 5 6 
#
# 1 0.011076 -0.002155 -0.000267 0.000000 0.000000 0.000000
# 2 -0.002155 0.007385 -0.002712 0.000000 0.000000 0.000000
# 3 -0.000267 -0.002712 0.012696 0.000000 0.000000 0.000000
# 4 0.000000 0.000000 0.000000 0.028840 0.000000 0.000000
# 5 0.000000 0.000000 0.000000 0.000000 0.023230 0.000000
# 6 0.000000 0.000000 0.000000 0.000000 0.000000 0.027883
#
#
# Mechanical properties :
#
#
# Convention : Reuss Voigt Hill
#
# Bulk Modulus (GPa) = 47.87252 54.30445 51.08849
# Shear Modulus (GPa) = 38.95827 40.42603 39.69215
#
# Velocity S-wave (km/s) = 4.15518 4.23273 4.19413
# Velocity P-wave (km/s) = 6.65108 6.92493 6.78938
#
# Compressibility (1/GPa) = 0.02088881
#
# Stress axis : x y z
#
# Youngs Moduli (GPa) = 90.28181 135.40468 78.76727
#
# Poissons Ratio (x) = 0.29184 0.02103
# Poissons Ratio (y) = 0.19459 0.21362
# Poissons Ratio (z) = 0.02410 0.36722
#
# Static dielectric constant tensor:
#      x y z
#    x 4.076970 0.000000 0.000000 
#    y 0.000000 4.294690 0.000000 
#    z 0.000000 0.000000 4.228190 
# 
# 
# High freq. dielectric constant tensor:
#      x y z
#    x 1.899250 0.000000 0.000000 
#    y 0.000000 1.903880 0.000000 
#    z 0.000000 0.000000 1.882460 
# 
# From -- ./inp_files/45557.got.cif
#   From: 2010.03.12/outbox.cif.g09.slc.cpg/sg68_23_cif.got.tgz:45557.got - 2010.04.10 23:14:56.
