data_PCOD8283067
_publ_section_title
;
Structure prediction by ZEFSAII (Michael W. Deem and Ramdas Pophale) SiO2 
 PCOD8283067
Probable space group: C C C A
;
_chemical_formula_sum "Si O2"
_cell_formula_units_Z 88
_cell_length_a 5.503114
_cell_length_b 21.524080
_cell_length_c 32.544873
_cell_angle_alpha 90.000000
_cell_angle_beta 90.000000
_cell_angle_gamma 90.000000
_cell_volume 3854.922827
_symmetry_space_group_name_H-M "C C C A"
_symmetry_group_IT_number 68
_space_group.IT_coordinate_system_code '2'
_symmetry_cell_setting 'orthorhombic'
loop_
_space_group_symop_operation_xyz
x,y,z
-x,1/2-y,z
x,1/2-y,1/2-z
-x,y,1/2-z
-x,-y,-z
x,1/2+y,-z
-x,1/2+y,1/2+z
x,-y,1/2+z
1/2+x,1/2+y,z
1/2-x,-y,z
1/2+x,-y,1/2-z
1/2-x,1/2+y,1/2-z
1/2-x,1/2-y,-z
1/2+x,y,-z
1/2-x,y,1/2+z
1/2+x,1/2-y,1/2+z
loop_
_atom_site_type_symbol
_atom_site_label
_atom_site_fract_x
_atom_site_fract_y
_atom_site_fract_z
Si Si1 0.000000 0.750000 0.870980
Si Si2 0.439258 0.453819 0.632835
Si Si3 0.002212 0.323220 0.977612
Si Si4 0.750000 0.000000 0.297468
Si Si5 0.000000 0.395323 0.750000
Si Si6 0.221421 0.860929 0.102549
Si Si7 0.656166 0.840266 0.668231
O O1 0.086205 0.695723 0.902454
O O2 0.220611 0.773553 0.841507
O O3 0.250000 0.500000 0.609412
O O4 0.518818 0.492581 0.672910
O O5 0.658479 0.430460 0.603005
O O6 0.332127 0.390139 0.648480
O O7 0.022406 0.357645 0.933621
O O8 0.000000 0.250000 0.970517
O O9 0.245123 0.344235 0.002751
O O10 0.792608 0.939461 0.269559
O O11 0.875385 0.350123 0.783185
O O12 0.104392 0.848687 0.147008
#
# Coordination Sequence:
#
# PCOD8283067 Si02
#       7
#     8  16  16   8   8  16  16
#     4  10  24  40  63  88 126 178 222 266 324 415
#     4  11  21  40  65  96 122 169 217 277 341 401
#     4  10  23  39  67 104 138 176 228 289 346 411
#     4  12  22  42  62  96 126 158 222 290 338 396
#     4  12  22  38  65  88 130 163 218 286 342 388
#     4  11  23  42  67  92 136 173 221 270 344 417
#     4  11  23  40  62  90 126 175 220 273 337 396
#
# _framework density 22.827953000000001
#
# number of rings (size 3 to 8) (size 9 to 14) (size 15 to 20)
#    0.000    1.091    3.636    2.727    8.909    0.000 
#    0.000    2.727    0.000    1.091    0.000    0.000 
#    0.000    0.000    0.000    0.000    0.000    0.000 
#
# Total GULP energy -545490.779859 kJ/mol
# GULP energy per Si atom -12397.517724 kJ/mol
# Density = 2.277600 g / cm^3
# Si number density = 22.827953 Si / 1000 Ang^3
#
#
#
# Elastic Constant Matrix: (Units=GPa)
#
#
# Indices 1 2 3 4 5 6 
#
# 1 112.8145 35.6439 31.5618 0.0000 0.0000 0.0000
# 2 35.6439 73.6472 38.1965 0.0000 0.0000 0.0000
# 3 31.5618 38.1965 97.1549 0.0000 0.0000 0.0000
# 4 0.0000 0.0000 0.0000 27.6004 0.0000 0.0000
# 5 0.0000 0.0000 0.0000 0.000072671.3904 0.0000
# 6 0.0000 0.0000 0.0000 0.0000 0.0000 46.7397
#
#
#
# Elastic Compliance Matrix: (Units=1/GPa)
#
#
# Indices 1 2 3 4 5 6 
#
# 1 0.010712 -0.004245 -0.001811 0.000000 0.000000 0.000000
# 2 -0.004245 0.018738 -0.005988 0.000000 0.000000 0.000000
# 3 -0.001811 -0.005988 0.013235 0.000000 0.000000 0.000000
# 4 0.000000 0.000000 0.000000 0.036231 0.000000 0.000000
# 5 0.000000 0.000000 0.000000 0.000000 0.000014 0.000000
# 6 0.000000 0.000000 0.000000 0.000000 0.000000 0.021395
#
#
# Mechanical properties :
#
#
# Convention : Reuss Voigt Hill
#
# Bulk Modulus (GPa) = 53.77021 54.93569 54.35295
# Shear Modulus (GPa) = 38.28093 14561.02705 7299.65399
#
# Velocity S-wave (km/s) = 4.09948 79.95275 56.60940
# Velocity P-wave (km/s) = 6.78331 92.45201 65.54917
#
# Compressibility (1/GPa) = 0.01859766
#
# Stress axis : x y z
#
# Youngs Moduli (GPa) = 93.35304 53.36621 75.55558
#
# Poissons Ratio (x) = 0.22655 0.13682
# Poissons Ratio (y) = 0.39630 0.45242
# Poissons Ratio (z) = 0.16905 0.31955
#
# Static dielectric constant tensor:
#      x y z
#    x 4.089470 0.000000 0.000000 
#    y 0.000000 2.880520 0.000000 
#    z 0.000000 0.000000 3.870140 
# 
# 
# High freq. dielectric constant tensor:
#      x y z
#    x 1.917180 0.000000 0.000000 
#    y 0.000000 1.890650 0.000000 
#    z 0.000000 0.000000 1.869360 
# 
# From -- ./inp_files/53296.got.cif
#   From: 2010.03.12/outbox.cif.g09.slc.cpg/sg68_27_cif.got.tgz:53296.got - 2010.04.10 23:14:56.
