data_PCOD8283648
_publ_section_title
;
Structure prediction by ZEFSAII (Michael W. Deem and Ramdas Pophale) SiO2 
 PCOD8283648
Probable space group: C C C A
;
_chemical_formula_sum "Si O2"
_cell_formula_units_Z 56
_cell_length_a 10.791962
_cell_length_b 16.205459
_cell_length_c 12.675906
_cell_angle_alpha 90.000000
_cell_angle_beta 90.000000
_cell_angle_gamma 90.000000
_cell_volume 2216.872693
_symmetry_space_group_name_H-M "C C C A"
_symmetry_group_IT_number 68
_space_group.IT_coordinate_system_code '2'
_symmetry_cell_setting 'orthorhombic'
loop_
_space_group_symop_operation_xyz
x,y,z
-x,1/2-y,z
x,1/2-y,1/2-z
-x,y,1/2-z
-x,-y,-z
x,1/2+y,-z
-x,1/2+y,1/2+z
x,-y,1/2+z
1/2+x,1/2+y,z
1/2-x,-y,z
1/2+x,-y,1/2-z
1/2-x,1/2+y,1/2-z
1/2-x,1/2-y,-z
1/2+x,y,-z
1/2-x,y,1/2+z
1/2+x,1/2-y,1/2+z
loop_
_atom_site_type_symbol
_atom_site_label
_atom_site_fract_x
_atom_site_fract_y
_atom_site_fract_z
Si Si1 0.349888 0.213401 0.639898
Si Si2 0.071194 0.122623 0.443885
Si Si3 0.895411 0.623483 0.176446
Si Si4 0.750000 0.000000 0.682551
O O1 0.398343 0.250000 0.750000
O O2 0.364198 0.286699 0.554450
O O3 0.435292 0.133572 0.610163
O O4 0.207920 0.190106 0.649504
O O5 0.049393 0.092209 0.564263
O O6 0.163810 0.059624 0.386836
O O7 0.842964 0.547663 0.242014
O O8 0.000000 0.665424 0.250000
#
# Coordination Sequence:
#
# PCOD8283648 Si02
#       4
#    16  16  16   8
#     4  11  25  51  81 107 156 209 260 312 394 466
#     4  11  26  51  80 109 157 210 251 322 394 459
#     4  12  30  47  78 118 151 197 267 325 375 468
#     4  12  28  50  78 112 164 200 256 322 396 466
#
# _framework density 25.260809999999999
#
# number of rings (size 3 to 8) (size 9 to 14) (size 15 to 20)
#    0.000    0.571    2.857    3.429    8.000    6.286 
#    0.000    0.000    0.000    0.000    0.000    0.000 
#    0.000    0.000    0.000    0.000    0.000    0.000 
#
# Total GULP energy -347112.619681 kJ/mol
# GULP energy per Si atom -12396.879274 kJ/mol
# Density = 2.520332 g / cm^3
# Si number density = 25.260810 Si / 1000 Ang^3
#
#
#
# Elastic Constant Matrix: (Units=GPa)
#
#
# Indices 1 2 3 4 5 6 
#
# 1 179.8011 46.8726 70.4631 0.0000 0.0000 0.0000
# 2 46.8726 82.4578 39.9881 0.0000 0.0000 0.0000
# 3 70.4631 39.9881 210.0144 0.0000 0.0000 0.0000
# 4 0.0000 0.0000 0.0000 59.3410 0.0000 0.0000
# 5 0.0000 0.0000 0.0000 0.0000 50.0223 0.0000
# 6 0.0000 0.0000 0.0000 0.0000 0.0000 45.9887
#
#
#
# Elastic Compliance Matrix: (Units=1/GPa)
#
#
# Indices 1 2 3 4 5 6 
#
# 1 0.007082 -0.003166 -0.001773 0.000000 0.000000 0.000000
# 2 -0.003166 0.014776 -0.001751 0.000000 0.000000 0.000000
# 3 -0.001773 -0.001751 0.005690 0.000000 0.000000 0.000000
# 4 0.000000 0.000000 0.000000 0.016852 0.000000 0.000000
# 5 0.000000 0.000000 0.000000 0.000000 0.019991 0.000000
# 6 0.000000 0.000000 0.000000 0.000000 0.000000 0.021744
#
#
# Mechanical properties :
#
#
# Convention : Reuss Voigt Hill
#
# Bulk Modulus (GPa) = 70.58431 87.43567 79.00999
# Shear Modulus (GPa) = 47.96681 52.06704 50.01692
#
# Velocity S-wave (km/s) = 4.36232 4.54495 4.45457
# Velocity P-wave (km/s) = 7.30589 7.88862 7.60284
#
# Compressibility (1/GPa) = 0.01416745
#
# Stress axis : x y z
#
# Youngs Moduli (GPa) = 141.20452 67.67615 175.74611
#
# Poissons Ratio (x) = 0.21424 0.31166
# Poissons Ratio (y) = 0.44701 0.30779
# Poissons Ratio (z) = 0.25040 0.11853
#
# Static dielectric constant tensor:
#      x y z
#    x 4.879480 0.000000 0.000000 
#    y 0.000000 4.622140 0.000000 
#    z 0.000000 0.000000 4.921010 
# 
# 
# High freq. dielectric constant tensor:
#      x y z
#    x 2.027280 0.000000 0.000000 
#    y 0.000000 1.992360 0.000000 
#    z 0.000000 0.000000 2.024730 
# 
# From -- ./inp_files/20125.got.cif
#   From: 2010.03.12/outbox.cif.g09.slc.cpg/sg68_11_cif.got.tgz:20125.got - 2010.04.10 23:14:56.
