data_PCOD8283662
_publ_section_title
;
Structure prediction by ZEFSAII (Michael W. Deem and Ramdas Pophale) SiO2 
 PCOD8283662
Probable space group: C C C A
;
_chemical_formula_sum "Si O2"
_cell_formula_units_Z 64
_cell_length_a 13.798477
_cell_length_b 16.020698
_cell_length_c 11.384527
_cell_angle_alpha 90.000000
_cell_angle_beta 90.000000
_cell_angle_gamma 90.000000
_cell_volume 2516.677574
_symmetry_space_group_name_H-M "C C C A"
_symmetry_group_IT_number 68
_space_group.IT_coordinate_system_code '2'
_symmetry_cell_setting 'orthorhombic'
loop_
_space_group_symop_operation_xyz
x,y,z
-x,1/2-y,z
x,1/2-y,1/2-z
-x,y,1/2-z
-x,-y,-z
x,1/2+y,-z
-x,1/2+y,1/2+z
x,-y,1/2+z
1/2+x,1/2+y,z
1/2-x,-y,z
1/2+x,-y,1/2-z
1/2-x,1/2+y,1/2-z
1/2-x,1/2-y,-z
1/2+x,y,-z
1/2-x,y,1/2+z
1/2+x,1/2-y,1/2+z
loop_
_atom_site_type_symbol
_atom_site_label
_atom_site_fract_x
_atom_site_fract_y
_atom_site_fract_z
Si Si1 0.533292 0.395564 0.864760
Si Si2 0.348687 0.829701 0.567364
Si Si3 0.854831 0.351108 0.983356
Si Si4 0.153416 0.456199 0.734115
O O1 0.500000 0.340709 0.750000
O O2 0.440421 0.402012 0.951485
O O3 0.568016 0.481820 0.803914
O O4 0.621483 0.357704 0.936471
O O5 0.231497 0.830269 0.574595
O O6 0.390668 0.735476 0.578136
O O7 0.389406 0.891883 0.667509
O O8 0.811972 0.407989 0.881267
O O9 0.250000 0.500000 0.786939
#
# Coordination Sequence:
#
# PCOD8283662 Si02
#       4
#    16  16  16  16
#     4  12  28  47  78 112 151 197 261 317 387 462
#     4  11  27  49  75 108 157 204 254 323 388 468
#     4  11  26  49  75 111 154 205 259 315 393 463
#     4  12  26  46  77 112 155 200 258 321 385 462
#
# _framework density 25.430353
#
# number of rings (size 3 to 8) (size 9 to 14) (size 15 to 20)
#    0.000    0.500    2.500    3.750   10.500    2.000 
#    0.000    2.500    0.000    0.000    0.000    0.000 
#    0.000    0.000    0.000    0.000    0.000    0.000 
#
# Total GULP energy -396575.858462 kJ/mol
# GULP energy per Si atom -12392.995577 kJ/mol
# Density = 2.537247 g / cm^3
# Si number density = 25.430353 Si / 1000 Ang^3
#
#
#
# Elastic Constant Matrix: (Units=GPa)
#
#
# Indices 1 2 3 4 5 6 
#
# 1 115.3934 39.9827 31.3776 0.0000 0.0000 0.0000
# 2 39.9827 123.8407 44.9490 0.0000 0.0000 0.0000
# 3 31.3776 44.9490 111.7031 0.0000 0.0000 0.0000
# 4 0.0000 0.0000 0.0000 36.0370 0.0000 0.0000
# 5 0.0000 0.0000 0.0000 0.0000 44.7307 0.0000
# 6 0.0000 0.0000 0.0000 0.0000 0.0000 21.5062
#
#
#
# Elastic Compliance Matrix: (Units=1/GPa)
#
#
# Indices 1 2 3 4 5 6 
#
# 1 0.010050 -0.002600 -0.001777 0.000000 0.000000 0.000000
# 2 -0.002600 0.010128 -0.003345 0.000000 0.000000 0.000000
# 3 -0.001777 -0.003345 0.010798 0.000000 0.000000 0.000000
# 4 0.000000 0.000000 0.000000 0.027749 0.000000 0.000000
# 5 0.000000 0.000000 0.000000 0.000000 0.022356 0.000000
# 6 0.000000 0.000000 0.000000 0.000000 0.000000 0.046498
#
#
# Mechanical properties :
#
#
# Convention : Reuss Voigt Hill
#
# Bulk Modulus (GPa) = 64.38350 64.83956 64.61153
# Shear Modulus (GPa) = 33.73800 36.09666 34.91733
#
# Velocity S-wave (km/s) = 3.64632 3.77162 3.70950
# Velocity P-wave (km/s) = 6.56506 6.67226 6.61888
#
# Compressibility (1/GPa) = 0.01553193
#
# Stress axis : x y z
#
# Youngs Moduli (GPa) = 99.50279 98.73163 92.61299
#
# Poissons Ratio (x) = 0.25668 0.16457
# Poissons Ratio (y) = 0.25868 0.30983
# Poissons Ratio (z) = 0.17681 0.33030
#
# Static dielectric constant tensor:
#      x y z
#    x 4.335930 0.000000 0.000000 
#    y 0.000000 4.638770 0.000000 
#    z 0.000000 0.000000 4.698920 
# 
# 
# High freq. dielectric constant tensor:
#      x y z
#    x 2.025570 0.000000 0.000000 
#    y 0.000000 2.008180 0.000000 
#    z 0.000000 0.000000 2.016560 
# 
# From -- ./inp_files/12785.got.cif
#   From: 2010.03.12/outbox.cif.g09.slc.cpg/sg68_7_cif.got.tgz:12785.got - 2010.04.10 23:14:56.
