data_PCOD8283665
_publ_section_title
;
Structure prediction by ZEFSAII (Michael W. Deem and Ramdas Pophale) SiO2 
 PCOD8283665
Probable space group: C C C A
;
_chemical_formula_sum "Si O2"
_cell_formula_units_Z 64
_cell_length_a 11.759827
_cell_length_b 14.329470
_cell_length_c 15.154260
_cell_angle_alpha 90.000000
_cell_angle_beta 90.000000
_cell_angle_gamma 90.000000
_cell_volume 2553.675998
_symmetry_space_group_name_H-M "C C C A"
_symmetry_group_IT_number 68
_space_group.IT_coordinate_system_code '2'
_symmetry_cell_setting 'orthorhombic'
loop_
_space_group_symop_operation_xyz
x,y,z
-x,1/2-y,z
x,1/2-y,1/2-z
-x,y,1/2-z
-x,-y,-z
x,1/2+y,-z
-x,1/2+y,1/2+z
x,-y,1/2+z
1/2+x,1/2+y,z
1/2-x,-y,z
1/2+x,-y,1/2-z
1/2-x,1/2+y,1/2-z
1/2-x,1/2-y,-z
1/2+x,y,-z
1/2-x,y,1/2+z
1/2+x,1/2-y,1/2+z
loop_
_atom_site_type_symbol
_atom_site_label
_atom_site_fract_x
_atom_site_fract_y
_atom_site_fract_z
Si Si1 0.734701 0.153564 0.306923
Si Si2 0.960743 0.650058 0.065107
Si Si3 0.868147 0.019169 0.663947
Si Si4 0.485156 0.354840 0.861378
O O1 0.737479 0.250000 0.250000
O O2 0.667561 0.152836 0.399620
O O3 0.668945 0.076221 0.249955
O O4 0.855486 0.117854 0.343343
O O5 0.038736 0.570453 0.106461
O O6 0.000000 0.750000 0.097556
O O7 0.970645 0.635816 0.961187
O O8 0.750000 0.000000 0.610219
O O9 0.925678 0.920095 0.693205
O O10 0.500000 0.250000 0.827243
#
# Coordination Sequence:
#
# PCOD8283665 Si02
#       4
#    16  16  16  16
#     4  12  27  50  84 114 158 208 269 329 397 469
#     4  11  26  50  83 115 158 208 266 324 396 468
#     4  12  28  47  79 118 159 202 266 324 393 466
#     4  11  29  52  81 118 163 207 263 324 402 472
#
# _framework density 25.061910999999998
#
# number of rings (size 3 to 8) (size 9 to 14) (size 15 to 20)
#    0.000    0.500    2.500    3.000   10.500    4.500 
#    0.000    0.000    0.000    0.000    0.000    0.000 
#    0.000    0.000    0.000    0.000    0.000    0.000 
#
# Total GULP energy -396449.685410 kJ/mol
# GULP energy per Si atom -12389.052669 kJ/mol
# Density = 2.500487 g / cm^3
# Si number density = 25.061911 Si / 1000 Ang^3
#
#
#
# Elastic Constant Matrix: (Units=GPa)
#
#
# Indices 1 2 3 4 5 6 
#
# 1 211.5176 64.0885 74.0901 0.0000 0.0000 0.0000
# 2 64.0885 170.5646 24.0798 0.0000 0.0000 0.0000
# 3 74.0901 24.0798 150.9817 0.0000 0.0000 0.0000
# 4 0.0000 0.0000 0.0000 55.5056 0.0000 0.0000
# 5 0.0000 0.0000 0.0000 0.0000 43.3357 0.0000
# 6 0.0000 0.0000 0.0000 0.0000 0.0000 46.7946
#
#
#
# Elastic Compliance Matrix: (Units=1/GPa)
#
#
# Indices 1 2 3 4 5 6 
#
# 1 0.006298 -0.001975 -0.002776 0.000000 0.000000 0.000000
# 2 -0.001975 0.006617 -0.000086 0.000000 0.000000 0.000000
# 3 -0.002776 -0.000086 0.007999 0.000000 0.000000 0.000000
# 4 0.000000 0.000000 0.000000 0.018016 0.000000 0.000000
# 5 0.000000 0.000000 0.000000 0.000000 0.023076 0.000000
# 6 0.000000 0.000000 0.000000 0.000000 0.000000 0.021370
#
#
# Mechanical properties :
#
#
# Convention : Reuss Voigt Hill
#
# Bulk Modulus (GPa) = 88.95991 95.28674 92.12332
# Shear Modulus (GPa) = 51.65445 53.84757 52.75101
#
# Velocity S-wave (km/s) = 4.54483 4.64031 4.59282
# Velocity P-wave (km/s) = 7.94442 8.17392 8.05999
#
# Compressibility (1/GPa) = 0.01124102
#
# Stress axis : x y z
#
# Youngs Moduli (GPa) = 158.77147 151.12487 125.01197
#
# Poissons Ratio (x) = 0.29842 0.34701
# Poissons Ratio (y) = 0.31352 0.01079
# Poissons Ratio (z) = 0.44072 0.01304
#
# Static dielectric constant tensor:
#      x y z
#    x 5.227510 0.000000 0.000000 
#    y 0.000000 4.867210 0.000000 
#    z 0.000000 0.000000 4.473610 
# 
# 
# High freq. dielectric constant tensor:
#      x y z
#    x 2.023550 0.000000 0.000000 
#    y 0.000000 2.022470 0.000000 
#    z 0.000000 0.000000 2.003570 
# 
# From -- ./inp_files/29154.got.cif
#   From: 2010.03.12/outbox.cif.g09.slc.cpg/sg68_15_cif.got.tgz:29154.got - 2010.04.10 23:14:56.
