data_PCOD8283431
_publ_section_title
;
Structure prediction by ZEFSAII (Michael W. Deem and Ramdas Pophale) SiO2 
 PCOD8283431
Probable space group: C C C A
;
_chemical_formula_sum "Si O2"
_cell_formula_units_Z 96
_cell_length_a 15.150666
_cell_length_b 19.026748
_cell_length_c 17.312322
_cell_angle_alpha 90.000000
_cell_angle_beta 90.000000
_cell_angle_gamma 90.000000
_cell_volume 4990.586777
_symmetry_space_group_name_H-M "C C C A"
_symmetry_group_IT_number 68
_space_group.IT_coordinate_system_code '2'
_symmetry_cell_setting 'orthorhombic'
loop_
_space_group_symop_operation_xyz
x,y,z
-x,1/2-y,z
x,1/2-y,1/2-z
-x,y,1/2-z
-x,-y,-z
x,1/2+y,-z
-x,1/2+y,1/2+z
x,-y,1/2+z
1/2+x,1/2+y,z
1/2-x,-y,z
1/2+x,-y,1/2-z
1/2-x,1/2+y,1/2-z
1/2-x,1/2-y,-z
1/2+x,y,-z
1/2-x,y,1/2+z
1/2+x,1/2-y,1/2+z
loop_
_atom_site_type_symbol
_atom_site_label
_atom_site_fract_x
_atom_site_fract_y
_atom_site_fract_z
Si Si1 0.404199 0.326056 0.780666
Si Si2 0.250000 0.418980 0.034941
Si Si3 0.750000 0.081556 0.216577
Si Si4 0.348392 0.311217 0.947515
Si Si5 0.404199 0.826056 0.719334
Si Si6 0.848392 0.688783 0.052485
O O1 0.374208 0.250000 0.750000
O O2 0.500000 0.347169 0.750000
O O3 0.336598 0.384809 0.753340
O O4 0.409384 0.324859 0.873686
O O5 0.250000 0.500000 0.011838
O O6 0.250000 0.406415 0.125673
O O7 0.337640 0.382524 0.998374
O O8 0.162360 0.382524 0.998374
O O9 0.663402 0.115191 0.253340
O O10 0.750000 0.000000 0.238585
O O11 0.250000 0.286005 0.919696
O O12 0.391666 0.250000 1.000000
O O13 0.374208 0.750000 0.750000
O O14 0.500000 0.847169 0.750000
O O15 0.409384 0.824859 0.626314
#
# Coordination Sequence:
#
# PCOD8283431 Si02
#       6
#    16  16  16  16  16  16
#     4  11  23  38  60  91 122 155 197 251 303 355
#     4   9  18  33  56  83 107 151 202 241 292 343
#     4  11  22  39  62  85 121 163 204 249 294 359
#     4   9  18  34  59  84 110 156 195 242 291 349
#     4  11  23  38  60  91 122 155 197 251 303 355
#     4   9  18  34  59  84 110 156 195 242 291 349
#
# _framework density 19.236215999999999
#
# number of rings (size 3 to 8) (size 9 to 14) (size 15 to 20)
#    1.000    1.000    1.667    2.500    0.000    3.333 
#    0.000   11.667    0.000    4.000    0.000    0.000 
#    0.000    0.000    0.000    0.000    0.000    0.000 
#
# Total GULP energy -595097.148867 kJ/mol
# GULP energy per Si atom -12397.857268 kJ/mol
# Density = 1.919243 g / cm^3
# Si number density = 19.236216 Si / 1000 Ang^3
#
#
#
# Elastic Constant Matrix: (Units=GPa)
#
#
# Indices 1 2 3 4 5 6 
#
# 1 103.0613 52.5148 61.2395 0.0000 0.0000 0.0000
# 2 52.5148 161.8935 84.2770 0.0000 0.0000 0.0000
# 3 61.2395 84.2770 164.5678 0.0000 0.0000 0.0000
# 4 0.0000 0.0000 0.0000 33.7612 0.0000 0.0000
# 5 0.0000 0.0000 0.0000 0.0000 39.3845 0.0000
# 6 0.0000 0.0000 0.0000 0.0000 0.0000 -33.0564
#
#
#
# Elastic Compliance Matrix: (Units=1/GPa)
#
#
# Indices 1 2 3 4 5 6 
#
# 1 0.013071 -0.002329 -0.003672 0.000000 0.000000 0.000000
# 2 -0.002329 0.008837 -0.003659 0.000000 0.000000 0.000000
# 3 -0.003672 -0.003659 0.009317 0.000000 0.000000 0.000000
# 4 0.000000 0.000000 0.000000 0.029620 0.000000 0.000000
# 5 0.000000 0.000000 0.000000 0.000000 0.025391 0.000000
# 6 0.000000 0.000000 0.000000 0.000000 0.000000 -0.030251
#
#
# Mechanical properties :
#
#
# Convention : Reuss Voigt Hill
#
# Bulk Modulus (GPa) = 83.98868 91.73169 87.86018
# Shear Modulus (GPa) = 63.07457 23.45062 43.26260
#
# Velocity S-wave (km/s) = 5.73242 3.49533 4.74753
# Velocity P-wave (km/s) = 9.35793 8.00502 8.70779
#
# Compressibility (1/GPa) = 0.01190637
#
# Stress axis : x y z
#
# Youngs Moduli (GPa) = 76.50403 113.16008 107.33552
#
# Poissons Ratio (x) = 0.26352 0.39409
# Poissons Ratio (y) = 0.17816 0.39274
# Poissons Ratio (z) = 0.28089 0.41405
#
# Static dielectric constant tensor:
#      x y z
#    x 3.001600 0.000000 0.000000 
#    y 0.000000 3.495140 0.000000 
#    z 0.000000 0.000000 3.586280 
# 
# 
# High freq. dielectric constant tensor:
#      x y z
#    x 1.716470 0.000000 0.000000 
#    y 0.000000 1.744560 0.000000 
#    z 0.000000 0.000000 1.765120 
# 
# From -- ./inp_files/22359.got.cif
#   From: 2010.03.12/outbox.cif.g09.slc.cpg/sg68_12_cif.got.tgz:22359.got - 2010.04.10 23:14:56.
