data_PCOD8283378
_publ_section_title
;
Structure prediction by ZEFSAII (Michael W. Deem and Ramdas Pophale) SiO2 
 PCOD8283378
Probable space group: C C C A
;
_chemical_formula_sum "Si O2"
_cell_formula_units_Z 64
_cell_length_a 20.378672
_cell_length_b 10.314336
_cell_length_c 14.476201
_cell_angle_alpha 90.000000
_cell_angle_beta 90.000000
_cell_angle_gamma 90.000000
_cell_volume 3042.788448
_symmetry_space_group_name_H-M "C C C A"
_symmetry_group_IT_number 68
_space_group.IT_coordinate_system_code '2'
_symmetry_cell_setting 'orthorhombic'
loop_
_space_group_symop_operation_xyz
x,y,z
-x,1/2-y,z
x,1/2-y,1/2-z
-x,y,1/2-z
-x,-y,-z
x,1/2+y,-z
-x,1/2+y,1/2+z
x,-y,1/2+z
1/2+x,1/2+y,z
1/2-x,-y,z
1/2+x,-y,1/2-z
1/2-x,1/2+y,1/2-z
1/2-x,1/2-y,-z
1/2+x,y,-z
1/2-x,y,1/2+z
1/2+x,1/2-y,1/2+z
loop_
_atom_site_type_symbol
_atom_site_label
_atom_site_fract_x
_atom_site_fract_y
_atom_site_fract_z
Si Si1 0.226407 0.200942 0.150859
Si Si2 0.573187 0.902363 0.760999
Si Si3 0.160985 0.545109 0.414092
Si Si4 0.175022 0.534734 0.620279
O O1 0.252029 0.250000 0.250000
O O2 0.291597 0.173449 0.088755
O O3 0.174653 0.308541 0.114609
O O4 0.188485 0.065314 0.155335
O O5 0.575480 0.750000 0.750000
O O6 0.500000 0.958668 0.750000
O O7 0.591151 0.923887 0.868906
O O8 0.622864 0.973662 0.690495
O O9 0.155929 0.487528 0.517083
O O10 0.250000 0.500000 0.646921
#
# Coordination Sequence:
#
# PCOD8283378 Si02
#       4
#    16  16  16  16
#     4  11  21  38  62 102 128 164 209 271 335 379
#     4  11  26  46  65  90 133 183 221 265 333 404
#     4  11  23  39  64  96 132 163 216 273 327 392
#     4  12  23  39  69  98 130 169 219 278 333 384
#
# _framework density 21.033339000000002
#
# number of rings (size 3 to 8) (size 9 to 14) (size 15 to 20)
#    0.000    0.750    5.000    4.500    3.500    1.000 
#    0.000    2.500    0.000    0.000    0.000    0.000 
#    0.000    0.000    0.000    0.000    0.000    0.000 
#
# Total GULP energy -396428.397379 kJ/mol
# GULP energy per Si atom -12388.387418 kJ/mol
# Density = 2.098547 g / cm^3
# Si number density = 21.033339 Si / 1000 Ang^3
#
#
#
# Elastic Constant Matrix: (Units=GPa)
#
#
# Indices 1 2 3 4 5 6 
#
# 1 163.0547 40.8393 62.3554 0.0000 0.0000 0.0000
# 2 40.8393 94.7323 29.0850 0.0000 0.0000 0.0000
# 3 62.3554 29.0850 104.3133 0.0000 0.0000 0.0000
# 4 0.0000 0.0000 0.0000 28.3979 0.0000 0.0000
# 5 0.0000 0.0000 0.0000 0.0000 23.8497 0.0000
# 6 0.0000 0.0000 0.0000 0.0000 0.0000 19.8256
#
#
#
# Elastic Compliance Matrix: (Units=1/GPa)
#
#
# Indices 1 2 3 4 5 6 
#
# 1 0.008373 -0.002267 -0.004373 0.000000 0.000000 0.000000
# 2 -0.002267 0.012158 -0.002035 0.000000 0.000000 0.000000
# 3 -0.004373 -0.002035 0.012768 0.000000 0.000000 0.000000
# 4 0.000000 0.000000 0.000000 0.035214 0.000000 0.000000
# 5 0.000000 0.000000 0.000000 0.000000 0.041929 0.000000
# 6 0.000000 0.000000 0.000000 0.000000 0.000000 0.050440
#
#
# Mechanical properties :
#
#
# Convention : Reuss Voigt Hill
#
# Bulk Modulus (GPa) = 62.69858 69.62886 66.16372
# Shear Modulus (GPa) = 27.24076 29.73600 28.48838
#
# Velocity S-wave (km/s) = 3.60269 3.76407 3.68426
# Velocity P-wave (km/s) = 6.86874 7.21574 7.04438
#
# Compressibility (1/GPa) = 0.01594932
#
# Stress axis : x y z
#
# Youngs Moduli (GPa) = 119.43064 82.24965 78.32115
#
# Poissons Ratio (x) = 0.18646 0.34250
# Poissons Ratio (y) = 0.27075 0.15937
# Poissons Ratio (z) = 0.52228 0.16736
#
# Static dielectric constant tensor:
#      x y z
#    x 3.797010 0.000000 0.000000 
#    y 0.000000 4.194790 0.000000 
#    z 0.000000 0.000000 3.866620 
# 
# 
# High freq. dielectric constant tensor:
#      x y z
#    x 1.785560 0.000000 0.000000 
#    y 0.000000 1.836740 0.000000 
#    z 0.000000 0.000000 1.834650 
# 
# From -- ./inp_files/23176.got.cif
#   From: 2010.03.12/outbox.cif.g09.slc.cpg/sg68_12_cif.got.tgz:23176.got - 2010.04.10 23:14:56.
