data_PCOD8283334
_publ_section_title
;
Structure prediction by ZEFSAII (Michael W. Deem and Ramdas Pophale) SiO2 
 PCOD8283334
Probable space group: C C C A
;
_chemical_formula_sum "Si O2"
_cell_formula_units_Z 92
_cell_length_a 9.486004
_cell_length_b 18.280344
_cell_length_c 24.479010
_cell_angle_alpha 90.000000
_cell_angle_beta 90.000000
_cell_angle_gamma 90.000000
_cell_volume 4244.841878
_symmetry_space_group_name_H-M "C C C A"
_symmetry_group_IT_number 68
_space_group.IT_coordinate_system_code '2'
_symmetry_cell_setting 'orthorhombic'
loop_
_space_group_symop_operation_xyz
x,y,z
-x,1/2-y,z
x,1/2-y,1/2-z
-x,y,1/2-z
-x,-y,-z
x,1/2+y,-z
-x,1/2+y,1/2+z
x,-y,1/2+z
1/2+x,1/2+y,z
1/2-x,-y,z
1/2+x,-y,1/2-z
1/2-x,1/2+y,1/2-z
1/2-x,1/2-y,-z
1/2+x,y,-z
1/2-x,y,1/2+z
1/2+x,1/2-y,1/2+z
loop_
_atom_site_type_symbol
_atom_site_label
_atom_site_fract_x
_atom_site_fract_y
_atom_site_fract_z
Si Si1 0.707288 0.326665 0.893432
Si Si2 0.482830 0.836486 0.190568
Si Si3 0.680559 0.186831 0.342654
Si Si4 0.824700 0.568485 0.069488
Si Si5 0.105624 0.105592 0.975094
Si Si6 0.000000 0.250000 0.475231
Si Si7 0.000000 0.250000 0.750000
O O1 0.599061 0.366706 0.851852
O O2 0.810318 0.270921 0.862036
O O3 0.794552 0.391726 0.921546
O O4 0.626605 0.277622 0.937687
O O5 0.500000 0.750000 0.194878
O O6 0.500000 0.873411 0.250000
O O7 0.328116 0.852994 0.169200
O O8 0.623416 0.133394 0.390097
O O9 0.589835 0.193296 0.287252
O O10 0.750000 0.500000 0.101119
O O11 0.970641 0.552128 0.036107
O O12 0.698742 0.584381 0.026934
O O13 0.049539 0.186989 0.984645
#
# Coordination Sequence:
#
# PCOD8283334 Si02
#       7
#    16  16  16  16  16   8   4
#     4  11  18  34  60  92 126 157 203 270 337 386
#     4   9  17  31  56  85 118 153 192 253 328 388
#     4  11  21  38  60  93 128 154 203 268 333 384
#     4  12  26  42  60  86 131 181 215 256 307 390
#     4  12  23  38  60  92 127 170 219 261 316 392
#     4  12  18  35  59  92 126 160 206 274 338 380
#     4  12  24  38  66 104 120 150 204 288 350 384
#
# _framework density 21.673362999999998
#
# number of rings (size 3 to 8) (size 9 to 14) (size 15 to 20)
#    0.000    0.870    6.087    5.217    0.000    0.000 
#    0.000    0.000    1.913    0.000    0.000    0.000 
#    0.000    0.000    0.000    0.000    0.000    0.000 
#
# Total GULP energy -570048.873728 kJ/mol
# GULP energy per Si atom -12392.366820 kJ/mol
# Density = 2.162403 g / cm^3
# Si number density = 21.673363 Si / 1000 Ang^3
#
#
#
# Elastic Constant Matrix: (Units=GPa)
#
#
# Indices 1 2 3 4 5 6 
#
# 1 96.8673 32.0080 46.3909 0.0000 0.0000 0.0000
# 2 32.0080 35.0767 22.5176 0.0000 0.0000 0.0000
# 3 46.3909 22.5176 122.5646 0.0000 0.0000 0.0000
# 4 0.0000 0.0000 0.0000 -9.9281 0.0000 0.0000
# 5 0.0000 0.0000 0.0000 0.0000 49.2742 0.0000
# 6 0.0000 0.0000 0.0000 0.0000 0.0000 20.7370
#
#
#
# Elastic Compliance Matrix: (Units=1/GPa)
#
#
# Indices 1 2 3 4 5 6 
#
# 1 0.016265 -0.012346 -0.003888 0.000000 0.000000 0.000000
# 2 -0.012346 0.041692 -0.002987 0.000000 0.000000 0.000000
# 3 -0.003888 -0.002987 0.010179 0.000000 0.000000 0.000000
# 4 0.000000 0.000000 0.000000 -0.100724 0.000000 0.000000
# 5 0.000000 0.000000 0.000000 0.000000 0.020295 0.000000
# 6 0.000000 0.000000 0.000000 0.000000 0.000000 0.048223
#
#
# Mechanical properties :
#
#
# Convention : Reuss Voigt Hill
#
# Bulk Modulus (GPa) = 33.67586 50.70461 42.19023
# Shear Modulus (GPa) = 59.33317 22.25609 40.79463
#
# Velocity S-wave (km/s) = 5.23789 3.20798 4.34319
# Velocity P-wave (km/s) = 7.22166 6.09649 6.68280
#
# Compressibility (1/GPa) = 0.02969487
#
# Stress axis : x y z
#
# Youngs Moduli (GPa) = 61.48178 23.98526 98.23825
#
# Poissons Ratio (x) = 0.29612 0.38196
# Poissons Ratio (y) = 0.75906 0.29341
# Poissons Ratio (z) = 0.23905 0.07164
#
# Static dielectric constant tensor:
#      x y z
#    x 4.306610 0.000000 0.000000 
#    y 0.000000 3.574700 0.000000 
#    z 0.000000 0.000000 4.295200 
# 
# 
# High freq. dielectric constant tensor:
#      x y z
#    x 1.873890 0.000000 0.000000 
#    y 0.000000 1.789830 0.000000 
#    z 0.000000 0.000000 1.857840 
# 
# From -- ./inp_files/43187.got.cif
#   From: 2010.03.12/outbox.cif.g09.slc.cpg/sg68_22_cif.got.tgz:43187.got - 2010.04.10 23:14:56.
