data_PCOD8283653
_publ_section_title
;
Structure prediction by ZEFSAII (Michael W. Deem and Ramdas Pophale) SiO2 
 PCOD8283653
Probable space group: C C C A
;
_chemical_formula_sum "Si O2"
_cell_formula_units_Z 56
_cell_length_a 5.030531
_cell_length_b 18.428670
_cell_length_c 24.641366
_cell_angle_alpha 90.000000
_cell_angle_beta 90.000000
_cell_angle_gamma 90.000000
_cell_volume 2284.402371
_symmetry_space_group_name_H-M "C C C A"
_symmetry_group_IT_number 68
_space_group.IT_coordinate_system_code '2'
_symmetry_cell_setting 'orthorhombic'
loop_
_space_group_symop_operation_xyz
x,y,z
-x,1/2-y,z
x,1/2-y,1/2-z
-x,y,1/2-z
-x,-y,-z
x,1/2+y,-z
-x,1/2+y,1/2+z
x,-y,1/2+z
1/2+x,1/2+y,z
1/2-x,-y,z
1/2+x,-y,1/2-z
1/2-x,1/2+y,1/2-z
1/2-x,1/2-y,-z
1/2+x,y,-z
1/2-x,y,1/2+z
1/2+x,1/2-y,1/2+z
loop_
_atom_site_type_symbol
_atom_site_label
_atom_site_fract_x
_atom_site_fract_y
_atom_site_fract_z
Si Si1 0.250000 0.500000 0.199529
Si Si2 0.407294 0.894786 0.034397
Si Si3 0.000000 0.250000 0.664124
Si Si4 0.250000 0.500000 0.873757
Si Si5 0.500000 0.373099 0.250000
Si Si6 0.500000 0.250000 0.590440
O O1 0.503040 0.481868 0.163562
O O2 0.246581 0.427055 0.237309
O O3 0.335885 0.932604 0.090269
O O4 0.402217 0.810889 0.048940
O O5 0.695380 0.916987 0.011768
O O6 0.922559 0.320491 0.699862
O O7 0.748116 0.226670 0.627785
#
# Coordination Sequence:
#
# PCOD8283653 Si02
#       6
#     8  16   8   8   8   8
#     4  12  25  43  68  98 134 176 226 281 337 402
#     4  12  24  42  67  97 134 176 224 277 336 402
#     4  11  26  45  70  99 138 179 228 281 342 407
#     4  12  25  43  66  96 134 176 224 277 337 402
#     4  11  26  46  70 101 136 180 228 283 342 408
#     4  12  24  44  68  99 134 177 226 282 338 404
#
# _framework density 24.514068000000002
#
# number of rings (size 3 to 8) (size 9 to 14) (size 15 to 20)
#    0.000    0.286    0.000    9.429    0.000    6.857 
#    0.000    0.000    0.000    0.000    0.000    0.000 
#    0.000    0.000    0.000    0.000    0.000    0.000 
#
# Total GULP energy -347146.573831 kJ/mol
# GULP energy per Si atom -12398.091923 kJ/mol
# Density = 2.445827 g / cm^3
# Si number density = 24.514068 Si / 1000 Ang^3
#
#
#
# Elastic Constant Matrix: (Units=GPa)
#
#
# Indices 1 2 3 4 5 6 
#
# 1 147.2103 36.3349 61.0736 0.0000 0.0000 0.0000
# 2 36.3349 127.6582 27.4073 0.0000 0.0000 0.0000
# 3 61.0736 27.4073 97.5667 0.0000 0.0000 0.0000
# 4 0.0000 0.0000 0.0000 55.6136 0.0000 0.0000
# 5 0.0000 0.0000 0.0000 0.0000 35.6309 0.0000
# 6 0.0000 0.0000 0.0000 0.0000 0.0000 37.8400
#
#
#
# Elastic Compliance Matrix: (Units=1/GPa)
#
#
# Indices 1 2 3 4 5 6 
#
# 1 0.009442 -0.001510 -0.005486 0.000000 0.000000 0.000000
# 2 -0.001510 0.008578 -0.001465 0.000000 0.000000 0.000000
# 3 -0.005486 -0.001465 0.014095 0.000000 0.000000 0.000000
# 4 0.000000 0.000000 0.000000 0.017981 0.000000 0.000000
# 5 0.000000 0.000000 0.000000 0.000000 0.028066 0.000000
# 6 0.000000 0.000000 0.000000 0.000000 0.000000 0.026427
#
#
# Mechanical properties :
#
#
# Convention : Reuss Voigt Hill
#
# Bulk Modulus (GPa) = 65.81698 69.11851 67.46775
# Shear Modulus (GPa) = 39.50294 42.32486 40.91390
#
# Velocity S-wave (km/s) = 4.01863 4.15969 4.08977
# Velocity P-wave (km/s) = 6.95985 7.16431 7.06282
#
# Compressibility (1/GPa) = 0.01519365
#
# Stress axis : x y z
#
# Youngs Moduli (GPa) = 105.91392 116.58408 70.94739
#
# Poissons Ratio (x) = 0.17598 0.38923
# Poissons Ratio (y) = 0.15988 0.10391
# Poissons Ratio (z) = 0.58106 0.17075
#
# Static dielectric constant tensor:
#      x y z
#    x 4.669250 0.000000 0.000000 
#    y 0.000000 4.357460 0.000000 
#    z 0.000000 0.000000 4.893770 
# 
# 
# High freq. dielectric constant tensor:
#      x y z
#    x 1.974640 0.000000 0.000000 
#    y 0.000000 1.986870 0.000000 
#    z 0.000000 0.000000 1.999710 
# 
# From -- ./inp_files/42022.got.cif
#   From: 2010.03.12/outbox.cif.g09.slc.cpg/sg68_22_cif.got.tgz:42022.got - 2010.04.10 23:14:56.
