data_PCOD8283050
_publ_section_title
;
Structure prediction by ZEFSAII (Michael W. Deem and Ramdas Pophale) SiO2 
 PCOD8283050
Probable space group: C C C A
;
_chemical_formula_sum "Si O2"
_cell_formula_units_Z 80
_cell_length_a 16.995916
_cell_length_b 9.268678
_cell_length_c 23.486006
_cell_angle_alpha 90.000000
_cell_angle_beta 90.000000
_cell_angle_gamma 90.000000
_cell_volume 3699.742839
_symmetry_space_group_name_H-M "C C C A"
_symmetry_group_IT_number 68
_space_group.IT_coordinate_system_code '2'
_symmetry_cell_setting 'orthorhombic'
loop_
_space_group_symop_operation_xyz
x,y,z
-x,1/2-y,z
x,1/2-y,1/2-z
-x,y,1/2-z
-x,-y,-z
x,1/2+y,-z
-x,1/2+y,1/2+z
x,-y,1/2+z
1/2+x,1/2+y,z
1/2-x,-y,z
1/2+x,-y,1/2-z
1/2-x,1/2+y,1/2-z
1/2-x,1/2-y,-z
1/2+x,y,-z
1/2-x,y,1/2+z
1/2+x,1/2-y,1/2+z
loop_
_atom_site_type_symbol
_atom_site_label
_atom_site_fract_x
_atom_site_fract_y
_atom_site_fract_z
Si Si1 0.344659 0.399988 0.304193
Si Si2 0.424634 0.320394 0.124039
Si Si3 0.764392 0.834948 0.057264
Si Si4 0.181860 0.698437 0.839191
Si Si5 0.575232 0.561333 0.290627
O O1 0.410080 0.285188 0.322095
O O2 0.261057 0.318307 0.301777
O O3 0.347767 0.534121 0.349414
O O4 0.360487 0.462811 0.241471
O O5 0.500000 0.250000 0.092008
O O6 0.352699 0.315358 0.080165
O O7 0.443113 0.479547 0.149653
O O8 0.700329 0.778905 0.102218
O O9 0.750000 0.000000 0.043919
O O10 0.750000 0.750000 0.000000
O O11 0.114009 0.783934 0.805019
O O12 0.500000 0.584023 0.250000
#
# Coordination Sequence:
#
# PCOD8283050 Si02
#       5
#    16  16  16  16  16
#     4  10  23  37  65  95 140 186 223 268 347 429
#     4  11  23  44  67 101 139 181 230 286 359 430
#     4  11  25  46  76  96 129 180 243 306 357 411
#     4  10  24  43  62  99 135 179 234 291 334 424
#     4  12  23  41  66 104 146 190 227 279 358 426
#
# _framework density 21.623124000000001
#
# number of rings (size 3 to 8) (size 9 to 14) (size 15 to 20)
#    0.000    1.200    4.000    1.200    5.600   12.800 
#    0.000    1.000    4.400    0.000    0.000    0.000 
#    0.000    0.000    0.000    0.000    0.000    0.000 
#
# Total GULP energy -495839.063179 kJ/mol
# GULP energy per Si atom -12395.976579 kJ/mol
# Density = 2.157391 g / cm^3
# Si number density = 21.623124 Si / 1000 Ang^3
#
#
#
# Elastic Constant Matrix: (Units=GPa)
#
#
# Indices 1 2 3 4 5 6 
#
# 1 123.8995 52.9353 48.5345 0.0000 0.0000 0.0000
# 2 52.9353 143.1290 49.8715 0.0000 0.0000 0.0000
# 3 48.5345 49.8715 106.4771 0.0000 0.0000 0.0000
# 4 0.0000 0.0000 0.0000 39.0030 0.0000 0.0000
# 5 0.0000 0.0000 0.0000 0.0000 28.5372 0.0000
# 6 0.0000 0.0000 0.0000 0.0000 0.0000 41.3277
#
#
#
# Elastic Compliance Matrix: (Units=1/GPa)
#
#
# Indices 1 2 3 4 5 6 
#
# 1 0.010620 -0.002678 -0.003587 0.000000 0.000000 0.000000
# 2 -0.002678 0.009025 -0.003006 0.000000 0.000000 0.000000
# 3 -0.003587 -0.003006 0.012435 0.000000 0.000000 0.000000
# 4 0.000000 0.000000 0.000000 0.025639 0.000000 0.000000
# 5 0.000000 0.000000 0.000000 0.000000 0.035042 0.000000
# 6 0.000000 0.000000 0.000000 0.000000 0.000000 0.024197
#
#
# Mechanical properties :
#
#
# Convention : Reuss Voigt Hill
#
# Bulk Modulus (GPa) = 73.86788 75.13200 74.49994
# Shear Modulus (GPa) = 35.71134 36.58455 36.14795
#
# Velocity S-wave (km/s) = 4.06832 4.11776 4.09311
# Velocity P-wave (km/s) = 7.50360 7.57822 7.54100
#
# Compressibility (1/GPa) = 0.01353768
#
# Stress axis : x y z
#
# Youngs Moduli (GPa) = 94.16020 110.80745 80.42117
#
# Poissons Ratio (x) = 0.29676 0.28843
# Poissons Ratio (y) = 0.25217 0.24176
# Poissons Ratio (z) = 0.33771 0.33311
#
# Static dielectric constant tensor:
#      x y z
#    x 4.144870 0.000000 0.000000 
#    y 0.000000 4.326650 0.000000 
#    z 0.000000 0.000000 3.560270 
# 
# 
# High freq. dielectric constant tensor:
#      x y z
#    x 1.856120 0.000000 0.000000 
#    y 0.000000 1.879650 0.000000 
#    z 0.000000 0.000000 1.802100 
# 
# From -- ./inp_files/51311.got.cif
#   From: 2010.03.12/outbox.cif.g09.slc.cpg/sg68_26_cif.got.tgz:51311.got - 2010.04.10 23:14:56.
