data_PCOD8283628
_publ_section_title
;
Structure prediction by ZEFSAII (Michael W. Deem and Ramdas Pophale) SiO2 
 PCOD8283628
Probable space group: C C C A
;
_chemical_formula_sum "Si O2"
_cell_formula_units_Z 88
_cell_length_a 24.928610
_cell_length_b 11.378414
_cell_length_c 13.059587
_cell_angle_alpha 90.000000
_cell_angle_beta 90.000000
_cell_angle_gamma 90.000000
_cell_volume 3704.326321
_symmetry_space_group_name_H-M "C C C A"
_symmetry_group_IT_number 68
_space_group.IT_coordinate_system_code '2'
_symmetry_cell_setting 'orthorhombic'
loop_
_space_group_symop_operation_xyz
x,y,z
-x,1/2-y,z
x,1/2-y,1/2-z
-x,y,1/2-z
-x,-y,-z
x,1/2+y,-z
-x,1/2+y,1/2+z
x,-y,1/2+z
1/2+x,1/2+y,z
1/2-x,-y,z
1/2+x,-y,1/2-z
1/2-x,1/2+y,1/2-z
1/2-x,1/2-y,-z
1/2+x,y,-z
1/2-x,y,1/2+z
1/2+x,1/2-y,1/2+z
loop_
_atom_site_type_symbol
_atom_site_label
_atom_site_fract_x
_atom_site_fract_y
_atom_site_fract_z
Si Si1 0.250000 0.500000 0.718630
Si Si2 0.409826 0.250000 0.750000
Si Si3 0.500000 0.900010 0.750000
Si Si4 0.338674 0.572086 0.360623
Si Si5 0.840023 0.608320 0.408780
Si Si6 0.063797 0.558830 0.606995
Si Si7 0.408014 0.347845 0.387849
O O1 0.286959 0.419762 0.789542
O O2 0.214785 0.405173 0.655022
O O3 0.375993 0.180162 0.666658
O O4 0.446466 0.333975 0.683107
O O5 0.452308 0.821984 0.700266
O O6 0.517925 0.970588 0.646756
O O7 0.320415 0.590087 0.476227
O O8 0.369430 0.448990 0.344661
O O9 0.878339 0.500847 0.375270
O O10 0.871613 0.731622 0.399349
O O11 0.061310 0.606848 0.490769
#
# Coordination Sequence:
#
# PCOD8283628 Si02
#       7
#     8   8   8  16  16  16  16
#     4  12  24  46  72 110 134 192 250 294 364 436
#     4  12  20  49  68  94 146 194 234 293 356 446
#     4  12  24  46  74 114 142 195 247 292 372 438
#     4  11  25  45  70 103 144 194 242 297 371 437
#     4  11  25  47  71 104 150 188 240 311 363 430
#     4  11  25  45  71 106 148 193 243 298 367 439
#     4  11  25  47  72 107 152 189 242 310 365 433
#
# _framework density 23.756007
#
# number of rings (size 3 to 8) (size 9 to 14) (size 15 to 20)
#    0.000    0.727    5.455    1.091    0.000    6.182 
#    0.000    5.455    0.000    0.000    0.000    0.000 
#    0.000    0.000    0.000    0.000    0.000    0.000 
#
# Total GULP energy -545320.103328 kJ/mol
# GULP energy per Si atom -12393.638712 kJ/mol
# Density = 2.370194 g / cm^3
# Si number density = 23.756007 Si / 1000 Ang^3
#
#
#
# Elastic Constant Matrix: (Units=GPa)
#
#
# Indices 1 2 3 4 5 6 
#
# 1 110.7002 38.7500 73.9675 0.0000 0.0000 0.0000
# 2 38.7500 116.8363 53.0195 0.0000 0.0000 0.0000
# 3 73.9675 53.0195 147.1541 0.0000 0.0000 0.0000
# 4 0.0000 0.0000 0.0000 -1.3168 0.0000 0.0000
# 5 0.0000 0.0000 0.0000 0.0000 63.5911 0.0000
# 6 0.0000 0.0000 0.0000 0.0000 0.0000 11.4796
#
#
#
# Elastic Compliance Matrix: (Units=1/GPa)
#
#
# Indices 1 2 3 4 5 6 
#
# 1 0.013885 -0.001719 -0.006360 0.000000 0.000000 0.000000
# 2 -0.001719 0.010445 -0.002899 0.000000 0.000000 0.000000
# 3 -0.006360 -0.002899 0.011037 0.000000 0.000000 0.000000
# 4 0.000000 0.000000 0.000000 -0.759402 0.000000 0.000000
# 5 0.000000 0.000000 0.000000 0.000000 0.015725 0.000000
# 6 0.000000 0.000000 0.000000 0.000000 0.000000 0.087111
#
#
# Mechanical properties :
#
#
# Convention : Reuss Voigt Hill
#
# Bulk Modulus (GPa) = 74.56904 78.46274 76.51589
# Shear Modulus (GPa) = -8.40657 28.68103 10.13723
#
# Velocity S-wave (km/s) = -1.88319 3.47842 2.06797
# Velocity P-wave (km/s) = 5.17003 7.01661 6.16287
#
# Compressibility (1/GPa) = 0.01341039
#
# Stress axis : x y z
#
# Youngs Moduli (GPa) = 72.02231 95.74214 90.60471
#
# Poissons Ratio (x) = 0.16457 0.57623
# Poissons Ratio (y) = 0.12380 0.26268
# Poissons Ratio (z) = 0.45805 0.27758
#
# Static dielectric constant tensor:
#      x y z
#    x 4.185660 0.000000 0.000000 
#    y 0.000000 4.224060 0.000000 
#    z 0.000000 0.000000 4.568070 
# 
# 
# High freq. dielectric constant tensor:
#      x y z
#    x 1.931100 0.000000 0.000000 
#    y 0.000000 1.947800 0.000000 
#    z 0.000000 0.000000 1.970900 
# 
# From -- ./inp_files/25319.got.cif
#   From: 2010.03.12/outbox.cif.g09.slc.cpg/sg68_13_cif.got.tgz:25319.got - 2010.04.10 23:14:56.
