data_PCOD8283563
_publ_section_title
;
Structure prediction by ZEFSAII (Michael W. Deem and Ramdas Pophale) SiO2 
 PCOD8283563
Probable space group: C C C A
;
_chemical_formula_sum "Si O2"
_cell_formula_units_Z 64
_cell_length_a 30.910174
_cell_length_b 9.590348
_cell_length_c 9.994500
_cell_angle_alpha 90.000000
_cell_angle_beta 90.000000
_cell_angle_gamma 90.000000
_cell_volume 2962.762838
_symmetry_space_group_name_H-M "C C C A"
_symmetry_group_IT_number 68
_space_group.IT_coordinate_system_code '2'
_symmetry_cell_setting 'orthorhombic'
loop_
_space_group_symop_operation_xyz
x,y,z
-x,1/2-y,z
x,1/2-y,1/2-z
-x,y,1/2-z
-x,-y,-z
x,1/2+y,-z
-x,1/2+y,1/2+z
x,-y,1/2+z
1/2+x,1/2+y,z
1/2-x,-y,z
1/2+x,-y,1/2-z
1/2-x,1/2+y,1/2-z
1/2-x,1/2-y,-z
1/2+x,y,-z
1/2-x,y,1/2+z
1/2+x,1/2-y,1/2+z
loop_
_atom_site_type_symbol
_atom_site_label
_atom_site_fract_x
_atom_site_fract_y
_atom_site_fract_z
Si Si1 0.099132 0.959892 0.022313
Si Si2 0.859859 0.606129 0.278911
Si Si3 0.951175 0.717792 0.595532
Si Si4 0.236393 0.661029 0.129304
O O1 0.138421 0.967438 0.131815
O O2 0.059334 0.056014 0.069796
O O3 0.081118 0.805049 0.999025
O O4 0.116734 0.005801 0.879965
O O5 0.885928 0.750000 0.250000
O O6 0.814311 0.652525 0.341480
O O7 0.943381 0.750000 0.750000
O O8 0.000000 0.750000 0.552576
O O9 0.258556 0.750000 0.250000
O O10 0.250000 0.500000 0.119353
O O11 0.250000 0.750000 0.000000
#
# Coordination Sequence:
#
# PCOD8283563 Si02
#       4
#    16  16  16  16
#     4  12  23  45  67  99 137 180 236 289 343 421
#     4  11  26  43  70 101 138 179 232 283 353 413
#     4  11  24  42  66 100 138 185 234 294 355 411
#     4  11  27  48  72 106 142 185 233 288 354 429
#
# _framework density 21.601458999999998
#
# number of rings (size 3 to 8) (size 9 to 14) (size 15 to 20)
#    0.000    0.750    5.000    1.500   10.500    0.000 
#    0.000    1.250    0.000    0.000    0.000    0.000 
#    0.000    0.000    0.000    0.000    0.000    0.000 
#
# Total GULP energy -396430.609575 kJ/mol
# GULP energy per Si atom -12388.456549 kJ/mol
# Density = 2.155229 g / cm^3
# Si number density = 21.601459 Si / 1000 Ang^3
#
#
#
# Elastic Constant Matrix: (Units=GPa)
#
#
# Indices 1 2 3 4 5 6 
#
# 1 84.1136 17.1939 46.9316 0.0000 0.0000 0.0000
# 2 17.1939 123.4544 48.8290 0.0000 0.0000 0.0000
# 3 46.9316 48.8290 166.1787 0.0000 0.0000 0.0000
# 4 0.0000 0.0000 0.0000 43.0833 0.0000 0.0000
# 5 0.0000 0.0000 0.0000 0.0000 30.3259 0.0000
# 6 0.0000 0.0000 0.0000 0.0000 0.0000 34.1774
#
#
#
# Elastic Compliance Matrix: (Units=1/GPa)
#
#
# Indices 1 2 3 4 5 6 
#
# 1 0.014134 -0.000441 -0.003862 0.000000 0.000000 0.000000
# 2 -0.000441 0.009179 -0.002573 0.000000 0.000000 0.000000
# 3 -0.003862 -0.002573 0.007864 0.000000 0.000000 0.000000
# 4 0.000000 0.000000 0.000000 0.023211 0.000000 0.000000
# 5 0.000000 0.000000 0.000000 0.000000 0.032975 0.000000
# 6 0.000000 0.000000 0.000000 0.000000 0.000000 0.029259
#
#
# Mechanical properties :
#
#
# Convention : Reuss Voigt Hill
#
# Bulk Modulus (GPa) = 57.38592 66.62841 62.00716
# Shear Modulus (GPa) = 36.71566 38.90348 37.80957
#
# Velocity S-wave (km/s) = 4.12720 4.24838 4.18823
# Velocity P-wave (km/s) = 7.02389 7.41461 7.22189
#
# Compressibility (1/GPa) = 0.01742588
#
# Stress axis : x y z
#
# Youngs Moduli (GPa) = 70.75318 108.94328 127.15796
#
# Poissons Ratio (x) = 0.04804 0.49109
# Poissons Ratio (y) = 0.03120 0.32713
# Poissons Ratio (z) = 0.27325 0.28027
#
# Static dielectric constant tensor:
#      x y z
#    x 3.656750 0.000000 0.000000 
#    y 0.000000 4.553340 0.000000 
#    z 0.000000 0.000000 4.270560 
# 
# 
# High freq. dielectric constant tensor:
#      x y z
#    x 1.823030 0.000000 0.000000 
#    y 0.000000 1.869100 0.000000 
#    z 0.000000 0.000000 1.870840 
# 
# From -- ./inp_files/9341.got.cif
#   From: 2010.03.12/outbox.cif.g09.slc.cpg/sg68_5_cif.got.tgz:9341.got - 2010.04.10 23:14:56.
