data_PCOD8283660
_publ_section_title
;
Structure prediction by ZEFSAII (Michael W. Deem and Ramdas Pophale) SiO2 
 PCOD8283660
Probable space group: C C C A
;
_chemical_formula_sum "Si O2"
_cell_formula_units_Z 64
_cell_length_a 9.104359
_cell_length_b 25.492956
_cell_length_c 10.833577
_cell_angle_alpha 90.000000
_cell_angle_beta 90.000000
_cell_angle_gamma 90.000000
_cell_volume 2514.440974
_symmetry_space_group_name_H-M "C C C A"
_symmetry_group_IT_number 68
_space_group.IT_coordinate_system_code '2'
_symmetry_cell_setting 'orthorhombic'
loop_
_space_group_symop_operation_xyz
x,y,z
-x,1/2-y,z
x,1/2-y,1/2-z
-x,y,1/2-z
-x,-y,-z
x,1/2+y,-z
-x,1/2+y,1/2+z
x,-y,1/2+z
1/2+x,1/2+y,z
1/2-x,-y,z
1/2+x,-y,1/2-z
1/2-x,1/2+y,1/2-z
1/2-x,1/2-y,-z
1/2+x,y,-z
1/2-x,y,1/2+z
1/2+x,1/2-y,1/2+z
loop_
_atom_site_type_symbol
_atom_site_label
_atom_site_fract_x
_atom_site_fract_y
_atom_site_fract_z
Si Si1 0.260261 0.250000 0.250000
Si Si2 0.500000 0.438812 0.750000
Si Si3 0.869195 0.899053 0.994576
Si Si4 0.250000 0.000000 0.880864
Si Si5 0.098524 0.663507 0.400364
Si Si6 0.500000 0.750000 0.066535
O O1 0.358277 0.302740 0.277096
O O2 0.153826 0.257375 0.135172
O O3 0.455386 0.401360 0.863914
O O4 0.632067 0.475830 0.789341
O O5 0.739001 0.857478 0.974081
O O6 0.979003 0.883806 0.110433
O O7 0.812403 0.956409 0.027197
O O8 0.991279 0.699193 0.483326
#
# Coordination Sequence:
#
# PCOD8283660 Si02
#       6
#     8   8  16   8  16   8
#     4  11  26  47  80 106 165 217 266 334 415 481
#     4  12  28  50  82 121 166 213 270 342 406 476
#     4  12  28  53  83 119 169 212 275 341 409 498
#     4  12  28  54  82 126 164 218 278 334 406 504
#     4  12  27  51  78 117 160 217 268 340 410 486
#     4  11  26  53  70 114 166 203 272 347 392 492
#
# _framework density 25.452971999999999
#
# number of rings (size 3 to 8) (size 9 to 14) (size 15 to 20)
#    0.000    0.250    5.000    2.250    7.000    0.500 
#    4.500    0.000    0.000    0.000    0.000    0.000 
#    0.000    0.000    0.000    0.000    0.000    0.000 
#
# Total GULP energy -396475.490023 kJ/mol
# GULP energy per Si atom -12389.859063 kJ/mol
# Density = 2.539504 g / cm^3
# Si number density = 25.452972 Si / 1000 Ang^3
#
#
#
# Elastic Constant Matrix: (Units=GPa)
#
#
# Indices 1 2 3 4 5 6 
#
# 1 158.9885 74.9785 51.5215 0.0000 0.0000 0.0000
# 2 74.9785 139.7484 52.0092 0.0000 0.0000 0.0000
# 3 51.5215 52.0092 103.5801 0.0000 0.0000 0.0000
# 4 0.0000 0.0000 0.0000 61.1230 0.0000 0.0000
# 5 0.0000 0.0000 0.0000 0.0000-3570.1432 0.0000
# 6 0.0000 0.0000 0.0000 0.0000 0.0000 48.4095
#
#
#
# Elastic Compliance Matrix: (Units=1/GPa)
#
#
# Indices 1 2 3 4 5 6 
#
# 1 0.008918 -0.003854 -0.002501 0.000000 0.000000 0.000000
# 2 -0.003854 0.010466 -0.003338 0.000000 0.000000 0.000000
# 3 -0.002501 -0.003338 0.012574 0.000000 0.000000 0.000000
# 4 0.000000 0.000000 0.000000 0.016360 0.000000 0.000000
# 5 0.000000 0.000000 0.000000 0.000000 -0.000280 0.000000
# 6 0.000000 0.000000 0.000000 0.000000 0.000000 0.020657
#
#
# Mechanical properties :
#
#
# Convention : Reuss Voigt Hill
#
# Bulk Modulus (GPa) = 79.53844 84.37059 81.95451
# Shear Modulus (GPa) = 54.18829 -677.20161 -311.50666
#
# Velocity S-wave (km/s) = 4.61907 -16.32904 -11.07479
# Velocity P-wave (km/s) = 7.73077 17.95263 11.45715
#
# Compressibility (1/GPa) = 0.01257254
#
# Stress axis : x y z
#
# Youngs Moduli (GPa) = 112.13816 95.55007 79.52754
#
# Poissons Ratio (x) = 0.36824 0.19886
# Poissons Ratio (y) = 0.43217 0.26547
# Poissons Ratio (z) = 0.28041 0.31895
#
# Static dielectric constant tensor:
#      x y z
#    x 5.211560 0.000000 0.000000 
#    y 0.000000 4.435300 0.000000 
#    z 0.000000 0.000000 4.435230 
# 
# 
# High freq. dielectric constant tensor:
#      x y z
#    x 2.049540 0.000000 0.000000 
#    y 0.000000 2.027340 0.000000 
#    z 0.000000 0.000000 2.005390 
# 
# From -- ./inp_files/10838.got.cif
#   From: 2010.03.12/outbox.cif.g09.slc.cpg/sg68_6_cif.got.tgz:10838.got - 2010.04.10 23:14:56.
