data_PCOD8283323
_publ_section_title
;
Structure prediction by ZEFSAII (Michael W. Deem and Ramdas Pophale) SiO2 
 PCOD8283323
Probable space group: C C C A
;
_chemical_formula_sum "Si O2"
_cell_formula_units_Z 92
_cell_length_a 24.656549
_cell_length_b 8.283029
_cell_length_c 21.060803
_cell_angle_alpha 90.000000
_cell_angle_beta 90.000000
_cell_angle_gamma 90.000000
_cell_volume 4301.266971
_symmetry_space_group_name_H-M "C C C A"
_symmetry_group_IT_number 68
_space_group.IT_coordinate_system_code '2'
_symmetry_cell_setting 'orthorhombic'
loop_
_space_group_symop_operation_xyz
x,y,z
-x,1/2-y,z
x,1/2-y,1/2-z
-x,y,1/2-z
-x,-y,-z
x,1/2+y,-z
-x,1/2+y,1/2+z
x,-y,1/2+z
1/2+x,1/2+y,z
1/2-x,-y,z
1/2+x,-y,1/2-z
1/2-x,1/2+y,1/2-z
1/2-x,1/2-y,-z
1/2+x,y,-z
1/2-x,y,1/2+z
1/2+x,1/2-y,1/2+z
loop_
_atom_site_type_symbol
_atom_site_label
_atom_site_fract_x
_atom_site_fract_y
_atom_site_fract_z
Si Si1 0.630425 0.448288 0.073864
Si Si2 0.011336 0.559838 0.931105
Si Si3 0.335962 0.296837 0.180070
Si Si4 0.155901 0.796155 0.943118
Si Si5 0.000000 0.250000 0.250000
Si Si6 0.576369 0.451523 0.842450
Si Si7 0.750000 0.500000 0.894543
O O1 0.571213 0.515532 0.090675
O O2 0.652071 0.355990 0.135421
O O3 0.667723 0.604682 0.059667
O O4 0.628726 0.334241 0.011556
O O5 0.000000 0.750000 0.922921
O O6 0.968093 0.464598 0.887827
O O7 0.000000 0.500000 0.000000
O O8 0.316650 0.250000 0.250000
O O9 0.389234 0.406708 0.189472
O O10 0.286311 0.390965 0.150205
O O11 0.116553 0.841745 0.884918
O O12 0.213133 0.887741 0.939252
O O13 0.042003 0.353837 0.209094
#
# Coordination Sequence:
#
# PCOD8283323 Si02
#       7
#    16  16  16  16   4  16   8
#     4  12  24  43  70 106 141 176 228 286 350 407
#     4  12  23  39  66 102 138 187 222 272 342 405
#     4  11  29  48  68 103 138 181 234 291 343 423
#     4  11  23  44  73 102 138 177 230 297 339 410
#     4  12  24  44  70  96 136 196 220 272 340 410
#     4  11  24  43  66 101 140 183 233 278 335 412
#     4  10  26  50  72  98 132 180 236 292 360 404
#
# _framework density 21.389047000000001
#
# number of rings (size 3 to 8) (size 9 to 14) (size 15 to 20)
#    0.000    0.696    4.348    2.087    7.304    4.870 
#    3.130    0.000    0.000    0.000    0.000    0.000 
#    0.000    0.000    0.000    0.000    0.000    0.000 
#
# Total GULP energy -570378.051462 kJ/mol
# GULP energy per Si atom -12399.522858 kJ/mol
# Density = 2.134037 g / cm^3
# Si number density = 21.389047 Si / 1000 Ang^3
#
#
#
# Elastic Constant Matrix: (Units=GPa)
#
#
# Indices 1 2 3 4 5 6 
#
# 1 128.9513 46.8014 31.2879 0.0000 0.0000 0.0000
# 2 46.8014 118.6755 39.5194 0.0000 0.0000 0.0000
# 3 31.2879 39.5194 107.3578 0.0000 0.0000 0.0000
# 4 0.0000 0.0000 0.0000 28.4383 0.0000 0.0000
# 5 0.0000 0.0000 0.0000 0.0000 22.0387 0.0000
# 6 0.0000 0.0000 0.0000 0.0000 0.0000 29.5383
#
#
#
# Elastic Compliance Matrix: (Units=1/GPa)
#
#
# Indices 1 2 3 4 5 6 
#
# 1 0.009270 -0.003141 -0.001545 0.000000 0.000000 0.000000
# 2 -0.003141 0.010668 -0.003012 0.000000 0.000000 0.000000
# 3 -0.001545 -0.003012 0.010874 0.000000 0.000000 0.000000
# 4 0.000000 0.000000 0.000000 0.035164 0.000000 0.000000
# 5 0.000000 0.000000 0.000000 0.000000 0.045375 0.000000
# 6 0.000000 0.000000 0.000000 0.000000 0.000000 0.033854
#
#
# Mechanical properties :
#
#
# Convention : Reuss Voigt Hill
#
# Bulk Modulus (GPa) = 64.86986 65.57800 65.22393
# Shear Modulus (GPa) = 30.16797 31.82811 30.99804
#
# Velocity S-wave (km/s) = 3.75966 3.86172 3.81103
# Velocity P-wave (km/s) = 7.01720 7.11407 7.06580
#
# Compressibility (1/GPa) = 0.01541548
#
# Stress axis : x y z
#
# Youngs Moduli (GPa) = 107.87683 93.73889 91.96604
#
# Poissons Ratio (x) = 0.29444 0.14211
# Poissons Ratio (y) = 0.33885 0.27696
# Poissons Ratio (z) = 0.16670 0.28230
#
# Static dielectric constant tensor:
#      x y z
#    x 3.789200 0.000000 0.000000 
#    y 0.000000 3.701660 0.000000 
#    z 0.000000 0.000000 3.423060 
# 
# 
# High freq. dielectric constant tensor:
#      x y z
#    x 1.852410 0.000000 0.000000 
#    y 0.000000 1.842040 0.000000 
#    z 0.000000 0.000000 1.842660 
# 
# From -- ./inp_files/41276.got.cif
#   From: 2010.03.12/outbox.cif.g09.slc.cpg/sg68_21_cif.got.tgz:41276.got - 2010.04.10 23:14:56.
