data_PCOD8283561
_publ_section_title
;
Structure prediction by ZEFSAII (Michael W. Deem and Ramdas Pophale) SiO2 
 PCOD8283561
Probable space group: C C C A
;
_chemical_formula_sum "Si O2"
_cell_formula_units_Z 96
_cell_length_a 13.009969
_cell_length_b 15.425354
_cell_length_c 21.115634
_cell_angle_alpha 90.000000
_cell_angle_beta 90.000000
_cell_angle_gamma 90.000000
_cell_volume 4237.556746
_symmetry_space_group_name_H-M "C C C A"
_symmetry_group_IT_number 68
_space_group.IT_coordinate_system_code '2'
_symmetry_cell_setting 'orthorhombic'
loop_
_space_group_symop_operation_xyz
x,y,z
-x,1/2-y,z
x,1/2-y,1/2-z
-x,y,1/2-z
-x,-y,-z
x,1/2+y,-z
-x,1/2+y,1/2+z
x,-y,1/2+z
1/2+x,1/2+y,z
1/2-x,-y,z
1/2+x,-y,1/2-z
1/2-x,1/2+y,1/2-z
1/2-x,1/2-y,-z
1/2+x,y,-z
1/2-x,y,1/2+z
1/2+x,1/2-y,1/2+z
loop_
_atom_site_type_symbol
_atom_site_label
_atom_site_fract_x
_atom_site_fract_y
_atom_site_fract_z
Si Si1 0.303358 0.417788 0.067655
Si Si2 0.004100 0.491128 0.625381
Si Si3 0.209465 0.752672 0.887702
Si Si4 0.000000 0.400712 0.250000
Si Si5 0.342529 0.250000 0.750000
Si Si6 0.421516 0.319563 0.424386
Si Si7 0.050005 0.647755 0.961406
O O1 0.250000 0.500000 0.034353
O O2 0.379131 0.455814 0.122015
O O3 0.217733 0.355702 0.099551
O O4 0.365946 0.364583 0.016068
O O5 0.978697 0.535585 0.691638
O O6 0.929374 0.410112 0.612470
O O7 0.980570 0.558325 0.569877
O O8 0.224245 0.734540 0.812863
O O9 0.302589 0.705380 0.922868
O O10 0.097745 0.715952 0.910253
O O11 0.905689 0.337388 0.264821
O O12 0.500000 0.250000 0.391658
O O13 0.448144 0.320480 0.500304
#
# Coordination Sequence:
#
# PCOD8283561 Si02
#       7
#    16  16  16   8   8  16  16
#     4  11  24  41  69 102 145 182 230 289 361 423
#     4  11  24  45  68 105 141 191 235 300 358 428
#     4  12  25  47  71 110 141 194 242 294 365 437
#     4  11  24  50  71 100 142 188 245 298 354 429
#     4  11  26  48  73 102 144 188 245 296 355 438
#     4  11  24  44  71 105 148 186 238 296 370 432
#     4  11  25  42  72 106 144 185 235 301 357 432
#
# _framework density 22.654565000000002
#
# number of rings (size 3 to 8) (size 9 to 14) (size 15 to 20)
#    0.000    0.833    5.000    3.500    4.667    2.667 
#    0.000    1.667    0.000    0.000    0.000    0.000 
#    0.000    0.000    0.000    0.000    0.000    0.000 
#
# Total GULP energy -595117.855004 kJ/mol
# GULP energy per Si atom -12398.288646 kJ/mol
# Density = 2.260300 g / cm^3
# Si number density = 22.654565 Si / 1000 Ang^3
#
#
#
# Elastic Constant Matrix: (Units=GPa)
#
#
# Indices 1 2 3 4 5 6 
#
# 1 86.1012 35.5799 28.1307 0.0000 0.0000 0.0000
# 2 35.5799 153.6062 44.8953 0.0000 0.0000 0.0000
# 3 28.1307 44.8953 132.1496 0.0000 0.0000 0.0000
# 4 0.0000 0.0000 0.0000 33.9854 0.0000 0.0000
# 5 0.0000 0.0000 0.0000 0.0000 21.4826 0.0000
# 6 0.0000 0.0000 0.0000 0.0000 0.0000 29.4582
#
#
#
# Elastic Compliance Matrix: (Units=1/GPa)
#
#
# Indices 1 2 3 4 5 6 
#
# 1 0.013295 -0.002501 -0.001980 0.000000 0.000000 0.000000
# 2 -0.002501 0.007698 -0.002083 0.000000 0.000000 0.000000
# 3 -0.001980 -0.002083 0.008696 0.000000 0.000000 0.000000
# 4 0.000000 0.000000 0.000000 0.029424 0.000000 0.000000
# 5 0.000000 0.000000 0.000000 0.000000 0.046549 0.000000
# 6 0.000000 0.000000 0.000000 0.000000 0.000000 0.033946
#
#
# Mechanical properties :
#
#
# Convention : Reuss Voigt Hill
#
# Bulk Modulus (GPa) = 60.38267 65.45209 62.91738
# Shear Modulus (GPa) = 31.59400 34.53532 33.06466
#
# Velocity S-wave (km/s) = 3.73848 3.90863 3.82450
# Velocity P-wave (km/s) = 6.73398 7.02310 6.88006
#
# Compressibility (1/GPa) = 0.01656104
#
# Stress axis : x y z
#
# Youngs Moduli (GPa) = 75.21831 129.90086 114.98973
#
# Poissons Ratio (x) = 0.32483 0.22774
# Poissons Ratio (y) = 0.18809 0.23952
# Poissons Ratio (z) = 0.14897 0.27058
#
# Static dielectric constant tensor:
#      x y z
#    x 4.138260 0.000000 0.000000 
#    y 0.000000 4.485100 0.000000 
#    z 0.000000 0.000000 3.925420 
# 
# 
# High freq. dielectric constant tensor:
#      x y z
#    x 1.888690 0.000000 0.000000 
#    y 0.000000 1.925190 0.000000 
#    z 0.000000 0.000000 1.873520 
# 
# From -- ./inp_files/38625.got.cif
#   From: 2010.03.12/outbox.cif.g09.slc.cpg/sg68_20_cif.got.tgz:38625.got - 2010.04.10 23:14:56.
