data_PCOD8283273
_publ_section_title
;
Structure prediction by ZEFSAII (Michael W. Deem and Ramdas Pophale) SiO2 
 PCOD8283273
Probable space group: C C C A
;
_chemical_formula_sum "Si O2"
_cell_formula_units_Z 64
_cell_length_a 5.218774
_cell_length_b 30.576249
_cell_length_c 17.055266
_cell_angle_alpha 90.000000
_cell_angle_beta 90.000000
_cell_angle_gamma 90.000000
_cell_volume 2721.517891
_symmetry_space_group_name_H-M "C C C A"
_symmetry_group_IT_number 68
_space_group.IT_coordinate_system_code '2'
_symmetry_cell_setting 'orthorhombic'
loop_
_space_group_symop_operation_xyz
x,y,z
-x,1/2-y,z
x,1/2-y,1/2-z
-x,y,1/2-z
-x,-y,-z
x,1/2+y,-z
-x,1/2+y,1/2+z
x,-y,1/2+z
1/2+x,1/2+y,z
1/2-x,-y,z
1/2+x,-y,1/2-z
1/2-x,1/2+y,1/2-z
1/2-x,1/2-y,-z
1/2+x,y,-z
1/2-x,y,1/2+z
1/2+x,1/2-y,1/2+z
loop_
_atom_site_type_symbol
_atom_site_label
_atom_site_fract_x
_atom_site_fract_y
_atom_site_fract_z
Si Si1 0.967543 0.945944 0.949826
Si Si2 0.618293 0.872693 0.335701
Si Si3 0.000000 0.075111 0.750000
Si Si4 0.520016 0.301075 0.547336
Si Si5 0.250000 0.000000 0.338721
O O1 0.007787 0.988897 0.894927
O O2 0.025421 0.902556 0.899291
O O3 0.180963 0.946507 0.017694
O O4 0.500000 0.872670 0.250000
O O5 0.899459 0.893745 0.320748
O O6 0.602311 0.823956 0.370962
O O7 0.213879 0.042774 0.785193
O O8 0.500000 0.250000 0.565674
O O9 0.740205 0.314696 0.484851
#
# Coordination Sequence:
#
# PCOD8283273 Si02
#       5
#    16  16   8  16   8
#     4  12  26  45  68 100 136 186 248 306 360 423
#     4  12  26  45  71 105 146 193 240 302 372 452
#     4  12  26  46  68 107 152 198 251 316 386 442
#     4  10  24  48  79 111 146 187 236 297 369 446
#     4  12  24  46  68  98 142 200 252 318 372 442
#
# _framework density 23.516286999999998
#
# number of rings (size 3 to 8) (size 9 to 14) (size 15 to 20)
#    0.000    0.500    2.500    5.250    3.500    2.500 
#    0.000    0.000    0.000    0.000    0.000    0.000 
#    0.000    0.000    0.000    0.000    0.000    0.000 
#
# Total GULP energy -396566.952213 kJ/mol
# GULP energy per Si atom -12392.717257 kJ/mol
# Density = 2.346276 g / cm^3
# Si number density = 23.516287 Si / 1000 Ang^3
#
#
#
# Elastic Constant Matrix: (Units=GPa)
#
#
# Indices 1 2 3 4 5 6 
#
# 1 103.8875 34.2390 34.9966 0.0000 0.0000 0.0000
# 2 34.2390 111.9325 60.0663 0.0000 0.0000 0.0000
# 3 34.9966 60.0663 124.4463 0.0000 0.0000 0.0000
# 4 0.0000 0.0000 0.0000 48.9091 0.0000 0.0000
# 5 0.0000 0.0000 0.0000 0.0000 26.5361 0.0000
# 6 0.0000 0.0000 0.0000 0.0000 0.0000 30.7431
#
#
#
# Elastic Compliance Matrix: (Units=1/GPa)
#
#
# Indices 1 2 3 4 5 6 
#
# 1 0.011060 -0.002313 -0.001994 0.000000 0.000000 0.000000
# 2 -0.002313 0.012541 -0.005402 0.000000 0.000000 0.000000
# 3 -0.001994 -0.005402 0.011204 0.000000 0.000000 0.000000
# 4 0.000000 0.000000 0.000000 0.020446 0.000000 0.000000
# 5 0.000000 0.000000 0.000000 0.000000 0.037685 0.000000
# 6 0.000000 0.000000 0.000000 0.000000 0.000000 0.032528
#
#
# Mechanical properties :
#
#
# Convention : Reuss Voigt Hill
#
# Bulk Modulus (GPa) = 64.99597 66.54113 65.76855
# Shear Modulus (GPa) = 33.33114 35.30195 34.31655
#
# Velocity S-wave (km/s) = 3.76887 3.87870 3.82418
# Velocity P-wave (km/s) = 6.82920 6.95818 6.89399
#
# Compressibility (1/GPa) = 0.01538557
#
# Stress axis : x y z
#
# Youngs Moduli (GPa) = 90.41751 79.74055 89.25487
#
# Poissons Ratio (x) = 0.18446 0.17795
# Poissons Ratio (y) = 0.20915 0.48220
# Poissons Ratio (z) = 0.18027 0.43080
#
# Static dielectric constant tensor:
#      x y z
#    x 4.480660 0.000000 0.000000 
#    y 0.000000 4.350280 0.000000 
#    z 0.000000 0.000000 4.523880 
# 
# 
# High freq. dielectric constant tensor:
#      x y z
#    x 1.933470 0.000000 0.000000 
#    y 0.000000 1.925610 0.000000 
#    z 0.000000 0.000000 1.940700 
# 
# From -- ./inp_files/27147.got.cif
#   From: 2010.03.12/outbox.cif.g09.slc.cpg/sg68_14_cif.got.tgz:27147.got - 2010.04.10 23:14:56.
