data_PCOD8283631
_publ_section_title
;
Structure prediction by ZEFSAII (Michael W. Deem and Ramdas Pophale) SiO2 
 PCOD8283631
Probable space group: C C C A
;
_chemical_formula_sum "Si O2"
_cell_formula_units_Z 60
_cell_length_a 10.793297
_cell_length_b 10.804137
_cell_length_c 21.941879
_cell_angle_alpha 90.000000
_cell_angle_beta 90.000000
_cell_angle_gamma 90.000000
_cell_volume 2558.692087
_symmetry_space_group_name_H-M "C C C A"
_symmetry_group_IT_number 68
_space_group.IT_coordinate_system_code '2'
_symmetry_cell_setting 'orthorhombic'
loop_
_space_group_symop_operation_xyz
x,y,z
-x,1/2-y,z
x,1/2-y,1/2-z
-x,y,1/2-z
-x,-y,-z
x,1/2+y,-z
-x,1/2+y,1/2+z
x,-y,1/2+z
1/2+x,1/2+y,z
1/2-x,-y,z
1/2+x,-y,1/2-z
1/2-x,1/2+y,1/2-z
1/2-x,1/2-y,-z
1/2+x,y,-z
1/2-x,y,1/2+z
1/2+x,1/2-y,1/2+z
loop_
_atom_site_type_symbol
_atom_site_label
_atom_site_fract_x
_atom_site_fract_y
_atom_site_fract_z
Si Si1 0.855650 0.771966 0.049952
Si Si2 0.638723 0.915709 0.843584
Si Si3 0.000000 0.250000 0.750000
Si Si4 0.250000 0.500000 0.116836
Si Si5 0.035678 0.885297 0.820665
O O1 0.824470 0.669315 0.100271
O O2 0.837826 0.911642 0.075418
O O3 0.000000 0.750000 0.028179
O O4 0.750000 0.750000 0.000000
O O5 0.592092 0.831649 0.789041
O O6 0.750000 0.000000 0.819089
O O7 0.532906 0.013147 0.862311
O O8 0.321591 0.592106 0.163032
O O9 0.000000 0.750000 0.843624
O O10 0.000000 0.903548 0.750000
#
# Coordination Sequence:
#
# PCOD8283631 Si02
#       5
#    16  16   4   8  16
#     4  12  29  54  85 114 158 218 278 344 406 479
#     4  12  26  47  80 118 160 207 265 326 408 483
#     4  12  24  52  78 118 168 204 260 320 410 476
#     4  12  26  54  80 110 164 210 272 330 410 476
#     4  11  25  45  77 121 160 204 258 321 405 487
#
# _framework density 23.449480999999999
#
# number of rings (size 3 to 8) (size 9 to 14) (size 15 to 20)
#    0.000    0.267    5.333    1.600    3.733    6.400 
#    0.000    0.000    0.000    0.000    0.000    0.000 
#    0.000    0.000    0.000    0.000    0.000    0.000 
#
# Total GULP energy -371782.345993 kJ/mol
# GULP energy per Si atom -12392.744866 kJ/mol
# Density = 2.339611 g / cm^3
# Si number density = 23.449481 Si / 1000 Ang^3
#
#
#
# Elastic Constant Matrix: (Units=GPa)
#
#
# Indices 1 2 3 4 5 6 
#
# 1 177.3113 76.3868 77.5553 0.0000 0.0000 0.0000
# 2 76.3868 191.0433 70.6275 0.0000 0.0000 0.0000
# 3 77.5553 70.6275 127.9180 0.0000 0.0000 0.0000
# 4 0.0000 0.0000 0.0000 -34.5135 0.0000 0.0000
# 5 0.0000 0.0000 0.0000 0.0000 49.4664 0.0000
# 6 0.0000 0.0000 0.0000 0.0000 0.0000 57.8512
#
#
#
# Elastic Compliance Matrix: (Units=1/GPa)
#
#
# Indices 1 2 3 4 5 6 
#
# 1 0.008138 -0.001797 -0.003942 0.000000 0.000000 0.000000
# 2 -0.001797 0.006973 -0.002761 0.000000 0.000000 0.000000
# 3 -0.003942 -0.002761 0.011732 0.000000 0.000000 0.000000
# 4 0.000000 0.000000 0.000000 -0.028974 0.000000 0.000000
# 5 0.000000 0.000000 0.000000 0.000000 0.020216 0.000000
# 6 0.000000 0.000000 0.000000 0.000000 0.000000 0.017286
#
#
# Mechanical properties :
#
#
# Convention : Reuss Voigt Hill
#
# Bulk Modulus (GPa) = 101.58286 105.04575 103.31430
# Shear Modulus (GPa) = 89.84480 32.67433 61.25956
#
# Velocity S-wave (km/s) = 6.19656 3.73687 5.11672
# Velocity P-wave (km/s) = 9.72679 7.96949 8.89166
#
# Compressibility (1/GPa) = 0.00984418
#
# Stress axis : x y z
#
# Youngs Moduli (GPa) = 122.88020 143.40020 85.23692
#
# Poissons Ratio (x) = 0.25763 0.33601
# Poissons Ratio (y) = 0.22076 0.23534
# Poissons Ratio (z) = 0.48440 0.39594
#
# Static dielectric constant tensor:
#      x y z
#    x 4.383500 0.000000 0.000000 
#    y 0.000000 4.933300 0.000000 
#    z 0.000000 0.000000 4.676670 
# 
# 
# High freq. dielectric constant tensor:
#      x y z
#    x 1.946460 0.000000 0.000000 
#    y 0.000000 1.959790 0.000000 
#    z 0.000000 0.000000 1.901980 
# 
# From -- ./inp_files/37066.got.cif
#   From: 2010.03.12/outbox.cif.g09.slc.cpg/sg68_19_cif.got.tgz:37066.got - 2010.04.10 23:14:56.
