data_PCOD8283991
_publ_section_title
;
Structure prediction by ZEFSAII (Michael W. Deem and Ramdas Pophale) SiO2 
 PCOD8283991
Probable space group: F M M M
;
_chemical_formula_sum "Si O2"
_cell_formula_units_Z 128
_cell_length_a 28.350134
_cell_length_b 20.395723
_cell_length_c 12.068560
_cell_angle_alpha 90.000000
_cell_angle_beta 90.000000
_cell_angle_gamma 90.000000
_cell_volume 6978.300626
_symmetry_space_group_name_H-M "F M M M"
_symmetry_group_IT_number 69
_symmetry_cell_setting 'orthorhombic'
loop_
_space_group_symop_operation_xyz
x,y,z
-x,-y,z
x,-y,-z
-x,y,-z
-x,-y,-z
x,y,-z
-x,y,z
x,-y,z
x,1/2+y,1/2+z
-x,1/2-y,1/2+z
x,1/2-y,1/2-z
-x,1/2+y,1/2-z
-x,1/2-y,1/2-z
x,1/2+y,1/2-z
-x,1/2+y,1/2+z
x,1/2-y,1/2+z
1/2+x,y,1/2+z
1/2-x,-y,1/2+z
1/2+x,-y,1/2-z
1/2-x,y,1/2-z
1/2-x,-y,1/2-z
1/2+x,y,1/2-z
1/2-x,y,1/2+z
1/2+x,-y,1/2+z
1/2+x,1/2+y,z
1/2-x,1/2-y,z
1/2+x,1/2-y,-z
1/2-x,1/2+y,-z
1/2-x,1/2-y,-z
1/2+x,1/2+y,-z
1/2-x,1/2+y,z
1/2+x,1/2-y,z
loop_
_atom_site_type_symbol
_atom_site_label
_atom_site_fract_x
_atom_site_fract_y
_atom_site_fract_z
Si Si1 0.845630 0.073941 0.500000
Si Si2 0.613262 0.924102 0.628945
Si Si3 0.447996 0.881495 0.000000
Si Si4 0.300939 0.576808 0.277423
Si Si5 0.946612 0.678394 0.764710
O O1 0.902836 0.070880 0.500000
O O2 0.824388 0.108260 0.389030
O O3 0.828000 0.000000 0.500000
O O4 0.611686 0.906994 0.500000
O O5 0.665778 0.909526 0.672494
O O6 0.577450 0.878422 0.694058
O O7 0.599358 0.000000 0.651405
O O8 0.444008 0.835468 0.105745
O O9 0.500000 0.917700 0.000000
O O10 0.294679 0.500000 0.297455
O O11 0.250000 0.608851 0.250000
O O12 0.922614 0.750000 0.750000
O O13 0.000000 0.680843 0.720701
#
# Coordination Sequence:
#
# PCOD8283991 Si02
#       5
#    16  32  16  32  32
#     4  10  18  31  52  79 109 140 177 225 279 331
#     4  10  21  36  55  82 114 145 183 230 279 330
#     4  10  20  35  54  79 106 139 185 231 273 325
#     4   9  18  31  50  77 109 143 180 224 273 326
#     4  10  22  38  57  80 109 146 187 227 272 333
#
# _framework density 18.342575
#
# number of rings (size 3 to 8) (size 9 to 14) (size 15 to 20)
#    0.000    2.250    2.500    0.000    3.500    1.250 
#    0.000    3.750    0.000    0.750    0.000    3.500 
#    0.000    0.000    0.000    0.000    0.000    0.000 
#
# Total GULP energy -396585.213062 kJ/mol
# GULP energy per Si atom -12393.287908 kJ/mol
# Density = 1.830083 g / cm^3
# Si number density = 18.342575 Si / 1000 Ang^3
#
#
#
# Elastic Constant Matrix: (Units=GPa)
#
#
# Indices 1 2 3 4 5 6 
#
# 1 128.8175 36.9886 64.0145 0.0000 0.0000 0.0000
# 2 36.9886 67.2501 47.9468 0.0000 0.0000 0.0000
# 3 64.0145 47.9468 152.9074 0.0001 0.0000 0.0000
# 4 0.0000 0.0000 0.0001 13.3946 0.0000 0.0000
# 5 0.0000 0.0000 0.0000 0.0000 31.2774 0.0000
# 6 0.0000 0.0000 0.0000 0.0000 0.0000 0.0711
#
#
#
# Elastic Compliance Matrix: (Units=1/GPa)
#
#
# Indices 1 2 3 4 5 6 
#
# 1 0.010359 -0.003356 -0.003284 0.000000 0.000000 0.000000
# 2 -0.003356 0.020239 -0.004941 0.000000 0.000000 0.000000
# 3 -0.003284 -0.004941 0.009464 0.000000 0.000000 -0.000001
# 4 0.000000 0.000000 0.000000 0.074657 0.000000 -0.000007
# 5 0.000000 0.000000 0.000000 0.000000 0.031972 0.000002
# 6 0.000000 0.000000 -0.000001 -0.000007 0.000002 14.055651
#
#
# Mechanical properties :
#
#
# Convention : Reuss Voigt Hill
#
# Bulk Modulus (GPa) = 59.17620 71.87497 65.52558
# Shear Modulus (GPa) = 0.35134 22.28363 11.31749
#
# Velocity S-wave (km/s) = 0.43813 3.48926 2.48666
# Velocity P-wave (km/s) = 5.70856 7.45004 6.63667
#
# Compressibility (1/GPa) = 0.01689869
#
# Stress axis : x y z
#
# Youngs Moduli (GPa) = 96.53786 49.41070 105.66006
#
# Poissons Ratio (x) = 0.16581 0.34703
# Poissons Ratio (y) = 0.32396 0.52209
# Poissons Ratio (z) = 0.31707 0.24415
#
# Static dielectric constant tensor:
#      x y z
#    x 3.607400 0.000000 0.000000 
#    y 0.000000 3.032210 0.000000 
#    z 0.000000 0.000000 3.669070 
# 
# 
# High freq. dielectric constant tensor:
#      x y z
#    x 1.714460 0.000000 0.000000 
#    y 0.000000 1.661640 0.000000 
#    z 0.000000 0.000000 1.730240 
# 
# From -- ./inp_files/10121.got.cif
#   From: 2010.03.12/outbox.cif.g09.slc.cpg/sg69_6_cif.got.tgz:10121.got - 2010.04.10 23:52:46.
