data_PCOD8283838
_publ_section_title
;
Structure prediction by ZEFSAII (Michael W. Deem and Ramdas Pophale) SiO2 
 PCOD8283838
Probable space group: F M M M
;
_chemical_formula_sum "Si O2"
_cell_formula_units_Z 160
_cell_length_a 18.730011
_cell_length_b 24.620550
_cell_length_c 17.806016
_cell_angle_alpha 90.000000
_cell_angle_beta 90.000000
_cell_angle_gamma 90.000000
_cell_volume 8211.122705
_symmetry_space_group_name_H-M "F M M M"
_symmetry_group_IT_number 69
_symmetry_cell_setting 'orthorhombic'
loop_
_space_group_symop_operation_xyz
x,y,z
-x,-y,z
x,-y,-z
-x,y,-z
-x,-y,-z
x,y,-z
-x,y,z
x,-y,z
x,1/2+y,1/2+z
-x,1/2-y,1/2+z
x,1/2-y,1/2-z
-x,1/2+y,1/2-z
-x,1/2-y,1/2-z
x,1/2+y,1/2-z
-x,1/2+y,1/2+z
x,1/2-y,1/2+z
1/2+x,y,1/2+z
1/2-x,-y,1/2+z
1/2+x,-y,1/2-z
1/2-x,y,1/2-z
1/2-x,-y,1/2-z
1/2+x,y,1/2-z
1/2-x,y,1/2+z
1/2+x,-y,1/2+z
1/2+x,1/2+y,z
1/2-x,1/2-y,z
1/2+x,1/2-y,-z
1/2-x,1/2+y,-z
1/2-x,1/2-y,-z
1/2+x,1/2+y,-z
1/2-x,1/2+y,z
1/2+x,1/2-y,z
loop_
_atom_site_type_symbol
_atom_site_label
_atom_site_fract_x
_atom_site_fract_y
_atom_site_fract_z
Si Si1 0.582101 0.809347 0.087398
Si Si2 0.919560 0.500000 0.335750
Si Si3 0.173723 0.898979 0.167361
Si Si4 0.670187 0.402714 0.343332
Si Si5 0.420726 0.500000 0.343741
Si Si6 0.829862 0.271202 0.333375
O O1 0.500000 0.815800 0.112954
O O2 0.634341 0.846220 0.136526
O O3 0.611556 0.749876 0.107042
O O4 0.590326 0.822181 0.000000
O O5 0.881543 0.444117 0.365471
O O6 0.921496 0.500000 0.245955
O O7 0.000000 0.500000 0.367892
O O8 0.249463 0.908586 0.125347
O O9 0.177524 0.910139 0.255083
O O10 0.156854 0.835443 0.157495
O O11 0.619560 0.448435 0.378047
O O12 0.500000 0.500000 0.376901
O O13 0.848432 0.250000 0.250000
O O14 0.750000 0.250000 0.354051
#
# Coordination Sequence:
#
# PCOD8283838 Si02
#       6
#    32  16  32  32  16  32
#     4  11  24  38  52  78 116 151 183 229 285 335
#     4   9  19  31  47  83 120 139 175 234 290 337
#     4  10  18  32  57  81 108 147 185 232 284 329
#     4  10  17  34  52  77 109 143 186 232 272 329
#     4   9  17  27  48  76 106 146 184 219 275 336
#     4  11  19  37  59  85 112 142 190 237 279 335
#
# _framework density 19.485764
#
# number of rings (size 3 to 8) (size 9 to 14) (size 15 to 20)
#    0.000    1.800    4.000    2.400    0.000    4.800 
#    0.000    0.500    0.000    1.800    0.000    0.700 
#    0.000    4.800    0.000    0.000    0.000    0.000 
#
# Total GULP energy -495608.486336 kJ/mol
# GULP energy per Si atom -12390.212158 kJ/mol
# Density = 1.944141 g / cm^3
# Si number density = 19.485764 Si / 1000 Ang^3
#
#
#
# Elastic Constant Matrix: (Units=GPa)
#
#
# Indices 1 2 3 4 5 6 
#
# 1 173.5717 79.6159 28.2327 0.0000 0.0000 0.0000
# 2 79.6159 164.1858 4.0683 0.0000 0.0000 0.0000
# 3 28.2327 4.0683 20.3165 0.0000 0.0000 0.0000
# 4 0.0000 0.0000 0.0000 -2.8275 0.0000 0.0000
# 5 0.0000 0.0000 0.0000 0.0000 19.1240 0.0000
# 6 0.0000 0.0000 0.0000 0.0000 0.0000 33.1935
#
#
#
# Elastic Compliance Matrix: (Units=1/GPa)
#
#
# Indices 1 2 3 4 5 6 
#
# 1 0.009915 -0.004489 -0.012880 0.000000 0.000000 0.000000
# 2 -0.004489 0.008153 0.004605 0.000000 0.000000 0.000000
# 3 -0.012880 0.004605 0.066198 0.000000 0.000000 0.000000
# 4 0.000000 0.000000 0.000000 -0.353666 0.000000 0.000000
# 5 0.000000 0.000000 0.000000 0.000000 0.052290 0.000000
# 6 0.000000 0.000000 0.000000 0.000000 0.000000 0.030126
#
#
# Mechanical properties :
#
#
# Convention : Reuss Voigt Hill
#
# Bulk Modulus (GPa) = 17.02441 64.65642 40.84042
# Shear Modulus (GPa) = -35.24191 26.30847 -4.46672
#
# Velocity S-wave (km/s) = -4.25737 3.67841 -1.51568
# Velocity P-wave (km/s) = 3.92571 7.16200 4.23575
#
# Compressibility (1/GPa) = 0.05873917
#
# Stress axis : x y z
#
# Youngs Moduli (GPa) = 100.85346 122.64978 15.10629
#
# Poissons Ratio (x) = 0.55057 0.19457
# Poissons Ratio (y) = 0.45273 -0.06957
# Poissons Ratio (z) = 1.29899 -0.56485
#
# Static dielectric constant tensor:
#      x y z
#    x 3.923540 0.000000 0.000000 
#    y 0.000000 3.886820 0.000000 
#    z 0.000000 0.000000 2.959730 
# 
# 
# High freq. dielectric constant tensor:
#      x y z
#    x 1.769900 0.000000 0.000000 
#    y 0.000000 1.775770 0.000000 
#    z 0.000000 0.000000 1.694500 
# 
# From -- ./inp_files/23229.got.cif
#   From: 2010.03.12/outbox.cif.g09.slc.cpg/sg69_12_cif.got.tgz:23229.got - 2010.04.10 23:52:46.
