data_PCOD8283773
_publ_section_title
;
Structure prediction by ZEFSAII (Michael W. Deem and Ramdas Pophale) SiO2 
 PCOD8283773
Probable space group: F M M M
;
_chemical_formula_sum "Si O2"
_cell_formula_units_Z 208
_cell_length_a 27.804959
_cell_length_b 24.213476
_cell_length_c 18.493787
_cell_angle_alpha 90.000000
_cell_angle_beta 90.000000
_cell_angle_gamma 90.000000
_cell_volume 12451.029156
_symmetry_space_group_name_H-M "F M M M"
_symmetry_group_IT_number 69
_symmetry_cell_setting 'orthorhombic'
loop_
_space_group_symop_operation_xyz
x,y,z
-x,-y,z
x,-y,-z
-x,y,-z
-x,-y,-z
x,y,-z
-x,y,z
x,-y,z
x,1/2+y,1/2+z
-x,1/2-y,1/2+z
x,1/2-y,1/2-z
-x,1/2+y,1/2-z
-x,1/2-y,1/2-z
x,1/2+y,1/2-z
-x,1/2+y,1/2+z
x,1/2-y,1/2+z
1/2+x,y,1/2+z
1/2-x,-y,1/2+z
1/2+x,-y,1/2-z
1/2-x,y,1/2-z
1/2-x,-y,1/2-z
1/2+x,y,1/2-z
1/2-x,y,1/2+z
1/2+x,-y,1/2+z
1/2+x,1/2+y,z
1/2-x,1/2-y,z
1/2+x,1/2-y,-z
1/2-x,1/2+y,-z
1/2-x,1/2-y,-z
1/2+x,1/2+y,-z
1/2-x,1/2+y,z
1/2+x,1/2-y,z
loop_
_atom_site_type_symbol
_atom_site_label
_atom_site_fract_x
_atom_site_fract_y
_atom_site_fract_z
Si Si1 0.239658 0.565495 0.419303
Si Si2 0.352509 0.063500 0.659694
Si Si3 0.945257 0.130899 0.177802
Si Si4 0.500000 0.561419 0.415596
Si Si5 0.919782 0.367402 0.154116
Si Si6 0.555626 0.252501 0.669980
Si Si7 0.170647 0.936066 0.675341
O O1 0.251740 0.587792 0.500000
O O2 0.236982 0.500000 0.419475
O O3 0.187328 0.588263 0.395061
O O4 0.279551 0.583627 0.360817
O O5 0.404068 0.091778 0.645814
O O6 0.329160 0.071830 0.738647
O O7 0.362815 0.000000 0.644219
O O8 0.939185 0.133282 0.263990
O O9 0.937850 0.190702 0.138452
O O10 0.000000 0.109832 0.161453
O O11 0.500000 0.500000 0.379190
O O12 0.500000 0.553695 0.500000
O O13 0.453401 0.595162 0.394152
O O14 0.918281 0.302953 0.126955
O O15 0.868209 0.394554 0.142839
O O16 0.500000 0.269534 0.673265
O O17 0.578003 0.250000 0.750000
O O18 0.158950 0.000000 0.655592
#
# Coordination Sequence:
#
# PCOD8283773 Si02
#       7
#    32  32  32  16  32  32  32
#     4   9  17  30  47  64  86 119 155 187 224 276
#     4   9  17  28  44  69  96 119 144 183 234 278
#     4   9  16  27  46  73  93 114 147 189 235 279
#     4  11  22  30  37  56  92 134 165 190 220 261
#     4  10  16  29  44  63  90 122 153 188 228 270
#     4   8  13  24  44  65  86 111 148 188 226 267
#     4   9  17  27  43  67  92 116 148 190 228 266
#
# _framework density 16.705445999999998
#
# number of rings (size 3 to 8) (size 9 to 14) (size 15 to 20)
#    0.000    2.846    1.538    1.846    0.000    3.385 
#    0.000    1.538    0.000    2.308    0.000    8.615 
#    0.000    0.000    0.000    0.000    0.000    0.000 
#
# Total GULP energy -644180.414463 kJ/mol
# GULP energy per Si atom -12388.084894 kJ/mol
# Density = 1.666742 g / cm^3
# Si number density = 16.705446 Si / 1000 Ang^3
#
#
#
# Elastic Constant Matrix: (Units=GPa)
#
#
# Indices 1 2 3 4 5 6 
#
# 1 131.5451 58.1328 31.1092 0.0000 0.0000 0.0000
# 2 58.1328 90.9484 26.8525 0.0000 0.0000 0.0000
# 3 31.1092 26.8525 34.3890 0.0000 0.0000 0.0000
# 4 0.0000 0.0000 0.0000 9.5992 0.0000 0.0000
# 5 0.0000 0.0000 0.0000 0.0000 13.4828 0.0000
# 6 0.0000 0.0000 0.0000 0.0000 0.0000 -69.0216
#
#
#
# Elastic Compliance Matrix: (Units=1/GPa)
#
#
# Indices 1 2 3 4 5 6 
#
# 1 0.011489 -0.005556 -0.006055 0.000000 0.000000 0.000000
# 2 -0.005556 0.016976 -0.008230 0.000000 0.000000 0.000000
# 3 -0.006055 -0.008230 0.040983 0.000000 0.000000 0.000000
# 4 0.000000 0.000000 0.000000 0.104176 0.000000 0.000000
# 5 0.000000 0.000000 0.000000 0.000000 0.074169 0.000000
# 6 0.000000 0.000000 0.000000 0.000000 0.000000 -0.014488
#
#
# Mechanical properties :
#
#
# Convention : Reuss Voigt Hill
#
# Bulk Modulus (GPa) = 33.59464 54.34127 43.96795
# Shear Modulus (GPa) = 17.67354 0.19794 8.93574
#
# Velocity S-wave (km/s) = 3.25614 0.34459 2.31530
# Velocity P-wave (km/s) = 5.85579 5.72346 5.79000
#
# Compressibility (1/GPa) = 0.02976665
#
# Stress axis : x y z
#
# Youngs Moduli (GPa) = 87.03796 58.90526 24.40043
#
# Poissons Ratio (x) = 0.32728 0.14775
# Poissons Ratio (y) = 0.48358 0.20081
# Poissons Ratio (z) = 0.52702 0.48478
#
# Static dielectric constant tensor:
#      x y z
#    x 3.218210 0.000000 0.000000 
#    y 0.000000 3.259680 0.000000 
#    z 0.000000 0.000000 2.887520 
# 
# 
# High freq. dielectric constant tensor:
#      x y z
#    x 1.640520 0.000000 0.000000 
#    y 0.000000 1.628900 0.000000 
#    z 0.000000 0.000000 1.604980 
# 
# From -- ./inp_files/26127.got.cif
#   From: 2010.03.12/outbox.cif.g09.slc.cpg/sg69_14_cif.got.tgz:26127.got - 2010.04.10 23:52:46.
