data_PCOD8283858
_publ_section_title
;
Structure prediction by ZEFSAII (Michael W. Deem and Ramdas Pophale) SiO2 
 PCOD8283858
Probable space group: F M M M
;
_chemical_formula_sum "Si O2"
_cell_formula_units_Z 176
_cell_length_a 26.071665
_cell_length_b 27.046601
_cell_length_c 13.915386
_cell_angle_alpha 90.000000
_cell_angle_beta 90.000000
_cell_angle_gamma 90.000000
_cell_volume 9812.433334
_symmetry_space_group_name_H-M "F M M M"
_symmetry_group_IT_number 69
_symmetry_cell_setting 'orthorhombic'
loop_
_space_group_symop_operation_xyz
x,y,z
-x,-y,z
x,-y,-z
-x,y,-z
-x,-y,-z
x,y,-z
-x,y,z
x,-y,z
x,1/2+y,1/2+z
-x,1/2-y,1/2+z
x,1/2-y,1/2-z
-x,1/2+y,1/2-z
-x,1/2-y,1/2-z
x,1/2+y,1/2-z
-x,1/2+y,1/2+z
x,1/2-y,1/2+z
1/2+x,y,1/2+z
1/2-x,-y,1/2+z
1/2+x,-y,1/2-z
1/2-x,y,1/2-z
1/2-x,-y,1/2-z
1/2+x,y,1/2-z
1/2-x,y,1/2+z
1/2+x,-y,1/2+z
1/2+x,1/2+y,z
1/2-x,1/2-y,z
1/2+x,1/2-y,-z
1/2-x,1/2+y,-z
1/2-x,1/2-y,-z
1/2+x,1/2+y,-z
1/2-x,1/2+y,z
1/2+x,1/2-y,z
loop_
_atom_site_type_symbol
_atom_site_label
_atom_site_fract_x
_atom_site_fract_y
_atom_site_fract_z
Si Si1 0.306321 0.871316 0.766021
Si Si2 0.500000 0.055705 0.886047
Si Si3 0.695480 0.724585 0.605963
Si Si4 0.101332 0.885922 0.385869
Si Si5 0.864472 0.322431 0.389404
Si Si6 0.557350 0.691808 0.258928
O O1 0.250000 0.895930 0.750000
O O2 0.303107 0.817768 0.815384
O O3 0.346130 0.904033 0.831320
O O4 0.326594 0.862474 0.658381
O O5 0.447330 0.081645 0.850932
O O6 0.500000 0.000000 0.845835
O O7 0.500000 0.056682 0.000000
O O8 0.684378 0.701621 0.500000
O O9 0.750000 0.750000 0.605181
O O10 0.653372 0.766204 0.629910
O O11 0.109291 0.887731 0.500000
O O12 0.090288 0.829326 0.349933
O O13 0.868317 0.336090 0.500000
O O14 0.919818 0.329677 0.340010
O O15 0.500000 0.672057 0.271518
O O16 0.559183 0.750000 0.250000
#
# Coordination Sequence:
#
# PCOD8283858 Si02
#       6
#    32  16  32  32  32  32
#     4  11  20  29  45  65  98 134 172 213 254 300
#     4   9  18  36  63  88 105 123 158 215 278 338
#     4  10  18  28  42  59  84 129 186 226 255 286
#     4  10  20  35  54  78 107 137 174 216 267 320
#     4  10  20  30  40  57  85 127 177 221 248 280
#     4  10  20  32  46  65  96 136 172 207 247 302
#
# _framework density 17.936427999999999
#
# number of rings (size 3 to 8) (size 9 to 14) (size 15 to 20)
#    0.000    1.909    2.727    3.273    0.000    3.273 
#    0.000    1.818    0.000    0.545    0.000    0.000 
#    0.000   23.273    0.000    0.000    0.000    0.000 
#
# Total GULP energy -545193.936351 kJ/mol
# GULP energy per Si atom -12390.771281 kJ/mol
# Density = 1.789560 g / cm^3
# Si number density = 17.936428 Si / 1000 Ang^3
#
#
#
# Elastic Constant Matrix: (Units=GPa)
#
#
# Indices 1 2 3 4 5 6 
#
# 1 135.3047 17.3812 40.6808 0.0000 0.0000 0.0000
# 2 17.3812 39.9515 8.6659 0.0000 0.0000 0.0000
# 3 40.6808 8.6659 108.7841 0.0000 0.0000 0.0000
# 4 0.0000 0.0000 0.0000 15.1922 0.0000 0.0000
# 5 0.0000 0.0000 0.0000 0.0000 22.2036 0.0000
# 6 0.0000 0.0000 0.0000 0.0000 0.0000 9.6834
#
#
#
# Elastic Compliance Matrix: (Units=1/GPa)
#
#
# Indices 1 2 3 4 5 6 
#
# 1 0.008696 -0.003132 -0.003002 0.000000 0.000000 0.000000
# 2 -0.003132 0.026598 -0.000948 0.000000 0.000000 0.000000
# 3 -0.003002 -0.000948 0.010391 0.000000 0.000000 0.000000
# 4 0.000000 0.000000 0.000000 0.065823 0.000000 0.000000
# 5 0.000000 0.000000 0.000000 0.000000 0.045038 0.000000
# 6 0.000000 0.000000 0.000000 0.000000 0.000000 0.103270
#
#
# Mechanical properties :
#
#
# Convention : Reuss Voigt Hill
#
# Bulk Modulus (GPa) = 31.72478 46.38846 39.05662
# Shear Modulus (GPa) = 17.57555 23.90335 20.73945
#
# Velocity S-wave (km/s) = 3.13370 3.65454 3.40409
# Velocity P-wave (km/s) = 5.55150 6.61259 6.10514
#
# Compressibility (1/GPa) = 0.03152110
#
# Stress axis : x y z
#
# Youngs Moduli (GPa) = 114.99884 37.59616 96.23925
#
# Poissons Ratio (x) = 0.11775 0.28894
# Poissons Ratio (y) = 0.36017 0.09120
# Poissons Ratio (z) = 0.34527 0.03563
#
# Static dielectric constant tensor:
#      x y z
#    x 3.950530 0.000000 0.000000 
#    y 0.000000 2.839770 0.000000 
#    z 0.000000 0.000000 3.415090 
# 
# 
# High freq. dielectric constant tensor:
#      x y z
#    x 1.720830 0.000000 0.000000 
#    y 0.000000 1.615370 0.000000 
#    z 0.000000 0.000000 1.694480 
# 
# From -- ./inp_files/18990.got.cif
#   From: 2010.03.12/outbox.cif.g09.slc.cpg/sg69_10_cif.got.tgz:18990.got - 2010.04.10 23:52:46.
