data_PCOD8283714
_publ_section_title
;
Structure prediction by ZEFSAII (Michael W. Deem and Ramdas Pophale) SiO2 
 PCOD8283714
Probable space group: C C C A
;
_chemical_formula_sum "Si O2"
_cell_formula_units_Z 68
_cell_length_a 6.295948
_cell_length_b 20.602821
_cell_length_c 20.481778
_cell_angle_alpha 90.000000
_cell_angle_beta 90.000000
_cell_angle_gamma 90.000000
_cell_volume 2656.779284
_symmetry_space_group_name_H-M "C C C A"
_symmetry_group_IT_number 68
_space_group.IT_coordinate_system_code '2'
_symmetry_cell_setting 'orthorhombic'
loop_
_space_group_symop_operation_xyz
x,y,z
-x,1/2-y,z
x,1/2-y,1/2-z
-x,y,1/2-z
-x,-y,-z
x,1/2+y,-z
-x,1/2+y,1/2+z
x,-y,1/2+z
1/2+x,1/2+y,z
1/2-x,-y,z
1/2+x,-y,1/2-z
1/2-x,1/2+y,1/2-z
1/2-x,1/2-y,-z
1/2+x,y,-z
1/2-x,y,1/2+z
1/2+x,1/2-y,1/2+z
loop_
_atom_site_type_symbol
_atom_site_label
_atom_site_fract_x
_atom_site_fract_y
_atom_site_fract_z
Si Si1 0.847657 0.431657 0.578733
Si Si2 0.000000 0.750000 0.750000
Si Si3 0.624331 0.688770 0.484233
Si Si4 0.844436 0.432726 0.805711
Si Si5 0.981777 0.348599 0.152249
O O1 0.750000 0.500000 0.551762
O O2 0.887436 0.381862 0.519023
O O3 0.684768 0.401254 0.629508
O O4 0.059880 0.442078 0.620940
O O5 0.866542 0.794690 0.801460
O O6 0.373140 0.718808 0.499757
O O7 0.616802 0.681712 0.407153
O O8 0.750000 0.500000 0.781285
O O9 0.658351 0.380927 0.802952
O O10 0.000000 0.407259 0.750000
#
# Coordination Sequence:
#
# PCOD8283714 Si02
#       5
#    16   4  16  16  16
#     4  12  26  48  78 115 158 207 265 329 399 469
#     4  12  24  48  78 100 152 206 256 316 406 472
#     4  12  24  47  75 111 161 206 260 326 393 471
#     4  12  27  46  76 111 151 199 258 324 397 470
#     4  12  26  48  76 111 152 201 260 325 389 475
#
# _framework density 25.594901
#
# number of rings (size 3 to 8) (size 9 to 14) (size 15 to 20)
#    0.000    0.000    5.882    3.529    1.647    1.882 
#    0.000    6.471    0.000    0.000    0.000    0.000 
#    0.000    0.000    0.000    0.000    0.000    0.000 
#
# Total GULP energy -421280.048749 kJ/mol
# GULP energy per Si atom -12390.589669 kJ/mol
# Density = 2.553665 g / cm^3
# Si number density = 25.594901 Si / 1000 Ang^3
#
#
#
# Elastic Constant Matrix: (Units=GPa)
#
#
# Indices 1 2 3 4 5 6 
#
# 1 81.1751 68.9097 30.1577 0.0000 0.0000 0.0000
# 2 68.9097 186.5959 72.0318 0.0000 0.0000 0.0000
# 3 30.1577 72.0318 129.4175 0.0000 0.0000 0.0000
# 4 0.0000 0.0000 0.0000 54.0598 0.0000 0.0000
# 5 0.0000 0.0000 0.0000 0.0000 34.3957 0.0000
# 6 0.0000 0.0000 0.0000 0.0000 0.0000 48.1982
#
#
#
# Elastic Compliance Matrix: (Units=1/GPa)
#
#
# Indices 1 2 3 4 5 6 
#
# 1 0.017985 -0.006399 -0.000629 0.000000 0.000000 0.000000
# 2 -0.006399 0.009102 -0.003575 0.000000 0.000000 0.000000
# 3 -0.000629 -0.003575 0.009863 0.000000 0.000000 0.000000
# 4 0.000000 0.000000 0.000000 0.018498 0.000000 0.000000
# 5 0.000000 0.000000 0.000000 0.000000 0.029073 0.000000
# 6 0.000000 0.000000 0.000000 0.000000 0.000000 0.020748
#
#
# Mechanical properties :
#
#
# Convention : Reuss Voigt Hill
#
# Bulk Modulus (GPa) = 63.51675 82.15409 72.83542
# Shear Modulus (GPa) = 37.95799 42.40337 40.18068
#
# Velocity S-wave (km/s) = 3.85519 4.07469 3.96646
# Velocity P-wave (km/s) = 6.68481 7.36919 7.03533
#
# Compressibility (1/GPa) = 0.01574388
#
# Stress axis : x y z
#
# Youngs Moduli (GPa) = 55.60234 109.86159 101.38401
#
# Poissons Ratio (x) = 0.70298 0.06382
# Poissons Ratio (y) = 0.35579 0.36246
# Poissons Ratio (z) = 0.03500 0.39277
#
# Static dielectric constant tensor:
#      x y z
#    x 5.385100 0.000000 0.000000 
#    y 0.000000 5.049180 0.000000 
#    z 0.000000 0.000000 4.558010 
# 
# 
# High freq. dielectric constant tensor:
#      x y z
#    x 2.042090 0.000000 0.000000 
#    y 0.000000 2.060720 0.000000 
#    z 0.000000 0.000000 2.029900 
# 
# From -- ./inp_files/35081.got.cif
#   From: 2010.03.12/outbox.cif.g09.slc.cpg/sg68_18_cif.got.tgz:35081.got - 2010.04.10 23:14:56.
