data_PCOD8283210
_publ_section_title
;
Structure prediction by ZEFSAII (Michael W. Deem and Ramdas Pophale) SiO2 
 PCOD8283210
Probable space group: C C C A
;
_chemical_formula_sum "Si O2"
_cell_formula_units_Z 92
_cell_length_a 23.394663
_cell_length_b 21.879161
_cell_length_c 8.669309
_cell_angle_alpha 90.000000
_cell_angle_beta 90.000000
_cell_angle_gamma 90.000000
_cell_volume 4437.434345
_symmetry_space_group_name_H-M "C C C A"
_symmetry_group_IT_number 68
_space_group.IT_coordinate_system_code '2'
_symmetry_cell_setting 'orthorhombic'
loop_
_space_group_symop_operation_xyz
x,y,z
-x,1/2-y,z
x,1/2-y,1/2-z
-x,y,1/2-z
-x,-y,-z
x,1/2+y,-z
-x,1/2+y,1/2+z
x,-y,1/2+z
1/2+x,1/2+y,z
1/2-x,-y,z
1/2+x,-y,1/2-z
1/2-x,1/2+y,1/2-z
1/2-x,1/2-y,-z
1/2+x,y,-z
1/2-x,y,1/2+z
1/2+x,1/2-y,1/2+z
loop_
_atom_site_type_symbol
_atom_site_label
_atom_site_fract_x
_atom_site_fract_y
_atom_site_fract_z
Si Si1 0.500000 0.250000 0.250000
Si Si2 0.435298 0.340856 0.035983
Si Si3 0.500000 0.363706 0.750000
Si Si4 0.061716 0.038527 0.785097
Si Si5 0.304419 0.172456 0.899018
Si Si6 0.902616 0.074747 0.050481
Si Si7 0.687474 0.691208 0.039303
O O1 0.458001 0.290029 0.149404
O O2 0.452724 0.407956 0.093429
O O3 0.459489 0.325139 0.864713
O O4 0.367338 0.341085 0.031328
O O5 0.541448 0.398680 0.867663
O O6 0.088894 0.065440 0.630820
O O7 0.000000 0.006881 0.750000
O O8 0.105834 0.990447 0.863090
O O9 0.347432 0.117981 0.941139
O O10 0.320241 0.235770 0.986563
O O11 0.304990 0.178912 0.717749
O O12 0.239663 0.158836 0.950209
#
# Coordination Sequence:
#
# PCOD8283210 Si02
#       7
#     4  16   8  16  16  16  16
#     4  12  28  40  64 112 142 182 220 284 348 422
#     4  12  26  42  67 101 143 176 226 283 353 410
#     4  12  22  42  68 100 135 171 222 286 344 422
#     4  12  24  42  64 100 137 182 221 279 345 412
#     4  10  24  45  68 100 125 181 228 276 348 406
#     4  12  24  42  70  96 134 177 232 275 342 416
#     4  10  24  43  71  96 136 172 223 286 342 415
#
# _framework density 20.732702
#
# number of rings (size 3 to 8) (size 9 to 14) (size 15 to 20)
#    0.000    0.696    5.217    1.565    7.304    1.739 
#    0.000    0.870    0.000    0.000    0.000    0.000 
#    0.000    0.000    0.000    0.000    0.000    0.000 
#
# Total GULP energy -570238.815025 kJ/mol
# GULP energy per Si atom -12396.495979 kJ/mol
# Density = 2.068551 g / cm^3
# Si number density = 20.732702 Si / 1000 Ang^3
#
#
#
# Elastic Constant Matrix: (Units=GPa)
#
#
# Indices 1 2 3 4 5 6 
#
# 1 151.7793 59.5669 59.7279 0.0000 0.0000 0.0000
# 2 59.5669 103.1982 43.6315 0.0000 0.0000 0.0000
# 3 59.7279 43.6315 116.0292 0.0000 0.0000 0.0000
# 4 0.0000 0.0000 0.0000 32.7594 0.0000 0.0000
# 5 0.0000 0.0000 0.0000 0.0000 15.9208 0.0000
# 6 0.0000 0.0000 0.0000 0.0000 0.0000 34.0935
#
#
#
# Elastic Compliance Matrix: (Units=1/GPa)
#
#
# Indices 1 2 3 4 5 6 
#
# 1 0.009509 -0.004065 -0.003366 0.000000 0.000000 0.000000
# 2 -0.004065 0.013260 -0.002894 0.000000 0.000000 0.000000
# 3 -0.003366 -0.002894 0.011439 0.000000 0.000000 0.000000
# 4 0.000000 0.000000 0.000000 0.030526 0.000000 0.000000
# 5 0.000000 0.000000 0.000000 0.000000 0.062811 0.000000
# 6 0.000000 0.000000 0.000000 0.000000 0.000000 0.029331
#
#
# Mechanical properties :
#
#
# Convention : Reuss Voigt Hill
#
# Bulk Modulus (GPa) = 73.75649 77.42882 75.59265
# Shear Modulus (GPa) = 27.46580 30.42677 28.94628
#
# Velocity S-wave (km/s) = 3.64367 3.83505 3.74058
# Velocity P-wave (km/s) = 7.30438 7.55231 7.42938
#
# Compressibility (1/GPa) = 0.01355813
#
# Stress axis : x y z
#
# Youngs Moduli (GPa) = 105.16862 75.41469 87.41786
#
# Poissons Ratio (x) = 0.30658 0.29425
# Poissons Ratio (y) = 0.42754 0.25295
# Poissons Ratio (z) = 0.35399 0.21822
#
# Static dielectric constant tensor:
#      x y z
#    x 3.624960 0.000000 0.000000 
#    y 0.000000 3.812910 0.000000 
#    z 0.000000 0.000000 3.980930 
# 
# 
# High freq. dielectric constant tensor:
#      x y z
#    x 1.806950 0.000000 0.000000 
#    y 0.000000 1.800410 0.000000 
#    z 0.000000 0.000000 1.833060 
# 
# From -- ./inp_files/7154.got.cif
#   From: 2010.03.12/outbox.cif.g09.slc.cpg/sg68_4_cif.got.tgz:7154.got - 2010.04.10 23:14:56.
