data_PCOD8283351
_publ_section_title
;
Structure prediction by ZEFSAII (Michael W. Deem and Ramdas Pophale) SiO2 
 PCOD8283351
Probable space group: C C C A
;
_chemical_formula_sum "Si O2"
_cell_formula_units_Z 96
_cell_length_a 21.451129
_cell_length_b 15.244729
_cell_length_c 14.387885
_cell_angle_alpha 90.000000
_cell_angle_beta 90.000000
_cell_angle_gamma 90.000000
_cell_volume 4705.077930
_symmetry_space_group_name_H-M "C C C A"
_symmetry_group_IT_number 68
_space_group.IT_coordinate_system_code '2'
_symmetry_cell_setting 'orthorhombic'
loop_
_space_group_symop_operation_xyz
x,y,z
-x,1/2-y,z
x,1/2-y,1/2-z
-x,y,1/2-z
-x,-y,-z
x,1/2+y,-z
-x,1/2+y,1/2+z
x,-y,1/2+z
1/2+x,1/2+y,z
1/2-x,-y,z
1/2+x,-y,1/2-z
1/2-x,1/2+y,1/2-z
1/2-x,1/2-y,-z
1/2+x,y,-z
1/2-x,y,1/2+z
1/2+x,1/2-y,1/2+z
loop_
_atom_site_type_symbol
_atom_site_label
_atom_site_fract_x
_atom_site_fract_y
_atom_site_fract_z
Si Si1 0.257489 0.351136 0.984328
Si Si2 0.570702 0.761041 0.487646
Si Si3 0.123939 0.420699 0.580679
Si Si4 0.369424 0.581212 0.961448
Si Si5 0.325889 0.506655 0.766886
Si Si6 0.661258 0.323572 0.676716
O O1 0.195316 0.400669 0.014263
O O2 0.276772 0.359077 0.876032
O O3 0.250000 0.250000 0.000000
O O4 0.308477 0.393292 0.048074
O O5 0.500000 0.750000 0.454581
O O6 0.577263 0.838221 0.565081
O O7 0.590001 0.669412 0.535208
O O8 0.610732 0.786780 0.396565
O O9 0.097938 0.501756 0.517719
O O10 0.134908 0.444271 0.687110
O O11 0.348730 0.557653 0.857930
O O12 0.250000 0.500000 0.753635
O O13 0.359110 0.410556 0.768148
O O14 0.679758 0.250000 0.750000
#
# Coordination Sequence:
#
# PCOD8283351 Si02
#       6
#    16  16  16  16  16  16
#     4  11  20  37  63  95 136 174 202 264 337 413
#     4  11  26  47  69  87 126 182 229 278 322 381
#     4  11  24  41  63 100 134 174 219 265 341 393
#     4  12  21  42  65  94 134 170 217 270 328 398
#     4  12  23  36  66 103 135 169 204 264 340 415
#     4  11  23  40  63  98 129 164 224 271 334 390
#
# _framework density 20.403487999999999
#
# number of rings (size 3 to 8) (size 9 to 14) (size 15 to 20)
#    0.000    0.667    8.333    2.500    2.333    1.667 
#    0.000    1.667    0.000    0.000    0.000    0.000 
#    0.000    0.000    0.000    0.000    0.000    0.000 
#
# Total GULP energy -594734.233413 kJ/mol
# GULP energy per Si atom -12390.296529 kJ/mol
# Density = 2.035705 g / cm^3
# Si number density = 20.403488 Si / 1000 Ang^3
#
#
#
# Elastic Constant Matrix: (Units=GPa)
#
#
# Indices 1 2 3 4 5 6 
#
# 1 67.5615 23.6413 8.6428 0.0000 0.0000 0.0000
# 2 23.6413 154.4962 31.1278 0.0000 0.0000 0.0000
# 3 8.6428 31.1278 80.5876 0.0000 0.0000 0.0000
# 4 0.0000 0.0000 0.0000 40.8204 0.0000 0.0000
# 5 0.0000 0.0000 0.0000 0.0000 4.5380 0.0000
# 6 0.0000 0.0000 0.0000 0.0000 0.0000 14.3027
#
#
#
# Elastic Compliance Matrix: (Units=1/GPa)
#
#
# Indices 1 2 3 4 5 6 
#
# 1 0.015688 -0.002236 -0.000819 0.000000 0.000000 0.000000
# 2 -0.002236 0.007337 -0.002594 0.000000 0.000000 0.000000
# 3 -0.000819 -0.002594 0.013499 0.000000 0.000000 0.000000
# 4 0.000000 0.000000 0.000000 0.024498 0.000000 0.000000
# 5 0.000000 0.000000 0.000000 0.000000 0.220364 0.000000
# 6 0.000000 0.000000 0.000000 0.000000 0.000000 0.069917
#
#
# Mechanical properties :
#
#
# Convention : Reuss Voigt Hill
#
# Bulk Modulus (GPa) = 39.64074 47.71879 43.67976
# Shear Modulus (GPa) = 13.47673 27.88111 20.67892
#
# Velocity S-wave (km/s) = 2.57283 3.70061 3.18700
# Velocity P-wave (km/s) = 5.31945 6.45738 5.91584
#
# Compressibility (1/GPa) = 0.02522657
#
# Stress axis : x y z
#
# Youngs Moduli (GPa) = 63.74131 136.28664 74.08066
#
# Poissons Ratio (x) = 0.30469 0.06067
# Poissons Ratio (y) = 0.14250 0.19220
# Poissons Ratio (z) = 0.05220 0.35358
#
# Static dielectric constant tensor:
#      x y z
#    x 3.428830 0.000000 0.000000 
#    y 0.000000 4.265370 0.000000 
#    z 0.000000 0.000000 3.667500 
# 
# 
# High freq. dielectric constant tensor:
#      x y z
#    x 1.758350 0.000000 0.000000 
#    y 0.000000 1.830920 0.000000 
#    z 0.000000 0.000000 1.794550 
# 
# From -- ./inp_files/22343.got.cif
#   From: 2010.03.12/outbox.cif.g09.slc.cpg/sg68_12_cif.got.tgz:22343.got - 2010.04.10 23:14:56.
