data_PCOD8283327
_publ_section_title
;
Structure prediction by ZEFSAII (Michael W. Deem and Ramdas Pophale) SiO2 
 PCOD8283327
Probable space group: C C C A
;
_chemical_formula_sum "Si O2"
_cell_formula_units_Z 92
_cell_length_a 11.946247
_cell_length_b 21.936026
_cell_length_c 18.760082
_cell_angle_alpha 90.000000
_cell_angle_beta 90.000000
_cell_angle_gamma 90.000000
_cell_volume 4916.139235
_symmetry_space_group_name_H-M "C C C A"
_symmetry_group_IT_number 68
_space_group.IT_coordinate_system_code '2'
_symmetry_cell_setting 'orthorhombic'
loop_
_space_group_symop_operation_xyz
x,y,z
-x,1/2-y,z
x,1/2-y,1/2-z
-x,y,1/2-z
-x,-y,-z
x,1/2+y,-z
-x,1/2+y,1/2+z
x,-y,1/2+z
1/2+x,1/2+y,z
1/2-x,-y,z
1/2+x,-y,1/2-z
1/2-x,1/2+y,1/2-z
1/2-x,1/2-y,-z
1/2+x,y,-z
1/2-x,y,1/2+z
1/2+x,1/2-y,1/2+z
loop_
_atom_site_type_symbol
_atom_site_label
_atom_site_fract_x
_atom_site_fract_y
_atom_site_fract_z
Si Si1 0.023611 0.926764 0.078364
Si Si2 0.000000 0.250000 0.250000
Si Si3 0.236768 0.070133 0.053093
Si Si4 0.501769 0.059880 0.590465
Si Si5 0.657694 0.837187 0.565280
Si Si6 0.616849 0.826832 0.132767
Si Si7 0.000000 0.250000 0.483936
O O1 0.152792 0.912701 0.099254
O O2 0.943030 0.872908 0.105093
O O3 0.025438 0.930764 0.992817
O O4 0.977754 0.989615 0.112184
O O5 0.918481 0.208404 0.203325
O O6 0.129275 0.075711 0.104700
O O7 0.250000 0.000000 0.023998
O O8 0.221928 0.117172 0.988191
O O9 0.581899 0.101960 0.638957
O O10 0.750136 0.816838 0.623021
O O11 0.603144 0.777381 0.529398
O O12 0.549625 0.803707 0.063735
#
# Coordination Sequence:
#
# PCOD8283327 Si02
#       7
#    16   4  16  16  16  16   8
#     4   9  16  26  45  87 120 132 165 207 304 359
#     4  10  28  44  52  74  96 166 220 220 246 310
#     4   9  15  26  45  81 126 144 161 202 287 367
#     4   9  16  27  49  79 113 145 165 223 276 340
#     4  11  19  29  51  83 115 143 170 231 294 346
#     4  11  21  37  55  74 109 148 195 236 263 328
#     4  11  20  33  48  87 114 139 176 224 300 351
#
# _framework density 18.713871000000001
#
# number of rings (size 3 to 8) (size 9 to 14) (size 15 to 20)
#    0.000    2.087    5.217    1.565    0.000    0.000 
#    0.000    0.000    0.000    0.522   13.565    0.000 
#    0.000    0.000    0.000    0.000    0.000    0.000 
#
# Total GULP energy -570116.312171 kJ/mol
# GULP energy per Si atom -12393.832873 kJ/mol
# Density = 1.867128 g / cm^3
# Si number density = 18.713871 Si / 1000 Ang^3
#
#
#
# Elastic Constant Matrix: (Units=GPa)
#
#
# Indices 1 2 3 4 5 6 
#
# 1 123.6980 31.7789 34.1663 0.0000 0.0000 0.0000
# 2 31.7789 87.4541 32.3489 0.0000 0.0000 0.0000
# 3 34.1663 32.3489 45.9535 0.0000 0.0000 0.0000
# 4 0.0000 0.0000 0.0000 14.3046 0.0000 0.0000
# 5 0.0000 0.0000 0.0000 0.0000 14.6130 0.0000
# 6 0.0000 0.0000 0.0000 0.0000 0.0000 34.4470
#
#
#
# Elastic Compliance Matrix: (Units=1/GPa)
#
#
# Indices 1 2 3 4 5 6 
#
# 1 0.010270 -0.001227 -0.006772 0.000000 0.000000 0.000000
# 2 -0.001227 0.015607 -0.010074 0.000000 0.000000 0.000000
# 3 -0.006772 -0.010074 0.033888 0.000000 0.000000 0.000000
# 4 0.000000 0.000000 0.000000 0.069908 0.000000 0.000000
# 5 0.000000 0.000000 0.000000 0.000000 0.068432 0.000000
# 6 0.000000 0.000000 0.000000 0.000000 0.000000 0.029030
#
#
# Mechanical properties :
#
#
# Convention : Reuss Voigt Hill
#
# Bulk Modulus (GPa) = 42.33995 50.41043 46.37519
# Shear Modulus (GPa) = 18.43975 23.26035 20.85005
#
# Velocity S-wave (km/s) = 3.14244 3.52937 3.34151
# Velocity P-wave (km/s) = 5.98670 6.60337 6.30258
#
# Compressibility (1/GPa) = 0.02361835
#
# Stress axis : x y z
#
# Youngs Moduli (GPa) = 97.37230 64.07459 29.50923
#
# Poissons Ratio (x) = 0.07862 0.19983
# Poissons Ratio (y) = 0.11947 0.29728
# Poissons Ratio (z) = 0.65940 0.64550
#
# Static dielectric constant tensor:
#      x y z
#    x 4.064780 0.000000 0.000000 
#    y 0.000000 3.631530 0.000000 
#    z 0.000000 0.000000 2.624350 
# 
# 
# High freq. dielectric constant tensor:
#      x y z
#    x 1.751050 0.000000 0.000000 
#    y 0.000000 1.741840 0.000000 
#    z 0.000000 0.000000 1.623390 
# 
# From -- ./inp_files/29703.got.cif
#   From: 2010.03.12/outbox.cif.g09.slc.cpg/sg68_15_cif.got.tgz:29703.got - 2010.04.10 23:14:56.
