data_PCOD8283320
_publ_section_title
;
Structure prediction by ZEFSAII (Michael W. Deem and Ramdas Pophale) SiO2 
 PCOD8283320
Probable space group: C C C A
;
_chemical_formula_sum "Si O2"
_cell_formula_units_Z 108
_cell_length_a 13.970469
_cell_length_b 31.790869
_cell_length_c 11.390810
_cell_angle_alpha 90.000000
_cell_angle_beta 90.000000
_cell_angle_gamma 90.000000
_cell_volume 5059.038603
_symmetry_space_group_name_H-M "C C C A"
_symmetry_group_IT_number 68
_space_group.IT_coordinate_system_code '2'
_symmetry_cell_setting 'orthorhombic'
loop_
_space_group_symop_operation_xyz
x,y,z
-x,1/2-y,z
x,1/2-y,1/2-z
-x,y,1/2-z
-x,-y,-z
x,1/2+y,-z
-x,1/2+y,1/2+z
x,-y,1/2+z
1/2+x,1/2+y,z
1/2-x,-y,z
1/2+x,-y,1/2-z
1/2-x,1/2+y,1/2-z
1/2-x,1/2-y,-z
1/2+x,y,-z
1/2-x,y,1/2+z
1/2+x,1/2-y,1/2+z
loop_
_atom_site_type_symbol
_atom_site_label
_atom_site_fract_x
_atom_site_fract_y
_atom_site_fract_z
Si Si1 0.648535 0.286259 0.583984
Si Si2 0.106153 0.437213 0.243419
Si Si3 0.811703 0.077000 0.995204
Si Si4 0.377556 0.619885 0.460377
Si Si5 0.137362 0.773019 0.133293
Si Si6 0.950402 0.864828 0.373766
Si Si7 0.000000 0.250000 0.250000
Si Si8 0.250000 0.500000 0.861060
O O1 0.658109 0.332619 0.533698
O O2 0.748928 0.277433 0.646805
O O3 0.618453 0.254985 0.480350
O O4 0.565035 0.282444 0.678484
O O5 0.110079 0.396661 0.327979
O O6 0.180501 0.473231 0.278438
O O7 0.000000 0.456935 0.250000
O O8 0.127625 0.420797 0.113521
O O9 0.703056 0.091463 0.023904
O O10 0.855197 0.107507 0.894261
O O11 0.813016 0.029888 0.944447
O O12 0.477364 0.618427 0.527713
O O13 0.098201 0.750000 0.250000
O O14 0.079162 0.816126 0.115282
O O15 0.000000 0.874047 0.250000
#
# Coordination Sequence:
#
# PCOD8283320 Si02
#       8
#    16  16  16  16  16  16   4   8
#     4  11  24  40  68  97 140 181 234 292 342 411
#     4  11  24  46  74 103 139 182 228 287 340 421
#     4  11  25  48  70 104 141 179 230 288 349 422
#     4  11  25  43  68 101 136 186 230 282 347 409
#     4  11  24  46  67  99 140 190 237 294 347 402
#     4  12  26  44  71 103 139 187 236 290 349 418
#     4  12  24  40  62 104 130 180 236 282 356 408
#     4  10  26  46  72 106 142 180 224 284 360 418
#
# _framework density 21.347929000000001
#
# number of rings (size 3 to 8) (size 9 to 14) (size 15 to 20)
#    0.000    0.889    3.704    2.222    5.185    5.037 
#    0.000    0.000    0.000    0.000    0.000    0.000 
#    0.000    0.000    0.000    0.000    0.000    0.000 
#
# Total GULP energy -669760.538554 kJ/mol
# GULP energy per Si atom -12402.972936 kJ/mol
# Density = 2.129934 g / cm^3
# Si number density = 21.347929 Si / 1000 Ang^3
#
#
#
# Elastic Constant Matrix: (Units=GPa)
#
#
# Indices 1 2 3 4 5 6 
#
# 1 111.7306 43.5709 60.2985 0.0000 0.0000 0.0000
# 2 43.5709 104.2519 16.4957 0.0000 0.0000 0.0000
# 3 60.2985 16.4957 80.0984 0.0000 0.0000 0.0000
# 4 0.0000 0.0000 0.0000 26.3865 0.0000 0.0000
# 5 0.0000 0.0000 0.0000 0.0000 45.6917 0.0000
# 6 0.0000 0.0000 0.0000 0.0000 0.0000 24.0760
#
#
#
# Elastic Compliance Matrix: (Units=1/GPa)
#
#
# Indices 1 2 3 4 5 6 
#
# 1 0.017632 -0.005446 -0.012152 0.000000 0.000000 0.000000
# 2 -0.005446 0.011598 0.001712 0.000000 0.000000 0.000000
# 3 -0.012152 0.001712 0.021280 0.000000 0.000000 0.000000
# 4 0.000000 0.000000 0.000000 0.037898 0.000000 0.000000
# 5 0.000000 0.000000 0.000000 0.000000 0.021886 0.000000
# 6 0.000000 0.000000 0.000000 0.000000 0.000000 0.041535
#
#
# Mechanical properties :
#
#
# Convention : Reuss Voigt Hill
#
# Bulk Modulus (GPa) = 53.37161 59.64567 56.50864
# Shear Modulus (GPa) = 26.33687 30.94521 28.64104
#
# Velocity S-wave (km/s) = 3.51621 3.81145 3.66680
# Velocity P-wave (km/s) = 6.44516 6.88258 6.66746
#
# Compressibility (1/GPa) = 0.01873655
#
# Stress axis : x y z
#
# Youngs Moduli (GPa) = 56.71470 86.22495 46.99203
#
# Poissons Ratio (x) = 0.46961 0.57104
# Poissons Ratio (y) = 0.30889 -0.08043
# Poissons Ratio (z) = 0.68919 -0.14758
#
# Static dielectric constant tensor:
#      x y z
#    x 4.081790 0.000000 0.000000 
#    y 0.000000 3.768140 0.000000 
#    z 0.000000 0.000000 3.853600 
# 
# 
# High freq. dielectric constant tensor:
#      x y z
#    x 1.859390 0.000000 0.000000 
#    y 0.000000 1.837500 0.000000 
#    z 0.000000 0.000000 1.839020 
# 
# From -- ./inp_files/13639.got.cif
#   From: 2010.03.12/outbox.cif.g09.slc.cpg/sg68_7_cif.got.tgz:13639.got - 2010.04.10 23:14:56.
