data_PCOD8283827
_publ_section_title
;
Structure prediction by ZEFSAII (Michael W. Deem and Ramdas Pophale) SiO2 
 PCOD8283827
Probable space group: F M M M
;
_chemical_formula_sum "Si O2"
_cell_formula_units_Z 120
_cell_length_a 18.878953
_cell_length_b 14.232689
_cell_length_c 25.778269
_cell_angle_alpha 90.000000
_cell_angle_beta 90.000000
_cell_angle_gamma 90.000000
_cell_volume 6926.576199
_symmetry_space_group_name_H-M "F M M M"
_symmetry_group_IT_number 69
_symmetry_cell_setting 'orthorhombic'
loop_
_space_group_symop_operation_xyz
x,y,z
-x,-y,z
x,-y,-z
-x,y,-z
-x,-y,-z
x,y,-z
-x,y,z
x,-y,z
x,1/2+y,1/2+z
-x,1/2-y,1/2+z
x,1/2-y,1/2-z
-x,1/2+y,1/2-z
-x,1/2-y,1/2-z
x,1/2+y,1/2-z
-x,1/2+y,1/2+z
x,1/2-y,1/2+z
1/2+x,y,1/2+z
1/2-x,-y,1/2+z
1/2+x,-y,1/2-z
1/2-x,y,1/2-z
1/2-x,-y,1/2-z
1/2+x,y,1/2-z
1/2-x,y,1/2+z
1/2+x,-y,1/2+z
1/2+x,1/2+y,z
1/2-x,1/2-y,z
1/2+x,1/2-y,-z
1/2-x,1/2+y,-z
1/2-x,1/2-y,-z
1/2+x,1/2+y,-z
1/2-x,1/2+y,z
1/2+x,1/2-y,z
loop_
_atom_site_type_symbol
_atom_site_label
_atom_site_fract_x
_atom_site_fract_y
_atom_site_fract_z
Si Si1 0.659288 0.000000 0.112863
Si Si2 0.630159 0.000000 0.000000
Si Si3 0.325903 0.291928 0.806246
Si Si4 0.578588 0.199982 0.000000
Si Si5 0.415397 0.806800 0.888011
Si Si6 0.284026 0.000000 0.694311
O O1 0.612753 0.090519 0.126742
O O2 0.729555 0.000000 0.146885
O O3 0.679812 0.000000 0.051494
O O4 0.576653 0.913034 0.000000
O O5 0.344063 0.250000 0.750000
O O6 0.250000 0.250000 0.824516
O O7 0.387616 0.264717 0.845460
O O8 0.329468 0.404828 0.807633
O O9 0.614270 0.229103 0.944905
O O10 0.500000 0.241199 0.000000
O O11 0.500000 0.808880 0.888327
O O12 0.250000 0.000000 0.750000
#
# Coordination Sequence:
#
# PCOD8283827 Si02
#       6
#    16   8  32  16  32  16
#     4  10  17  30  52  78 107 136 172 216 263 306
#     4   8  15  24  42  76 106 132 165 214 264 302
#     4  11  21  36  55  78 103 139 175 210 259 309
#     4   8  15  28  48  72 105 141 169 206 259 312
#     4  10  19  33  53  80 108 137 175 217 261 306
#     4  12  20  35  56  75 103 139 177 207 254 317
#
# _framework density 17.324577000000001
#
# number of rings (size 3 to 8) (size 9 to 14) (size 15 to 20)
#    0.000    1.867    5.333    0.600    0.000    3.733 
#    0.000    2.667    0.000    0.000    0.000    2.800 
#    0.000    0.000    0.000    0.000    0.000    0.000 
#
# Total GULP energy -371669.878234 kJ/mol
# GULP energy per Si atom -12388.995941 kJ/mol
# Density = 1.728515 g / cm^3
# Si number density = 17.324577 Si / 1000 Ang^3
#
#
#
# Elastic Constant Matrix: (Units=GPa)
#
#
# Indices 1 2 3 4 5 6 
#
# 1 39.3940 31.7455 53.5729 0.0000 0.0000 0.0000
# 2 31.7455 131.5152 57.6990 0.0000 0.0000 0.0000
# 3 53.5729 57.6990 133.4523 0.0000 0.0000 0.0000
# 4 0.0000 0.0000 0.0000 26.3923 0.0000 0.0000
# 5 0.0000 0.0000 0.0000 0.0000 25.7494 0.0000
# 6 0.0000 0.0000 0.0000 0.0000 0.0000 14.0002
#
#
#
# Elastic Compliance Matrix: (Units=1/GPa)
#
#
# Indices 1 2 3 4 5 6 
#
# 1 0.058151 -0.004683 -0.021319 0.000000 0.000000 0.000000
# 2 -0.004683 0.009761 -0.002340 0.000000 0.000000 0.000000
# 3 -0.021319 -0.002340 0.017063 0.000000 0.000000 0.000000
# 4 0.000000 0.000000 0.000000 0.037890 0.000000 0.000000
# 5 0.000000 0.000000 0.000000 0.000000 0.038836 0.000000
# 6 0.000000 0.000000 0.000000 0.000000 0.000000 0.071427
#
#
# Mechanical properties :
#
#
# Convention : Reuss Voigt Hill
#
# Bulk Modulus (GPa) = 35.34809 65.59961 50.47385
# Shear Modulus (GPa) = 16.70876 23.98467 20.34672
#
# Velocity S-wave (km/s) = 3.10894 3.72483 3.43073
# Velocity P-wave (km/s) = 5.77365 7.51308 6.70005
#
# Compressibility (1/GPa) = 0.02829007
#
# Stress axis : x y z
#
# Youngs Moduli (GPa) = 17.19649 102.45035 58.60483
#
# Poissons Ratio (x) = 0.47982 1.24941
# Poissons Ratio (y) = 0.08054 0.13714
# Poissons Ratio (z) = 0.36662 0.23974
#
# Static dielectric constant tensor:
#      x y z
#    x 2.840210 0.000000 0.000000 
#    y 0.000000 2.993540 0.000000 
#    z 0.000000 0.000000 3.677190 
# 
# 
# High freq. dielectric constant tensor:
#      x y z
#    x 1.627660 0.000000 0.000000 
#    y 0.000000 1.658370 0.000000 
#    z 0.000000 0.000000 1.693200 
# 
# From -- ./inp_files/9174.got.cif
#   From: 2010.03.12/outbox.cif.g09.slc.cpg/sg69_5_cif.got.tgz:9174.got - 2010.04.10 23:52:46.
