data_PCOD8283584
_publ_section_title
;
Structure prediction by ZEFSAII (Michael W. Deem and Ramdas Pophale) SiO2 
 PCOD8283584
Probable space group: C C C A
;
_chemical_formula_sum "Si O2"
_cell_formula_units_Z 108
_cell_length_a 13.497421
_cell_length_b 31.260163
_cell_length_c 11.646520
_cell_angle_alpha 90.000000
_cell_angle_beta 90.000000
_cell_angle_gamma 90.000000
_cell_volume 4914.034591
_symmetry_space_group_name_H-M "C C C A"
_symmetry_group_IT_number 68
_space_group.IT_coordinate_system_code '2'
_symmetry_cell_setting 'orthorhombic'
loop_
_space_group_symop_operation_xyz
x,y,z
-x,1/2-y,z
x,1/2-y,1/2-z
-x,y,1/2-z
-x,-y,-z
x,1/2+y,-z
-x,1/2+y,1/2+z
x,-y,1/2+z
1/2+x,1/2+y,z
1/2-x,-y,z
1/2+x,-y,1/2-z
1/2-x,1/2+y,1/2-z
1/2-x,1/2-y,-z
1/2+x,y,-z
1/2-x,y,1/2+z
1/2+x,1/2-y,1/2+z
loop_
_atom_site_type_symbol
_atom_site_label
_atom_site_fract_x
_atom_site_fract_y
_atom_site_fract_z
Si Si1 0.731867 0.571470 0.059508
Si Si2 0.407878 0.623883 0.597496
Si Si3 0.606851 0.794434 0.200174
Si Si4 0.773380 0.354651 0.706927
Si Si5 0.500000 0.445393 0.250000
Si Si6 0.500000 0.250000 0.250000
Si Si7 0.398967 0.509853 0.934191
Si Si8 0.919966 0.688399 0.058762
O O1 0.753482 0.595172 0.180842
O O2 0.653779 0.534838 0.081326
O O3 0.830753 0.547733 0.008043
O O4 0.683404 0.608787 0.981547
O O5 0.362553 0.650162 0.702908
O O6 0.463048 0.581892 0.642183
O O7 0.487881 0.655532 0.539442
O O8 0.648911 0.750000 0.250000
O O9 0.500000 0.804994 0.250000
O O10 0.676492 0.832473 0.242702
O O11 0.599444 0.788877 0.062769
O O12 0.816959 0.335313 0.588583
O O13 0.584301 0.475519 0.197169
O O14 0.434535 0.221745 0.162849
O O15 0.500000 0.500000 0.000000
#
# Coordination Sequence:
#
# PCOD8283584 Si02
#       8
#    16  16  16  16   8   4  16  16
#     4  11  25  42  70 101 139 187 239 291 358 430
#     4  12  22  45  73 101 139 178 237 294 351 433
#     4  11  27  49  68 103 150 187 233 301 367 422
#     4  12  24  45  70 107 137 186 239 292 362 427
#     4  12  21  44  70  89 144 178 225 298 346 413
#     4  12  22  44  78 108 134 188 244 282 380 438
#     4  11  24  44  66 101 136 185 236 290 358 415
#     4  12  25  45  76 106 142 185 240 296 360 441
#
# _framework density 21.977868000000001
#
# number of rings (size 3 to 8) (size 9 to 14) (size 15 to 20)
#    0.000    0.444    5.926    2.667    1.037    1.778 
#    6.667    0.000    0.000    0.000    0.000    0.000 
#    0.000    0.000    0.000    0.000    0.000    0.000 
#
# Total GULP energy -669312.976691 kJ/mol
# GULP energy per Si atom -12394.684754 kJ/mol
# Density = 2.192785 g / cm^3
# Si number density = 21.977868 Si / 1000 Ang^3
#
#
#
# Elastic Constant Matrix: (Units=GPa)
#
#
# Indices 1 2 3 4 5 6 
#
# 1 111.4156 55.9636 37.1000 0.0000 0.0000 0.0000
# 2 55.9636 125.7833 54.8335 0.0000 0.0000 0.0000
# 3 37.1000 54.8335 116.1741 0.0000 0.0000 0.0000
# 4 0.0000 0.0000 0.0000 34.4722 0.0000 0.0000
# 5 0.0000 0.0000 0.0000 0.0000 35.2567 0.0000
# 6 0.0000 0.0000 0.0000 0.0000 0.0000 29.3700
#
#
#
# Elastic Compliance Matrix: (Units=1/GPa)
#
#
# Indices 1 2 3 4 5 6 
#
# 1 0.011797 -0.004541 -0.001624 0.000000 0.000000 0.000000
# 2 -0.004541 0.011758 -0.004099 0.000000 0.000000 0.000000
# 3 -0.001624 -0.004099 0.011061 0.000000 0.000000 0.000000
# 4 0.000000 0.000000 0.000000 0.029009 0.000000 0.000000
# 5 0.000000 0.000000 0.000000 0.000000 0.028363 0.000000
# 6 0.000000 0.000000 0.000000 0.000000 0.000000 0.034048
#
#
# Mechanical properties :
#
#
# Convention : Reuss Voigt Hill
#
# Bulk Modulus (GPa) = 70.98593 72.12970 71.55782
# Shear Modulus (GPa) = 33.05546 33.51816 33.28681
#
# Velocity S-wave (km/s) = 3.88240 3.90947 3.89596
# Velocity P-wave (km/s) = 7.24336 7.29857 7.27102
#
# Compressibility (1/GPa) = 0.01408730
#
# Stress axis : x y z
#
# Youngs Moduli (GPa) = 84.76730 85.05199 90.40486
#
# Poissons Ratio (x) = 0.38620 0.14683
# Poissons Ratio (y) = 0.38490 0.37061
# Poissons Ratio (z) = 0.13768 0.34866
#
# Static dielectric constant tensor:
#      x y z
#    x 4.934590 0.000000 0.000000 
#    y 0.000000 4.155170 0.000000 
#    z 0.000000 0.000000 3.925050 
# 
# 
# High freq. dielectric constant tensor:
#      x y z
#    x 1.876740 0.000000 0.000000 
#    y 0.000000 1.877760 0.000000 
#    z 0.000000 0.000000 1.852750 
# 
# From -- ./inp_files/13624.got.cif
#   From: 2010.03.12/outbox.cif.g09.slc.cpg/sg68_7_cif.got.tgz:13624.got - 2010.04.10 23:14:56.
