data_PCOD8283245
_publ_section_title
;
Structure prediction by ZEFSAII (Michael W. Deem and Ramdas Pophale) SiO2 
 PCOD8283245
Probable space group: C C C A
;
_chemical_formula_sum "Si O2"
_cell_formula_units_Z 96
_cell_length_a 21.425542
_cell_length_b 14.433015
_cell_length_c 14.204934
_cell_angle_alpha 90.000000
_cell_angle_beta 90.000000
_cell_angle_gamma 90.000000
_cell_volume 4392.665167
_symmetry_space_group_name_H-M "C C C A"
_symmetry_group_IT_number 68
_space_group.IT_coordinate_system_code '2'
_symmetry_cell_setting 'orthorhombic'
loop_
_space_group_symop_operation_xyz
x,y,z
-x,1/2-y,z
x,1/2-y,1/2-z
-x,y,1/2-z
-x,-y,-z
x,1/2+y,-z
-x,1/2+y,1/2+z
x,-y,1/2+z
1/2+x,1/2+y,z
1/2-x,-y,z
1/2+x,-y,1/2-z
1/2-x,1/2+y,1/2-z
1/2-x,1/2-y,-z
1/2+x,y,-z
1/2-x,y,1/2+z
1/2+x,1/2-y,1/2+z
loop_
_atom_site_type_symbol
_atom_site_label
_atom_site_fract_x
_atom_site_fract_y
_atom_site_fract_z
Si Si1 0.365207 0.468576 0.175216
Si Si2 0.117274 0.821737 0.827249
Si Si3 0.984571 0.091141 0.558947
Si Si4 0.750000 0.000000 0.046788
Si Si5 0.194034 0.181693 0.513809
Si Si6 0.500000 0.250000 0.578299
Si Si7 0.898737 0.830610 0.323043
O O1 0.375330 0.573825 0.209041
O O2 0.424881 0.429555 0.120848
O O3 0.303325 0.455441 0.112978
O O4 0.359536 0.409602 0.269862
O O5 0.142981 0.750000 0.750000
O O6 0.045889 0.802230 0.851351
O O7 0.154263 0.807686 0.921441
O O8 0.041647 0.124249 0.625214
O O9 0.966642 0.173742 0.487715
O O10 0.000000 0.000000 0.500000
O O11 0.779949 0.076963 0.978588
O O12 0.250000 0.250000 0.500000
O O13 0.150439 0.209494 0.601466
O O14 0.919808 0.750000 0.250000
#
# Coordination Sequence:
#
# PCOD8283245 Si02
#       7
#    16  16  16   8  16   8  16
#     4  11  25  45  69 105 145 183 241 299 356 427
#     4  11  26  45  68 103 138 183 238 294 354 436
#     4  12  24  44  72 104 142 191 238 295 362 439
#     4  10  24  46  70 100 138 186 246 292 346 432
#     4  11  25  47  69 100 138 189 239 294 365 433
#     4  12  23  42  73  98 140 174 237 280 367 416
#     4  12  26  46  71 108 144 187 240 305 373 433
#
# _framework density 21.854614000000002
#
# number of rings (size 3 to 8) (size 9 to 14) (size 15 to 20)
#    0.000    0.667    3.333    3.750    4.667    7.333 
#    0.000    0.000    0.000    0.000    0.000    0.000 
#    0.000    0.000    0.000    0.000    0.000    0.000 
#
# Total GULP energy -595281.703174 kJ/mol
# GULP energy per Si atom -12401.702149 kJ/mol
# Density = 2.180487 g / cm^3
# Si number density = 21.854614 Si / 1000 Ang^3
#
#
#
# Elastic Constant Matrix: (Units=GPa)
#
#
# Indices 1 2 3 4 5 6 
#
# 1 122.2530 26.9142 33.7791 0.0000 0.0000 0.0000
# 2 26.9142 105.5512 63.4868 0.0000 0.0000 0.0000
# 3 33.7791 63.4868 100.8258 0.0000 0.0000 0.0000
# 4 0.0000 0.0000 0.0000 41.4645 0.0000 0.0000
# 5 0.0000 0.0000 0.0000 0.0000 -2.4262 0.0000
# 6 0.0000 0.0000 0.0000 0.0000 0.0000 37.6334
#
#
#
# Elastic Compliance Matrix: (Units=1/GPa)
#
#
# Indices 1 2 3 4 5 6 
#
# 1 0.009054 -0.000779 -0.002543 0.000000 0.000000 0.000000
# 2 -0.000779 0.015317 -0.009383 0.000000 0.000000 0.000000
# 3 -0.002543 -0.009383 0.016678 0.000000 0.000000 0.000000
# 4 0.000000 0.000000 0.000000 0.024117 0.000000 0.000000
# 5 0.000000 0.000000 0.000000 0.000000 -0.412171 0.000000
# 6 0.000000 0.000000 0.000000 0.000000 0.000000 0.026572
#
#
# Mechanical properties :
#
#
# Convention : Reuss Voigt Hill
#
# Bulk Modulus (GPa) = 63.94509 64.11002 64.02756
# Shear Modulus (GPa) = -17.25271 28.96434 5.85582
#
# Velocity S-wave (km/s) = -2.81273 3.64444 1.63868
# Velocity P-wave (km/s) = 4.33292 6.86351 5.73942
#
# Compressibility (1/GPa) = 0.01563842
#
# Stress axis : x y z
#
# Youngs Moduli (GPa) = 110.45034 65.28836 59.95818
#
# Poissons Ratio (x) = 0.05088 0.15245
# Poissons Ratio (y) = 0.08608 0.56261
# Poissons Ratio (z) = 0.28082 0.61262
#
# Static dielectric constant tensor:
#      x y z
#    x 3.641450 0.000000 0.000000 
#    y 0.000000 4.260990 0.000000 
#    z 0.000000 0.000000 4.144250 
# 
# 
# High freq. dielectric constant tensor:
#      x y z
#    x 1.864920 0.000000 0.000000 
#    y 0.000000 1.879130 0.000000 
#    z 0.000000 0.000000 1.863570 
# 
# From -- ./inp_files/24484.got.cif
#   From: 2010.03.12/outbox.cif.g09.slc.cpg/sg68_13_cif.got.tgz:24484.got - 2010.04.10 23:14:56.
