data_PCOD8283104
_publ_section_title
;
Structure prediction by ZEFSAII (Michael W. Deem and Ramdas Pophale) SiO2 
 PCOD8283104
Probable space group: C C C A
;
_chemical_formula_sum "Si O2"
_cell_formula_units_Z 64
_cell_length_a 22.424387
_cell_length_b 13.461137
_cell_length_c 8.962175
_cell_angle_alpha 90.000000
_cell_angle_beta 90.000000
_cell_angle_gamma 90.000000
_cell_volume 2705.301941
_symmetry_space_group_name_H-M "C C C A"
_symmetry_group_IT_number 68
_space_group.IT_coordinate_system_code '2'
_symmetry_cell_setting 'orthorhombic'
loop_
_space_group_symop_operation_xyz
x,y,z
-x,1/2-y,z
x,1/2-y,1/2-z
-x,y,1/2-z
-x,-y,-z
x,1/2+y,-z
-x,1/2+y,1/2+z
x,-y,1/2+z
1/2+x,1/2+y,z
1/2-x,-y,z
1/2+x,-y,1/2-z
1/2-x,1/2+y,1/2-z
1/2-x,1/2-y,-z
1/2+x,y,-z
1/2-x,y,1/2+z
1/2+x,1/2-y,1/2+z
loop_
_atom_site_type_symbol
_atom_site_label
_atom_site_fract_x
_atom_site_fract_y
_atom_site_fract_z
Si Si1 0.680947 0.477611 0.245495
Si Si2 0.388646 0.808495 0.603075
Si Si3 0.376980 0.393683 0.975277
Si Si4 0.994962 0.366893 0.417693
O O1 0.750000 0.500000 0.233378
O O2 0.665873 0.378280 0.151810
O O3 0.661988 0.461480 0.415289
O O4 0.643146 0.572957 0.189473
O O5 0.415112 0.750000 0.750000
O O6 0.363662 0.724195 0.490919
O O7 0.436056 0.882463 0.520017
O O8 0.447856 0.411831 0.005217
O O9 0.000000 0.250000 0.403184
O O10 0.000000 0.412462 0.250000
#
# Coordination Sequence:
#
# PCOD8283104 Si02
#       4
#    16  16  16  16
#     4  11  24  42  63  93 130 173 227 271 313 393
#     4   9  21  42  68  93 132 176 212 266 345 391
#     4  10  23  42  65  95 132 171 214 273 335 387
#     4   9  19  38  66  98 131 166 216 272 327 401
#
# _framework density 23.657247999999999
#
# number of rings (size 3 to 8) (size 9 to 14) (size 15 to 20)
#    0.000    2.250    0.000    0.750    3.500   13.500 
#    0.000    2.500    0.000    0.000    0.000    0.000 
#    0.000    0.000    0.000    0.000    0.000    0.000 
#
# Total GULP energy -396540.564445 kJ/mol
# GULP energy per Si atom -12391.892639 kJ/mol
# Density = 2.360340 g / cm^3
# Si number density = 23.657248 Si / 1000 Ang^3
#
#
#
# Elastic Constant Matrix: (Units=GPa)
#
#
# Indices 1 2 3 4 5 6 
#
# 1 180.3969 37.8923 59.6634 0.0000 0.0000 0.0000
# 2 37.8923 70.5929 36.3110 0.0000 0.0000 0.0000
# 3 59.6634 36.3110 80.0669 0.0000 0.0000 0.0000
# 4 0.0000 0.0000 0.0000 35.9771 0.0000 0.0000
# 5 0.0000 0.0000 0.0000 0.0000 6.3114 0.0000
# 6 0.0000 0.0000 0.0000 0.0000 0.0000 28.5009
#
#
#
# Elastic Compliance Matrix: (Units=1/GPa)
#
#
# Indices 1 2 3 4 5 6 
#
# 1 0.007476 -0.001496 -0.004892 0.000000 0.000000 0.000000
# 2 -0.001496 0.018775 -0.007400 0.000000 0.000000 0.000000
# 3 -0.004892 -0.007400 0.019491 0.000000 0.000000 0.000000
# 4 0.000000 0.000000 0.000000 0.027795 0.000000 0.000000
# 5 0.000000 0.000000 0.000000 0.000000 0.158444 0.000000
# 6 0.000000 0.000000 0.000000 0.000000 0.000000 0.035087
#
#
# Mechanical properties :
#
#
# Convention : Reuss Voigt Hill
#
# Bulk Modulus (GPa) = 55.04948 66.53221 60.79085
# Shear Modulus (GPa) = 16.62796 27.30388 21.96592
#
# Velocity S-wave (km/s) = 2.65405 3.40096 3.05045
# Velocity P-wave (km/s) = 5.71945 6.60352 6.17732
#
# Compressibility (1/GPa) = 0.01816547
#
# Stress axis : x y z
#
# Youngs Moduli (GPa) = 133.76887 53.26204 51.30664
#
# Poissons Ratio (x) = 0.07970 0.25099
# Poissons Ratio (y) = 0.20017 0.37965
# Poissons Ratio (z) = 0.65439 0.39412
#
# Static dielectric constant tensor:
#      x y z
#    x 4.041520 0.000000 0.000000 
#    y 0.000000 4.358570 0.000000 
#    z 0.000000 0.000000 4.569760 
# 
# 
# High freq. dielectric constant tensor:
#      x y z
#    x 1.911880 0.000000 0.000000 
#    y 0.000000 1.942980 0.000000 
#    z 0.000000 0.000000 1.940910 
# 
# From -- ./inp_files/4974.got.cif
#   From: 2010.03.12/outbox.cif.g09.slc.cpg/sg68_3_cif.got.tgz:4974.got - 2010.04.10 23:14:56.
