data_PCOD8283626
_publ_section_title
;
Structure prediction by ZEFSAII (Michael W. Deem and Ramdas Pophale) SiO2 
 PCOD8283626
Probable space group: C C C A
;
_chemical_formula_sum "Si O2"
_cell_formula_units_Z 64
_cell_length_a 10.059408
_cell_length_b 9.680284
_cell_length_c 32.626338
_cell_angle_alpha 90.000000
_cell_angle_beta 90.000000
_cell_angle_gamma 90.000000
_cell_volume 3177.085138
_symmetry_space_group_name_H-M "C C C A"
_symmetry_group_IT_number 68
_space_group.IT_coordinate_system_code '2'
_symmetry_cell_setting 'orthorhombic'
loop_
_space_group_symop_operation_xyz
x,y,z
-x,1/2-y,z
x,1/2-y,1/2-z
-x,y,1/2-z
-x,-y,-z
x,1/2+y,-z
-x,1/2+y,1/2+z
x,-y,1/2+z
1/2+x,1/2+y,z
1/2-x,-y,z
1/2+x,-y,1/2-z
1/2-x,1/2+y,1/2-z
1/2-x,1/2-y,-z
1/2+x,y,-z
1/2-x,y,1/2+z
1/2+x,1/2-y,1/2+z
loop_
_atom_site_type_symbol
_atom_site_label
_atom_site_fract_x
_atom_site_fract_y
_atom_site_fract_z
Si Si1 0.492968 0.085383 0.041526
Si Si2 0.139858 0.118602 0.272227
Si Si3 0.750000 0.000000 0.088284
Si Si4 0.642307 0.736449 0.362015
Si Si5 0.750000 0.000000 0.399944
O O1 0.500000 0.250000 0.033098
O O2 0.622125 0.025880 0.062108
O O3 0.366698 0.050394 0.069880
O O4 0.500000 0.000000 0.000000
O O5 0.204776 0.250000 0.250000
O O6 0.111654 0.172001 0.317695
O O7 0.000000 0.074726 0.250000
O O8 0.250000 0.000000 0.270748
O O9 0.759552 0.134303 0.115712
O O10 0.500000 0.750000 0.384553
O O11 0.710893 0.884711 0.366521
#
# Coordination Sequence:
#
# PCOD8283626 Si02
#       5
#    16  16   8  16   8
#     4  12  28  45  68 103 139 182 231 285 354 416
#     4  11  25  45  69 103 142 183 227 280 346 407
#     4  12  25  46  71  98 140 178 232 286 341 408
#     4  12  24  45  72 101 136 181 232 290 335 405
#     4  12  27  44  73 102 134 182 236 282 345 418
#
# _framework density 20.144251000000001
#
# number of rings (size 3 to 8) (size 9 to 14) (size 15 to 20)
#    0.000    0.250    8.750    0.750    5.250    2.500 
#    0.000    2.500    0.000    0.000    0.000    0.000 
#    0.000    0.000    0.000    0.000    0.000    0.000 
#
# Total GULP energy -396432.514606 kJ/mol
# GULP energy per Si atom -12388.516081 kJ/mol
# Density = 2.009840 g / cm^3
# Si number density = 20.144251 Si / 1000 Ang^3
#
#
#
# Elastic Constant Matrix: (Units=GPa)
#
#
# Indices 1 2 3 4 5 6 
#
# 1 151.6741 72.6380 60.4337 0.0000 0.0000 0.0000
# 2 72.6380 172.0027 48.8198 0.0000 0.0000 0.0000
# 3 60.4337 48.8198 111.1759 0.0000 0.0000 0.0000
# 4 0.0000 0.0000 0.0000 42.0587 0.0000 0.0000
# 5 0.0000 0.0000 0.0000 0.0000 39.4308 0.0000
# 6 0.0000 0.0000 0.0000 0.0000 0.0000 42.8595
#
#
#
# Elastic Compliance Matrix: (Units=1/GPa)
#
#
# Indices 1 2 3 4 5 6 
#
# 1 0.009550 -0.002924 -0.003907 0.000000 0.000000 0.000000
# 2 -0.002924 0.007537 -0.001720 0.000000 0.000000 0.000000
# 3 -0.003907 -0.001720 0.011874 0.000000 0.000000 0.000000
# 4 0.000000 0.000000 0.000000 0.023776 0.000000 0.000000
# 5 0.000000 0.000000 0.000000 0.000000 0.025361 0.000000
# 6 0.000000 0.000000 0.000000 0.000000 0.000000 0.023332
#
#
# Mechanical properties :
#
#
# Convention : Reuss Voigt Hill
#
# Bulk Modulus (GPa) = 84.33043 88.73732 86.53387
# Shear Modulus (GPa) = 40.82076 41.73388 41.27732
#
# Velocity S-wave (km/s) = 4.50646 4.55659 4.53159
# Velocity P-wave (km/s) = 8.30854 8.47525 8.39231
#
# Compressibility (1/GPa) = 0.01185812
#
# Stress axis : x y z
#
# Youngs Moduli (GPa) = 104.70805 132.67918 84.21686
#
# Poissons Ratio (x) = 0.38797 0.32907
# Poissons Ratio (y) = 0.30618 0.14486
# Poissons Ratio (z) = 0.40914 0.22822
#
# Static dielectric constant tensor:
#      x y z
#    x 3.768550 0.000000 0.000000 
#    y 0.000000 3.945710 0.000000 
#    z 0.000000 0.000000 2.531100 
# 
# 
# High freq. dielectric constant tensor:
#      x y z
#    x 1.802390 0.000000 0.000000 
#    y 0.000000 1.806690 0.000000 
#    z 0.000000 0.000000 1.794110 
# 
# From -- ./inp_files/54407.got.cif
#   From: 2010.03.12/outbox.cif.g09.slc.cpg/sg68_28_cif.got.tgz:54407.got - 2010.04.10 23:14:56.
