data_PCOD8283958
_publ_section_title
;
Structure prediction by ZEFSAII (Michael W. Deem and Ramdas Pophale) SiO2 
 PCOD8283958
Probable space group: F M M M
;
_chemical_formula_sum "Si O2"
_cell_formula_units_Z 240
_cell_length_a 26.250918
_cell_length_b 19.728558
_cell_length_c 25.319589
_cell_angle_alpha 90.000000
_cell_angle_beta 90.000000
_cell_angle_gamma 90.000000
_cell_volume 13112.831787
_symmetry_space_group_name_H-M "F M M M"
_symmetry_group_IT_number 69
_symmetry_cell_setting 'orthorhombic'
loop_
_space_group_symop_operation_xyz
x,y,z
-x,-y,z
x,-y,-z
-x,y,-z
-x,-y,-z
x,y,-z
-x,y,z
x,-y,z
x,1/2+y,1/2+z
-x,1/2-y,1/2+z
x,1/2-y,1/2-z
-x,1/2+y,1/2-z
-x,1/2-y,1/2-z
x,1/2+y,1/2-z
-x,1/2+y,1/2+z
x,1/2-y,1/2+z
1/2+x,y,1/2+z
1/2-x,-y,1/2+z
1/2+x,-y,1/2-z
1/2-x,y,1/2-z
1/2-x,-y,1/2-z
1/2+x,y,1/2-z
1/2-x,y,1/2+z
1/2+x,-y,1/2+z
1/2+x,1/2+y,z
1/2-x,1/2-y,z
1/2+x,1/2-y,-z
1/2-x,1/2+y,-z
1/2-x,1/2-y,-z
1/2+x,1/2+y,-z
1/2-x,1/2+y,z
1/2+x,1/2-y,z
loop_
_atom_site_type_symbol
_atom_site_label
_atom_site_fract_x
_atom_site_fract_y
_atom_site_fract_z
Si Si1 0.441274 0.791443 0.441277
Si Si2 0.134137 0.924170 0.678351
Si Si3 0.851071 0.117878 0.210832
Si Si4 0.103361 0.923877 0.899730
Si Si5 0.440680 0.187288 0.147116
Si Si6 0.251863 0.581103 0.335917
Si Si7 0.788364 0.422396 0.443740
Si Si8 0.101311 0.750000 0.250000
O O1 0.416075 0.783169 0.500000
O O2 0.500000 0.775613 0.446797
O O3 0.436501 0.867830 0.419064
O O4 0.419267 0.737453 0.398781
O O5 0.123830 0.924388 0.741031
O O6 0.093979 0.880175 0.644902
O O7 0.191211 0.892990 0.674775
O O8 0.130796 0.000000 0.655299
O O9 0.879494 0.089958 0.159819
O O10 0.789782 0.108088 0.206102
O O11 0.861734 0.196553 0.221589
O O12 0.151113 0.917474 0.938394
O O13 0.079853 0.000000 0.903224
O O14 0.500000 0.168571 0.138434
O O15 0.435110 0.219625 0.205048
O O16 0.248283 0.500000 0.334355
O O17 0.238721 0.612204 0.393756
O O18 0.773005 0.387909 0.500000
O O19 0.770863 0.500000 0.445017
#
# Coordination Sequence:
#
# PCOD8283958 Si02
#       8
#    32  32  32  32  32  32  32  16
#     4  10  21  37  56  76 104 144 183 222 274 331
#     4  10  20  34  54  80 107 139 181 229 280 328
#     4  10  18  31  52  80 112 147 178 214 263 323
#     4  10  18  30  51  79 110 142 179 220 260 317
#     4  10  21  38  57  76 102 139 183 228 277 325
#     4   9  17  30  49  75 111 145 171 213 271 326
#     4   8  14  25  44  70  99 135 172 203 244 304
#     4  10  19  34  57  78 106 144 186 224 260 318
#
# _framework density 18.302682000000001
#
# number of rings (size 3 to 8) (size 9 to 14) (size 15 to 20)
#    0.000    2.400    1.333    3.000    0.000    2.400 
#    0.000    6.667    0.000    2.800    0.000    4.667 
#    0.000    0.000    0.000    0.000    0.000    0.000 
#
# Total GULP energy -743498.470944 kJ/mol
# GULP energy per Si atom -12391.641182 kJ/mol
# Density = 1.826102 g / cm^3
# Si number density = 18.302682 Si / 1000 Ang^3
#
#
#
# Elastic Constant Matrix: (Units=GPa)
#
#
# Indices 1 2 3 4 5 6 
#
# 1 67.5617 39.5391 25.3534 0.0000 0.0000 0.0000
# 2 39.5391 92.5777 37.2158 0.0000 0.0000 0.0000
# 3 25.3534 37.2158 92.4152 0.0000 0.0000 0.0000
# 4 0.0000 0.0000 0.0000 23.7192 0.0000 0.0000
# 5 0.0000 0.0000 0.0000 0.0000 12.6337 0.0000
# 6 0.0000 0.0000 0.0000 0.0000 0.0000 27.0859
#
#
#
# Elastic Compliance Matrix: (Units=1/GPa)
#
#
# Indices 1 2 3 4 5 6 
#
# 1 0.020194 -0.007633 -0.002466 0.000000 0.000000 0.000000
# 2 -0.007633 0.015774 -0.004258 0.000000 0.000000 0.000000
# 3 -0.002466 -0.004258 0.013212 0.000000 0.000000 0.000000
# 4 0.000000 0.000000 0.000000 0.042160 0.000000 0.000000
# 5 0.000000 0.000000 0.000000 0.000000 0.079153 0.000000
# 6 0.000000 0.000000 0.000000 0.000000 0.000000 0.036920
#
#
# Mechanical properties :
#
#
# Convention : Reuss Voigt Hill
#
# Bulk Modulus (GPa) = 48.86436 50.75237 49.80837
# Shear Modulus (GPa) = 20.58049 22.71751 21.64900
#
# Velocity S-wave (km/s) = 3.35692 3.52691 3.44296
# Velocity P-wave (km/s) = 6.46383 6.66146 6.56339
#
# Compressibility (1/GPa) = 0.02046481
#
# Stress axis : x y z
#
# Youngs Moduli (GPa) = 49.51979 63.39739 75.68905
#
# Poissons Ratio (x) = 0.48393 0.18666
# Poissons Ratio (y) = 0.37800 0.32228
# Poissons Ratio (z) = 0.12212 0.26994
#
# Static dielectric constant tensor:
#      x y z
#    x 3.175360 0.000000 0.000000 
#    y 0.000000 3.227990 0.000000 
#    z 0.000000 0.000000 3.766550 
# 
# 
# High freq. dielectric constant tensor:
#      x y z
#    x 1.685430 0.000000 0.000000 
#    y 0.000000 1.685160 0.000000 
#    z 0.000000 0.000000 1.722210 
# 
# From -- ./inp_files/38588.got.cif
#   From: 2010.03.12/outbox.cif.g09.slc.cpg/sg69_20_cif.got.tgz:38588.got - 2010.04.10 23:52:46.
