data_PCOD8283105
_publ_section_title
;
Structure prediction by ZEFSAII (Michael W. Deem and Ramdas Pophale) SiO2 
 PCOD8283105
Probable space group: C C C A
;
_chemical_formula_sum "Si O2"
_cell_formula_units_Z 88
_cell_length_a 21.057075
_cell_length_b 22.380330
_cell_length_c 8.222549
_cell_angle_alpha 90.000000
_cell_angle_beta 90.000000
_cell_angle_gamma 90.000000
_cell_volume 3874.993695
_symmetry_space_group_name_H-M "C C C A"
_symmetry_group_IT_number 68
_space_group.IT_coordinate_system_code '2'
_symmetry_cell_setting 'orthorhombic'
loop_
_space_group_symop_operation_xyz
x,y,z
-x,1/2-y,z
x,1/2-y,1/2-z
-x,y,1/2-z
-x,-y,-z
x,1/2+y,-z
-x,1/2+y,1/2+z
x,-y,1/2+z
1/2+x,1/2+y,z
1/2-x,-y,z
1/2+x,-y,1/2-z
1/2-x,1/2+y,1/2-z
1/2-x,1/2-y,-z
1/2+x,y,-z
1/2-x,y,1/2+z
1/2+x,1/2-y,1/2+z
loop_
_atom_site_type_symbol
_atom_site_label
_atom_site_fract_x
_atom_site_fract_y
_atom_site_fract_z
Si Si1 0.702459 0.427081 0.364002
Si Si2 0.167583 0.550588 0.506359
Si Si3 0.828917 0.689676 0.537318
Si Si4 0.263375 0.750000 0.750000
Si Si5 0.473396 0.810606 0.070455
Si Si6 0.977959 0.564437 0.932690
O O1 0.779109 0.420761 0.374990
O O2 0.674481 0.480057 0.473563
O O3 0.669471 0.372694 0.449087
O O4 0.681378 0.431657 0.178536
O O5 0.097930 0.572198 0.556579
O O6 0.782373 0.694639 0.695022
O O7 0.807629 0.737787 0.403399
O O8 0.899548 0.701680 0.592319
O O9 0.500000 0.750000 0.981249
O O10 0.500000 0.814776 0.250000
O O11 0.491610 0.874958 0.983569
O O12 0.000000 0.563338 0.750000
O O13 0.000000 0.500000 0.000000
#
# Coordination Sequence:
#
# PCOD8283105 Si02
#       6
#    16  16  16   8  16  16
#     4  11  23  39  66  94 131 168 211 280 327 394
#     4  11  23  40  63  98 129 167 220 266 337 394
#     4  11  23  44  66  97 129 169 219 265 334 383
#     4  10  24  40  68  96 128 166 214 278 320 390
#     4  10  23  42  67  92 125 172 217 264 315 389
#     4  11  24  42  67  94 130 174 218 271 327 399
#
# _framework density 22.709716
#
# number of rings (size 3 to 8) (size 9 to 14) (size 15 to 20)
#    0.000    1.273    0.000    6.545    0.000   11.636 
#    0.000    2.273    0.000    0.000    0.000    0.000 
#    0.000    0.000    0.000    0.000    0.000    0.000 
#
# Total GULP energy -545191.031215 kJ/mol
# GULP energy per Si atom -12390.705255 kJ/mol
# Density = 2.265803 g / cm^3
# Si number density = 22.709716 Si / 1000 Ang^3
#
#
#
# Elastic Constant Matrix: (Units=GPa)
#
#
# Indices 1 2 3 4 5 6 
#
# 1 191.3206 43.1751 59.3675 0.0000 0.0000 0.0000
# 2 43.1751 149.7357 27.8342 0.0000 0.0000 0.0000
# 3 59.3675 27.8342 110.8092 0.0000 0.0000 0.0000
# 4 0.0000 0.0000 0.0000 36.7956 0.0000 0.0000
# 5 0.0000 0.0000 0.0000 0.0000 46.6662 0.0000
# 6 0.0000 0.0000 0.0000 0.0000 0.0000 20.6350
#
#
#
# Elastic Compliance Matrix: (Units=1/GPa)
#
#
# Indices 1 2 3 4 5 6 
#
# 1 0.006497 -0.001286 -0.003158 0.000000 0.000000 0.000000
# 2 -0.001286 0.007260 -0.001135 0.000000 0.000000 0.000000
# 3 -0.003158 -0.001135 0.011001 0.000000 0.000000 0.000000
# 4 0.000000 0.000000 0.000000 0.027177 0.000000 0.000000
# 5 0.000000 0.000000 0.000000 0.000000 0.021429 0.000000
# 6 0.000000 0.000000 0.000000 0.000000 0.000000 0.048461
#
#
# Mechanical properties :
#
#
# Convention : Reuss Voigt Hill
#
# Bulk Modulus (GPa) = 73.52234 79.17991 76.35112
# Shear Modulus (GPa) = 36.35920 42.25194 39.30557
#
# Velocity S-wave (km/s) = 4.00564 4.31806 4.16478
# Velocity P-wave (km/s) = 7.33748 7.73321 7.53795
#
# Compressibility (1/GPa) = 0.01360131
#
# Stress axis : x y z
#
# Youngs Moduli (GPa) = 153.91784 137.73649 90.89844
#
# Poissons Ratio (x) = 0.17718 0.28703
# Poissons Ratio (y) = 0.19799 0.10313
# Poissons Ratio (z) = 0.48603 0.15626
#
# Static dielectric constant tensor:
#      x y z
#    x 4.267800 0.000000 0.000000 
#    y 0.000000 6.372460 0.000000 
#    z 0.000000 0.000000 4.524050 
# 
# 
# High freq. dielectric constant tensor:
#      x y z
#    x 1.907490 0.000000 0.000000 
#    y 0.000000 1.913330 0.000000 
#    z 0.000000 0.000000 1.879960 
# 
# From -- ./inp_files/7148.got.cif
#   From: 2010.03.12/outbox.cif.g09.slc.cpg/sg68_4_cif.got.tgz:7148.got - 2010.04.10 23:14:56.
