data_PCOD8283518
_publ_section_title
;
Structure prediction by ZEFSAII (Michael W. Deem and Ramdas Pophale) SiO2 
 PCOD8283518
Probable space group: C C C A
;
_chemical_formula_sum "Si O2"
_cell_formula_units_Z 64
_cell_length_a 12.720501
_cell_length_b 12.684716
_cell_length_c 18.399104
_cell_angle_alpha 90.000000
_cell_angle_beta 90.000000
_cell_angle_gamma 90.000000
_cell_volume 2968.804768
_symmetry_space_group_name_H-M "C C C A"
_symmetry_group_IT_number 68
_space_group.IT_coordinate_system_code '2'
_symmetry_cell_setting 'orthorhombic'
loop_
_space_group_symop_operation_xyz
x,y,z
-x,1/2-y,z
x,1/2-y,1/2-z
-x,y,1/2-z
-x,-y,-z
x,1/2+y,-z
-x,1/2+y,1/2+z
x,-y,1/2+z
1/2+x,1/2+y,z
1/2-x,-y,z
1/2+x,-y,1/2-z
1/2-x,1/2+y,1/2-z
1/2-x,1/2-y,-z
1/2+x,y,-z
1/2-x,y,1/2+z
1/2+x,1/2-y,1/2+z
loop_
_atom_site_type_symbol
_atom_site_label
_atom_site_fract_x
_atom_site_fract_y
_atom_site_fract_z
Si Si1 0.671087 0.636774 0.223987
Si Si2 0.863553 0.956955 0.930007
Si Si3 0.889388 0.077914 0.719818
Si Si4 0.962500 0.868409 0.071667
O O1 0.628905 0.750000 0.250000
O O2 0.641847 0.617706 0.140329
O O3 0.797412 0.630008 0.232328
O O4 0.616819 0.549135 0.274887
O O5 0.750000 0.000000 0.951844
O O6 0.906757 0.886628 0.995174
O O7 0.939054 0.055207 0.914171
O O8 0.877917 0.110585 0.635594
O O9 0.000000 0.120896 0.750000
O O10 0.000000 0.750000 0.074086
#
# Coordination Sequence:
#
# PCOD8283518 Si02
#       4
#    16  16  16  16
#     4  11  25  42  69 100 134 182 223 282 346 391
#     4  11  24  49  65 102 143 171 232 288 330 419
#     4  11  23  44  65 102 134 175 232 279 327 416
#     4  11  27  44  71  99 136 186 222 282 350 401
#
# _framework density 21.557496
#
# number of rings (size 3 to 8) (size 9 to 14) (size 15 to 20)
#    0.000    1.000    5.000    0.000   10.500    5.500 
#    0.000    0.000    0.000    0.000    0.000    0.000 
#    0.000    0.000    0.000    0.000    0.000    0.000 
#
# Total GULP energy -396973.876524 kJ/mol
# GULP energy per Si atom -12405.433641 kJ/mol
# Density = 2.150843 g / cm^3
# Si number density = 21.557496 Si / 1000 Ang^3
#
#
#
# Elastic Constant Matrix: (Units=GPa)
#
#
# Indices 1 2 3 4 5 6 
#
# 1 98.0551 20.4141 63.9419 0.0000 0.0000 0.0000
# 2 20.4141 142.4870 89.9696 0.0000 0.0000 0.0000
# 3 63.9419 89.9696 193.7284 0.0000 0.0000 0.0000
# 4 0.0000 0.0000 0.0000 25.9420 0.0000 0.0000
# 5 0.0000 0.0000 0.0000 0.0000 35.1956 0.0000
# 6 0.0000 0.0000 0.0000 0.0000 0.0000 13.2802
#
#
#
# Elastic Compliance Matrix: (Units=1/GPa)
#
#
# Indices 1 2 3 4 5 6 
#
# 1 0.013141 0.001211 -0.004900 0.000000 0.000000 0.000000
# 2 0.001211 0.010042 -0.005063 0.000000 0.000000 0.000000
# 3 -0.004900 -0.005063 0.009131 0.000000 0.000000 0.000000
# 4 0.000000 0.000000 0.000000 0.038548 0.000000 0.000000
# 5 0.000000 0.000000 0.000000 0.000000 0.028413 0.000000
# 6 0.000000 0.000000 0.000000 0.000000 0.000000 0.075300
#
#
# Mechanical properties :
#
#
# Convention : Reuss Voigt Hill
#
# Bulk Modulus (GPa) = 67.52337 86.99130 77.25733
# Shear Modulus (GPa) = 25.37883 32.21321 28.79602
#
# Velocity S-wave (km/s) = 3.43485 3.86980 3.65879
# Velocity P-wave (km/s) = 6.86450 7.77225 7.33244
#
# Compressibility (1/GPa) = 0.01480969
#
# Stress axis : x y z
#
# Youngs Moduli (GPa) = 76.09511 99.58474 109.52238
#
# Poissons Ratio (x) = -0.12061 0.53665
# Poissons Ratio (y) = -0.09216 0.55454
# Poissons Ratio (z) = 0.37286 0.50422
#
# Static dielectric constant tensor:
#      x y z
#    x 4.080160 0.000000 0.000000 
#    y 0.000000 3.876520 0.000000 
#    z 0.000000 0.000000 4.046970 
# 
# 
# High freq. dielectric constant tensor:
#      x y z
#    x 1.852360 0.000000 0.000000 
#    y 0.000000 1.846340 0.000000 
#    z 0.000000 0.000000 1.857200 
# 
# From -- ./inp_files/30467.got.cif
#   From: 2010.03.12/outbox.cif.g09.slc.cpg/sg68_16_cif.got.tgz:30467.got - 2010.04.10 23:14:56.
