data_PCOD8283923
_publ_section_title
;
Structure prediction by ZEFSAII (Michael W. Deem and Ramdas Pophale) SiO2 
 PCOD8283923
Probable space group: F M M M
;
_chemical_formula_sum "Si O2"
_cell_formula_units_Z 192
_cell_length_a 19.412420
_cell_length_b 27.943908
_cell_length_c 20.879722
_cell_angle_alpha 90.000000
_cell_angle_beta 90.000000
_cell_angle_gamma 90.000000
_cell_volume 11326.390580
_symmetry_space_group_name_H-M "F M M M"
_symmetry_group_IT_number 69
_symmetry_cell_setting 'orthorhombic'
loop_
_space_group_symop_operation_xyz
x,y,z
-x,-y,z
x,-y,-z
-x,y,-z
-x,-y,-z
x,y,-z
-x,y,z
x,-y,z
x,1/2+y,1/2+z
-x,1/2-y,1/2+z
x,1/2-y,1/2-z
-x,1/2+y,1/2-z
-x,1/2-y,1/2-z
x,1/2+y,1/2-z
-x,1/2+y,1/2+z
x,1/2-y,1/2+z
1/2+x,y,1/2+z
1/2-x,-y,1/2+z
1/2+x,-y,1/2-z
1/2-x,y,1/2-z
1/2-x,-y,1/2-z
1/2+x,y,1/2-z
1/2-x,y,1/2+z
1/2+x,-y,1/2+z
1/2+x,1/2+y,z
1/2-x,1/2-y,z
1/2+x,1/2-y,-z
1/2-x,1/2+y,-z
1/2-x,1/2-y,-z
1/2+x,1/2+y,-z
1/2-x,1/2+y,z
1/2+x,1/2-y,z
loop_
_atom_site_type_symbol
_atom_site_label
_atom_site_fract_x
_atom_site_fract_y
_atom_site_fract_z
Si Si1 0.203464 0.052704 0.574873
Si Si2 0.924732 0.889092 0.424786
Si Si3 0.780438 0.302406 0.186287
Si Si4 0.423695 0.791512 0.854855
Si Si5 0.076288 0.192973 0.074151
Si Si6 0.712509 0.358688 0.074401
O O1 0.190766 0.046504 0.500000
O O2 0.135842 0.078292 0.605995
O O3 0.271455 0.085207 0.586986
O O4 0.214135 0.000000 0.606059
O O5 0.916013 0.890431 0.500000
O O6 0.918906 0.833891 0.405850
O O7 0.000000 0.909490 0.403951
O O8 0.750000 0.328253 0.250000
O O9 0.750000 0.250000 0.180752
O O10 0.863293 0.299846 0.196874
O O11 0.763104 0.329180 0.120390
O O12 0.500000 0.790589 0.822379
O O13 0.407379 0.741605 0.889116
O O14 0.132921 0.152534 0.091642
O O15 0.000000 0.173175 0.091938
O O16 0.080357 0.205995 0.000000
O O17 0.729051 0.345498 0.000000
#
# Coordination Sequence:
#
# PCOD8283923 Si02
#       6
#    32  32  32  32  32  32
#     4   9  17  28  44  69  98 126 161 206 249 287
#     4   9  16  25  41  68 101 132 159 192 236 287
#     4  11  22  35  48  72 104 133 162 205 245 282
#     4  10  18  30  47  69  98 131 165 194 234 293
#     4   9  17  28  45  72 101 126 159 205 246 285
#     4  10  19  32  52  72  94 132 171 203 243 294
#
# _framework density 16.951561999999999
#
# number of rings (size 3 to 8) (size 9 to 14) (size 15 to 20)
#    0.000    2.333    3.333    0.500    0.000    3.333 
#    0.000    4.167    0.000    1.000    0.000    3.500 
#    0.000    0.000    0.000    0.000    0.000    0.000 
#
# Total GULP energy -594681.904900 kJ/mol
# GULP energy per Si atom -12389.206352 kJ/mol
# Density = 1.691298 g / cm^3
# Si number density = 16.951562 Si / 1000 Ang^3
#
#
#
# Elastic Constant Matrix: (Units=GPa)
#
#
# Indices 1 2 3 4 5 6 
#
# 1 166.6961 63.5419 36.7006 0.0000 0.0000 0.0000
# 2 63.5419 107.6784 21.0724 0.0000 0.0000 0.0000
# 3 36.7006 21.0724 42.7156 0.0000 0.0000 0.0000
# 4 0.0000 0.0000 0.0000 5.4636 0.0000 0.0000
# 5 0.0000 0.0000 0.0000 0.0000 16.7941 0.0000
# 6 0.0000 0.0000 0.0000 0.0000 0.0000 20.4191
#
#
#
# Elastic Compliance Matrix: (Units=1/GPa)
#
#
# Indices 1 2 3 4 5 6 
#
# 1 0.008776 -0.004099 -0.005518 0.000000 0.000000 0.000000
# 2 -0.004099 0.012194 -0.002494 0.000000 0.000000 0.000000
# 3 -0.005518 -0.002494 0.029382 0.000000 0.000000 0.000000
# 4 0.000000 0.000000 0.000000 0.183029 0.000000 0.000000
# 5 0.000000 0.000000 0.000000 0.000000 0.059545 0.000000
# 6 0.000000 0.000000 0.000000 0.000000 0.000000 0.048974
#
#
# Mechanical properties :
#
#
# Convention : Reuss Voigt Hill
#
# Bulk Modulus (GPa) = 38.26990 62.19110 50.23050
# Shear Modulus (GPa) = 13.33930 21.58704 17.46317
#
# Velocity S-wave (km/s) = 2.80823 3.57242 3.21312
# Velocity P-wave (km/s) = 5.75673 7.33372 6.59255
#
# Compressibility (1/GPa) = 0.02613020
#
# Stress axis : x y z
#
# Youngs Moduli (GPa) = 113.94188 82.00884 34.03437
#
# Poissons Ratio (x) = 0.33616 0.18781
# Poissons Ratio (y) = 0.46706 0.08487
# Poissons Ratio (z) = 0.62878 0.20449
#
# Static dielectric constant tensor:
#      x y z
#    x 3.658610 0.000000 0.000000 
#    y 0.000000 3.220560 0.000000 
#    z 0.000000 0.000000 3.014030 
# 
# 
# High freq. dielectric constant tensor:
#      x y z
#    x 1.673090 0.000000 0.000000 
#    y 0.000000 1.629240 0.000000 
#    z 0.000000 0.000000 1.608540 
# 
# From -- ./inp_files/32105.got.cif
#   From: 2010.03.12/outbox.cif.g09.slc.cpg/sg69_17_cif.got.tgz:32105.got - 2010.04.10 23:52:46.
