data_PCOD8283216
_publ_section_title
;
Structure prediction by ZEFSAII (Michael W. Deem and Ramdas Pophale) SiO2 
 PCOD8283216
Probable space group: C C C A
;
_chemical_formula_sum "Si O2"
_cell_formula_units_Z 104
_cell_length_a 7.846110
_cell_length_b 19.959092
_cell_length_c 29.670379
_cell_angle_alpha 90.000000
_cell_angle_beta 90.000000
_cell_angle_gamma 90.000000
_cell_volume 4646.417885
_symmetry_space_group_name_H-M "C C C A"
_symmetry_group_IT_number 68
_space_group.IT_coordinate_system_code '2'
_symmetry_cell_setting 'orthorhombic'
loop_
_space_group_symop_operation_xyz
x,y,z
-x,1/2-y,z
x,1/2-y,1/2-z
-x,y,1/2-z
-x,-y,-z
x,1/2+y,-z
-x,1/2+y,1/2+z
x,-y,1/2+z
1/2+x,1/2+y,z
1/2-x,-y,z
1/2+x,-y,1/2-z
1/2-x,1/2+y,1/2-z
1/2-x,1/2-y,-z
1/2+x,y,-z
1/2-x,y,1/2+z
1/2+x,1/2-y,1/2+z
loop_
_atom_site_type_symbol
_atom_site_label
_atom_site_fract_x
_atom_site_fract_y
_atom_site_fract_z
Si Si1 0.885717 0.868202 0.956336
Si Si2 0.750000 0.000000 0.935139
Si Si3 0.691568 0.778604 0.704793
Si Si4 0.718870 0.651635 0.948946
Si Si5 0.809352 0.734211 0.610084
Si Si6 0.576589 0.459407 0.389209
Si Si7 0.869721 0.566406 0.291133
O O1 0.787279 0.839832 0.911478
O O2 0.087258 0.875657 0.948770
O O3 0.784666 0.937064 0.967366
O O4 0.848497 0.826109 0.001756
O O5 0.915130 0.997273 0.903203
O O6 0.500000 0.750000 0.702205
O O7 0.778530 0.750000 0.750000
O O8 0.787240 0.743048 0.663224
O O9 0.718494 0.859467 0.707163
O O10 0.688817 0.714972 0.916562
O O11 0.595136 0.597082 0.927003
O O12 0.000000 0.750000 0.594945
O O13 0.750000 0.500000 0.386095
O O14 0.533388 0.434049 0.338847
O O15 0.750000 0.500000 0.285893
O O16 0.000000 0.564938 0.250000
#
# Coordination Sequence:
#
# PCOD8283216 Si02
#       7
#    16   8  16  16  16  16  16
#     4  11  25  39  66 101 138 185 237 290 352 431
#     4  12  26  40  66 104 134 190 234 284 360 428
#     4  11  23  44  71  99 138 180 237 290 362 435
#     4  11  22  44  66  96 140 181 235 294 355 417
#     4  10  24  44  67  97 137 181 234 295 353 419
#     4  11  24  44  68  97 145 181 236 293 360 425
#     4  11  25  47  71 105 138 185 231 305 367 437
#
# _framework density 22.382832000000001
#
# number of rings (size 3 to 8) (size 9 to 14) (size 15 to 20)
#    0.000    1.077    4.615    1.385    4.308    2.769 
#    2.769    0.000    0.000    0.000    0.000    0.000 
#    0.000    0.000    0.000    0.000    0.000    0.000 
#
# Total GULP energy -644236.849667 kJ/mol
# GULP energy per Si atom -12389.170186 kJ/mol
# Density = 2.233189 g / cm^3
# Si number density = 22.382832 Si / 1000 Ang^3
#
#
#
# Elastic Constant Matrix: (Units=GPa)
#
#
# Indices 1 2 3 4 5 6 
#
# 1 70.3167 14.0502 24.6374 0.0000 0.0000 0.0000
# 2 14.0502 97.3083 24.2770 0.0000 0.0000 0.0000
# 3 24.6374 24.2770 163.3080 0.0000 0.0000 0.0000
# 4 0.0000 0.0000 0.0000 35.8025 0.0000 0.0000
# 5 0.0000 0.0000 0.0000 0.0000 33.0130 0.0000
# 6 0.0000 0.0000 0.0000 0.0000 0.0000 26.6834
#
#
#
# Elastic Compliance Matrix: (Units=1/GPa)
#
#
# Indices 1 2 3 4 5 6 
#
# 1 0.015279 -0.001694 -0.002053 0.000000 0.000000 0.000000
# 2 -0.001694 0.010860 -0.001359 0.000000 0.000000 0.000000
# 3 -0.002053 -0.001359 0.006635 0.000000 0.000000 0.000000
# 4 0.000000 0.000000 0.000000 0.027931 0.000000 0.000000
# 5 0.000000 0.000000 0.000000 0.000000 0.030291 0.000000
# 6 0.000000 0.000000 0.000000 0.000000 0.000000 0.037477
#
#
# Mechanical properties :
#
#
# Convention : Reuss Voigt Hill
#
# Bulk Modulus (GPa) = 44.32133 50.76245 47.54189
# Shear Modulus (GPa) = 34.19825 36.96433 35.58129
#
# Velocity S-wave (km/s) = 3.91305 4.06822 3.99139
# Velocity P-wave (km/s) = 6.34511 6.69296 6.52135
#
# Compressibility (1/GPa) = 0.02256250
#
# Stress axis : x y z
#
# Youngs Moduli (GPa) = 65.44818 92.07912 150.71181
#
# Poissons Ratio (x) = 0.15597 0.30945
# Poissons Ratio (y) = 0.11086 0.20480
# Poissons Ratio (z) = 0.13438 0.12513
#
# Static dielectric constant tensor:
#      x y z
#    x 3.774130 0.000000 0.000000 
#    y 0.000000 4.280800 0.000000 
#    z 0.000000 0.000000 4.328680 
# 
# 
# High freq. dielectric constant tensor:
#      x y z
#    x 1.867990 0.000000 0.000000 
#    y 0.000000 1.888150 0.000000 
#    z 0.000000 0.000000 1.898200 
# 
# From -- ./inp_files/54137.got.cif
#   From: 2010.03.12/outbox.cif.g09.slc.cpg/sg68_28_cif.got.tgz:54137.got - 2010.04.10 23:14:56.
