data_PCOD8283129
_publ_section_title
;
Structure prediction by ZEFSAII (Michael W. Deem and Ramdas Pophale) SiO2 
 PCOD8283129
Probable space group: C C C A
;
_chemical_formula_sum "Si O2"
_cell_formula_units_Z 96
_cell_length_a 14.398196
_cell_length_b 15.765967
_cell_length_c 19.299359
_cell_angle_alpha 90.000000
_cell_angle_beta 90.000000
_cell_angle_gamma 90.000000
_cell_volume 4380.983114
_symmetry_space_group_name_H-M "C C C A"
_symmetry_group_IT_number 68
_space_group.IT_coordinate_system_code '2'
_symmetry_cell_setting 'orthorhombic'
loop_
_space_group_symop_operation_xyz
x,y,z
-x,1/2-y,z
x,1/2-y,1/2-z
-x,y,1/2-z
-x,-y,-z
x,1/2+y,-z
-x,1/2+y,1/2+z
x,-y,1/2+z
1/2+x,1/2+y,z
1/2-x,-y,z
1/2+x,-y,1/2-z
1/2-x,1/2+y,1/2-z
1/2-x,1/2-y,-z
1/2+x,y,-z
1/2-x,y,1/2+z
1/2+x,1/2-y,1/2+z
loop_
_atom_site_type_symbol
_atom_site_label
_atom_site_fract_x
_atom_site_fract_y
_atom_site_fract_z
Si Si1 0.744577 0.598231 0.651243
Si Si2 0.824668 0.936225 0.627349
Si Si3 0.952797 0.940933 0.057143
Si Si4 0.773450 0.150609 0.502372
Si Si5 0.043435 0.655861 0.320910
Si Si6 0.600123 0.846579 0.252721
O O1 0.750000 0.500000 0.672105
O O2 0.745328 0.608035 0.569190
O O3 0.655912 0.648071 0.684838
O O4 0.840934 0.636351 0.678651
O O5 0.794213 0.890446 0.557694
O O6 0.840859 0.866718 0.684987
O O7 0.750000 0.000000 0.658925
O O8 0.912875 0.992681 0.611437
O O9 0.879456 0.874329 0.022928
O O10 0.023103 0.889075 0.105639
O O11 0.000000 0.000000 0.000000
O O12 0.750000 0.250000 0.500000
O O13 0.000000 0.750000 0.325821
O O14 0.000000 0.614892 0.250000
O O15 0.575899 0.750000 0.250000
O O16 0.500000 0.895297 0.250000
#
# Coordination Sequence:
#
# PCOD8283129 Si02
#       6
#    16  16  16  16  16  16
#     4  12  26  43  72 106 142 178 241 297 352 421
#     4  10  23  43  68  95 136 182 227 279 358 414
#     4  11  24  42  70 102 140 183 237 291 354 432
#     4  11  23  43  70  99 139 186 230 291 354 420
#     4  11  27  45  71 108 145 190 240 299 362 436
#     4  11  27  45  68 100 138 183 232 284 355 426
#
# _framework density 21.912890000000001
#
# number of rings (size 3 to 8) (size 9 to 14) (size 15 to 20)
#    0.000    1.000    0.000    6.000   14.000    0.000 
#    0.000    0.000    0.000    0.000    0.000    0.000 
#    0.000    0.000    0.000    0.000    0.000    0.000 
#
# Total GULP energy -594836.761322 kJ/mol
# GULP energy per Si atom -12392.432528 kJ/mol
# Density = 2.186302 g / cm^3
# Si number density = 21.912890 Si / 1000 Ang^3
#
#
#
# Elastic Constant Matrix: (Units=GPa)
#
#
# Indices 1 2 3 4 5 6 
#
# 1 126.9217 47.2348 50.9844 0.0000 0.0000 0.0000
# 2 47.2348 115.8819 29.8164 0.0000 0.0000 0.0000
# 3 50.9844 29.8164 138.9878 0.0000 0.0000 0.0000
# 4 0.0000 0.0000 0.0000 41.8910 0.0000 0.0000
# 5 0.0000 0.0000 0.0000 0.0000 -106.8669 0.0000
# 6 0.0000 0.0000 0.0000 0.0000 0.0000 27.8994
#
#
#
# Elastic Compliance Matrix: (Units=1/GPa)
#
#
# Indices 1 2 3 4 5 6 
#
# 1 0.010397 -0.003447 -0.003074 0.000000 0.000000 0.000000
# 2 -0.003447 0.010276 -0.000940 0.000000 0.000000 0.000000
# 3 -0.003074 -0.000940 0.008524 0.000000 0.000000 0.000000
# 4 0.000000 0.000000 0.000000 0.023871 0.000000 0.000000
# 5 0.000000 0.000000 0.000000 0.000000 -0.009357 0.000000
# 6 0.000000 0.000000 0.000000 0.000000 0.000000 0.035843
#
#
# Mechanical properties :
#
#
# Convention : Reuss Voigt Hill
#
# Bulk Modulus (GPa) = 70.05393 70.87362 70.46378
# Shear Modulus (GPa) = 50.38546 9.50176 29.94361
#
# Velocity S-wave (km/s) = 4.80036 2.08460 3.70061
# Velocity P-wave (km/s) = 7.92233 6.18123 7.10531
#
# Compressibility (1/GPa) = 0.01427472
#
# Stress axis : x y z
#
# Youngs Moduli (GPa) = 96.18572 97.31119 117.31153
#
# Poissons Ratio (x) = 0.33541 0.36065
# Poissons Ratio (y) = 0.33153 0.11029
# Poissons Ratio (z) = 0.29571 0.09149
#
# Static dielectric constant tensor:
#      x y z
#    x 4.043860 0.000000 0.000000 
#    y 0.000000 4.583670 0.000000 
#    z 0.000000 0.000000 3.944090 
# 
# 
# High freq. dielectric constant tensor:
#      x y z
#    x 1.872790 0.000000 0.000000 
#    y 0.000000 1.865160 0.000000 
#    z 0.000000 0.000000 1.876340 
# 
# From -- ./inp_files/38598.got.cif
#   From: 2010.03.12/outbox.cif.g09.slc.cpg/sg68_20_cif.got.tgz:38598.got - 2010.04.10 23:14:56.
