data_PCOD8283725
_publ_section_title
;
Structure prediction by ZEFSAII (Michael W. Deem and Ramdas Pophale) SiO2 
 PCOD8283725
Probable space group: C C C A
;
_chemical_formula_sum "Si O2"
_cell_formula_units_Z 108
_cell_length_a 23.009608
_cell_length_b 13.906549
_cell_length_c 14.361483
_cell_angle_alpha 90.000000
_cell_angle_beta 90.000000
_cell_angle_gamma 90.000000
_cell_volume 4595.448239
_symmetry_space_group_name_H-M "C C C A"
_symmetry_group_IT_number 68
_space_group.IT_coordinate_system_code '2'
_symmetry_cell_setting 'orthorhombic'
loop_
_space_group_symop_operation_xyz
x,y,z
-x,1/2-y,z
x,1/2-y,1/2-z
-x,y,1/2-z
-x,-y,-z
x,1/2+y,-z
-x,1/2+y,1/2+z
x,-y,1/2+z
1/2+x,1/2+y,z
1/2-x,-y,z
1/2+x,-y,1/2-z
1/2-x,1/2+y,1/2-z
1/2-x,1/2-y,-z
1/2+x,y,-z
1/2-x,y,1/2+z
1/2+x,1/2-y,1/2+z
loop_
_atom_site_type_symbol
_atom_site_label
_atom_site_fract_x
_atom_site_fract_y
_atom_site_fract_z
Si Si1 0.340034 0.750000 0.750000
Si Si2 0.872560 0.080247 0.514617
Si Si3 0.361254 0.888292 0.383344
Si Si4 0.917051 0.909690 0.810340
Si Si5 0.943824 0.376594 0.696843
Si Si6 0.235118 0.177630 0.919117
Si Si7 0.562967 0.234804 0.489648
Si Si8 0.500000 0.750000 0.250000
O O1 0.382173 0.842949 0.740891
O O2 0.297828 0.764106 0.837866
O O3 0.879721 0.079849 0.403721
O O4 0.805487 0.095667 0.538407
O O5 0.912784 0.166065 0.556112
O O6 0.888866 0.979814 0.563129
O O7 0.374033 0.891038 0.274650
O O8 0.292273 0.877617 0.385956
O O9 0.392137 0.796402 0.430001
O O10 0.962101 0.820575 0.816494
O O11 0.950738 0.009160 0.796534
O O12 0.944095 0.344301 0.590046
O O13 0.000000 0.332129 0.750000
O O14 0.250000 0.250000 0.000000
O O15 0.500000 0.250000 0.535677
#
# Coordination Sequence:
#
# PCOD8283725 Si02
#       8
#     8  16  16  16  16  16  16   4
#     4  12  25  47  82 114 154 202 264 322 388 460
#     4  12  27  52  76 111 157 205 261 318 391 460
#     4  12  28  52  77 115 153 205 266 315 395 461
#     4  12  29  48  80 114 157 204 250 323 383 473
#     4  12  25  49  77 119 155 201 257 315 388 463
#     4  12  27  49  79 111 151 205 261 325 381 461
#     4  12  27  47  78 113 154 203 253 323 382 466
#     4  12  28  50  72 122 154 202 260 292 402 474
#
# _framework density 23.501515000000001
#
# number of rings (size 3 to 8) (size 9 to 14) (size 15 to 20)
#    0.000    0.000    5.185    3.333    8.296    0.593 
#    0.000    1.481    0.000    0.000    0.000    0.000 
#    0.000    0.000    0.000    0.000    0.000    0.000 
#
# Total GULP energy -669737.705382 kJ/mol
# GULP energy per Si atom -12402.550100 kJ/mol
# Density = 2.344802 g / cm^3
# Si number density = 23.501515 Si / 1000 Ang^3
#
#
#
# Elastic Constant Matrix: (Units=GPa)
#
#
# Indices 1 2 3 4 5 6 
#
# 1 169.3119 47.9596 58.4837 0.0000 0.0000 0.0000
# 2 47.9596 132.9786 21.6148 0.0000 0.0000 0.0000
# 3 58.4837 21.6148 139.7651 0.0000 0.0000 0.0000
# 4 0.0000 0.0000 0.0000 33.7694 0.0000 0.0000
# 5 0.0000 0.0000 0.0000 0.0000 24.0664 0.0000
# 6 0.0000 0.0000 0.0000 0.0000 0.0000 34.5112
#
#
#
# Elastic Compliance Matrix: (Units=1/GPa)
#
#
# Indices 1 2 3 4 5 6 
#
# 1 0.007510 -0.002254 -0.002794 0.000000 0.000000 0.000000
# 2 -0.002254 0.008391 -0.000354 0.000000 0.000000 0.000000
# 3 -0.002794 -0.000354 0.008379 0.000000 0.000000 0.000000
# 4 0.000000 0.000000 0.000000 0.029613 0.000000 0.000000
# 5 0.000000 0.000000 0.000000 0.000000 0.041552 0.000000
# 6 0.000000 0.000000 0.000000 0.000000 0.000000 0.028976
#
#
# Mechanical properties :
#
#
# Convention : Reuss Voigt Hill
#
# Bulk Modulus (GPa) = 74.21552 77.57464 75.89508
# Shear Modulus (GPa) = 35.78688 39.40258 37.59473
#
# Velocity S-wave (km/s) = 3.90647 4.09907 4.00393
# Velocity P-wave (km/s) = 7.21075 7.44870 7.33069
#
# Compressibility (1/GPa) = 0.01347427
#
# Stress axis : x y z
#
# Youngs Moduli (GPa) = 133.15805 119.18030 119.35025
#
# Poissons Ratio (x) = 0.26868 0.33344
# Poissons Ratio (y) = 0.30019 0.04229
# Poissons Ratio (z) = 0.37202 0.04223
#
# Static dielectric constant tensor:
#      x y z
#    x 4.468700 0.000000 0.000000 
#    y 0.000000 4.016010 0.000000 
#    z 0.000000 0.000000 4.301360 
# 
# 
# High freq. dielectric constant tensor:
#      x y z
#    x 1.933780 0.000000 0.000000 
#    y 0.000000 1.941600 0.000000 
#    z 0.000000 0.000000 1.945750 
# 
# From -- ./inp_files/25517.got.cif
#   From: 2010.03.12/outbox.cif.g09.slc.cpg/sg68_13_cif.got.tgz:25517.got - 2010.04.10 23:14:56.
