data_PCOD8283218
_publ_section_title
;
Structure prediction by ZEFSAII (Michael W. Deem and Ramdas Pophale) SiO2 
 PCOD8283218
Probable space group: C C C A
;
_chemical_formula_sum "Si O2"
_cell_formula_units_Z 88
_cell_length_a 23.197209
_cell_length_b 14.396594
_cell_length_c 12.071501
_cell_angle_alpha 90.000000
_cell_angle_beta 90.000000
_cell_angle_gamma 90.000000
_cell_volume 4031.408130
_symmetry_space_group_name_H-M "C C C A"
_symmetry_group_IT_number 68
_space_group.IT_coordinate_system_code '2'
_symmetry_cell_setting 'orthorhombic'
loop_
_space_group_symop_operation_xyz
x,y,z
-x,1/2-y,z
x,1/2-y,1/2-z
-x,y,1/2-z
-x,-y,-z
x,1/2+y,-z
-x,1/2+y,1/2+z
x,-y,1/2+z
1/2+x,1/2+y,z
1/2-x,-y,z
1/2+x,-y,1/2-z
1/2-x,1/2+y,1/2-z
1/2-x,1/2-y,-z
1/2+x,y,-z
1/2-x,y,1/2+z
1/2+x,1/2-y,1/2+z
loop_
_atom_site_type_symbol
_atom_site_label
_atom_site_fract_x
_atom_site_fract_y
_atom_site_fract_z
Si Si1 0.630975 0.638233 0.465654
Si Si2 0.640136 0.666414 0.946262
Si Si3 0.749009 0.606259 0.576802
Si Si4 0.795212 0.750000 0.250000
Si Si5 0.433792 0.859834 0.245026
Si Si6 0.434883 0.974819 0.030151
O O1 0.613011 0.743295 0.493041
O O2 0.699474 0.624844 0.483870
O O3 0.607464 0.605419 0.344970
O O4 0.598284 0.570975 0.551766
O O5 0.662843 0.689771 0.825455
O O6 0.691199 0.625843 0.019696
O O7 0.591422 0.586914 0.929535
O O8 0.750000 0.500000 0.619708
O O9 0.743478 0.678239 0.679205
O O10 0.428243 0.750000 0.250000
O O11 0.500000 0.892059 0.250000
O O12 0.415759 0.908179 0.131591
O O13 0.500000 0.000000 0.000000
#
# Coordination Sequence:
#
# PCOD8283218 Si02
#       6
#    16  16  16   8  16  16
#     4  11  23  44  70 100 145 177 233 298 352 417
#     4  11  25  47  68 103 147 182 238 296 352 427
#     4  11  24  47  71 107 139 187 238 294 353 434
#     4  10  24  44  70 103 144 183 230 292 374 418
#     4  11  23  43  73 100 133 192 245 290 353 419
#     4  12  25  43  71 106 142 180 242 296 352 422
#
# _framework density 21.828600999999999
#
# number of rings (size 3 to 8) (size 9 to 14) (size 15 to 20)
#    0.000    0.909    5.455    2.182    0.000    7.273 
#    4.909    0.000    0.000    4.364    0.000    0.000 
#    0.000    0.000    0.000    0.000    0.000    0.000 
#
# Total GULP energy -545269.515981 kJ/mol
# GULP energy per Si atom -12392.489000 kJ/mol
# Density = 2.177892 g / cm^3
# Si number density = 21.828601 Si / 1000 Ang^3
#
#
#
# Elastic Constant Matrix: (Units=GPa)
#
#
# Indices 1 2 3 4 5 6 
#
# 1 118.5641 69.2045 38.9486 0.0000 0.0000 0.0000
# 2 69.2045 161.6305 40.8976 0.0000 0.0000 0.0000
# 3 38.9486 40.8976 107.1142 0.0000 0.0000 0.0000
# 4 0.0000 0.0000 0.0000 31.5709 0.0000 0.0000
# 5 0.0000 0.0000 0.0000 0.0000 299.3992 0.0000
# 6 0.0000 0.0000 0.0000 0.0000 0.0000 59.7951
#
#
#
# Elastic Compliance Matrix: (Units=1/GPa)
#
#
# Indices 1 2 3 4 5 6 
#
# 1 0.011879 -0.004420 -0.002632 0.000000 0.000000 0.000000
# 2 -0.004420 0.008493 -0.001636 0.000000 0.000000 0.000000
# 3 -0.002632 -0.001636 0.010917 0.000000 0.000000 0.000000
# 4 0.000000 0.000000 0.000000 0.031675 0.000000 0.000000
# 5 0.000000 0.000000 0.000000 0.000000 0.003340 0.000000
# 6 0.000000 0.000000 0.000000 0.000000 0.000000 0.016724
#
#
# Mechanical properties :
#
#
# Convention : Reuss Voigt Hill
#
# Bulk Modulus (GPa) = 71.86754 76.15669 74.01211
# Shear Modulus (GPa) = 47.60046 94.03691 70.81868
#
# Velocity S-wave (km/s) = 4.67481 6.57063 5.70206
# Velocity P-wave (km/s) = 7.88248 9.61917 8.79380
#
# Compressibility (1/GPa) = 0.01391449
#
# Stress axis : x y z
#
# Youngs Moduli (GPa) = 84.18378 117.73867 91.59814
#
# Poissons Ratio (x) = 0.52043 0.24105
# Poissons Ratio (y) = 0.37211 0.14982
# Poissons Ratio (z) = 0.22154 0.19258
#
# Static dielectric constant tensor:
#      x y z
#    x 4.034510 0.000000 0.000000 
#    y 0.000000 4.432650 0.000000 
#    z 0.000000 0.000000 4.247300 
# 
# 
# High freq. dielectric constant tensor:
#      x y z
#    x 1.861630 0.000000 0.000000 
#    y 0.000000 1.882920 0.000000 
#    z 0.000000 0.000000 1.842320 
# 
# From -- ./inp_files/16331.got.cif
#   From: 2010.03.12/outbox.cif.g09.slc.cpg/sg68_9_cif.got.tgz:16331.got - 2010.04.10 23:14:56.
