data_PCOD8283008
_publ_section_title
;
Structure prediction by ZEFSAII (Michael W. Deem and Ramdas Pophale) SiO2 
 PCOD8283008
Probable space group: C C C A
;
_chemical_formula_sum "Si O2"
_cell_formula_units_Z 120
_cell_length_a 20.488887
_cell_length_b 22.283760
_cell_length_c 12.472041
_cell_angle_alpha 90.000000
_cell_angle_beta 90.000000
_cell_angle_gamma 90.000000
_cell_volume 5694.352782
_symmetry_space_group_name_H-M "C C C A"
_symmetry_group_IT_number 68
_space_group.IT_coordinate_system_code '2'
_symmetry_cell_setting 'orthorhombic'
loop_
_space_group_symop_operation_xyz
x,y,z
-x,1/2-y,z
x,1/2-y,1/2-z
-x,y,1/2-z
-x,-y,-z
x,1/2+y,-z
-x,1/2+y,1/2+z
x,-y,1/2+z
1/2+x,1/2+y,z
1/2-x,-y,z
1/2+x,-y,1/2-z
1/2-x,1/2+y,1/2-z
1/2-x,1/2-y,-z
1/2+x,y,-z
1/2-x,y,1/2+z
1/2+x,1/2-y,1/2+z
loop_
_atom_site_type_symbol
_atom_site_label
_atom_site_fract_x
_atom_site_fract_y
_atom_site_fract_z
Si Si1 0.445505 0.650904 0.841516
Si Si2 0.682842 0.884484 0.332831
Si Si3 0.693016 0.321703 0.251132
Si Si4 0.208758 0.087725 0.931046
Si Si5 0.470330 0.562857 0.030337
Si Si6 0.664061 0.036105 0.636699
Si Si7 0.546025 0.839256 0.347570
Si Si8 0.000000 0.750000 0.484592
O O1 0.500000 0.646971 0.750000
O O2 0.374077 0.650997 0.791748
O O3 0.452577 0.711540 0.909763
O O4 0.452455 0.594371 0.919091
O O5 0.747170 0.843853 0.322133
O O6 0.676117 0.907404 0.453538
O O7 0.683436 0.942396 0.256029
O O8 0.619533 0.844586 0.303984
O O9 0.691509 0.250000 0.250000
O O10 0.702763 0.348412 0.370603
O O11 0.284342 0.067921 0.943738
O O12 0.169868 0.035967 0.865959
O O13 0.407503 0.556761 0.105303
O O14 0.522727 0.598092 0.101605
O O15 0.500000 0.500000 0.000000
O O16 0.500000 0.818627 0.250000
O O17 0.546380 0.790118 0.441291
#
# Coordination Sequence:
#
# PCOD8283008 Si02
#       8
#    16  16  16  16  16  16  16   8
#     4  11  25  44  68  96 139 174 223 280 340 401
#     4  11  24  44  68  98 136 175 226 284 335 399
#     4  11  26  44  67 100 134 178 231 280 337 404
#     4  10  24  41  70  97 136 180 224 273 346 403
#     4  11  24  41  66 100 135 176 226 280 338 406
#     4  10  22  44  65  98 139 176 223 274 340 408
#     4  11  23  42  66  96 132 174 228 278 337 398
#     4  10  24  42  68  92 130 184 220 276 334 402
#
# _framework density 21.073509999999999
#
# number of rings (size 3 to 8) (size 9 to 14) (size 15 to 20)
#    0.000    1.333    1.333    2.800    7.467    8.533 
#    2.400    0.000    0.000    0.000    0.000    0.000 
#    0.000    0.000    0.000    0.000    0.000    0.000 
#
# Total GULP energy -744258.045758 kJ/mol
# GULP energy per Si atom -12404.300763 kJ/mol
# Density = 2.102555 g / cm^3
# Si number density = 21.073510 Si / 1000 Ang^3
#
#
#
# Elastic Constant Matrix: (Units=GPa)
#
#
# Indices 1 2 3 4 5 6 
#
# 1 149.7529 38.7475 33.8787 0.0000 0.0000 0.0000
# 2 38.7475 126.6614 44.8740 0.0000 0.0000 0.0000
# 3 33.8787 44.8740 103.8217 0.0000 0.0000 0.0000
# 4 0.0000 0.0000 0.0000 11.6878 0.0000 0.0000
# 5 0.0000 0.0000 0.0000 0.0000 25.8252 0.0000
# 6 0.0000 0.0000 0.0000 0.0000 0.0000 21.0085
#
#
#
# Elastic Compliance Matrix: (Units=1/GPa)
#
#
# Indices 1 2 3 4 5 6 
#
# 1 0.007503 -0.001686 -0.001720 0.000000 0.000000 0.000000
# 2 -0.001686 0.009702 -0.003643 0.000000 0.000000 0.000000
# 3 -0.001720 -0.003643 0.011768 0.000000 0.000000 0.000000
# 4 0.000000 0.000000 0.000000 0.085559 0.000000 0.000000
# 5 0.000000 0.000000 0.000000 0.000000 0.038722 0.000000
# 6 0.000000 0.000000 0.000000 0.000000 0.000000 0.047600
#
#
# Mechanical properties :
#
#
# Convention : Reuss Voigt Hill
#
# Bulk Modulus (GPa) = 67.22790 68.35960 67.79375
# Shear Modulus (GPa) = 22.73672 29.22002 25.97837
#
# Velocity S-wave (km/s) = 3.28826 3.72772 3.51486
# Velocity P-wave (km/s) = 6.81086 7.14401 6.97942
#
# Compressibility (1/GPa) = 0.01487478
#
# Stress axis : x y z
#
# Youngs Moduli (GPa) = 133.28111 103.07678 84.97897
#
# Poissons Ratio (x) = 0.17379 0.14613
# Poissons Ratio (y) = 0.22472 0.30958
# Poissons Ratio (z) = 0.22919 0.37551
#
# Static dielectric constant tensor:
#      x y z
#    x 3.691690 0.000000 0.000000 
#    y 0.000000 3.794100 0.000000 
#    z 0.000000 0.000000 3.902070 
# 
# 
# High freq. dielectric constant tensor:
#      x y z
#    x 1.836860 0.000000 0.000000 
#    y 0.000000 1.828280 0.000000 
#    z 0.000000 0.000000 1.830940 
# 
# From -- ./inp_files/15810.got.cif
#   From: 2010.03.12/outbox.cif.g09.slc.cpg/sg68_8_cif.got.tgz:15810.got - 2010.04.10 23:14:56.
