data_PCOD8283976
_publ_section_title
;
Structure prediction by ZEFSAII (Michael W. Deem and Ramdas Pophale) SiO2 
 PCOD8283976
Probable space group: F M M M
;
_chemical_formula_sum "Si O2"
_cell_formula_units_Z 136
_cell_length_a 15.219217
_cell_length_b 18.583151
_cell_length_c 24.221430
_cell_angle_alpha 90.000000
_cell_angle_beta 90.000000
_cell_angle_gamma 90.000000
_cell_volume 6850.329238
_symmetry_space_group_name_H-M "F M M M"
_symmetry_group_IT_number 69
_symmetry_cell_setting 'orthorhombic'
loop_
_space_group_symop_operation_xyz
x,y,z
-x,-y,z
x,-y,-z
-x,y,-z
-x,-y,-z
x,y,-z
-x,y,z
x,-y,z
x,1/2+y,1/2+z
-x,1/2-y,1/2+z
x,1/2-y,1/2-z
-x,1/2+y,1/2-z
-x,1/2-y,1/2-z
x,1/2+y,1/2-z
-x,1/2+y,1/2+z
x,1/2-y,1/2+z
1/2+x,y,1/2+z
1/2-x,-y,1/2+z
1/2+x,-y,1/2-z
1/2-x,y,1/2-z
1/2-x,-y,1/2-z
1/2+x,y,1/2-z
1/2-x,y,1/2+z
1/2+x,-y,1/2+z
1/2+x,1/2+y,z
1/2-x,1/2-y,z
1/2+x,1/2-y,-z
1/2-x,1/2+y,-z
1/2-x,1/2-y,-z
1/2+x,1/2+y,-z
1/2-x,1/2+y,z
1/2+x,1/2-y,z
loop_
_atom_site_type_symbol
_atom_site_label
_atom_site_fract_x
_atom_site_fract_y
_atom_site_fract_z
Si Si1 0.500000 0.264643 0.500000
Si Si2 0.904375 0.582101 0.112125
Si Si3 0.838924 0.585276 0.226169
Si Si4 0.664171 0.628932 0.500000
Si Si5 0.352237 0.082606 0.500000
Si Si6 0.000000 0.915504 0.802692
Si Si7 0.500000 0.365868 0.076222
O O1 0.405916 0.305918 0.500000
O O2 0.500000 0.216343 0.555155
O O3 0.919691 0.500000 0.128419
O O4 0.855541 0.617997 0.164679
O O5 0.850246 0.584463 0.055836
O O6 0.000000 0.619238 0.103033
O O7 0.829128 0.500000 0.222653
O O8 0.750000 0.620123 0.250000
O O9 0.916375 0.607301 0.267098
O O10 0.770330 0.640217 0.500000
O O11 0.412124 0.095042 0.554008
O O12 0.317582 0.000000 0.500000
O O13 0.000000 0.868478 0.858035
O O14 0.000000 0.000000 0.817535
#
# Coordination Sequence:
#
# PCOD8283976 Si02
#       7
#     8  32  32  16  16  16  16
#     4  10  24  44  56  80 114 160 214 234 290 324
#     4  10  18  31  49  80 117 147 177 228 298 354
#     4   9  18  30  49  79 117 147 176 223 290 363
#     4  12  22  35  59  83 113 154 196 245 286 348
#     4  10  21  37  58  90 115 140 184 247 308 347
#     4  10  18  33  56  82 110 149 187 232 293 344
#     4  10  23  40  59  77 117 160 198 243 270 347
#
# _framework density 19.853059999999999
#
# number of rings (size 3 to 8) (size 9 to 14) (size 15 to 20)
#    0.000    2.118    2.353    2.471    3.294    2.824 
#    0.000    0.000    0.000    2.824    0.000    1.647 
#    0.000    0.000    0.000    0.000    0.000    0.000 
#
# Total GULP energy -421271.550392 kJ/mol
# GULP energy per Si atom -12390.339717 kJ/mol
# Density = 1.980787 g / cm^3
# Si number density = 19.853060 Si / 1000 Ang^3
#
#
#
# Elastic Constant Matrix: (Units=GPa)
#
#
# Indices 1 2 3 4 5 6 
#
# 1 181.7800 24.4767 79.8302 0.0000 0.0000 0.0000
# 2 24.4767 48.4276 11.6405 0.0000 0.0000 0.0000
# 3 79.8302 11.6405 196.9118 0.0000 0.0000 0.0000
# 4 0.0000 0.0000 0.0000 10.0191 0.0000 0.0000
# 5 0.0000 0.0000 0.0000 0.0000 17.4175 0.0000
# 6 0.0000 0.0000 0.0000 0.0000 0.0000 14.6400
#
#
#
# Elastic Compliance Matrix: (Units=1/GPa)
#
#
# Indices 1 2 3 4 5 6 
#
# 1 0.007080 -0.002930 -0.002697 0.000000 0.000000 0.000000
# 2 -0.002930 0.022160 -0.000122 0.000000 0.000000 0.000000
# 3 -0.002697 -0.000122 0.006179 0.000000 0.000000 0.000000
# 4 0.000000 0.000000 0.000000 0.099809 0.000000 0.000000
# 5 0.000000 0.000000 0.000000 0.000000 0.057414 0.000000
# 6 0.000000 0.000000 0.000000 0.000000 0.000000 0.068306
#
#
# Mechanical properties :
#
#
# Convention : Reuss Voigt Hill
#
# Bulk Modulus (GPa) = 41.80573 73.22379 57.51476
# Shear Modulus (GPa) = 17.83041 29.16013 23.49527
#
# Velocity S-wave (km/s) = 3.00011 3.83665 3.44388
# Velocity P-wave (km/s) = 5.75363 7.52259 6.69678
#
# Compressibility (1/GPa) = 0.02392016
#
# Stress axis : x y z
#
# Youngs Moduli (GPa) = 141.23913 45.12695 161.83610
#
# Poissons Ratio (x) = 0.13223 0.43650
# Poissons Ratio (y) = 0.41386 0.01975
# Poissons Ratio (z) = 0.38095 0.00551
#
# Static dielectric constant tensor:
#      x y z
#    x 3.922600 0.000000 0.000000 
#    y 0.000000 2.995620 0.000000 
#    z 0.000000 0.000000 3.669020 
# 
# 
# High freq. dielectric constant tensor:
#      x y z
#    x 1.790340 0.000000 0.000000 
#    y 0.000000 1.706800 0.000000 
#    z 0.000000 0.000000 1.787350 
# 
# From -- ./inp_files/35810.got.cif
#   From: 2010.03.12/outbox.cif.g09.slc.cpg/sg69_18_cif.got.tgz:35810.got - 2010.04.10 23:52:46.
