data_PCOD8283251
_publ_section_title
;
Structure prediction by ZEFSAII (Michael W. Deem and Ramdas Pophale) SiO2 
 PCOD8283251
Probable space group: C C C A
;
_chemical_formula_sum "Si O2"
_cell_formula_units_Z 88
_cell_length_a 20.193594
_cell_length_b 22.673366
_cell_length_c 8.845053
_cell_angle_alpha 90.000000
_cell_angle_beta 90.000000
_cell_angle_gamma 90.000000
_cell_volume 4049.767199
_symmetry_space_group_name_H-M "C C C A"
_symmetry_group_IT_number 68
_space_group.IT_coordinate_system_code '2'
_symmetry_cell_setting 'orthorhombic'
loop_
_space_group_symop_operation_xyz
x,y,z
-x,1/2-y,z
x,1/2-y,1/2-z
-x,y,1/2-z
-x,-y,-z
x,1/2+y,-z
-x,1/2+y,1/2+z
x,-y,1/2+z
1/2+x,1/2+y,z
1/2-x,-y,z
1/2+x,-y,1/2-z
1/2-x,1/2+y,1/2-z
1/2-x,1/2-y,-z
1/2+x,y,-z
1/2-x,y,1/2+z
1/2+x,1/2-y,1/2+z
loop_
_atom_site_type_symbol
_atom_site_label
_atom_site_fract_x
_atom_site_fract_y
_atom_site_fract_z
Si Si1 0.393922 0.065309 0.155314
Si Si2 0.568523 0.039704 0.669605
Si Si3 0.500000 0.750000 0.004848
Si Si4 0.500000 0.844221 0.750000
Si Si5 0.759222 0.570074 0.996824
Si Si6 0.670539 0.374544 0.724666
Si Si7 0.387957 0.250000 0.750000
O O1 0.433466 0.118040 0.233413
O O2 0.321690 0.085557 0.103666
O O3 0.383609 0.013893 0.279614
O O4 0.436573 0.041387 0.011543
O O5 0.500000 0.027213 0.750000
O O6 0.598240 0.100582 0.732702
O O7 0.489372 0.806835 0.901174
O O8 0.565778 0.759018 0.104072
O O9 0.750000 0.500000 0.978869
O O10 0.693496 0.601718 0.060791
O O11 0.773321 0.600662 0.837135
O O12 0.662439 0.304347 0.727740
#
# Coordination Sequence:
#
# PCOD8283251 Si02
#       7
#    16  16   8   8  16  16   8
#     4  11  24  38  65 100 141 173 226 273 346 410
#     4  11  23  39  62 102 136 175 218 282 341 407
#     4  10  24  46  72  92 140 176 230 280 350 416
#     4  11  24  44  66 104 136 181 220 294 346 407
#     4  11  23  44  66 101 139 184 228 279 347 417
#     4  11  26  42  69  96 137 183 229 282 337 406
#     4  11  26  48  70 102 124 185 240 282 338 415
#
# _framework density 21.729645000000001
#
# number of rings (size 3 to 8) (size 9 to 14) (size 15 to 20)
#    0.000    1.091    2.727    3.273    7.636    2.182 
#    0.000    1.818    0.000    0.000    0.000    0.000 
#    0.000    0.000    0.000    0.000    0.000    0.000 
#
# Total GULP energy -545716.714185 kJ/mol
# GULP energy per Si atom -12402.652595 kJ/mol
# Density = 2.168019 g / cm^3
# Si number density = 21.729645 Si / 1000 Ang^3
#
#
#
# Elastic Constant Matrix: (Units=GPa)
#
#
# Indices 1 2 3 4 5 6 
#
# 1 56.3516 22.7884 27.9414 0.0000 0.0000 0.0000
# 2 22.7884 137.1695 37.7670 0.0000 0.0000 0.0000
# 3 27.9414 37.7670 98.6226 0.0000 0.0000 0.0000
# 4 0.0000 0.0000 0.0000 25.7849 0.0000 0.0000
# 5 0.0000 0.0000 0.0000 0.0000 34.3064 0.0000
# 6 0.0000 0.0000 0.0000 0.0000 0.0000 32.0967
#
#
#
# Elastic Compliance Matrix: (Units=1/GPa)
#
#
# Indices 1 2 3 4 5 6 
#
# 1 0.021167 -0.002085 -0.005198 0.000000 0.000000 0.000000
# 2 -0.002085 0.008355 -0.002609 0.000000 0.000000 0.000000
# 3 -0.005198 -0.002609 0.012611 0.000000 0.000000 0.000000
# 4 0.000000 0.000000 0.000000 0.038782 0.000000 0.000000
# 5 0.000000 0.000000 0.000000 0.000000 0.029149 0.000000
# 6 0.000000 0.000000 0.000000 0.000000 0.000000 0.031156
#
#
# Mechanical properties :
#
#
# Convention : Reuss Voigt Hill
#
# Bulk Modulus (GPa) = 44.74586 52.12637 48.43612
# Shear Modulus (GPa) = 29.68168 32.01406 30.84787
#
# Velocity S-wave (km/s) = 3.69989 3.84251 3.77187
# Velocity P-wave (km/s) = 6.23611 6.61265 6.42714
#
# Compressibility (1/GPa) = 0.02234844
#
# Stress axis : x y z
#
# Youngs Moduli (GPa) = 47.24442 119.68979 79.29320
#
# Poissons Ratio (x) = 0.24958 0.41219
# Poissons Ratio (y) = 0.09851 0.20685
# Poissons Ratio (z) = 0.24559 0.31224
#
# Static dielectric constant tensor:
#      x y z
#    x 3.809470 0.000000 0.000000 
#    y 0.000000 3.870410 0.000000 
#    z 0.000000 0.000000 4.203180 
# 
# 
# High freq. dielectric constant tensor:
#      x y z
#    x 1.851350 0.000000 0.000000 
#    y 0.000000 1.847870 0.000000 
#    z 0.000000 0.000000 1.868590 
# 
# From -- ./inp_files/7173.got.cif
#   From: 2010.03.12/outbox.cif.g09.slc.cpg/sg68_4_cif.got.tgz:7173.got - 2010.04.10 23:14:56.
