data_PCOD8283036
_publ_section_title
;
Structure prediction by ZEFSAII (Michael W. Deem and Ramdas Pophale) SiO2 
 PCOD8283036
Probable space group: C C C A
;
_chemical_formula_sum "Si O2"
_cell_formula_units_Z 80
_cell_length_a 14.618047
_cell_length_b 23.682341
_cell_length_c 10.866383
_cell_angle_alpha 90.000000
_cell_angle_beta 90.000000
_cell_angle_gamma 90.000000
_cell_volume 3761.828500
_symmetry_space_group_name_H-M "C C C A"
_symmetry_group_IT_number 68
_space_group.IT_coordinate_system_code '2'
_symmetry_cell_setting 'orthorhombic'
loop_
_space_group_symop_operation_xyz
x,y,z
-x,1/2-y,z
x,1/2-y,1/2-z
-x,y,1/2-z
-x,-y,-z
x,1/2+y,-z
-x,1/2+y,1/2+z
x,-y,1/2+z
1/2+x,1/2+y,z
1/2-x,-y,z
1/2+x,-y,1/2-z
1/2-x,1/2+y,1/2-z
1/2-x,1/2-y,-z
1/2+x,y,-z
1/2-x,y,1/2+z
1/2+x,1/2-y,1/2+z
loop_
_atom_site_type_symbol
_atom_site_label
_atom_site_fract_x
_atom_site_fract_y
_atom_site_fract_z
Si Si1 0.606669 0.685684 0.231215
Si Si2 0.873047 0.102735 0.467080
Si Si3 0.323340 0.398616 0.570681
Si Si4 0.353646 0.485556 0.761048
Si Si5 0.457342 0.908254 0.636706
O O1 0.636712 0.750000 0.250000
O O2 0.500000 0.676361 0.250000
O O3 0.627419 0.666364 0.089870
O O4 0.663763 0.651261 0.332514
O O5 0.784686 0.093406 0.551336
O O6 0.881384 0.065148 0.347522
O O7 0.960703 0.083166 0.542720
O O8 0.360966 0.459297 0.622003
O O9 0.372437 0.383018 0.440636
O O10 0.250000 0.500000 0.793991
O O11 0.421860 0.536894 0.787045
O O12 0.500000 0.870050 0.750000
#
# Coordination Sequence:
#
# PCOD8283036 Si02
#       5
#    16  16  16  16  16
#     4  10  22  45  75  96 120 169 224 280 344 398
#     4  11  24  42  65  95 131 172 218 274 321 390
#     4  11  25  43  62  96 134 166 225 269 319 397
#     4  11  24  38  60  92 130 178 212 255 310 384
#     4  12  26  38  61  93 131 176 214 260 320 375
#
# _framework density 21.266255000000001
#
# number of rings (size 3 to 8) (size 9 to 14) (size 15 to 20)
#    0.000    1.000    4.000    1.800   11.200    0.800 
#    0.000    0.000    0.000    1.200    0.000    0.000 
#    0.000    0.000    0.000    0.000    0.000    0.000 
#
# Total GULP energy -495613.456609 kJ/mol
# GULP energy per Si atom -12390.336415 kJ/mol
# Density = 2.121785 g / cm^3
# Si number density = 21.266255 Si / 1000 Ang^3
#
#
#
# Elastic Constant Matrix: (Units=GPa)
#
#
# Indices 1 2 3 4 5 6 
#
# 1 101.9240 11.7506 20.1693 0.0000 0.0000 0.0000
# 2 11.7506 66.4173 34.7346 0.0000 0.0000 0.0000
# 3 20.1693 34.7346 88.7024 0.0000 0.0000 0.0000
# 4 0.0000 0.0000 0.0000 32.4976 0.0000 0.0000
# 5 0.0000 0.0000 0.0000 0.0000 40.4608 0.0000
# 6 0.0000 0.0000 0.0000 0.0000 0.0000 19.9733
#
#
#
# Elastic Compliance Matrix: (Units=1/GPa)
#
#
# Indices 1 2 3 4 5 6 
#
# 1 0.010303 -0.000752 -0.002048 0.000000 0.000000 0.000000
# 2 -0.000752 0.018989 -0.007265 0.000000 0.000000 0.000000
# 3 -0.002048 -0.007265 0.014584 0.000000 0.000000 0.000000
# 4 0.000000 0.000000 0.000000 0.030771 0.000000 0.000000
# 5 0.000000 0.000000 0.000000 0.000000 0.024715 0.000000
# 6 0.000000 0.000000 0.000000 0.000000 0.000000 0.050067
#
#
# Mechanical properties :
#
#
# Convention : Reuss Voigt Hill
#
# Bulk Modulus (GPa) = 42.11157 43.37252 42.74204
# Shear Modulus (GPa) = 28.17300 31.27894 29.72597
#
# Velocity S-wave (km/s) = 3.64369 3.83929 3.74277
# Velocity P-wave (km/s) = 6.12757 6.33189 6.23057
#
# Compressibility (1/GPa) = 0.02374644
#
# Stress axis : x y z
#
# Youngs Moduli (GPa) = 97.05681 52.66321 68.56726
#
# Poissons Ratio (x) = 0.03958 0.14046
# Poissons Ratio (y) = 0.07295 0.49813
# Poissons Ratio (z) = 0.19882 0.38259
#
# Static dielectric constant tensor:
#      x y z
#    x 3.994080 0.000000 0.000000 
#    y 0.000000 3.668230 0.000000 
#    z 0.000000 0.000000 4.299300 
# 
# 
# High freq. dielectric constant tensor:
#      x y z
#    x 1.854700 0.000000 0.000000 
#    y 0.000000 1.785970 0.000000 
#    z 0.000000 0.000000 1.855470 
# 
# From -- ./inp_files/13223.got.cif
#   From: 2010.03.12/outbox.cif.g09.slc.cpg/sg68_7_cif.got.tgz:13223.got - 2010.04.10 23:14:56.
