data_PCOD8283831
_publ_section_title
;
Structure prediction by ZEFSAII (Michael W. Deem and Ramdas Pophale) SiO2 
 PCOD8283831
Probable space group: F M M M
;
_chemical_formula_sum "Si O2"
_cell_formula_units_Z 192
_cell_length_a 28.185556
_cell_length_b 21.081452
_cell_length_c 19.087546
_cell_angle_alpha 90.000000
_cell_angle_beta 90.000000
_cell_angle_gamma 90.000000
_cell_volume 11341.675644
_symmetry_space_group_name_H-M "F M M M"
_symmetry_group_IT_number 69
_symmetry_cell_setting 'orthorhombic'
loop_
_space_group_symop_operation_xyz
x,y,z
-x,-y,z
x,-y,-z
-x,y,-z
-x,-y,-z
x,y,-z
-x,y,z
x,-y,z
x,1/2+y,1/2+z
-x,1/2-y,1/2+z
x,1/2-y,1/2-z
-x,1/2+y,1/2-z
-x,1/2-y,1/2-z
x,1/2+y,1/2-z
-x,1/2+y,1/2+z
x,1/2-y,1/2+z
1/2+x,y,1/2+z
1/2-x,-y,1/2+z
1/2+x,-y,1/2-z
1/2-x,y,1/2-z
1/2-x,-y,1/2-z
1/2+x,y,1/2-z
1/2-x,y,1/2+z
1/2+x,-y,1/2+z
1/2+x,1/2+y,z
1/2-x,1/2-y,z
1/2+x,1/2-y,-z
1/2-x,1/2+y,-z
1/2-x,1/2-y,-z
1/2+x,1/2+y,-z
1/2-x,1/2+y,z
1/2+x,1/2-y,z
loop_
_atom_site_type_symbol
_atom_site_label
_atom_site_fract_x
_atom_site_fract_y
_atom_site_fract_z
Si Si1 0.380579 0.756300 0.578105
Si Si2 0.717866 0.309758 0.578243
Si Si3 0.129375 0.816962 0.781729
Si Si4 0.445543 0.642094 0.419117
Si Si5 0.106562 0.430226 0.197733
Si Si6 0.793723 0.388227 0.792726
O O1 0.382234 0.786470 0.500000
O O2 0.337063 0.708081 0.585492
O O3 0.375036 0.813316 0.633923
O O4 0.426723 0.713610 0.593665
O O5 0.729262 0.335076 0.500000
O O6 0.750000 0.250000 0.596178
O O7 0.728709 0.363779 0.634554
O O8 0.111965 0.750000 0.750000
O O9 0.095403 0.875142 0.755473
O O10 0.183125 0.830932 0.754491
O O11 0.439280 0.623024 0.500000
O O12 0.500000 0.641081 0.395440
O O13 0.416835 0.589793 0.375405
O O14 0.087238 0.500000 0.219929
O O15 0.163953 0.437189 0.189716
O O16 0.750000 0.419628 0.750000
#
# Coordination Sequence:
#
# PCOD8283831 Si02
#       6
#    32  32  32  32  32  32
#     4  10  17  31  51  76 110 137 172 224 272 319
#     4  10  18  26  44  77 105 132 171 221 271 316
#     4  10  17  32  51  77 101 135 179 213 270 315
#     4  10  20  35  57  83 112 145 180 220 271 332
#     4  10  22  36  51  74 107 141 181 226 269 320
#     4  10  20  29  52  71 104 138 183 221 270 321
#
# _framework density 16.928716000000001
#
# number of rings (size 3 to 8) (size 9 to 14) (size 15 to 20)
#    1.000    1.000    5.000    1.000    0.000    1.000 
#    0.000    2.500    0.000    0.500    0.000    0.000 
#    0.000    0.000    0.000    5.667    0.000    0.333 
#
# Total GULP energy -594706.167544 kJ/mol
# GULP energy per Si atom -12389.711824 kJ/mol
# Density = 1.689019 g / cm^3
# Si number density = 16.928716 Si / 1000 Ang^3
#
#
#
# Elastic Constant Matrix: (Units=GPa)
#
#
# Indices 1 2 3 4 5 6 
#
# 1 75.9930 14.1399 25.8820 0.0000 0.0000 0.0000
# 2 14.1399 71.4660 38.1061 0.0000 0.0000 0.0000
# 3 25.8820 38.1061 101.8526 0.0000 0.0000 0.0000
# 4 0.0000 0.0000 0.0000 9.6696 0.0000 0.0000
# 5 0.0000 0.0000 0.0000 0.0000 23.7027 0.0000
# 6 0.0000 0.0000 0.0000 0.0000 0.0000 5.6404
#
#
#
# Elastic Compliance Matrix: (Units=1/GPa)
#
#
# Indices 1 2 3 4 5 6 
#
# 1 0.014478 -0.001128 -0.003257 0.000000 0.000000 0.000000
# 2 -0.001128 0.017568 -0.006286 0.000000 0.000000 0.000000
# 3 -0.003257 -0.006286 0.012998 0.000000 0.000000 0.000000
# 4 0.000000 0.000000 0.000000 0.103417 0.000000 0.000000
# 5 0.000000 0.000000 0.000000 0.000000 0.042189 0.000000
# 6 0.000000 0.000000 0.000000 0.000000 0.000000 0.177293
#
#
# Mechanical properties :
#
#
# Convention : Reuss Voigt Hill
#
# Bulk Modulus (GPa) = 42.19146 45.06305 43.62725
# Shear Modulus (GPa) = 12.58859 19.21478 15.90168
#
# Velocity S-wave (km/s) = 2.72990 3.37269 3.06818
# Velocity P-wave (km/s) = 5.90877 6.46868 6.19506
#
# Compressibility (1/GPa) = 0.02370148
#
# Stress axis : x y z
#
# Youngs Moduli (GPa) = 69.06889 56.92323 76.93763
#
# Poissons Ratio (x) = 0.06420 0.25060
# Poissons Ratio (y) = 0.07790 0.48362
# Poissons Ratio (z) = 0.22497 0.35782
#
# Static dielectric constant tensor:
#      x y z
#    x 3.093720 0.000000 0.000000 
#    y 0.000000 2.747510 0.000000 
#    z 0.000000 0.000000 3.345100 
# 
# 
# High freq. dielectric constant tensor:
#      x y z
#    x 1.637170 0.000000 0.000000 
#    y 0.000000 1.609160 0.000000 
#    z 0.000000 0.000000 1.657660 
# 
# From -- ./inp_files/33617.got.cif
#   From: 2010.03.12/outbox.cif.g09.slc.cpg/sg69_17_cif.got.tgz:33617.got - 2010.04.10 23:52:46.
