data_PCOD8283243
_publ_section_title
;
Structure prediction by ZEFSAII (Michael W. Deem and Ramdas Pophale) SiO2 
 PCOD8283243
Probable space group: C C C A
;
_chemical_formula_sum "Si O2"
_cell_formula_units_Z 48
_cell_length_a 10.599024
_cell_length_b 12.010450
_cell_length_c 16.172332
_cell_angle_alpha 90.000000
_cell_angle_beta 90.000000
_cell_angle_gamma 90.000000
_cell_volume 2058.722464
_symmetry_space_group_name_H-M "C C C A"
_symmetry_group_IT_number 68
_space_group.IT_coordinate_system_code '2'
_symmetry_cell_setting 'orthorhombic'
loop_
_space_group_symop_operation_xyz
x,y,z
-x,1/2-y,z
x,1/2-y,1/2-z
-x,y,1/2-z
-x,-y,-z
x,1/2+y,-z
-x,1/2+y,1/2+z
x,-y,1/2+z
1/2+x,1/2+y,z
1/2-x,-y,z
1/2+x,-y,1/2-z
1/2-x,1/2+y,1/2-z
1/2-x,1/2-y,-z
1/2+x,y,-z
1/2-x,y,1/2+z
1/2+x,1/2-y,1/2+z
loop_
_atom_site_type_symbol
_atom_site_label
_atom_site_fract_x
_atom_site_fract_y
_atom_site_fract_z
Si Si1 0.551885 0.477495 0.089705
Si Si2 0.188380 0.889492 0.329052
Si Si3 0.231865 0.347862 0.355899
O O1 0.457969 0.402151 0.145922
O O2 0.676245 0.402481 0.076344
O O3 0.592396 0.596528 0.133386
O O4 0.500000 0.500000 0.000000
O O5 0.264354 0.784968 0.368540
O O6 0.204665 0.882354 0.230995
O O7 0.250000 0.000000 0.366572
#
# Coordination Sequence:
#
# PCOD8283243 Si02
#       3
#    16  16  16
#     4  11  24  43  68 103 142 178 229 288 352 423
#     4  11  23  44  74  98 136 182 233 291 343 414
#     4  10  24  46  69 102 135 182 244 281 347 425
#
# _framework density 23.315431
#
# number of rings (size 3 to 8) (size 9 to 14) (size 15 to 20)
#    0.000    1.333    3.333    2.000    4.667    5.333 
#    6.000    3.333    0.000    0.000    0.000    0.000 
#    0.000    0.000    0.000    0.000    0.000    0.000 
#
# Total GULP energy -297368.692934 kJ/mol
# GULP energy per Si atom -12390.362206 kJ/mol
# Density = 2.326236 g / cm^3
# Si number density = 23.315431 Si / 1000 Ang^3
#
#
#
# Elastic Constant Matrix: (Units=GPa)
#
#
# Indices 1 2 3 4 5 6 
#
# 1 79.7325 49.7918 39.6435 0.0000 0.0000 0.0000
# 2 49.7918 224.8296 32.3868 0.0000 0.0000 0.0000
# 3 39.6435 32.3868 119.4279 0.0000 0.0000 0.0000
# 4 0.0000 0.0000 0.0000 22.2513 0.0000 0.0000
# 5 0.0000 0.0000 0.0000 0.0000 34.2929 0.0000
# 6 0.0000 0.0000 0.0000 0.0000 0.0000 52.4256
#
#
#
# Elastic Compliance Matrix: (Units=1/GPa)
#
#
# Indices 1 2 3 4 5 6 
#
# 1 0.016802 -0.003036 -0.004754 0.000000 0.000000 0.000000
# 2 -0.003036 0.005177 -0.000396 0.000000 0.000000 0.000000
# 3 -0.004754 -0.000396 0.010059 0.000000 0.000000 0.000000
# 4 0.000000 0.000000 0.000000 0.044941 0.000000 0.000000
# 5 0.000000 0.000000 0.000000 0.000000 0.029161 0.000000
# 6 0.000000 0.000000 0.000000 0.000000 0.000000 0.019075
#
#
# Mechanical properties :
#
#
# Convention : Reuss Voigt Hill
#
# Bulk Modulus (GPa) = 63.83553 74.18157 69.00855
# Shear Modulus (GPa) = 34.05804 41.93848 37.99826
#
# Velocity S-wave (km/s) = 3.82612 4.24576 4.04139
# Velocity P-wave (km/s) = 6.85255 7.47803 7.17211
#
# Compressibility (1/GPa) = 0.01566526
#
# Stress axis : x y z
#
# Youngs Moduli (GPa) = 59.51800 193.15153 99.41642
#
# Poissons Ratio (x) = 0.58644 0.47261
# Poissons Ratio (y) = 0.18071 0.03938
# Poissons Ratio (z) = 0.28294 0.07652
#
# Static dielectric constant tensor:
#      x y z
#    x 4.390210 0.000000 0.000000 
#    y 0.000000 4.136970 0.000000 
#    z 0.000000 0.000000 3.819230 
# 
# 
# High freq. dielectric constant tensor:
#      x y z
#    x 1.918740 0.000000 0.000000 
#    y 0.000000 1.935840 0.000000 
#    z 0.000000 0.000000 1.901760 
# 
# From -- ./inp_files/21504.got.cif
#   From: 2010.03.12/outbox.cif.g09.slc.cpg/sg68_11_cif.got.tgz:21504.got - 2010.04.10 23:14:56.
