data_PCOD8283875
_publ_section_title
;
Structure prediction by ZEFSAII (Michael W. Deem and Ramdas Pophale) SiO2 
 PCOD8283875
Probable space group: F M M M
;
_chemical_formula_sum "Si O2"
_cell_formula_units_Z 208
_cell_length_a 17.268668
_cell_length_b 25.458341
_cell_length_c 28.145170
_cell_angle_alpha 90.000000
_cell_angle_beta 90.000000
_cell_angle_gamma 90.000000
_cell_volume 12373.507205
_symmetry_space_group_name_H-M "F M M M"
_symmetry_group_IT_number 69
_symmetry_cell_setting 'orthorhombic'
loop_
_space_group_symop_operation_xyz
x,y,z
-x,-y,z
x,-y,-z
-x,y,-z
-x,-y,-z
x,y,-z
-x,y,z
x,-y,z
x,1/2+y,1/2+z
-x,1/2-y,1/2+z
x,1/2-y,1/2-z
-x,1/2+y,1/2-z
-x,1/2-y,1/2-z
x,1/2+y,1/2-z
-x,1/2+y,1/2+z
x,1/2-y,1/2+z
1/2+x,y,1/2+z
1/2-x,-y,1/2+z
1/2+x,-y,1/2-z
1/2-x,y,1/2-z
1/2-x,-y,1/2-z
1/2+x,y,1/2-z
1/2-x,y,1/2+z
1/2+x,-y,1/2+z
1/2+x,1/2+y,z
1/2-x,1/2-y,z
1/2+x,1/2-y,-z
1/2-x,1/2+y,-z
1/2-x,1/2-y,-z
1/2+x,1/2+y,-z
1/2-x,1/2+y,z
1/2+x,1/2-y,z
loop_
_atom_site_type_symbol
_atom_site_label
_atom_site_fract_x
_atom_site_fract_y
_atom_site_fract_z
Si Si1 0.234423 0.309901 0.194875
Si Si2 0.590367 0.939286 0.445292
Si Si3 0.700167 0.398085 0.131218
Si Si4 0.000000 0.437416 0.947642
Si Si5 0.587653 0.627288 0.296698
Si Si6 0.364242 0.561905 0.382254
Si Si7 0.667216 0.941543 0.272622
O O1 0.250000 0.321778 0.250000
O O2 0.250000 0.250000 0.181490
O O3 0.290310 0.342866 0.159548
O O4 0.143845 0.324840 0.187751
O O5 0.609790 0.925440 0.500000
O O6 0.500000 0.930756 0.435236
O O7 0.637036 0.899131 0.411015
O O8 0.613337 0.000000 0.435071
O O9 0.781191 0.413179 0.107040
O O10 0.674227 0.440495 0.170483
O O11 0.077195 0.416671 0.922135
O O12 0.000000 0.500000 0.947894
O O13 0.000000 0.413350 0.000000
O O14 0.500000 0.648528 0.297694
O O15 0.601554 0.578481 0.331650
O O16 0.606267 0.602356 0.245078
O O17 0.356765 0.500000 0.382927
O O18 0.750000 0.927073 0.250000
O O19 0.640898 0.000000 0.257668
#
# Coordination Sequence:
#
# PCOD8283875 Si02
#       7
#    32  32  32  16  32  32  32
#     4  10  20  39  57  72 103 141 173 222 273 309
#     4   9  19  35  53  76 109 142 170 212 269 319
#     4  11  19  33  53  78 100 136 186 217 253 317
#     4   9  18  30  42  66 104 141 176 210 243 286
#     4  11  20  32  49  74 102 137 173 208 252 321
#     4  10  18  28  46  70 102 143 172 203 248 303
#     4  11  19  29  46  74 109 144 172 204 245 299
#
# _framework density 16.810108
#
# number of rings (size 3 to 8) (size 9 to 14) (size 15 to 20)
#    0.000    1.769    5.385    2.308    0.000    2.154 
#    0.000    3.846    0.000    0.462    0.000    0.000 
#    0.000    0.000    0.000    0.000    0.000    0.000 
#
# Total GULP energy -644577.075910 kJ/mol
# GULP energy per Si atom -12395.712998 kJ/mol
# Density = 1.677185 g / cm^3
# Si number density = 16.810108 Si / 1000 Ang^3
#
#
#
# Elastic Constant Matrix: (Units=GPa)
#
#
# Indices 1 2 3 4 5 6 
#
# 1 104.5798 41.6525 52.0599 0.0000 0.0000 0.0000
# 2 41.6525 92.7795 30.7667 0.0000 0.0000 0.0000
# 3 52.0599 30.7667 105.4167 0.0000 0.0000 0.0000
# 4 0.0000 0.0000 0.0000 14.7075 0.0000 0.0000
# 5 0.0000 0.0000 0.0000 0.0000 30.0202 0.0000
# 6 0.0000 0.0000 0.0000 0.0000 0.0000 15.4475
#
#
#
# Elastic Compliance Matrix: (Units=1/GPa)
#
#
# Indices 1 2 3 4 5 6 
#
# 1 0.014181 -0.004477 -0.005697 0.000000 0.000000 0.000000
# 2 -0.004477 0.013347 -0.001684 0.000000 0.000000 0.000000
# 3 -0.005697 -0.001684 0.012791 0.000000 0.000000 0.000000
# 4 0.000000 0.000000 0.000000 0.067992 0.000000 0.000000
# 5 0.000000 0.000000 0.000000 0.000000 0.033311 0.000000
# 6 0.000000 0.000000 0.000000 0.000000 0.000000 0.064735
#
#
# Mechanical properties :
#
#
# Convention : Reuss Voigt Hill
#
# Bulk Modulus (GPa) = 60.23182 61.30380 60.76781
# Shear Modulus (GPa) = 21.22170 23.92152 22.57161
#
# Velocity S-wave (km/s) = 3.55693 3.77642 3.66832
# Velocity P-wave (km/s) = 7.26481 7.45404 7.36003
#
# Compressibility (1/GPa) = 0.01660252
#
# Stress axis : x y z
#
# Youngs Moduli (GPa) = 70.51631 74.92411 78.18026
#
# Poissons Ratio (x) = 0.33547 0.44536
# Poissons Ratio (y) = 0.31573 0.13167
# Poissons Ratio (z) = 0.40170 0.12619
#
# Static dielectric constant tensor:
#      x y z
#    x 3.272680 0.000000 0.000000 
#    y 0.000000 2.856490 0.000000 
#    z 0.000000 0.000000 3.220660 
# 
# 
# High freq. dielectric constant tensor:
#      x y z
#    x 1.647620 0.000000 0.000000 
#    y 0.000000 1.611070 0.000000 
#    z 0.000000 0.000000 1.640930 
# 
# From -- ./inp_files/42205.got.cif
#   From: 2010.03.12/outbox.cif.g09.slc.cpg/sg69_22_cif.got.tgz:42205.got - 2010.04.10 23:52:46.
