data_PCOD8283092
_publ_section_title
;
Structure prediction by ZEFSAII (Michael W. Deem and Ramdas Pophale) SiO2 
 PCOD8283092
Probable space group: C C C A
;
_chemical_formula_sum "Si O2"
_cell_formula_units_Z 64
_cell_length_a 20.862669
_cell_length_b 10.690689
_cell_length_c 12.029218
_cell_angle_alpha 90.000000
_cell_angle_beta 90.000000
_cell_angle_gamma 90.000000
_cell_volume 2682.952347
_symmetry_space_group_name_H-M "C C C A"
_symmetry_group_IT_number 68
_space_group.IT_coordinate_system_code '2'
_symmetry_cell_setting 'orthorhombic'
loop_
_space_group_symop_operation_xyz
x,y,z
-x,1/2-y,z
x,1/2-y,1/2-z
-x,y,1/2-z
-x,-y,-z
x,1/2+y,-z
-x,1/2+y,1/2+z
x,-y,1/2+z
1/2+x,1/2+y,z
1/2-x,-y,z
1/2+x,-y,1/2-z
1/2-x,1/2+y,1/2-z
1/2-x,1/2-y,-z
1/2+x,y,-z
1/2-x,y,1/2+z
1/2+x,1/2-y,1/2+z
loop_
_atom_site_type_symbol
_atom_site_label
_atom_site_fract_x
_atom_site_fract_y
_atom_site_fract_z
Si Si1 0.719503 0.629178 0.442386
Si Si2 0.117820 0.888741 0.102632
Si Si3 0.000000 0.750000 0.021474
Si Si4 0.720456 0.750000 0.750000
Si Si5 0.938085 0.629789 0.682743
O O1 0.750000 0.500000 0.485205
O O2 0.750000 0.750000 0.500000
O O3 0.643861 0.610587 0.474106
O O4 0.732647 0.650087 0.311172
O O5 0.173475 0.815664 0.164190
O O6 0.047859 0.825561 0.102788
O O7 0.113983 0.021204 0.167248
O O8 0.958629 0.841099 0.943747
O O9 0.909439 0.750000 0.750000
O O10 0.000000 0.581083 0.750000
#
# Coordination Sequence:
#
# PCOD8283092 Si02
#       5
#    16  16   8   8  16
#     4  10  25  49  72 105 143 194 253 307 379 437
#     4  11  24  43  75 100 150 187 243 305 365 455
#     4  10  23  41  68 108 140 194 238 296 376 430
#     4  10  26  45  66 111 136 190 244 312 362 436
#     4   9  22  43  64 107 147 188 237 295 367 442
#
# _framework density 23.854317999999999
#
# number of rings (size 3 to 8) (size 9 to 14) (size 15 to 20)
#    0.000    2.250    0.000    0.750   10.500    8.000 
#    9.000    0.000    0.000    0.000    0.000    0.000 
#    0.000    0.000    0.000    0.000    0.000    0.000 
#
# Total GULP energy -396439.136831 kJ/mol
# GULP energy per Si atom -12388.723026 kJ/mol
# Density = 2.380002 g / cm^3
# Si number density = 23.854318 Si / 1000 Ang^3
#
#
#
# Elastic Constant Matrix: (Units=GPa)
#
#
# Indices 1 2 3 4 5 6 
#
# 1 108.8269 70.9707 48.8605 0.0000 0.0000 0.0000
# 2 70.9707 150.5892 52.1199 0.0000 0.0000 0.0000
# 3 48.8605 52.1199 97.8996 0.0000 0.0000 0.0000
# 4 0.0000 0.0000 0.0000 32.9504 0.0000 0.0000
# 5 0.0000 0.0000 0.0000 0.0000 39.2025 0.0000
# 6 0.0000 0.0000 0.0000 0.0000 0.0000 5.7007
#
#
#
# Elastic Compliance Matrix: (Units=1/GPa)
#
#
# Indices 1 2 3 4 5 6 
#
# 1 0.014709 -0.005383 -0.004475 0.000000 0.000000 0.000000
# 2 -0.005383 0.010111 -0.002696 0.000000 0.000000 0.000000
# 3 -0.004475 -0.002696 0.013883 0.000000 0.000000 0.000000
# 4 0.000000 0.000000 0.000000 0.030349 0.000000 0.000000
# 5 0.000000 0.000000 0.000000 0.000000 0.025509 0.000000
# 6 0.000000 0.000000 0.000000 0.000000 0.000000 0.175416
#
#
# Mechanical properties :
#
#
# Convention : Reuss Voigt Hill
#
# Bulk Modulus (GPa) = 73.56094 77.91309 75.73702
# Shear Modulus (GPa) = 16.68804 27.92836 22.30820
#
# Velocity S-wave (km/s) = 2.64783 3.42539 3.06140
# Velocity P-wave (km/s) = 6.34449 6.95538 6.65695
#
# Compressibility (1/GPa) = 0.01359417
#
# Stress axis : x y z
#
# Youngs Moduli (GPa) = 67.98708 98.90477 72.02884
#
# Poissons Ratio (x) = 0.53242 0.32233
# Poissons Ratio (y) = 0.36599 0.19420
# Poissons Ratio (z) = 0.30424 0.26666
#
# Static dielectric constant tensor:
#      x y z
#    x 4.267200 0.000000 0.000000 
#    y 0.000000 4.253450 0.000000 
#    z 0.000000 0.000000 7.305150 
# 
# 
# High freq. dielectric constant tensor:
#      x y z
#    x 1.941060 0.000000 0.000000 
#    y 0.000000 1.942410 0.000000 
#    z 0.000000 0.000000 1.945580 
# 
# From -- ./inp_files/23206.got.cif
#   From: 2010.03.12/outbox.cif.g09.slc.cpg/sg68_12_cif.got.tgz:23206.got - 2010.04.10 23:14:56.
