data_PCOD8283712
_publ_section_title
;
Structure prediction by ZEFSAII (Michael W. Deem and Ramdas Pophale) SiO2 
 PCOD8283712
Probable space group: C C C A
;
_chemical_formula_sum "Si O2"
_cell_formula_units_Z 56
_cell_length_a 18.561902
_cell_length_b 5.059527
_cell_length_c 25.006120
_cell_angle_alpha 90.000000
_cell_angle_beta 90.000000
_cell_angle_gamma 90.000000
_cell_volume 2348.435865
_symmetry_space_group_name_H-M "C C C A"
_symmetry_group_IT_number 68
_space_group.IT_coordinate_system_code '2'
_symmetry_cell_setting 'orthorhombic'
loop_
_space_group_symop_operation_xyz
x,y,z
-x,1/2-y,z
x,1/2-y,1/2-z
-x,y,1/2-z
-x,-y,-z
x,1/2+y,-z
-x,1/2+y,1/2+z
x,-y,1/2+z
1/2+x,1/2+y,z
1/2-x,-y,z
1/2+x,-y,1/2-z
1/2-x,1/2+y,1/2-z
1/2-x,1/2-y,-z
1/2+x,y,-z
1/2-x,y,1/2+z
1/2+x,1/2-y,1/2+z
loop_
_atom_site_type_symbol
_atom_site_label
_atom_site_fract_x
_atom_site_fract_y
_atom_site_fract_z
Si Si1 0.845966 0.815114 0.462272
Si Si2 0.323426 0.163360 0.690425
Si Si3 0.750000 0.000000 0.610873
Si Si4 0.547047 0.984026 0.874923
O O1 0.840501 0.560448 0.499161
O O2 0.778579 0.756070 0.422393
O O3 0.919401 0.869822 0.430138
O O4 0.341328 0.250000 0.750000
O O5 0.315439 0.406283 0.648812
O O6 0.250000 0.000000 0.690587
O O7 0.392096 0.007403 0.669872
O O8 0.500000 0.750000 0.850658
O O9 0.500000 0.250000 0.885092
#
# Coordination Sequence:
#
# PCOD8283712 Si02
#       4
#    16  16   8  16
#     4  12  26  45  76 111 153 205 257 313 378 451
#     4  12  26  49  81 115 148 201 258 317 385 459
#     4  12  24  46  74 116 158 190 258 326 386 440
#     4  12  28  51  76 112 160 203 251 316 384 456
#
# _framework density 23.845658
#
# number of rings (size 3 to 8) (size 9 to 14) (size 15 to 20)
#    0.000    0.000    4.286    6.000    0.000    4.000 
#    0.000    4.286    0.000    0.000    0.000    0.000 
#    0.000    0.000    0.000    0.000    0.000    0.000 
#
# Total GULP energy -346998.631515 kJ/mol
# GULP energy per Si atom -12392.808268 kJ/mol
# Density = 2.379138 g / cm^3
# Si number density = 23.845658 Si / 1000 Ang^3
#
#
#
# Elastic Constant Matrix: (Units=GPa)
#
#
# Indices 1 2 3 4 5 6 
#
# 1 142.3619 72.1977 74.0767 0.0000 0.0000 0.0000
# 2 72.1977 183.8150 87.6360 0.0000 0.0000 0.0000
# 3 74.0767 87.6360 186.4823 0.0000 0.0000 0.0000
# 4 0.0000 0.0000 0.0000 13.5815 0.0000 0.0000
# 5 0.0000 0.0000 0.0000 0.0000 -50.5030 0.0000
# 6 0.0000 0.0000 0.0000 0.0000 0.0000 60.8837
#
#
#
# Elastic Compliance Matrix: (Units=1/GPa)
#
#
# Indices 1 2 3 4 5 6 
#
# 1 0.009696 -0.002541 -0.002657 0.000000 0.000000 0.000000
# 2 -0.002541 0.007677 -0.002598 0.000000 0.000000 0.000000
# 3 -0.002657 -0.002598 0.007639 0.000000 0.000000 0.000000
# 4 0.000000 0.000000 0.000000 0.073629 0.000000 0.000000
# 5 0.000000 0.000000 0.000000 0.000000 -0.019801 0.000000
# 6 0.000000 0.000000 0.000000 0.000000 0.000000 0.016425
#
#
# Mechanical properties :
#
#
# Convention : Reuss Voigt Hill
#
# Bulk Modulus (GPa) = 106.17688 108.94223 107.55955
# Shear Modulus (GPa) = 43.86012 23.37569 33.61791
#
# Velocity S-wave (km/s) = 4.29340 3.13436 3.75882
# Velocity P-wave (km/s) = 8.31872 7.67362 8.00267
#
# Compressibility (1/GPa) = 0.00941825
#
# Stress axis : x y z
#
# Youngs Moduli (GPa) = 103.13681 130.25512 130.90692
#
# Poissons Ratio (x) = 0.33104 0.34784
# Poissons Ratio (y) = 0.26212 0.34014
# Poissons Ratio (z) = 0.27405 0.33844
#
# Static dielectric constant tensor:
#      x y z
#    x 4.625440 0.000000 0.000000 
#    y 0.000000 4.413310 0.000000 
#    z 0.000000 0.000000 4.739630 
# 
# 
# High freq. dielectric constant tensor:
#      x y z
#    x 1.946240 0.000000 0.000000 
#    y 0.000000 1.963440 0.000000 
#    z 0.000000 0.000000 1.959870 
# 
# From -- ./inp_files/46288.got.cif
#   From: 2010.03.12/outbox.cif.g09.slc.cpg/sg68_24_cif.got.tgz:46288.got - 2010.04.10 23:14:56.
