data_PCOD8283504
_publ_section_title
;
Structure prediction by ZEFSAII (Michael W. Deem and Ramdas Pophale) SiO2 
 PCOD8283504
Probable space group: C C C A
;
_chemical_formula_sum "Si O2"
_cell_formula_units_Z 96
_cell_length_a 13.716468
_cell_length_b 15.503725
_cell_length_c 19.574632
_cell_angle_alpha 90.000000
_cell_angle_beta 90.000000
_cell_angle_gamma 90.000000
_cell_volume 4162.669751
_symmetry_space_group_name_H-M "C C C A"
_symmetry_group_IT_number 68
_space_group.IT_coordinate_system_code '2'
_symmetry_cell_setting 'orthorhombic'
loop_
_space_group_symop_operation_xyz
x,y,z
-x,1/2-y,z
x,1/2-y,1/2-z
-x,y,1/2-z
-x,-y,-z
x,1/2+y,-z
-x,1/2+y,1/2+z
x,-y,1/2+z
1/2+x,1/2+y,z
1/2-x,-y,z
1/2+x,-y,1/2-z
1/2-x,1/2+y,1/2-z
1/2-x,1/2-y,-z
1/2+x,y,-z
1/2-x,y,1/2+z
1/2+x,1/2-y,1/2+z
loop_
_atom_site_type_symbol
_atom_site_label
_atom_site_fract_x
_atom_site_fract_y
_atom_site_fract_z
Si Si1 0.772013 0.399325 0.664138
Si Si2 0.000000 0.750000 0.853287
Si Si3 0.614955 0.064750 0.065400
Si Si4 0.010797 0.648827 0.324661
Si Si5 0.464068 0.606168 0.046013
Si Si6 0.830541 0.250000 0.250000
Si Si7 0.772039 0.347714 0.515114
O O1 0.750000 0.500000 0.683642
O O2 0.885981 0.385596 0.649819
O O3 0.734171 0.332645 0.723857
O O4 0.729691 0.376385 0.589195
O O5 0.016790 0.667791 0.900207
O O6 0.902697 0.725676 0.811510
O O7 0.578647 0.122828 0.127306
O O8 0.597956 0.965858 0.087675
O O9 0.554586 0.071789 0.995852
O O10 0.724260 0.091739 0.044042
O O11 0.000000 0.750000 0.320386
O O12 0.000000 0.606998 0.250000
O O13 0.389126 0.649221 0.992305
O O14 0.750000 0.250000 0.500000
#
# Coordination Sequence:
#
# PCOD8283504 Si02
#       7
#    16   8  16  16  16   8  16
#     4  12  26  47  75 107 147 202 258 317 386 462
#     4  11  26  44  70  96 145 188 234 298 383 444
#     4  11  24  40  69 102 140 181 243 307 359 445
#     4  11  25  45  69 102 146 194 248 307 376 449
#     4  11  23  42  66 102 137 182 241 301 373 434
#     4  11  26  48  69 102 148 194 245 302 372 469
#     4  12  24  42  74 107 149 191 246 309 378 443
#
# _framework density 23.062123
#
# number of rings (size 3 to 8) (size 9 to 14) (size 15 to 20)
#    0.000    0.667    1.667    6.500    5.833    2.667 
#    0.000    0.000    0.000    0.000    0.000    0.000 
#    0.000    0.000    0.000    0.000    0.000    0.000 
#
# Total GULP energy -594760.190975 kJ/mol
# GULP energy per Si atom -12390.837312 kJ/mol
# Density = 2.300963 g / cm^3
# Si number density = 23.062123 Si / 1000 Ang^3
#
#
#
# Elastic Constant Matrix: (Units=GPa)
#
#
# Indices 1 2 3 4 5 6 
#
# 1 80.4269 8.6575 17.6727 0.0000 0.0000 0.0000
# 2 8.6575 130.4622 40.0130 0.0000 0.0000 0.0000
# 3 17.6727 40.0130 118.3583 0.0000 0.0000 0.0000
# 4 0.0000 0.0000 0.0000 9.0479 0.0000 0.0000
# 5 0.0000 0.0000 0.0000 0.0000 80.8711 0.0000
# 6 0.0000 0.0000 0.0000 0.0000 0.0000 32.0470
#
#
#
# Elastic Compliance Matrix: (Units=1/GPa)
#
#
# Indices 1 2 3 4 5 6 
#
# 1 0.012866 -0.000295 -0.001821 0.000000 0.000000 0.000000
# 2 -0.000295 0.008559 -0.002849 0.000000 0.000000 0.000000
# 3 -0.001821 -0.002849 0.009684 0.000000 0.000000 0.000000
# 4 0.000000 0.000000 0.000000 0.110523 0.000000 0.000000
# 5 0.000000 0.000000 0.000000 0.000000 0.012365 0.000000
# 6 0.000000 0.000000 0.000000 0.000000 0.000000 0.031204
#
#
# Mechanical properties :
#
#
# Convention : Reuss Voigt Hill
#
# Bulk Modulus (GPa) = 47.22140 51.32598 49.27369
# Shear Modulus (GPa) = 24.72908 41.92013 33.32460
#
# Velocity S-wave (km/s) = 3.27812 4.26808 3.80543
# Velocity P-wave (km/s) = 5.90325 6.82587 6.38126
#
# Compressibility (1/GPa) = 0.02117684
#
# Stress axis : x y z
#
# Youngs Moduli (GPa) = 77.72650 116.84258 103.26191
#
# Poissons Ratio (x) = 0.03449 0.18807
# Poissons Ratio (y) = 0.02294 0.29422
# Poissons Ratio (z) = 0.14156 0.33292
#
# Static dielectric constant tensor:
#      x y z
#    x 5.399260 0.000000 0.000000 
#    y 0.000000 4.524690 0.000000 
#    z 0.000000 0.000000 4.524470 
# 
# 
# High freq. dielectric constant tensor:
#      x y z
#    x 1.922950 0.000000 0.000000 
#    y 0.000000 1.914590 0.000000 
#    z 0.000000 0.000000 1.907680 
# 
# From -- ./inp_files/38606.got.cif
#   From: 2010.03.12/outbox.cif.g09.slc.cpg/sg68_20_cif.got.tgz:38606.got - 2010.04.10 23:14:56.
