data_PCOD8283156
_publ_section_title
;
Structure prediction by ZEFSAII (Michael W. Deem and Ramdas Pophale) SiO2 
 PCOD8283156
Probable space group: C C C A
;
_chemical_formula_sum "Si O2"
_cell_formula_units_Z 80
_cell_length_a 23.866164
_cell_length_b 7.709170
_cell_length_c 20.193359
_cell_angle_alpha 90.000000
_cell_angle_beta 90.000000
_cell_angle_gamma 90.000000
_cell_volume 3715.342107
_symmetry_space_group_name_H-M "C C C A"
_symmetry_group_IT_number 68
_space_group.IT_coordinate_system_code '2'
_symmetry_cell_setting 'orthorhombic'
loop_
_space_group_symop_operation_xyz
x,y,z
-x,1/2-y,z
x,1/2-y,1/2-z
-x,y,1/2-z
-x,-y,-z
x,1/2+y,-z
-x,1/2+y,1/2+z
x,-y,1/2+z
1/2+x,1/2+y,z
1/2-x,-y,z
1/2+x,-y,1/2-z
1/2-x,1/2+y,1/2-z
1/2-x,1/2-y,-z
1/2+x,y,-z
1/2-x,y,1/2+z
1/2+x,1/2-y,1/2+z
loop_
_atom_site_type_symbol
_atom_site_label
_atom_site_fract_x
_atom_site_fract_y
_atom_site_fract_z
Si Si1 0.500000 0.250000 0.409053
Si Si2 0.127203 0.250000 0.750000
Si Si3 0.539053 0.014325 0.689427
Si Si4 0.104425 0.242614 0.099983
Si Si5 0.315403 0.470460 0.361197
Si Si6 0.396338 0.598442 0.968186
O O1 0.500392 0.079574 0.363438
O O2 0.555836 0.241073 0.453209
O O3 0.088723 0.382756 0.709098
O O4 0.167653 0.138416 0.703208
O O5 0.500000 0.069445 0.750000
O O6 0.562493 0.189984 0.656406
O O7 0.157887 0.164985 0.139478
O O8 0.078841 0.088816 0.053816
O O9 0.119144 0.394773 0.046651
O O10 0.250000 0.500000 0.365575
O O11 0.339346 0.366863 0.425733
#
# Coordination Sequence:
#
# PCOD8283156 Si02
#       6
#     8   8  16  16  16  16
#     4  12  21  44  70  96 143 184 220 284 352 424
#     4  12  23  46  66  96 142 182 235 286 354 420
#     4  12  22  42  67 102 142 183 230 284 350 430
#     4  10  25  44  69 105 138 182 236 289 355 424
#     4  10  25  48  69 103 135 187 241 294 359 413
#     4  10  23  45  67 104 140 177 233 285 350 425
#
# _framework density 21.532336999999998
#
# number of rings (size 3 to 8) (size 9 to 14) (size 15 to 20)
#    1.200    0.000    4.000    1.200    0.000    7.200 
#    3.600    0.000    0.000    0.000    0.000    0.000 
#    0.000    0.000    0.000    0.000    0.000    0.000 
#
# Total GULP energy -495630.415970 kJ/mol
# GULP energy per Si atom -12390.760399 kJ/mol
# Density = 2.148333 g / cm^3
# Si number density = 21.532337 Si / 1000 Ang^3
#
#
#
# Elastic Constant Matrix: (Units=GPa)
#
#
# Indices 1 2 3 4 5 6 
#
# 1 154.9733 52.4353 78.5124 0.0000 0.0000 0.0000
# 2 52.4353 107.4378 62.8555 0.0000 0.0000 0.0000
# 3 78.5124 62.8555 131.2797 0.0000 0.0000 0.0000
# 4 0.0000 0.0000 0.0000 47.2934 0.0000 0.0000
# 5 0.0000 0.0000 0.0000 0.0000 11.5530 0.0000
# 6 0.0000 0.0000 0.0000 0.0000 0.0000 32.5829
#
#
#
# Elastic Compliance Matrix: (Units=1/GPa)
#
#
# Indices 1 2 3 4 5 6 
#
# 1 0.009508 -0.001825 -0.004813 0.000000 0.000000 0.000000
# 2 -0.001825 0.013280 -0.005267 0.000000 0.000000 0.000000
# 3 -0.004813 -0.005267 0.013017 0.000000 0.000000 0.000000
# 4 0.000000 0.000000 0.000000 0.021145 0.000000 0.000000
# 5 0.000000 0.000000 0.000000 0.000000 0.086558 0.000000
# 6 0.000000 0.000000 0.000000 0.000000 0.000000 0.030691
#
#
# Mechanical properties :
#
#
# Convention : Reuss Voigt Hill
#
# Bulk Modulus (GPa) = 83.35825 86.81078 85.08452
# Shear Modulus (GPa) = 24.75167 31.61170 28.18169
#
# Velocity S-wave (km/s) = 3.39412 3.83574 3.62167
# Velocity P-wave (km/s) = 7.35916 7.74734 7.55574
#
# Compressibility (1/GPa) = 0.01199641
#
# Stress axis : x y z
#
# Youngs Moduli (GPa) = 105.16966 75.30320 76.82079
#
# Poissons Ratio (x) = 0.13742 0.36972
# Poissons Ratio (y) = 0.19193 0.40460
# Poissons Ratio (z) = 0.50616 0.39660
#
# Static dielectric constant tensor:
#      x y z
#    x 3.481910 0.000000 0.000000 
#    y 0.000000 3.866020 0.000000 
#    z 0.000000 0.000000 4.089530 
# 
# 
# High freq. dielectric constant tensor:
#      x y z
#    x 1.812160 0.000000 0.000000 
#    y 0.000000 1.847660 0.000000 
#    z 0.000000 0.000000 1.860830 
# 
# From -- ./inp_files/40688.got.cif
#   From: 2010.03.12/outbox.cif.g09.slc.cpg/sg68_21_cif.got.tgz:40688.got - 2010.04.10 23:14:56.
