data_PCOD8283118
_publ_section_title
;
Structure prediction by ZEFSAII (Michael W. Deem and Ramdas Pophale) SiO2 
 PCOD8283118
Probable space group: C C C A
;
_chemical_formula_sum "Si O2"
_cell_formula_units_Z 92
_cell_length_a 25.779916
_cell_length_b 19.644330
_cell_length_c 9.175814
_cell_angle_alpha 90.000000
_cell_angle_beta 90.000000
_cell_angle_gamma 90.000000
_cell_volume 4646.899935
_symmetry_space_group_name_H-M "C C C A"
_symmetry_group_IT_number 68
_space_group.IT_coordinate_system_code '2'
_symmetry_cell_setting 'orthorhombic'
loop_
_space_group_symop_operation_xyz
x,y,z
-x,1/2-y,z
x,1/2-y,1/2-z
-x,y,1/2-z
-x,-y,-z
x,1/2+y,-z
-x,1/2+y,1/2+z
x,-y,1/2+z
1/2+x,1/2+y,z
1/2-x,-y,z
1/2+x,-y,1/2-z
1/2-x,1/2+y,1/2-z
1/2-x,1/2-y,-z
1/2+x,y,-z
1/2-x,y,1/2+z
1/2+x,1/2-y,1/2+z
loop_
_atom_site_type_symbol
_atom_site_label
_atom_site_fract_x
_atom_site_fract_y
_atom_site_fract_z
Si Si1 0.418896 0.344012 0.904918
Si Si2 0.967473 0.045977 0.609231
Si Si3 0.807675 0.984602 0.988561
Si Si4 0.748259 0.750000 0.750000
Si Si5 0.188888 0.824287 0.504405
Si Si6 0.500000 0.750000 0.250000
Si Si7 0.127166 0.537944 0.728272
O O1 0.371525 0.302205 0.978212
O O2 0.463303 0.294788 0.850264
O O3 0.393563 0.387090 0.770704
O O4 0.446945 0.388873 0.025925
O O5 0.000000 0.069189 0.750000
O O6 0.919123 0.003250 0.660992
O O7 0.000000 0.000000 0.500000
O O8 0.809678 0.904744 0.024865
O O9 0.851211 0.001025 0.869072
O O10 0.750000 0.000000 0.933531
O O11 0.823506 0.036312 0.118601
O O12 0.782306 0.697398 0.654330
O O13 0.712057 0.790472 0.638834
#
# Coordination Sequence:
#
# PCOD8283118 Si02
#       7
#    16  16  16   8  16   4  16
#     4  11  24  43  66  93 130 169 223 265 323 389
#     4  12  21  39  66  96 128 166 210 266 336 385
#     4  11  24  37  65 100 132 166 210 266 333 387
#     4  10  23  44  66  88 132 180 215 262 314 390
#     4  10  23  43  65  94 129 172 221 260 322 389
#     4  12  26  48  66  92 128 180 232 266 316 402
#     4  11  21  41  62  96 133 160 208 270 323 392
#
# _framework density 19.798145999999999
#
# number of rings (size 3 to 8) (size 9 to 14) (size 15 to 20)
#    0.000    1.043    5.217    2.087    7.304    0.000 
#    3.130    0.000    0.000    0.000    0.000    0.000 
#    0.000    0.000    0.000    0.000    0.000    0.000 
#
# Total GULP energy -570170.494825 kJ/mol
# GULP energy per Si atom -12395.010757 kJ/mol
# Density = 1.975308 g / cm^3
# Si number density = 19.798146 Si / 1000 Ang^3
#
#
#
# Elastic Constant Matrix: (Units=GPa)
#
#
# Indices 1 2 3 4 5 6 
#
# 1 169.3425 65.3841 75.4551 0.0000 0.0000 0.0000
# 2 65.3841 65.9694 57.2677 0.0000 0.0000 0.0000
# 3 75.4551 57.2677 136.2344 0.0000 0.0000 0.0000
# 4 0.0000 0.0000 0.0000 6.8618 0.0000 0.0000
# 5 0.0000 0.0000 0.0000 0.0000 -580.0440 0.0000
# 6 0.0000 0.0000 0.0000 0.0000 0.0000 45.4856
#
#
#
# Elastic Compliance Matrix: (Units=1/GPa)
#
#
# Indices 1 2 3 4 5 6 
#
# 1 0.009950 -0.007996 -0.002150 0.000000 0.000000 0.000000
# 2 -0.007996 0.030293 -0.008306 0.000000 0.000000 0.000000
# 3 -0.002150 -0.008306 0.012023 0.000000 0.000000 0.000000
# 4 0.000000 0.000000 0.000000 0.145734 0.000000 0.000000
# 5 0.000000 0.000000 0.000000 0.000000 -0.001724 0.000000
# 6 0.000000 0.000000 0.000000 0.000000 0.000000 0.021985
#
#
# Mechanical properties :
#
#
# Convention : Reuss Voigt Hill
#
# Bulk Modulus (GPa) = 65.08949 85.30671 75.19810
# Shear Modulus (GPa) = 19.20969 -93.97668 -37.38350
#
# Velocity S-wave (km/s) = 3.11831 -6.89713 -4.35009
# Velocity P-wave (km/s) = 6.77592 4.49950 3.58242
#
# Compressibility (1/GPa) = 0.01536346
#
# Stress axis : x y z
#
# Youngs Moduli (GPa) = 100.49871 33.01059 83.17717
#
# Poissons Ratio (x) = 0.26394 0.17884
# Poissons Ratio (y) = 0.80355 0.69084
# Poissons Ratio (z) = 0.21608 0.27418
#
# Static dielectric constant tensor:
#      x y z
#    x 4.085220 0.000000 0.000000 
#    y 0.000000 3.536930 0.000000 
#    z 0.000000 0.000000 4.189010 
# 
# 
# High freq. dielectric constant tensor:
#      x y z
#    x 1.802220 0.000000 0.000000 
#    y 0.000000 1.750330 0.000000 
#    z 0.000000 0.000000 1.782840 
# 
# From -- ./inp_files/7325.got.cif
#   From: 2010.03.12/outbox.cif.g09.slc.cpg/sg68_4_cif.got.tgz:7325.got - 2010.04.10 23:14:56.
