data_PCOD8283225
_publ_section_title
;
Structure prediction by ZEFSAII (Michael W. Deem and Ramdas Pophale) SiO2 
 PCOD8283225
Probable space group: C C C A
;
_chemical_formula_sum "Si O2"
_cell_formula_units_Z 96
_cell_length_a 14.834356
_cell_length_b 18.079056
_cell_length_c 16.350930
_cell_angle_alpha 90.000000
_cell_angle_beta 90.000000
_cell_angle_gamma 90.000000
_cell_volume 4385.174767
_symmetry_space_group_name_H-M "C C C A"
_symmetry_group_IT_number 68
_space_group.IT_coordinate_system_code '2'
_symmetry_cell_setting 'orthorhombic'
loop_
_space_group_symop_operation_xyz
x,y,z
-x,1/2-y,z
x,1/2-y,1/2-z
-x,y,1/2-z
-x,-y,-z
x,1/2+y,-z
-x,1/2+y,1/2+z
x,-y,1/2+z
1/2+x,1/2+y,z
1/2-x,-y,z
1/2+x,-y,1/2-z
1/2-x,1/2+y,1/2-z
1/2-x,1/2-y,-z
1/2+x,y,-z
1/2-x,y,1/2+z
1/2+x,1/2-y,1/2+z
loop_
_atom_site_type_symbol
_atom_site_label
_atom_site_fract_x
_atom_site_fract_y
_atom_site_fract_z
Si Si1 0.750000 0.500000 0.796123
Si Si2 0.079430 0.514056 0.814466
Si Si3 0.000000 0.750000 0.519863
Si Si4 0.037296 0.362074 0.880327
Si Si5 0.336631 0.627002 0.601788
Si Si6 0.795862 0.778370 0.336827
Si Si7 0.863568 0.856371 0.918791
O O1 0.830734 0.519285 0.737324
O O2 0.728306 0.569802 0.853425
O O3 0.077074 0.445195 0.878213
O O4 0.073663 0.587767 0.868263
O O5 0.000000 0.509101 0.750000
O O6 0.036181 0.679176 0.468220
O O7 0.082296 0.778959 0.574856
O O8 0.103638 0.312594 0.824020
O O9 0.933297 0.368424 0.850509
O O10 0.295353 0.709159 0.601673
O O11 0.346391 0.605308 0.506849
O O12 0.759827 0.750000 0.250000
O O13 0.730718 0.841254 0.373203
#
# Coordination Sequence:
#
# PCOD8283225 Si02
#       7
#     8  16   8  16  16  16  16
#     4  12  26  48  68 106 142 186 242 286 372 422
#     4  12  26  46  71 105 147 189 228 295 359 437
#     4  10  24  44  74 102 136 186 238 300 348 420
#     4  11  22  44  71 100 134 179 242 292 353 408
#     4  11  24  45  70 103 136 188 240 302 352 422
#     4  12  24  41  73 102 141 184 239 302 357 416
#     4  11  26  47  66 108 143 189 239 283 365 430
#
# _framework density 21.891943999999999
#
# number of rings (size 3 to 8) (size 9 to 14) (size 15 to 20)
#    0.000    0.667    5.000    3.500    0.000    8.000 
#    3.000    0.000    0.000    0.000    0.000    0.000 
#    0.000    0.000    0.000    0.000    0.000    0.000 
#
# Total GULP energy -595055.896484 kJ/mol
# GULP energy per Si atom -12396.997843 kJ/mol
# Density = 2.184212 g / cm^3
# Si number density = 21.891944 Si / 1000 Ang^3
#
#
#
# Elastic Constant Matrix: (Units=GPa)
#
#
# Indices 1 2 3 4 5 6 
#
# 1 119.6957 53.4333 48.4796 0.0000 0.0000 0.0000
# 2 53.4333 144.5966 49.2244 0.0000 0.0000 0.0000
# 3 48.4796 49.2244 102.1195 0.0000 0.0000 0.0000
# 4 0.0000 0.0000 0.0000 38.2704 0.0000 0.0000
# 5 0.0000 0.0000 0.0000 0.0000 24.1365 0.0000
# 6 0.0000 0.0000 0.0000 0.0000 0.0000 43.4267
#
#
#
# Elastic Compliance Matrix: (Units=1/GPa)
#
#
# Indices 1 2 3 4 5 6 
#
# 1 0.011210 -0.002788 -0.003978 0.000000 0.000000 0.000000
# 2 -0.002788 0.008967 -0.002999 0.000000 0.000000 0.000000
# 3 -0.003978 -0.002999 0.013126 0.000000 0.000000 0.000000
# 4 0.000000 0.000000 0.000000 0.026130 0.000000 0.000000
# 5 0.000000 0.000000 0.000000 0.000000 0.041431 0.000000
# 6 0.000000 0.000000 0.000000 0.000000 0.000000 0.023027
#
#
# Mechanical properties :
#
#
# Convention : Reuss Voigt Hill
#
# Bulk Modulus (GPa) = 72.60089 74.29847 73.44968
# Shear Modulus (GPa) = 33.78082 35.51835 34.64958
#
# Velocity S-wave (km/s) = 3.93246 4.03232 3.98270
# Velocity P-wave (km/s) = 7.33854 7.46270 7.40088
#
# Compressibility (1/GPa) = 0.01377394
#
# Stress axis : x y z
#
# Youngs Moduli (GPa) = 89.20249 111.51984 76.18315
#
# Poissons Ratio (x) = 0.31097 0.30305
# Poissons Ratio (y) = 0.24874 0.22844
# Poissons Ratio (z) = 0.35484 0.33440
#
# Static dielectric constant tensor:
#      x y z
#    x 4.028920 0.000000 0.000000 
#    y 0.000000 4.087570 0.000000 
#    z 0.000000 0.000000 3.819220 
# 
# 
# High freq. dielectric constant tensor:
#      x y z
#    x 1.864390 0.000000 0.000000 
#    y 0.000000 1.868810 0.000000 
#    z 0.000000 0.000000 1.850400 
# 
# From -- ./inp_files/22440.got.cif
#   From: 2010.03.12/outbox.cif.g09.slc.cpg/sg68_12_cif.got.tgz:22440.got - 2010.04.10 23:14:56.
