data_PCOD8283019
_publ_section_title
;
Structure prediction by ZEFSAII (Michael W. Deem and Ramdas Pophale) SiO2 
 PCOD8283019
Probable space group: C C C A
;
_chemical_formula_sum "Si O2"
_cell_formula_units_Z 80
_cell_length_a 11.655377
_cell_length_b 24.845655
_cell_length_c 13.765638
_cell_angle_alpha 90.000000
_cell_angle_beta 90.000000
_cell_angle_gamma 90.000000
_cell_volume 3986.328830
_symmetry_space_group_name_H-M "C C C A"
_symmetry_group_IT_number 68
_space_group.IT_coordinate_system_code '2'
_symmetry_cell_setting 'orthorhombic'
loop_
_space_group_symop_operation_xyz
x,y,z
-x,1/2-y,z
x,1/2-y,1/2-z
-x,y,1/2-z
-x,-y,-z
x,1/2+y,-z
-x,1/2+y,1/2+z
x,-y,1/2+z
1/2+x,1/2+y,z
1/2-x,-y,z
1/2+x,-y,1/2-z
1/2-x,1/2+y,1/2-z
1/2-x,1/2-y,-z
1/2+x,y,-z
1/2-x,y,1/2+z
1/2+x,1/2-y,1/2+z
loop_
_atom_site_type_symbol
_atom_site_label
_atom_site_fract_x
_atom_site_fract_y
_atom_site_fract_z
Si Si1 0.975762 0.968019 0.597367
Si Si2 0.383392 0.934990 0.783709
Si Si3 0.795357 0.404029 0.139652
Si Si4 0.133592 0.308832 0.225827
Si Si5 0.282777 0.880991 0.428899
O O1 0.883477 0.923425 0.575288
O O2 0.090849 0.939678 0.634881
O O3 0.919616 0.005859 0.678877
O O4 0.000000 0.000000 0.500000
O O5 0.500000 0.904795 0.750000
O O6 0.302772 0.941523 0.688277
O O7 0.327462 0.900693 0.869224
O O8 0.806502 0.353611 0.209963
O O9 0.758105 0.376736 0.039071
O O10 0.184388 0.250000 0.250000
O O11 0.165925 0.324670 0.113976
O O12 0.000000 0.309619 0.250000
#
# Coordination Sequence:
#
# PCOD8283019 Si02
#       5
#    16  16  16  16  16
#     4  12  24  40  60  92 134 179 218 252 317 393
#     4  11  26  37  61  92 133 174 217 251 317 386
#     4  11  25  43  65  93 132 173 216 273 321 389
#     4  10  22  44  71  94 122 165 222 280 332 384
#     4  11  24  43  61  96 131 168 219 270 322 394
#
# _framework density 20.068591000000001
#
# number of rings (size 3 to 8) (size 9 to 14) (size 15 to 20)
#    0.000    1.000    4.000    1.800    8.400    2.400 
#    0.000    0.000    0.000    9.600    0.000    0.000 
#    0.000    0.000    0.000    0.000    0.000    0.000 
#
# Total GULP energy -495876.648275 kJ/mol
# GULP energy per Si atom -12396.916207 kJ/mol
# Density = 2.002291 g / cm^3
# Si number density = 20.068591 Si / 1000 Ang^3
#
#
#
# Elastic Constant Matrix: (Units=GPa)
#
#
# Indices 1 2 3 4 5 6 
#
# 1 107.4773 34.0175 23.7842 0.0000 0.0000 0.0000
# 2 34.0175 118.6550 40.3447 0.0000 0.0000 0.0000
# 3 23.7842 40.3447 110.0365 0.0000 0.0000 0.0000
# 4 0.0000 0.0000 0.0000 -4.0169 0.0000 0.0000
# 5 0.0000 0.0000 0.0000 0.0000 24.7028 0.0000
# 6 0.0000 0.0000 0.0000 0.0000 0.0000 20.2072
#
#
#
# Elastic Compliance Matrix: (Units=1/GPa)
#
#
# Indices 1 2 3 4 5 6 
#
# 1 0.010398 -0.002532 -0.001319 0.000000 0.000000 0.000000
# 2 -0.002532 0.010245 -0.003209 0.000000 0.000000 0.000000
# 3 -0.001319 -0.003209 0.010550 0.000000 0.000000 0.000000
# 4 0.000000 0.000000 0.000000 -0.248950 0.000000 0.000000
# 5 0.000000 0.000000 0.000000 0.000000 0.040481 0.000000
# 6 0.000000 0.000000 0.000000 0.000000 0.000000 0.049487
#
#
# Mechanical properties :
#
#
# Convention : Reuss Voigt Hill
#
# Bulk Modulus (GPa) = 58.57700 59.16241 58.86971
# Shear Modulus (GPa) = -46.30545 24.04678 -11.12933
#
# Velocity S-wave (km/s) = -4.80871 3.46530 -2.35747
# Velocity P-wave (km/s) = 1.25691 6.74946 4.68910
#
# Compressibility (1/GPa) = 0.01707155
#
# Stress axis : x y z
#
# Youngs Moduli (GPa) = 96.17495 97.60939 94.79113
#
# Poissons Ratio (x) = 0.24720 0.12502
# Poissons Ratio (y) = 0.24356 0.30417
# Poissons Ratio (z) = 0.12685 0.31322
#
# Static dielectric constant tensor:
#      x y z
#    x 4.104010 0.000000 0.000000 
#    y 0.000000 3.876940 0.000000 
#    z 0.000000 0.000000 3.965450 
# 
# 
# High freq. dielectric constant tensor:
#      x y z
#    x 1.801230 0.000000 0.000000 
#    y 0.000000 1.756690 0.000000 
#    z 0.000000 0.000000 1.801250 
# 
# From -- ./inp_files/21066.got.cif
#   From: 2010.03.12/outbox.cif.g09.slc.cpg/sg68_11_cif.got.tgz:21066.got - 2010.04.10 23:14:56.
