data_PCOD8283397
_publ_section_title
;
Structure prediction by ZEFSAII (Michael W. Deem and Ramdas Pophale) SiO2 
 PCOD8283397
Probable space group: C C C A
;
_chemical_formula_sum "Si O2"
_cell_formula_units_Z 108
_cell_length_a 16.724590
_cell_length_b 27.933575
_cell_length_c 10.494581
_cell_angle_alpha 90.000000
_cell_angle_beta 90.000000
_cell_angle_gamma 90.000000
_cell_volume 4902.833050
_symmetry_space_group_name_H-M "C C C A"
_symmetry_group_IT_number 68
_space_group.IT_coordinate_system_code '2'
_symmetry_cell_setting 'orthorhombic'
loop_
_space_group_symop_operation_xyz
x,y,z
-x,1/2-y,z
x,1/2-y,1/2-z
-x,y,1/2-z
-x,-y,-z
x,1/2+y,-z
-x,1/2+y,1/2+z
x,-y,1/2+z
1/2+x,1/2+y,z
1/2-x,-y,z
1/2+x,-y,1/2-z
1/2-x,1/2+y,1/2-z
1/2-x,1/2-y,-z
1/2+x,y,-z
1/2-x,y,1/2+z
1/2+x,1/2-y,1/2+z
loop_
_atom_site_type_symbol
_atom_site_label
_atom_site_fract_x
_atom_site_fract_y
_atom_site_fract_z
Si Si1 0.000000 0.750000 0.750000
Si Si2 0.904681 0.243270 0.609329
Si Si3 0.000000 0.916889 0.250000
Si Si4 0.820024 0.070065 0.407842
Si Si5 0.581873 0.477130 0.042551
Si Si6 0.934362 0.358627 0.970104
Si Si7 0.094857 0.820452 0.925517
Si Si8 0.186307 0.587993 0.620127
O O1 0.940795 0.715586 0.823511
O O2 0.869981 0.250000 0.750000
O O3 0.886111 0.191029 0.550519
O O4 0.863599 0.285922 0.529967
O O5 0.000000 0.250000 0.605493
O O6 0.063464 0.947670 0.169942
O O7 0.059546 0.885060 0.334862
O O8 0.890400 0.108882 0.425029
O O9 0.786084 0.073561 0.263200
O O10 0.754892 0.081036 0.515458
O O11 0.851236 0.016414 0.427002
O O12 0.500000 0.500000 0.000000
O O13 0.611802 0.444110 0.926033
O O14 0.024444 0.352306 0.016405
O O15 0.161832 0.856076 0.871970
#
# Coordination Sequence:
#
# PCOD8283397 Si02
#       8
#     4  16   8  16  16  16  16  16
#     4  12  20  36  76 104 140 172 246 296 360 408
#     4   9  18  33  61 100 134 167 220 277 337 400
#     4  12  22  38  78 106 140 178 240 292 362 412
#     4  12  29  47  68  99 144 188 241 288 357 430
#     4  12  25  46  74 105 138 179 236 299 355 421
#     4  11  21  41  70 103 139 182 231 291 348 421
#     4  11  21  41  70 104 136 181 230 295 349 419
#     4  12  29  47  70 100 144 191 239 287 360 428
#
# _framework density 22.028081
#
# number of rings (size 3 to 8) (size 9 to 14) (size 15 to 20)
#    0.000    0.741    5.185    4.000    2.074    2.370 
#    0.000    0.741    1.630    0.000    0.000    0.000 
#    0.000    0.000    0.000    0.000    0.000    0.000 
#
# Total GULP energy -669560.839823 kJ/mol
# GULP energy per Si atom -12399.274812 kJ/mol
# Density = 2.197794 g / cm^3
# Si number density = 22.028081 Si / 1000 Ang^3
#
#
#
# Elastic Constant Matrix: (Units=GPa)
#
#
# Indices 1 2 3 4 5 6 
#
# 1 63.9943 38.6872 40.8128 0.0000 0.0000 0.0000
# 2 38.6872 143.0439 57.1240 0.0000 0.0000 0.0000
# 3 40.8128 57.1240 162.4767 0.0000 0.0000 0.0000
# 4 0.0000 0.0000 0.0000 1162.1300 0.0000 0.0000
# 5 0.0000 0.0000 0.0000 0.0000 4.4250 0.0000
# 6 0.0000 0.0000 0.0000 0.0000 0.0000 23.3557
#
#
#
# Elastic Compliance Matrix: (Units=1/GPa)
#
#
# Indices 1 2 3 4 5 6 
#
# 1 0.020439 -0.004046 -0.003712 0.000000 0.000000 0.000000
# 2 -0.004046 0.008934 -0.002125 0.000000 0.000000 0.000000
# 3 -0.003712 -0.002125 0.007834 0.000000 0.000000 0.000000
# 4 0.000000 0.000000 0.000000 0.000860 0.000000 0.000000
# 5 0.000000 0.000000 0.000000 0.000000 0.225988 0.000000
# 6 0.000000 0.000000 0.000000 0.000000 0.000000 0.042816
#
#
# Mechanical properties :
#
#
# Convention : Reuss Voigt Hill
#
# Bulk Modulus (GPa) = 57.33039 71.41812 64.37426
# Shear Modulus (GPa) = 15.03984 253.50818 134.27401
#
# Velocity S-wave (km/s) = 2.61580 10.73936 7.81589
# Velocity P-wave (km/s) = 5.93344 13.64809 10.52322
#
# Compressibility (1/GPa) = 0.01744276
#
# Stress axis : x y z
#
# Youngs Moduli (GPa) = 48.92506 111.93816 127.64723
#
# Poissons Ratio (x) = 0.45287 0.47380
# Poissons Ratio (y) = 0.19794 0.27120
# Poissons Ratio (z) = 0.18160 0.23783
#
# Static dielectric constant tensor:
#      x y z
#    x 3.560710 0.000000 0.000000 
#    y 0.000000 4.371760 0.000000 
#    z 0.000000 0.000000 4.480920 
# 
# 
# High freq. dielectric constant tensor:
#      x y z
#    x 1.827080 0.000000 0.000000 
#    y 0.000000 1.895430 0.000000 
#    z 0.000000 0.000000 1.878160 
# 
# From -- ./inp_files/13643.got.cif
#   From: 2010.03.12/outbox.cif.g09.slc.cpg/sg68_7_cif.got.tgz:13643.got - 2010.04.10 23:14:56.
