data_PCOD8283501
_publ_section_title
;
Structure prediction by ZEFSAII (Michael W. Deem and Ramdas Pophale) SiO2 
 PCOD8283501
Probable space group: C C C A
;
_chemical_formula_sum "Si O2"
_cell_formula_units_Z 112
_cell_length_a 11.916545
_cell_length_b 29.543049
_cell_length_c 13.850330
_cell_angle_alpha 90.000000
_cell_angle_beta 90.000000
_cell_angle_gamma 90.000000
_cell_volume 4876.023536
_symmetry_space_group_name_H-M "C C C A"
_symmetry_group_IT_number 68
_space_group.IT_coordinate_system_code '2'
_symmetry_cell_setting 'orthorhombic'
loop_
_space_group_symop_operation_xyz
x,y,z
-x,1/2-y,z
x,1/2-y,1/2-z
-x,y,1/2-z
-x,-y,-z
x,1/2+y,-z
-x,1/2+y,1/2+z
x,-y,1/2+z
1/2+x,1/2+y,z
1/2-x,-y,z
1/2+x,-y,1/2-z
1/2-x,1/2+y,1/2-z
1/2-x,1/2-y,-z
1/2+x,y,-z
1/2-x,y,1/2+z
1/2+x,1/2-y,1/2+z
loop_
_atom_site_type_symbol
_atom_site_label
_atom_site_fract_x
_atom_site_fract_y
_atom_site_fract_z
Si Si1 0.790643 0.072502 0.362812
Si Si2 0.776537 0.303140 0.374740
Si Si3 0.790681 0.400956 0.433124
Si Si4 0.112953 0.559347 0.206485
Si Si5 0.518983 0.535950 0.355036
Si Si6 0.116421 0.334446 0.303299
Si Si7 0.606447 0.722904 0.012889
O O1 0.729057 0.092895 0.454342
O O2 0.700712 0.047294 0.292976
O O3 0.839216 0.114502 0.301471
O O4 0.891775 0.038848 0.398987
O O5 0.831825 0.349951 0.413633
O O6 0.794454 0.303152 0.258427
O O7 0.648946 0.300244 0.413133
O O8 0.823259 0.259691 0.428650
O O9 0.676847 0.410361 0.372248
O O10 0.892820 0.434379 0.412068
O O11 0.068438 0.514365 0.152724
O O12 0.000000 0.583584 0.250000
O O13 0.500000 0.557373 0.250000
O O14 0.093732 0.318061 0.411708
O O15 0.000000 0.329696 0.250000
O O16 0.500000 0.750000 0.978014
#
# Coordination Sequence:
#
# PCOD8283501 Si02
#       7
#    16  16  16  16  16  16  16
#     4  12  26  46  76 105 145 190 241 300 360 428
#     4  11  23  41  69 105 147 175 240 292 356 415
#     4  12  25  46  71 108 140 188 243 296 358 437
#     4  11  27  49  68 101 145 188 235 300 364 424
#     4  11  24  48  74  99 139 190 237 301 357 423
#     4  12  22  44  77 106 133 197 246 291 355 433
#     4  11  24  42  70 110 142 185 236 303 346 421
#
# _framework density 22.969536000000002
#
# number of rings (size 3 to 8) (size 9 to 14) (size 15 to 20)
#    0.000    0.571    5.714    2.143    4.000    0.571 
#    7.714    0.000    0.000    0.857    0.000    0.000 
#    0.000    0.000    0.000    0.000    0.000    0.000 
#
# Total GULP energy -693785.009386 kJ/mol
# GULP energy per Si atom -12389.018025 kJ/mol
# Density = 2.291726 g / cm^3
# Si number density = 22.969536 Si / 1000 Ang^3
#
#
#
# Elastic Constant Matrix: (Units=GPa)
#
#
# Indices 1 2 3 4 5 6 
#
# 1 104.8711 10.2916 24.1694 0.0000 0.0000 0.0000
# 2 10.2916 68.4321 -6.8707 0.0000 0.0000 0.0000
# 3 24.1694 -6.8707 70.6769 0.0000 0.0000 0.0000
# 4 0.0000 0.0000 0.0000 21.3957 0.0000 0.0000
# 5 0.0000 0.0000 0.0000 0.0000 50.2250 0.0000
# 6 0.0000 0.0000 0.0000 0.0000 0.0000 32.6173
#
#
#
# Elastic Compliance Matrix: (Units=1/GPa)
#
#
# Indices 1 2 3 4 5 6 
#
# 1 0.010610 -0.001979 -0.003821 0.000000 0.000000 0.000000
# 2 -0.001979 0.015126 0.002147 0.000000 0.000000 0.000000
# 3 -0.003821 0.002147 0.015664 0.000000 0.000000 0.000000
# 4 0.000000 0.000000 0.000000 0.046738 0.000000 0.000000
# 5 0.000000 0.000000 0.000000 0.000000 0.019910 0.000000
# 6 0.000000 0.000000 0.000000 0.000000 0.000000 0.030659
#
#
# Mechanical properties :
#
#
# Convention : Reuss Voigt Hill
#
# Bulk Modulus (GPa) = 29.32961 33.24008 31.28484
# Shear Modulus (GPa) = 31.77043 35.27357 33.52200
#
# Velocity S-wave (km/s) = 3.72311 3.92301 3.82437
# Velocity P-wave (km/s) = 5.59274 5.91801 5.75767
#
# Compressibility (1/GPa) = 0.03409524
#
# Stress axis : x y z
#
# Youngs Moduli (GPa) = 94.24771 66.11006 63.83961
#
# Poissons Ratio (x) = 0.13085 0.24392
# Poissons Ratio (y) = 0.18655 -0.13708
# Poissons Ratio (z) = 0.36010 -0.14196
#
# Static dielectric constant tensor:
#      x y z
#    x 4.669370 0.000000 0.000000 
#    y 0.000000 4.060260 0.000000 
#    z 0.000000 0.000000 4.333270 
# 
# 
# High freq. dielectric constant tensor:
#      x y z
#    x 1.910270 0.000000 0.000000 
#    y 0.000000 1.908710 0.000000 
#    z 0.000000 0.000000 1.902250 
# 
# From -- ./inp_files/21233.got.cif
#   From: 2010.03.12/outbox.cif.g09.slc.cpg/sg68_11_cif.got.tgz:21233.got - 2010.04.10 23:14:56.
