data_PCOD8283112
_publ_section_title
;
Structure prediction by ZEFSAII (Michael W. Deem and Ramdas Pophale) SiO2 
 PCOD8283112
Probable space group: C C C A
;
_chemical_formula_sum "Si O2"
_cell_formula_units_Z 80
_cell_length_a 17.190294
_cell_length_b 17.678520
_cell_length_c 10.209783
_cell_angle_alpha 90.000000
_cell_angle_beta 90.000000
_cell_angle_gamma 90.000000
_cell_volume 3102.742398
_symmetry_space_group_name_H-M "C C C A"
_symmetry_group_IT_number 68
_space_group.IT_coordinate_system_code '2'
_symmetry_cell_setting 'orthorhombic'
loop_
_space_group_symop_operation_xyz
x,y,z
-x,1/2-y,z
x,1/2-y,1/2-z
-x,y,1/2-z
-x,-y,-z
x,1/2+y,-z
-x,1/2+y,1/2+z
x,-y,1/2+z
1/2+x,1/2+y,z
1/2-x,-y,z
1/2+x,-y,1/2-z
1/2-x,1/2+y,1/2-z
1/2-x,1/2-y,-z
1/2+x,y,-z
1/2-x,y,1/2+z
1/2+x,1/2-y,1/2+z
loop_
_atom_site_type_symbol
_atom_site_label
_atom_site_fract_x
_atom_site_fract_y
_atom_site_fract_z
Si Si1 0.344817 0.834149 0.004212
Si Si2 0.665105 0.525355 0.319884
Si Si3 0.332711 0.662141 0.020651
Si Si4 0.081465 0.523466 0.933577
Si Si5 0.585650 0.339972 0.235931
O O1 0.364429 0.747345 0.037217
O O2 0.356978 0.863474 0.853510
O O3 0.254280 0.843614 0.036673
O O4 0.404813 0.885811 0.087837
O O5 0.750000 0.500000 0.271207
O O6 0.659230 0.617088 0.341897
O O7 0.650761 0.496648 0.467146
O O8 0.599929 0.493878 0.215562
O O9 0.385691 0.627219 0.904057
O O10 0.000000 0.500000 0.000000
O O11 0.582952 0.250000 0.250000
O O12 0.500000 0.374993 0.250000
#
# Coordination Sequence:
#
# PCOD8283112 Si02
#       5
#    16  16  16  16  16
#     4  10  23  42  72 108 148 199 255 327 389 461
#     4  12  27  48  75 109 153 208 262 326 396 484
#     4  10  23  43  72 110 149 193 265 321 386 466
#     4  12  29  49  72 108 157 207 258 324 402 480
#     4   9  20  39  68 106 147 194 246 311 390 469
#
# _framework density 25.783643999999999
#
# number of rings (size 3 to 8) (size 9 to 14) (size 15 to 20)
#    0.000    1.400    2.000    1.200    8.400    0.800 
#    0.000    0.000    0.000    2.400    0.000    0.000 
#    0.000    0.000    0.000    0.000    0.000    0.000 
#
# Total GULP energy -495621.333249 kJ/mol
# GULP energy per Si atom -12390.533331 kJ/mol
# Density = 2.572496 g / cm^3
# Si number density = 25.783644 Si / 1000 Ang^3
#
#
#
# Elastic Constant Matrix: (Units=GPa)
#
#
# Indices 1 2 3 4 5 6 
#
# 1 141.9159 27.8896 57.2544 0.0000 0.0000 0.0000
# 2 27.8896 73.0423 36.0566 0.0000 0.0000 0.0000
# 3 57.2544 36.0566 143.6212 0.0000 0.0000 0.0000
# 4 0.0000 0.0000 0.0000 38.4446 0.0000 0.0000
# 5 0.0000 0.0000 0.0000 0.0000 48.7858 0.0000
# 6 0.0000 0.0000 0.0000 0.0000 0.0000 36.6136
#
#
#
# Elastic Compliance Matrix: (Units=1/GPa)
#
#
# Indices 1 2 3 4 5 6 
#
# 1 0.008603 -0.001817 -0.002973 0.000000 0.000000 0.000000
# 2 -0.001817 0.016011 -0.003295 0.000000 0.000000 0.000000
# 3 -0.002973 -0.003295 0.008975 0.000000 0.000000 0.000000
# 4 0.000000 0.000000 0.000000 0.026011 0.000000 0.000000
# 5 0.000000 0.000000 0.000000 0.000000 0.020498 0.000000
# 6 0.000000 0.000000 0.000000 0.000000 0.000000 0.027312
#
#
# Mechanical properties :
#
#
# Convention : Reuss Voigt Hill
#
# Bulk Modulus (GPa) = 57.41157 66.77561 62.09359
# Shear Modulus (GPa) = 38.64320 40.59405 39.61862
#
# Velocity S-wave (km/s) = 3.87557 3.97219 3.92418
# Velocity P-wave (km/s) = 6.50705 6.85510 6.68334
#
# Compressibility (1/GPa) = 0.01741809
#
# Stress axis : x y z
#
# Youngs Moduli (GPa) = 116.23680 62.45631 111.41558
#
# Poissons Ratio (x) = 0.11349 0.33129
# Poissons Ratio (y) = 0.21122 0.36714
# Poissons Ratio (z) = 0.34562 0.20581
#
# Static dielectric constant tensor:
#      x y z
#    x 4.316760 0.000000 0.000000 
#    y 0.000000 5.540630 0.000000 
#    z 0.000000 0.000000 4.710620 
# 
# 
# High freq. dielectric constant tensor:
#      x y z
#    x 2.010000 0.000000 0.000000 
#    y 0.000000 2.073030 0.000000 
#    z 0.000000 0.000000 2.019230 
# 
# From -- ./inp_files/22140.got.cif
#   From: 2010.03.12/outbox.cif.g09.slc.cpg/sg68_12_cif.got.tgz:22140.got - 2010.04.10 23:14:56.
