data_PCOD8283490
_publ_section_title
;
Structure prediction by ZEFSAII (Michael W. Deem and Ramdas Pophale) SiO2 
 PCOD8283490
Probable space group: C C C A
;
_chemical_formula_sum "Si O2"
_cell_formula_units_Z 64
_cell_length_a 8.435820
_cell_length_b 25.119266
_cell_length_c 13.548803
_cell_angle_alpha 90.000000
_cell_angle_beta 90.000000
_cell_angle_gamma 90.000000
_cell_volume 2871.013122
_symmetry_space_group_name_H-M "C C C A"
_symmetry_group_IT_number 68
_space_group.IT_coordinate_system_code '2'
_symmetry_cell_setting 'orthorhombic'
loop_
_space_group_symop_operation_xyz
x,y,z
-x,1/2-y,z
x,1/2-y,1/2-z
-x,y,1/2-z
-x,-y,-z
x,1/2+y,-z
-x,1/2+y,1/2+z
x,-y,1/2+z
1/2+x,1/2+y,z
1/2-x,-y,z
1/2+x,-y,1/2-z
1/2-x,1/2+y,1/2-z
1/2-x,1/2-y,-z
1/2+x,y,-z
1/2-x,y,1/2+z
1/2+x,1/2-y,1/2+z
loop_
_atom_site_type_symbol
_atom_site_label
_atom_site_fract_x
_atom_site_fract_y
_atom_site_fract_z
Si Si1 0.200409 0.939133 0.584932
Si Si2 0.623572 0.117848 0.578476
Si Si3 0.137439 0.287351 0.939234
Si Si4 0.183051 0.140351 0.729575
O O1 0.241455 0.914577 0.478727
O O2 0.302155 0.916275 0.675484
O O3 0.016434 0.923965 0.604353
O O4 0.250000 0.000000 0.582114
O O5 0.563067 0.166629 0.510080
O O6 0.703021 0.142725 0.676207
O O7 0.234841 0.313616 0.848271
O O8 0.000000 0.250000 0.895560
O O9 0.250000 0.250000 0.000000
O O10 0.000000 0.150280 0.750000
#
# Coordination Sequence:
#
# PCOD8283490 Si02
#       4
#    16  16  16  16
#     4  11  24  42  66  95 128 173 218 271 336 396
#     4  11  23  43  65  95 134 169 222 282 330 396
#     4  11  23  41  65  94 130 176 224 271 332 396
#     4  11  24  42  64  96 133 172 221 276 327 392
#
# _framework density 22.291782000000001
#
# number of rings (size 3 to 8) (size 9 to 14) (size 15 to 20)
#    0.000    1.000    0.000    9.000    0.000    6.500 
#    0.000    1.250    0.000    0.000    0.000    0.000 
#    0.000    0.000    0.000    0.000    0.000    0.000 
#
# Total GULP energy -396731.333761 kJ/mol
# GULP energy per Si atom -12397.854180 kJ/mol
# Density = 2.224104 g / cm^3
# Si number density = 22.291782 Si / 1000 Ang^3
#
#
#
# Elastic Constant Matrix: (Units=GPa)
#
#
# Indices 1 2 3 4 5 6 
#
# 1 101.8085 38.5377 36.4389 0.0000 0.0000 0.0000
# 2 38.5377 143.9407 64.3837 0.0000 0.0000 0.0000
# 3 36.4389 64.3837 145.5648 0.0000 0.0000 0.0000
# 4 0.0000 0.0000 0.0000 28.3577 0.0000 0.0000
# 5 0.0000 0.0000 0.0000 0.0000 38.5802 0.0000
# 6 0.0000 0.0000 0.0000 0.0000 0.0000 36.1516
#
#
#
# Elastic Compliance Matrix: (Units=1/GPa)
#
#
# Indices 1 2 3 4 5 6 
#
# 1 0.011321 -0.002198 -0.001862 0.000000 0.000000 0.000000
# 2 -0.002198 0.009088 -0.003469 0.000000 0.000000 0.000000
# 3 -0.001862 -0.003469 0.008870 0.000000 0.000000 0.000000
# 4 0.000000 0.000000 0.000000 0.035264 0.000000 0.000000
# 5 0.000000 0.000000 0.000000 0.000000 0.025920 0.000000
# 6 0.000000 0.000000 0.000000 0.000000 0.000000 0.027661
#
#
# Mechanical properties :
#
#
# Convention : Reuss Voigt Hill
#
# Bulk Modulus (GPa) = 70.32101 74.44828 72.38465
# Shear Modulus (GPa) = 36.25236 37.41479 36.83358
#
# Velocity S-wave (km/s) = 4.03707 4.10129 4.06931
# Velocity P-wave (km/s) = 7.30375 7.47644 7.39060
#
# Compressibility (1/GPa) = 0.01422050
#
# Stress axis : x y z
#
# Youngs Moduli (GPa) = 88.33313 110.04005 112.73661
#
# Poissons Ratio (x) = 0.24190 0.20987
# Poissons Ratio (y) = 0.19418 0.39110
# Poissons Ratio (z) = 0.16444 0.38175
#
# Static dielectric constant tensor:
#      x y z
#    x 3.190470 0.000000 0.000000 
#    y 0.000000 3.975950 0.000000 
#    z 0.000000 0.000000 4.319500 
# 
# 
# High freq. dielectric constant tensor:
#      x y z
#    x 1.872700 0.000000 0.000000 
#    y 0.000000 1.882820 0.000000 
#    z 0.000000 0.000000 1.888770 
# 
# From -- ./inp_files/19216.got.cif
#   From: 2010.03.12/outbox.cif.g09.slc.cpg/sg68_10_cif.got.tgz:19216.got - 2010.04.10 23:14:56.
