data_PCOD8283059
_publ_section_title
;
Structure prediction by ZEFSAII (Michael W. Deem and Ramdas Pophale) SiO2 
 PCOD8283059
Probable space group: C C C A
;
_chemical_formula_sum "Si O2"
_cell_formula_units_Z 104
_cell_length_a 22.026664
_cell_length_b 9.107074
_cell_length_c 25.526597
_cell_angle_alpha 90.000000
_cell_angle_beta 90.000000
_cell_angle_gamma 90.000000
_cell_volume 5120.596022
_symmetry_space_group_name_H-M "C C C A"
_symmetry_group_IT_number 68
_space_group.IT_coordinate_system_code '2'
_symmetry_cell_setting 'orthorhombic'
loop_
_space_group_symop_operation_xyz
x,y,z
-x,1/2-y,z
x,1/2-y,1/2-z
-x,y,1/2-z
-x,-y,-z
x,1/2+y,-z
-x,1/2+y,1/2+z
x,-y,1/2+z
1/2+x,1/2+y,z
1/2-x,-y,z
1/2+x,-y,1/2-z
1/2-x,1/2+y,1/2-z
1/2-x,1/2-y,-z
1/2+x,y,-z
1/2-x,y,1/2+z
1/2+x,1/2-y,1/2+z
loop_
_atom_site_type_symbol
_atom_site_label
_atom_site_fract_x
_atom_site_fract_y
_atom_site_fract_z
Si Si1 0.624027 0.227722 0.325621
Si Si2 0.378129 0.498854 0.502943
Si Si3 0.068019 0.742598 0.433780
Si Si4 0.850110 0.250000 0.250000
Si Si5 0.257654 0.327831 0.840729
Si Si6 0.299642 0.745293 0.454709
Si Si7 0.428342 0.024104 0.255125
O O1 0.614814 0.219254 0.387166
O O2 0.696249 0.242661 0.316654
O O3 0.586812 0.361604 0.300948
O O4 0.598582 0.078873 0.300057
O O5 0.424597 0.395888 0.471722
O O6 0.417911 0.604074 0.538786
O O7 0.338698 0.597082 0.462765
O O8 0.337591 0.395259 0.540076
O O9 0.000000 0.750000 0.412051
O O10 0.810381 0.297261 0.200524
O O11 0.894502 0.376114 0.270602
O O12 0.250000 0.500000 0.849352
O O13 0.271444 0.254315 0.896827
O O14 0.250000 0.750000 0.500000
O O15 0.500000 0.999235 0.250000
#
# Coordination Sequence:
#
# PCOD8283059 Si02
#       7
#    16  16  16   8  16  16  16
#     4  11  23  41  69  95 125 174 215 264 332 388
#     4  10  23  39  62  94 129 169 222 266 329 384
#     4  11  22  41  64  92 128 174 223 270 324 390
#     4  12  27  42  68 100 129 172 212 270 342 378
#     4  12  24  42  66  97 140 168 213 275 327 392
#     4  11  22  41  65  95 131 174 212 269 328 393
#     4  11  24  46  67  94 128 167 221 270 318 395
#
# _framework density 20.310137000000001
#
# number of rings (size 3 to 8) (size 9 to 14) (size 15 to 20)
#    0.000    0.923    1.538    7.615    2.154    0.000 
#    0.000    0.000    0.000    0.000    0.000    0.000 
#    0.000    0.000    0.000    0.000    0.000    0.000 
#
# Total GULP energy -644967.914126 kJ/mol
# GULP energy per Si atom -12403.229118 kJ/mol
# Density = 2.026391 g / cm^3
# Si number density = 20.310137 Si / 1000 Ang^3
#
#
#
# Elastic Constant Matrix: (Units=GPa)
#
#
# Indices 1 2 3 4 5 6 
#
# 1 134.4632 34.8587 28.1616 0.0000 0.0000 0.0000
# 2 34.8587 110.6535 25.1239 0.0000 0.0000 0.0000
# 3 28.1616 25.1239 105.0820 0.0000 0.0000 0.0000
# 4 0.0000 0.0000 0.0000 18.3925 0.0000 0.0000
# 5 0.0000 0.0000 0.0000 0.0000 30.5763 0.0000
# 6 0.0000 0.0000 0.0000 0.0000 0.0000 23.8786
#
#
#
# Elastic Compliance Matrix: (Units=1/GPa)
#
#
# Indices 1 2 3 4 5 6 
#
# 1 0.008378 -0.002252 -0.001707 0.000000 0.000000 0.000000
# 2 -0.002252 0.010161 -0.001826 0.000000 0.000000 0.000000
# 3 -0.001707 -0.001826 0.010410 0.000000 0.000000 0.000000
# 4 0.000000 0.000000 0.000000 0.054370 0.000000 0.000000
# 5 0.000000 0.000000 0.000000 0.000000 0.032705 0.000000
# 6 0.000000 0.000000 0.000000 0.000000 0.000000 0.041879
#
#
# Mechanical properties :
#
#
# Convention : Reuss Voigt Hill
#
# Bulk Modulus (GPa) = 57.53605 58.49858 58.01731
# Shear Modulus (GPa) = 28.52803 32.03978 30.28391
#
# Velocity S-wave (km/s) = 3.75189 3.97612 3.86563
# Velocity P-wave (km/s) = 6.86725 7.06714 6.96792
#
# Compressibility (1/GPa) = 0.01738041
#
# Stress axis : x y z
#
# Youngs Moduli (GPa) = 119.35672 98.41384 96.05778
#
# Poissons Ratio (x) = 0.22161 0.16397
# Poissons Ratio (y) = 0.26877 0.17540
# Poissons Ratio (z) = 0.20374 0.17970
#
# Static dielectric constant tensor:
#      x y z
#    x 4.064020 0.000000 0.000000 
#    y 0.000000 3.858550 0.000000 
#    z 0.000000 0.000000 3.647690 
# 
# 
# High freq. dielectric constant tensor:
#      x y z
#    x 1.805730 0.000000 0.000000 
#    y 0.000000 1.802820 0.000000 
#    z 0.000000 0.000000 1.794050 
# 
# From -- ./inp_files/51845.got.cif
#   From: 2010.03.12/outbox.cif.g09.slc.cpg/sg68_26_cif.got.tgz:51845.got - 2010.04.10 23:14:56.
