data_PCOD8283257
_publ_section_title
;
Structure prediction by ZEFSAII (Michael W. Deem and Ramdas Pophale) SiO2 
 PCOD8283257
Probable space group: C C C A
;
_chemical_formula_sum "Si O2"
_cell_formula_units_Z 72
_cell_length_a 12.500770
_cell_length_b 27.749340
_cell_length_c 9.355095
_cell_angle_alpha 90.000000
_cell_angle_beta 90.000000
_cell_angle_gamma 90.000000
_cell_volume 3245.171289
_symmetry_space_group_name_H-M "C C C A"
_symmetry_group_IT_number 68
_space_group.IT_coordinate_system_code '2'
_symmetry_cell_setting 'orthorhombic'
loop_
_space_group_symop_operation_xyz
x,y,z
-x,1/2-y,z
x,1/2-y,1/2-z
-x,y,1/2-z
-x,-y,-z
x,1/2+y,-z
-x,1/2+y,1/2+z
x,-y,1/2+z
1/2+x,1/2+y,z
1/2-x,-y,z
1/2+x,-y,1/2-z
1/2-x,1/2+y,1/2-z
1/2-x,1/2-y,-z
1/2+x,y,-z
1/2-x,y,1/2+z
1/2+x,1/2-y,1/2+z
loop_
_atom_site_type_symbol
_atom_site_label
_atom_site_fract_x
_atom_site_fract_y
_atom_site_fract_z
Si Si1 0.250000 0.000000 0.754601
Si Si2 0.602309 0.964407 0.996161
Si Si3 0.789177 0.782609 0.370082
Si Si4 0.440065 0.198657 0.623223
Si Si5 0.037971 0.137507 0.593510
O O1 0.327574 0.969826 0.649303
O O2 0.174776 0.968839 0.860887
O O3 0.559383 0.910284 0.996364
O O4 0.500000 0.000000 0.000000
O O5 0.849376 0.750000 0.250000
O O6 0.750000 0.750000 0.500000
O O7 0.677099 0.800315 0.307884
O O8 0.859314 0.828017 0.413498
O O9 0.500000 0.250000 0.593102
O O10 0.500000 0.170737 0.750000
O O11 0.440912 0.166860 0.479813
O O12 0.000000 0.123026 0.750000
#
# Coordination Sequence:
#
# PCOD8283257 Si02
#       5
#     8  16  16  16  16
#     4  10  24  46  78 100 144 180 238 300 380 428
#     4  11  25  48  73 107 144 186 238 310 370 444
#     4  12  23  39  63  89 131 182 227 287 339 406
#     4  11  22  42  62  91 133 182 237 283 346 418
#     4  12  27  41  68 102 139 183 242 286 367 434
#
# _framework density 22.186810999999999
#
# number of rings (size 3 to 8) (size 9 to 14) (size 15 to 20)
#    0.000    0.667    4.444    3.333    0.000   10.667 
#    0.000    0.000    0.000    0.000    0.000    0.000 
#    0.000    0.000    0.000    0.000    0.000    0.000 
#
# Total GULP energy -446031.343459 kJ/mol
# GULP energy per Si atom -12389.759541 kJ/mol
# Density = 2.213631 g / cm^3
# Si number density = 22.186811 Si / 1000 Ang^3
#
#
#
# Elastic Constant Matrix: (Units=GPa)
#
#
# Indices 1 2 3 4 5 6 
#
# 1 103.2109 42.4300 19.5781 0.0000 0.0000 0.0000
# 2 42.4300 131.5171 34.7526 0.0000 0.0000 0.0000
# 3 19.5781 34.7526 118.5330 0.0000 0.0000 0.0000
# 4 0.0000 0.0000 0.0000 31.1028 0.0000 0.0000
# 5 0.0000 0.0000 0.0000 0.0000 44.8482 0.0000
# 6 0.0000 0.0000 0.0000 0.0000 0.0000 29.4521
#
#
#
# Elastic Compliance Matrix: (Units=1/GPa)
#
#
# Indices 1 2 3 4 5 6 
#
# 1 0.011251 -0.003402 -0.000861 0.000000 0.000000 0.000000
# 2 -0.003402 0.009271 -0.002156 0.000000 0.000000 0.000000
# 3 -0.000861 -0.002156 0.009211 0.000000 0.000000 0.000000
# 4 0.000000 0.000000 0.000000 0.032151 0.000000 0.000000
# 5 0.000000 0.000000 0.000000 0.000000 0.022297 0.000000
# 6 0.000000 0.000000 0.000000 0.000000 0.000000 0.033953
#
#
# Mechanical properties :
#
#
# Convention : Reuss Voigt Hill
#
# Bulk Modulus (GPa) = 59.19221 60.75359 59.97290
# Shear Modulus (GPa) = 36.60192 38.18065 37.39129
#
# Velocity S-wave (km/s) = 4.06608 4.15284 4.10969
# Velocity P-wave (km/s) = 6.98433 7.10190 7.04336
#
# Compressibility (1/GPa) = 0.01689411
#
# Stress axis : x y z
#
# Youngs Moduli (GPa) = 88.88209 107.86351 108.56800
#
# Poissons Ratio (x) = 0.36698 0.09345
# Poissons Ratio (y) = 0.30240 0.23409
# Poissons Ratio (z) = 0.07651 0.23257
#
# Static dielectric constant tensor:
#      x y z
#    x 3.546850 0.000000 0.000000 
#    y 0.000000 3.688780 0.000000 
#    z 0.000000 0.000000 4.518960 
# 
# 
# High freq. dielectric constant tensor:
#      x y z
#    x 1.886470 0.000000 0.000000 
#    y 0.000000 1.853440 0.000000 
#    z 0.000000 0.000000 1.895730 
# 
# From -- ./inp_files/5220.got.cif
#   From: 2010.03.12/outbox.cif.g09.slc.cpg/sg68_3_cif.got.tgz:5220.got - 2010.04.10 23:14:56.
