data_PCOD8283178
_publ_section_title
;
Structure prediction by ZEFSAII (Michael W. Deem and Ramdas Pophale) SiO2 
 PCOD8283178
Probable space group: C C C A
;
_chemical_formula_sum "Si O2"
_cell_formula_units_Z 56
_cell_length_a 10.764711
_cell_length_b 8.747623
_cell_length_c 27.780480
_cell_angle_alpha 90.000000
_cell_angle_beta 90.000000
_cell_angle_gamma 90.000000
_cell_volume 2615.966499
_symmetry_space_group_name_H-M "C C C A"
_symmetry_group_IT_number 68
_space_group.IT_coordinate_system_code '2'
_symmetry_cell_setting 'orthorhombic'
loop_
_space_group_symop_operation_xyz
x,y,z
-x,1/2-y,z
x,1/2-y,1/2-z
-x,y,1/2-z
-x,-y,-z
x,1/2+y,-z
-x,1/2+y,1/2+z
x,-y,1/2+z
1/2+x,1/2+y,z
1/2-x,-y,z
1/2+x,-y,1/2-z
1/2-x,1/2+y,1/2-z
1/2-x,1/2-y,-z
1/2+x,y,-z
1/2-x,y,1/2+z
1/2+x,1/2-y,1/2+z
loop_
_atom_site_type_symbol
_atom_site_label
_atom_site_fract_x
_atom_site_fract_y
_atom_site_fract_z
Si Si1 0.500000 0.250000 0.986956
Si Si2 0.607879 0.855013 0.666211
Si Si3 0.628299 0.184753 0.696977
Si Si4 0.388453 0.457088 0.061894
O O1 0.544515 0.387471 0.953749
O O2 0.395493 0.322598 0.022108
O O3 0.500000 0.750000 0.688616
O O4 0.745825 0.774831 0.666422
O O5 0.559906 0.898961 0.612758
O O6 0.614825 0.002501 0.700195
O O7 0.500000 0.250000 0.673192
O O8 0.645289 0.250000 0.750000
O O9 0.250000 0.500000 0.072188
#
# Coordination Sequence:
#
# PCOD8283178 Si02
#       4
#     8  16  16  16
#     4  10  24  38  68  96 134 174 218 270 320 386
#     4  11  24  42  70  98 132 169 221 277 323 397
#     4  10  24  45  67  94 127 171 219 271 336 396
#     4  11  21  42  64  97 131 172 219 265 325 383
#
# _framework density 21.407001000000001
#
# number of rings (size 3 to 8) (size 9 to 14) (size 15 to 20)
#    0.000    1.429    4.286    0.857    2.000   10.857 
#    0.000    0.000    0.000    0.000    0.000    0.000 
#    0.000    0.000    0.000    0.000    0.000    0.000 
#
# Total GULP energy -346974.835502 kJ/mol
# GULP energy per Si atom -12391.958411 kJ/mol
# Density = 2.135828 g / cm^3
# Si number density = 21.407001 Si / 1000 Ang^3
#
#
#
# Elastic Constant Matrix: (Units=GPa)
#
#
# Indices 1 2 3 4 5 6 
#
# 1 145.1820 63.5304 18.5267 0.0000 0.0000 0.0000
# 2 63.5304 100.0581 48.1799 0.0000 0.0000 0.0000
# 3 18.5267 48.1799 105.9625 0.0000 0.0000 0.0000
# 4 0.0000 0.0000 0.0000 44.1889 0.0000 0.0000
# 5 0.0000 0.0000 0.0000 0.0000 30.6372 0.0000
# 6 0.0000 0.0000 0.0000 0.0000 0.0000 37.0346
#
#
#
# Elastic Compliance Matrix: (Units=1/GPa)
#
#
# Indices 1 2 3 4 5 6 
#
# 1 0.009701 -0.006840 0.001414 0.000000 0.000000 0.000000
# 2 -0.006840 0.017619 -0.006815 0.000000 0.000000 0.000000
# 3 0.001414 -0.006815 0.012289 0.000000 0.000000 0.000000
# 4 0.000000 0.000000 0.000000 0.022630 0.000000 0.000000
# 5 0.000000 0.000000 0.000000 0.000000 0.032640 0.000000
# 6 0.000000 0.000000 0.000000 0.000000 0.000000 0.027002
#
#
# Mechanical properties :
#
#
# Convention : Reuss Voigt Hill
#
# Bulk Modulus (GPa) = 66.11199 67.96406 67.03802
# Shear Modulus (GPa) = 33.02406 37.10320 35.06363
#
# Velocity S-wave (km/s) = 3.93195 4.16772 4.05155
# Velocity P-wave (km/s) = 7.18081 7.41467 7.29868
#
# Compressibility (1/GPa) = 0.01512585
#
# Stress axis : x y z
#
# Youngs Moduli (GPa) = 103.08574 56.75731 81.37476
#
# Poissons Ratio (x) = 0.38823 -0.11507
# Poissons Ratio (y) = 0.70513 0.55458
# Poissons Ratio (z) = -0.14577 0.38681
#
# Static dielectric constant tensor:
#      x y z
#    x 4.612640 0.000000 0.000000 
#    y 0.000000 4.029500 0.000000 
#    z 0.000000 0.000000 3.695020 
# 
# 
# High freq. dielectric constant tensor:
#      x y z
#    x 1.845070 0.000000 0.000000 
#    y 0.000000 1.842360 0.000000 
#    z 0.000000 0.000000 1.833320 
# 
# From -- ./inp_files/48717.got.cif
#   From: 2010.03.12/outbox.cif.g09.slc.cpg/sg68_25_cif.got.tgz:48717.got - 2010.04.10 23:14:56.
