data_PCOD8283390
_publ_section_title
;
Structure prediction by ZEFSAII (Michael W. Deem and Ramdas Pophale) SiO2 
 PCOD8283390
Probable space group: C C C A
;
_chemical_formula_sum "Si O2"
_cell_formula_units_Z 96
_cell_length_a 20.315153
_cell_length_b 12.451670
_cell_length_c 17.525497
_cell_angle_alpha 90.000000
_cell_angle_beta 90.000000
_cell_angle_gamma 90.000000
_cell_volume 4433.207330
_symmetry_space_group_name_H-M "C C C A"
_symmetry_group_IT_number 68
_space_group.IT_coordinate_system_code '2'
_symmetry_cell_setting 'orthorhombic'
loop_
_space_group_symop_operation_xyz
x,y,z
-x,1/2-y,z
x,1/2-y,1/2-z
-x,y,1/2-z
-x,-y,-z
x,1/2+y,-z
-x,1/2+y,1/2+z
x,-y,1/2+z
1/2+x,1/2+y,z
1/2-x,-y,z
1/2+x,-y,1/2-z
1/2-x,1/2+y,1/2-z
1/2-x,1/2-y,-z
1/2+x,y,-z
1/2-x,y,1/2+z
1/2+x,1/2-y,1/2+z
loop_
_atom_site_type_symbol
_atom_site_label
_atom_site_fract_x
_atom_site_fract_y
_atom_site_fract_z
Si Si1 0.943062 0.826724 0.590599
Si Si2 0.134409 0.463986 0.985212
Si Si3 0.811865 0.064266 0.635387
Si Si4 0.360981 0.135901 0.633376
Si Si5 0.273016 0.292179 0.418284
Si Si6 0.431279 0.526971 0.225292
O O1 0.928783 0.907203 0.521547
O O2 0.879153 0.758184 0.613402
O O3 0.000000 0.750000 0.561626
O O4 0.963731 0.889638 0.666128
O O5 0.180528 0.510889 0.051941
O O6 0.109177 0.560328 0.932668
O O7 0.170026 0.378562 0.930608
O O8 0.798522 0.191377 0.631236
O O9 0.878756 0.051731 0.684928
O O10 0.750000 0.000000 0.673199
O O11 0.281707 0.141473 0.629816
O O12 0.390215 0.094042 0.712402
O O13 0.250000 0.250000 0.500000
O O14 0.500000 0.466647 0.250000
#
# Coordination Sequence:
#
# PCOD8283390 Si02
#       6
#    16  16  16  16  16  16
#     4  11  22  40  66  94 130 172 223 276 329 393
#     4  11  22  39  64 100 134 167 217 278 336 395
#     4  11  21  40  66  98 133 173 219 280 340 393
#     4  12  23  39  65  96 134 172 220 273 333 399
#     4  12  20  39  68  97 131 165 215 276 333 399
#     4  11  25  44  65  96 136 179 226 280 333 400
#
# _framework density 21.654751999999998
#
# number of rings (size 3 to 8) (size 9 to 14) (size 15 to 20)
#    0.000    0.667    6.667    2.000    0.000    2.000 
#    3.000    2.500    0.000    1.000    0.000    0.000 
#    0.000    0.000    0.000    0.000    0.000    0.000 
#
# Total GULP energy -595035.449665 kJ/mol
# GULP energy per Si atom -12396.571868 kJ/mol
# Density = 2.160546 g / cm^3
# Si number density = 21.654752 Si / 1000 Ang^3
#
#
#
# Elastic Constant Matrix: (Units=GPa)
#
#
# Indices 1 2 3 4 5 6 
#
# 1 114.1741 32.8106 54.2205 0.0000 0.0000 0.0000
# 2 32.8106 77.0085 54.1001 0.0000 0.0000 0.0000
# 3 54.2205 54.1001 66.6748 0.0000 0.0000 0.0000
# 4 0.0000 0.0000 0.0000 12.5736 0.0000 0.0000
# 5 0.0000 0.0000 0.0000 0.0000 19.8188 0.0000
# 6 0.0000 0.0000 0.0000 0.0000 0.0000 35.2559
#
#
#
# Elastic Compliance Matrix: (Units=1/GPa)
#
#
# Indices 1 2 3 4 5 6 
#
# 1 0.015082 0.005094 -0.016398 0.000000 0.000000 0.000000
# 2 0.005094 0.031922 -0.030044 0.000000 0.000000 0.000000
# 3 -0.016398 -0.030044 0.052711 0.000000 0.000000 0.000000
# 4 0.000000 0.000000 0.000000 0.079532 0.000000 0.000000
# 5 0.000000 0.000000 0.000000 0.000000 0.050457 0.000000
# 6 0.000000 0.000000 0.000000 0.000000 0.000000 0.028364
#
#
# Mechanical properties :
#
#
# Convention : Reuss Voigt Hill
#
# Bulk Modulus (GPa) = 58.75873 60.01331 59.38602
# Shear Modulus (GPa) = 14.43266 21.31140 17.87203
#
# Velocity S-wave (km/s) = 2.58445 3.14051 2.87595
# Velocity P-wave (km/s) = 6.00825 6.39721 6.20578
#
# Compressibility (1/GPa) = 0.01701875
#
# Stress axis : x y z
#
# Youngs Moduli (GPa) = 66.30396 31.32679 18.97136
#
# Poissons Ratio (x) = -0.15959 0.31110
# Poissons Ratio (y) = -0.33777 0.56997
# Poissons Ratio (z) = 1.08727 0.94118
#
# Static dielectric constant tensor:
#      x y z
#    x 3.887740 0.000000 0.000000 
#    y 0.000000 4.045250 0.000000 
#    z 0.000000 0.000000 3.803990 
# 
# 
# High freq. dielectric constant tensor:
#      x y z
#    x 1.854870 0.000000 0.000000 
#    y 0.000000 1.848540 0.000000 
#    z 0.000000 0.000000 1.836210 
# 
# From -- ./inp_files/40243.got.cif
#   From: 2010.03.12/outbox.cif.g09.slc.cpg/sg68_21_cif.got.tgz:40243.got - 2010.04.10 23:14:56.
