data_PCOD8283350
_publ_section_title
;
Structure prediction by ZEFSAII (Michael W. Deem and Ramdas Pophale) SiO2 
 PCOD8283350
Probable space group: C C C A
;
_chemical_formula_sum "Si O2"
_cell_formula_units_Z 72
_cell_length_a 23.363238
_cell_length_b 4.898211
_cell_length_c 28.617343
_cell_angle_alpha 90.000000
_cell_angle_beta 90.000000
_cell_angle_gamma 90.000000
_cell_volume 3274.913483
_symmetry_space_group_name_H-M "C C C A"
_symmetry_group_IT_number 68
_space_group.IT_coordinate_system_code '2'
_symmetry_cell_setting 'orthorhombic'
loop_
_space_group_symop_operation_xyz
x,y,z
-x,1/2-y,z
x,1/2-y,1/2-z
-x,y,1/2-z
-x,-y,-z
x,1/2+y,-z
-x,1/2+y,1/2+z
x,-y,1/2+z
1/2+x,1/2+y,z
1/2-x,-y,z
1/2+x,-y,1/2-z
1/2-x,1/2+y,1/2-z
1/2-x,1/2-y,-z
1/2+x,y,-z
1/2-x,y,1/2+z
1/2+x,1/2-y,1/2+z
loop_
_atom_site_type_symbol
_atom_site_label
_atom_site_fract_x
_atom_site_fract_y
_atom_site_fract_z
Si Si1 0.810484 0.598380 0.581377
Si Si2 0.250000 0.500000 0.219430
Si Si3 0.082205 0.269408 0.470488
Si Si4 0.462703 0.521470 0.124634
Si Si5 0.336645 0.912332 0.857832
O O1 0.750000 0.500000 0.560497
O O2 0.849641 0.716100 0.539753
O O3 0.840083 0.348759 0.608493
O O4 0.801543 0.840053 0.618463
O O5 0.225545 0.250000 0.250000
O O6 0.302712 0.367222 0.190223
O O7 0.065867 0.575515 0.485915
O O8 0.049709 0.163978 0.425303
O O9 0.500000 0.750000 0.152376
O O10 0.403364 0.479207 0.152191
O O11 0.500000 0.250000 0.118824
#
# Coordination Sequence:
#
# PCOD8283350 Si02
#       5
#    16   8  16  16  16
#     4  11  20  37  61  82 120 171 205 246 311 368
#     4  12  24  40  70 104 128 150 180 242 322 366
#     4  11  23  36  53  86 122 159 215 274 317 347
#     4  11  23  40  63  85 115 171 219 252 300 356
#     4  11  22  41  63  93 126 154 203 248 292 379
#
# _framework density 21.985313999999999
#
# number of rings (size 3 to 8) (size 9 to 14) (size 15 to 20)
#    0.000    0.889    2.222    8.000    0.000    3.556 
#    0.000    0.000    0.000    4.000    0.000    0.000 
#    0.000    0.000    0.000    0.000    0.000    0.000 
#
# Total GULP energy -446240.327375 kJ/mol
# GULP energy per Si atom -12395.564649 kJ/mol
# Density = 2.193527 g / cm^3
# Si number density = 21.985314 Si / 1000 Ang^3
#
#
#
# Elastic Constant Matrix: (Units=GPa)
#
#
# Indices 1 2 3 4 5 6 
#
# 1 146.6288 37.1157 36.2696 0.0000 0.0000 0.0000
# 2 37.1157 141.5597 19.4392 0.0000 0.0000 0.0000
# 3 36.2696 19.4392 46.0964 0.0000 0.0000 0.0000
# 4 0.0000 0.0000 0.0000 24.1949 0.0000 0.0000
# 5 0.0000 0.0000 0.0000 0.0000 10.1458 0.0000
# 6 0.0000 0.0000 0.0000 0.0000 0.0000 44.6456
#
#
#
# Elastic Compliance Matrix: (Units=1/GPa)
#
#
# Indices 1 2 3 4 5 6 
#
# 1 0.008732 -0.001429 -0.006268 0.000000 0.000000 0.000000
# 2 -0.001429 0.007732 -0.002137 0.000000 0.000000 0.000000
# 3 -0.006268 -0.002137 0.027526 0.000000 0.000000 0.000000
# 4 0.000000 0.000000 0.000000 0.041331 0.000000 0.000000
# 5 0.000000 0.000000 0.000000 0.000000 0.098563 0.000000
# 6 0.000000 0.000000 0.000000 0.000000 0.000000 0.022399
#
#
# Mechanical properties :
#
#
# Convention : Reuss Voigt Hill
#
# Bulk Modulus (GPa) = 41.11161 57.77043 49.44102
# Shear Modulus (GPa) = 21.36222 31.89461 26.62841
#
# Velocity S-wave (km/s) = 3.12053 3.81297 3.48399
# Velocity P-wave (km/s) = 5.63238 6.76157 6.22264
#
# Compressibility (1/GPa) = 0.02432403
#
# Stress axis : x y z
#
# Youngs Moduli (GPa) = 114.52080 129.33008 36.32866
#
# Poissons Ratio (x) = 0.18478 0.22771
# Poissons Ratio (y) = 0.16362 0.07762
# Poissons Ratio (z) = 0.71782 0.27632
#
# Static dielectric constant tensor:
#      x y z
#    x 4.211350 0.000000 0.000000 
#    y 0.000000 3.986950 0.000000 
#    z 0.000000 0.000000 3.509880 
# 
# 
# High freq. dielectric constant tensor:
#      x y z
#    x 1.884590 0.000000 0.000000 
#    y 0.000000 1.892450 0.000000 
#    z 0.000000 0.000000 1.804620 
# 
# From -- ./inp_files/55887.got.cif
#   From: 2010.03.12/outbox.cif.g09.slc.cpg/sg68_28_cif.got.tgz:55887.got - 2010.04.10 23:14:56.
