data_PCOD8283120
_publ_section_title
;
Structure prediction by ZEFSAII (Michael W. Deem and Ramdas Pophale) SiO2 
 PCOD8283120
Probable space group: C C C A
;
_chemical_formula_sum "Si O2"
_cell_formula_units_Z 48
_cell_length_a 13.857644
_cell_length_b 27.435670
_cell_length_c 5.200678
_cell_angle_alpha 90.000000
_cell_angle_beta 90.000000
_cell_angle_gamma 90.000000
_cell_volume 1977.265260
_symmetry_space_group_name_H-M "C C C A"
_symmetry_group_IT_number 68
_space_group.IT_coordinate_system_code '2'
_symmetry_cell_setting 'orthorhombic'
loop_
_space_group_symop_operation_xyz
x,y,z
-x,1/2-y,z
x,1/2-y,1/2-z
-x,y,1/2-z
-x,-y,-z
x,1/2+y,-z
-x,1/2+y,1/2+z
x,-y,1/2+z
1/2+x,1/2+y,z
1/2-x,-y,z
1/2+x,-y,1/2-z
1/2-x,1/2+y,1/2-z
1/2-x,1/2-y,-z
1/2+x,y,-z
1/2-x,y,1/2+z
1/2+x,1/2-y,1/2+z
loop_
_atom_site_type_symbol
_atom_site_label
_atom_site_fract_x
_atom_site_fract_y
_atom_site_fract_z
Si Si1 0.186854 0.127979 0.596930
Si Si2 0.392311 0.271371 0.497124
Si Si3 0.611857 0.524040 0.700379
O O1 0.269820 0.132017 0.382615
O O2 0.109478 0.170156 0.528549
O O3 0.128170 0.077881 0.590343
O O4 0.500000 0.250000 0.498820
O O5 0.339064 0.250000 0.750000
O O6 0.336077 0.250000 0.250000
O O7 0.500000 0.513673 0.750000
O O8 0.657722 0.487551 0.482110
#
# Coordination Sequence:
#
# PCOD8283120 Si02
#       3
#    16  16  16
#     4  12  26  42  68 104 135 173 220 281 344 399
#     4  10  23  43  66  95 126 183 223 272 329 402
#     4  10  23  44  68  99 134 180 225 266 323 404
#
# _framework density 24.275953999999999
#
# number of rings (size 3 to 8) (size 9 to 14) (size 15 to 20)
#    0.000    1.333    0.000    4.000    4.667    8.000 
#   12.000    0.000    0.000    0.000    0.000    0.000 
#    0.000    0.000    0.000    0.000    0.000    0.000 
#
# Total GULP energy -297362.222479 kJ/mol
# GULP energy per Si atom -12390.092603 kJ/mol
# Density = 2.422070 g / cm^3
# Si number density = 24.275954 Si / 1000 Ang^3
#
#
#
# Elastic Constant Matrix: (Units=GPa)
#
#
# Indices 1 2 3 4 5 6 
#
# 1 51.9879 24.2838 15.0371 0.0000 0.0000 0.0000
# 2 24.2838 205.9237 78.5099 0.0000 0.0000 0.0000
# 3 15.0371 78.5099 233.5681 0.0000 0.0000 0.0000
# 4 0.0000 0.0000 0.0000 47.8075 0.0000 0.0000
# 5 0.0000 0.0000 0.0000 0.0000 3.2648 0.0000
# 6 0.0000 0.0000 0.0000 0.0000 0.0000 45.8770
#
#
#
# Elastic Compliance Matrix: (Units=1/GPa)
#
#
# Indices 1 2 3 4 5 6 
#
# 1 0.020425 -0.002188 -0.000580 0.000000 0.000000 0.000000
# 2 -0.002188 0.005804 -0.001810 0.000000 0.000000 0.000000
# 3 -0.000580 -0.001810 0.004927 0.000000 0.000000 0.000000
# 4 0.000000 0.000000 0.000000 0.020917 0.000000 0.000000
# 5 0.000000 0.000000 0.000000 0.000000 0.306294 0.000000
# 6 0.000000 0.000000 0.000000 0.000000 0.000000 0.021797
#
#
# Mechanical properties :
#
#
# Convention : Reuss Voigt Hill
#
# Bulk Modulus (GPa) = 45.45169 80.79346 63.12258
# Shear Modulus (GPa) = 12.60546 44.29980 28.45263
#
# Velocity S-wave (km/s) = 2.28119 4.27645 3.42724
# Velocity P-wave (km/s) = 5.06972 7.59852 6.45909
#
# Compressibility (1/GPa) = 0.02200138
#
# Stress axis : x y z
#
# Youngs Moduli (GPa) = 48.96027 172.28645 202.95584
#
# Poissons Ratio (x) = 0.37690 0.11763
# Poissons Ratio (y) = 0.10711 0.36738
# Poissons Ratio (z) = 0.02838 0.31187
#
# Static dielectric constant tensor:
#      x y z
#    x 3.664200 0.000000 0.000000 
#    y 0.000000 4.425070 0.000000 
#    z 0.000000 0.000000 -3.553050 
# 
# 
# High freq. dielectric constant tensor:
#      x y z
#    x 1.948670 0.000000 0.000000 
#    y 0.000000 1.964670 0.000000 
#    z 0.000000 0.000000 2.003730 
# 
# From -- ./inp_files/526.got.cif
#   From: 2010.03.12/outbox.cif.g09.slc.cpg/sg68_1_cif.got.tgz:526.got - 2010.04.10 23:14:56.
