data_PCOD8283375
_publ_section_title
;
Structure prediction by ZEFSAII (Michael W. Deem and Ramdas Pophale) SiO2 
 PCOD8283375
Probable space group: C C C A
;
_chemical_formula_sum "Si O2"
_cell_formula_units_Z 104
_cell_length_a 27.787413
_cell_length_b 22.458712
_cell_length_c 7.881138
_cell_angle_alpha 90.000000
_cell_angle_beta 90.000000
_cell_angle_gamma 90.000000
_cell_volume 4918.377897
_symmetry_space_group_name_H-M "C C C A"
_symmetry_group_IT_number 68
_space_group.IT_coordinate_system_code '2'
_symmetry_cell_setting 'orthorhombic'
loop_
_space_group_symop_operation_xyz
x,y,z
-x,1/2-y,z
x,1/2-y,1/2-z
-x,y,1/2-z
-x,-y,-z
x,1/2+y,-z
-x,1/2+y,1/2+z
x,-y,1/2+z
1/2+x,1/2+y,z
1/2-x,-y,z
1/2+x,-y,1/2-z
1/2-x,1/2+y,1/2-z
1/2-x,1/2-y,-z
1/2+x,y,-z
1/2-x,y,1/2+z
1/2+x,1/2-y,1/2+z
loop_
_atom_site_type_symbol
_atom_site_label
_atom_site_fract_x
_atom_site_fract_y
_atom_site_fract_z
Si Si1 0.983786 0.816445 0.437593
Si Si2 0.183392 0.610819 0.555597
Si Si3 0.232283 0.565985 0.231255
Si Si4 0.100649 0.454135 0.246025
Si Si5 0.368685 0.576689 0.615304
Si Si6 0.000000 0.897987 0.750000
Si Si7 0.121946 0.187727 0.658415
O O1 0.926122 0.813537 0.453465
O O2 0.000000 0.750000 0.473098
O O3 0.000000 0.838339 0.250000
O O4 0.007418 0.857829 0.581939
O O5 0.210508 0.570331 0.417937
O O6 0.223821 0.614172 0.704016
O O7 0.134633 0.578446 0.610873
O O8 0.167107 0.673085 0.468043
O O9 0.250000 0.500000 0.202047
O O10 0.189169 0.576354 0.097935
O O11 0.110130 0.428513 0.430442
O O12 0.110694 0.524462 0.236837
O O13 0.045028 0.440559 0.208921
O O14 0.384725 0.638884 0.695290
O O15 0.131887 0.250000 0.750000
#
# Coordination Sequence:
#
# PCOD8283375 Si02
#       7
#    16  16  16  16  16   8  16
#     4  11  22  43  73 101 137 186 249 293 343 423
#     4  11  23  40  67 104 141 174 239 288 358 418
#     4  11  21  37  71 103 131 179 228 291 348 425
#     4  12  25  44  65 103 144 183 223 301 354 436
#     4  11  25  43  68 102 143 178 235 285 366 426
#     4  12  27  44  68 108 143 188 242 288 370 436
#     4  11  23  46  70 100 141 188 232 297 354 426
#
# _framework density 21.145181999999998
#
# number of rings (size 3 to 8) (size 9 to 14) (size 15 to 20)
#    0.000    0.769    4.615    4.385    0.000    0.615 
#    1.385    3.846    0.000    0.000    0.000    0.000 
#    0.000    0.000    0.000    0.000    0.000    0.000 
#
# Total GULP energy -644684.594228 kJ/mol
# GULP energy per Si atom -12397.780658 kJ/mol
# Density = 2.109705 g / cm^3
# Si number density = 21.145182 Si / 1000 Ang^3
#
#
#
# Elastic Constant Matrix: (Units=GPa)
#
#
# Indices 1 2 3 4 5 6 
#
# 1 156.3973 47.7127 38.3259 0.0000 0.0000 0.0000
# 2 47.7127 131.6853 42.7283 0.0000 0.0000 0.0000
# 3 38.3259 42.7283 99.5133 0.0000 0.0000 0.0000
# 4 0.0000 0.0000 0.0000 4.9949 0.0000 0.0000
# 5 0.0000 0.0000 0.0000 0.0000 37.9647 0.0000
# 6 0.0000 0.0000 0.0000 0.0000 0.0000 37.8843
#
#
#
# Elastic Compliance Matrix: (Units=1/GPa)
#
#
# Indices 1 2 3 4 5 6 
#
# 1 0.007518 -0.002073 -0.002005 0.000000 0.000000 0.000000
# 2 -0.002073 0.009395 -0.003235 0.000000 0.000000 0.000000
# 3 -0.002005 -0.003235 0.012210 0.000000 0.000000 0.000000
# 4 0.000000 0.000000 0.000000 0.200203 0.000000 0.000000
# 5 0.000000 0.000000 0.000000 0.000000 0.026340 0.000000
# 6 0.000000 0.000000 0.000000 0.000000 0.000000 0.026396
#
#
# Mechanical properties :
#
#
# Convention : Reuss Voigt Hill
#
# Bulk Modulus (GPa) = 68.98755 71.68108 70.33431
# Shear Modulus (GPa) = 16.58253 33.42407 25.00330
#
# Velocity S-wave (km/s) = 2.80344 3.98011 3.44242
# Velocity P-wave (km/s) = 6.57081 7.42258 7.00964
#
# Compressibility (1/GPa) = 0.01449537
#
# Stress axis : x y z
#
# Youngs Moduli (GPa) = 133.01679 106.44123 81.89772
#
# Poissons Ratio (x) = 0.22068 0.16422
# Poissons Ratio (y) = 0.27578 0.26497
# Poissons Ratio (z) = 0.26672 0.34438
#
# Static dielectric constant tensor:
#      x y z
#    x 4.520810 0.000000 0.000000 
#    y 0.000000 3.641130 0.000000 
#    z 0.000000 0.000000 3.912750 
# 
# 
# High freq. dielectric constant tensor:
#      x y z
#    x 1.847690 0.000000 0.000000 
#    y 0.000000 1.803960 0.000000 
#    z 0.000000 0.000000 1.836980 
# 
# From -- ./inp_files/8992.got.cif
#   From: 2010.03.12/outbox.cif.g09.slc.cpg/sg68_5_cif.got.tgz:8992.got - 2010.04.10 23:14:56.
