data_PCOD8283097
_publ_section_title
;
Structure prediction by ZEFSAII (Michael W. Deem and Ramdas Pophale) SiO2 
 PCOD8283097
Probable space group: C C C A
;
_chemical_formula_sum "Si O2"
_cell_formula_units_Z 80
_cell_length_a 9.857157
_cell_length_b 12.553228
_cell_length_c 27.361342
_cell_angle_alpha 90.000000
_cell_angle_beta 90.000000
_cell_angle_gamma 90.000000
_cell_volume 3385.668908
_symmetry_space_group_name_H-M "C C C A"
_symmetry_group_IT_number 68
_space_group.IT_coordinate_system_code '2'
_symmetry_cell_setting 'orthorhombic'
loop_
_space_group_symop_operation_xyz
x,y,z
-x,1/2-y,z
x,1/2-y,1/2-z
-x,y,1/2-z
-x,-y,-z
x,1/2+y,-z
-x,1/2+y,1/2+z
x,-y,1/2+z
1/2+x,1/2+y,z
1/2-x,-y,z
1/2+x,-y,1/2-z
1/2-x,1/2+y,1/2-z
1/2-x,1/2-y,-z
1/2+x,y,-z
1/2-x,y,1/2+z
1/2+x,1/2-y,1/2+z
loop_
_atom_site_type_symbol
_atom_site_label
_atom_site_fract_x
_atom_site_fract_y
_atom_site_fract_z
Si Si1 0.750000 0.000000 0.509373
Si Si2 0.380849 0.376449 0.589960
Si Si3 0.250000 0.000000 0.739787
Si Si4 0.182532 0.360312 0.422030
Si Si5 0.114721 0.112911 0.660784
Si Si6 0.806633 0.652480 0.324406
O O1 0.632872 0.041536 0.545411
O O2 0.813242 0.092607 0.476244
O O3 0.314550 0.266242 0.571244
O O4 0.538902 0.381944 0.604837
O O5 0.299254 0.402637 0.638993
O O6 0.127290 0.016968 0.700670
O O7 0.241883 0.106066 0.772436
O O8 0.310147 0.409372 0.391172
O O9 0.192545 0.219458 0.680489
O O10 0.954689 0.123238 0.654390
#
# Coordination Sequence:
#
# PCOD8283097 Si02
#       6
#     8  16   8  16  16  16
#     4  12  22  36  64  94 122 160 204 250 306 368
#     4  10  23  42  62  88 123 161 204 254 305 360
#     4  12  22  34  64  96 118 148 200 254 294 350
#     4  10  23  42  62  88 123 161 204 254 305 360
#     4  10  23  43  64  88 123 165 205 248 304 368
#     4  10  23  43  64  88 123 165 205 248 304 368
#
# _framework density 23.629007999999999
#
# number of rings (size 3 to 8) (size 9 to 14) (size 15 to 20)
#    0.000    1.600    0.000    3.600    0.000   11.200 
#    0.000    4.000    0.000    9.600    0.000    0.000 
#    0.000    0.000    0.000    0.000    0.000    0.000 
#
# Total GULP energy -495529.321637 kJ/mol
# GULP energy per Si atom -12388.233041 kJ/mol
# Density = 2.357523 g / cm^3
# Si number density = 23.629008 Si / 1000 Ang^3
#
#
#
# Elastic Constant Matrix: (Units=GPa)
#
#
# Indices 1 2 3 4 5 6 
#
# 1 102.4827 25.6060 47.9424 0.0000 0.0000 0.0000
# 2 25.6060 38.2452 25.8392 0.0000 0.0000 0.0000
# 3 47.9424 25.8392 141.9620 0.0000 0.0000 0.0000
# 4 0.0000 0.0000 0.0000 37.7580 0.0000 0.0000
# 5 0.0000 0.0000 0.0000 0.0000 24.7400 0.0000
# 6 0.0000 0.0000 0.0000 0.0000 0.0000 35.2880
#
#
#
# Elastic Compliance Matrix: (Units=1/GPa)
#
#
# Indices 1 2 3 4 5 6 
#
# 1 0.012854 -0.006469 -0.003164 0.000000 0.000000 0.000000
# 2 -0.006469 0.033069 -0.003834 0.000000 0.000000 0.000000
# 3 -0.003164 -0.003834 0.008810 0.000000 0.000000 0.000000
# 4 0.000000 0.000000 0.000000 0.026484 0.000000 0.000000
# 5 0.000000 0.000000 0.000000 0.000000 0.040420 0.000000
# 6 0.000000 0.000000 0.000000 0.000000 0.000000 0.028338
#
#
# Mechanical properties :
#
#
# Convention : Reuss Voigt Hill
#
# Bulk Modulus (GPa) = 35.97159 53.49612 44.73386
# Shear Modulus (GPa) = 26.85634 31.77737 29.31685
#
# Velocity S-wave (km/s) = 3.37498 3.67119 3.52620
# Velocity P-wave (km/s) = 5.51760 6.37647 5.96252
#
# Compressibility (1/GPa) = 0.02779972
#
# Stress axis : x y z
#
# Youngs Moduli (GPa) = 77.79733 30.24014 113.50179
#
# Poissons Ratio (x) = 0.19561 0.35907
# Poissons Ratio (y) = 0.50324 0.43522
# Poissons Ratio (z) = 0.24611 0.11595
#
# Static dielectric constant tensor:
#      x y z
#    x 4.040560 0.000000 0.000000 
#    y 0.000000 4.649040 0.000000 
#    z 0.000000 0.000000 4.208630 
# 
# 
# High freq. dielectric constant tensor:
#      x y z
#    x 1.923470 0.000000 0.000000 
#    y 0.000000 1.953600 0.000000 
#    z 0.000000 0.000000 1.937210 
# 
# From -- ./inp_files/44139.got.cif
#   From: 2010.03.12/outbox.cif.g09.slc.cpg/sg68_23_cif.got.tgz:44139.got - 2010.04.10 23:14:56.
