data_PCOD8283840
_publ_section_title
;
Structure prediction by ZEFSAII (Michael W. Deem and Ramdas Pophale) SiO2 
 PCOD8283840
Probable space group: F M M M
;
_chemical_formula_sum "Si O2"
_cell_formula_units_Z 208
_cell_length_a 30.733005
_cell_length_b 18.362387
_cell_length_c 22.560454
_cell_angle_alpha 90.000000
_cell_angle_beta 90.000000
_cell_angle_gamma 90.000000
_cell_volume 12731.571045
_symmetry_space_group_name_H-M "F M M M"
_symmetry_group_IT_number 69
_symmetry_cell_setting 'orthorhombic'
loop_
_space_group_symop_operation_xyz
x,y,z
-x,-y,z
x,-y,-z
-x,y,-z
-x,-y,-z
x,y,-z
-x,y,z
x,-y,z
x,1/2+y,1/2+z
-x,1/2-y,1/2+z
x,1/2-y,1/2-z
-x,1/2+y,1/2-z
-x,1/2-y,1/2-z
x,1/2+y,1/2-z
-x,1/2+y,1/2+z
x,1/2-y,1/2+z
1/2+x,y,1/2+z
1/2-x,-y,1/2+z
1/2+x,-y,1/2-z
1/2-x,y,1/2-z
1/2-x,-y,1/2-z
1/2+x,y,1/2-z
1/2-x,y,1/2+z
1/2+x,-y,1/2+z
1/2+x,1/2+y,z
1/2-x,1/2-y,z
1/2+x,1/2-y,-z
1/2-x,1/2+y,-z
1/2-x,1/2-y,-z
1/2+x,1/2+y,-z
1/2-x,1/2+y,z
1/2+x,1/2-y,z
loop_
_atom_site_type_symbol
_atom_site_label
_atom_site_fract_x
_atom_site_fract_y
_atom_site_fract_z
Si Si1 0.051504 0.583453 0.500000
Si Si2 0.619467 0.418988 0.315583
Si Si3 0.375464 0.078821 0.678434
Si Si4 0.049823 0.294226 0.191223
Si Si5 0.298617 0.833751 0.180140
Si Si6 0.950487 0.155686 0.879281
Si Si7 0.202917 0.670470 0.321037
O O1 0.069986 0.500000 0.500000
O O2 0.067411 0.630502 0.556559
O O3 0.000000 0.579600 0.500000
O O4 0.609550 0.500000 0.342541
O O5 0.631687 0.428992 0.247738
O O6 0.578470 0.365194 0.322944
O O7 0.662840 0.384485 0.346291
O O8 0.421905 0.116298 0.670094
O O9 0.335295 0.122800 0.649519
O O10 0.376005 0.000000 0.647605
O O11 0.066068 0.250000 0.250000
O O12 0.053266 0.242216 0.133094
O O13 0.000000 0.319452 0.201399
O O14 0.250451 0.861604 0.160887
O O15 0.304055 0.752143 0.154934
O O16 0.301593 0.830108 0.250626
O O17 0.000000 0.129402 0.870418
#
# Coordination Sequence:
#
# PCOD8283840 Si02
#       7
#    16  32  32  32  32  32  32
#     4   9  18  32  48  68  93 118 151 199 242 276
#     4  10  19  27  39  61  89 120 151 186 227 271
#     4  10  18  25  37  59  87 118 148 182 221 267
#     4  10  19  31  45  62  87 121 156 190 227 274
#     4   8  14  24  38  52  75 112 150 183 218 262
#     4  10  19  31  47  64  86 121 159 190 228 277
#     4   8  14  24  37  54  75 110 151 183 217 263
#
# _framework density 16.337339
#
# number of rings (size 3 to 8) (size 9 to 14) (size 15 to 20)
#    0.000    2.692    1.538    2.308    2.154    1.846 
#    0.000    4.615    0.000    0.000    0.000    0.538 
#    0.000   12.923    0.000    1.923    0.000    0.077 
#
# Total GULP energy -644240.603616 kJ/mol
# GULP energy per Si atom -12389.242377 kJ/mol
# Density = 1.630015 g / cm^3
# Si number density = 16.337339 Si / 1000 Ang^3
#
#
#
# Elastic Constant Matrix: (Units=GPa)
#
#
# Indices 1 2 3 4 5 6 
#
# 1 115.2002 69.5136 6.7238 0.0000 0.0000 0.0000
# 2 69.5136 119.5092 14.4366 0.0000 0.0000 0.0000
# 3 6.7238 14.4366 24.8255 0.0000 0.0000 0.0000
# 4 0.0000 0.0000 0.0000 14.7482 0.0000 0.0000
# 5 0.0000 0.0000 0.0000 0.0000 4.4879 0.0000
# 6 0.0000 0.0000 0.0000 0.0000 0.0000 19.6663
#
#
#
# Elastic Compliance Matrix: (Units=1/GPa)
#
#
# Indices 1 2 3 4 5 6 
#
# 1 0.013397 -0.007910 0.000971 0.000000 0.000000 0.000000
# 2 -0.007910 0.013670 -0.005807 0.000000 0.000000 0.000000
# 3 0.000971 -0.005807 0.043395 0.000000 0.000000 0.000000
# 4 0.000000 0.000000 0.000000 0.067805 0.000000 0.000000
# 5 0.000000 0.000000 0.000000 0.000000 0.222822 0.000000
# 6 0.000000 0.000000 0.000000 0.000000 0.000000 0.050848
#
#
# Mechanical properties :
#
#
# Convention : Reuss Voigt Hill
#
# Bulk Modulus (GPa) = 22.23675 48.98700 35.61187
# Shear Modulus (GPa) = 11.05174 19.03787 15.04481
#
# Velocity S-wave (km/s) = 2.60373 3.41735 3.03790
# Velocity P-wave (km/s) = 4.76233 6.75432 5.84382
#
# Compressibility (1/GPa) = 0.04497060
#
# Stress axis : x y z
#
# Youngs Moduli (GPa) = 74.64567 73.15440 23.04415
#
# Poissons Ratio (x) = 0.57862 -0.02238
# Poissons Ratio (y) = 0.59042 0.13382
# Poissons Ratio (z) = -0.07250 0.42480
#
# Static dielectric constant tensor:
#      x y z
#    x 3.257740 0.000000 0.000000 
#    y 0.000000 3.421230 0.000000 
#    z 0.000000 0.000000 2.572900 
# 
# 
# High freq. dielectric constant tensor:
#      x y z
#    x 1.639120 0.000000 0.000000 
#    y 0.000000 1.632270 0.000000 
#    z 0.000000 0.000000 1.543070 
# 
# From -- ./inp_files/39090.got.cif
#   From: 2010.03.12/outbox.cif.g09.slc.cpg/sg69_20_cif.got.tgz:39090.got - 2010.04.10 23:52:46.
