data_PCOD8283801
_publ_section_title
;
Structure prediction by ZEFSAII (Michael W. Deem and Ramdas Pophale) SiO2 
 PCOD8283801
Probable space group: F M M M
;
_chemical_formula_sum "Si O2"
_cell_formula_units_Z 160
_cell_length_a 14.035136
_cell_length_b 27.273729
_cell_length_c 23.748333
_cell_angle_alpha 90.000000
_cell_angle_beta 90.000000
_cell_angle_gamma 90.000000
_cell_volume 9090.636162
_symmetry_space_group_name_H-M "F M M M"
_symmetry_group_IT_number 69
_symmetry_cell_setting 'orthorhombic'
loop_
_space_group_symop_operation_xyz
x,y,z
-x,-y,z
x,-y,-z
-x,y,-z
-x,-y,-z
x,y,-z
-x,y,z
x,-y,z
x,1/2+y,1/2+z
-x,1/2-y,1/2+z
x,1/2-y,1/2-z
-x,1/2+y,1/2-z
-x,1/2-y,1/2-z
x,1/2+y,1/2-z
-x,1/2+y,1/2+z
x,1/2-y,1/2+z
1/2+x,y,1/2+z
1/2-x,-y,1/2+z
1/2+x,-y,1/2-z
1/2-x,y,1/2-z
1/2-x,-y,1/2-z
1/2+x,y,1/2-z
1/2-x,y,1/2+z
1/2+x,-y,1/2+z
1/2+x,1/2+y,z
1/2-x,1/2-y,z
1/2+x,1/2-y,-z
1/2-x,1/2+y,-z
1/2-x,1/2-y,-z
1/2+x,1/2+y,-z
1/2-x,1/2+y,z
1/2+x,1/2-y,z
loop_
_atom_site_type_symbol
_atom_site_label
_atom_site_fract_x
_atom_site_fract_y
_atom_site_fract_z
Si Si1 0.389425 0.343631 0.437188
Si Si2 0.611247 0.946744 0.101807
Si Si3 0.776658 0.693732 0.832480
Si Si4 0.394694 0.654501 0.770473
Si Si5 0.645568 0.553474 0.272692
O O1 0.371205 0.322831 0.500000
O O2 0.500000 0.335554 0.419482
O O3 0.364990 0.401915 0.439672
O O4 0.319616 0.316318 0.394104
O O5 0.500000 0.950804 0.112115
O O6 0.656753 0.933323 0.161709
O O7 0.648779 0.000000 0.078904
O O8 0.750000 0.750000 0.827171
O O9 0.678948 0.663115 0.821913
O O10 0.854740 0.680733 0.785433
O O11 0.500000 0.675710 0.784944
O O12 0.409583 0.596496 0.759506
O O13 0.595007 0.500000 0.264850
O O14 0.750000 0.550860 0.250000
#
# Coordination Sequence:
#
# PCOD8283801 Si02
#       5
#    32  32  32  32  32
#     4  10  20  35  56  78 102 135 172 214 264 313
#     4   9  16  27  45  71 103 134 161 195 244 302
#     4  11  23  37  52  74 103 134 176 223 266 304
#     4  11  20  34  55  78 106 138 173 210 258 313
#     4  10  17  27  47  75 109 141 167 198 245 306
#
# _framework density 17.600529000000002
#
# number of rings (size 3 to 8) (size 9 to 14) (size 15 to 20)
#    0.000    1.800    4.000    2.400    0.000    4.400 
#    0.000    2.000    0.000    0.600    0.000    0.000 
#    0.000    0.000    0.000   11.200    0.000    0.200 
#
# Total GULP energy -495621.275763 kJ/mol
# GULP energy per Si atom -12390.531894 kJ/mol
# Density = 1.756047 g / cm^3
# Si number density = 17.600529 Si / 1000 Ang^3
#
#
#
# Elastic Constant Matrix: (Units=GPa)
#
#
# Indices 1 2 3 4 5 6 
#
# 1 97.8414 26.6728 39.2884 0.0000 0.0000 0.0000
# 2 26.6728 101.9557 29.3034 0.0000 0.0000 0.0000
# 3 39.2884 29.3034 79.3998 0.0000 0.0000 0.0000
# 4 0.0000 0.0000 0.0000 89.8393 0.0000 0.0000
# 5 0.0000 0.0000 0.0000 0.0000 70.0994 0.0000
# 6 0.0000 0.0000 0.0000 0.0000 0.0000 8.5005
#
#
#
# Elastic Compliance Matrix: (Units=1/GPa)
#
#
# Indices 1 2 3 4 5 6 
#
# 1 0.013025 -0.001740 -0.005803 0.000000 0.000000 0.000000
# 2 -0.001740 0.011204 -0.003274 0.000000 0.000000 0.000000
# 3 -0.005803 -0.003274 0.016674 0.000000 0.000000 0.000000
# 4 0.000000 0.000000 0.000000 0.011131 0.000000 0.000000
# 5 0.000000 0.000000 0.000000 0.000000 0.014265 0.000000
# 6 0.000000 0.000000 0.000000 0.000000 0.000000 0.117640
#
#
# Mechanical properties :
#
#
# Convention : Reuss Voigt Hill
#
# Bulk Modulus (GPa) = 51.89442 52.19180 52.04311
# Shear Modulus (GPa) = 23.58522 45.95001 34.76762
#
# Velocity S-wave (km/s) = 3.66461 5.11506 4.44934
# Velocity P-wave (km/s) = 6.88872 8.03760 7.48523
#
# Compressibility (1/GPa) = 0.01926989
#
# Stress axis : x y z
#
# Youngs Moduli (GPa) = 76.77500 89.25093 59.97251
#
# Poissons Ratio (x) = 0.15527 0.34802
# Poissons Ratio (y) = 0.13356 0.19637
# Poissons Ratio (z) = 0.44552 0.29223
#
# Static dielectric constant tensor:
#      x y z
#    x 3.122230 0.000000 0.000000 
#    y 0.000000 3.822880 0.000000 
#    z 0.000000 0.000000 3.006380 
# 
# 
# High freq. dielectric constant tensor:
#      x y z
#    x 1.663570 0.000000 0.000000 
#    y 0.000000 1.693480 0.000000 
#    z 0.000000 0.000000 1.651560 
# 
# From -- ./inp_files/18884.got.cif
#   From: 2010.03.12/outbox.cif.g09.slc.cpg/sg69_10_cif.got.tgz:18884.got - 2010.04.10 23:52:46.
