data_PCOD8283640
_publ_section_title
;
Structure prediction by ZEFSAII (Michael W. Deem and Ramdas Pophale) SiO2 
 PCOD8283640
Probable space group: C C C A
;
_chemical_formula_sum "Si O2"
_cell_formula_units_Z 88
_cell_length_a 24.566216
_cell_length_b 13.207435
_cell_length_c 11.934238
_cell_angle_alpha 90.000000
_cell_angle_beta 90.000000
_cell_angle_gamma 90.000000
_cell_volume 3872.143491
_symmetry_space_group_name_H-M "C C C A"
_symmetry_group_IT_number 68
_space_group.IT_coordinate_system_code '2'
_symmetry_cell_setting 'orthorhombic'
loop_
_space_group_symop_operation_xyz
x,y,z
-x,1/2-y,z
x,1/2-y,1/2-z
-x,y,1/2-z
-x,-y,-z
x,1/2+y,-z
-x,1/2+y,1/2+z
x,-y,1/2+z
1/2+x,1/2+y,z
1/2-x,-y,z
1/2+x,-y,1/2-z
1/2-x,1/2+y,1/2-z
1/2-x,1/2-y,-z
1/2+x,y,-z
1/2-x,y,1/2+z
1/2+x,1/2-y,1/2+z
loop_
_atom_site_type_symbol
_atom_site_label
_atom_site_fract_x
_atom_site_fract_y
_atom_site_fract_z
Si Si1 0.299034 0.930592 0.383433
Si Si2 0.607513 0.457816 0.274370
Si Si3 0.247347 0.750000 0.250000
Si Si4 0.949052 0.818065 0.066033
Si Si5 0.446279 0.647730 0.310333
Si Si6 0.153924 0.185153 0.592339
O O1 0.283522 0.847120 0.287794
O O2 0.330814 0.878211 0.484059
O O3 0.250000 0.000000 0.428641
O O4 0.337561 0.019337 0.339515
O O5 0.558317 0.417304 0.354718
O O6 0.596769 0.560498 0.207520
O O7 0.619335 0.373354 0.183860
O O8 0.210332 0.726164 0.357774
O O9 0.888462 0.771545 0.058788
O O10 0.000000 0.750000 0.111755
O O11 0.963209 0.844746 0.939236
O O12 0.424470 0.750000 0.250000
O O13 0.500000 0.610763 0.250000
#
# Coordination Sequence:
#
# PCOD8283640 Si02
#       6
#    16  16   8  16  16  16
#     4  12  27  46  78 108 149 206 251 323 387 441
#     4  12  27  46  74 112 152 190 262 309 370 466
#     4  12  26  50  73 108 153 198 256 318 384 454
#     4  12  26  49  78 110 153 203 243 316 387 451
#     4  11  25  47  71 107 152 194 256 303 373 454
#     4  12  26  49  73 114 150 194 262 309 382 466
#
# _framework density 22.726430000000001
#
# number of rings (size 3 to 8) (size 9 to 14) (size 15 to 20)
#    0.000    0.182    5.455    2.727    8.909    1.455 
#    0.000    0.000    0.000    0.000    0.000    0.000 
#    0.000    0.000    0.000    0.000    0.000    0.000 
#
# Total GULP energy -545423.241797 kJ/mol
# GULP energy per Si atom -12395.982768 kJ/mol
# Density = 2.267470 g / cm^3
# Si number density = 22.726430 Si / 1000 Ang^3
#
#
#
# Elastic Constant Matrix: (Units=GPa)
#
#
# Indices 1 2 3 4 5 6 
#
# 1 91.1870 26.7949 29.4076 0.0000 0.0000 0.0000
# 2 26.7949 85.4716 13.8083 0.0000 0.0000 0.0000
# 3 29.4076 13.8083 95.1865 0.0000 0.0000 0.0000
# 4 0.0000 0.0000 0.0000 441.4134 0.0000 0.0000
# 5 0.0000 0.0000 0.0000 0.0000 52.7639 0.0000
# 6 0.0000 0.0000 0.0000 0.0000 0.0000 57.6581
#
#
#
# Elastic Compliance Matrix: (Units=1/GPa)
#
#
# Indices 1 2 3 4 5 6 
#
# 1 0.013154 -0.003550 -0.003549 0.000000 0.000000 0.000000
# 2 -0.003550 0.012939 -0.000780 0.000000 0.000000 0.000000
# 3 -0.003549 -0.000780 0.011715 0.000000 0.000000 0.000000
# 4 0.000000 0.000000 0.000000 0.002265 0.000000 0.000000
# 5 0.000000 0.000000 0.000000 0.000000 0.018952 0.000000
# 6 0.000000 0.000000 0.000000 0.000000 0.000000 0.017344
#
#
# Mechanical properties :
#
#
# Convention : Reuss Voigt Hill
#
# Bulk Modulus (GPa) = 45.35250 45.76297 45.55773
# Shear Modulus (GPa) = 50.26206 123.82269 87.04237
#
# Velocity S-wave (km/s) = 4.70788 7.38934 6.19542
# Velocity P-wave (km/s) = 7.03927 9.64278 8.44199
#
# Compressibility (1/GPa) = 0.02204950
#
# Stress axis : x y z
#
# Youngs Moduli (GPa) = 76.02089 77.28652 85.35860
#
# Poissons Ratio (x) = 0.27440 0.30293
# Poissons Ratio (y) = 0.26991 0.06659
# Poissons Ratio (z) = 0.26979 0.06029
#
# Static dielectric constant tensor:
#      x y z
#    x 4.197140 0.000000 0.000000 
#    y 0.000000 4.214950 0.000000 
#    z 0.000000 0.000000 3.761170 
# 
# 
# High freq. dielectric constant tensor:
#      x y z
#    x 1.906890 0.000000 0.000000 
#    y 0.000000 1.906920 0.000000 
#    z 0.000000 0.000000 1.901760 
# 
# From -- ./inp_files/16300.got.cif
#   From: 2010.03.12/outbox.cif.g09.slc.cpg/sg68_9_cif.got.tgz:16300.got - 2010.04.10 23:14:56.
