data_PCOD8283548
_publ_section_title
;
Structure prediction by ZEFSAII (Michael W. Deem and Ramdas Pophale) SiO2 
 PCOD8283548
Probable space group: C C C A
;
_chemical_formula_sum "Si O2"
_cell_formula_units_Z 96
_cell_length_a 21.404656
_cell_length_b 14.788784
_cell_length_c 14.226429
_cell_angle_alpha 90.000000
_cell_angle_beta 90.000000
_cell_angle_gamma 90.000000
_cell_volume 4503.359514
_symmetry_space_group_name_H-M "C C C A"
_symmetry_group_IT_number 68
_space_group.IT_coordinate_system_code '2'
_symmetry_cell_setting 'orthorhombic'
loop_
_space_group_symop_operation_xyz
x,y,z
-x,1/2-y,z
x,1/2-y,1/2-z
-x,y,1/2-z
-x,-y,-z
x,1/2+y,-z
-x,1/2+y,1/2+z
x,-y,1/2+z
1/2+x,1/2+y,z
1/2-x,-y,z
1/2+x,-y,1/2-z
1/2-x,1/2+y,1/2-z
1/2-x,1/2-y,-z
1/2+x,y,-z
1/2-x,y,1/2+z
1/2+x,1/2-y,1/2+z
loop_
_atom_site_type_symbol
_atom_site_label
_atom_site_fract_x
_atom_site_fract_y
_atom_site_fract_z
Si Si1 0.325967 0.497676 0.789640
Si Si2 0.982315 0.352767 0.498828
Si Si3 0.104891 0.324773 0.823988
Si Si4 0.820114 0.729136 0.009499
Si Si5 0.382407 0.410311 0.973268
Si Si6 0.132364 0.567709 0.599172
O O1 0.250000 0.500000 0.797537
O O2 0.360334 0.593549 0.770044
O O3 0.358386 0.462295 0.882867
O O4 0.347070 0.429794 0.707317
O O5 0.950166 0.356550 0.603377
O O6 0.937259 0.393953 0.418845
O O7 0.000000 0.250000 0.474303
O O8 0.043278 0.414845 0.490284
O O9 0.078461 0.250000 0.750000
O O10 0.159704 0.276979 0.882632
O O11 0.861620 0.807108 0.962985
O O12 0.823405 0.633936 0.958141
O O13 0.750000 0.750000 0.000000
O O14 0.355449 0.465691 0.062028
#
# Coordination Sequence:
#
# PCOD8283548 Si02
#       6
#    16  16  16  16  16  16
#     4  12  28  45  71 110 145 188 249 295 364 450
#     4  11  23  50  71 102 144 182 246 296 370 439
#     4  11  24  47  71 108 138 189 246 304 362 429
#     4  11  24  44  72 101 143 196 235 299 370 430
#     4  12  24  48  75  99 148 192 237 308 361 439
#     4  11  26  45  70 106 142 195 236 302 367 426
#
# _framework density 21.317418
#
# number of rings (size 3 to 8) (size 9 to 14) (size 15 to 20)
#    0.000    0.667    6.667    2.500    4.667    1.667 
#    0.000    0.833    0.000    0.000    0.000    0.000 
#    0.000    0.000    0.000    0.000    0.000    0.000 
#
# Total GULP energy -594783.974408 kJ/mol
# GULP energy per Si atom -12391.332800 kJ/mol
# Density = 2.126890 g / cm^3
# Si number density = 21.317418 Si / 1000 Ang^3
#
#
#
# Elastic Constant Matrix: (Units=GPa)
#
#
# Indices 1 2 3 4 5 6 
#
# 1 172.1089 36.1061 56.9023 0.0000 0.0000 0.0000
# 2 36.1061 79.3663 31.2228 0.0000 0.0000 0.0000
# 3 56.9023 31.2228 97.7332 0.0000 0.0000 0.0000
# 4 0.0000 0.0000 0.0000 38.4539 0.0000 0.0000
# 5 0.0000 0.0000 0.0000 0.0000 21.5354 0.0000
# 6 0.0000 0.0000 0.0000 0.0000 0.0000 36.4125
#
#
#
# Elastic Compliance Matrix: (Units=1/GPa)
#
#
# Indices 1 2 3 4 5 6 
#
# 1 0.007443 -0.001923 -0.003719 0.000000 0.000000 0.000000
# 2 -0.001923 0.014908 -0.003643 0.000000 0.000000 0.000000
# 3 -0.003719 -0.003643 0.013561 0.000000 0.000000 0.000000
# 4 0.000000 0.000000 0.000000 0.026005 0.000000 0.000000
# 5 0.000000 0.000000 0.000000 0.000000 0.046435 0.000000
# 6 0.000000 0.000000 0.000000 0.000000 0.000000 0.027463
#
#
# Mechanical properties :
#
#
# Convention : Reuss Voigt Hill
#
# Bulk Modulus (GPa) = 57.66431 66.40786 62.03608
# Shear Modulus (GPa) = 31.21742 34.27886 32.74814
#
# Velocity S-wave (km/s) = 3.83091 4.01436 3.92371
# Velocity P-wave (km/s) = 6.83205 7.25992 7.04923
#
# Compressibility (1/GPa) = 0.01734175
#
# Stress axis : x y z
#
# Youngs Moduli (GPa) = 134.34761 67.07902 73.73965
#
# Poissons Ratio (x) = 0.12899 0.27426
# Poissons Ratio (y) = 0.25835 0.26863
# Poissons Ratio (z) = 0.49968 0.24437
#
# Static dielectric constant tensor:
#      x y z
#    x 3.951770 0.000000 0.000000 
#    y 0.000000 4.240610 0.000000 
#    z 0.000000 0.000000 3.629920 
# 
# 
# High freq. dielectric constant tensor:
#      x y z
#    x 1.846280 0.000000 0.000000 
#    y 0.000000 1.856690 0.000000 
#    z 0.000000 0.000000 1.822710 
# 
# From -- ./inp_files/24439.got.cif
#   From: 2010.03.12/outbox.cif.g09.slc.cpg/sg68_13_cif.got.tgz:24439.got - 2010.04.10 23:14:56.
