data_PCOD8283000
_publ_section_title
;
Structure prediction by ZEFSAII (Michael W. Deem and Ramdas Pophale) SiO2 
 PCOD8283000
Probable space group: C C C A
;
_chemical_formula_sum "Si O2"
_cell_formula_units_Z 68
_cell_length_a 27.345406
_cell_length_b 12.818248
_cell_length_c 8.981713
_cell_angle_alpha 90.000000
_cell_angle_beta 90.000000
_cell_angle_gamma 90.000000
_cell_volume 3148.271799
_symmetry_space_group_name_H-M "C C C A"
_symmetry_group_IT_number 68
_space_group.IT_coordinate_system_code '2'
_symmetry_cell_setting 'orthorhombic'
loop_
_space_group_symop_operation_xyz
x,y,z
-x,1/2-y,z
x,1/2-y,1/2-z
-x,y,1/2-z
-x,-y,-z
x,1/2+y,-z
-x,1/2+y,1/2+z
x,-y,1/2+z
1/2+x,1/2+y,z
1/2-x,-y,z
1/2+x,-y,1/2-z
1/2-x,1/2+y,1/2-z
1/2-x,1/2-y,-z
1/2+x,y,-z
1/2-x,y,1/2+z
1/2+x,1/2-y,1/2+z
loop_
_atom_site_type_symbol
_atom_site_label
_atom_site_fract_x
_atom_site_fract_y
_atom_site_fract_z
Si Si1 0.159224 0.250000 0.250000
Si Si2 0.578926 0.647382 0.449333
Si Si3 0.500000 0.250000 0.750000
Si Si4 0.592209 0.750000 0.750000
Si Si5 0.697870 0.951753 0.372661
Si Si6 0.135251 0.452690 0.639112
O O1 0.126039 0.208993 0.386040
O O2 0.196848 0.334699 0.312361
O O3 0.531754 0.672989 0.351380
O O4 0.565212 0.680080 0.621494
O O5 0.591364 0.523719 0.430792
O O6 0.621036 0.831677 0.647392
O O7 0.685755 0.959291 0.546460
O O8 0.750000 0.000000 0.336737
O O9 0.651143 0.011182 0.302368
#
# Coordination Sequence:
#
# PCOD8283000 Si02
#       6
#     8  16   4   8  16  16
#     4   9  20  40  64  88 137 181 218 277 353 389
#     4  10  22  43  69  98 133 175 225 273 345 412
#     4  10  24  46  76 104 132 178 218 284 340 414
#     4  12  22  42  74  97 131 189 223 270 349 413
#     4  11  22  39  63  98 135 180 236 284 325 396
#     4  11  23  42  64  99 136 185 225 276 343 401
#
# _framework density 21.599150999999999
#
# number of rings (size 3 to 8) (size 9 to 14) (size 15 to 20)
#    0.000    1.412    4.706    0.706    0.000    1.412 
#    0.000    9.412    0.000    0.000    0.000    0.000 
#    0.000    0.000    0.000    0.000    0.000    0.000 
#
# Total GULP energy -421274.879193 kJ/mol
# GULP energy per Si atom -12390.437623 kJ/mol
# Density = 2.154999 g / cm^3
# Si number density = 21.599151 Si / 1000 Ang^3
#
#
#
# Elastic Constant Matrix: (Units=GPa)
#
#
# Indices 1 2 3 4 5 6 
#
# 1 101.1102 50.3413 35.7940 0.0000 0.0000 0.0000
# 2 50.3413 144.8760 35.1157 0.0000 0.0000 0.0000
# 3 35.7940 35.1157 116.8940 0.0000 0.0000 0.0000
# 4 0.0000 0.0000 0.0000 28.0323 0.0000 0.0000
# 5 0.0000 0.0000 0.0000 0.0000 31.8284 0.0000
# 6 0.0000 0.0000 0.0000 0.0000 0.0000 16.8191
#
#
#
# Elastic Compliance Matrix: (Units=1/GPa)
#
#
# Indices 1 2 3 4 5 6 
#
# 1 0.012742 -0.003755 -0.002774 0.000000 0.000000 0.000000
# 2 -0.003755 0.008551 -0.001419 0.000000 0.000000 0.000000
# 3 -0.002774 -0.001419 0.009830 0.000000 0.000000 0.000000
# 4 0.000000 0.000000 0.000000 0.035673 0.000000 0.000000
# 5 0.000000 0.000000 0.000000 0.000000 0.031418 0.000000
# 6 0.000000 0.000000 0.000000 0.000000 0.000000 0.059456
#
#
# Mechanical properties :
#
#
# Convention : Reuss Voigt Hill
#
# Bulk Modulus (GPa) = 65.66920 67.26467 66.46693
# Shear Modulus (GPa) = 27.98884 31.44457 29.71671
#
# Velocity S-wave (km/s) = 3.60367 3.81967 3.71324
# Velocity P-wave (km/s) = 6.91266 7.11780 7.01598
#
# Compressibility (1/GPa) = 0.01522784
#
# Stress axis : x y z
#
# Youngs Moduli (GPa) = 78.48234 116.94205 101.72622
#
# Poissons Ratio (x) = 0.43914 0.28214
# Poissons Ratio (y) = 0.29472 0.14435
# Poissons Ratio (z) = 0.21767 0.16594
#
# Static dielectric constant tensor:
#      x y z
#    x 3.338000 0.000000 0.000000 
#    y 0.000000 4.037510 0.000000 
#    z 0.000000 0.000000 4.096000 
# 
# 
# High freq. dielectric constant tensor:
#      x y z
#    x 1.804850 0.000000 0.000000 
#    y 0.000000 1.856160 0.000000 
#    z 0.000000 0.000000 1.872480 
# 
# From -- ./inp_files/5152.got.cif
#   From: 2010.03.12/outbox.cif.g09.slc.cpg/sg68_3_cif.got.tgz:5152.got - 2010.04.10 23:14:56.
