data_PCOD8283944
_publ_section_title
;
Structure prediction by ZEFSAII (Michael W. Deem and Ramdas Pophale) SiO2 
 PCOD8283944
Probable space group: F M M M
;
_chemical_formula_sum "Si O2"
_cell_formula_units_Z 136
_cell_length_a 17.387636
_cell_length_b 18.164622
_cell_length_c 22.978860
_cell_angle_alpha 90.000000
_cell_angle_beta 90.000000
_cell_angle_gamma 90.000000
_cell_volume 7257.639360
_symmetry_space_group_name_H-M "F M M M"
_symmetry_group_IT_number 69
_symmetry_cell_setting 'orthorhombic'
loop_
_space_group_symop_operation_xyz
x,y,z
-x,-y,z
x,-y,-z
-x,y,-z
-x,-y,-z
x,y,-z
-x,y,z
x,-y,z
x,1/2+y,1/2+z
-x,1/2-y,1/2+z
x,1/2-y,1/2-z
-x,1/2+y,1/2-z
-x,1/2-y,1/2-z
x,1/2+y,1/2-z
-x,1/2+y,1/2+z
x,1/2-y,1/2+z
1/2+x,y,1/2+z
1/2-x,-y,1/2+z
1/2+x,-y,1/2-z
1/2-x,y,1/2-z
1/2-x,-y,1/2-z
1/2+x,y,1/2-z
1/2-x,y,1/2+z
1/2+x,-y,1/2+z
1/2+x,1/2+y,z
1/2-x,1/2-y,z
1/2+x,1/2-y,-z
1/2-x,1/2+y,-z
1/2-x,1/2-y,-z
1/2+x,1/2+y,-z
1/2-x,1/2+y,z
1/2+x,1/2-y,z
loop_
_atom_site_type_symbol
_atom_site_label
_atom_site_fract_x
_atom_site_fract_y
_atom_site_fract_z
Si Si1 0.088724 0.580276 0.241044
Si Si2 0.264518 0.663422 0.564828
Si Si3 0.750000 0.250000 0.250000
Si Si4 0.851578 0.832822 0.840517
Si Si5 0.411644 0.321862 0.366154
O O1 0.128705 0.500000 0.230886
O O2 0.099546 0.604379 0.308289
O O3 0.116881 0.641814 0.194713
O O4 0.000000 0.570194 0.229351
O O5 0.254572 0.630527 0.500000
O O6 0.250000 0.750000 0.565824
O O7 0.198891 0.630256 0.607424
O O8 0.352043 0.647390 0.585572
O O9 0.796134 0.196549 0.208753
O O10 0.906435 0.766731 0.862391
O O11 0.500000 0.342398 0.382584
#
# Coordination Sequence:
#
# PCOD8283944 Si02
#       5
#    32  32   8  32  32
#     4  10  20  32  49  77 107 129 157 203 255 302
#     4   9  18  32  49  71  99 130 165 209 248 281
#     4  12  16  28  50  76 100 128 160 202 244 292
#     4  11  17  31  52  72 101 133 165 200 247 297
#     4  10  18  30  50  74  99 130 164 201 248 301
#
# _framework density 18.738876000000001
#
# number of rings (size 3 to 8) (size 9 to 14) (size 15 to 20)
#    0.000    1.882    5.882    0.706    0.000    2.353 
#    0.000    5.294    0.000    4.941    0.000    4.941 
#    0.000    0.000    0.000    0.000    0.000    0.000 
#
# Total GULP energy -421264.483432 kJ/mol
# GULP energy per Si atom -12390.131866 kJ/mol
# Density = 1.869623 g / cm^3
# Si number density = 18.738876 Si / 1000 Ang^3
#
#
#
# Elastic Constant Matrix: (Units=GPa)
#
#
# Indices 1 2 3 4 5 6 
#
# 1 70.3899 16.3289 46.3502 0.0000 0.0000 0.0000
# 2 16.3289 52.1122 18.2557 0.0000 0.0000 0.0000
# 3 46.3502 18.2557 132.9845 0.0000 0.0000 0.0000
# 4 0.0000 0.0000 0.0000 26.2393 0.0000 0.0000
# 5 0.0000 0.0000 0.0000 0.0000 25.0453 0.0000
# 6 0.0000 0.0000 0.0000 0.0000 0.0000 6.9252
#
#
#
# Elastic Compliance Matrix: (Units=1/GPa)
#
#
# Indices 1 2 3 4 5 6 
#
# 1 0.019145 -0.003846 -0.006145 0.000000 0.000000 0.000000
# 2 -0.003846 0.020932 -0.001533 0.000000 0.000000 0.000000
# 3 -0.006145 -0.001533 0.009872 0.000000 0.000000 0.000000
# 4 0.000000 0.000000 0.000000 0.038111 0.000000 0.000000
# 5 0.000000 0.000000 0.000000 0.000000 0.039928 0.000000
# 6 0.000000 0.000000 0.000000 0.000000 0.000000 0.144400
#
#
# Mechanical properties :
#
#
# Convention : Reuss Voigt Hill
#
# Bulk Modulus (GPa) = 37.17397 46.37291 41.77344
# Shear Modulus (GPa) = 16.42566 23.27873 19.85219
#
# Velocity S-wave (km/s) = 2.96388 3.52841 3.25839
# Velocity P-wave (km/s) = 5.62083 6.43430 6.04127
#
# Compressibility (1/GPa) = 0.02690054
#
# Stress axis : x y z
#
# Youngs Moduli (GPa) = 52.23279 47.77479 101.29880
#
# Poissons Ratio (x) = 0.18376 0.62246
# Poissons Ratio (y) = 0.20090 0.15527
# Poissons Ratio (z) = 0.32096 0.07323
#
# Static dielectric constant tensor:
#      x y z
#    x 3.044170 0.000000 0.000000 
#    y 0.000000 3.437180 0.000000 
#    z 0.000000 0.000000 3.730200 
# 
# 
# High freq. dielectric constant tensor:
#      x y z
#    x 1.728800 0.000000 0.000000 
#    y 0.000000 1.684880 0.000000 
#    z 0.000000 0.000000 1.716790 
# 
# From -- ./inp_files/25600.got.cif
#   From: 2010.03.12/outbox.cif.g09.slc.cpg/sg69_13_cif.got.tgz:25600.got - 2010.04.10 23:52:46.
