data_PCOD8283160
_publ_section_title
;
Structure prediction by ZEFSAII (Michael W. Deem and Ramdas Pophale) SiO2 
 PCOD8283160
Probable space group: C C C A
;
_chemical_formula_sum "Si O2"
_cell_formula_units_Z 116
_cell_length_a 19.102454
_cell_length_b 26.755521
_cell_length_c 10.905304
_cell_angle_alpha 90.000000
_cell_angle_beta 90.000000
_cell_angle_gamma 90.000000
_cell_volume 5573.658443
_symmetry_space_group_name_H-M "C C C A"
_symmetry_group_IT_number 68
_space_group.IT_coordinate_system_code '2'
_symmetry_cell_setting 'orthorhombic'
loop_
_space_group_symop_operation_xyz
x,y,z
-x,1/2-y,z
x,1/2-y,1/2-z
-x,y,1/2-z
-x,-y,-z
x,1/2+y,-z
-x,1/2+y,1/2+z
x,-y,1/2+z
1/2+x,1/2+y,z
1/2-x,-y,z
1/2+x,-y,1/2-z
1/2-x,1/2+y,1/2-z
1/2-x,1/2-y,-z
1/2+x,y,-z
1/2-x,y,1/2+z
1/2+x,1/2-y,1/2+z
loop_
_atom_site_type_symbol
_atom_site_label
_atom_site_fract_x
_atom_site_fract_y
_atom_site_fract_z
Si Si1 0.344594 0.296240 0.662364
Si Si2 0.464785 0.940222 0.121228
Si Si3 0.885185 0.783567 0.407668
Si Si4 0.543168 0.941943 0.870769
Si Si5 0.332292 0.624664 0.354489
Si Si6 0.678301 0.880341 0.809673
Si Si7 0.000000 0.750000 0.250000
Si Si8 0.809562 0.316707 0.911729
O O1 0.355412 0.250000 0.750000
O O2 0.400207 0.289436 0.552570
O O3 0.356285 0.349443 0.727859
O O4 0.268264 0.295526 0.601202
O O5 0.500000 0.923031 0.250000
O O6 0.388471 0.916317 0.107243
O O7 0.451146 0.998862 0.124329
O O8 0.509760 0.923866 0.000743
O O9 0.830011 0.826419 0.372916
O O10 0.858973 0.728433 0.368681
O O11 0.957715 0.789105 0.335310
O O12 0.500000 0.924862 0.750000
O O13 0.620855 0.919509 0.856293
O O14 0.255623 0.598623 0.343001
O O15 0.327277 0.670268 0.449259
O O16 0.675544 0.867781 0.664771
#
# Coordination Sequence:
#
# PCOD8283160 Si02
#       8
#    16  16  16  16  16  16   4  16
#     4  11  22  38  63  90 128 174 208 258 322 384
#     4  10  24  45  67  92 129 170 219 268 344 408
#     4  12  23  41  57  91 130 167 217 262 311 376
#     4  10  23  45  69  92 124 175 214 272 343 409
#     4  11  23  39  64  99 125 171 218 266 326 389
#     4  11  23  37  67  95 127 164 220 271 324 380
#     4  12  28  40  62  88 128 180 218 278 308 372
#     4  11  20  39  63  91 127 168 209 261 315 383
#
# _framework density 20.812183000000001
#
# number of rings (size 3 to 8) (size 9 to 14) (size 15 to 20)
#    0.000    1.103    4.138    2.897    2.897    1.655 
#    0.000    0.345    0.000    6.621    0.000    0.000 
#    0.000    0.000    0.000    0.000    0.000    0.000 
#
# Total GULP energy -719053.411667 kJ/mol
# GULP energy per Si atom -12397.472615 kJ/mol
# Density = 2.076481 g / cm^3
# Si number density = 20.812183 Si / 1000 Ang^3
#
#
#
# Elastic Constant Matrix: (Units=GPa)
#
#
# Indices 1 2 3 4 5 6 
#
# 1 118.4471 36.4495 57.6498 0.0000 0.0000 0.0000
# 2 36.4495 38.3214 19.6682 0.0000 0.0000 0.0000
# 3 57.6498 19.6682 144.2377 0.0000 0.0000 0.0000
# 4 0.0000 0.0000 0.0000 22.4645 0.0000 0.0000
# 5 0.0000 0.0000 0.0000 0.0000 33.5277 0.0000
# 6 0.0000 0.0000 0.0000 0.0000 0.0000 25.1895
#
#
#
# Elastic Compliance Matrix: (Units=1/GPa)
#
#
# Indices 1 2 3 4 5 6 
#
# 1 0.013798 -0.011068 -0.004006 0.000000 0.000000 0.000000
# 2 -0.011068 0.036937 -0.000613 0.000000 0.000000 0.000000
# 3 -0.004006 -0.000613 0.008618 0.000000 0.000000 0.000000
# 4 0.000000 0.000000 0.000000 0.044515 0.000000 0.000000
# 5 0.000000 0.000000 0.000000 0.000000 0.029826 0.000000
# 6 0.000000 0.000000 0.000000 0.000000 0.000000 0.039699
#
#
# Mechanical properties :
#
#
# Convention : Reuss Voigt Hill
#
# Bulk Modulus (GPa) = 35.74071 58.72679 47.23375
# Shear Modulus (GPa) = 23.35432 28.71894 26.03663
#
# Velocity S-wave (km/s) = 3.35348 3.71874 3.54082
# Velocity P-wave (km/s) = 5.67492 6.83502 6.28181
#
# Compressibility (1/GPa) = 0.02797930
#
# Stress axis : x y z
#
# Youngs Moduli (GPa) = 72.47303 27.07288 116.04169
#
# Poissons Ratio (x) = 0.29965 0.46483
# Poissons Ratio (y) = 0.80216 0.07112
# Poissons Ratio (z) = 0.29030 0.01659
#
# Static dielectric constant tensor:
#      x y z
#    x 3.610330 0.000000 0.000000 
#    y 0.000000 3.419300 0.000000 
#    z 0.000000 0.000000 4.300370 
# 
# 
# High freq. dielectric constant tensor:
#      x y z
#    x 1.803040 0.000000 0.000000 
#    y 0.000000 1.791030 0.000000 
#    z 0.000000 0.000000 1.842810 
# 
# From -- ./inp_files/14825.got.cif
#   From: 2010.03.12/outbox.cif.g09.slc.cpg/sg68_8_cif.got.tgz:14825.got - 2010.04.10 23:14:56.
