data_PCOD8283459
_publ_section_title
;
Structure prediction by ZEFSAII (Michael W. Deem and Ramdas Pophale) SiO2 
 PCOD8283459
Probable space group: C C C A
;
_chemical_formula_sum "Si O2"
_cell_formula_units_Z 56
_cell_length_a 11.499722
_cell_length_b 12.910257
_cell_length_c 14.971115
_cell_angle_alpha 90.000000
_cell_angle_beta 90.000000
_cell_angle_gamma 90.000000
_cell_volume 2222.677104
_symmetry_space_group_name_H-M "C C C A"
_symmetry_group_IT_number 68
_space_group.IT_coordinate_system_code '2'
_symmetry_cell_setting 'orthorhombic'
loop_
_space_group_symop_operation_xyz
x,y,z
-x,1/2-y,z
x,1/2-y,1/2-z
-x,y,1/2-z
-x,-y,-z
x,1/2+y,-z
-x,1/2+y,1/2+z
x,-y,1/2+z
1/2+x,1/2+y,z
1/2-x,-y,z
1/2+x,-y,1/2-z
1/2-x,1/2+y,1/2-z
1/2-x,1/2-y,-z
1/2+x,y,-z
1/2-x,y,1/2+z
1/2+x,1/2-y,1/2+z
loop_
_atom_site_type_symbol
_atom_site_label
_atom_site_fract_x
_atom_site_fract_y
_atom_site_fract_z
Si Si1 0.000000 0.750000 0.559928
Si Si2 0.149278 0.433818 0.910701
Si Si3 0.240432 0.227705 0.353139
Si Si4 0.595095 0.927689 0.569018
O O1 0.894190 0.783207 0.624034
O O2 0.957993 0.654127 0.501422
O O3 0.250000 0.500000 0.859414
O O4 0.192280 0.314809 0.912719
O O5 0.020009 0.451865 0.868958
O O6 0.142222 0.473595 0.014134
O O7 0.258552 0.250000 0.250000
O O8 0.303071 0.118248 0.370765
#
# Coordination Sequence:
#
# PCOD8283459 Si02
#       4
#     8  16  16  16
#     4  12  21  44  73 100 142 200 238 290 349 442
#     4  11  22  42  71 105 139 183 246 294 346 441
#     4  12  26  46  71 108 151 186 234 311 370 413
#     4  11  23  42  76 102 133 196 248 288 351 445
#
# _framework density 25.194844
#
# number of rings (size 3 to 8) (size 9 to 14) (size 15 to 20)
#    0.000    0.571    5.714    3.000    0.000    2.286 
#    0.000   10.000    0.000    0.000    0.000    0.000 
#    0.000    0.000    0.000    0.000    0.000    0.000 
#
# Total GULP energy -346949.543903 kJ/mol
# GULP energy per Si atom -12391.055139 kJ/mol
# Density = 2.513750 g / cm^3
# Si number density = 25.194844 Si / 1000 Ang^3
#
#
#
# Elastic Constant Matrix: (Units=GPa)
#
#
# Indices 1 2 3 4 5 6 
#
# 1 215.4194 15.6298 51.6482 0.0000 0.0000 0.0000
# 2 15.6298 59.7907 38.8921 0.0000 0.0000 0.0000
# 3 51.6482 38.8921 92.5851 0.0000 0.0000 0.0000
# 4 0.0000 0.0000 0.0000 26.0224 0.0000 0.0000
# 5 0.0000 0.0000 0.0000 0.0000 17.2248 0.0000
# 6 0.0000 0.0000 0.0000 0.0000 0.0000 45.0599
#
#
#
# Elastic Compliance Matrix: (Units=1/GPa)
#
#
# Indices 1 2 3 4 5 6 
#
# 1 0.005383 0.000751 -0.003319 0.000000 0.000000 0.000000
# 2 0.000751 0.023118 -0.010130 0.000000 0.000000 0.000000
# 3 -0.003319 -0.010130 0.016908 0.000000 0.000000 0.000000
# 4 0.000000 0.000000 0.000000 0.038428 0.000000 0.000000
# 5 0.000000 0.000000 0.000000 0.000000 0.058056 0.000000
# 6 0.000000 0.000000 0.000000 0.000000 0.000000 0.022193
#
#
# Mechanical properties :
#
#
# Convention : Reuss Voigt Hill
#
# Bulk Modulus (GPa) = 49.96560 64.45952 57.21256
# Shear Modulus (GPa) = 25.49036 35.10309 30.29673
#
# Velocity S-wave (km/s) = 3.18422 3.73670 3.47147
# Velocity P-wave (km/s) = 5.77873 6.65260 6.23101
#
# Compressibility (1/GPa) = 0.02001377
#
# Stress axis : x y z
#
# Youngs Moduli (GPa) = 185.76085 43.25618 59.14472
#
# Poissons Ratio (x) = -0.03251 0.19628
# Poissons Ratio (y) = -0.13960 0.59916
# Poissons Ratio (z) = 0.61649 0.43820
#
# Static dielectric constant tensor:
#      x y z
#    x 6.005310 0.000000 0.000000 
#    y 0.000000 4.911630 0.000000 
#    z 0.000000 0.000000 3.796210 
# 
# 
# High freq. dielectric constant tensor:
#      x y z
#    x 2.058860 0.000000 0.000000 
#    y 0.000000 2.016990 0.000000 
#    z 0.000000 0.000000 1.930560 
# 
# From -- ./inp_files/20114.got.cif
#   From: 2010.03.12/outbox.cif.g09.slc.cpg/sg68_11_cif.got.tgz:20114.got - 2010.04.10 23:14:56.
