data_PCOD8283408
_publ_section_title
;
Structure prediction by ZEFSAII (Michael W. Deem and Ramdas Pophale) SiO2 
 PCOD8283408
Probable space group: C C C A
;
_chemical_formula_sum "Si O2"
_cell_formula_units_Z 64
_cell_length_a 9.398173
_cell_length_b 18.346449
_cell_length_c 18.216329
_cell_angle_alpha 90.000000
_cell_angle_beta 90.000000
_cell_angle_gamma 90.000000
_cell_volume 3140.915947
_symmetry_space_group_name_H-M "C C C A"
_symmetry_group_IT_number 68
_space_group.IT_coordinate_system_code '2'
_symmetry_cell_setting 'orthorhombic'
loop_
_space_group_symop_operation_xyz
x,y,z
-x,1/2-y,z
x,1/2-y,1/2-z
-x,y,1/2-z
-x,-y,-z
x,1/2+y,-z
-x,1/2+y,1/2+z
x,-y,1/2+z
1/2+x,1/2+y,z
1/2-x,-y,z
1/2+x,-y,1/2-z
1/2-x,1/2+y,1/2-z
1/2-x,1/2-y,-z
1/2+x,y,-z
1/2-x,y,1/2+z
1/2+x,1/2-y,1/2+z
loop_
_atom_site_type_symbol
_atom_site_label
_atom_site_fract_x
_atom_site_fract_y
_atom_site_fract_z
Si Si1 0.972919 0.830631 0.951099
Si Si2 0.268265 0.585048 0.560007
Si Si3 0.656328 0.570224 0.776712
Si Si4 0.866337 0.326900 0.210920
O O1 0.891232 0.817903 0.875017
O O2 0.000000 0.750000 0.985265
O O3 0.116933 0.875264 0.939357
O O4 0.871196 0.877396 0.002277
O O5 0.250000 0.500000 0.539500
O O6 0.341919 0.595068 0.638886
O O7 0.500000 0.552070 0.750000
O O8 0.750000 0.500000 0.765065
O O9 0.719125 0.631738 0.723496
O O10 0.851012 0.250000 0.250000
O O11 0.000000 0.368498 0.250000
#
# Coordination Sequence:
#
# PCOD8283408 Si02
#       4
#    16  16  16  16
#     4  12  24  44  70  96 138 180 224 274 343 402
#     4  11  26  44  65 102 137 176 226 278 336 410
#     4  11  25  43  68  98 132 174 229 281 335 402
#     4  11  21  43  69  94 129 182 220 275 332 400
#
# _framework density 20.376221000000001
#
# number of rings (size 3 to 8) (size 9 to 14) (size 15 to 20)
#    0.000    0.750    5.000    2.250    7.000    1.500 
#    0.000    0.000    0.000    0.000    0.000    0.000 
#    0.000    0.000    0.000    0.000    0.000    0.000 
#
# Total GULP energy -396878.281196 kJ/mol
# GULP energy per Si atom -12402.446287 kJ/mol
# Density = 2.032984 g / cm^3
# Si number density = 20.376221 Si / 1000 Ang^3
#
#
#
# Elastic Constant Matrix: (Units=GPa)
#
#
# Indices 1 2 3 4 5 6 
#
# 1 144.2959 58.8633 77.7930 0.0000 0.0000 0.0000
# 2 58.8633 125.1813 63.2386 0.0000 0.0000 0.0000
# 3 77.7930 63.2386 125.1835 0.0000 0.0000 0.0000
# 4 0.0000 0.0000 0.0000 30.5992 0.0000 0.0000
# 5 0.0000 0.0000 0.0000 0.0000 26.9131 0.0000
# 6 0.0000 0.0000 0.0000 0.0000 0.0000 84.1696
#
#
#
# Elastic Compliance Matrix: (Units=1/GPa)
#
#
# Indices 1 2 3 4 5 6 
#
# 1 0.010888 -0.002285 -0.005612 0.000000 0.000000 0.000000
# 2 -0.002285 0.011205 -0.004241 0.000000 0.000000 0.000000
# 3 -0.005612 -0.004241 0.013618 0.000000 0.000000 0.000000
# 4 0.000000 0.000000 0.000000 0.032681 0.000000 0.000000
# 5 0.000000 0.000000 0.000000 0.000000 0.037157 0.000000
# 6 0.000000 0.000000 0.000000 0.000000 0.000000 0.011881
#
#
# Mechanical properties :
#
#
# Convention : Reuss Voigt Hill
#
# Bulk Modulus (GPa) = 87.44093 88.27229 87.85661
# Shear Modulus (GPa) = 34.36080 41.32078 37.84079
#
# Velocity S-wave (km/s) = 4.11094 4.50810 4.31409
# Velocity P-wave (km/s) = 8.09564 8.39717 8.24779
#
# Compressibility (1/GPa) = 0.01143629
#
# Stress axis : x y z
#
# Youngs Moduli (GPa) = 91.84729 89.24595 73.43319
#
# Poissons Ratio (x) = 0.20390 0.41209
# Poissons Ratio (y) = 0.20984 0.31140
# Poissons Ratio (z) = 0.51543 0.37846
#
# Static dielectric constant tensor:
#      x y z
#    x 2.993610 0.000000 0.000000 
#    y 0.000000 3.992170 0.000000 
#    z 0.000000 0.000000 4.296350 
# 
# 
# High freq. dielectric constant tensor:
#      x y z
#    x 1.802250 0.000000 0.000000 
#    y 0.000000 1.811160 0.000000 
#    z 0.000000 0.000000 1.801380 
# 
# From -- ./inp_files/27841.got.cif
#   From: 2010.03.12/outbox.cif.g09.slc.cpg/sg68_14_cif.got.tgz:27841.got - 2010.04.10 23:14:56.
