data_PCOD8283231
_publ_section_title
;
Structure prediction by ZEFSAII (Michael W. Deem and Ramdas Pophale) SiO2 
 PCOD8283231
Probable space group: C C C A
;
_chemical_formula_sum "Si O2"
_cell_formula_units_Z 88
_cell_length_a 4.932727
_cell_length_b 29.791263
_cell_length_c 25.311018
_cell_angle_alpha 90.000000
_cell_angle_beta 90.000000
_cell_angle_gamma 90.000000
_cell_volume 3719.508953
_symmetry_space_group_name_H-M "C C C A"
_symmetry_group_IT_number 68
_space_group.IT_coordinate_system_code '2'
_symmetry_cell_setting 'orthorhombic'
loop_
_space_group_symop_operation_xyz
x,y,z
-x,1/2-y,z
x,1/2-y,1/2-z
-x,y,1/2-z
-x,-y,-z
x,1/2+y,-z
-x,1/2+y,1/2+z
x,-y,1/2+z
1/2+x,1/2+y,z
1/2-x,-y,z
1/2+x,-y,1/2-z
1/2-x,1/2+y,1/2-z
1/2-x,1/2-y,-z
1/2+x,y,-z
1/2-x,y,1/2+z
1/2+x,1/2-y,1/2+z
loop_
_atom_site_type_symbol
_atom_site_label
_atom_site_fract_x
_atom_site_fract_y
_atom_site_fract_z
Si Si1 0.500000 0.750000 0.675973
Si Si2 0.000000 0.173113 0.750000
Si Si3 0.680642 0.827344 0.465764
Si Si4 0.284789 0.398313 0.174520
Si Si5 0.000000 0.528452 0.250000
Si Si6 0.275258 0.908947 0.104269
Si Si7 0.250000 0.000000 0.039404
Si Si8 0.500000 0.750000 0.389951
O O1 0.634134 0.708134 0.708421
O O2 0.248644 0.729716 0.643525
O O3 0.786306 0.141729 0.718214
O O4 0.490422 0.821358 0.516590
O O5 0.623602 0.876110 0.441685
O O6 0.625130 0.789811 0.423161
O O7 0.386707 0.443689 0.201138
O O8 0.488346 0.389946 0.125550
O O9 0.982396 0.406617 0.153600
O O10 0.250000 0.500000 0.273116
O O11 0.250683 0.957763 0.078647
O O12 0.500000 0.000000 0.000000
#
# Coordination Sequence:
#
# PCOD8283231 Si02
#       8
#     8   8  16  16   8  16   8   8
#     4  11  24  41  70  95 136 179 224 269 328 395
#     4  10  24  45  66 100 138 178 220 275 330 394
#     4  12  24  42  66  95 134 174 219 278 343 398
#     4  11  25  42  66  97 132 172 218 275 329 395
#     4  11  24  41  64  91 132 167 214 265 334 399
#     4  12  25  43  69  96 130 174 225 277 333 410
#     4  12  26  46  68  96 130 170 222 282 340 398
#     4  12  24  42  66 101 132 175 228 272 330 408
#
# _framework density 23.659039
#
# number of rings (size 3 to 8) (size 9 to 14) (size 15 to 20)
#    0.000    0.545    0.000    8.182    3.818    5.091 
#    0.000    0.000    0.000    0.000    0.000    0.000 
#    0.000    0.000    0.000    0.000    0.000    0.000 
#
# Total GULP energy -545678.528423 kJ/mol
# GULP energy per Si atom -12401.784737 kJ/mol
# Density = 2.360519 g / cm^3
# Si number density = 23.659039 Si / 1000 Ang^3
#
#
#
# Elastic Constant Matrix: (Units=GPa)
#
#
# Indices 1 2 3 4 5 6 
#
# 1 99.5652 26.7810 31.0230 0.0000 0.0000 0.0000
# 2 26.7810 153.9762 54.6431 0.0000 0.0000 0.0000
# 3 31.0230 54.6431 109.2251 0.0000 0.0000 0.0000
# 4 0.0000 0.0000 0.0000 10.1574 0.0000 0.0000
# 5 0.0000 0.0000 0.0000 0.0000 37.9040 0.0000
# 6 0.0000 0.0000 0.0000 0.0000 0.0000 28.7854
#
#
#
# Elastic Compliance Matrix: (Units=1/GPa)
#
#
# Indices 1 2 3 4 5 6 
#
# 1 0.011142 -0.000991 -0.002669 0.000000 0.000000 0.000000
# 2 -0.000991 0.007985 -0.003713 0.000000 0.000000 0.000000
# 3 -0.002669 -0.003713 0.011771 0.000000 0.000000 0.000000
# 4 0.000000 0.000000 0.000000 0.098451 0.000000 0.000000
# 5 0.000000 0.000000 0.000000 0.000000 0.026382 0.000000
# 6 0.000000 0.000000 0.000000 0.000000 0.000000 0.034740
#
#
# Mechanical properties :
#
#
# Convention : Reuss Voigt Hill
#
# Bulk Modulus (GPa) = 61.91258 65.29563 63.60411
# Shear Modulus (GPa) = 23.74170 32.05732 27.89951
#
# Velocity S-wave (km/s) = 3.17123 3.68499 3.43772
# Velocity P-wave (km/s) = 6.29559 6.76491 6.53447
#
# Compressibility (1/GPa) = 0.01615181
#
# Stress axis : x y z
#
# Youngs Moduli (GPa) = 89.75246 125.24211 84.95420
#
# Poissons Ratio (x) = 0.12408 0.22674
# Poissons Ratio (y) = 0.08892 0.31544
# Poissons Ratio (z) = 0.23954 0.46504
#
# Static dielectric constant tensor:
#      x y z
#    x 4.604500 0.000000 0.000000 
#    y 0.000000 4.331190 0.000000 
#    z 0.000000 0.000000 4.418390 
# 
# 
# High freq. dielectric constant tensor:
#      x y z
#    x 1.934950 0.000000 0.000000 
#    y 0.000000 1.951920 0.000000 
#    z 0.000000 0.000000 1.952630 
# 
# From -- ./inp_files/42443.got.cif
#   From: 2010.03.12/outbox.cif.g09.slc.cpg/sg68_22_cif.got.tgz:42443.got - 2010.04.10 23:14:56.
