data_PCOD8283263
_publ_section_title
;
Structure prediction by ZEFSAII (Michael W. Deem and Ramdas Pophale) SiO2 
 PCOD8283263
Probable space group: C C C A
;
_chemical_formula_sum "Si O2"
_cell_formula_units_Z 72
_cell_length_a 12.974898
_cell_length_b 12.057871
_cell_length_c 22.031544
_cell_angle_alpha 90.000000
_cell_angle_beta 90.000000
_cell_angle_gamma 90.000000
_cell_volume 3446.827267
_symmetry_space_group_name_H-M "C C C A"
_symmetry_group_IT_number 68
_space_group.IT_coordinate_system_code '2'
_symmetry_cell_setting 'orthorhombic'
loop_
_space_group_symop_operation_xyz
x,y,z
-x,1/2-y,z
x,1/2-y,1/2-z
-x,y,1/2-z
-x,-y,-z
x,1/2+y,-z
-x,1/2+y,1/2+z
x,-y,1/2+z
1/2+x,1/2+y,z
1/2-x,-y,z
1/2+x,-y,1/2-z
1/2-x,1/2+y,1/2-z
1/2-x,1/2-y,-z
1/2+x,y,-z
1/2-x,y,1/2+z
1/2+x,1/2-y,1/2+z
loop_
_atom_site_type_symbol
_atom_site_label
_atom_site_fract_x
_atom_site_fract_y
_atom_site_fract_z
Si Si1 0.651982 0.435802 0.400847
Si Si2 0.250000 0.000000 0.015361
Si Si3 0.104433 0.807443 0.688860
Si Si4 0.038640 0.447358 0.813673
Si Si5 0.201063 0.185028 0.611417
O O1 0.750000 0.500000 0.369305
O O2 0.651200 0.473458 0.471816
O O3 0.550009 0.467124 0.363814
O O4 0.656816 0.303469 0.405833
O O5 0.287733 0.104036 0.054379
O O6 0.145384 0.750000 0.750000
O O7 0.185783 0.792433 0.636228
O O8 0.000000 0.750000 0.666108
O O9 0.088958 0.936020 0.703079
O O10 0.126759 0.367143 0.838327
O O11 0.000000 0.394608 0.750000
#
# Coordination Sequence:
#
# PCOD8283263 Si02
#       5
#    16   8  16  16  16
#     4  10  26  44  71  99 142 186 237 295 354 425
#     4  10  24  48  72 102 138 192 248 288 366 420
#     4  11  23  42  69 102 140 185 233 281 361 434
#     4  12  25  44  67 110 140 183 236 298 372 428
#     4  12  24  47  72 104 141 188 234 303 357 433
#
# _framework density 20.888774000000002
#
# number of rings (size 3 to 8) (size 9 to 14) (size 15 to 20)
#    0.667    0.222    4.444    2.667    3.111    1.778 
#    0.000    0.000    0.000    0.000    0.000    0.000 
#    0.000    0.000    0.000    0.000    0.000    0.000 
#
# Total GULP energy -446257.983193 kJ/mol
# GULP energy per Si atom -12396.055089 kJ/mol
# Density = 2.084123 g / cm^3
# Si number density = 20.888774 Si / 1000 Ang^3
#
#
#
# Elastic Constant Matrix: (Units=GPa)
#
#
# Indices 1 2 3 4 5 6 
#
# 1 75.4591 13.6665 46.4404 0.0000 0.0000 0.0000
# 2 13.6665 138.5343 47.4756 0.0000 0.0000 0.0000
# 3 46.4404 47.4756 147.3266 0.0000 0.0000 0.0000
# 4 0.0000 0.0000 0.0000 49.7590 0.0000 0.0000
# 5 0.0000 0.0000 0.0000 0.0000 32.3029 0.0000
# 6 0.0000 0.0000 0.0000 0.0000 0.0000 35.1075
#
#
#
# Elastic Compliance Matrix: (Units=1/GPa)
#
#
# Indices 1 2 3 4 5 6 
#
# 1 0.016446 0.000173 -0.005240 0.000000 0.000000 0.000000
# 2 0.000173 0.008116 -0.002670 0.000000 0.000000 0.000000
# 3 -0.005240 -0.002670 0.009300 0.000000 0.000000 0.000000
# 4 0.000000 0.000000 0.000000 0.020097 0.000000 0.000000
# 5 0.000000 0.000000 0.000000 0.000000 0.030957 0.000000
# 6 0.000000 0.000000 0.000000 0.000000 0.000000 0.028484
#
#
# Mechanical properties :
#
#
# Convention : Reuss Voigt Hill
#
# Bulk Modulus (GPa) = 54.38181 64.05388 59.21784
# Shear Modulus (GPa) = 37.03639 40.34972 38.69306
#
# Velocity S-wave (km/s) = 4.21530 4.39982 4.30855
# Velocity P-wave (km/s) = 7.05565 7.51944 7.29124
#
# Compressibility (1/GPa) = 0.01838850
#
# Stress axis : x y z
#
# Youngs Moduli (GPa) = 60.80639 123.20767 107.52932
#
# Poissons Ratio (x) = -0.02135 0.56344
# Poissons Ratio (y) = -0.01054 0.28712
# Poissons Ratio (z) = 0.31862 0.32898
#
# Static dielectric constant tensor:
#      x y z
#    x 4.140990 0.000000 0.000000 
#    y 0.000000 4.006430 0.000000 
#    z 0.000000 0.000000 3.766780 
# 
# 
# High freq. dielectric constant tensor:
#      x y z
#    x 1.810470 0.000000 0.000000 
#    y 0.000000 1.838990 0.000000 
#    z 0.000000 0.000000 1.816450 
# 
# From -- ./inp_files/38275.got.cif
#   From: 2010.03.12/outbox.cif.g09.slc.cpg/sg68_20_cif.got.tgz:38275.got - 2010.04.10 23:14:56.
