data_PCOD8283505
_publ_section_title
;
Structure prediction by ZEFSAII (Michael W. Deem and Ramdas Pophale) SiO2 
 PCOD8283505
Probable space group: C C C A
;
_chemical_formula_sum "Si O2"
_cell_formula_units_Z 96
_cell_length_a 23.893319
_cell_length_b 19.353551
_cell_length_c 9.510027
_cell_angle_alpha 90.000000
_cell_angle_beta 90.000000
_cell_angle_gamma 90.000000
_cell_volume 4397.632085
_symmetry_space_group_name_H-M "C C C A"
_symmetry_group_IT_number 68
_space_group.IT_coordinate_system_code '2'
_symmetry_cell_setting 'orthorhombic'
loop_
_space_group_symop_operation_xyz
x,y,z
-x,1/2-y,z
x,1/2-y,1/2-z
-x,y,1/2-z
-x,-y,-z
x,1/2+y,-z
-x,1/2+y,1/2+z
x,-y,1/2+z
1/2+x,1/2+y,z
1/2-x,-y,z
1/2+x,-y,1/2-z
1/2-x,1/2+y,1/2-z
1/2-x,1/2-y,-z
1/2+x,y,-z
1/2-x,y,1/2+z
1/2+x,1/2-y,1/2+z
loop_
_atom_site_type_symbol
_atom_site_label
_atom_site_fract_x
_atom_site_fract_y
_atom_site_fract_z
Si Si1 0.298191 0.949252 0.974406
Si Si2 0.905779 0.538261 0.895345
Si Si3 0.864137 0.187258 0.159747
Si Si4 0.253785 0.133362 0.732461
Si Si5 0.143280 0.812446 0.152649
Si Si6 0.943917 0.072898 0.812971
O O1 0.289880 0.892247 0.853405
O O2 0.250000 0.000000 0.930891
O O3 0.355462 0.992961 0.964581
O O4 0.287626 0.921290 0.133544
O O5 0.887366 0.609553 0.819262
O O6 0.937106 0.496916 0.775438
O O7 0.949025 0.554879 0.021695
O O8 0.892039 0.250000 0.250000
O O9 0.798446 0.184339 0.198047
O O10 0.876419 0.209650 0.001407
O O11 0.209807 0.174494 0.635779
O O12 0.126967 0.750000 0.250000
O O13 0.109916 0.878929 0.209199
O O14 0.000000 0.109060 0.750000
#
# Coordination Sequence:
#
# PCOD8283505 Si02
#       6
#    16  16  16  16  16  16
#     4  12  22  35  63  95 132 169 208 254 309 383
#     4  11  23  42  66  96 129 168 213 269 332 379
#     4  11  25  40  60  93 133 173 213 254 309 388
#     4  12  22  38  60  93 132 172 211 250 306 377
#     4  11  25  42  61  92 131 172 217 256 320 383
#     4  11  24  44  69  96 122 161 219 278 329 384
#
# _framework density 21.829930000000001
#
# number of rings (size 3 to 8) (size 9 to 14) (size 15 to 20)
#    0.000    0.667    5.000    3.500    2.333    3.000 
#    0.000    0.000    0.000    2.500    0.000    0.000 
#    0.000    0.000    0.000    0.000    0.000    0.000 
#
# Total GULP energy -594799.390436 kJ/mol
# GULP energy per Si atom -12391.653967 kJ/mol
# Density = 2.178024 g / cm^3
# Si number density = 21.829930 Si / 1000 Ang^3
#
#
#
# Elastic Constant Matrix: (Units=GPa)
#
#
# Indices 1 2 3 4 5 6 
#
# 1 68.5654 14.2773 27.8207 0.0000 0.0000 0.0000
# 2 14.2773 107.0618 55.1245 0.0000 0.0000 0.0000
# 3 27.8207 55.1245 94.7680 0.0000 0.0000 0.0000
# 4 0.0000 0.0000 0.0000 71.2904 0.0000 0.0000
# 5 0.0000 0.0000 0.0000 0.0000 30.4224 0.0000
# 6 0.0000 0.0000 0.0000 0.0000 0.0000 8.5412
#
#
#
# Elastic Compliance Matrix: (Units=1/GPa)
#
#
# Indices 1 2 3 4 5 6 
#
# 1 0.016570 0.000421 -0.005109 0.000000 0.000000 0.000000
# 2 0.000421 0.013345 -0.007886 0.000000 0.000000 0.000000
# 3 -0.005109 -0.007886 0.016639 0.000000 0.000000 0.000000
# 4 0.000000 0.000000 0.000000 0.014027 0.000000 0.000000
# 5 0.000000 0.000000 0.000000 0.000000 0.032871 0.000000
# 6 0.000000 0.000000 0.000000 0.000000 0.000000 0.117079
#
#
# Mechanical properties :
#
#
# Convention : Reuss Voigt Hill
#
# Bulk Modulus (GPa) = 46.71726 51.64892 49.18309
# Shear Modulus (GPa) = 20.59192 33.59565 27.09379
#
# Velocity S-wave (km/s) = 3.07463 3.92723 3.52679
# Velocity P-wave (km/s) = 5.83537 6.65396 6.25806
#
# Compressibility (1/GPa) = 0.02140536
#
# Stress axis : x y z
#
# Youngs Moduli (GPa) = 60.34982 74.93697 60.09971
#
# Poissons Ratio (x) = -0.03155 0.30707
# Poissons Ratio (y) = -0.02541 0.47394
# Poissons Ratio (z) = 0.30834 0.59094
#
# Static dielectric constant tensor:
#      x y z
#    x 3.697400 0.000000 0.000000 
#    y 0.000000 2.912410 0.000000 
#    z 0.000000 0.000000 4.033290 
# 
# 
# High freq. dielectric constant tensor:
#      x y z
#    x 1.831290 0.000000 0.000000 
#    y 0.000000 1.853460 0.000000 
#    z 0.000000 0.000000 1.873570 
# 
# From -- ./inp_files/7262.got.cif
#   From: 2010.03.12/outbox.cif.g09.slc.cpg/sg68_4_cif.got.tgz:7262.got - 2010.04.10 23:14:56.
