data_PCOD8283898
_publ_section_title
;
Structure prediction by ZEFSAII (Michael W. Deem and Ramdas Pophale) SiO2 
 PCOD8283898
Probable space group: F M M M
;
_chemical_formula_sum "Si O2"
_cell_formula_units_Z 192
_cell_length_a 29.426111
_cell_length_b 18.684220
_cell_length_c 20.410975
_cell_angle_alpha 90.000000
_cell_angle_beta 90.000000
_cell_angle_gamma 90.000000
_cell_volume 11222.034304
_symmetry_space_group_name_H-M "F M M M"
_symmetry_group_IT_number 69
_symmetry_cell_setting 'orthorhombic'
loop_
_space_group_symop_operation_xyz
x,y,z
-x,-y,z
x,-y,-z
-x,y,-z
-x,-y,-z
x,y,-z
-x,y,z
x,-y,z
x,1/2+y,1/2+z
-x,1/2-y,1/2+z
x,1/2-y,1/2-z
-x,1/2+y,1/2-z
-x,1/2-y,1/2-z
x,1/2+y,1/2-z
-x,1/2+y,1/2+z
x,1/2-y,1/2+z
1/2+x,y,1/2+z
1/2-x,-y,1/2+z
1/2+x,-y,1/2-z
1/2-x,y,1/2-z
1/2-x,-y,1/2-z
1/2+x,y,1/2-z
1/2-x,y,1/2+z
1/2+x,-y,1/2+z
1/2+x,1/2+y,z
1/2-x,1/2-y,z
1/2+x,1/2-y,-z
1/2-x,1/2+y,-z
1/2-x,1/2-y,-z
1/2+x,1/2+y,-z
1/2-x,1/2+y,z
1/2+x,1/2-y,z
loop_
_atom_site_type_symbol
_atom_site_label
_atom_site_fract_x
_atom_site_fract_y
_atom_site_fract_z
Si Si1 0.280996 0.085174 0.426926
Si Si2 0.948094 0.306192 0.574367
Si Si3 0.720332 0.414768 0.310070
Si Si4 0.377960 0.082433 0.622552
Si Si5 0.379474 0.917479 0.777182
Si Si6 0.052861 0.798977 0.688585
O O1 0.270705 0.113944 0.500000
O O2 0.241840 0.113764 0.378116
O O3 0.329965 0.113168 0.403007
O O4 0.281488 0.000000 0.425196
O O5 0.941558 0.279578 0.500000
O O6 0.918226 0.375859 0.587294
O O7 0.933932 0.241511 0.621845
O O8 0.000000 0.328706 0.588600
O O9 0.721341 0.500000 0.306320
O O10 0.750000 0.383663 0.250000
O O11 0.668571 0.388217 0.304569
O O12 0.380453 0.093009 0.699771
O O13 0.383690 0.000000 0.602593
O O14 0.419390 0.872525 0.810514
O O15 0.387109 0.000000 0.796465
O O16 0.066878 0.750000 0.750000
O O17 0.000000 0.819255 0.691592
#
# Coordination Sequence:
#
# PCOD8283898 Si02
#       6
#    32  32  32  32  32  32
#     4   9  16  26  43  69 102 137 169 203 245 297
#     4  10  21  36  53  73 101 139 175 208 253 308
#     4   9  15  27  46  69  99 133 167 204 245 293
#     4  10  18  29  49  79 110 137 167 205 253 306
#     4  10  19  31  53  82 106 131 168 215 258 293
#     4  10  20  36  55  74 100 136 175 211 247 299
#
# _framework density 17.109197999999999
#
# number of rings (size 3 to 8) (size 9 to 14) (size 15 to 20)
#    0.000    2.333    3.333    0.500    0.000    1.667 
#    0.000    3.333    0.000    5.000    0.000    4.667 
#    0.000    0.000    0.000    0.000    0.000    0.000 
#
# Total GULP energy -595206.275794 kJ/mol
# GULP energy per Si atom -12400.130746 kJ/mol
# Density = 1.707026 g / cm^3
# Si number density = 17.109198 Si / 1000 Ang^3
#
#
#
# Elastic Constant Matrix: (Units=GPa)
#
#
# Indices 1 2 3 4 5 6 
#
# 1 103.9884 50.2386 51.8888 0.0000 0.0000 0.0000
# 2 50.2386 55.1489 38.7420 0.0000 0.0000 0.0000
# 3 51.8888 38.7420 115.8845 0.0000 0.0000 0.0000
# 4 0.0000 0.0000 0.0000 18.2625 0.0000 0.0000
# 5 0.0000 0.0000 0.0000 0.0000 27.0391 0.0000
# 6 0.0000 0.0000 0.0000 0.0000 0.0000 7.0581
#
#
#
# Elastic Compliance Matrix: (Units=1/GPa)
#
#
# Indices 1 2 3 4 5 6 
#
# 1 0.018143 -0.014142 -0.003396 0.000000 0.000000 0.000000
# 2 -0.014142 0.034722 -0.005276 0.000000 0.000000 0.000000
# 3 -0.003396 -0.005276 0.011914 0.000000 0.000000 0.000000
# 4 0.000000 0.000000 0.000000 0.054757 0.000000 0.000000
# 5 0.000000 0.000000 0.000000 0.000000 0.036983 0.000000
# 6 0.000000 0.000000 0.000000 0.000000 0.000000 0.141682
#
#
# Mechanical properties :
#
#
# Convention : Reuss Voigt Hill
#
# Bulk Modulus (GPa) = 52.21632 61.86229 57.03931
# Shear Modulus (GPa) = 14.27701 19.41542 16.84622
#
# Velocity S-wave (km/s) = 2.89184 3.37233 3.14128
# Velocity P-wave (km/s) = 6.46034 7.16933 6.82405
#
# Compressibility (1/GPa) = 0.01915110
#
# Stress axis : x y z
#
# Youngs Moduli (GPa) = 55.11652 28.80012 83.93761
#
# Poissons Ratio (x) = 0.40730 0.28505
# Poissons Ratio (y) = 0.77948 0.44283
# Poissons Ratio (z) = 0.18717 0.15194
#
# Static dielectric constant tensor:
#      x y z
#    x 3.301640 0.000000 0.000000 
#    y 0.000000 2.788190 0.000000 
#    z 0.000000 0.000000 3.392220 
# 
# 
# High freq. dielectric constant tensor:
#      x y z
#    x 1.667210 0.000000 0.000000 
#    y 0.000000 1.614470 0.000000 
#    z 0.000000 0.000000 1.666250 
# 
# From -- ./inp_files/32045.got.cif
#   From: 2010.03.12/outbox.cif.g09.slc.cpg/sg69_17_cif.got.tgz:32045.got - 2010.04.10 23:52:46.
