data_PCOD8283748
_publ_section_title
;
Structure prediction by ZEFSAII (Michael W. Deem and Ramdas Pophale) SiO2 
 PCOD8283748
Probable space group: C C C A
;
_chemical_formula_sum "Si O2"
_cell_formula_units_Z 36
_cell_length_a 8.649555
_cell_length_b 4.990783
_cell_length_c 33.008105
_cell_angle_alpha 90.000000
_cell_angle_beta 90.000000
_cell_angle_gamma 90.000000
_cell_volume 1424.895595
_symmetry_space_group_name_H-M "C C C A"
_symmetry_group_IT_number 68
_space_group.IT_coordinate_system_code '2'
_symmetry_cell_setting 'orthorhombic'
loop_
_space_group_symop_operation_xyz
x,y,z
-x,1/2-y,z
x,1/2-y,1/2-z
-x,y,1/2-z
-x,-y,-z
x,1/2+y,-z
-x,1/2+y,1/2+z
x,-y,1/2+z
1/2+x,1/2+y,z
1/2-x,-y,z
1/2+x,-y,1/2-z
1/2-x,1/2+y,1/2-z
1/2-x,1/2-y,-z
1/2+x,y,-z
1/2-x,y,1/2+z
1/2+x,1/2-y,1/2+z
loop_
_atom_site_type_symbol
_atom_site_label
_atom_site_fract_x
_atom_site_fract_y
_atom_site_fract_z
Si Si1 0.000000 0.750000 0.250000
Si Si2 0.750000 0.000000 0.361018
Si Si3 0.000000 0.750000 0.083043
Si Si4 0.250000 0.000000 0.805582
Si Si5 0.750000 0.000000 0.529125
O O1 0.102763 0.558749 0.222154
O O2 0.704013 0.750639 0.333177
O O3 0.894225 0.935539 0.389292
O O4 0.098375 0.536403 0.056818
O O5 0.750000 0.750000 0.500000
#
# Coordination Sequence:
#
# PCOD8283748 Si02
#       5
#     4   8   8   8   8
#     4  12  30  52  80 114 156 204 256 318 384 456
#     4  12  30  52  80 116 156 204 258 318 384 458
#     4  12  29  52  80 115 156 204 256 318 384 457
#     4  12  30  52  80 116 156 204 258 318 384 458
#     4  12  28  50  78 114 154 202 256 316 382 456
#
# _framework density 25.26501
#
# number of rings (size 3 to 8) (size 9 to 14) (size 15 to 20)
#    0.000    0.000    0.000    6.667    0.000   32.889 
#    0.000    0.000    0.000    0.000    0.000    0.000 
#    0.000    0.000    0.000    0.000    0.000    0.000 
#
# Total GULP energy -223319.851422 kJ/mol
# GULP energy per Si atom -12406.658412 kJ/mol
# Density = 2.520751 g / cm^3
# Si number density = 25.265010 Si / 1000 Ang^3
#
#
#
# Elastic Constant Matrix: (Units=GPa)
#
#
# Indices 1 2 3 4 5 6 
#
# 1 218.5550 100.2791 129.6715 0.0000 0.0000 0.0000
# 2 100.2791 221.5347 129.3173 0.0000 0.0000 0.0000
# 3 129.6715 129.3173 225.3220 0.0000 0.0000 0.0000
# 4 0.0000 0.0000 0.0000 33.6437 0.0000 0.0000
# 5 0.0000 0.0000 0.0000 0.0000 -198.0109 0.0000
# 6 0.0000 0.0000 0.0000 0.0000 0.0000 59.3695
#
#
#
# Elastic Compliance Matrix: (Units=1/GPa)
#
#
# Indices 1 2 3 4 5 6 
#
# 1 0.007174 -0.001259 -0.003406 0.000000 0.000000 0.000000
# 2 -0.001259 0.007009 -0.003298 0.000000 0.000000 0.000000
# 3 -0.003406 -0.003298 0.008291 0.000000 0.000000 0.000000
# 4 0.000000 0.000000 0.000000 0.029723 0.000000 0.000000
# 5 0.000000 0.000000 0.000000 0.000000 -0.005050 0.000000
# 6 0.000000 0.000000 0.000000 0.000000 0.000000 0.016844
#
#
# Mechanical properties :
#
#
# Convention : Reuss Voigt Hill
#
# Bulk Modulus (GPa) = 152.72237 153.77194 153.24715
# Shear Modulus (GPa) = 60.90148 -0.58995 30.15576
#
# Velocity S-wave (km/s) = 4.91502 -0.48375 3.45857
# Velocity P-wave (km/s) = 9.63272 7.78997 8.75994
#
# Compressibility (1/GPa) = 0.00654783
#
# Stress axis : x y z
#
# Youngs Moduli (GPa) = 139.39112 142.67114 120.61284
#
# Poissons Ratio (x) = 0.17966 0.41080
# Poissons Ratio (y) = 0.17553 0.39778
# Poissons Ratio (z) = 0.47476 0.47053
#
# Static dielectric constant tensor:
#      x y z
#    x 4.442650 0.000000 0.000000 
#    y 0.000000 4.028180 0.000000 
#    z 0.000000 0.000000 5.383380 
# 
# 
# High freq. dielectric constant tensor:
#      x y z
#    x 2.022960 0.000000 0.000000 
#    y 0.000000 2.024740 0.000000 
#    z 0.000000 0.000000 2.042280 
# 
# From -- ./inp_files/52603.got.cif
#   From: 2010.03.12/outbox.cif.g09.slc.cpg/sg68_27_cif.got.tgz:52603.got - 2010.04.10 23:14:56.
