data_PCOD8283181
_publ_section_title
;
Structure prediction by ZEFSAII (Michael W. Deem and Ramdas Pophale) SiO2 
 PCOD8283181
Probable space group: C C C A
;
_chemical_formula_sum "Si O2"
_cell_formula_units_Z 116
_cell_length_a 24.831913
_cell_length_b 23.882140
_cell_length_c 9.564494
_cell_angle_alpha 90.000000
_cell_angle_beta 90.000000
_cell_angle_gamma 90.000000
_cell_volume 5672.120088
_symmetry_space_group_name_H-M "C C C A"
_symmetry_group_IT_number 68
_space_group.IT_coordinate_system_code '2'
_symmetry_cell_setting 'orthorhombic'
loop_
_space_group_symop_operation_xyz
x,y,z
-x,1/2-y,z
x,1/2-y,1/2-z
-x,y,1/2-z
-x,-y,-z
x,1/2+y,-z
-x,1/2+y,1/2+z
x,-y,1/2+z
1/2+x,1/2+y,z
1/2-x,-y,z
1/2+x,-y,1/2-z
1/2-x,1/2+y,1/2-z
1/2-x,1/2-y,-z
1/2+x,y,-z
1/2-x,y,1/2+z
1/2+x,1/2-y,1/2+z
loop_
_atom_site_type_symbol
_atom_site_label
_atom_site_fract_x
_atom_site_fract_y
_atom_site_fract_z
Si Si1 0.196183 0.285467 0.472981
Si Si2 0.904205 0.701583 0.922339
Si Si3 0.940011 0.315419 0.720734
Si Si4 0.297550 0.422051 0.463694
Si Si5 0.660025 0.128073 0.190572
Si Si6 0.177590 0.043681 0.036416
Si Si7 0.500000 0.250000 0.750000
Si Si8 0.330055 0.371807 0.745504
O O1 0.250000 0.250000 0.500000
O O2 0.142117 0.248791 0.447006
O O3 0.192850 0.323732 0.610674
O O4 0.203307 0.326516 0.338693
O O5 0.883287 0.655192 0.816677
O O6 0.960564 0.719420 0.856803
O O7 0.920610 0.671861 0.064903
O O8 0.933241 0.250000 0.750000
O O9 0.901884 0.352381 0.818686
O O10 0.000000 0.336215 0.750000
O O11 0.318692 0.377632 0.349570
O O12 0.239105 0.443145 0.421907
O O13 0.335496 0.477628 0.465946
O O14 0.293568 0.393236 0.616135
O O15 0.663704 0.067785 0.116258
O O16 0.146746 0.077187 0.159311
#
# Coordination Sequence:
#
# PCOD8283181 Si02
#       8
#    16  16  16  16  16  16   4  16
#     4  11  26  43  58  95 145 178 212 260 336 413
#     4  12  24  42  64  94 133 179 218 274 319 395
#     4  11  23  42  65  92 128 166 223 269 322 398
#     4  11  22  42  63  94 125 173 221 274 325 389
#     4  11  23  41  64  93 124 176 211 266 334 385
#     4  10  24  39  65  92 130 167 223 270 324 400
#     4  12  24  44  66  88 136 172 236 272 312 392
#     4  11  23  40  61  94 129 174 219 265 334 388
#
# _framework density 20.450907000000001
#
# number of rings (size 3 to 8) (size 9 to 14) (size 15 to 20)
#    0.000    0.966    4.138    2.483    5.793    3.310 
#    2.483    0.690    0.000    0.828    3.586    0.000 
#    0.000    0.000    0.000    0.000    0.000    0.000 
#
# Total GULP energy -718892.854945 kJ/mol
# GULP energy per Si atom -12394.704396 kJ/mol
# Density = 2.040436 g / cm^3
# Si number density = 20.450907 Si / 1000 Ang^3
#
#
#
# Elastic Constant Matrix: (Units=GPa)
#
#
# Indices 1 2 3 4 5 6 
#
# 1 109.3842 54.5406 38.4023 0.0000 0.0000 0.0000
# 2 54.5406 108.9609 50.9553 0.0000 0.0000 0.0000
# 3 38.4023 50.9553 135.2791 0.0000 0.0000 0.0000
# 4 0.0000 0.0000 0.0000 28.2291 0.0000 0.0000
# 5 0.0000 0.0000 0.0000 0.0000 34.5315 0.0000
# 6 0.0000 0.0000 0.0000 0.0000 0.0000 22.2359
#
#
#
# Elastic Compliance Matrix: (Units=1/GPa)
#
#
# Indices 1 2 3 4 5 6 
#
# 1 0.012408 -0.005540 -0.001436 0.000000 0.000000 0.000000
# 2 -0.005540 0.013613 -0.003555 0.000000 0.000000 0.000000
# 3 -0.001436 -0.003555 0.009139 0.000000 0.000000 0.000000
# 4 0.000000 0.000000 0.000000 0.035424 0.000000 0.000000
# 5 0.000000 0.000000 0.000000 0.000000 0.028959 0.000000
# 6 0.000000 0.000000 0.000000 0.000000 0.000000 0.044972
#
#
# Mechanical properties :
#
#
# Convention : Reuss Voigt Hill
#
# Bulk Modulus (GPa) = 70.92590 71.26896 71.09743
# Shear Modulus (GPa) = 29.36405 30.98103 30.17254
#
# Velocity S-wave (km/s) = 3.79335 3.89639 3.84521
# Velocity P-wave (km/s) = 7.34454 7.42744 7.38611
#
# Compressibility (1/GPa) = 0.01409922
#
# Stress axis : x y z
#
# Youngs Moduli (GPa) = 80.59151 73.45970 109.42372
#
# Poissons Ratio (x) = 0.40693 0.15711
# Poissons Ratio (y) = 0.44644 0.38900
# Poissons Ratio (z) = 0.11572 0.26115
#
# Static dielectric constant tensor:
#      x y z
#    x 3.596340 0.000000 0.000000 
#    y 0.000000 4.009320 0.000000 
#    z 0.000000 0.000000 4.049380 
# 
# 
# High freq. dielectric constant tensor:
#      x y z
#    x 1.773010 0.000000 0.000000 
#    y 0.000000 1.793600 0.000000 
#    z 0.000000 0.000000 1.824490 
# 
# From -- ./inp_files/9163.got.cif
#   From: 2010.03.12/outbox.cif.g09.slc.cpg/sg68_5_cif.got.tgz:9163.got - 2010.04.10 23:14:56.
