data_PCOD8283426
_publ_section_title
;
Structure prediction by ZEFSAII (Michael W. Deem and Ramdas Pophale) SiO2 
 PCOD8283426
Probable space group: C C C A
;
_chemical_formula_sum "Si O2"
_cell_formula_units_Z 96
_cell_length_a 19.588341
_cell_length_b 27.047957
_cell_length_c 8.751554
_cell_angle_alpha 90.000000
_cell_angle_beta 90.000000
_cell_angle_gamma 90.000000
_cell_volume 4636.788642
_symmetry_space_group_name_H-M "C C C A"
_symmetry_group_IT_number 68
_space_group.IT_coordinate_system_code '2'
_symmetry_cell_setting 'orthorhombic'
loop_
_space_group_symop_operation_xyz
x,y,z
-x,1/2-y,z
x,1/2-y,1/2-z
-x,y,1/2-z
-x,-y,-z
x,1/2+y,-z
-x,1/2+y,1/2+z
x,-y,1/2+z
1/2+x,1/2+y,z
1/2-x,-y,z
1/2+x,-y,1/2-z
1/2-x,1/2+y,1/2-z
1/2-x,1/2-y,-z
1/2+x,y,-z
1/2-x,y,1/2+z
1/2+x,1/2-y,1/2+z
loop_
_atom_site_type_symbol
_atom_site_label
_atom_site_fract_x
_atom_site_fract_y
_atom_site_fract_z
Si Si1 0.683527 0.946910 0.514562
Si Si2 0.651427 0.150185 0.851930
Si Si3 0.018038 0.302528 0.426139
Si Si4 0.668628 0.545816 0.624981
Si Si5 0.717077 0.713675 0.619108
Si Si6 0.607435 0.639348 0.487885
O O1 0.650793 0.895383 0.467963
O O2 0.680371 0.954157 0.695149
O O3 0.761820 0.944126 0.464786
O O4 0.643271 0.991646 0.429653
O O5 0.599036 0.187593 0.935922
O O6 0.724766 0.175326 0.824997
O O7 0.625518 0.130936 0.689049
O O8 0.000000 0.250000 0.503919
O O9 0.000000 0.300172 0.250000
O O10 0.971694 0.344654 0.506235
O O11 0.614914 0.588100 0.578996
O O12 0.689554 0.750000 0.750000
O O13 0.750000 0.750000 0.500000
O O14 0.654237 0.682820 0.554771
#
# Coordination Sequence:
#
# PCOD8283426 Si02
#       6
#    16  16  16  16  16  16
#     4  11  22  38  62  92 124 158 201 257 317 372
#     4  11  22  39  64  91 123 165 208 254 310 367
#     4   9  20  39  63  87 123 170 211 249 301 370
#     4  11  22  38  62  91 125 156 202 256 317 371
#     4  12  24  36  59  92 125 160 207 264 305 360
#     4  11  22  40  62  92 125 162 209 255 310 367
#
# _framework density 20.703983000000001
#
# number of rings (size 3 to 8) (size 9 to 14) (size 15 to 20)
#    0.000    1.167    3.333    5.000    4.667    0.000 
#    0.000    1.667    0.000    0.000    0.000    0.000 
#    0.000    0.000    0.000    0.000    0.000    0.000 
#
# Total GULP energy -595140.955496 kJ/mol
# GULP energy per Si atom -12398.769906 kJ/mol
# Density = 2.065686 g / cm^3
# Si number density = 20.703983 Si / 1000 Ang^3
#
#
#
# Elastic Constant Matrix: (Units=GPa)
#
#
# Indices 1 2 3 4 5 6 
#
# 1 70.5919 20.7229 13.4250 0.0000 0.0000 0.0000
# 2 20.7229 129.8963 36.8396 0.0000 0.0000 0.0000
# 3 13.4250 36.8396 115.5217 0.0000 0.0000 0.0000
# 4 0.0000 0.0000 0.0000 43.4198 0.0000 0.0000
# 5 0.0000 0.0000 0.0000 0.0000 14.5103 0.0000
# 6 0.0000 0.0000 0.0000 0.0000 0.0000 25.3318
#
#
#
# Elastic Compliance Matrix: (Units=1/GPa)
#
#
# Indices 1 2 3 4 5 6 
#
# 1 0.014983 -0.002085 -0.001076 0.000000 0.000000 0.000000
# 2 -0.002085 0.008754 -0.002549 0.000000 0.000000 0.000000
# 3 -0.001076 -0.002549 0.009594 0.000000 0.000000 0.000000
# 4 0.000000 0.000000 0.000000 0.023031 0.000000 0.000000
# 5 0.000000 0.000000 0.000000 0.000000 0.068917 0.000000
# 6 0.000000 0.000000 0.000000 0.000000 0.000000 0.039476
#
#
# Mechanical properties :
#
#
# Convention : Reuss Voigt Hill
#
# Bulk Modulus (GPa) = 45.64134 50.88720 48.26427
# Shear Modulus (GPa) = 27.25101 32.98719 30.11910
#
# Velocity S-wave (km/s) = 3.63191 3.99592 3.81826
# Velocity P-wave (km/s) = 6.29923 6.77655 6.54224
#
# Compressibility (1/GPa) = 0.02190996
#
# Stress axis : x y z
#
# Youngs Moduli (GPa) = 66.74369 114.23227 104.22701
#
# Poissons Ratio (x) = 0.23818 0.11218
# Poissons Ratio (y) = 0.13916 0.26571
# Poissons Ratio (z) = 0.07183 0.29122
#
# Static dielectric constant tensor:
#      x y z
#    x 10.049570 0.000000 0.000000 
#    y 0.000000 4.206380 0.000000 
#    z 0.000000 0.000000 3.633370 
# 
# 
# High freq. dielectric constant tensor:
#      x y z
#    x 1.783160 0.000000 0.000000 
#    y 0.000000 1.827780 0.000000 
#    z 0.000000 0.000000 1.808120 
# 
# From -- ./inp_files/7268.got.cif
#   From: 2010.03.12/outbox.cif.g09.slc.cpg/sg68_4_cif.got.tgz:7268.got - 2010.04.10 23:14:56.
