data_PCOD8283752
_publ_section_title
;
Structure prediction by ZEFSAII (Michael W. Deem and Ramdas Pophale) SiO2 
 PCOD8283752
Probable space group: C C C A
;
_chemical_formula_sum "Si O2"
_cell_formula_units_Z 58
_cell_length_a 9.000000
_cell_length_b 27.000000
_cell_length_c 24.000000
_cell_angle_alpha 90.000000
_cell_angle_beta 90.000000
_cell_angle_gamma 90.000000
_cell_volume 5832.000000
_symmetry_space_group_name_H-M "C C C A"
_symmetry_group_IT_number 68
_space_group.IT_coordinate_system_code '2'
_symmetry_cell_setting 'orthorhombic'
loop_
_space_group_symop_operation_xyz
x,y,z
-x,1/2-y,z
x,1/2-y,1/2-z
-x,y,1/2-z
-x,-y,-z
x,1/2+y,-z
-x,1/2+y,1/2+z
x,-y,1/2+z
1/2+x,1/2+y,z
1/2-x,-y,z
1/2+x,-y,1/2-z
1/2-x,1/2+y,1/2-z
1/2-x,1/2-y,-z
1/2+x,y,-z
1/2-x,y,1/2+z
1/2+x,1/2-y,1/2+z
loop_
_atom_site_type_symbol
_atom_site_label
_atom_site_fract_x
_atom_site_fract_y
_atom_site_fract_z
Si Si1 0.802472 0.299488 0.469373
Si Si2 0.000000 0.750000 0.750000
Si Si3 0.465278 0.130924 0.491085
Si Si4 0.550868 0.407597 0.614506
Si Si5 0.145722 0.683410 0.654737
Si Si6 0.100409 0.397368 0.876351
Si Si7 0.926296 0.996615 0.311793
Si Si8 0.472753 0.807101 0.815062
O O1 0.750000 0.250000 0.500000
O O2 0.697889 0.348378 0.475752
O O3 0.950828 0.317034 0.500124
O O4 0.841784 0.287418 0.404481
O O5 0.905332 0.783418 0.707363
O O6 0.478680 0.096153 0.547139
O O7 0.527813 0.100185 0.438174
O O8 0.456782 0.365268 0.647080
O O9 0.724052 0.399802 0.620480
O O10 0.514016 0.460393 0.645055
O O11 0.312616 0.669875 0.671089
O O12 0.034963 0.443287 0.839947
O O13 0.080746 0.343804 0.847918
O O14 0.000000 0.001280 0.250000
O O15 0.750000 0.000000 0.303335
O O16 0.500000 0.750000 0.835153
O O17 0.500000 0.810993 0.750000
#
# Coordination Sequence:
#
# PCOD8283752 Si02
#       8
#    16   4  16  16  16  16  16  16
#     4  11  24  40  64  95 133 178 226 277 333 408
#     4  12  28  40  62  96 140 188 230 270 338 420
#     4  11  22  41  64  95 133 170 219 274 342 395
#     4  10  25  44  68  95 135 172 222 285 340 404
#     4  11  27  43  63  97 136 180 230 273 343 406
#     4  11  23  43  69  94 133 170 221 279 336 403
#     4  10  24  47  70  99 127 174 225 278 345 404
#     4  11  25  41  63  94 132 172 222 270 331 398
#
# _framework density 9.9451300000000007
#
# number of rings (size 3 to 8) (size 9 to 14) (size 15 to 20)
#    0.000    1.241    2.759    1.655   10.621    2.759 
#    0.000    0.000    0.000    0.000    0.000    0.000 
#    0.000    0.000    0.000    0.000    0.000    0.000 
#
# Total GULP energy -718693.304840 kJ/mol
# GULP energy per Si atom -12391.263877 kJ/mol
# Density = 0.992249 g / cm^3
# Si number density = 9.945130 Si / 1000 Ang^3
#
#
#
# Elastic Constant Matrix: (Units=GPa)
#
#
# Indices 1 2 3 4 5 6 
#
# 1 70.9643 30.2781 28.3670 0.0000 0.0000 0.0000
# 2 30.2781 149.9010 80.9902 0.0000 0.0000 0.0000
# 3 28.3670 80.9902 186.0177 0.0000 0.0000 0.0000
# 4 0.0000 0.0000 0.0000 46.0497 0.0000 0.0000
# 5 0.0000 0.0000 0.0000 0.0000 43.3937 0.0000
# 6 0.0000 0.0000 0.0000 0.0000 0.0000 32.2006
#
#
#
# Elastic Compliance Matrix: (Units=1/GPa)
#
#
# Indices 1 2 3 4 5 6 
#
# 1 0.015665 -0.002450 -0.001322 0.000000 0.000000 0.000000
# 2 -0.002450 0.009106 -0.003591 0.000000 0.000000 0.000000
# 3 -0.001322 -0.003591 0.007141 0.000000 0.000000 0.000000
# 4 0.000000 0.000000 0.000000 0.021716 0.000000 0.000000
# 5 0.000000 0.000000 0.000000 0.000000 0.023045 0.000000
# 6 0.000000 0.000000 0.000000 0.000000 0.000000 0.031055
#
#
# Mechanical properties :
#
#
# Convention : Reuss Voigt Hill
#
# Bulk Modulus (GPa) = 58.18649 76.23930 67.21289
# Shear Modulus (GPa) = 39.00655 42.14530 40.57592
#
# Velocity S-wave (km/s) = 4.43322 4.60814 4.52152
# Velocity P-wave (km/s) = 7.45130 8.16862 7.81819
#
# Compressibility (1/GPa) = 0.01718612
#
# Stress axis : x y z
#
# Youngs Moduli (GPa) = 63.83495 109.81575 140.03580
#
# Poissons Ratio (x) = 0.26902 0.18517
# Poissons Ratio (y) = 0.15638 0.50289
# Poissons Ratio (z) = 0.08441 0.39436
#
# Static dielectric constant tensor:
#      x y z
#    x 3.819470 0.000000 0.000000 
#    y 0.000000 3.879170 0.000000 
#    z 0.000000 0.000000 4.235830 
# 
# 
# High freq. dielectric constant tensor:
#      x y z
#    x 1.793490 0.000000 0.000000 
#    y 0.000000 1.780580 0.000000 
#    z 0.000000 0.000000 1.816540 
# 
# From -- ./inp_files/43515.got.cif
#   From: 2010.03.12/outbox.ucp.g09.slc.cvg/sg68_22_cif.got.tgz:43515.got - 2010.05.04 19:52:14.
