data_PCOD8283709
_publ_section_title
;
Structure prediction by ZEFSAII (Michael W. Deem and Ramdas Pophale) SiO2 
 PCOD8283709
Probable space group: C C C A
;
_chemical_formula_sum "Si O2"
_cell_formula_units_Z 64
_cell_length_a 13.674324
_cell_length_b 9.921036
_cell_length_c 20.680131
_cell_angle_alpha 90.000000
_cell_angle_beta 90.000000
_cell_angle_gamma 90.000000
_cell_volume 2805.538139
_symmetry_space_group_name_H-M "C C C A"
_symmetry_group_IT_number 68
_space_group.IT_coordinate_system_code '2'
_symmetry_cell_setting 'orthorhombic'
loop_
_space_group_symop_operation_xyz
x,y,z
-x,1/2-y,z
x,1/2-y,1/2-z
-x,y,1/2-z
-x,-y,-z
x,1/2+y,-z
-x,1/2+y,1/2+z
x,-y,1/2+z
1/2+x,1/2+y,z
1/2-x,-y,z
1/2+x,-y,1/2-z
1/2-x,1/2+y,1/2-z
1/2-x,1/2-y,-z
1/2+x,y,-z
1/2-x,y,1/2+z
1/2+x,1/2-y,1/2+z
loop_
_atom_site_type_symbol
_atom_site_label
_atom_site_fract_x
_atom_site_fract_y
_atom_site_fract_z
Si Si1 0.563380 0.381007 0.620471
Si Si2 0.436665 0.362287 0.121307
Si Si3 0.183473 0.621185 0.001138
Si Si4 0.150190 0.750000 0.250000
Si Si5 0.250000 0.500000 0.807375
O O1 0.500000 0.250000 0.644081
O O2 0.494964 0.504526 0.638612
O O3 0.587530 0.365179 0.544270
O O4 0.668380 0.414614 0.652819
O O5 0.500000 0.250000 0.081990
O O6 0.347216 0.404223 0.075383
O O7 0.410573 0.281117 0.186025
O O8 0.250000 0.500000 0.975677
O O9 0.250000 0.750000 0.000000
O O10 0.209411 0.613537 0.260315
#
# Coordination Sequence:
#
# PCOD8283709 Si02
#       5
#    16  16  16   8   8
#     4  12  26  48  76 112 147 193 250 312 381 451
#     4  12  25  47  72 103 150 193 248 303 372 444
#     4  12  24  44  75 111 147 187 244 309 377 445
#     4  12  29  50  73 104 148 204 245 312 370 447
#     4  12  28  50  74 108 150 194 262 308 376 456
#
# _framework density 22.812024000000001
#
# number of rings (size 3 to 8) (size 9 to 14) (size 15 to 20)
#    0.000    0.000    3.750    6.375    5.250    0.000 
#    0.000    0.000    0.000    0.000    0.000    0.000 
#    0.000    0.000    0.000    0.000    0.000    0.000 
#
# Total GULP energy -396574.233077 kJ/mol
# GULP energy per Si atom -12392.944784 kJ/mol
# Density = 2.276010 g / cm^3
# Si number density = 22.812024 Si / 1000 Ang^3
#
#
#
# Elastic Constant Matrix: (Units=GPa)
#
#
# Indices 1 2 3 4 5 6 
#
# 1 107.8743 57.5430 24.0855 0.0000 0.0000 0.0000
# 2 57.5430 187.7855 11.0567 0.0000 0.0000 0.0000
# 3 24.0855 11.0567 72.6285 0.0000 0.0000 0.0000
# 4 0.0000 0.0000 0.0000 37.4320 0.0000 0.0000
# 5 0.0000 0.0000 0.0000 0.0000 -15.4405 0.0000
# 6 0.0000 0.0000 0.0000 0.0000 0.0000 63.0610
#
#
#
# Elastic Compliance Matrix: (Units=1/GPa)
#
#
# Indices 1 2 3 4 5 6 
#
# 1 0.011864 -0.003435 -0.003411 0.000000 0.000000 0.000000
# 2 -0.003435 0.006368 0.000170 0.000000 0.000000 0.000000
# 3 -0.003411 0.000170 0.014874 0.000000 0.000000 0.000000
# 4 0.000000 0.000000 0.000000 0.026715 0.000000 0.000000
# 5 0.000000 0.000000 0.000000 0.000000 -0.064765 0.000000
# 6 0.000000 0.000000 0.000000 0.000000 0.000000 0.015858
#
#
# Mechanical properties :
#
#
# Convention : Reuss Voigt Hill
#
# Bulk Modulus (GPa) = 50.62564 61.51762 56.07163
# Shear Modulus (GPa) = 162.06900 35.38403 98.72652
#
# Velocity S-wave (km/s) = 8.43799 3.94269 6.58576
# Velocity P-wave (km/s) = 10.82467 6.91029 9.08091
#
# Compressibility (1/GPa) = 0.01975284
#
# Stress axis : x y z
#
# Youngs Moduli (GPa) = 84.28978 157.04281 67.23045
#
# Poissons Ratio (x) = 0.53937 0.22936
# Poissons Ratio (y) = 0.28950 -0.01140
# Poissons Ratio (z) = 0.28755 -0.02663
#
# Static dielectric constant tensor:
#      x y z
#    x 4.198460 0.000000 0.000000 
#    y 0.000000 1.915440 0.000000 
#    z 0.000000 0.000000 3.450540 
# 
# 
# High freq. dielectric constant tensor:
#      x y z
#    x 1.913120 0.000000 0.000000 
#    y 0.000000 1.923600 0.000000 
#    z 0.000000 0.000000 1.895150 
# 
# From -- ./inp_files/42779.got.cif
#   From: 2010.03.12/outbox.cif.g09.slc.cpg/sg68_22_cif.got.tgz:42779.got - 2010.04.10 23:14:56.
