data_PCOD8283764
_publ_section_title
;
Structure prediction by ZEFSAII (Michael W. Deem and Ramdas Pophale) SiO2 
 PCOD8283764
Probable space group: F M M M
;
_chemical_formula_sum "Si O2"
_cell_formula_units_Z 144
_cell_length_a 13.811527
_cell_length_b 17.869664
_cell_length_c 31.100464
_cell_angle_alpha 90.000000
_cell_angle_beta 90.000000
_cell_angle_gamma 90.000000
_cell_volume 7675.823005
_symmetry_space_group_name_H-M "F M M M"
_symmetry_group_IT_number 69
_symmetry_cell_setting 'orthorhombic'
loop_
_space_group_symop_operation_xyz
x,y,z
-x,-y,z
x,-y,-z
-x,y,-z
-x,-y,-z
x,y,-z
-x,y,z
x,-y,z
x,1/2+y,1/2+z
-x,1/2-y,1/2+z
x,1/2-y,1/2-z
-x,1/2+y,1/2-z
-x,1/2-y,1/2-z
x,1/2+y,1/2-z
-x,1/2+y,1/2+z
x,1/2-y,1/2+z
1/2+x,y,1/2+z
1/2-x,-y,1/2+z
1/2+x,-y,1/2-z
1/2-x,y,1/2-z
1/2-x,-y,1/2-z
1/2+x,y,1/2-z
1/2-x,y,1/2+z
1/2+x,-y,1/2+z
1/2+x,1/2+y,z
1/2-x,1/2-y,z
1/2+x,1/2-y,-z
1/2-x,1/2+y,-z
1/2-x,1/2-y,-z
1/2+x,1/2+y,-z
1/2-x,1/2+y,z
1/2+x,1/2-y,z
loop_
_atom_site_type_symbol
_atom_site_label
_atom_site_fract_x
_atom_site_fract_y
_atom_site_fract_z
Si Si1 0.500000 0.312225 0.786612
Si Si2 0.000000 0.206618 0.365309
Si Si3 0.319051 0.415705 0.790350
Si Si4 0.287404 0.665774 0.953693
Si Si5 0.000000 0.210322 0.048093
Si Si6 0.788630 0.664569 0.134388
O O1 0.500000 0.250000 0.750000
O O2 0.500000 0.279313 0.834760
O O3 0.407426 0.362770 0.779562
O O4 0.096797 0.159427 0.355995
O O5 0.000000 0.226453 0.415656
O O6 0.355461 0.500000 0.798822
O O7 0.250000 0.411957 0.750000
O O8 0.263088 0.387903 0.831991
O O9 0.250000 0.750000 0.956305
O O10 0.403330 0.660931 0.945998
O O11 0.234186 0.628985 0.912773
O O12 0.262990 0.626716 0.000000
O O13 0.000000 0.246848 0.000000
O O14 0.750000 0.750000 0.137537
#
# Coordination Sequence:
#
# PCOD8283764 Si02
#       6
#    16  16  32  32  16  32
#     4  12  23  37  64  88 111 146 188 237 277 335
#     4  12  20  31  52  89 109 138 193 232 278 331
#     4  11  25  42  58  82 115 151 186 231 287 341
#     4   9  16  26  44  74 112 144 180 231 288 339
#     4  10  16  24  41  71 113 147 172 224 288 336
#     4  11  20  34  56  81 112 147 189 235 283 339
#
# _framework density 18.760204000000002
#
# number of rings (size 3 to 8) (size 9 to 14) (size 15 to 20)
#    0.000    1.333    6.667    1.667    0.000    0.000 
#    0.000    1.667    0.000    0.667    0.000    0.000 
#    0.000   11.556    0.000    0.000    0.000    0.000 
#
# Total GULP energy -446177.242002 kJ/mol
# GULP energy per Si atom -12393.812278 kJ/mol
# Density = 1.871750 g / cm^3
# Si number density = 18.760204 Si / 1000 Ang^3
#
#
#
# Elastic Constant Matrix: (Units=GPa)
#
#
# Indices 1 2 3 4 5 6 
#
# 1 144.9181 48.5250 34.2748 0.0000 0.0000 0.0000
# 2 48.5250 75.6208 55.4489 0.0000 0.0000 0.0000
# 3 34.2748 55.4489 134.3925 0.0000 0.0000 0.0000
# 4 0.0000 0.0000 0.0000 -165.6251 0.0000 0.0000
# 5 0.0000 0.0000 0.0000 0.0000 17.5475 0.0000
# 6 0.0000 0.0000 0.0000 0.0000 0.0000 -12.2420
#
#
#
# Elastic Compliance Matrix: (Units=1/GPa)
#
#
# Indices 1 2 3 4 5 6 
#
# 1 0.008790 -0.005730 0.000122 0.000000 0.000000 0.000000
# 2 -0.005730 0.022696 -0.007902 0.000000 0.000000 0.000000
# 3 0.000122 -0.007902 0.010670 0.000000 0.000000 0.000000
# 4 0.000000 0.000000 0.000000 -0.006038 0.000000 0.000000
# 5 0.000000 0.000000 0.000000 0.000000 0.056988 0.000000
# 6 0.000000 0.000000 0.000000 0.000000 0.000000 -0.081686
#
#
# Mechanical properties :
#
#
# Convention : Reuss Voigt Hill
#
# Bulk Modulus (GPa) = 66.07165 70.15877 68.11521
# Shear Modulus (GPa) = 114.97830 -17.61842 48.67994
#
# Velocity S-wave (km/s) = 7.83718 -3.06786 5.09949
# Velocity P-wave (km/s) = 10.82547 4.99298 8.42973
#
# Compressibility (1/GPa) = 0.01513509
#
# Stress axis : x y z
#
# Youngs Moduli (GPa) = 113.76198 44.06157 93.71955
#
# Poissons Ratio (x) = 0.25249 -0.01148
# Poissons Ratio (y) = 0.65191 0.74062
# Poissons Ratio (z) = -0.01393 0.34820
#
# Static dielectric constant tensor:
#      x y z
#    x 3.646530 0.000000 0.000000 
#    y 0.000000 2.981700 0.000000 
#    z 0.000000 0.000000 4.362770 
# 
# 
# High freq. dielectric constant tensor:
#      x y z
#    x 1.749670 0.000000 0.000000 
#    y 0.000000 1.655340 0.000000 
#    z 0.000000 0.000000 1.760430 
# 
# From -- ./inp_files/45640.got.cif
#   From: 2010.03.12/outbox.cif.g09.slc.cpg/sg69_23_cif.got.tgz:45640.got - 2010.04.10 23:52:46.
