data_PCOD8283885
_publ_section_title
;
Structure prediction by ZEFSAII (Michael W. Deem and Ramdas Pophale) SiO2 
 PCOD8283885
Probable space group: F M M M
;
_chemical_formula_sum "Si O2"
_cell_formula_units_Z 144
_cell_length_a 36.240665
_cell_length_b 9.093131
_cell_length_c 28.357147
_cell_angle_alpha 90.000000
_cell_angle_beta 90.000000
_cell_angle_gamma 90.000000
_cell_volume 9344.845823
_symmetry_space_group_name_H-M "F M M M"
_symmetry_group_IT_number 69
_symmetry_cell_setting 'orthorhombic'
loop_
_space_group_symop_operation_xyz
x,y,z
-x,-y,z
x,-y,-z
-x,y,-z
-x,-y,-z
x,y,-z
-x,y,z
x,-y,z
x,1/2+y,1/2+z
-x,1/2-y,1/2+z
x,1/2-y,1/2-z
-x,1/2+y,1/2-z
-x,1/2-y,1/2-z
x,1/2+y,1/2-z
-x,1/2+y,1/2+z
x,1/2-y,1/2+z
1/2+x,y,1/2+z
1/2-x,-y,1/2+z
1/2+x,-y,1/2-z
1/2-x,y,1/2-z
1/2-x,-y,1/2-z
1/2+x,y,1/2-z
1/2-x,y,1/2+z
1/2+x,-y,1/2+z
1/2+x,1/2+y,z
1/2-x,1/2-y,z
1/2+x,1/2-y,-z
1/2-x,1/2+y,-z
1/2-x,1/2-y,-z
1/2+x,1/2+y,-z
1/2-x,1/2+y,z
1/2+x,1/2-y,z
loop_
_atom_site_type_symbol
_atom_site_label
_atom_site_fract_x
_atom_site_fract_y
_atom_site_fract_z
Si Si1 0.500000 0.174515 0.552491
Si Si2 0.785562 0.834462 0.556151
Si Si3 0.569578 0.173494 0.387951
Si Si4 0.141672 0.328583 0.554017
Si Si5 0.457295 0.827580 0.798275
O O1 0.500000 0.242503 0.500000
O O2 0.463772 0.230184 0.579427
O O3 0.500000 0.000000 0.549274
O O4 0.784327 0.831017 0.500000
O O5 0.750000 0.750000 0.576855
O O6 0.822858 0.756977 0.573874
O O7 0.784849 0.000000 0.575589
O O8 0.607210 0.216236 0.413986
O O9 0.568227 0.259575 0.338849
O O10 0.566512 0.000000 0.378299
O O11 0.132660 0.285078 0.500000
O O12 0.150607 0.500000 0.557635
O O13 0.500000 0.793529 0.809909
O O14 0.445487 0.750000 0.750000
O O15 0.449770 0.000000 0.793702
#
# Coordination Sequence:
#
# PCOD8283885 Si02
#       5
#    16  32  32  32  32
#     4   9  16  26  42  63  86 117 156 189 214 249
#     4   9  16  26  41  60  83 114 150 187 225 264
#     4  10  18  29  46  66  89 117 151 188 224 263
#     4   9  17  28  42  63  91 122 154 186 219 259
#     4  10  20  33  49  66  85 109 143 187 235 280
#
# _framework density 15.409565000000001
#
# number of rings (size 3 to 8) (size 9 to 14) (size 15 to 20)
#    0.000    2.556    1.111    2.000    0.000    7.111 
#    0.000    0.000    0.000    2.667    0.000    0.000 
#    0.000    0.889    0.000    9.333    0.000    4.444 
#
# Total GULP energy -446440.500498 kJ/mol
# GULP energy per Si atom -12401.125014 kJ/mol
# Density = 1.537449 g / cm^3
# Si number density = 15.409565 Si / 1000 Ang^3
#
#
#
# Elastic Constant Matrix: (Units=GPa)
#
#
# Indices 1 2 3 4 5 6 
#
# 1 134.4172 61.5461 56.0713 -0.0001 0.0000 0.0003
# 2 61.5461 76.4257 44.7680 0.0002 0.0001 0.0007
# 3 56.0713 44.7680 92.7627 0.0000 0.0000 0.0000
# 4 -0.0001 0.0002 0.0000 21.3788 0.0000 0.0002
# 5 0.0000 0.0001 0.0000 0.0000 6.7309 0.0000
# 6 0.0003 0.0007 0.0000 0.0002 0.0000 25.6677
#
#
#
# Elastic Compliance Matrix: (Units=1/GPa)
#
#
# Indices 1 2 3 4 5 6 
#
# 1 0.012685 -0.007980 -0.003817 0.000000 0.000000 0.000000
# 2 -0.007980 0.023261 -0.006403 0.000000 0.000000 -0.000001
# 3 -0.003817 -0.006403 0.016177 0.000000 0.000000 0.000000
# 4 0.000000 0.000000 0.000000 0.046775 0.000000 0.000000
# 5 0.000000 0.000000 0.000000 0.000000 0.148568 0.000000
# 6 0.000000 -0.000001 0.000000 0.000000 0.000000 0.038959
#
#
# Mechanical properties :
#
#
# Convention : Reuss Voigt Hill
#
# Bulk Modulus (GPa) = 63.59059 69.81959 66.70509
# Shear Modulus (GPa) = 15.24081 20.17017 17.70549
#
# Velocity S-wave (km/s) = 3.14833 3.62185 3.39336
# Velocity P-wave (km/s) = 7.38732 7.93083 7.66389
#
# Compressibility (1/GPa) = 0.01572560
#
# Stress axis : x y z
#
# Youngs Moduli (GPa) = 78.83059 42.98976 61.81576
#
# Poissons Ratio (x) = 0.34306 0.23593
# Poissons Ratio (y) = 0.62907 0.39578
# Poissons Ratio (z) = 0.30087 0.27524
#
# Static dielectric constant tensor:
#      x y z
#    x 2.951190 0.000000 0.000000 
#    y 0.000000 2.899340 0.000000 
#    z 0.000000 0.000000 2.725440 
# 
# 
# High freq. dielectric constant tensor:
#      x y z
#    x 1.584700 0.000000 0.000000 
#    y 0.000000 1.588740 0.000000 
#    z 0.000000 0.000000 1.556620 
# 
# From -- ./inp_files/47376.got.cif
#   From: 2010.03.12/outbox.cif.g09.slc.cpg/sg69_24_cif.got.tgz:47376.got - 2010.04.10 23:52:46.
