data_PCOD8283711
_publ_section_title
;
Structure prediction by ZEFSAII (Michael W. Deem and Ramdas Pophale) SiO2 
 PCOD8283711
Probable space group: C C C A
;
_chemical_formula_sum "Si O2"
_cell_formula_units_Z 88
_cell_length_a 20.125663
_cell_length_b 16.015717
_cell_length_c 10.595304
_cell_angle_alpha 90.000000
_cell_angle_beta 90.000000
_cell_angle_gamma 90.000000
_cell_volume 3415.151737
_symmetry_space_group_name_H-M "C C C A"
_symmetry_group_IT_number 68
_space_group.IT_coordinate_system_code '2'
_symmetry_cell_setting 'orthorhombic'
loop_
_space_group_symop_operation_xyz
x,y,z
-x,1/2-y,z
x,1/2-y,1/2-z
-x,y,1/2-z
-x,-y,-z
x,1/2+y,-z
-x,1/2+y,1/2+z
x,-y,1/2+z
1/2+x,1/2+y,z
1/2-x,-y,z
1/2+x,-y,1/2-z
1/2-x,1/2+y,1/2-z
1/2-x,1/2-y,-z
1/2+x,y,-z
1/2-x,y,1/2+z
1/2+x,1/2-y,1/2+z
loop_
_atom_site_type_symbol
_atom_site_label
_atom_site_fract_x
_atom_site_fract_y
_atom_site_fract_z
Si Si1 0.500000 0.909747 0.750000
Si Si2 0.092589 0.826564 0.045840
Si Si3 0.126013 0.844573 0.575213
Si Si4 0.083498 0.435053 0.187693
Si Si5 0.273570 0.166794 0.180540
Si Si6 0.309867 0.459992 0.111328
O O1 0.544441 0.847554 0.836263
O O2 0.453929 0.976172 0.822706
O O3 0.169433 0.850641 0.075307
O O4 0.089488 0.730356 0.999116
O O5 0.063478 0.880792 0.932098
O O6 0.076316 0.878537 0.685200
O O7 0.200008 0.818805 0.622272
O O8 0.134786 0.918198 0.475202
O O9 0.159980 0.461041 0.185138
O O10 0.297171 0.250000 0.250000
O O11 0.274586 0.096442 0.285089
O O12 0.250000 0.500000 0.026672
#
# Coordination Sequence:
#
# PCOD8283711 Si02
#       6
#     8  16  16  16  16  16
#     4  12  28  52  80 110 154 210 282 340 393 474
#     4  12  26  50  78 113 158 210 271 334 406 491
#     4  12  27  46  79 117 163 210 260 331 416 502
#     4  12  26  49  75 111 156 206 268 337 399 471
#     4  12  24  46  72 117 159 202 256 324 407 497
#     4  12  25  42  72 112 159 205 259 319 406 488
#
# _framework density 25.767523000000001
#
# number of rings (size 3 to 8) (size 9 to 14) (size 15 to 20)
#    0.000    0.000    5.455    4.909    2.545    0.000 
#    0.000    9.545    0.000    0.000    0.000    0.000 
#    0.000    0.000    0.000    0.000    0.000    0.000 
#
# Total GULP energy -545140.247898 kJ/mol
# GULP energy per Si atom -12389.551089 kJ/mol
# Density = 2.570887 g / cm^3
# Si number density = 25.767523 Si / 1000 Ang^3
#
#
#
# Elastic Constant Matrix: (Units=GPa)
#
#
# Indices 1 2 3 4 5 6 
#
# 1 66.9713 24.6524 25.7407 0.0000 0.0000 0.0000
# 2 24.6524 105.6058 41.9072 0.0000 0.0000 0.0000
# 3 25.7407 41.9072 110.9697 0.0000 0.0000 0.0000
# 4 0.0000 0.0000 0.0000 42.3200 0.0000 0.0000
# 5 0.0000 0.0000 0.0000 0.0000 18.7134 0.0000
# 6 0.0000 0.0000 0.0000 0.0000 0.0000 36.9157
#
#
#
# Elastic Compliance Matrix: (Units=1/GPa)
#
#
# Indices 1 2 3 4 5 6 
#
# 1 0.017089 -0.002842 -0.002891 0.000000 0.000000 0.000000
# 2 -0.002842 0.011611 -0.003726 0.000000 0.000000 0.000000
# 3 -0.002891 -0.003726 0.011089 0.000000 0.000000 0.000000
# 4 0.000000 0.000000 0.000000 0.023630 0.000000 0.000000
# 5 0.000000 0.000000 0.000000 0.000000 0.053438 0.000000
# 6 0.000000 0.000000 0.000000 0.000000 0.000000 0.027089
#
#
# Mechanical properties :
#
#
# Convention : Reuss Voigt Hill
#
# Bulk Modulus (GPa) = 47.91057 52.01636 49.96346
# Shear Modulus (GPa) = 29.44308 32.33957 30.89132
#
# Velocity S-wave (km/s) = 3.38397 3.54651 3.46619
# Velocity P-wave (km/s) = 5.82255 6.08284 5.95412
#
# Compressibility (1/GPa) = 0.02087222
#
# Stress axis : x y z
#
# Youngs Moduli (GPa) = 58.51712 86.12477 90.17983
#
# Poissons Ratio (x) = 0.24478 0.26068
# Poissons Ratio (y) = 0.16631 0.33597
# Poissons Ratio (z) = 0.16915 0.32087
#
# Static dielectric constant tensor:
#      x y z
#    x 5.177790 0.000000 0.000000 
#    y 0.000000 4.662050 0.000000 
#    z 0.000000 0.000000 4.656150 
# 
# 
# High freq. dielectric constant tensor:
#      x y z
#    x 2.042490 0.000000 0.000000 
#    y 0.000000 2.045060 0.000000 
#    z 0.000000 0.000000 2.027860 
# 
# From -- ./inp_files/16321.got.cif
#   From: 2010.03.12/outbox.cif.g09.slc.cpg/sg68_9_cif.got.tgz:16321.got - 2010.04.10 23:14:56.
