data_PCOD8283755
_publ_section_title
;
Structure prediction by ZEFSAII (Michael W. Deem and Ramdas Pophale) SiO2 
 PCOD8283755
Probable space group: F M M M
;
_chemical_formula_sum "Si O2"
_cell_formula_units_Z 192
_cell_length_a 30.363361
_cell_length_b 19.408253
_cell_length_c 20.100376
_cell_angle_alpha 90.000000
_cell_angle_beta 90.000000
_cell_angle_gamma 90.000000
_cell_volume 11845.147400
_symmetry_space_group_name_H-M "F M M M"
_symmetry_group_IT_number 69
_symmetry_cell_setting 'orthorhombic'
loop_
_space_group_symop_operation_xyz
x,y,z
-x,-y,z
x,-y,-z
-x,y,-z
-x,-y,-z
x,y,-z
-x,y,z
x,-y,z
x,1/2+y,1/2+z
-x,1/2-y,1/2+z
x,1/2-y,1/2-z
-x,1/2+y,1/2-z
-x,1/2-y,1/2-z
x,1/2+y,1/2-z
-x,1/2+y,1/2+z
x,1/2-y,1/2+z
1/2+x,y,1/2+z
1/2-x,-y,1/2+z
1/2+x,-y,1/2-z
1/2-x,y,1/2-z
1/2-x,-y,1/2-z
1/2+x,y,1/2-z
1/2-x,y,1/2+z
1/2+x,-y,1/2+z
1/2+x,1/2+y,z
1/2-x,1/2-y,z
1/2+x,1/2-y,-z
1/2-x,1/2+y,-z
1/2-x,1/2-y,-z
1/2+x,1/2+y,-z
1/2-x,1/2+y,z
1/2+x,1/2-y,z
loop_
_atom_site_type_symbol
_atom_site_label
_atom_site_fract_x
_atom_site_fract_y
_atom_site_fract_z
Si Si1 0.295328 0.224890 0.673686
Si Si2 0.049647 0.422909 0.654782
Si Si3 0.293979 0.924987 0.291755
Si Si4 0.386697 0.720158 0.675033
Si Si5 0.613931 0.924045 0.775333
Si Si6 0.949124 0.707144 0.574312
O O1 0.293895 0.250000 0.750000
O O2 0.250000 0.250000 0.638234
O O3 0.298321 0.142134 0.661754
O O4 0.339446 0.258454 0.643034
O O5 0.057225 0.500000 0.628000
O O6 0.084411 0.405069 0.711791
O O7 0.057642 0.372974 0.592565
O O8 0.000000 0.413755 0.683485
O O9 0.250000 0.915334 0.250000
O O10 0.334889 0.924810 0.242245
O O11 0.292962 0.000000 0.329682
O O12 0.391387 0.750000 0.750000
O O13 0.392361 0.637314 0.672243
O O14 0.424886 0.746426 0.627932
O O15 0.600373 0.000000 0.803647
O O16 0.930409 0.718740 0.500000
O O17 0.000000 0.728157 0.577457
#
# Coordination Sequence:
#
# PCOD8283755 Si02
#       6
#    32  32  32  32  32  32
#     4  10  15  25  40  63  92 121 150 185 227 271
#     4   9  17  29  45  66  93 122 149 180 225 279
#     4  10  16  22  34  57  91 124 148 177 222 272
#     4  11  18  30  49  71  91 122 156 188 233 270
#     4  10  18  28  43  68  97 119 148 190 230 271
#     4  10  21  34  48  68  93 122 156 193 232 275
#
# _framework density 16.20917
#
# number of rings (size 3 to 8) (size 9 to 14) (size 15 to 20)
#    0.000    2.000    6.667    0.000    0.000    1.333 
#    0.000    1.667    0.000    1.000    0.000    1.167 
#    0.000    0.000    0.000    0.000    0.000    0.000 
#
# Total GULP energy -594685.021805 kJ/mol
# GULP energy per Si atom -12389.271288 kJ/mol
# Density = 1.617228 g / cm^3
# Si number density = 16.209170 Si / 1000 Ang^3
#
#
#
# Elastic Constant Matrix: (Units=GPa)
#
#
# Indices 1 2 3 4 5 6 
#
# 1 87.0065 33.7158 41.2357 0.0000 0.0000 0.0000
# 2 33.7158 145.3780 36.4758 0.0000 0.0000 0.0000
# 3 41.2357 36.4758 47.2870 0.0000 0.0000 0.0000
# 4 0.0000 0.0000 0.0000 11.4165 0.0000 0.0000
# 5 0.0000 0.0000 0.0000 0.0000 4.3047 0.0000
# 6 0.0000 0.0000 0.0000 0.0000 0.0000 25.6121
#
#
#
# Elastic Compliance Matrix: (Units=1/GPa)
#
#
# Indices 1 2 3 4 5 6 
#
# 1 0.019601 -0.000319 -0.016847 0.000000 0.000000 0.000000
# 2 -0.000319 0.008535 -0.006305 0.000000 0.000000 0.000000
# 3 -0.016847 -0.006305 0.040702 0.000000 0.000000 0.000000
# 4 0.000000 0.000000 0.000000 0.087593 0.000000 0.000000
# 5 0.000000 0.000000 0.000000 0.000000 0.232306 0.000000
# 6 0.000000 0.000000 0.000000 0.000000 0.000000 0.039044
#
#
# Mechanical properties :
#
#
# Convention : Reuss Voigt Hill
#
# Bulk Modulus (GPa) = 45.67062 55.83620 50.75341
# Shear Modulus (GPa) = 10.37296 19.48292 14.92794
#
# Velocity S-wave (km/s) = 2.53246 3.47070 3.03802
# Velocity P-wave (km/s) = 6.06532 7.11218 6.60951
#
# Compressibility (1/GPa) = 0.02189592
#
# Stress axis : x y z
#
# Youngs Moduli (GPa) = 51.01669 117.17036 24.56872
#
# Poissons Ratio (x) = 0.03737 0.41391
# Poissons Ratio (y) = 0.01627 0.15491
# Poissons Ratio (z) = 0.85948 0.73878
#
# Static dielectric constant tensor:
#      x y z
#    x 3.465540 0.000000 0.000000 
#    y 0.000000 3.595360 0.000000 
#    z 0.000000 0.000000 2.440020 
# 
# 
# High freq. dielectric constant tensor:
#      x y z
#    x 1.646750 0.000000 0.000000 
#    y 0.000000 1.646110 0.000000 
#    z 0.000000 0.000000 1.532990 
# 
# From -- ./inp_files/33532.got.cif
#   From: 2010.03.12/outbox.cif.g09.slc.cpg/sg69_17_cif.got.tgz:33532.got - 2010.04.10 23:52:46.
