data_PCOD8283570
_publ_section_title
;
Structure prediction by ZEFSAII (Michael W. Deem and Ramdas Pophale) SiO2 
 PCOD8283570
Probable space group: C C C A
;
_chemical_formula_sum "Si O2"
_cell_formula_units_Z 60
_cell_length_a 9.117866
_cell_length_b 13.186337
_cell_length_c 22.978844
_cell_angle_alpha 90.000000
_cell_angle_beta 90.000000
_cell_angle_gamma 90.000000
_cell_volume 2762.775225
_symmetry_space_group_name_H-M "C C C A"
_symmetry_group_IT_number 68
_space_group.IT_coordinate_system_code '2'
_symmetry_cell_setting 'orthorhombic'
loop_
_space_group_symop_operation_xyz
x,y,z
-x,1/2-y,z
x,1/2-y,1/2-z
-x,y,1/2-z
-x,-y,-z
x,1/2+y,-z
-x,1/2+y,1/2+z
x,-y,1/2+z
1/2+x,1/2+y,z
1/2-x,-y,z
1/2+x,-y,1/2-z
1/2-x,1/2+y,1/2-z
1/2-x,1/2-y,-z
1/2+x,y,-z
1/2-x,y,1/2+z
1/2+x,1/2-y,1/2+z
loop_
_atom_site_type_symbol
_atom_site_label
_atom_site_fract_x
_atom_site_fract_y
_atom_site_fract_z
Si Si1 0.334602 0.712631 0.056105
Si Si2 0.712657 0.850297 0.338414
Si Si3 0.250000 0.000000 0.893987
Si Si4 0.523947 0.528136 0.683124
Si Si5 0.500000 0.250000 0.750000
O O1 0.500000 0.750000 0.048490
O O2 0.267936 0.768321 0.111573
O O3 0.314282 0.591037 0.065597
O O4 0.250000 0.750000 0.000000
O O5 0.877416 0.870085 0.315236
O O6 0.608711 0.815224 0.287423
O O7 0.621771 0.951050 0.356286
O O8 0.126877 0.045898 0.851158
O O9 0.500000 0.492910 0.750000
#
# Coordination Sequence:
#
# PCOD8283570 Si02
#       5
#    16  16   8  16   4
#     4  12  29  51  74 106 145 199 250 310 371 441
#     4  11  24  44  73 106 153 188 249 299 378 437
#     4  12  26  50  76 104 152 190 252 306 374 444
#     4  11  24  42  72 114 148 197 239 302 373 456
#     4  12  20  44  70 100 152 198 226 322 360 430
#
# _framework density 21.717293000000002
#
# number of rings (size 3 to 8) (size 9 to 14) (size 15 to 20)
#    0.000    0.533    5.333    1.600    7.467    3.200 
#    0.000    0.000    0.000    0.000    0.000    0.000 
#    0.000    0.000    0.000    0.000    0.000    0.000 
#
# Total GULP energy -371707.004904 kJ/mol
# GULP energy per Si atom -12390.233497 kJ/mol
# Density = 2.166786 g / cm^3
# Si number density = 21.717293 Si / 1000 Ang^3
#
#
#
# Elastic Constant Matrix: (Units=GPa)
#
#
# Indices 1 2 3 4 5 6 
#
# 1 177.7462 68.4127 57.8978 0.0000 0.0000 0.0000
# 2 68.4127 122.9131 62.6160 0.0000 0.0000 0.0000
# 3 57.8978 62.6160 124.8065 0.0000 0.0000 0.0000
# 4 0.0000 0.0000 0.0000 36.7401 0.0000 0.0000
# 5 0.0000 0.0000 0.0000 0.0000 36.8900 0.0000
# 6 0.0000 0.0000 0.0000 0.0000 0.0000 32.6217
#
#
#
# Elastic Compliance Matrix: (Units=1/GPa)
#
#
# Indices 1 2 3 4 5 6 
#
# 1 0.007465 -0.003212 -0.001852 0.000000 0.000000 0.000000
# 2 -0.003212 0.012311 -0.004687 0.000000 0.000000 0.000000
# 3 -0.001852 -0.004687 0.011223 0.000000 0.000000 0.000000
# 4 0.000000 0.000000 0.000000 0.027218 0.000000 0.000000
# 5 0.000000 0.000000 0.000000 0.000000 0.027108 0.000000
# 6 0.000000 0.000000 0.000000 0.000000 0.000000 0.030654
#
#
# Mechanical properties :
#
#
# Convention : Reuss Voigt Hill
#
# Bulk Modulus (GPa) = 86.96570 89.25765 88.11168
# Shear Modulus (GPa) = 35.89054 37.01967 36.45510
#
# Velocity S-wave (km/s) = 4.06966 4.13318 4.10154
# Velocity P-wave (km/s) = 7.88760 7.99791 7.94295
#
# Compressibility (1/GPa) = 0.01149879
#
# Stress axis : x y z
#
# Youngs Moduli (GPa) = 133.95146 81.22839 89.10507
#
# Poissons Ratio (x) = 0.26089 0.16501
# Poissons Ratio (y) = 0.43023 0.41759
# Poissons Ratio (z) = 0.24805 0.38068
#
# Static dielectric constant tensor:
#      x y z
#    x 4.168220 0.000000 0.000000 
#    y 0.000000 4.546200 0.000000 
#    z 0.000000 0.000000 3.771690 
# 
# 
# High freq. dielectric constant tensor:
#      x y z
#    x 1.874550 0.000000 0.000000 
#    y 0.000000 1.860910 0.000000 
#    z 0.000000 0.000000 1.835820 
# 
# From -- ./inp_files/42681.got.cif
#   From: 2010.03.12/outbox.cif.g09.slc.cpg/sg68_22_cif.got.tgz:42681.got - 2010.04.10 23:14:56.
