data_PCOD8283513
_publ_section_title
;
Structure prediction by ZEFSAII (Michael W. Deem and Ramdas Pophale) SiO2 
 PCOD8283513
Probable space group: C C C A
;
_chemical_formula_sum "Si O2"
_cell_formula_units_Z 72
_cell_length_a 23.459786
_cell_length_b 15.757294
_cell_length_c 8.551510
_cell_angle_alpha 90.000000
_cell_angle_beta 90.000000
_cell_angle_gamma 90.000000
_cell_volume 3161.174662
_symmetry_space_group_name_H-M "C C C A"
_symmetry_group_IT_number 68
_space_group.IT_coordinate_system_code '2'
_symmetry_cell_setting 'orthorhombic'
loop_
_space_group_symop_operation_xyz
x,y,z
-x,1/2-y,z
x,1/2-y,1/2-z
-x,y,1/2-z
-x,-y,-z
x,1/2+y,-z
-x,1/2+y,1/2+z
x,-y,1/2+z
1/2+x,1/2+y,z
1/2-x,-y,z
1/2+x,-y,1/2-z
1/2-x,1/2+y,1/2-z
1/2-x,1/2-y,-z
1/2+x,y,-z
1/2-x,y,1/2+z
1/2+x,1/2-y,1/2+z
loop_
_atom_site_type_symbol
_atom_site_label
_atom_site_fract_x
_atom_site_fract_y
_atom_site_fract_z
Si Si1 0.944253 0.446103 0.158436
Si Si2 0.290259 0.393164 0.408702
Si Si3 0.678773 0.064399 0.761020
Si Si4 0.853760 0.250000 0.750000
Si Si5 0.055761 0.618205 0.183445
O O1 0.885393 0.400210 0.212653
O O2 0.933235 0.546012 0.185844
O O3 0.000000 0.411110 0.250000
O O4 0.955667 0.431539 0.976648
O O5 0.302287 0.418586 0.585174
O O6 0.317632 0.462984 0.291990
O O7 0.222054 0.388836 0.380378
O O8 0.315370 0.300029 0.374688
O O9 0.893049 0.316739 0.842254
O O10 0.000000 0.667486 0.250000
#
# Coordination Sequence:
#
# PCOD8283513 Si02
#       5
#    16  16  16   8  16
#     4  11  23  42  79 103 132 183 244 281 331 416
#     4  11  25  43  74 100 136 185 229 294 356 408
#     4  11  23  45  73 101 135 181 247 283 334 423
#     4  12  27  42  70  98 147 182 222 288 374 400
#     4  11  24  44  72 103 140 183 233 283 345 414
#
# _framework density 22.776343000000001
#
# number of rings (size 3 to 8) (size 9 to 14) (size 15 to 20)
#    0.000    0.889    2.222    7.000    6.222    0.889 
#    0.000    0.000    0.000    0.000    0.000    0.000 
#    0.000    0.000    0.000    0.000    0.000    0.000 
#
# Total GULP energy -446273.973070 kJ/mol
# GULP energy per Si atom -12396.499252 kJ/mol
# Density = 2.272450 g / cm^3
# Si number density = 22.776343 Si / 1000 Ang^3
#
#
#
# Elastic Constant Matrix: (Units=GPa)
#
#
# Indices 1 2 3 4 5 6 
#
# 1 214.1494 48.8645 57.3589 0.0000 0.0000 0.0000
# 2 48.8645 85.5089 54.6986 0.0000 0.0000 0.0000
# 3 57.3589 54.6986 135.4399 0.0000 0.0000 0.0000
# 4 0.0000 0.0000 0.0000 6.2682 0.0000 0.0000
# 5 0.0000 0.0000 0.0000 0.0000 31.4113 0.0000
# 6 0.0000 0.0000 0.0000 0.0000 0.0000 43.7543
#
#
#
# Elastic Compliance Matrix: (Units=1/GPa)
#
#
# Indices 1 2 3 4 5 6 
#
# 1 0.005573 -0.002258 -0.001448 0.000000 0.000000 0.000000
# 2 -0.002258 0.016683 -0.005781 0.000000 0.000000 0.000000
# 3 -0.001448 -0.005781 0.010331 0.000000 0.000000 0.000000
# 4 0.000000 0.000000 0.000000 0.159535 0.000000 0.000000
# 5 0.000000 0.000000 0.000000 0.000000 0.031836 0.000000
# 6 0.000000 0.000000 0.000000 0.000000 0.000000 0.022855
#
#
# Mechanical properties :
#
#
# Convention : Reuss Voigt Hill
#
# Bulk Modulus (GPa) = 73.46319 84.10468 78.78394
# Shear Modulus (GPa) = 18.49620 34.56519 26.53069
#
# Velocity S-wave (km/s) = 2.85279 3.89985 3.41667
# Velocity P-wave (km/s) = 6.57080 7.56868 7.08733
#
# Compressibility (1/GPa) = 0.01361226
#
# Stress axis : x y z
#
# Youngs Moduli (GPa) = 179.44351 59.93963 96.79183
#
# Poissons Ratio (x) = 0.13536 0.14016
# Poissons Ratio (y) = 0.40524 0.55959
# Poissons Ratio (z) = 0.25984 0.34653
#
# Static dielectric constant tensor:
#      x y z
#    x 4.862620 0.000000 0.000000 
#    y 0.000000 3.855680 0.000000 
#    z 0.000000 0.000000 3.842620 
# 
# 
# High freq. dielectric constant tensor:
#      x y z
#    x 1.933980 0.000000 0.000000 
#    y 0.000000 1.861610 0.000000 
#    z 0.000000 0.000000 1.894020 
# 
# From -- ./inp_files/7864.got.cif
#   From: 2010.03.12/outbox.cif.g09.slc.cpg/sg68_4_cif.got.tgz:7864.got - 2010.04.10 23:14:56.
