data_PCOD8283619
_publ_section_title
;
Structure prediction by ZEFSAII (Michael W. Deem and Ramdas Pophale) SiO2 
 PCOD8283619
Probable space group: C C C A
;
_chemical_formula_sum "Si O2"
_cell_formula_units_Z 96
_cell_length_a 14.421565
_cell_length_b 14.421640
_cell_length_c 22.225749
_cell_angle_alpha 90.000000
_cell_angle_beta 90.000000
_cell_angle_gamma 90.000000
_cell_volume 4622.569479
_symmetry_space_group_name_H-M "C C C A"
_symmetry_group_IT_number 68
_space_group.IT_coordinate_system_code '2'
_symmetry_cell_setting 'orthorhombic'
loop_
_space_group_symop_operation_xyz
x,y,z
-x,1/2-y,z
x,1/2-y,1/2-z
-x,y,1/2-z
-x,-y,-z
x,1/2+y,-z
-x,1/2+y,1/2+z
x,-y,1/2+z
1/2+x,1/2+y,z
1/2-x,-y,z
1/2+x,-y,1/2-z
1/2-x,1/2+y,1/2-z
1/2-x,1/2-y,-z
1/2+x,y,-z
1/2-x,y,1/2+z
1/2+x,1/2-y,1/2+z
loop_
_atom_site_type_symbol
_atom_site_label
_atom_site_fract_x
_atom_site_fract_y
_atom_site_fract_z
Si Si1 0.233993 0.100017 0.402007
Si Si2 0.250905 0.146044 0.772179
Si Si3 0.619415 0.655567 0.000748
Si Si4 0.603956 0.499138 0.727823
Si Si5 0.405569 0.869413 0.499254
Si Si6 0.350019 0.483999 0.902004
O O1 0.244316 0.164858 0.344235
O O2 0.313704 0.112811 0.451420
O O3 0.132181 0.103640 0.433048
O O4 0.250000 0.000000 0.372750
O O5 0.246113 0.250000 0.750000
O O6 0.343871 0.093834 0.750013
O O7 0.159826 0.090208 0.749991
O O8 0.514807 0.620412 0.992838
O O9 0.629591 0.764806 0.992846
O O10 0.646351 0.617812 0.066954
O O11 0.500000 0.503999 0.750000
O O12 0.585142 0.494323 0.655768
O O13 0.362808 0.936288 0.548584
O O14 0.250000 0.500000 0.872748
#
# Coordination Sequence:
#
# PCOD8283619 Si02
#       6
#    16  16  16  16  16  16
#     4  12  23  42  70  92 135 170 218 272 332 398
#     4  11  27  47  68 100 136 184 230 278 338 405
#     4  11  25  40  64 100 131 169 212 270 338 395
#     4  11  27  47  68 100 136 184 230 278 338 405
#     4  11  25  40  64 100 131 169 212 270 338 395
#     4  12  23  42  70  92 135 170 218 272 332 398
#
# _framework density 20.767671
#
# number of rings (size 3 to 8) (size 9 to 14) (size 15 to 20)
#    0.000    0.667    6.667    1.000    9.333    0.667 
#    0.000    0.000    0.000    0.000    0.000    0.000 
#    0.000    0.000    0.000    0.000    0.000    0.000 
#
# Total GULP energy -594954.305714 kJ/mol
# GULP energy per Si atom -12394.881369 kJ/mol
# Density = 2.072040 g / cm^3
# Si number density = 20.767671 Si / 1000 Ang^3
#
#
#
# Elastic Constant Matrix: (Units=GPa)
#
#
# Indices 1 2 3 4 5 6 
#
# 1 95.3076 31.8666 29.0563 0.0000 0.0000 0.0000
# 2 31.8666 95.4622 29.1101 0.0000 0.0000 0.0000
# 3 29.0563 29.1101 161.9835 0.0000 0.0000 0.0000
# 4 0.0000 0.0000 0.0000 21.8854 0.0000 0.0000
# 5 0.0000 0.0000 0.0000 0.0000 21.8807 0.0000
# 6 0.0000 0.0000 0.0000 0.0000 0.0000 26.4466
#
#
#
# Elastic Compliance Matrix: (Units=1/GPa)
#
#
# Indices 1 2 3 4 5 6 
#
# 1 0.012161 -0.003591 -0.001536 0.000000 0.000000 0.000000
# 2 -0.003591 0.012143 -0.001538 0.000000 0.000000 0.000000
# 3 -0.001536 -0.001538 0.006725 0.000000 0.000000 0.000000
# 4 0.000000 0.000000 0.000000 0.045693 0.000000 0.000000
# 5 0.000000 0.000000 0.000000 0.000000 0.045702 0.000000
# 6 0.000000 0.000000 0.000000 0.000000 0.000000 0.037812
#
#
# Mechanical properties :
#
#
# Convention : Reuss Voigt Hill
#
# Bulk Modulus (GPa) = 56.49976 59.20213 57.85095
# Shear Modulus (GPa) = 27.86022 31.55725 29.70873
#
# Velocity S-wave (km/s) = 3.66665 3.90235 3.78634
# Velocity P-wave (km/s) = 6.72238 6.99094 6.85798
#
# Compressibility (1/GPa) = 0.01769919
#
# Stress axis : x y z
#
# Youngs Moduli (GPa) = 82.22745 82.35090 148.68970
#
# Poissons Ratio (x) = 0.29574 0.22840
# Poissons Ratio (y) = 0.29530 0.22869
# Poissons Ratio (z) = 0.12631 0.12666
#
# Static dielectric constant tensor:
#      x y z
#    x 3.915540 0.000000 0.000000 
#    y 0.000000 3.915570 0.000000 
#    z 0.000000 0.000000 3.781010 
# 
# 
# High freq. dielectric constant tensor:
#      x y z
#    x 1.819460 0.000000 0.000000 
#    y 0.000000 1.819460 0.000000 
#    z 0.000000 0.000000 1.822080 
# 
# From -- ./inp_files/38591.got.cif
#   From: 2010.03.12/outbox.cif.g09.slc.cpg/sg68_20_cif.got.tgz:38591.got - 2010.04.10 23:14:56.
