data_PCOD8283377
_publ_section_title
;
Structure prediction by ZEFSAII (Michael W. Deem and Ramdas Pophale) SiO2 
 PCOD8283377
Probable space group: C C C A
;
_chemical_formula_sum "Si O2"
_cell_formula_units_Z 80
_cell_length_a 9.451524
_cell_length_b 17.046104
_cell_length_c 24.537337
_cell_angle_alpha 90.000000
_cell_angle_beta 90.000000
_cell_angle_gamma 90.000000
_cell_volume 3953.251122
_symmetry_space_group_name_H-M "C C C A"
_symmetry_group_IT_number 68
_space_group.IT_coordinate_system_code '2'
_symmetry_cell_setting 'orthorhombic'
loop_
_space_group_symop_operation_xyz
x,y,z
-x,1/2-y,z
x,1/2-y,1/2-z
-x,y,1/2-z
-x,-y,-z
x,1/2+y,-z
-x,1/2+y,1/2+z
x,-y,1/2+z
1/2+x,1/2+y,z
1/2-x,-y,z
1/2+x,-y,1/2-z
1/2-x,1/2+y,1/2-z
1/2-x,1/2-y,-z
1/2+x,y,-z
1/2-x,y,1/2+z
1/2+x,1/2-y,1/2+z
loop_
_atom_site_type_symbol
_atom_site_label
_atom_site_fract_x
_atom_site_fract_y
_atom_site_fract_z
Si Si1 0.211539 0.912606 0.451578
Si Si2 0.850770 0.145871 0.663134
Si Si3 0.155969 0.842629 0.740416
Si Si4 0.659850 0.829316 0.855789
Si Si5 0.429309 0.835468 0.525514
O O1 0.211311 0.904705 0.386478
O O2 0.326107 0.850454 0.474885
O O3 0.057215 0.896830 0.476252
O O4 0.250000 0.000000 0.469539
O O5 0.766309 0.119714 0.716910
O O6 0.832305 0.236406 0.648864
O O7 0.018584 0.133236 0.671117
O O8 0.153442 0.750000 0.750000
O O9 0.207674 0.863615 0.678899
O O10 0.000000 0.878476 0.750000
O O11 0.664494 0.849316 0.919818
O O12 0.500000 0.750000 0.523870
#
# Coordination Sequence:
#
# PCOD8283377 Si02
#       5
#    16  16  16  16  16
#     4  11  23  38  57  83 120 157 193 241 299 354
#     4   9  17  32  51  76 108 148 187 225 285 344
#     4   9  17  28  47  81 112 138 178 236 290 330
#     4   9  16  31  53  78 107 142 189 235 275 336
#     4  11  21  38  59  87 115 153 204 243 288 346
#
# _framework density 20.236509000000002
#
# number of rings (size 3 to 8) (size 9 to 14) (size 15 to 20)
#    0.000    2.200    4.000    1.800    0.000    4.000 
#    3.600    0.000    0.000    6.000    0.000    0.000 
#    0.000    0.000    0.000    0.000    0.000    0.000 
#
# Total GULP energy -495806.841704 kJ/mol
# GULP energy per Si atom -12395.171043 kJ/mol
# Density = 2.019045 g / cm^3
# Si number density = 20.236509 Si / 1000 Ang^3
#
#
#
# Elastic Constant Matrix: (Units=GPa)
#
#
# Indices 1 2 3 4 5 6 
#
# 1 113.7409 31.7827 57.4532 0.0000 0.0000 0.0000
# 2 31.7827 37.0777 33.3044 0.0000 0.0000 0.0000
# 3 57.4532 33.3044 65.8230 0.0000 0.0000 0.0000
# 4 0.0000 0.0000 0.0000 11.6850 0.0000 0.0000
# 5 0.0000 0.0000 0.0000 0.0000 38.3873 0.0000
# 6 0.0000 0.0000 0.0000 0.0000 0.0000 19.1879
#
#
#
# Elastic Compliance Matrix: (Units=1/GPa)
#
#
# Indices 1 2 3 4 5 6 
#
# 1 0.015815 -0.002121 -0.012731 0.000000 0.000000 0.000000
# 2 -0.002121 0.049724 -0.023307 0.000000 0.000000 0.000000
# 3 -0.012731 -0.023307 0.038097 0.000000 0.000000 0.000000
# 4 0.000000 0.000000 0.000000 0.085580 0.000000 0.000000
# 5 0.000000 0.000000 0.000000 0.000000 0.026050 0.000000
# 6 0.000000 0.000000 0.000000 0.000000 0.000000 0.052116
#
#
# Mechanical properties :
#
#
# Convention : Reuss Voigt Hill
#
# Bulk Modulus (GPa) = 36.60666 51.30247 43.95456
# Shear Modulus (GPa) = 14.17199 20.12545 17.14872
#
# Velocity S-wave (km/s) = 2.64922 3.15701 2.91420
# Velocity P-wave (km/s) = 5.24276 6.22056 5.75248
#
# Compressibility (1/GPa) = 0.02731743
#
# Stress axis : x y z
#
# Youngs Moduli (GPa) = 63.22936 20.11093 26.24867
#
# Poissons Ratio (x) = 0.04266 0.33417
# Poissons Ratio (y) = 0.13414 0.61178
# Poissons Ratio (z) = 0.80497 0.46873
#
# Static dielectric constant tensor:
#      x y z
#    x 3.974870 0.000000 0.000000 
#    y 0.000000 3.136520 0.000000 
#    z 0.000000 0.000000 3.770170 
# 
# 
# High freq. dielectric constant tensor:
#      x y z
#    x 1.795250 0.000000 0.000000 
#    y 0.000000 1.740850 0.000000 
#    z 0.000000 0.000000 1.791930 
# 
# From -- ./inp_files/49135.got.cif
#   From: 2010.03.12/outbox.cif.g09.slc.cpg/sg68_25_cif.got.tgz:49135.got - 2010.04.10 23:14:56.
