data_PCOD8283637
_publ_section_title
;
Structure prediction by ZEFSAII (Michael W. Deem and Ramdas Pophale) SiO2 
 PCOD8283637
Probable space group: C C C A
;
_chemical_formula_sum "Si O2"
_cell_formula_units_Z 72
_cell_length_a 12.214274
_cell_length_b 17.749246
_cell_length_c 14.990311
_cell_angle_alpha 90.000000
_cell_angle_beta 90.000000
_cell_angle_gamma 90.000000
_cell_volume 3249.811791
_symmetry_space_group_name_H-M "C C C A"
_symmetry_group_IT_number 68
_space_group.IT_coordinate_system_code '2'
_symmetry_cell_setting 'orthorhombic'
loop_
_space_group_symop_operation_xyz
x,y,z
-x,1/2-y,z
x,1/2-y,1/2-z
-x,y,1/2-z
-x,-y,-z
x,1/2+y,-z
-x,1/2+y,1/2+z
x,-y,1/2+z
1/2+x,1/2+y,z
1/2-x,-y,z
1/2+x,-y,1/2-z
1/2-x,1/2+y,1/2-z
1/2-x,1/2-y,-z
1/2+x,y,-z
1/2-x,y,1/2+z
1/2+x,1/2-y,1/2+z
loop_
_atom_site_type_symbol
_atom_site_label
_atom_site_fract_x
_atom_site_fract_y
_atom_site_fract_z
Si Si1 0.170677 0.558596 0.674791
Si Si2 0.451013 0.825686 0.616057
Si Si3 0.780258 0.175553 0.308129
Si Si4 0.493339 0.665303 0.412088
Si Si5 0.500000 0.547367 0.750000
O O1 0.250000 0.500000 0.619722
O O2 0.248272 0.612714 0.734040
O O3 0.092011 0.609947 0.614737
O O4 0.103131 0.507063 0.742375
O O5 0.500000 0.750000 0.660883
O O6 0.319992 0.814871 0.622964
O O7 0.502327 0.833245 0.518158
O O8 0.490502 0.900901 0.663265
O O9 0.807830 0.250000 0.250000
O O10 0.878662 0.140927 0.368397
O O11 0.500000 0.750000 0.374101
#
# Coordination Sequence:
#
# PCOD8283637 Si02
#       5
#    16  16  16  16   8
#     4  12  25  43  71 107 142 192 245 305 378 443
#     4  11  27  45  70 107 146 185 245 312 375 445
#     4  12  23  45  78 100 142 199 250 298 372 455
#     4  11  25  46  74 107 140 191 257 309 356 457
#     4  12  23  44  67  98 144 192 234 294 381 456
#
# _framework density 22.155128999999999
#
# number of rings (size 3 to 8) (size 9 to 14) (size 15 to 20)
#    0.000    0.444    6.667    1.667    0.000    6.222 
#    4.000    0.000    0.000    0.000    0.000    0.000 
#    0.000    0.000    0.000    0.000    0.000    0.000 
#
# Total GULP energy -445991.311205 kJ/mol
# GULP energy per Si atom -12388.647533 kJ/mol
# Density = 2.210470 g / cm^3
# Si number density = 22.155129 Si / 1000 Ang^3
#
#
#
# Elastic Constant Matrix: (Units=GPa)
#
#
# Indices 1 2 3 4 5 6 
#
# 1 106.5079 37.3927 29.4558 0.0000 0.0000 0.0000
# 2 37.3927 149.4662 33.7693 0.0000 0.0000 0.0000
# 3 29.4558 33.7693 89.7226 0.0000 0.0000 0.0000
# 4 0.0000 0.0000 0.0000 7.9394 0.0000 0.0000
# 5 0.0000 0.0000 0.0000 0.0000 29.3013 0.0000
# 6 0.0000 0.0000 0.0000 0.0000 0.0000 54.3814
#
#
#
# Elastic Compliance Matrix: (Units=1/GPa)
#
#
# Indices 1 2 3 4 5 6 
#
# 1 0.010896 -0.002096 -0.002788 0.000000 0.000000 0.000000
# 2 -0.002096 0.007715 -0.002216 0.000000 0.000000 0.000000
# 3 -0.002788 -0.002216 0.012895 0.000000 0.000000 0.000000
# 4 0.000000 0.000000 0.000000 0.125954 0.000000 0.000000
# 5 0.000000 0.000000 0.000000 0.000000 0.034128 0.000000
# 6 0.000000 0.000000 0.000000 0.000000 0.000000 0.018389
#
#
# Mechanical properties :
#
#
# Convention : Reuss Voigt Hill
#
# Bulk Modulus (GPa) = 57.78279 60.77029 59.27654
# Shear Modulus (GPa) = 21.74424 34.66300 28.20362
#
# Velocity S-wave (km/s) = 3.13622 3.95974 3.57179
# Velocity P-wave (km/s) = 6.26515 6.95666 6.61994
#
# Compressibility (1/GPa) = 0.01730619
#
# Stress axis : x y z
#
# Youngs Moduli (GPa) = 91.77734 129.61011 77.55055
#
# Poissons Ratio (x) = 0.27165 0.21623
# Poissons Ratio (y) = 0.19236 0.17184
# Poissons Ratio (z) = 0.25590 0.28719
#
# Static dielectric constant tensor:
#      x y z
#    x 4.153260 0.000000 0.000000 
#    y 0.000000 4.525340 0.000000 
#    z 0.000000 0.000000 3.600650 
# 
# 
# High freq. dielectric constant tensor:
#      x y z
#    x 1.882150 0.000000 0.000000 
#    y 0.000000 1.899310 0.000000 
#    z 0.000000 0.000000 1.845910 
# 
# From -- ./inp_files/29430.got.cif
#   From: 2010.03.12/outbox.cif.g09.slc.cpg/sg68_15_cif.got.tgz:29430.got - 2010.04.10 23:14:56.
