data_PCOD8283392
_publ_section_title
;
Structure prediction by ZEFSAII (Michael W. Deem and Ramdas Pophale) SiO2 
 PCOD8283392
Probable space group: C C C A
;
_chemical_formula_sum "Si O2"
_cell_formula_units_Z 80
_cell_length_a 13.107337
_cell_length_b 21.563773
_cell_length_c 13.730446
_cell_angle_alpha 90.000000
_cell_angle_beta 90.000000
_cell_angle_gamma 90.000000
_cell_volume 3880.823232
_symmetry_space_group_name_H-M "C C C A"
_symmetry_group_IT_number 68
_space_group.IT_coordinate_system_code '2'
_symmetry_cell_setting 'orthorhombic'
loop_
_space_group_symop_operation_xyz
x,y,z
-x,1/2-y,z
x,1/2-y,1/2-z
-x,y,1/2-z
-x,-y,-z
x,1/2+y,-z
-x,1/2+y,1/2+z
x,-y,1/2+z
1/2+x,1/2+y,z
1/2-x,-y,z
1/2+x,-y,1/2-z
1/2-x,1/2+y,1/2-z
1/2-x,1/2-y,-z
1/2+x,y,-z
1/2-x,y,1/2+z
1/2+x,1/2-y,1/2+z
loop_
_atom_site_type_symbol
_atom_site_label
_atom_site_fract_x
_atom_site_fract_y
_atom_site_fract_z
Si Si1 0.379880 0.245270 0.641753
Si Si2 0.278081 0.881053 0.130823
Si Si3 0.569450 0.938028 0.503056
Si Si4 0.876457 0.633316 0.974418
Si Si5 0.265797 0.932009 0.835435
O O1 0.500000 0.250000 0.648121
O O2 0.332504 0.250000 0.750000
O O3 0.343160 0.179543 0.602002
O O4 0.344239 0.300570 0.570984
O O5 0.250079 0.886511 0.244189
O O6 0.345437 0.937765 0.084062
O O7 0.168391 0.873611 0.081898
O O8 0.496738 0.878724 0.483556
O O9 0.625853 0.927062 0.607387
O O10 0.500000 0.000000 0.500000
O O11 0.826759 0.579568 0.909054
O O12 0.250000 0.000000 0.792140
#
# Coordination Sequence:
#
# PCOD8283392 Si02
#       5
#    16  16  16  16  16
#     4  11  21  40  67  96 125 168 224 273 332 400
#     4  11  25  41  68  95 132 175 219 277 339 397
#     4  11  24  43  64  95 136 174 220 280 336 400
#     4  11  23  43  66  93 133 173 219 277 333 397
#     4  11  24  41  64  98 133 175 224 269 335 404
#
# _framework density 20.614182
#
# number of rings (size 3 to 8) (size 9 to 14) (size 15 to 20)
#    0.000    1.000    6.000    0.600    2.800    1.600 
#    0.000    0.000    0.000    0.000    0.000    0.000 
#    0.000    0.000    0.000    0.000    0.000    0.000 
#
# Total GULP energy -495716.878151 kJ/mol
# GULP energy per Si atom -12392.921954 kJ/mol
# Density = 2.056726 g / cm^3
# Si number density = 20.614182 Si / 1000 Ang^3
#
#
#
# Elastic Constant Matrix: (Units=GPa)
#
#
# Indices 1 2 3 4 5 6 
#
# 1 109.2954 29.8550 59.6049 0.0000 0.0000 0.0000
# 2 29.8550 90.6070 22.5192 0.0000 0.0000 0.0000
# 3 59.6049 22.5192 115.4934 0.0000 0.0000 0.0000
# 4 0.0000 0.0000 0.0000 22.9220 0.0000 0.0000
# 5 0.0000 0.0000 0.0000 0.0000 21.8410 0.0000
# 6 0.0000 0.0000 0.0000 0.0000 0.0000 25.2726
#
#
#
# Elastic Compliance Matrix: (Units=1/GPa)
#
#
# Indices 1 2 3 4 5 6 
#
# 1 0.013391 -0.002832 -0.006359 0.000000 0.000000 0.000000
# 2 -0.002832 0.012198 -0.000917 0.000000 0.000000 0.000000
# 3 -0.006359 -0.000917 0.012119 0.000000 0.000000 0.000000
# 4 0.000000 0.000000 0.000000 0.043626 0.000000 0.000000
# 5 0.000000 0.000000 0.000000 0.000000 0.045785 0.000000
# 6 0.000000 0.000000 0.000000 0.000000 0.000000 0.039569
#
#
# Mechanical properties :
#
#
# Convention : Reuss Voigt Hill
#
# Bulk Modulus (GPa) = 57.16710 59.92823 58.54767
# Shear Modulus (GPa) = 25.94259 27.56824 26.75542
#
# Velocity S-wave (km/s) = 3.55136 3.66094 3.60656
# Velocity P-wave (km/s) = 6.67895 6.85598 6.76804
#
# Compressibility (1/GPa) = 0.01749258
#
# Stress axis : x y z
#
# Youngs Moduli (GPa) = 74.67799 81.98298 82.51564
#
# Poissons Ratio (x) = 0.23217 0.52469
# Poissons Ratio (y) = 0.21148 0.07565
# Poissons Ratio (z) = 0.47485 0.07516
#
# Static dielectric constant tensor:
#      x y z
#    x 3.702340 0.000000 0.000000 
#    y 0.000000 4.007130 0.000000 
#    z 0.000000 0.000000 3.682250 
# 
# 
# High freq. dielectric constant tensor:
#      x y z
#    x 1.804790 0.000000 0.000000 
#    y 0.000000 1.808820 0.000000 
#    z 0.000000 0.000000 1.803580 
# 
# From -- ./inp_files/16210.got.cif
#   From: 2010.03.12/outbox.cif.g09.slc.cpg/sg68_9_cif.got.tgz:16210.got - 2010.04.10 23:14:56.
