data_PCOD8283592
_publ_section_title
;
Structure prediction by ZEFSAII (Michael W. Deem and Ramdas Pophale) SiO2 
 PCOD8283592
Probable space group: C C C A
;
_chemical_formula_sum "Si O2"
_cell_formula_units_Z 116
_cell_length_a 16.646849
_cell_length_b 24.412376
_cell_length_c 12.426325
_cell_angle_alpha 90.000000
_cell_angle_beta 90.000000
_cell_angle_gamma 90.000000
_cell_volume 5049.923493
_symmetry_space_group_name_H-M "C C C A"
_symmetry_group_IT_number 68
_space_group.IT_coordinate_system_code '2'
_symmetry_cell_setting 'orthorhombic'
loop_
_space_group_symop_operation_xyz
x,y,z
-x,1/2-y,z
x,1/2-y,1/2-z
-x,y,1/2-z
-x,-y,-z
x,1/2+y,-z
-x,1/2+y,1/2+z
x,-y,1/2+z
1/2+x,1/2+y,z
1/2-x,-y,z
1/2+x,-y,1/2-z
1/2-x,1/2+y,1/2-z
1/2-x,1/2-y,-z
1/2+x,y,-z
1/2-x,y,1/2+z
1/2+x,1/2-y,1/2+z
loop_
_atom_site_type_symbol
_atom_site_label
_atom_site_fract_x
_atom_site_fract_y
_atom_site_fract_z
Si Si1 0.834119 0.975262 0.359447
Si Si2 0.387649 0.314839 0.901273
Si Si3 0.308601 0.598627 0.063424
Si Si4 0.591163 0.419846 0.720076
Si Si5 0.789930 0.807559 0.404005
Si Si6 0.169486 0.877015 0.285205
Si Si7 0.923434 0.782893 0.122585
Si Si8 0.500000 0.750000 0.250000
O O1 0.822865 0.952063 0.481052
O O2 0.864368 0.929925 0.275352
O O3 0.750000 0.000000 0.318794
O O4 0.899608 0.022861 0.343625
O O5 0.376347 0.377916 0.869861
O O6 0.300859 0.286545 0.929160
O O7 0.437645 0.287878 0.808715
O O8 0.442946 0.306296 0.005350
O O9 0.361792 0.587003 0.167778
O O10 0.216477 0.605529 0.105480
O O11 0.328116 0.655740 0.001131
O O12 0.500000 0.409454 0.750000
O O13 0.773199 0.845438 0.299134
O O14 0.846928 0.757342 0.374624
O O15 0.094670 0.836592 0.306795
O O16 0.000000 0.750000 0.167740
#
# Coordination Sequence:
#
# PCOD8283592 Si02
#       8
#    16  16  16  16  16  16  16   4
#     4  11  25  47  75 110 142 194 259 309 379 441
#     4  12  25  45  71 111 145 192 251 300 384 447
#     4  11  24  44  74 108 146 190 255 305 373 457
#     4  12  27  47  75 109 150 197 246 317 383 451
#     4  11  25  45  74 109 144 198 248 300 372 461
#     4  11  24  47  74 105 143 199 244 312 369 457
#     4  12  28  46  72 110 153 201 249 311 380 450
#     4  12  28  40  76 108 152 188 232 332 358 468
#
# _framework density 22.970644
#
# number of rings (size 3 to 8) (size 9 to 14) (size 15 to 20)
#    0.000    0.552    5.517    1.655    7.724    1.655 
#    4.966    0.000    0.000    0.000    0.000    0.000 
#    0.000    0.000    0.000    0.000    0.000    0.000 
#
# Total GULP energy -718858.838831 kJ/mol
# GULP energy per Si atom -12394.117911 kJ/mol
# Density = 2.291836 g / cm^3
# Si number density = 22.970644 Si / 1000 Ang^3
#
#
#
# Elastic Constant Matrix: (Units=GPa)
#
#
# Indices 1 2 3 4 5 6 
#
# 1 114.5552 45.8774 23.4453 0.0000 0.0000 0.0000
# 2 45.8774 142.7254 63.1465 0.0000 0.0000 0.0000
# 3 23.4453 63.1465 133.4176 0.0000 0.0000 0.0000
# 4 0.0000 0.0000 0.0000 39.6670 0.0000 0.0000
# 5 0.0000 0.0000 0.0000 0.0000 26.8694 0.0000
# 6 0.0000 0.0000 0.0000 0.0000 0.0000 39.4018
#
#
#
# Elastic Compliance Matrix: (Units=1/GPa)
#
#
# Indices 1 2 3 4 5 6 
#
# 1 0.010029 -0.003091 -0.000299 0.000000 0.000000 0.000000
# 2 -0.003091 0.009815 -0.004102 0.000000 0.000000 0.000000
# 3 -0.000299 -0.004102 0.009489 0.000000 0.000000 0.000000
# 4 0.000000 0.000000 0.000000 0.025210 0.000000 0.000000
# 5 0.000000 0.000000 0.000000 0.000000 0.037217 0.000000
# 6 0.000000 0.000000 0.000000 0.000000 0.000000 0.025380
#
#
# Mechanical properties :
#
#
# Convention : Reuss Voigt Hill
#
# Bulk Modulus (GPa) = 69.69738 72.84852 71.27295
# Shear Modulus (GPa) = 36.52097 38.40291 37.46194
#
# Velocity S-wave (km/s) = 3.99168 4.09323 4.04277
# Velocity P-wave (km/s) = 7.18696 7.35676 7.27236
#
# Compressibility (1/GPa) = 0.01434774
#
# Stress axis : x y z
#
# Youngs Moduli (GPa) = 99.71450 101.88423 105.38019
#
# Poissons Ratio (x) = 0.31494 0.03154
# Poissons Ratio (y) = 0.30824 0.43230
# Poissons Ratio (z) = 0.02984 0.41796
#
# Static dielectric constant tensor:
#      x y z
#    x 3.862990 0.000000 0.000000 
#    y 0.000000 4.393770 0.000000 
#    z 0.000000 0.000000 4.404980 
# 
# 
# High freq. dielectric constant tensor:
#      x y z
#    x 1.885990 0.000000 0.000000 
#    y 0.000000 1.916940 0.000000 
#    z 0.000000 0.000000 1.930050 
# 
# From -- ./inp_files/14837.got.cif
#   From: 2010.03.12/outbox.cif.g09.slc.cpg/sg68_8_cif.got.tgz:14837.got - 2010.04.10 23:14:56.
