data_PCOD8283353
_publ_section_title
;
Structure prediction by ZEFSAII (Michael W. Deem and Ramdas Pophale) SiO2 
 PCOD8283353
Probable space group: C C C A
;
_chemical_formula_sum "Si O2"
_cell_formula_units_Z 84
_cell_length_a 14.034202
_cell_length_b 18.339784
_cell_length_c 14.664783
_cell_angle_alpha 90.000000
_cell_angle_beta 90.000000
_cell_angle_gamma 90.000000
_cell_volume 3774.483929
_symmetry_space_group_name_H-M "C C C A"
_symmetry_group_IT_number 68
_space_group.IT_coordinate_system_code '2'
_symmetry_cell_setting 'orthorhombic'
loop_
_space_group_symop_operation_xyz
x,y,z
-x,1/2-y,z
x,1/2-y,1/2-z
-x,y,1/2-z
-x,-y,-z
x,1/2+y,-z
-x,1/2+y,1/2+z
x,-y,1/2+z
1/2+x,1/2+y,z
1/2-x,-y,z
1/2+x,-y,1/2-z
1/2-x,1/2+y,1/2-z
1/2-x,1/2-y,-z
1/2+x,y,-z
1/2-x,y,1/2+z
1/2+x,1/2-y,1/2+z
loop_
_atom_site_type_symbol
_atom_site_label
_atom_site_fract_x
_atom_site_fract_y
_atom_site_fract_z
Si Si1 0.758975 0.664113 0.992743
Si Si2 0.911722 0.631542 0.124857
Si Si3 0.155004 0.952234 0.881476
Si Si4 0.639530 0.016383 0.819440
Si Si5 0.500000 0.750000 0.750000
Si Si6 0.425981 0.576324 0.504153
O O1 0.830057 0.630868 0.915422
O O2 0.658488 0.629899 0.967237
O O3 0.750000 0.750000 0.000000
O O4 0.803329 0.639128 0.089057
O O5 0.914215 0.561065 0.189439
O O6 0.934233 0.701466 0.185412
O O7 0.981540 0.620651 0.037658
O O8 0.122909 0.944746 0.777149
O O9 0.250000 0.000000 0.889564
O O10 0.078579 0.995996 0.945937
O O11 0.750000 0.000000 0.844428
O O12 0.585770 0.065170 0.895393
#
# Coordination Sequence:
#
# PCOD8283353 Si02
#       6
#    16  16  16  16   4  16
#     4  11  23  42  64  93 138 184 217 272 349 406
#     4  12  24  42  67  98 138 175 222 289 339 404
#     4   9  20  37  63  94 133 174 225 278 325 399
#     4  11  20  38  67  99 131 176 234 281 331 392
#     4  12  28  44  64 108 138 170 230 280 360 420
#     4  11  21  43  64  96 136 175 227 282 337 397
#
# _framework density 22.254698000000001
#
# number of rings (size 3 to 8) (size 9 to 14) (size 15 to 20)
#    0.000    1.143    3.810    3.429    0.000    3.048 
#    0.000    0.000    0.000    0.000    0.000    4.000 
#    0.000    0.000    0.000    0.000    0.000    0.000 
#
# Total GULP energy -520513.453820 kJ/mol
# GULP energy per Si atom -12393.177472 kJ/mol
# Density = 2.220405 g / cm^3
# Si number density = 22.254698 Si / 1000 Ang^3
#
#
#
# Elastic Constant Matrix: (Units=GPa)
#
#
# Indices 1 2 3 4 5 6 
#
# 1 61.3751 17.9238 15.2225 0.0000 0.0000 0.0000
# 2 17.9238 152.4811 55.7015 0.0000 0.0000 0.0000
# 3 15.2225 55.7015 138.2114 0.0000 0.0000 0.0000
# 4 0.0000 0.0000 0.0000 41.4995 0.0000 0.0000
# 5 0.0000 0.0000 0.0000 0.0000 22.4437 0.0000
# 6 0.0000 0.0000 0.0000 0.0000 0.0000 28.2609
#
#
#
# Elastic Compliance Matrix: (Units=1/GPa)
#
#
# Indices 1 2 3 4 5 6 
#
# 1 0.017056 -0.001546 -0.001255 0.000000 0.000000 0.000000
# 2 -0.001546 0.007831 -0.002986 0.000000 0.000000 0.000000
# 3 -0.001255 -0.002986 0.008577 0.000000 0.000000 0.000000
# 4 0.000000 0.000000 0.000000 0.024097 0.000000 0.000000
# 5 0.000000 0.000000 0.000000 0.000000 0.044556 0.000000
# 6 0.000000 0.000000 0.000000 0.000000 0.000000 0.035385
#
#
# Mechanical properties :
#
#
# Convention : Reuss Voigt Hill
#
# Bulk Modulus (GPa) = 45.68486 58.86257 52.27372
# Shear Modulus (GPa) = 31.97514 35.98882 33.98198
#
# Velocity S-wave (km/s) = 3.79460 4.02572 3.91187
# Velocity P-wave (km/s) = 6.30646 6.93653 6.62899
#
# Compressibility (1/GPa) = 0.02188909
#
# Stress axis : x y z
#
# Youngs Moduli (GPa) = 58.62975 127.70442 116.59388
#
# Poissons Ratio (x) = 0.19747 0.14637
# Poissons Ratio (y) = 0.09066 0.34810
# Poissons Ratio (z) = 0.07360 0.38127
#
# Static dielectric constant tensor:
#      x y z
#    x 4.358180 0.000000 0.000000 
#    y 0.000000 3.907670 0.000000 
#    z 0.000000 0.000000 4.013460 
# 
# 
# High freq. dielectric constant tensor:
#      x y z
#    x 1.893040 0.000000 0.000000 
#    y 0.000000 1.855360 0.000000 
#    z 0.000000 0.000000 1.874810 
# 
# From -- ./inp_files/22251.got.cif
#   From: 2010.03.12/outbox.cif.g09.slc.cpg/sg68_12_cif.got.tgz:22251.got - 2010.04.10 23:14:56.
