data_PCOD8283966
_publ_section_title
;
Structure prediction by ZEFSAII (Michael W. Deem and Ramdas Pophale) SiO2 
 PCOD8283966
Probable space group: F M M M
;
_chemical_formula_sum "Si O2"
_cell_formula_units_Z 176
_cell_length_a 28.047990
_cell_length_b 16.996900
_cell_length_c 18.297044
_cell_angle_alpha 90.000000
_cell_angle_beta 90.000000
_cell_angle_gamma 90.000000
_cell_volume 8722.729316
_symmetry_space_group_name_H-M "F M M M"
_symmetry_group_IT_number 69
_symmetry_cell_setting 'orthorhombic'
loop_
_space_group_symop_operation_xyz
x,y,z
-x,-y,z
x,-y,-z
-x,y,-z
-x,-y,-z
x,y,-z
-x,y,z
x,-y,z
x,1/2+y,1/2+z
-x,1/2-y,1/2+z
x,1/2-y,1/2-z
-x,1/2+y,1/2-z
-x,1/2-y,1/2-z
x,1/2+y,1/2-z
-x,1/2+y,1/2+z
x,1/2-y,1/2+z
1/2+x,y,1/2+z
1/2-x,-y,1/2+z
1/2+x,-y,1/2-z
1/2-x,y,1/2-z
1/2-x,-y,1/2-z
1/2+x,y,1/2-z
1/2-x,y,1/2+z
1/2+x,-y,1/2+z
1/2+x,1/2+y,z
1/2-x,1/2-y,z
1/2+x,1/2-y,-z
1/2-x,1/2+y,-z
1/2-x,1/2-y,-z
1/2+x,1/2+y,-z
1/2-x,1/2+y,z
1/2+x,1/2-y,z
loop_
_atom_site_type_symbol
_atom_site_label
_atom_site_fract_x
_atom_site_fract_y
_atom_site_fract_z
Si Si1 0.805661 0.241634 0.415423
Si Si2 0.443366 0.413230 0.000000
Si Si3 0.355162 0.176233 0.706570
Si Si4 0.553619 0.129180 0.083910
Si Si5 0.553717 0.694067 0.129737
Si Si6 0.850677 0.587577 0.154923
O O1 0.819106 0.251317 0.500000
O O2 0.750000 0.250000 0.401458
O O3 0.830414 0.315496 0.373013
O O4 0.823195 0.154895 0.390210
O O5 0.426522 0.369897 0.927171
O O6 0.420907 0.500000 0.000000
O O7 0.500000 0.414404 0.000000
O O8 0.333894 0.250000 0.750000
O O9 0.412329 0.185990 0.699719
O O10 0.344370 0.100322 0.756968
O O11 0.500000 0.102461 0.107250
O O12 0.558361 0.222649 0.090333
O O13 0.593060 0.088645 0.135007
O O14 0.563067 0.105167 0.000000
O O15 0.500000 0.677441 0.156411
O O16 0.830577 0.500000 0.137187
#
# Coordination Sequence:
#
# PCOD8283966 Si02
#       6
#    32  16  32  32  32  32
#     4  10  22  42  68  93 113 147 199 256 308 365
#     4   9  18  30  46  74 108 147 197 247 292 332
#     4  10  21  36  57  86 117 156 197 238 290 358
#     4  10  19  33  57  90 124 165 214 256 297 356
#     4  10  18  30  53  81 114 158 204 244 285 345
#     4  11  24  40  60  91 129 165 199 245 308 372
#
# _framework density 20.177171999999999
#
# number of rings (size 3 to 8) (size 9 to 14) (size 15 to 20)
#    0.000    1.909    4.545    0.545    1.273    6.909 
#    0.000    2.727    0.000    1.091    0.000    0.000 
#    0.000    0.000    0.000    0.000    0.000    0.000 
#
# Total GULP energy -545241.743047 kJ/mol
# GULP energy per Si atom -12391.857797 kJ/mol
# Density = 2.013125 g / cm^3
# Si number density = 20.177172 Si / 1000 Ang^3
#
#
#
# Elastic Constant Matrix: (Units=GPa)
#
#
# Indices 1 2 3 4 5 6 
#
# 1 93.5058 26.5349 46.0218 0.0000 0.0000 0.0000
# 2 26.5349 88.9755 33.6429 0.0000 0.0000 0.0000
# 3 46.0218 33.6429 109.7434 0.0000 0.0000 0.0000
# 4 0.0000 0.0000 0.0000 14.4878 0.0000 0.0000
# 5 0.0000 0.0000 0.0000 0.0000 24.0147 0.0000
# 6 0.0000 0.0000 0.0000 0.0000 0.0000 12.2329
#
#
#
# Elastic Compliance Matrix: (Units=1/GPa)
#
#
# Indices 1 2 3 4 5 6 
#
# 1 0.013842 -0.002187 -0.005134 0.000000 0.000000 0.000000
# 2 -0.002187 0.013058 -0.003086 0.000000 0.000000 0.000000
# 3 -0.005134 -0.003086 0.012211 0.000000 0.000000 0.000000
# 4 0.000000 0.000000 0.000000 0.069024 0.000000 0.000000
# 5 0.000000 0.000000 0.000000 0.000000 0.041641 0.000000
# 6 0.000000 0.000000 0.000000 0.000000 0.000000 0.081747
#
#
# Mechanical properties :
#
#
# Convention : Reuss Voigt Hill
#
# Bulk Modulus (GPa) = 54.65326 56.06932 55.36129
# Shear Modulus (GPa) = 19.34709 22.54875 20.94792
#
# Velocity S-wave (km/s) = 3.09991 3.34659 3.22561
# Velocity P-wave (km/s) = 6.32124 6.54077 6.43194
#
# Compressibility (1/GPa) = 0.01829717
#
# Stress axis : x y z
#
# Youngs Moduli (GPa) = 72.24310 76.58101 81.89053
#
# Poissons Ratio (x) = 0.16746 0.42047
# Poissons Ratio (y) = 0.15797 0.25272
# Poissons Ratio (z) = 0.37093 0.23633
#
# Static dielectric constant tensor:
#      x y z
#    x 3.734920 0.000000 0.000000 
#    y 0.000000 3.587000 0.000000 
#    z 0.000000 0.000000 3.820430 
# 
# 
# High freq. dielectric constant tensor:
#      x y z
#    x 1.775300 0.000000 0.000000 
#    y 0.000000 1.762930 0.000000 
#    z 0.000000 0.000000 1.790700 
# 
# From -- ./inp_files/26735.got.cif
#   From: 2010.03.12/outbox.cif.g09.slc.cpg/sg69_14_cif.got.tgz:26735.got - 2010.04.10 23:52:46.
