data_PCOD8283331
_publ_section_title
;
Structure prediction by ZEFSAII (Michael W. Deem and Ramdas Pophale) SiO2 
 PCOD8283331
Probable space group: C C C A
;
_chemical_formula_sum "Si O2"
_cell_formula_units_Z 76
_cell_length_a 20.413976
_cell_length_b 12.942950
_cell_length_c 14.896031
_cell_angle_alpha 90.000000
_cell_angle_beta 90.000000
_cell_angle_gamma 90.000000
_cell_volume 3935.785675
_symmetry_space_group_name_H-M "C C C A"
_symmetry_group_IT_number 68
_space_group.IT_coordinate_system_code '2'
_symmetry_cell_setting 'orthorhombic'
loop_
_space_group_symop_operation_xyz
x,y,z
-x,1/2-y,z
x,1/2-y,1/2-z
-x,y,1/2-z
-x,-y,-z
x,1/2+y,-z
-x,1/2+y,1/2+z
x,-y,1/2+z
1/2+x,1/2+y,z
1/2-x,-y,z
1/2+x,-y,1/2-z
1/2-x,1/2+y,1/2-z
1/2-x,1/2-y,-z
1/2+x,y,-z
1/2-x,y,1/2+z
1/2+x,1/2-y,1/2+z
loop_
_atom_site_type_symbol
_atom_site_label
_atom_site_fract_x
_atom_site_fract_y
_atom_site_fract_z
Si Si1 0.324878 0.745524 0.469670
Si Si2 0.705498 0.593603 0.164971
Si Si3 0.891154 0.652809 0.368039
Si Si4 0.177256 0.455157 0.134957
Si Si5 0.292287 0.750000 0.750000
Si Si6 0.500000 0.250000 0.250000
O O1 0.250000 0.750000 0.500000
O O2 0.341476 0.639435 0.412679
O O3 0.375949 0.735180 0.552997
O O4 0.340180 0.850584 0.416917
O O5 0.750000 0.500000 0.127739
O O6 0.670352 0.565714 0.258125
O O7 0.749809 0.696058 0.174236
O O8 0.880824 0.533441 0.396856
O O9 0.834437 0.659598 0.293291
O O10 0.958848 0.677070 0.317306
O O11 0.250000 0.500000 0.112198
#
# Coordination Sequence:
#
# PCOD8283331 Si02
#       6
#    16  16  16  16   8   4
#     4  12  21  31  57  97 131 152 201 275 334 376
#     4  11  19  30  52  89 135 164 181 237 349 397
#     4  11  23  40  62  84 123 175 221 258 302 389
#     4  11  19  35  57  94 131 160 198 261 342 389
#     4  11  16  33  52  84 126 161 189 248 308 393
#     4  10  28  52  64  76 128 196 230 250 300 392
#
# _framework density 19.309992999999999
#
# number of rings (size 3 to 8) (size 9 to 14) (size 15 to 20)
#    0.000    0.842   10.526    0.000    2.947    0.000 
#    0.000    1.053    0.000    0.000    0.000    0.000 
#    0.000    0.000    0.000    0.000    0.000    0.000 
#
# Total GULP energy -470747.133060 kJ/mol
# GULP energy per Si atom -12388.082449 kJ/mol
# Density = 1.926604 g / cm^3
# Si number density = 19.309993 Si / 1000 Ang^3
#
#
#
# Elastic Constant Matrix: (Units=GPa)
#
#
# Indices 1 2 3 4 5 6 
#
# 1 68.9554 37.0173 32.7724 0.0000 0.0000 0.0000
# 2 37.0173 136.4495 44.7118 0.0000 0.0000 0.0000
# 3 32.7724 44.7118 98.2564 0.0000 0.0000 0.0000
# 4 0.0000 0.0000 0.0000 31.4509 0.0000 0.0000
# 5 0.0000 0.0000 0.0000 0.0000 25.7897 0.0000
# 6 0.0000 0.0000 0.0000 0.0000 0.0000 16.8669
#
#
#
# Elastic Compliance Matrix: (Units=1/GPa)
#
#
# Indices 1 2 3 4 5 6 
#
# 1 0.018582 -0.003538 -0.004588 0.000000 0.000000 0.000000
# 2 -0.003538 0.009287 -0.003046 0.000000 0.000000 0.000000
# 3 -0.004588 -0.003046 0.013094 0.000000 0.000000 0.000000
# 4 0.000000 0.000000 0.000000 0.031796 0.000000 0.000000
# 5 0.000000 0.000000 0.000000 0.000000 0.038775 0.000000
# 6 0.000000 0.000000 0.000000 0.000000 0.000000 0.059288
#
#
# Mechanical properties :
#
#
# Convention : Reuss Voigt Hill
#
# Bulk Modulus (GPa) = 53.70844 59.18492 56.44668
# Shear Modulus (GPa) = 25.07900 27.43214 26.25557
#
# Velocity S-wave (km/s) = 3.60774 3.77320 3.69140
# Velocity P-wave (km/s) = 6.72522 7.04976 6.88940
#
# Compressibility (1/GPa) = 0.01861905
#
# Stress axis : x y z
#
# Youngs Moduli (GPa) = 53.81617 107.68276 76.37223
#
# Poissons Ratio (x) = 0.38095 0.35039
# Poissons Ratio (y) = 0.19038 0.23262
# Poissons Ratio (z) = 0.24691 0.32799
#
# Static dielectric constant tensor:
#      x y z
#    x 2.960970 0.000000 0.000000 
#    y 0.000000 3.990130 0.000000 
#    z 0.000000 0.000000 3.754450 
# 
# 
# High freq. dielectric constant tensor:
#      x y z
#    x 1.668540 0.000000 0.000000 
#    y 0.000000 1.772190 0.000000 
#    z 0.000000 0.000000 1.772090 
# 
# From -- ./inp_files/22180.got.cif
#   From: 2010.03.12/outbox.cif.g09.slc.cpg/sg68_12_cif.got.tgz:22180.got - 2010.04.10 23:14:56.
