data_PCOD8283224
_publ_section_title
;
Structure prediction by ZEFSAII (Michael W. Deem and Ramdas Pophale) SiO2 
 PCOD8283224
Probable space group: C C C A
;
_chemical_formula_sum "Si O2"
_cell_formula_units_Z 56
_cell_length_a 5.689913
_cell_length_b 14.152832
_cell_length_c 28.589588
_cell_angle_alpha 90.000000
_cell_angle_beta 90.000000
_cell_angle_gamma 90.000000
_cell_volume 2302.273286
_symmetry_space_group_name_H-M "C C C A"
_symmetry_group_IT_number 68
_space_group.IT_coordinate_system_code '2'
_symmetry_cell_setting 'orthorhombic'
loop_
_space_group_symop_operation_xyz
x,y,z
-x,1/2-y,z
x,1/2-y,1/2-z
-x,y,1/2-z
-x,-y,-z
x,1/2+y,-z
-x,1/2+y,1/2+z
x,-y,1/2+z
1/2+x,1/2+y,z
1/2-x,-y,z
1/2+x,-y,1/2-z
1/2-x,1/2+y,1/2-z
1/2-x,1/2-y,-z
1/2+x,y,-z
1/2-x,y,1/2+z
1/2+x,1/2-y,1/2+z
loop_
_atom_site_type_symbol
_atom_site_label
_atom_site_fract_x
_atom_site_fract_y
_atom_site_fract_z
Si Si1 0.706953 0.644113 0.983256
Si Si2 0.192578 0.109572 0.876519
Si Si3 0.154039 0.895405 0.204149
Si Si4 0.500000 0.250000 0.822094
O O1 0.639581 0.640098 0.929125
O O2 0.750000 0.750000 0.000000
O O3 0.469351 0.596783 0.007777
O O4 0.403828 0.170387 0.856763
O O5 0.970861 0.132529 0.844151
O O6 0.250000 0.000000 0.872877
O O7 0.334907 0.810162 0.212382
O O8 0.000000 0.894630 0.250000
O O9 0.250000 0.000000 0.198550
#
# Coordination Sequence:
#
# PCOD8283224 Si02
#       4
#    16  16  16   8
#     4  10  24  44  73 114 161 217 276 349 414 495
#     4  12  27  49  81 116 161 221 275 348 419 503
#     4  12  29  54  81 119 165 210 276 347 418 512
#     4  12  28  51  80 112 156 214 268 332 425 496
#
# _framework density 24.323784
#
# number of rings (size 3 to 8) (size 9 to 14) (size 15 to 20)
#    0.000    0.571    2.857    3.429   12.000    4.571 
#    0.000    0.000    0.000    0.000    0.000    0.000 
#    0.000    0.000    0.000    0.000    0.000    0.000 
#
# Total GULP energy -346904.906694 kJ/mol
# GULP energy per Si atom -12389.460953 kJ/mol
# Density = 2.426842 g / cm^3
# Si number density = 24.323784 Si / 1000 Ang^3
#
#
#
# Elastic Constant Matrix: (Units=GPa)
#
#
# Indices 1 2 3 4 5 6 
#
# 1 156.5685 12.9161 44.8205 0.0000 0.0000 0.0000
# 2 12.9161 125.1878 -1.2987 0.0000 0.0000 0.0000
# 3 44.8205 -1.2987 127.3344 0.0000 0.0000 0.0000
# 4 0.0000 0.0000 0.0000 46.8809 0.0000 0.0000
# 5 0.0000 0.0000 0.0000 0.0000 101.1276 0.0000
# 6 0.0000 0.0000 0.0000 0.0000 0.0000 29.7007
#
#
#
# Elastic Compliance Matrix: (Units=1/GPa)
#
#
# Indices 1 2 3 4 5 6 
#
# 1 0.007175 -0.000767 -0.002534 0.000000 0.000000 0.000000
# 2 -0.000767 0.008071 0.000352 0.000000 0.000000 0.000000
# 3 -0.002534 0.000352 0.008749 0.000000 0.000000 0.000000
# 4 0.000000 0.000000 0.000000 0.021331 0.000000 0.000000
# 5 0.000000 0.000000 0.000000 0.000000 0.009889 0.000000
# 6 0.000000 0.000000 0.000000 0.000000 0.000000 0.033669
#
#
# Mechanical properties :
#
#
# Convention : Reuss Voigt Hill
#
# Bulk Modulus (GPa) = 55.25170 57.99627 56.62398
# Shear Modulus (GPa) = 49.59714 59.05201 54.32458
#
# Velocity S-wave (km/s) = 4.52047 4.93256 4.73101
# Velocity P-wave (km/s) = 7.07182 7.50569 7.29198
#
# Compressibility (1/GPa) = 0.01809899
#
# Stress axis : x y z
#
# Youngs Moduli (GPa) = 139.36339 123.90424 114.30267
#
# Poissons Ratio (x) = 0.09499 0.28959
# Poissons Ratio (y) = 0.10684 -0.04025
# Poissons Ratio (z) = 0.35308 -0.04363
#
# Static dielectric constant tensor:
#      x y z
#    x 4.559580 0.000000 0.000000 
#    y 0.000000 4.514930 0.000000 
#    z 0.000000 0.000000 3.888550 
# 
# 
# High freq. dielectric constant tensor:
#      x y z
#    x 1.979450 0.000000 0.000000 
#    y 0.000000 1.983100 0.000000 
#    z 0.000000 0.000000 1.977340 
# 
# From -- ./inp_files/52753.got.cif
#   From: 2010.03.12/outbox.cif.g09.slc.cpg/sg68_27_cif.got.tgz:52753.got - 2010.04.10 23:14:56.
