data_PCOD8283569
_publ_section_title
;
Structure prediction by ZEFSAII (Michael W. Deem and Ramdas Pophale) SiO2 
 PCOD8283569
Probable space group: C C C A
;
_chemical_formula_sum "Si O2"
_cell_formula_units_Z 64
_cell_length_a 16.758792
_cell_length_b 11.165946
_cell_length_c 16.006941
_cell_angle_alpha 90.000000
_cell_angle_beta 90.000000
_cell_angle_gamma 90.000000
_cell_volume 2995.343118
_symmetry_space_group_name_H-M "C C C A"
_symmetry_group_IT_number 68
_space_group.IT_coordinate_system_code '2'
_symmetry_cell_setting 'orthorhombic'
loop_
_space_group_symop_operation_xyz
x,y,z
-x,1/2-y,z
x,1/2-y,1/2-z
-x,y,1/2-z
-x,-y,-z
x,1/2+y,-z
-x,1/2+y,1/2+z
x,-y,1/2+z
1/2+x,1/2+y,z
1/2-x,-y,z
1/2+x,-y,1/2-z
1/2-x,1/2+y,1/2-z
1/2-x,1/2-y,-z
1/2+x,y,-z
1/2-x,y,1/2+z
1/2+x,1/2-y,1/2+z
loop_
_atom_site_type_symbol
_atom_site_label
_atom_site_fract_x
_atom_site_fract_y
_atom_site_fract_z
Si Si1 0.487371 0.114671 0.652378
Si Si2 0.362000 0.982242 0.897829
Si Si3 0.746674 0.692973 0.340666
Si Si4 0.317567 0.418084 0.915530
O O1 0.500000 0.250000 0.616457
O O2 0.500000 0.113559 0.750000
O O3 0.397894 0.072283 0.637329
O O4 0.544884 0.016753 0.607985
O O5 0.337618 0.854854 0.854761
O O6 0.314372 0.083983 0.848726
O O7 0.334631 0.969017 0.992912
O O8 0.736836 0.750000 0.250000
O O9 0.719212 0.784881 0.413075
O O10 0.250000 0.500000 0.872034
#
# Coordination Sequence:
#
# PCOD8283569 Si02
#       4
#    16  16  16  16
#     4  11  24  45  71 103 140 187 235 284 352 423
#     4  11  24  45  70 104 142 184 238 288 357 424
#     4  11  24  42  72 105 140 182 238 290 352 421
#     4  12  25  43  73 105 140 182 233 295 353 422
#
# _framework density 21.366499999999998
#
# number of rings (size 3 to 8) (size 9 to 14) (size 15 to 20)
#    0.000    0.750    5.000    3.000    7.000    0.000 
#    0.000    1.250    0.000    0.000    0.000    0.000 
#    0.000    0.000    0.000    0.000    0.000    0.000 
#
# Total GULP energy -396647.888131 kJ/mol
# GULP energy per Si atom -12395.246504 kJ/mol
# Density = 2.131787 g / cm^3
# Si number density = 21.366500 Si / 1000 Ang^3
#
#
#
# Elastic Constant Matrix: (Units=GPa)
#
#
# Indices 1 2 3 4 5 6 
#
# 1 186.5310 92.4207 51.7602 0.0000 0.0000 0.0000
# 2 92.4207 111.9395 52.2723 0.0000 0.0000 0.0000
# 3 51.7602 52.2723 101.3963 0.0000 0.0000 0.0000
# 4 0.0000 0.0000 0.0000 55.8514 0.0000 0.0000
# 5 0.0000 0.0000 0.0000 0.0000 1.0719 0.0000
# 6 0.0000 0.0000 0.0000 0.0000 0.0000 44.7360
#
#
#
# Elastic Compliance Matrix: (Units=1/GPa)
#
#
# Indices 1 2 3 4 5 6 
#
# 1 0.009152 -0.007079 -0.001023 0.000000 0.000000 0.000000
# 2 -0.007079 0.017241 -0.005275 0.000000 0.000000 0.000000
# 3 -0.001023 -0.005275 0.013104 0.000000 0.000000 0.000000
# 4 0.000000 0.000000 0.000000 0.017905 0.000000 0.000000
# 5 0.000000 0.000000 0.000000 0.000000 0.932958 0.000000
# 6 0.000000 0.000000 0.000000 0.000000 0.000000 0.022353
#
#
# Mechanical properties :
#
#
# Convention : Reuss Voigt Hill
#
# Bulk Modulus (GPa) = 78.46486 88.08591 83.27539
# Shear Modulus (GPa) = 4.79059 33.89275 19.34167
#
# Velocity S-wave (km/s) = 1.49899 3.98710 3.01197
# Velocity P-wave (km/s) = 6.30864 7.90643 7.15230
#
# Compressibility (1/GPa) = 0.01274456
#
# Stress axis : x y z
#
# Youngs Moduli (GPa) = 109.26431 58.00167 76.31536
#
# Poissons Ratio (x) = 0.41058 0.07804
# Poissons Ratio (y) = 0.77345 0.40253
# Poissons Ratio (z) = 0.11174 0.30594
#
# Static dielectric constant tensor:
#      x y z
#    x 4.480710 0.000000 0.000000 
#    y 0.000000 4.349380 0.000000 
#    z 0.000000 0.000000 3.696390 
# 
# 
# High freq. dielectric constant tensor:
#      x y z
#    x 1.842640 0.000000 0.000000 
#    y 0.000000 1.839980 0.000000 
#    z 0.000000 0.000000 1.836750 
# 
# From -- ./inp_files/20449.got.cif
#   From: 2010.03.12/outbox.cif.g09.slc.cpg/sg68_11_cif.got.tgz:20449.got - 2010.04.10 23:14:56.
