data_PCOD8283440
_publ_section_title
;
Structure prediction by ZEFSAII (Michael W. Deem and Ramdas Pophale) SiO2 
 PCOD8283440
Probable space group: C C C A
;
_chemical_formula_sum "Si O2"
_cell_formula_units_Z 112
_cell_length_a 15.981859
_cell_length_b 22.360543
_cell_length_c 14.361458
_cell_angle_alpha 90.000000
_cell_angle_beta 90.000000
_cell_angle_gamma 90.000000
_cell_volume 5132.254367
_symmetry_space_group_name_H-M "C C C A"
_symmetry_group_IT_number 68
_space_group.IT_coordinate_system_code '2'
_symmetry_cell_setting 'orthorhombic'
loop_
_space_group_symop_operation_xyz
x,y,z
-x,1/2-y,z
x,1/2-y,1/2-z
-x,y,1/2-z
-x,-y,-z
x,1/2+y,-z
-x,1/2+y,1/2+z
x,-y,1/2+z
1/2+x,1/2+y,z
1/2-x,-y,z
1/2+x,-y,1/2-z
1/2-x,1/2+y,1/2-z
1/2-x,1/2-y,-z
1/2+x,y,-z
1/2-x,y,1/2+z
1/2+x,1/2-y,1/2+z
loop_
_atom_site_type_symbol
_atom_site_label
_atom_site_fract_x
_atom_site_fract_y
_atom_site_fract_z
Si Si1 0.299956 0.308594 0.300072
Si Si2 0.584438 0.479120 0.630764
Si Si3 0.866681 0.918697 0.503664
Si Si4 0.195406 0.124454 0.059957
Si Si5 0.541580 0.689293 0.573802
Si Si6 0.121802 0.871099 0.369586
Si Si7 0.895584 0.006655 0.166010
O O1 0.267100 0.250000 0.250000
O O2 0.219560 0.327214 0.361659
O O3 0.381666 0.291814 0.360460
O O4 0.325569 0.357587 0.223186
O O5 0.584476 0.531528 0.555063
O O6 0.619831 0.417233 0.592162
O O7 0.633716 0.495753 0.726443
O O8 0.489171 0.469048 0.656895
O O9 0.779138 0.913497 0.452133
O O10 0.921150 0.856878 0.503704
O O11 0.845241 0.942974 0.607255
O O12 0.168124 0.155023 0.962138
O O13 0.500000 0.750000 0.530037
O O14 0.471492 0.656124 0.636337
O O15 0.116355 0.942289 0.380449
#
# Coordination Sequence:
#
# PCOD8283440 Si02
#       7
#    16  16  16  16  16  16  16
#     4  11  25  44  68  95 133 172 225 282 333 393
#     4  11  22  40  61  93 130 168 219 268 322 397
#     4  11  22  42  62  95 137 171 211 267 336 398
#     4  11  26  41  60  96 136 172 210 269 334 414
#     4  11  22  41  69  99 125 163 227 285 322 377
#     4  12  23  40  69  94 130 172 217 273 338 385
#     4  11  23  38  68  93 127 176 216 268 329 397
#
# _framework density 21.822768
#
# number of rings (size 3 to 8) (size 9 to 14) (size 15 to 20)
#    0.000    0.857    4.286    3.857    4.000    0.571 
#    0.000    0.000    0.000    0.000    0.000    1.000 
#    0.000    0.000    0.000    0.000    0.000    0.000 
#
# Total GULP energy -694241.905056 kJ/mol
# GULP energy per Si atom -12397.176876 kJ/mol
# Density = 2.177310 g / cm^3
# Si number density = 21.822768 Si / 1000 Ang^3
#
#
#
# Elastic Constant Matrix: (Units=GPa)
#
#
# Indices 1 2 3 4 5 6 
#
# 1 58.1122 20.5434 9.4770 0.0000 0.0000 0.0000
# 2 20.5434 112.3942 30.8511 0.0000 0.0000 0.0000
# 3 9.4770 30.8511 90.6191 0.0000 0.0000 0.0000
# 4 0.0000 0.0000 0.0000 32.8087 0.0000 0.0000
# 5 0.0000 0.0000 0.0000 0.0000 18.4042 0.0000
# 6 0.0000 0.0000 0.0000 0.0000 0.0000 25.1680
#
#
#
# Elastic Compliance Matrix: (Units=1/GPa)
#
#
# Indices 1 2 3 4 5 6 
#
# 1 0.018458 -0.003137 -0.000862 0.000000 0.000000 0.000000
# 2 -0.003137 0.010348 -0.003195 0.000000 0.000000 0.000000
# 3 -0.000862 -0.003195 0.012213 0.000000 0.000000 0.000000
# 4 0.000000 0.000000 0.000000 0.030480 0.000000 0.000000
# 5 0.000000 0.000000 0.000000 0.000000 0.054335 0.000000
# 6 0.000000 0.000000 0.000000 0.000000 0.000000 0.039733
#
#
# Mechanical properties :
#
#
# Convention : Reuss Voigt Hill
#
# Bulk Modulus (GPa) = 37.55143 42.54095 40.04619
# Shear Modulus (GPa) = 26.47867 28.62645 27.55256
#
# Velocity S-wave (km/s) = 3.48710 3.62577 3.55711
# Velocity P-wave (km/s) = 5.78428 6.08805 5.93811
#
# Compressibility (1/GPa) = 0.02663015
#
# Stress axis : x y z
#
# Youngs Moduli (GPa) = 54.17799 96.64117 81.87981
#
# Poissons Ratio (x) = 0.30316 0.07061
# Poissons Ratio (y) = 0.16996 0.26158
# Poissons Ratio (z) = 0.04672 0.30874
#
# Static dielectric constant tensor:
#      x y z
#    x 3.896420 0.000000 0.000000 
#    y 0.000000 3.830060 0.000000 
#    z 0.000000 0.000000 4.433740 
# 
# 
# High freq. dielectric constant tensor:
#      x y z
#    x 1.851940 0.000000 0.000000 
#    y 0.000000 1.847990 0.000000 
#    z 0.000000 0.000000 1.856950 
# 
# From -- ./inp_files/22620.got.cif
#   From: 2010.03.12/outbox.cif.g09.slc.cpg/sg68_12_cif.got.tgz:22620.got - 2010.04.10 23:14:56.
