data_PCOD8283884
_publ_section_title
;
Structure prediction by ZEFSAII (Michael W. Deem and Ramdas Pophale) SiO2 
 PCOD8283884
Probable space group: F M M M
;
_chemical_formula_sum "Si O2"
_cell_formula_units_Z 144
_cell_length_a 34.147868
_cell_length_b 28.063524
_cell_length_c 10.096301
_cell_angle_alpha 90.000000
_cell_angle_beta 90.000000
_cell_angle_gamma 90.000000
_cell_volume 9675.381296
_symmetry_space_group_name_H-M "F M M M"
_symmetry_group_IT_number 69
_symmetry_cell_setting 'orthorhombic'
loop_
_space_group_symop_operation_xyz
x,y,z
-x,-y,z
x,-y,-z
-x,y,-z
-x,-y,-z
x,y,-z
-x,y,z
x,-y,z
x,1/2+y,1/2+z
-x,1/2-y,1/2+z
x,1/2-y,1/2-z
-x,1/2+y,1/2-z
-x,1/2-y,1/2-z
x,1/2+y,1/2-z
-x,1/2+y,1/2+z
x,1/2-y,1/2+z
1/2+x,y,1/2+z
1/2-x,-y,1/2+z
1/2+x,-y,1/2-z
1/2-x,y,1/2-z
1/2-x,-y,1/2-z
1/2+x,y,1/2-z
1/2-x,y,1/2+z
1/2+x,-y,1/2+z
1/2+x,1/2+y,z
1/2-x,1/2-y,z
1/2+x,1/2-y,-z
1/2-x,1/2+y,-z
1/2-x,1/2-y,-z
1/2+x,1/2+y,-z
1/2-x,1/2+y,z
1/2+x,1/2-y,z
loop_
_atom_site_type_symbol
_atom_site_label
_atom_site_fract_x
_atom_site_fract_y
_atom_site_fract_z
Si Si1 0.653988 0.445666 0.154082
Si Si2 0.203857 0.698289 0.500000
Si Si3 0.434539 0.443425 0.147274
Si Si4 0.500000 0.943181 0.848030
Si Si5 0.796737 0.195267 0.500000
Si Si6 0.703627 0.862556 0.252396
O O1 0.658923 0.500000 0.202377
O O2 0.609751 0.427485 0.178562
O O3 0.683202 0.413916 0.241313
O O4 0.665152 0.441373 0.000000
O O5 0.185433 0.751375 0.500000
O O6 0.250380 0.700850 0.500000
O O7 0.189040 0.669802 0.626894
O O8 0.436650 0.500000 0.142660
O O9 0.462397 0.424125 0.265111
O O10 0.447109 0.424535 0.000000
O O11 0.500000 0.000000 0.853388
O O12 0.500000 0.923254 0.000000
O O13 0.811442 0.165740 0.625235
O O14 0.750000 0.870962 0.250000
#
# Coordination Sequence:
#
# PCOD8283884 Si02
#       6
#    32  16  32  16  16  32
#     4   9  17  30  45  59  81 118 157 183 204 239
#     4   9  16  30  47  61  81 108 136 175 224 273
#     4   8  14  25  41  57  74 104 144 176 201 238
#     4   9  15  23  37  59  83 103 128 167 214 256
#     4   9  18  28  43  67  85 100 134 181 230 271
#     4  10  18  29  45  63  84 112 146 181 216 255
#
# _framework density 14.883133000000001
#
# number of rings (size 3 to 8) (size 9 to 14) (size 15 to 20)
#    0.000    3.000    1.111    2.333    0.000    4.444 
#    2.000    0.556    0.000    0.000    0.000    0.000 
#    0.000    0.000    0.000    6.000    0.000    0.778 
#
# Total GULP energy -446182.333003 kJ/mol
# GULP energy per Si atom -12393.953695 kJ/mol
# Density = 1.484926 g / cm^3
# Si number density = 14.883133 Si / 1000 Ang^3
#
#
#
# Elastic Constant Matrix: (Units=GPa)
#
#
# Indices 1 2 3 4 5 6 
#
# 1 57.4179 34.3103 41.0295 0.0002 0.0000 -0.0001
# 2 34.3103 75.6651 44.1755 -0.0027 0.0023 -0.0001
# 3 41.0295 44.1755 121.4498 -0.0067 0.0051 -0.0005
# 4 0.0002 -0.0027 -0.0067 19.1025 0.0027 -0.0002
# 5 0.0000 0.0023 0.0051 0.0027 11.6846 0.0000
# 6 -0.0001 -0.0001 -0.0005 -0.0002 0.0000 1.3048
#
#
#
# Elastic Compliance Matrix: (Units=1/GPa)
#
#
# Indices 1 2 3 4 5 6 
#
# 1 0.026845 -0.008733 -0.005893 -0.000004 0.000004 -0.000001
# 2 -0.008733 0.019620 -0.004186 0.000001 -0.000002 0.000000
# 3 -0.005893 -0.004186 0.011747 0.000004 -0.000004 0.000004
# 4 -0.000004 0.000001 0.000004 0.052349 -0.000012 0.000010
# 5 0.000004 -0.000002 -0.000004 -0.000012 0.085583 0.000001
# 6 -0.000001 0.000000 0.000004 0.000010 0.000001 0.766392
#
#
# Mechanical properties :
#
#
# Convention : Reuss Voigt Hill
#
# Bulk Modulus (GPa) = 48.56928 54.84038 51.70483
# Shear Modulus (GPa) = 4.96513 15.41956 10.19235
#
# Velocity S-wave (km/s) = 1.82848 3.22225 2.61976
# Velocity P-wave (km/s) = 6.09610 7.12539 6.63075
#
# Compressibility (1/GPa) = 0.02058915
#
# Stress axis : x y z
#
# Youngs Moduli (GPa) = 37.25059 50.96843 85.12560
#
# Poissons Ratio (x) = 0.44508 0.50163
# Poissons Ratio (y) = 0.32529 0.35636
# Poissons Ratio (z) = 0.21951 0.21337
#
# Static dielectric constant tensor:
#      x y z
#    x 2.758430 0.000000 0.000000 
#    y 0.000000 2.643110 0.000000 
#    z 0.000000 0.000000 3.081450 
# 
# 
# High freq. dielectric constant tensor:
#      x y z
#    x 1.541640 0.000000 0.000000 
#    y 0.000000 1.532450 0.000000 
#    z 0.000000 0.000000 1.576050 
# 
# From -- ./inp_files/5641.got.cif
#   From: 2010.03.12/outbox.cif.g09.slc.cpg/sg69_3_cif.got.tgz:5641.got - 2010.04.10 23:52:46.
