data_PCOD8283867
_publ_section_title
;
Structure prediction by ZEFSAII (Michael W. Deem and Ramdas Pophale) SiO2 
 PCOD8283867
Probable space group: F M M M
;
_chemical_formula_sum "Si O2"
_cell_formula_units_Z 152
_cell_length_a 24.513363
_cell_length_b 24.308917
_cell_length_c 14.925801
_cell_angle_alpha 90.000000
_cell_angle_beta 90.000000
_cell_angle_gamma 90.000000
_cell_volume 8894.184911
_symmetry_space_group_name_H-M "F M M M"
_symmetry_group_IT_number 69
_symmetry_cell_setting 'orthorhombic'
loop_
_space_group_symop_operation_xyz
x,y,z
-x,-y,z
x,-y,-z
-x,y,-z
-x,-y,-z
x,y,-z
-x,y,z
x,-y,z
x,1/2+y,1/2+z
-x,1/2-y,1/2+z
x,1/2-y,1/2-z
-x,1/2+y,1/2-z
-x,1/2-y,1/2-z
x,1/2+y,1/2-z
-x,1/2+y,1/2+z
x,1/2-y,1/2+z
1/2+x,y,1/2+z
1/2-x,-y,1/2+z
1/2+x,-y,1/2-z
1/2-x,y,1/2-z
1/2-x,-y,1/2-z
1/2+x,y,1/2-z
1/2-x,y,1/2+z
1/2+x,-y,1/2+z
1/2+x,1/2+y,z
1/2-x,1/2-y,z
1/2+x,1/2-y,-z
1/2-x,1/2+y,-z
1/2-x,1/2-y,-z
1/2+x,1/2+y,-z
1/2-x,1/2+y,z
1/2+x,1/2-y,z
loop_
_atom_site_type_symbol
_atom_site_label
_atom_site_fract_x
_atom_site_fract_y
_atom_site_fract_z
Si Si1 0.807204 0.326251 0.000000
Si Si2 0.564086 0.435695 0.000000
Si Si3 0.939200 0.750224 0.104128
Si Si4 0.152708 0.321905 0.819407
Si Si5 0.250000 0.750000 0.750000
Si Si6 0.389190 0.856206 0.360174
Si Si7 0.188011 0.194561 0.000000
O O1 0.837404 0.353245 0.086485
O O2 0.810170 0.260000 0.000000
O O3 0.743799 0.339875 0.000000
O O4 0.592759 0.412219 0.909670
O O5 0.575042 0.500000 0.000000
O O6 0.500000 0.421803 0.000000
O O7 0.897979 0.719335 0.169804
O O8 0.940244 0.814299 0.134178
O O9 0.000000 0.726278 0.116446
O O10 0.920516 0.745047 0.000000
O O11 0.209757 0.288811 0.807253
O O12 0.134987 0.364572 0.740638
O O13 0.341053 0.824298 0.409919
#
# Coordination Sequence:
#
# PCOD8283867 Si02
#       7
#    16  16  32  32   8  32  16
#     4  11  18  28  42  68 110 150 176 208 226 290
#     4  10  22  40  60  78  96 122 168 232 284 318
#     4  11  20  31  45  67 105 146 175 200 242 311
#     4  12  20  30  46  72 109 148 180 204 247 294
#     4  12  20  30  46  76 110 150 188 224 232 304
#     4  11  19  32  49  75  97 131 169 211 265 314
#     4  10  18  28  45  68 106 143 181 212 248 280
#
# _framework density 17.089818000000001
#
# number of rings (size 3 to 8) (size 9 to 14) (size 15 to 20)
#    0.000    0.947    7.368    3.158    0.000    2.526 
#    0.000    0.000    0.000    0.000    0.000   19.158 
#    0.000    1.684    0.000    0.000    0.000    0.000 
#
# Total GULP energy -470794.513303 kJ/mol
# GULP energy per Si atom -12389.329297 kJ/mol
# Density = 1.705092 g / cm^3
# Si number density = 17.089818 Si / 1000 Ang^3
#
#
#
# Elastic Constant Matrix: (Units=GPa)
#
#
# Indices 1 2 3 4 5 6 
#
# 1 95.0720 18.2165 38.8682 0.0000 0.0000 0.0000
# 2 18.2165 39.5485 24.7708 0.0000 0.0000 0.0000
# 3 38.8682 24.7708 142.9770 0.0000 0.0000 0.0000
# 4 0.0000 0.0000 0.0000 12.1975 0.0000 0.0000
# 5 0.0000 0.0000 0.0000 0.0000 24.1359 0.0000
# 6 0.0000 0.0000 0.0000 0.0000 0.0000 13.9876
#
#
#
# Elastic Compliance Matrix: (Units=1/GPa)
#
#
# Indices 1 2 3 4 5 6 
#
# 1 0.012381 -0.004032 -0.002667 0.000000 0.000000 0.000000
# 2 -0.004032 0.029676 -0.004045 0.000000 0.000000 0.000000
# 3 -0.002667 -0.004045 0.008420 0.000000 0.000000 0.000000
# 4 0.000000 0.000000 0.000000 0.081984 0.000000 0.000000
# 5 0.000000 0.000000 0.000000 0.000000 0.041432 0.000000
# 6 0.000000 0.000000 0.000000 0.000000 0.000000 0.071492
#
#
# Mechanical properties :
#
#
# Convention : Reuss Voigt Hill
#
# Bulk Modulus (GPa) = 34.49691 49.03429 41.76560
# Shear Modulus (GPa) = 18.08065 23.11366 20.59715
#
# Velocity S-wave (km/s) = 3.25619 3.68160 3.47541
# Velocity P-wave (km/s) = 5.86229 6.84300 6.37154
#
# Compressibility (1/GPa) = 0.02898811
#
# Stress axis : x y z
#
# Youngs Moduli (GPa) = 80.76604 33.69670 118.76390
#
# Poissons Ratio (x) = 0.13588 0.31677
# Poissons Ratio (y) = 0.32568 0.48043
# Poissons Ratio (z) = 0.21542 0.13631
#
# Static dielectric constant tensor:
#      x y z
#    x 3.479700 0.000000 0.000000 
#    y 0.000000 2.494840 0.000000 
#    z 0.000000 0.000000 3.537130 
# 
# 
# High freq. dielectric constant tensor:
#      x y z
#    x 1.683720 0.000000 0.000000 
#    y 0.000000 1.557900 0.000000 
#    z 0.000000 0.000000 1.683040 
# 
# From -- ./inp_files/18950.got.cif
#   From: 2010.03.12/outbox.cif.g09.slc.cpg/sg69_10_cif.got.tgz:18950.got - 2010.04.10 23:52:46.
