data_PCOD8283686
_publ_section_title
;
Structure prediction by ZEFSAII (Michael W. Deem and Ramdas Pophale) SiO2 
 PCOD8283686
Probable space group: C C C A
;
_chemical_formula_sum "Si O2"
_cell_formula_units_Z 112
_cell_length_a 26.570320
_cell_length_b 11.738811
_cell_length_c 15.026986
_cell_angle_alpha 90.000000
_cell_angle_beta 90.000000
_cell_angle_gamma 90.000000
_cell_volume 4686.976511
_symmetry_space_group_name_H-M "C C C A"
_symmetry_group_IT_number 68
_space_group.IT_coordinate_system_code '2'
_symmetry_cell_setting 'orthorhombic'
loop_
_space_group_symop_operation_xyz
x,y,z
-x,1/2-y,z
x,1/2-y,1/2-z
-x,y,1/2-z
-x,-y,-z
x,1/2+y,-z
-x,1/2+y,1/2+z
x,-y,1/2+z
1/2+x,1/2+y,z
1/2-x,-y,z
1/2+x,-y,1/2-z
1/2-x,1/2+y,1/2-z
1/2-x,1/2-y,-z
1/2+x,y,-z
1/2-x,y,1/2+z
1/2+x,1/2-y,1/2+z
loop_
_atom_site_type_symbol
_atom_site_label
_atom_site_fract_x
_atom_site_fract_y
_atom_site_fract_z
Si Si1 0.914408 0.698688 0.842348
Si Si2 0.622001 0.913318 0.846223
Si Si3 0.274962 0.304083 0.340300
Si Si4 0.942513 0.751398 0.461110
Si Si5 0.891296 0.559187 0.347733
Si Si6 0.668173 0.641097 0.126445
Si Si7 0.292324 0.909611 0.940139
O O1 0.938329 0.750000 0.750000
O O2 0.918872 0.562358 0.845189
O O3 0.855526 0.736608 0.847543
O O4 0.940790 0.748864 0.931297
O O5 0.678489 0.877623 0.875990
O O6 0.584016 0.864720 0.920315
O O7 0.604133 0.876353 0.747540
O O8 0.626116 0.050438 0.840820
O O9 0.294368 0.250000 0.250000
O O10 0.223235 0.374923 0.328078
O O11 0.262670 0.202555 0.408631
O O12 0.916329 0.638666 0.422191
O O13 0.000000 0.750000 0.429872
O O14 0.831450 0.543508 0.366496
O O15 0.673143 0.625995 0.021863
O O16 0.250000 0.000000 0.966814
#
# Coordination Sequence:
#
# PCOD8283686 Si02
#       7
#    16  16  16  16  16  16  16
#     4  12  26  50  77 113 156 197 251 316 391 463
#     4  12  24  47  74 109 155 198 256 316 373 453
#     4  12  23  38  64 106 153 198 253 297 360 444
#     4  12  29  54  82 111 145 197 261 323 392 461
#     4  12  25  48  78 110 156 200 251 322 380 454
#     4  12  25  44  69 108 153 208 247 300 371 457
#     4  12  24  41  66 105 155 206 255 304 363 442
#
# _framework density 23.896001999999999
#
# number of rings (size 3 to 8) (size 9 to 14) (size 15 to 20)
#    0.000    0.000    5.714    4.286    2.000    2.000 
#    0.000    1.429    0.000    0.000    0.000    0.000 
#    0.000    0.000    0.000    0.000    0.000    0.000 
#
# Total GULP energy -694325.387007 kJ/mol
# GULP energy per Si atom -12398.667625 kJ/mol
# Density = 2.384161 g / cm^3
# Si number density = 23.896002 Si / 1000 Ang^3
#
#
#
# Elastic Constant Matrix: (Units=GPa)
#
#
# Indices 1 2 3 4 5 6 
#
# 1 118.6739 25.0396 17.6593 0.0000 0.0000 0.0000
# 2 25.0396 113.2282 24.5737 0.0000 0.0000 0.0000
# 3 17.6593 24.5737 135.1584 0.0000 0.0000 0.0000
# 4 0.0000 0.0000 0.0000 30.9195 0.0000 0.0000
# 5 0.0000 0.0000 0.0000 0.0000 18.3996 0.0000
# 6 0.0000 0.0000 0.0000 0.0000 0.0000 19.4965
#
#
#
# Elastic Compliance Matrix: (Units=1/GPa)
#
#
# Indices 1 2 3 4 5 6 
#
# 1 0.008930 -0.001792 -0.000841 0.000000 0.000000 0.000000
# 2 -0.001792 0.009554 -0.001503 0.000000 0.000000 0.000000
# 3 -0.000841 -0.001503 0.007782 0.000000 0.000000 0.000000
# 4 0.000000 0.000000 0.000000 0.032342 0.000000 0.000000
# 5 0.000000 0.000000 0.000000 0.000000 0.054349 0.000000
# 6 0.000000 0.000000 0.000000 0.000000 0.000000 0.051291
#
#
# Mechanical properties :
#
#
# Convention : Reuss Voigt Hill
#
# Bulk Modulus (GPa) = 55.57494 55.73396 55.65445
# Shear Modulus (GPa) = 28.00835 33.74897 30.87866
#
# Velocity S-wave (km/s) = 3.42730 3.76217 3.59863
# Velocity P-wave (km/s) = 6.24254 6.49970 6.37242
#
# Compressibility (1/GPa) = 0.01799372
#
# Stress axis : x y z
#
# Youngs Moduli (GPa) = 111.98542 104.66550 128.50423
#
# Poissons Ratio (x) = 0.18759 0.10805
# Poissons Ratio (y) = 0.20071 0.19313
# Poissons Ratio (z) = 0.09416 0.15730
#
# Static dielectric constant tensor:
#      x y z
#    x 3.935910 0.000000 0.000000 
#    y 0.000000 4.446640 0.000000 
#    z 0.000000 0.000000 4.724200 
# 
# 
# High freq. dielectric constant tensor:
#      x y z
#    x 1.919700 0.000000 0.000000 
#    y 0.000000 1.949520 0.000000 
#    z 0.000000 0.000000 1.964740 
# 
# From -- ./inp_files/26444.got.cif
#   From: 2010.03.12/outbox.cif.g09.slc.cpg/sg68_14_cif.got.tgz:26444.got - 2010.04.10 23:14:56.
