data_PCOD8283116
_publ_section_title
;
Structure prediction by ZEFSAII (Michael W. Deem and Ramdas Pophale) SiO2 
 PCOD8283116
Probable space group: C C C A
;
_chemical_formula_sum "Si O2"
_cell_formula_units_Z 80
_cell_length_a 22.159421
_cell_length_b 5.333523
_cell_length_c 30.946875
_cell_angle_alpha 90.000000
_cell_angle_beta 90.000000
_cell_angle_gamma 90.000000
_cell_volume 3657.542503
_symmetry_space_group_name_H-M "C C C A"
_symmetry_group_IT_number 68
_space_group.IT_coordinate_system_code '2'
_symmetry_cell_setting 'orthorhombic'
loop_
_space_group_symop_operation_xyz
x,y,z
-x,1/2-y,z
x,1/2-y,1/2-z
-x,y,1/2-z
-x,-y,-z
x,1/2+y,-z
-x,1/2+y,1/2+z
x,-y,1/2+z
1/2+x,1/2+y,z
1/2-x,-y,z
1/2+x,-y,1/2-z
1/2-x,1/2+y,1/2-z
1/2-x,1/2-y,-z
1/2+x,y,-z
1/2-x,y,1/2+z
1/2+x,1/2-y,1/2+z
loop_
_atom_site_type_symbol
_atom_site_label
_atom_site_fract_x
_atom_site_fract_y
_atom_site_fract_z
Si Si1 0.250000 0.500000 0.816027
Si Si2 0.652315 0.735627 0.630548
Si Si3 0.500000 0.250000 0.971977
Si Si4 0.603975 0.244336 0.597317
Si Si5 0.160736 0.250000 0.250000
Si Si6 0.073006 0.119767 0.793812
Si Si7 0.500000 0.250000 0.664238
O O1 0.281707 0.711014 0.846699
O O2 0.199573 0.597278 0.783987
O O3 0.644320 0.497134 0.597993
O O4 0.600301 0.715879 0.667138
O O5 0.645499 0.993776 0.602655
O O6 0.561838 0.263702 0.944809
O O7 0.500000 0.500000 0.000000
O O8 0.561036 0.263175 0.638109
O O9 0.122157 0.409355 0.216713
O O10 0.058633 0.250000 0.750000
O O11 0.007674 0.000170 0.806842
#
# Coordination Sequence:
#
# PCOD8283116 Si02
#       7
#     8  16   8  16   8  16   8
#     4  12  22  38  66  82 114 182 230 292 350 358
#     4  11  23  41  60  86 126 170 219 276 320 369
#     4  11  22  42  77 110 133 164 191 232 317 404
#     4  10  23  43  61  96 132 156 202 256 309 398
#     4  12  24  41  50  84 116 159 240 324 320 372
#     4  11  23  41  52  80 117 167 230 286 330 374
#     4   9  22  39  55  74 118 168 202 252 331 380
#
# _framework density 21.872609000000001
#
# number of rings (size 3 to 8) (size 9 to 14) (size 15 to 20)
#    0.000    1.200    2.000    4.800    0.000    9.200 
#    3.600    0.000    0.000    0.000    0.000   14.000 
#    0.000    0.000    0.000    0.000    0.000    0.000 
#
# Total GULP energy -495700.574667 kJ/mol
# GULP energy per Si atom -12392.514367 kJ/mol
# Density = 2.182283 g / cm^3
# Si number density = 21.872609 Si / 1000 Ang^3
#
#
#
# Elastic Constant Matrix: (Units=GPa)
#
#
# Indices 1 2 3 4 5 6 
#
# 1 52.3530 13.9354 10.3208 0.0000 0.0000 0.0000
# 2 13.9354 145.7371 43.9150 0.0000 0.0000 0.0000
# 3 10.3208 43.9150 95.0236 0.0000 0.0000 0.0000
# 4 0.0000 0.0000 0.0000 40.6925 0.0000 0.0000
# 5 0.0000 0.0000 0.0000 0.0000 60.1222 0.0000
# 6 0.0000 0.0000 0.0000 0.0000 0.0000 41.2051
#
#
#
# Elastic Compliance Matrix: (Units=1/GPa)
#
#
# Indices 1 2 3 4 5 6 
#
# 1 0.019778 -0.001445 -0.001480 0.000000 0.000000 0.000000
# 2 -0.001445 0.008077 -0.003576 0.000000 0.000000 0.000000
# 3 -0.001480 -0.003576 0.012337 0.000000 0.000000 0.000000
# 4 0.000000 0.000000 0.000000 0.024575 0.000000 0.000000
# 5 0.000000 0.000000 0.000000 0.000000 0.016633 0.000000
# 6 0.000000 0.000000 0.000000 0.000000 0.000000 0.024269
#
#
# Mechanical properties :
#
#
# Convention : Reuss Voigt Hill
#
# Bulk Modulus (GPa) = 36.77903 47.71734 42.24818
# Shear Modulus (GPa) = 39.14381 43.40013 41.27197
#
# Velocity S-wave (km/s) = 4.23499 4.45929 4.34859
# Velocity P-wave (km/s) = 6.38476 6.95537 6.67616
#
# Compressibility (1/GPa) = 0.02718941
#
# Stress axis : x y z
#
# Youngs Moduli (GPa) = 50.56230 123.80203 81.05614
#
# Poissons Ratio (x) = 0.17891 0.11998
# Poissons Ratio (y) = 0.07307 0.28986
# Poissons Ratio (z) = 0.07485 0.44272
#
# Static dielectric constant tensor:
#      x y z
#    x 3.952860 0.000000 0.000000 
#    y 0.000000 4.312250 0.000000 
#    z 0.000000 0.000000 3.839690 
# 
# 
# High freq. dielectric constant tensor:
#      x y z
#    x 1.861330 0.000000 0.000000 
#    y 0.000000 1.880710 0.000000 
#    z 0.000000 0.000000 1.828190 
# 
# From -- ./inp_files/55950.got.cif
#   From: 2010.03.12/outbox.cif.g09.slc.cpg/sg68_28_cif.got.tgz:55950.got - 2010.04.10 23:14:56.
