data_PCOD8283149
_publ_section_title
;
Structure prediction by ZEFSAII (Michael W. Deem and Ramdas Pophale) SiO2 
 PCOD8283149
Probable space group: C C C A
;
_chemical_formula_sum "Si O2"
_cell_formula_units_Z 52
_cell_length_a 18.561358
_cell_length_b 4.745827
_cell_length_c 25.181663
_cell_angle_alpha 90.000000
_cell_angle_beta 90.000000
_cell_angle_gamma 90.000000
_cell_volume 2218.227360
_symmetry_space_group_name_H-M "C C C A"
_symmetry_group_IT_number 68
_space_group.IT_coordinate_system_code '2'
_symmetry_cell_setting 'orthorhombic'
loop_
_space_group_symop_operation_xyz
x,y,z
-x,1/2-y,z
x,1/2-y,1/2-z
-x,y,1/2-z
-x,-y,-z
x,1/2+y,-z
-x,1/2+y,1/2+z
x,-y,1/2+z
1/2+x,1/2+y,z
1/2-x,-y,z
1/2+x,-y,1/2-z
1/2-x,1/2+y,1/2-z
1/2-x,1/2-y,-z
1/2+x,y,-z
1/2-x,y,1/2+z
1/2+x,1/2-y,1/2+z
loop_
_atom_site_type_symbol
_atom_site_label
_atom_site_fract_x
_atom_site_fract_y
_atom_site_fract_z
Si Si1 0.330454 0.912188 0.365148
Si Si2 0.081060 0.710903 0.963659
Si Si3 0.875076 0.086635 0.800718
Si Si4 0.000000 0.250000 0.250000
O O1 0.363977 0.773901 0.417012
O O2 0.325918 0.676308 0.318647
O O3 0.250000 0.000000 0.379036
O O4 0.379263 0.179136 0.347305
O O5 0.000000 0.750000 0.941895
O O6 0.094480 0.394202 0.983286
O O7 0.841334 0.250000 0.750000
O O8 0.046687 0.543489 0.787309
#
# Coordination Sequence:
#
# PCOD8283149 Si02
#       4
#    16  16  16   4
#     4  12  27  45  71 106 144 192 235 285 364 433
#     4  10  23  44  70 103 139 181 237 300 355 415
#     4  12  26  46  70 102 143 183 240 290 351 420
#     4  12  26  48  70 104 134 192 240 296 358 400
#
# _framework density 23.442143000000002
#
# number of rings (size 3 to 8) (size 9 to 14) (size 15 to 20)
#    0.000    0.615    3.077    3.231    2.154    3.692 
#    2.769    0.000    0.000    0.000    0.000    0.000 
#    0.000    0.000    0.000    0.000    0.000    0.000 
#
# Total GULP energy -322422.655305 kJ/mol
# GULP energy per Si atom -12400.871358 kJ/mol
# Density = 2.338879 g / cm^3
# Si number density = 23.442143 Si / 1000 Ang^3
#
#
#
# Elastic Constant Matrix: (Units=GPa)
#
#
# Indices 1 2 3 4 5 6 
#
# 1 133.7996 47.9661 76.9614 0.0000 0.0000 0.0000
# 2 47.9661 124.1974 30.9408 0.0000 0.0000 0.0000
# 3 76.9614 30.9408 94.4264 0.0000 0.0000 0.0000
# 4 0.0000 0.0000 0.0000 16.0268 0.0000 0.0000
# 5 0.0000 0.0000 0.0000 0.0000 13.1966 0.0000
# 6 0.0000 0.0000 0.0000 0.0000 0.0000 42.2155
#
#
#
# Elastic Compliance Matrix: (Units=1/GPa)
#
#
# Indices 1 2 3 4 5 6 
#
# 1 0.015029 -0.002997 -0.011267 0.000000 0.000000 0.000000
# 2 -0.002997 0.009365 -0.000626 0.000000 0.000000 0.000000
# 3 -0.011267 -0.000626 0.019979 0.000000 0.000000 0.000000
# 4 0.000000 0.000000 0.000000 0.062395 0.000000 0.000000
# 5 0.000000 0.000000 0.000000 0.000000 0.075777 0.000000
# 6 0.000000 0.000000 0.000000 0.000000 0.000000 0.023688
#
#
# Mechanical properties :
#
#
# Convention : Reuss Voigt Hill
#
# Bulk Modulus (GPa) = 68.52954 73.79555 71.16254
# Shear Modulus (GPa) = 20.75732 27.39147 24.07439
#
# Velocity S-wave (km/s) = 2.97891 3.42200 3.20811
# Velocity P-wave (km/s) = 6.41318 6.86743 6.64419
#
# Compressibility (1/GPa) = 0.01459225
#
# Stress axis : x y z
#
# Youngs Moduli (GPa) = 66.53594 106.77813 50.05327
#
# Poissons Ratio (x) = 0.32007 0.56397
# Poissons Ratio (y) = 0.19944 0.03131
# Poissons Ratio (z) = 0.74969 0.06680
#
# Static dielectric constant tensor:
#      x y z
#    x 3.849380 0.000000 0.000000 
#    y 0.000000 4.830550 0.000000 
#    z 0.000000 0.000000 4.038390 
# 
# 
# High freq. dielectric constant tensor:
#      x y z
#    x 1.904160 0.000000 0.000000 
#    y 0.000000 1.964040 0.000000 
#    z 0.000000 0.000000 1.921480 
# 
# From -- ./inp_files/51122.got.cif
#   From: 2010.03.12/outbox.cif.g09.slc.cpg/sg68_26_cif.got.tgz:51122.got - 2010.04.10 23:14:56.
