data_PCOD8283096
_publ_section_title
;
Structure prediction by ZEFSAII (Michael W. Deem and Ramdas Pophale) SiO2 
 PCOD8283096
Probable space group: C C C A
;
_chemical_formula_sum "Si O2"
_cell_formula_units_Z 64
_cell_length_a 15.493745
_cell_length_b 12.636894
_cell_length_c 13.409110
_cell_angle_alpha 90.000000
_cell_angle_beta 90.000000
_cell_angle_gamma 90.000000
_cell_volume 2625.407370
_symmetry_space_group_name_H-M "C C C A"
_symmetry_group_IT_number 68
_space_group.IT_coordinate_system_code '2'
_symmetry_cell_setting 'orthorhombic'
loop_
_space_group_symop_operation_xyz
x,y,z
-x,1/2-y,z
x,1/2-y,1/2-z
-x,y,1/2-z
-x,-y,-z
x,1/2+y,-z
-x,1/2+y,1/2+z
x,-y,1/2+z
1/2+x,1/2+y,z
1/2-x,-y,z
1/2+x,-y,1/2-z
1/2-x,1/2+y,1/2-z
1/2-x,1/2-y,-z
1/2+x,y,-z
1/2-x,y,1/2+z
1/2+x,1/2-y,1/2+z
loop_
_atom_site_type_symbol
_atom_site_label
_atom_site_fract_x
_atom_site_fract_y
_atom_site_fract_z
Si Si1 0.500000 0.750000 0.491787
Si Si2 0.320791 0.579182 0.605570
Si Si3 0.359545 0.621855 0.392123
Si Si4 0.258442 0.250000 0.250000
Si Si5 0.011297 0.931150 0.140219
O O1 0.423266 0.716628 0.420007
O O2 0.461510 0.842384 0.561368
O O3 0.250000 0.500000 0.650026
O O4 0.300178 0.599600 0.488937
O O5 0.317948 0.688386 0.669471
O O6 0.416270 0.526521 0.608045
O O7 0.299270 0.660272 0.302771
O O8 0.415958 0.521359 0.357111
O O9 0.000000 0.882374 0.250000
#
# Coordination Sequence:
#
# PCOD8283096 Si02
#       5
#     8  16  16   8  16
#     4  10  23  41  74 100 142 186 248 298 350 424
#     4  11  26  47  71 106 150 190 241 308 381 435
#     4  11  27  46  76 101 148 193 249 297 369 449
#     4  12  28  47  73 116 148 196 236 322 377 444
#     4  11  25  45  75 107 139 196 251 298 355 449
#
# _framework density 24.377168999999999
#
# number of rings (size 3 to 8) (size 9 to 14) (size 15 to 20)
#    0.000    1.000    0.000    5.625   17.500    3.000 
#    0.000    0.000    0.000    0.000    0.000    0.000 
#    0.000    0.000    0.000    0.000    0.000    0.000 
#
# Total GULP energy -396760.267453 kJ/mol
# GULP energy per Si atom -12398.758358 kJ/mol
# Density = 2.432169 g / cm^3
# Si number density = 24.377169 Si / 1000 Ang^3
#
#
#
# Elastic Constant Matrix: (Units=GPa)
#
#
# Indices 1 2 3 4 5 6 
#
# 1 71.4577 40.9748 6.2007 0.0000 0.0000 0.0000
# 2 40.9748 90.7358 11.7600 0.0000 0.0000 0.0000
# 3 6.2007 11.7600 106.4802 0.0000 0.0000 0.0000
# 4 0.0000 0.0000 0.0000 19.4883 0.0000 0.0000
# 5 0.0000 0.0000 0.0000 0.0000 28.7891 0.0000
# 6 0.0000 0.0000 0.0000 0.0000 0.0000 34.5520
#
#
#
# Elastic Compliance Matrix: (Units=1/GPa)
#
#
# Indices 1 2 3 4 5 6 
#
# 1 0.018887 -0.008508 -0.000160 0.000000 0.000000 0.000000
# 2 -0.008508 0.015014 -0.001163 0.000000 0.000000 0.000000
# 3 -0.000160 -0.001163 0.009529 0.000000 0.000000 0.000000
# 4 0.000000 0.000000 0.000000 0.051313 0.000000 0.000000
# 5 0.000000 0.000000 0.000000 0.000000 0.034735 0.000000
# 6 0.000000 0.000000 0.000000 0.000000 0.000000 0.028942
#
#
# Mechanical properties :
#
#
# Convention : Reuss Voigt Hill
#
# Bulk Modulus (GPa) = 42.07391 42.94939 42.51165
# Shear Modulus (GPa) = 26.88101 30.54844 28.71473
#
# Velocity S-wave (km/s) = 3.32431 3.54384 3.43583
# Velocity P-wave (km/s) = 5.65966 5.86532 5.76341
#
# Compressibility (1/GPa) = 0.02376770
#
# Stress axis : x y z
#
# Youngs Moduli (GPa) = 52.94656 66.60493 104.94103
#
# Poissons Ratio (x) = 0.56669 0.01681
# Poissons Ratio (y) = 0.45048 0.12202
# Poissons Ratio (z) = 0.00848 0.07744
#
# Static dielectric constant tensor:
#      x y z
#    x 4.288260 0.000000 0.000000 
#    y 0.000000 4.238920 0.000000 
#    z 0.000000 0.000000 4.688300 
# 
# 
# High freq. dielectric constant tensor:
#      x y z
#    x 1.968310 0.000000 0.000000 
#    y 0.000000 1.960230 0.000000 
#    z 0.000000 0.000000 1.988070 
# 
# From -- ./inp_files/20499.got.cif
#   From: 2010.03.12/outbox.cif.g09.slc.cpg/sg68_11_cif.got.tgz:20499.got - 2010.04.10 23:14:56.
