data_PCOD8283983
_publ_section_title
;
Structure prediction by ZEFSAII (Michael W. Deem and Ramdas Pophale) SiO2 
 PCOD8283983
Probable space group: F M M M
;
_chemical_formula_sum "Si O2"
_cell_formula_units_Z 112
_cell_length_a 25.500528
_cell_length_b 28.638416
_cell_length_c 9.094451
_cell_angle_alpha 90.000000
_cell_angle_beta 90.000000
_cell_angle_gamma 90.000000
_cell_volume 6641.629629
_symmetry_space_group_name_H-M "F M M M"
_symmetry_group_IT_number 69
_symmetry_cell_setting 'orthorhombic'
loop_
_space_group_symop_operation_xyz
x,y,z
-x,-y,z
x,-y,-z
-x,y,-z
-x,-y,-z
x,y,-z
-x,y,z
x,-y,z
x,1/2+y,1/2+z
-x,1/2-y,1/2+z
x,1/2-y,1/2-z
-x,1/2+y,1/2-z
-x,1/2-y,1/2-z
x,1/2+y,1/2-z
-x,1/2+y,1/2+z
x,1/2-y,1/2+z
1/2+x,y,1/2+z
1/2-x,-y,1/2+z
1/2+x,-y,1/2-z
1/2-x,y,1/2-z
1/2-x,-y,1/2-z
1/2+x,y,1/2-z
1/2-x,y,1/2+z
1/2+x,-y,1/2+z
1/2+x,1/2+y,z
1/2-x,1/2-y,z
1/2+x,1/2-y,-z
1/2-x,1/2+y,-z
1/2-x,1/2-y,-z
1/2+x,1/2+y,-z
1/2-x,1/2+y,z
1/2+x,1/2-y,z
loop_
_atom_site_type_symbol
_atom_site_label
_atom_site_fract_x
_atom_site_fract_y
_atom_site_fract_z
Si Si1 0.940429 0.795765 0.671290
Si Si2 0.000000 0.447573 0.825313
Si Si3 0.304146 0.446416 0.827772
Si Si4 0.102922 0.894541 0.326813
O O1 0.939812 0.785643 0.500000
O O2 0.917103 0.750000 0.750000
O O3 0.904234 0.839944 0.709680
O O4 0.000000 0.805862 0.724270
O O5 0.051730 0.421612 0.767970
O O6 0.000000 0.500000 0.762730
O O7 0.000000 0.446702 0.000000
O O8 0.319781 0.500000 0.794720
O O9 0.250000 0.433484 0.750000
O O10 0.347702 0.412564 0.762549
O O11 0.297947 0.437185 0.000000
O O12 0.111435 0.903237 0.500000
#
# Coordination Sequence:
#
# PCOD8283983 Si02
#       4
#    32  16  32  32
#     4   9  17  30  48  72 102 134 170 208 246 295
#     4   9  16  26  44  71 101 133 165 197 240 295
#     4  10  21  36  53  74 100 132 171 211 251 298
#     4  10  18  31  51  75 102 133 170 209 248 295
#
# _framework density 16.863332
#
# number of rings (size 3 to 8) (size 9 to 14) (size 15 to 20)
#    0.000    2.429    1.429    1.714    0.000    4.000 
#    0.000    0.714    0.000    3.429    0.000    6.000 
#    0.000    0.000    0.000    0.000    0.000    0.000 
#
# Total GULP energy -347222.928212 kJ/mol
# GULP energy per Si atom -12400.818865 kJ/mol
# Density = 1.682495 g / cm^3
# Si number density = 16.863332 Si / 1000 Ang^3
#
#
#
# Elastic Constant Matrix: (Units=GPa)
#
#
# Indices 1 2 3 4 5 6 
#
# 1 119.3443 75.9700 55.6303 -0.0068 0.0069 0.0061
# 2 75.9700 135.4480 58.4273 -0.0074 0.0073 -0.0014
# 3 55.6303 58.4273 64.3568 -0.0089 0.0129 0.0103
# 4 -0.0068 -0.0074 -0.0089 28.9917 0.0088 0.0021
# 5 0.0069 0.0073 0.0129 0.0088 27.9330 -0.0094
# 6 0.0061 -0.0014 0.0103 0.0021 -0.0094 14.1971
#
#
#
# Elastic Compliance Matrix: (Units=1/GPa)
#
#
# Indices 1 2 3 4 5 6 
#
# 1 0.015776 -0.004875 -0.009211 0.000000 0.000002 -0.000001
# 2 -0.004875 0.013642 -0.008171 0.000000 0.000001 0.000009
# 3 -0.009211 -0.008171 0.030918 0.000005 -0.000010 -0.000019
# 4 0.000000 0.000000 0.000005 0.034493 -0.000011 -0.000005
# 5 0.000002 0.000001 -0.000010 -0.000011 0.035800 0.000024
# 6 -0.000001 0.000009 -0.000019 -0.000005 0.000024 0.070437
#
#
# Mechanical properties :
#
#
# Convention : Reuss Voigt Hill
#
# Bulk Modulus (GPa) = 63.20140 77.68934 70.44537
# Shear Modulus (GPa) = 19.93196 22.83245 21.38220
#
# Velocity S-wave (km/s) = 3.44171 3.68363 3.56472
# Velocity P-wave (km/s) = 7.30437 8.01637 7.66863
#
# Compressibility (1/GPa) = 0.01582244
#
# Stress axis : x y z
#
# Youngs Moduli (GPa) = 63.38771 73.30341 32.34335
#
# Poissons Ratio (x) = 0.35737 0.29791
# Poissons Ratio (y) = 0.30903 0.26427
# Poissons Ratio (z) = 0.58385 0.59895
#
# Static dielectric constant tensor:
#      x y z
#    x 3.054940 0.000000 0.000010 
#    y 0.000000 3.254910 -0.000010 
#    z 0.000010 -0.000010 3.000010 
# 
# 
# High freq. dielectric constant tensor:
#      x y z
#    x 1.635210 0.000000 0.000000 
#    y 0.000000 1.653400 0.000000 
#    z 0.000000 0.000000 1.636640 
# 
# From -- ./inp_files/3691.got.cif
#   From: 2010.03.12/outbox.cif.g09.slc.cpg/sg69_2_cif.got.tgz:3691.got - 2010.04.10 23:52:46.
