data_PCOD8283235
_publ_section_title
;
Structure prediction by ZEFSAII (Michael W. Deem and Ramdas Pophale) SiO2 
 PCOD8283235
Probable space group: C C C A
;
_chemical_formula_sum "Si O2"
_cell_formula_units_Z 68
_cell_length_a 17.589969
_cell_length_b 9.095069
_cell_length_c 20.240933
_cell_angle_alpha 90.000000
_cell_angle_beta 90.000000
_cell_angle_gamma 90.000000
_cell_volume 3238.184574
_symmetry_space_group_name_H-M "C C C A"
_symmetry_group_IT_number 68
_space_group.IT_coordinate_system_code '2'
_symmetry_cell_setting 'orthorhombic'
loop_
_space_group_symop_operation_xyz
x,y,z
-x,1/2-y,z
x,1/2-y,1/2-z
-x,y,1/2-z
-x,-y,-z
x,1/2+y,-z
-x,1/2+y,1/2+z
x,-y,1/2+z
1/2+x,1/2+y,z
1/2-x,-y,z
1/2+x,-y,1/2-z
1/2-x,1/2+y,1/2-z
1/2-x,1/2-y,-z
1/2+x,y,-z
1/2-x,y,1/2+z
1/2+x,1/2-y,1/2+z
loop_
_atom_site_type_symbol
_atom_site_label
_atom_site_fract_x
_atom_site_fract_y
_atom_site_fract_z
Si Si1 0.461115 0.973185 0.813657
Si Si2 0.461487 0.096759 0.055400
Si Si3 0.702739 0.649967 0.814642
Si Si4 0.286292 0.657874 0.940989
Si Si5 0.500000 0.750000 0.250000
O O1 0.500000 0.895077 0.750000
O O2 0.521973 0.971033 0.872714
O O3 0.384014 0.891180 0.831495
O O4 0.446026 0.145634 0.795310
O O5 0.500000 0.250000 0.050157
O O6 0.373088 0.121099 0.043114
O O7 0.500000 0.000000 0.000000
O O8 0.709996 0.750000 0.750000
O O9 0.750000 0.500000 0.806250
O O10 0.730434 0.746347 0.875983
O O11 0.250000 0.500000 0.931107
O O12 0.250000 0.750000 0.000000
#
# Coordination Sequence:
#
# PCOD8283235 Si02
#       5
#    16  16  16  16   4
#     4  10  24  45  73 103 144 183 246 299 359 428
#     4  12  26  44  73 105 139 192 242 290 359 433
#     4  12  27  45  74 106 147 191 244 303 378 439
#     4  12  27  48  72 105 151 193 238 307 368 434
#     4   8  24  40  78 104 144 180 230 312 352 428
#
# _framework density 20.999420000000001
#
# number of rings (size 3 to 8) (size 9 to 14) (size 15 to 20)
#    0.706    0.000    2.353    4.235    6.588    1.882 
#    0.000    0.000    0.000    0.000    0.000    0.000 
#    0.000    0.000    0.000    0.000    0.000    0.000 
#
# Total GULP energy -421476.811107 kJ/mol
# GULP energy per Si atom -12396.376797 kJ/mol
# Density = 2.095162 g / cm^3
# Si number density = 20.999420 Si / 1000 Ang^3
#
#
#
# Elastic Constant Matrix: (Units=GPa)
#
#
# Indices 1 2 3 4 5 6 
#
# 1 141.3175 53.6146 54.2906 0.0000 0.0000 0.0000
# 2 53.6146 170.6750 69.1007 0.0000 0.0000 0.0000
# 3 54.2906 69.1007 184.1042 0.0000 0.0000 0.0000
# 4 0.0000 0.0000 0.0000 44.7612 0.0000 0.0000
# 5 0.0000 0.0000 0.0000 0.0000 33.7558 0.0000
# 6 0.0000 0.0000 0.0000 0.0000 0.0000 39.7138
#
#
#
# Elastic Compliance Matrix: (Units=1/GPa)
#
#
# Indices 1 2 3 4 5 6 
#
# 1 0.008498 -0.001951 -0.001774 0.000000 0.000000 0.000000
# 2 -0.001951 0.007357 -0.002186 0.000000 0.000000 0.000000
# 3 -0.001774 -0.002186 0.006775 0.000000 0.000000 0.000000
# 4 0.000000 0.000000 0.000000 0.022341 0.000000 0.000000
# 5 0.000000 0.000000 0.000000 0.000000 0.029625 0.000000
# 6 0.000000 0.000000 0.000000 0.000000 0.000000 0.025180
#
#
# Mechanical properties :
#
#
# Convention : Reuss Voigt Hill
#
# Bulk Modulus (GPa) = 92.52015 94.45649 93.48832
# Shear Modulus (GPa) = 43.40269 44.91890 44.16080
#
# Velocity S-wave (km/s) = 4.55120 4.63001 4.59077
# Velocity P-wave (km/s) = 8.47183 8.58259 8.52739
#
# Compressibility (1/GPa) = 0.01080846
#
# Stress axis : x y z
#
# Youngs Moduli (GPa) = 117.67521 135.92294 147.59819
#
# Poissons Ratio (x) = 0.26525 0.26177
# Poissons Ratio (y) = 0.22964 0.32264
# Poissons Ratio (z) = 0.20870 0.29712
#
# Static dielectric constant tensor:
#      x y z
#    x 3.649420 0.000000 0.000000 
#    y 0.000000 4.091850 0.000000 
#    z 0.000000 0.000000 3.871930 
# 
# 
# High freq. dielectric constant tensor:
#      x y z
#    x 1.822860 0.000000 0.000000 
#    y 0.000000 1.847650 0.000000 
#    z 0.000000 0.000000 1.836690 
# 
# From -- ./inp_files/39185.got.cif
#   From: 2010.03.12/outbox.cif.g09.slc.cpg/sg68_20_cif.got.tgz:39185.got - 2010.04.10 23:14:56.
