data_PCOD8283254
_publ_section_title
;
Structure prediction by ZEFSAII (Michael W. Deem and Ramdas Pophale) SiO2 
 PCOD8283254
Probable space group: C C C A
;
_chemical_formula_sum "Si O2"
_cell_formula_units_Z 72
_cell_length_a 8.321928
_cell_length_b 13.465156
_cell_length_c 29.457498
_cell_angle_alpha 90.000000
_cell_angle_beta 90.000000
_cell_angle_gamma 90.000000
_cell_volume 3300.891126
_symmetry_space_group_name_H-M "C C C A"
_symmetry_group_IT_number 68
_space_group.IT_coordinate_system_code '2'
_symmetry_cell_setting 'orthorhombic'
loop_
_space_group_symop_operation_xyz
x,y,z
-x,1/2-y,z
x,1/2-y,1/2-z
-x,y,1/2-z
-x,-y,-z
x,1/2+y,-z
-x,1/2+y,1/2+z
x,-y,1/2+z
1/2+x,1/2+y,z
1/2-x,-y,z
1/2+x,-y,1/2-z
1/2-x,1/2+y,1/2-z
1/2-x,1/2-y,-z
1/2+x,y,-z
1/2-x,y,1/2+z
1/2+x,1/2-y,1/2+z
loop_
_atom_site_type_symbol
_atom_site_label
_atom_site_fract_x
_atom_site_fract_y
_atom_site_fract_z
Si Si1 0.819730 0.244542 0.803996
Si Si2 0.250000 0.000000 0.987406
Si Si3 0.884426 0.075755 0.208716
Si Si4 0.863243 0.083763 0.359496
Si Si5 0.477645 0.363192 0.953810
O O1 0.829617 0.250000 0.750000
O O2 0.705038 0.335176 0.817362
O O3 0.735921 0.147016 0.822846
O O4 0.000000 0.250000 0.824482
O O5 0.364001 0.067839 0.955983
O O6 0.157571 0.080849 0.017470
O O7 0.000000 0.109979 0.250000
O O8 0.993757 0.029890 0.168665
O O9 0.750000 0.000000 0.227345
O O10 0.925614 0.148421 0.401446
O O11 0.750000 0.000000 0.380738
O O12 0.500000 0.250000 0.972397
#
# Coordination Sequence:
#
# PCOD8283254 Si02
#       5
#    16   8  16  16  16
#     4  11  24  42  65  93 129 179 231 283 345 412
#     4  10  24  46  76 108 140 190 234 286 370 430
#     4  12  25  40  64  93 129 180 227 286 345 408
#     4  12  25  45  67 101 139 180 233 291 344 420
#     4  11  23  46  74 108 145 184 233 294 356 430
#
# _framework density 21.812290999999998
#
# number of rings (size 3 to 8) (size 9 to 14) (size 15 to 20)
#    0.000    0.667    3.333    4.667    4.667    0.000 
#    4.000    1.111    0.000    0.000    0.000    0.000 
#    0.000    0.000    0.000    0.000    0.000    0.000 
#
# Total GULP energy -446227.098687 kJ/mol
# GULP energy per Si atom -12395.197186 kJ/mol
# Density = 2.176265 g / cm^3
# Si number density = 21.812291 Si / 1000 Ang^3
#
#
#
# Elastic Constant Matrix: (Units=GPa)
#
#
# Indices 1 2 3 4 5 6 
#
# 1 147.0439 61.0794 42.4151 0.0000 0.0000 0.0000
# 2 61.0794 137.7463 29.7602 0.0000 0.0000 0.0000
# 3 42.4151 29.7602 80.9131 0.0000 0.0000 0.0000
# 4 0.0000 0.0000 0.0000 22.9308 0.0000 0.0000
# 5 0.0000 0.0000 0.0000 0.0000 13.5290 0.0000
# 6 0.0000 0.0000 0.0000 0.0000 0.0000 38.2051
#
#
#
# Elastic Compliance Matrix: (Units=1/GPa)
#
#
# Indices 1 2 3 4 5 6 
#
# 1 0.009217 -0.003306 -0.003616 0.000000 0.000000 0.000000
# 2 -0.003306 0.009072 -0.001604 0.000000 0.000000 0.000000
# 3 -0.003616 -0.001604 0.014844 0.000000 0.000000 0.000000
# 4 0.000000 0.000000 0.000000 0.043610 0.000000 0.000000
# 5 0.000000 0.000000 0.000000 0.000000 0.073915 0.000000
# 6 0.000000 0.000000 0.000000 0.000000 0.000000 0.026175
#
#
# Mechanical properties :
#
#
# Convention : Reuss Voigt Hill
#
# Bulk Modulus (GPa) = 62.17909 70.24587 66.21248
# Shear Modulus (GPa) = 25.09489 30.42954 27.76221
#
# Velocity S-wave (km/s) = 3.39557 3.73911 3.57147
# Velocity P-wave (km/s) = 6.62884 7.13554 6.88685
#
# Compressibility (1/GPa) = 0.01608258
#
# Stress axis : x y z
#
# Youngs Moduli (GPa) = 108.49796 110.22850 67.36648
#
# Poissons Ratio (x) = 0.36439 0.24357
# Poissons Ratio (y) = 0.35867 0.10805
# Poissons Ratio (z) = 0.39229 0.17679
#
# Static dielectric constant tensor:
#      x y z
#    x 4.523170 0.000000 0.000000 
#    y 0.000000 4.020730 0.000000 
#    z 0.000000 0.000000 3.579830 
# 
# 
# High freq. dielectric constant tensor:
#      x y z
#    x 1.883080 0.000000 0.000000 
#    y 0.000000 1.857400 0.000000 
#    z 0.000000 0.000000 1.836110 
# 
# From -- ./inp_files/48935.got.cif
#   From: 2010.03.12/outbox.cif.g09.slc.cpg/sg68_25_cif.got.tgz:48935.got - 2010.04.10 23:14:56.
