data_PCOD8283246
_publ_section_title
;
Structure prediction by ZEFSAII (Michael W. Deem and Ramdas Pophale) SiO2 
 PCOD8283246
Probable space group: C C C A
;
_chemical_formula_sum "Si O2"
_cell_formula_units_Z 92
_cell_length_a 8.353591
_cell_length_b 20.590579
_cell_length_c 25.379107
_cell_angle_alpha 90.000000
_cell_angle_beta 90.000000
_cell_angle_gamma 90.000000
_cell_volume 4365.340289
_symmetry_space_group_name_H-M "C C C A"
_symmetry_group_IT_number 68
_space_group.IT_coordinate_system_code '2'
_symmetry_cell_setting 'orthorhombic'
loop_
_space_group_symop_operation_xyz
x,y,z
-x,1/2-y,z
x,1/2-y,1/2-z
-x,y,1/2-z
-x,-y,-z
x,1/2+y,-z
-x,1/2+y,1/2+z
x,-y,1/2+z
1/2+x,1/2+y,z
1/2-x,-y,z
1/2+x,-y,1/2-z
1/2-x,1/2+y,1/2-z
1/2-x,1/2-y,-z
1/2+x,y,-z
1/2-x,y,1/2+z
1/2+x,1/2-y,1/2+z
loop_
_atom_site_type_symbol
_atom_site_label
_atom_site_fract_x
_atom_site_fract_y
_atom_site_fract_z
Si Si1 0.465670 0.130981 0.542937
Si Si2 0.500000 0.250000 0.882633
Si Si3 0.000000 0.250000 0.750000
Si Si4 0.097676 0.622992 0.434441
Si Si5 0.381459 0.947974 0.202422
Si Si6 0.566515 0.991580 0.100226
Si Si7 0.713192 0.317131 0.166284
O O1 0.527018 0.186922 0.581769
O O2 0.280703 0.113944 0.548996
O O3 0.503029 0.154639 0.483505
O O4 0.560273 0.065507 0.557043
O O5 0.657163 0.238988 0.846715
O O6 0.107977 0.296383 0.784880
O O7 0.094504 0.670085 0.383445
O O8 0.014942 0.554816 0.423634
O O9 0.500000 0.931497 0.250000
O O10 0.476898 0.976665 0.153876
O O11 0.301476 0.882663 0.182020
O O12 0.250000 0.000000 0.221713
O O13 0.750000 0.000000 0.115084
#
# Coordination Sequence:
#
# PCOD8283246 Si02
#       7
#    16   8   4  16  16  16  16
#     4  11  23  41  70 103 136 189 222 276 351 412
#     4  10  24  46  70  96 140 184 230 274 340 422
#     4  12  32  44  72 100 132 192 236 282 346 406
#     4  11  23  44  69 102 143 176 228 293 343 413
#     4  12  25  46  73 103 139 178 231 294 352 404
#     4  12  23  42  68 105 140 178 228 287 348 414
#     4  11  27  48  70  99 141 180 231 290 338 412
#
# _framework density 21.075104
#
# number of rings (size 3 to 8) (size 9 to 14) (size 15 to 20)
#    0.000    0.696    5.217    2.609    3.652    7.652 
#    0.000    0.000    0.000    0.000    0.000    0.000 
#    0.000    0.000    0.000    0.000    0.000    0.000 
#
# Total GULP energy -570571.872370 kJ/mol
# GULP energy per Si atom -12403.736356 kJ/mol
# Density = 2.102714 g / cm^3
# Si number density = 21.075104 Si / 1000 Ang^3
#
#
#
# Elastic Constant Matrix: (Units=GPa)
#
#
# Indices 1 2 3 4 5 6 
#
# 1 122.0630 60.1172 57.6117 0.0000 0.0000 0.0000
# 2 60.1172 86.9297 25.0435 0.0000 0.0000 0.0000
# 3 57.6117 25.0435 136.3927 0.0000 0.0000 0.0000
# 4 0.0000 0.0000 0.0000 28.6612 0.0000 0.0000
# 5 0.0000 0.0000 0.0000 0.0000 49.1483 0.0000
# 6 0.0000 0.0000 0.0000 0.0000 0.0000 22.0902
#
#
#
# Elastic Compliance Matrix: (Units=1/GPa)
#
#
# Indices 1 2 3 4 5 6 
#
# 1 0.014723 -0.008859 -0.004592 0.000000 0.000000 0.000000
# 2 -0.008859 0.017476 0.000533 0.000000 0.000000 0.000000
# 3 -0.004592 0.000533 0.009174 0.000000 0.000000 0.000000
# 4 0.000000 0.000000 0.000000 0.034890 0.000000 0.000000
# 5 0.000000 0.000000 0.000000 0.000000 0.020347 0.000000
# 6 0.000000 0.000000 0.000000 0.000000 0.000000 0.045269
#
#
# Mechanical properties :
#
#
# Convention : Reuss Voigt Hill
#
# Bulk Modulus (GPa) = 64.36322 70.10333 67.23328
# Shear Modulus (GPa) = 28.91934 33.48747 31.20341
#
# Velocity S-wave (km/s) = 3.70835 3.99050 3.85201
# Velocity P-wave (km/s) = 6.99586 7.38701 7.19409
#
# Compressibility (1/GPa) = 0.01553682
#
# Stress axis : x y z
#
# Youngs Moduli (GPa) = 67.92036 57.21978 109.00736
#
# Poissons Ratio (x) = 0.50691 0.50060
# Poissons Ratio (y) = 0.60170 -0.05811
# Poissons Ratio (z) = 0.31192 -0.03050
#
# Static dielectric constant tensor:
#      x y z
#    x -0.221360 0.000000 0.000000 
#    y 0.000000 3.712550 0.000000 
#    z 0.000000 0.000000 4.236650 
# 
# 
# High freq. dielectric constant tensor:
#      x y z
#    x 1.834370 0.000000 0.000000 
#    y 0.000000 1.826640 0.000000 
#    z 0.000000 0.000000 1.843390 
# 
# From -- ./inp_files/49359.got.cif
#   From: 2010.03.12/outbox.cif.g09.slc.cpg/sg68_25_cif.got.tgz:49359.got - 2010.04.10 23:14:56.
