data_PCOD8283794
_publ_section_title
;
Structure prediction by ZEFSAII (Michael W. Deem and Ramdas Pophale) SiO2 
 PCOD8283794
Probable space group: F M M M
;
_chemical_formula_sum "Si O2"
_cell_formula_units_Z 88
_cell_length_a 12.268440
_cell_length_b 21.256142
_cell_length_c 21.471918
_cell_angle_alpha 90.000000
_cell_angle_beta 90.000000
_cell_angle_gamma 90.000000
_cell_volume 5599.440394
_symmetry_space_group_name_H-M "F M M M"
_symmetry_group_IT_number 69
_symmetry_cell_setting 'orthorhombic'
loop_
_space_group_symop_operation_xyz
x,y,z
-x,-y,z
x,-y,-z
-x,y,-z
-x,-y,-z
x,y,-z
-x,y,z
x,-y,z
x,1/2+y,1/2+z
-x,1/2-y,1/2+z
x,1/2-y,1/2-z
-x,1/2+y,1/2-z
-x,1/2-y,1/2-z
x,1/2+y,1/2-z
-x,1/2+y,1/2+z
x,1/2-y,1/2+z
1/2+x,y,1/2+z
1/2-x,-y,1/2+z
1/2+x,-y,1/2-z
1/2-x,y,1/2-z
1/2-x,-y,1/2-z
1/2+x,y,1/2-z
1/2-x,y,1/2+z
1/2+x,-y,1/2+z
1/2+x,1/2+y,z
1/2-x,1/2-y,z
1/2+x,1/2-y,-z
1/2-x,1/2+y,-z
1/2-x,1/2-y,-z
1/2+x,1/2+y,-z
1/2-x,1/2+y,z
1/2+x,1/2-y,z
loop_
_atom_site_type_symbol
_atom_site_label
_atom_site_fract_x
_atom_site_fract_y
_atom_site_fract_z
Si Si1 0.877209 0.862784 0.295452
Si Si2 0.750000 0.250000 0.750000
Si Si3 0.000000 0.925618 0.931041
Si Si4 0.824595 0.425916 0.333423
O O1 0.827906 0.792456 0.293626
O O2 0.875697 0.891625 0.226275
O O3 0.801883 0.905310 0.341071
O O4 0.000000 0.861575 0.321702
O O5 0.108286 0.904067 0.894093
O O6 0.000000 0.000000 0.937195
O O7 0.000000 0.894807 0.000000
O O8 0.833995 0.500000 0.322569
#
# Coordination Sequence:
#
# PCOD8283794 Si02
#       4
#    32   8  16  32
#     4  10  17  27  43  63  93 114 140 175 226 260
#     4   8  18  28  38  62  90 114 148 174 210 274
#     4   9  16  28  44  61  88 120 151 178 198 242
#     4   9  17  26  40  66  91 115 145 172 213 259
#
# _framework density 15.715856
#
# number of rings (size 3 to 8) (size 9 to 14) (size 15 to 20)
#    0.000    3.091    1.818    2.727    0.000    2.182 
#    0.000    0.000    0.000    1.091    0.000   25.455 
#    0.000    0.000    0.000    0.000    0.000    0.000 
#
# Total GULP energy -272636.260338 kJ/mol
# GULP energy per Si atom -12392.557288 kJ/mol
# Density = 1.568009 g / cm^3
# Si number density = 15.715856 Si / 1000 Ang^3
#
#
#
# Elastic Constant Matrix: (Units=GPa)
#
#
# Indices 1 2 3 4 5 6 
#
# 1 156.1222 27.9627 51.7046 0.0000 0.0000 0.0000
# 2 27.9627 71.5980 22.6051 0.0000 0.0000 0.0000
# 3 51.7046 22.6051 89.2988 0.0000 0.0000 0.0000
# 4 0.0000 0.0000 0.0000 4.0966 0.0000 0.0000
# 5 0.0000 0.0000 0.0000 0.0000 20.3361 0.0000
# 6 0.0000 0.0000 0.0000 0.0000 0.0000 13.4271
#
#
#
# Elastic Compliance Matrix: (Units=1/GPa)
#
#
# Indices 1 2 3 4 5 6 
#
# 1 0.008142 -0.001838 -0.004249 0.000000 0.000000 0.000000
# 2 -0.001838 0.015595 -0.002883 0.000000 0.000000 0.000000
# 3 -0.004249 -0.002883 0.014388 0.000000 0.000000 0.000000
# 4 0.000000 0.000000 0.000000 0.244104 0.000000 0.000000
# 5 0.000000 0.000000 0.000000 0.000000 0.049174 0.000000
# 6 0.000000 0.000000 0.000000 0.000000 0.000000 0.074476
#
#
# Mechanical properties :
#
#
# Convention : Reuss Voigt Hill
#
# Bulk Modulus (GPa) = 49.54346 57.95154 53.74750
# Shear Modulus (GPa) = 11.61311 21.88841 16.75076
#
# Velocity S-wave (km/s) = 2.72130 3.73602 3.26828
# Velocity P-wave (km/s) = 6.43948 7.45420 6.96534
#
# Compressibility (1/GPa) = 0.02018430
#
# Stress axis : x y z
#
# Youngs Moduli (GPa) = 122.82648 64.12246 69.50103
#
# Poissons Ratio (x) = 0.11788 0.29529
# Poissons Ratio (y) = 0.22579 0.20040
# Poissons Ratio (z) = 0.52185 0.18489
#
# Static dielectric constant tensor:
#      x y z
#    x 3.353120 0.000000 0.000000 
#    y 0.000000 2.978780 0.000000 
#    z 0.000000 0.000000 2.795790 
# 
# 
# High freq. dielectric constant tensor:
#      x y z
#    x 1.617760 0.000000 0.000000 
#    y 0.000000 1.597800 0.000000 
#    z 0.000000 0.000000 1.545880 
# 
# From -- ./inp_files/16141.got.cif
#   From: 2010.03.12/outbox.cif.g09.slc.cpg/sg69_9_cif.got.tgz:16141.got - 2010.04.10 23:52:46.
