data_PCOD8283349
_publ_section_title
;
Structure prediction by ZEFSAII (Michael W. Deem and Ramdas Pophale) SiO2 
 PCOD8283349
Probable space group: C C C A
;
_chemical_formula_sum "Si O2"
_cell_formula_units_Z 64
_cell_length_a 17.124652
_cell_length_b 19.474577
_cell_length_c 9.255394
_cell_angle_alpha 90.000000
_cell_angle_beta 90.000000
_cell_angle_gamma 90.000000
_cell_volume 3086.630898
_symmetry_space_group_name_H-M "C C C A"
_symmetry_group_IT_number 68
_space_group.IT_coordinate_system_code '2'
_symmetry_cell_setting 'orthorhombic'
loop_
_space_group_symop_operation_xyz
x,y,z
-x,1/2-y,z
x,1/2-y,1/2-z
-x,y,1/2-z
-x,-y,-z
x,1/2+y,-z
-x,1/2+y,1/2+z
x,-y,1/2+z
1/2+x,1/2+y,z
1/2-x,-y,z
1/2+x,-y,1/2-z
1/2-x,1/2+y,1/2-z
1/2-x,1/2-y,-z
1/2+x,y,-z
1/2-x,y,1/2+z
1/2+x,1/2-y,1/2+z
loop_
_atom_site_type_symbol
_atom_site_label
_atom_site_fract_x
_atom_site_fract_y
_atom_site_fract_z
Si Si1 0.497386 0.675438 0.493539
Si Si2 0.121938 0.675985 0.729665
Si Si3 0.332270 0.465296 0.806369
Si Si4 0.430763 0.460238 0.076245
O O1 0.500000 0.750000 0.572199
O O2 0.584203 0.662818 0.429118
O O3 0.443111 0.676110 0.353121
O O4 0.464643 0.617085 0.602424
O O5 0.165607 0.750000 0.750000
O O6 0.180319 0.612317 0.749253
O O7 0.250000 0.500000 0.782897
O O8 0.354648 0.461887 0.974229
O O9 0.403627 0.505464 0.726121
O O10 0.500000 0.500000 0.000000
#
# Coordination Sequence:
#
# PCOD8283349 Si02
#       4
#    16  16  16  16
#     4   8  14  27  52  82 100 131 185 234 259 310
#     4   8  14  28  52  79 101 135 188 227 255 317
#     4  11  22  35  55  84 116 146 180 231 283 329
#     4  11  20  35  59  83 109 146 191 229 271 327
#
# _framework density 20.734582
#
# number of rings (size 3 to 8) (size 9 to 14) (size 15 to 20)
#    0.000    2.500    2.500    3.000    0.000    0.000 
#    0.000    0.000    5.500    7.500    0.000    0.000 
#    0.000    0.000    0.000    0.000    0.000    0.000 
#
# Total GULP energy -396429.547694 kJ/mol
# GULP energy per Si atom -12388.423365 kJ/mol
# Density = 2.068739 g / cm^3
# Si number density = 20.734582 Si / 1000 Ang^3
#
#
#
# Elastic Constant Matrix: (Units=GPa)
#
#
# Indices 1 2 3 4 5 6 
#
# 1 67.5182 41.7948 0.9644 0.0000 0.0000 0.0000
# 2 41.7948 193.3754 16.8054 0.0000 0.0000 0.0000
# 3 0.9644 16.8054 42.0143 0.0000 0.0000 0.0000
# 4 0.0000 0.0000 0.0000 17.5808 0.0000 0.0000
# 5 0.0000 0.0000 0.0000 0.0000 17.5968 0.0000
# 6 0.0000 0.0000 0.0000 0.0000 0.0000 35.3217
#
#
#
# Elastic Compliance Matrix: (Units=1/GPa)
#
#
# Indices 1 2 3 4 5 6 
#
# 1 0.017150 -0.003805 0.001128 0.000000 0.000000 0.000000
# 2 -0.003805 0.006202 -0.002393 0.000000 0.000000 0.000000
# 3 0.001128 -0.002393 0.024733 0.000000 0.000000 0.000000
# 4 0.000000 0.000000 0.000000 0.056880 0.000000 0.000000
# 5 0.000000 0.000000 0.000000 0.000000 0.056828 0.000000
# 6 0.000000 0.000000 0.000000 0.000000 0.000000 0.028311
#
#
# Mechanical properties :
#
#
# Convention : Reuss Voigt Hill
#
# Bulk Modulus (GPa) = 26.35411 46.89302 36.62357
# Shear Modulus (GPa) = 23.48611 30.32276 26.90444
#
# Velocity S-wave (km/s) = 3.36922 3.82831 3.60608
# Velocity P-wave (km/s) = 5.27952 6.49664 5.91944
#
# Compressibility (1/GPa) = 0.03794475
#
# Stress axis : x y z
#
# Youngs Moduli (GPa) = 58.30948 161.24876 40.43213
#
# Poissons Ratio (x) = 0.61350 -0.04562
# Poissons Ratio (y) = 0.22185 0.09676
# Poissons Ratio (z) = -0.06579 0.38591
#
# Static dielectric constant tensor:
#      x y z
#    x 3.457010 0.000000 0.000000 
#    y 0.000000 4.904080 0.000000 
#    z 0.000000 0.000000 3.538190 
# 
# 
# High freq. dielectric constant tensor:
#      x y z
#    x 1.766320 0.000000 0.000000 
#    y 0.000000 1.835580 0.000000 
#    z 0.000000 0.000000 1.781530 
# 
# From -- ./inp_files/5813.got.cif
#   From: 2010.03.12/outbox.cif.g09.slc.cpg/sg68_3_cif.got.tgz:5813.got - 2010.04.10 23:14:56.
