data_PCOD8283515
_publ_section_title
;
Structure prediction by ZEFSAII (Michael W. Deem and Ramdas Pophale) SiO2 
 PCOD8283515
Probable space group: C C C A
;
_chemical_formula_sum "Si O2"
_cell_formula_units_Z 64
_cell_length_a 20.101047
_cell_length_b 16.164321
_cell_length_c 9.149318
_cell_angle_alpha 90.000000
_cell_angle_beta 90.000000
_cell_angle_gamma 90.000000
_cell_volume 2972.794356
_symmetry_space_group_name_H-M "C C C A"
_symmetry_group_IT_number 68
_space_group.IT_coordinate_system_code '2'
_symmetry_cell_setting 'orthorhombic'
loop_
_space_group_symop_operation_xyz
x,y,z
-x,1/2-y,z
x,1/2-y,1/2-z
-x,y,1/2-z
-x,-y,-z
x,1/2+y,-z
-x,1/2+y,1/2+z
x,-y,1/2+z
1/2+x,1/2+y,z
1/2-x,-y,z
1/2+x,-y,1/2-z
1/2-x,1/2+y,1/2-z
1/2-x,1/2-y,-z
1/2+x,y,-z
1/2-x,y,1/2+z
1/2+x,1/2-y,1/2+z
loop_
_atom_site_type_symbol
_atom_site_label
_atom_site_fract_x
_atom_site_fract_y
_atom_site_fract_z
Si Si1 0.500000 0.250000 0.023357
Si Si2 0.478049 0.421332 0.593300
Si Si3 0.825662 0.433837 0.432313
Si Si4 0.797947 0.901706 0.231512
Si Si5 0.110173 0.250000 0.750000
O O1 0.516600 0.165765 0.935425
O O2 0.436097 0.223114 0.116742
O O3 0.500000 0.452214 0.750000
O O4 0.500000 0.500000 0.500000
O O5 0.400173 0.400541 0.579559
O O6 0.825169 0.527833 0.376620
O O7 0.799442 0.428631 0.599076
O O8 0.777418 0.381495 0.323072
O O9 0.843734 0.824255 0.199846
#
# Coordination Sequence:
#
# PCOD8283515 Si02
#       5
#     8  16  16  16   8
#     4  11  25  46  68 100 144 178 236 292 352 424
#     4  12  26  45  73 104 137 184 235 293 357 425
#     4  11  23  43  67 102 133 184 228 286 351 418
#     4  11  23  43  69  98 139 178 232 287 346 426
#     4  11  24  44  70  98 135 186 230 292 355 410
#
# _framework density 21.528566000000001
#
# number of rings (size 3 to 8) (size 9 to 14) (size 15 to 20)
#    0.000    0.750    2.500    6.375    3.500    3.000 
#    4.500    0.000    0.000    0.000    0.000    0.000 
#    0.000    0.000    0.000    0.000    0.000    0.000 
#
# Total GULP energy -396645.472007 kJ/mol
# GULP energy per Si atom -12395.171000 kJ/mol
# Density = 2.147957 g / cm^3
# Si number density = 21.528566 Si / 1000 Ang^3
#
#
#
# Elastic Constant Matrix: (Units=GPa)
#
#
# Indices 1 2 3 4 5 6 
#
# 1 132.8783 34.9445 35.9859 0.0000 0.0000 0.0000
# 2 34.9445 129.2607 41.3126 0.0000 0.0000 0.0000
# 3 35.9859 41.3126 151.7556 0.0000 0.0000 0.0000
# 4 0.0000 0.0000 0.0000 23.9962 0.0000 0.0000
# 5 0.0000 0.0000 0.0000 0.0000 29.0670 0.0000
# 6 0.0000 0.0000 0.0000 0.0000 0.0000 38.4911
#
#
#
# Elastic Compliance Matrix: (Units=1/GPa)
#
#
# Indices 1 2 3 4 5 6 
#
# 1 0.008404 -0.001791 -0.001505 0.000000 0.000000 0.000000
# 2 -0.001791 0.008855 -0.001986 0.000000 0.000000 0.000000
# 3 -0.001505 -0.001986 0.007487 0.000000 0.000000 0.000000
# 4 0.000000 0.000000 0.000000 0.041673 0.000000 0.000000
# 5 0.000000 0.000000 0.000000 0.000000 0.034403 0.000000
# 6 0.000000 0.000000 0.000000 0.000000 0.000000 0.025980
#
#
# Mechanical properties :
#
#
# Convention : Reuss Voigt Hill
#
# Bulk Modulus (GPa) = 70.51119 70.93118 70.72118
# Shear Modulus (GPa) = 35.18768 38.42097 36.80433
#
# Velocity S-wave (km/s) = 4.04724 4.22910 4.13917
# Velocity P-wave (km/s) = 7.39349 7.54095 7.46759
#
# Compressibility (1/GPa) = 0.01418215
#
# Stress axis : x y z
#
# Youngs Moduli (GPa) = 118.98606 112.92813 133.56204
#
# Poissons Ratio (x) = 0.20224 0.20106
# Poissons Ratio (y) = 0.21309 0.26525
# Poissons Ratio (z) = 0.17912 0.22427
#
# Static dielectric constant tensor:
#      x y z
#    x 4.188910 0.000000 0.000000 
#    y 0.000000 3.781010 0.000000 
#    z 0.000000 0.000000 3.938840 
# 
# 
# High freq. dielectric constant tensor:
#      x y z
#    x 1.855500 0.000000 0.000000 
#    y 0.000000 1.843160 0.000000 
#    z 0.000000 0.000000 1.855220 
# 
# From -- ./inp_files/7777.got.cif
#   From: 2010.03.12/outbox.cif.g09.slc.cpg/sg68_4_cif.got.tgz:7777.got - 2010.04.10 23:14:56.
