data_PCOD8283172
_publ_section_title
;
Structure prediction by ZEFSAII (Michael W. Deem and Ramdas Pophale) SiO2 
 PCOD8283172
Probable space group: C C C A
;
_chemical_formula_sum "Si O2"
_cell_formula_units_Z 52
_cell_length_a 9.685567
_cell_length_b 23.319809
_cell_length_c 9.276890
_cell_angle_alpha 90.000000
_cell_angle_beta 90.000000
_cell_angle_gamma 90.000000
_cell_volume 2095.330071
_symmetry_space_group_name_H-M "C C C A"
_symmetry_group_IT_number 68
_space_group.IT_coordinate_system_code '2'
_symmetry_cell_setting 'orthorhombic'
loop_
_space_group_symop_operation_xyz
x,y,z
-x,1/2-y,z
x,1/2-y,1/2-z
-x,y,1/2-z
-x,-y,-z
x,1/2+y,-z
-x,1/2+y,1/2+z
x,-y,1/2+z
1/2+x,1/2+y,z
1/2-x,-y,z
1/2+x,-y,1/2-z
1/2-x,1/2+y,1/2-z
1/2-x,1/2-y,-z
1/2+x,y,-z
1/2-x,y,1/2+z
1/2+x,1/2-y,1/2+z
loop_
_atom_site_type_symbol
_atom_site_label
_atom_site_fract_x
_atom_site_fract_y
_atom_site_fract_z
Si Si1 0.459847 0.391710 0.091752
Si Si2 0.130219 0.454794 0.328791
Si Si3 0.175537 0.651529 0.623997
Si Si4 0.500000 0.750000 0.250000
O O1 0.500000 0.413293 0.250000
O O2 0.340266 0.342223 0.095636
O O3 0.398078 0.444710 0.998946
O O4 0.601731 0.370835 0.020421
O O5 0.250000 0.500000 0.310215
O O6 0.158035 0.392975 0.255656
O O7 0.000000 0.483357 0.250000
O O8 0.104468 0.711895 0.656599
#
# Coordination Sequence:
#
# PCOD8283172 Si02
#       4
#    16  16  16   4
#     4  11  24  47  75 111 156 197 263 316 393 465
#     4  10  23  48  77 109 154 205 259 319 385 465
#     4  11  25  49  77 112 153 203 261 318 388 460
#     4  12  24  52  84 104 164 200 264 326 376 464
#
# _framework density 24.817091999999999
#
# number of rings (size 3 to 8) (size 9 to 14) (size 15 to 20)
#    0.000    1.231    4.615    1.846    0.000    6.154 
#    0.000   16.923    3.385    0.000    0.000    0.000 
#    0.000    0.000    0.000    0.000    0.000    0.000 
#
# Total GULP energy -322320.314339 kJ/mol
# GULP energy per Si atom -12396.935167 kJ/mol
# Density = 2.476061 g / cm^3
# Si number density = 24.817092 Si / 1000 Ang^3
#
#
#
# Elastic Constant Matrix: (Units=GPa)
#
#
# Indices 1 2 3 4 5 6 
#
# 1 170.2581 44.7089 64.1638 0.0000 0.0000 0.0000
# 2 44.7089 124.1137 53.0999 0.0000 0.0000 0.0000
# 3 64.1638 53.0999 191.1417 0.0000 0.0000 0.0000
# 4 0.0000 0.0000 0.0000 29.2280 0.0000 0.0000
# 5 0.0000 0.0000 0.0000 0.0000 38.2732 0.0000
# 6 0.0000 0.0000 0.0000 0.0000 0.0000 51.8406
#
#
#
# Elastic Compliance Matrix: (Units=1/GPa)
#
#
# Indices 1 2 3 4 5 6 
#
# 1 0.007037 -0.001730 -0.001882 0.000000 0.000000 0.000000
# 2 -0.001730 0.009569 -0.002078 0.000000 0.000000 0.000000
# 3 -0.001882 -0.002078 0.006441 0.000000 0.000000 0.000000
# 4 0.000000 0.000000 0.000000 0.034214 0.000000 0.000000
# 5 0.000000 0.000000 0.000000 0.000000 0.026128 0.000000
# 6 0.000000 0.000000 0.000000 0.000000 0.000000 0.019290
#
#
# Mechanical properties :
#
#
# Convention : Reuss Voigt Hill
#
# Bulk Modulus (GPa) = 85.70241 89.93986 87.82114
# Shear Modulus (GPa) = 42.39240 45.43776 43.91508
#
# Velocity S-wave (km/s) = 4.13751 4.28355 4.21117
# Velocity P-wave (km/s) = 7.57852 7.79646 7.68826
#
# Compressibility (1/GPa) = 0.01166828
#
# Stress axis : x y z
#
# Youngs Moduli (GPa) = 142.11038 104.50253 155.26651
#
# Poissons Ratio (x) = 0.18077 0.29215
# Poissons Ratio (y) = 0.24582 0.32259
# Poissons Ratio (z) = 0.26740 0.21712
#
# Static dielectric constant tensor:
#      x y z
#    x 5.207620 0.000000 0.000000 
#    y 0.000000 4.129300 0.000000 
#    z 0.000000 0.000000 4.594010 
# 
# 
# High freq. dielectric constant tensor:
#      x y z
#    x 2.018430 0.000000 0.000000 
#    y 0.000000 1.953560 0.000000 
#    z 0.000000 0.000000 2.000770 
# 
# From -- ./inp_files/3810.got.cif
#   From: 2010.03.12/outbox.cif.g09.slc.cpg/sg68_2_cif.got.tgz:3810.got - 2010.04.10 23:14:56.
