data_PCOD8283193
_publ_section_title
;
Structure prediction by ZEFSAII (Michael W. Deem and Ramdas Pophale) SiO2 
 PCOD8283193
Probable space group: C C C A
;
_chemical_formula_sum "Si O2"
_cell_formula_units_Z 64
_cell_length_a 14.172704
_cell_length_b 11.407096
_cell_length_c 18.351113
_cell_angle_alpha 90.000000
_cell_angle_beta 90.000000
_cell_angle_gamma 90.000000
_cell_volume 2966.813338
_symmetry_space_group_name_H-M "C C C A"
_symmetry_group_IT_number 68
_space_group.IT_coordinate_system_code '2'
_symmetry_cell_setting 'orthorhombic'
loop_
_space_group_symop_operation_xyz
x,y,z
-x,1/2-y,z
x,1/2-y,1/2-z
-x,y,1/2-z
-x,-y,-z
x,1/2+y,-z
-x,1/2+y,1/2+z
x,-y,1/2+z
1/2+x,1/2+y,z
1/2-x,-y,z
1/2+x,-y,1/2-z
1/2-x,1/2+y,1/2-z
1/2-x,1/2-y,-z
1/2+x,y,-z
1/2-x,y,1/2+z
1/2+x,1/2-y,1/2+z
loop_
_atom_site_type_symbol
_atom_site_label
_atom_site_fract_x
_atom_site_fract_y
_atom_site_fract_z
Si Si1 0.750000 0.500000 0.598898
Si Si2 0.371663 0.364775 0.297083
Si Si3 0.500000 0.250000 0.404686
Si Si4 0.000000 0.946163 0.750000
Si Si5 0.500000 0.750000 0.368611
Si Si6 0.349263 0.690298 0.479977
O O1 0.716381 0.604777 0.651641
O O2 0.669826 0.443105 0.547147
O O3 0.346083 0.250000 0.250000
O O4 0.459380 0.348586 0.351517
O O5 0.404732 0.474000 0.247181
O O6 0.582904 0.312771 0.450041
O O7 0.002950 0.867243 0.678417
O O8 0.405318 0.760364 0.417232
O O9 0.250000 0.750000 0.500000
#
# Coordination Sequence:
#
# PCOD8283193 Si02
#       6
#     8  16   8   8   8  16
#     4  12  26  44  66 104 140 174 234 294 342 412
#     4  12  24  44  70 100 136 180 228 286 346 410
#     4  11  23  43  71  95 133 182 232 270 345 411
#     4  11  21  42  70 100 133 177 228 286 346 405
#     4  10  24  41  71 104 136 180 230 280 352 404
#     4  11  24  43  65  99 138 177 227 284 340 412
#
# _framework density 21.571967000000001
#
# number of rings (size 3 to 8) (size 9 to 14) (size 15 to 20)
#    0.000    0.750    7.500    0.000    0.000    5.000 
#    0.000    0.000    0.000    0.000    0.000    0.000 
#    0.000    0.000    0.000    0.000    0.000    0.000 
#
# Total GULP energy -396705.775054 kJ/mol
# GULP energy per Si atom -12397.055470 kJ/mol
# Density = 2.152287 g / cm^3
# Si number density = 21.571967 Si / 1000 Ang^3
#
#
#
# Elastic Constant Matrix: (Units=GPa)
#
#
# Indices 1 2 3 4 5 6 
#
# 1 120.7332 40.2686 55.5432 0.0000 0.0000 0.0000
# 2 40.2686 121.3347 53.7133 0.0000 0.0000 0.0000
# 3 55.5432 53.7133 116.7662 0.0000 0.0000 0.0000
# 4 0.0000 0.0000 0.0000 11.2352 0.0000 0.0000
# 5 0.0000 0.0000 0.0000 0.0000 61.3582 0.0000
# 6 0.0000 0.0000 0.0000 0.0000 0.0000 36.2807
#
#
#
# Elastic Compliance Matrix: (Units=1/GPa)
#
#
# Indices 1 2 3 4 5 6 
#
# 1 0.010861 -0.001654 -0.004405 0.000000 0.000000 0.000000
# 2 -0.001654 0.010601 -0.004090 0.000000 0.000000 0.000000
# 3 -0.004405 -0.004090 0.012541 0.000000 0.000000 0.000000
# 4 0.000000 0.000000 0.000000 0.089006 0.000000 0.000000
# 5 0.000000 0.000000 0.000000 0.000000 0.016298 0.000000
# 6 0.000000 0.000000 0.000000 0.000000 0.000000 0.027563
#
#
# Mechanical properties :
#
#
# Convention : Reuss Voigt Hill
#
# Bulk Modulus (GPa) = 72.96923 73.09825 73.03374
# Shear Modulus (GPa) = 26.07740 35.72876 30.90308
#
# Velocity S-wave (km/s) = 3.48063 4.07413 3.78902
# Velocity P-wave (km/s) = 7.07478 7.48937 7.28502
#
# Compressibility (1/GPa) = 0.01370441
#
# Stress axis : x y z
#
# Youngs Moduli (GPa) = 92.07047 94.32930 79.73873
#
# Poissons Ratio (x) = 0.15606 0.35128
# Poissons Ratio (y) = 0.15232 0.32610
# Poissons Ratio (z) = 0.40561 0.38577
#
# Static dielectric constant tensor:
#      x y z
#    x 11.362030 0.000000 0.000000 
#    y 0.000000 3.747740 0.000000 
#    z 0.000000 0.000000 4.196710 
# 
# 
# High freq. dielectric constant tensor:
#      x y z
#    x 1.845490 0.000000 0.000000 
#    y 0.000000 1.842150 0.000000 
#    z 0.000000 0.000000 1.861690 
# 
# From -- ./inp_files/29226.got.cif
#   From: 2010.03.12/outbox.cif.g09.slc.cpg/sg68_15_cif.got.tgz:29226.got - 2010.04.10 23:14:56.
