data_PCOD8283672
_publ_section_title
;
Structure prediction by ZEFSAII (Michael W. Deem and Ramdas Pophale) SiO2 
 PCOD8283672
Probable space group: C C C A
;
_chemical_formula_sum "Si O2"
_cell_formula_units_Z 96
_cell_length_a 19.641475
_cell_length_b 19.382993
_cell_length_c 11.221448
_cell_angle_alpha 90.000000
_cell_angle_beta 90.000000
_cell_angle_gamma 90.000000
_cell_volume 4272.123892
_symmetry_space_group_name_H-M "C C C A"
_symmetry_group_IT_number 68
_space_group.IT_coordinate_system_code '2'
_symmetry_cell_setting 'orthorhombic'
loop_
_space_group_symop_operation_xyz
x,y,z
-x,1/2-y,z
x,1/2-y,1/2-z
-x,y,1/2-z
-x,-y,-z
x,1/2+y,-z
-x,1/2+y,1/2+z
x,-y,1/2+z
1/2+x,1/2+y,z
1/2-x,-y,z
1/2+x,-y,1/2-z
1/2-x,1/2+y,1/2-z
1/2-x,1/2-y,-z
1/2+x,y,-z
1/2-x,y,1/2+z
1/2+x,1/2-y,1/2+z
loop_
_atom_site_type_symbol
_atom_site_label
_atom_site_fract_x
_atom_site_fract_y
_atom_site_fract_z
Si Si1 0.664797 0.750000 0.750000
Si Si2 0.750000 0.500000 0.647286
Si Si3 0.875841 0.959216 0.005073
Si Si4 0.864216 0.606983 0.900282
Si Si5 0.783610 0.386724 0.828534
Si Si6 0.567452 0.137562 0.830711
Si Si7 0.577426 0.242019 0.486208
O O1 0.714064 0.684530 0.755865
O O2 0.621679 0.755821 0.629617
O O3 0.807934 0.533207 0.569416
O O4 0.784907 0.444336 0.729668
O O5 0.937259 0.926207 0.925655
O O6 0.854322 0.900980 0.101257
O O7 0.896090 0.033128 0.060964
O O8 0.782293 0.610187 0.917611
O O9 0.872141 0.618264 0.759030
O O10 0.905775 0.664568 0.972166
O O11 0.500000 0.146763 0.750000
O O12 0.588756 0.206930 0.901197
O O13 0.500000 0.250000 0.445087
#
# Coordination Sequence:
#
# PCOD8283672 Si02
#       7
#     8   8  16  16  16  16  16
#     4  12  29  44  72 110 145 188 248 308 372 448
#     4  12  20  42  70 100 148 188 224 292 376 434
#     4  12  23  45  73 108 146 192 238 302 377 444
#     4  12  25  42  76 111 143 190 246 301 372 450
#     4  12  24  42  69 111 149 185 235 306 376 447
#     4  12  26  48  74 103 145 195 251 305 370 442
#     4  12  27  50  72  99 142 199 246 302 367 439
#
# _framework density 22.471260000000001
#
# number of rings (size 3 to 8) (size 9 to 14) (size 15 to 20)
#    0.000    0.000    8.333    1.750    2.333    1.333 
#    0.000    0.000    0.000    0.000    0.000    0.000 
#    0.000    0.000    0.000    0.000    0.000    0.000 
#
# Total GULP energy -594962.031418 kJ/mol
# GULP energy per Si atom -12395.042321 kJ/mol
# Density = 2.242011 g / cm^3
# Si number density = 22.471260 Si / 1000 Ang^3
#
#
#
# Elastic Constant Matrix: (Units=GPa)
#
#
# Indices 1 2 3 4 5 6 
#
# 1 50.5225 28.5058 16.6327 0.0000 0.0000 0.0000
# 2 28.5058 168.7563 53.8878 0.0000 0.0000 0.0000
# 3 16.6327 53.8878 96.4762 0.0000 0.0000 0.0000
# 4 0.0000 0.0000 0.0000 56.9836 0.0000 0.0000
# 5 0.0000 0.0000 0.0000 0.0000 61.7010 0.0000
# 6 0.0000 0.0000 0.0000 0.0000 0.0000 30.1743
#
#
#
# Elastic Compliance Matrix: (Units=1/GPa)
#
#
# Indices 1 2 3 4 5 6 
#
# 1 0.022226 -0.003080 -0.002111 0.000000 0.000000 0.000000
# 2 -0.003080 0.007639 -0.003736 0.000000 0.000000 0.000000
# 3 -0.002111 -0.003736 0.012816 0.000000 0.000000 0.000000
# 4 0.000000 0.000000 0.000000 0.017549 0.000000 0.000000
# 5 0.000000 0.000000 0.000000 0.000000 0.016207 0.000000
# 6 0.000000 0.000000 0.000000 0.000000 0.000000 0.033141
#
#
# Mechanical properties :
#
#
# Convention : Reuss Voigt Hill
#
# Bulk Modulus (GPa) = 40.27980 57.08973 48.68476
# Shear Modulus (GPa) = 36.84386 44.22038 40.53212
#
# Velocity S-wave (km/s) = 4.05359 4.44087 4.25164
# Velocity P-wave (km/s) = 6.31449 7.19416 6.76863
#
# Compressibility (1/GPa) = 0.02482634
#
# Stress axis : x y z
#
# Youngs Moduli (GPa) = 44.99210 130.90879 78.02801
#
# Poissons Ratio (x) = 0.40322 0.16475
# Poissons Ratio (y) = 0.13858 0.29149
# Poissons Ratio (z) = 0.09500 0.48904
#
# Static dielectric constant tensor:
#      x y z
#    x 3.978280 0.000000 0.000000 
#    y 0.000000 4.353270 0.000000 
#    z 0.000000 0.000000 4.431600 
# 
# 
# High freq. dielectric constant tensor:
#      x y z
#    x 1.868100 0.000000 0.000000 
#    y 0.000000 1.902670 0.000000 
#    z 0.000000 0.000000 1.899690 
# 
# From -- ./inp_files/16474.got.cif
#   From: 2010.03.12/outbox.cif.g09.slc.cpg/sg68_9_cif.got.tgz:16474.got - 2010.04.10 23:14:56.
