data_PCOD8283877
_publ_section_title
;
Structure prediction by ZEFSAII (Michael W. Deem and Ramdas Pophale) SiO2 
 PCOD8283877
Probable space group: F M M M
;
_chemical_formula_sum "Si O2"
_cell_formula_units_Z 240
_cell_length_a 23.088379
_cell_length_b 27.232615
_cell_length_c 19.868619
_cell_angle_alpha 90.000000
_cell_angle_beta 90.000000
_cell_angle_gamma 90.000000
_cell_volume 12492.532011
_symmetry_space_group_name_H-M "F M M M"
_symmetry_group_IT_number 69
_symmetry_cell_setting 'orthorhombic'
loop_
_space_group_symop_operation_xyz
x,y,z
-x,-y,z
x,-y,-z
-x,y,-z
-x,-y,-z
x,y,-z
-x,y,z
x,-y,z
x,1/2+y,1/2+z
-x,1/2-y,1/2+z
x,1/2-y,1/2-z
-x,1/2+y,1/2-z
-x,1/2-y,1/2-z
x,1/2+y,1/2-z
-x,1/2+y,1/2+z
x,1/2-y,1/2+z
1/2+x,y,1/2+z
1/2-x,-y,1/2+z
1/2+x,-y,1/2-z
1/2-x,y,1/2-z
1/2-x,-y,1/2-z
1/2+x,y,1/2-z
1/2-x,y,1/2+z
1/2+x,-y,1/2+z
1/2+x,1/2+y,z
1/2-x,1/2-y,z
1/2+x,1/2-y,-z
1/2-x,1/2+y,-z
1/2-x,1/2-y,-z
1/2+x,1/2+y,-z
1/2-x,1/2+y,z
1/2+x,1/2-y,z
loop_
_atom_site_type_symbol
_atom_site_label
_atom_site_fract_x
_atom_site_fract_y
_atom_site_fract_z
Si Si1 0.368721 0.091721 0.371385
Si Si2 0.565289 0.444776 0.755635
Si Si3 0.374746 0.054638 0.883797
Si Si4 0.748667 0.942999 0.326544
Si Si5 0.067741 0.150267 0.425164
Si Si6 0.936507 0.500000 0.422972
Si Si7 0.935010 0.319997 0.575984
Si Si8 0.566815 0.767161 0.822463
O O1 0.393601 0.092978 0.295124
O O2 0.299384 0.086662 0.369024
O O3 0.399121 0.047603 0.408867
O O4 0.385302 0.140523 0.410818
O O5 0.500000 0.425568 0.761108
O O6 0.572506 0.500000 0.786869
O O7 0.582782 0.446167 0.679064
O O8 0.309353 0.066114 0.862250
O O9 0.397382 0.098731 0.929902
O O10 0.377508 0.000000 0.918240
O O11 0.750000 0.923484 0.250000
O O12 0.730664 0.000000 0.325891
O O13 0.076241 0.174524 0.500000
O O14 0.091398 0.184407 0.362600
O O15 0.000000 0.139736 0.413333
O O16 0.951087 0.500000 0.500000
O O17 0.000000 0.500000 0.385645
O O18 0.929099 0.300593 0.500000
O O19 0.922927 0.275847 0.625484
O O20 0.000000 0.341638 0.587892
O O21 0.500000 0.777892 0.807986
O O22 0.595392 0.750000 0.750000
#
# Coordination Sequence:
#
# PCOD8283877 Si02
#       8
#    32  32  32  32  32  16  32  32
#     4  12  20  32  52  77 107 152 195 232 279 338
#     4  10  18  28  46  77 111 140 177 229 283 331
#     4  10  21  35  55  82 113 151 192 239 290 342
#     4  10  19  35  53  75 109 153 197 244 290 339
#     4  10  21  38  60  85 117 154 187 231 297 358
#     4  11  22  34  47  72 112 150 187 232 286 347
#     4  10  21  36  54  81 119 155 185 227 288 351
#     4   9  19  35  58  88 116 146 187 234 283 344
#
# _framework density 19.211478
#
# number of rings (size 3 to 8) (size 9 to 14) (size 15 to 20)
#    0.000    1.800    2.667    2.400    1.867    3.733 
#    0.000    2.000    0.000    0.800    0.000    3.733 
#    0.000    0.000    0.000    0.000    0.000    0.000 
#
# Total GULP energy -743508.315474 kJ/mol
# GULP energy per Si atom -12391.805258 kJ/mol
# Density = 1.916775 g / cm^3
# Si number density = 19.211478 Si / 1000 Ang^3
#
#
#
# Elastic Constant Matrix: (Units=GPa)
#
#
# Indices 1 2 3 4 5 6 
#
# 1 82.3845 31.3034 26.1513 0.0000 0.0000 0.0000
# 2 31.3034 85.1927 46.2322 0.0000 0.0000 0.0000
# 3 26.1513 46.2322 104.2937 0.0000 0.0000 0.0000
# 4 0.0000 0.0000 0.0000 26.5117 0.0000 0.0000
# 5 0.0000 0.0000 0.0000 0.0000 16.8934 0.0000
# 6 0.0000 0.0000 0.0000 0.0000 0.0000 -2.0293
#
#
#
# Elastic Compliance Matrix: (Units=1/GPa)
#
#
# Indices 1 2 3 4 5 6 
#
# 1 0.014322 -0.004363 -0.001657 0.000000 0.000000 0.000000
# 2 -0.004363 0.016786 -0.006347 0.000000 0.000000 0.000000
# 3 -0.001657 -0.006347 0.012817 0.000000 0.000000 0.000000
# 4 0.000000 0.000000 0.000000 0.037719 0.000000 0.000000
# 5 0.000000 0.000000 0.000000 0.000000 0.059195 0.000000
# 6 0.000000 0.000000 0.000000 0.000000 0.000000 -0.492792
#
#
# Mechanical properties :
#
#
# Convention : Reuss Voigt Hill
#
# Bulk Modulus (GPa) = 52.10845 53.24942 52.67894
# Shear Modulus (GPa) = -15.58495 19.48745 1.95125
#
# Velocity S-wave (km/s) = -2.85130 3.18836 1.00890
# Velocity P-wave (km/s) = 4.04260 6.42899 5.37003
#
# Compressibility (1/GPa) = 0.01919074
#
# Stress axis : x y z
#
# Youngs Moduli (GPa) = 69.82213 59.57474 78.01982
#
# Poissons Ratio (x) = 0.25994 0.12928
# Poissons Ratio (y) = 0.30466 0.49518
# Poissons Ratio (z) = 0.11570 0.37811
#
# Static dielectric constant tensor:
#      x y z
#    x 3.284920 0.000000 0.000000 
#    y 0.000000 3.112140 0.000000 
#    z 0.000000 0.000000 3.678880 
# 
# 
# High freq. dielectric constant tensor:
#      x y z
#    x 1.717220 0.000000 0.000000 
#    y 0.000000 1.726700 0.000000 
#    z 0.000000 0.000000 1.757250 
# 
# From -- ./inp_files/33032.got.cif
#   From: 2010.03.12/outbox.cif.g09.slc.cpg/sg69_17_cif.got.tgz:33032.got - 2010.04.10 23:52:46.
