data_PCOD8283386
_publ_section_title
;
Structure prediction by ZEFSAII (Michael W. Deem and Ramdas Pophale) SiO2 
 PCOD8283386
Probable space group: C C C A
;
_chemical_formula_sum "Si O2"
_cell_formula_units_Z 96
_cell_length_a 17.243566
_cell_length_b 14.293013
_cell_length_c 17.800243
_cell_angle_alpha 90.000000
_cell_angle_beta 90.000000
_cell_angle_gamma 90.000000
_cell_volume 4387.092622
_symmetry_space_group_name_H-M "C C C A"
_symmetry_group_IT_number 68
_space_group.IT_coordinate_system_code '2'
_symmetry_cell_setting 'orthorhombic'
loop_
_space_group_symop_operation_xyz
x,y,z
-x,1/2-y,z
x,1/2-y,1/2-z
-x,y,1/2-z
-x,-y,-z
x,1/2+y,-z
-x,1/2+y,1/2+z
x,-y,1/2+z
1/2+x,1/2+y,z
1/2-x,-y,z
1/2+x,-y,1/2-z
1/2-x,1/2+y,1/2-z
1/2-x,1/2-y,-z
1/2+x,y,-z
1/2-x,y,1/2+z
1/2+x,1/2-y,1/2+z
loop_
_atom_site_type_symbol
_atom_site_label
_atom_site_fract_x
_atom_site_fract_y
_atom_site_fract_z
Si Si1 0.182422 0.064314 0.344810
Si Si2 0.922922 0.956774 0.786959
Si Si3 0.429396 0.319308 0.921200
Si Si4 0.232159 0.755121 0.913222
Si Si5 0.591217 0.509973 0.985539
Si Si6 0.318843 0.926248 0.615925
O O1 0.130682 0.097562 0.273971
O O2 0.240166 0.141607 0.380813
O O3 0.250000 0.000000 0.311788
O O4 0.122963 0.012095 0.402570
O O5 0.951641 0.887254 0.852586
O O6 0.000000 0.997925 0.750000
O O7 0.877402 0.047356 0.817451
O O8 0.500000 0.250000 0.943483
O O9 0.358343 0.257792 0.894620
O O10 0.395656 0.381222 0.991133
O O11 0.285862 0.678214 0.871376
O O12 0.250000 0.750000 0.000000
O O13 0.635893 0.434788 0.037232
O O14 0.500000 0.500000 0.000000
O O15 0.250000 0.000000 0.613275
#
# Coordination Sequence:
#
# PCOD8283386 Si02
#       6
#    16  16  16  16  16  16
#     4  12  25  41  65 100 135 176 232 284 342 414
#     4  11  24  44  66  95 139 182 224 292 355 414
#     4  11  24  42  67 101 133 175 233 285 349 413
#     4  12  23  40  70  99 131 177 229 290 341 413
#     4  11  21  39  65  96 140 174 220 289 340 406
#     4  11  21  44  67  94 135 179 228 282 350 412
#
# _framework density 21.882373999999999
#
# number of rings (size 3 to 8) (size 9 to 14) (size 15 to 20)
#    0.000    0.667    5.000    6.000    0.000    2.333 
#    0.000    0.000    0.000    1.000    0.000    0.000 
#    0.000    0.000    0.000    0.000    0.000    0.000 
#
# Total GULP energy -594814.139830 kJ/mol
# GULP energy per Si atom -12391.961246 kJ/mol
# Density = 2.183257 g / cm^3
# Si number density = 21.882374 Si / 1000 Ang^3
#
#
#
# Elastic Constant Matrix: (Units=GPa)
#
#
# Indices 1 2 3 4 5 6 
#
# 1 109.7112 28.9248 6.5482 0.0000 0.0000 0.0000
# 2 28.9248 108.1796 25.1872 0.0000 0.0000 0.0000
# 3 6.5482 25.1872 74.4036 0.0000 0.0000 0.0000
# 4 0.0000 0.0000 0.0000 18.1084 0.0000 0.0000
# 5 0.0000 0.0000 0.0000 0.0000 44.1554 0.0000
# 6 0.0000 0.0000 0.0000 0.0000 0.0000 42.7344
#
#
#
# Elastic Compliance Matrix: (Units=1/GPa)
#
#
# Indices 1 2 3 4 5 6 
#
# 1 0.009806 -0.002628 0.000027 0.000000 0.000000 0.000000
# 2 -0.002628 0.010739 -0.003404 0.000000 0.000000 0.000000
# 3 0.000027 -0.003404 0.014590 0.000000 0.000000 0.000000
# 4 0.000000 0.000000 0.000000 0.055223 0.000000 0.000000
# 5 0.000000 0.000000 0.000000 0.000000 0.022647 0.000000
# 6 0.000000 0.000000 0.000000 0.000000 0.000000 0.023400
#
#
# Mechanical properties :
#
#
# Convention : Reuss Voigt Hill
#
# Bulk Modulus (GPa) = 43.24455 45.95718 44.60087
# Shear Modulus (GPa) = 32.02553 36.44194 34.23374
#
# Velocity S-wave (km/s) = 3.82976 4.08530 3.95960
# Velocity P-wave (km/s) = 6.27386 6.58031 6.42891
#
# Compressibility (1/GPa) = 0.02312430
#
# Stress axis : x y z
#
# Youngs Moduli (GPa) = 101.97691 93.11706 68.53899
#
# Poissons Ratio (x) = 0.24473 -0.00183
# Poissons Ratio (y) = 0.26801 0.23332
# Poissons Ratio (z) = -0.00272 0.31698
#
# Static dielectric constant tensor:
#      x y z
#    x 4.032220 0.000000 0.000000 
#    y 0.000000 2.804410 0.000000 
#    z 0.000000 0.000000 3.949140 
# 
# 
# High freq. dielectric constant tensor:
#      x y z
#    x 1.882080 0.000000 0.000000 
#    y 0.000000 1.845740 0.000000 
#    z 0.000000 0.000000 1.854440 
# 
# From -- ./inp_files/38563.got.cif
#   From: 2010.03.12/outbox.cif.g09.slc.cpg/sg68_20_cif.got.tgz:38563.got - 2010.04.10 23:14:56.
