data_PCOD8283039
_publ_section_title
;
Structure prediction by ZEFSAII (Michael W. Deem and Ramdas Pophale) SiO2 
 PCOD8283039
Probable space group: C C C A
;
_chemical_formula_sum "Si O2"
_cell_formula_units_Z 88
_cell_length_a 11.816766
_cell_length_b 14.307158
_cell_length_c 24.539979
_cell_angle_alpha 90.000000
_cell_angle_beta 90.000000
_cell_angle_gamma 90.000000
_cell_volume 4148.835309
_symmetry_space_group_name_H-M "C C C A"
_symmetry_group_IT_number 68
_space_group.IT_coordinate_system_code '2'
_symmetry_cell_setting 'orthorhombic'
loop_
_space_group_symop_operation_xyz
x,y,z
-x,1/2-y,z
x,1/2-y,1/2-z
-x,y,1/2-z
-x,-y,-z
x,1/2+y,-z
-x,1/2+y,1/2+z
x,-y,1/2+z
1/2+x,1/2+y,z
1/2-x,-y,z
1/2+x,-y,1/2-z
1/2-x,1/2+y,1/2-z
1/2-x,1/2-y,-z
1/2+x,y,-z
1/2-x,y,1/2+z
1/2+x,1/2-y,1/2+z
loop_
_atom_site_type_symbol
_atom_site_label
_atom_site_fract_x
_atom_site_fract_y
_atom_site_fract_z
Si Si1 0.179833 0.691318 0.165840
Si Si2 0.500000 0.131876 0.250000
Si Si3 0.250000 0.500000 0.117029
Si Si4 0.105578 0.705552 0.809074
Si Si5 0.500000 0.750000 0.580577
Si Si6 0.982597 0.455963 0.941973
Si Si7 0.116651 0.998873 0.664082
O O1 0.243031 0.591168 0.156603
O O2 0.272992 0.772133 0.166387
O O3 0.110190 0.728954 0.115527
O O4 0.098533 0.691060 0.219255
O O5 0.560970 0.077165 0.298346
O O6 0.140540 0.510465 0.078749
O O7 0.105619 0.750000 0.750000
O O8 0.080038 0.596559 0.807650
O O9 0.000000 0.750000 0.842717
O O10 0.507668 0.654264 0.546179
O O11 0.072014 0.491769 0.897362
O O12 0.000000 0.500000 0.000000
O O13 0.250000 0.000000 0.662827
#
# Coordination Sequence:
#
# PCOD8283039 Si02
#       7
#    16   8   8  16   8  16  16
#     4  11  24  41  68 101 138 184 234 281 352 421
#     4  12  24  41  71 100 144 196 228 279 356 435
#     4  10  22  46  70  94 138 182 236 296 350 428
#     4  11  24  38  59  95 141 178 222 277 343 415
#     4  10  22  47  68 104 132 173 244 294 334 442
#     4  11  25  48  73 100 138 184 240 299 365 419
#     4  12  25  43  67 104 139 180 233 293 342 421
#
# _framework density 21.210774000000001
#
# number of rings (size 3 to 8) (size 9 to 14) (size 15 to 20)
#    0.000    0.909    3.636    4.364    7.636    0.000 
#    4.909    1.818    0.000    0.000    0.000    0.000 
#    0.000    0.000    0.000    0.000    0.000    0.000 
#
# Total GULP energy -545081.501832 kJ/mol
# GULP energy per Si atom -12388.215951 kJ/mol
# Density = 2.116250 g / cm^3
# Si number density = 21.210774 Si / 1000 Ang^3
#
#
#
# Elastic Constant Matrix: (Units=GPa)
#
#
# Indices 1 2 3 4 5 6 
#
# 1 116.5445 39.1198 19.2437 0.0000 0.0000 0.0000
# 2 39.1198 135.8300 46.5492 0.0000 0.0000 0.0000
# 3 19.2437 46.5492 114.4197 0.0000 0.0000 0.0000
# 4 0.0000 0.0000 0.0000 42.9722 0.0000 0.0000
# 5 0.0000 0.0000 0.0000 0.0000 19.7521 0.0000
# 6 0.0000 0.0000 0.0000 0.0000 0.0000 45.5779
#
#
#
# Elastic Compliance Matrix: (Units=1/GPa)
#
#
# Indices 1 2 3 4 5 6 
#
# 1 0.009530 -0.002551 -0.000565 0.000000 0.000000 0.000000
# 2 -0.002551 0.009238 -0.003329 0.000000 0.000000 0.000000
# 3 -0.000565 -0.003329 0.010189 0.000000 0.000000 0.000000
# 4 0.000000 0.000000 0.000000 0.023271 0.000000 0.000000
# 5 0.000000 0.000000 0.000000 0.000000 0.050628 0.000000
# 6 0.000000 0.000000 0.000000 0.000000 0.000000 0.021940
#
#
# Mechanical properties :
#
#
# Convention : Reuss Voigt Hill
#
# Bulk Modulus (GPa) = 62.24093 64.06882 63.15488
# Shear Modulus (GPa) = 34.95483 39.11920 37.03701
#
# Velocity S-wave (km/s) = 4.06393 4.29920 4.18322
# Velocity P-wave (km/s) = 7.17136 7.41050 7.29191
#
# Compressibility (1/GPa) = 0.01606660
#
# Stress axis : x y z
#
# Youngs Moduli (GPa) = 104.93172 108.25120 98.14354
#
# Poissons Ratio (x) = 0.27616 0.05545
# Poissons Ratio (y) = 0.26769 0.32673
# Poissons Ratio (z) = 0.05928 0.36038
#
# Static dielectric constant tensor:
#      x y z
#    x 0.573080 0.000000 0.000000 
#    y 0.000000 4.722860 0.000000 
#    z 0.000000 0.000000 3.548950 
# 
# 
# High freq. dielectric constant tensor:
#      x y z
#    x 1.858250 0.000000 0.000000 
#    y 0.000000 1.855590 0.000000 
#    z 0.000000 0.000000 1.802880 
# 
# From -- ./inp_files/45349.got.cif
#   From: 2010.03.12/outbox.cif.g09.slc.cpg/sg68_23_cif.got.tgz:45349.got - 2010.04.10 23:14:56.
