data_PCOD8283774
_publ_section_title
;
Structure prediction by ZEFSAII (Michael W. Deem and Ramdas Pophale) SiO2 
 PCOD8283774
Probable space group: F M M M
;
_chemical_formula_sum "Si O2"
_cell_formula_units_Z 192
_cell_length_a 23.354219
_cell_length_b 19.300860
_cell_length_c 25.909423
_cell_angle_alpha 90.000000
_cell_angle_beta 90.000000
_cell_angle_gamma 90.000000
_cell_volume 11678.841122
_symmetry_space_group_name_H-M "F M M M"
_symmetry_group_IT_number 69
_symmetry_cell_setting 'orthorhombic'
loop_
_space_group_symop_operation_xyz
x,y,z
-x,-y,z
x,-y,-z
-x,y,-z
-x,-y,-z
x,y,-z
-x,y,z
x,-y,z
x,1/2+y,1/2+z
-x,1/2-y,1/2+z
x,1/2-y,1/2-z
-x,1/2+y,1/2-z
-x,1/2-y,1/2-z
x,1/2+y,1/2-z
-x,1/2+y,1/2+z
x,1/2-y,1/2+z
1/2+x,y,1/2+z
1/2-x,-y,1/2+z
1/2+x,-y,1/2-z
1/2-x,y,1/2-z
1/2-x,-y,1/2-z
1/2+x,y,1/2-z
1/2-x,y,1/2+z
1/2+x,-y,1/2+z
1/2+x,1/2+y,z
1/2-x,1/2-y,z
1/2+x,1/2-y,-z
1/2-x,1/2+y,-z
1/2-x,1/2-y,-z
1/2+x,1/2+y,-z
1/2-x,1/2+y,z
1/2+x,1/2-y,z
loop_
_atom_site_type_symbol
_atom_site_label
_atom_site_fract_x
_atom_site_fract_y
_atom_site_fract_z
Si Si1 0.563287 0.824781 0.773307
Si Si2 0.812416 0.783764 0.942754
Si Si3 0.166272 0.577717 0.388668
Si Si4 0.935243 0.079564 0.180939
Si Si5 0.228902 0.649560 0.693324
Si Si6 0.163237 0.278648 0.840731
O O1 0.500000 0.850158 0.792586
O O2 0.555894 0.750000 0.750000
O O3 0.587994 0.876267 0.729528
O O4 0.608083 0.819954 0.820252
O O5 0.750000 0.750000 0.940524
O O6 0.811804 0.866348 0.930372
O O7 0.850828 0.746147 0.899192
O O8 0.838706 0.773544 0.000000
O O9 0.173273 0.500000 0.411325
O O10 0.100648 0.592742 0.371464
O O11 0.202065 0.583167 0.335032
O O12 0.000000 0.102353 0.167991
O O13 0.931134 0.000000 0.197930
O O14 0.250000 0.630053 0.750000
O O15 0.181832 0.712181 0.694554
O O16 0.282781 0.670413 0.658082
#
# Coordination Sequence:
#
# PCOD8283774 Si02
#       6
#    32  32  32  32  32  32
#     4  10  18  27  45  70  94 123 161 195 223 265
#     4  10  19  34  52  67  86 122 163 198 244 293
#     4  10  19  31  47  72  98 122 158 197 232 275
#     4   9  18  32  48  69 102 138 162 183 220 276
#     4  10  17  26  42  66  95 127 148 180 230 286
#     4  10  16  29  45  65  90 120 156 196 229 279
#
# _framework density 16.439986999999999
#
# number of rings (size 3 to 8) (size 9 to 14) (size 15 to 20)
#    0.000    2.167    3.333    5.000    0.000    0.667 
#    0.000    0.833    0.000    2.000    0.000    2.333 
#    0.000    0.000    0.000    4.167    0.000    0.000 
#
# Total GULP energy -594786.373458 kJ/mol
# GULP energy per Si atom -12391.382780 kJ/mol
# Density = 1.640257 g / cm^3
# Si number density = 16.439987 Si / 1000 Ang^3
#
#
#
# Elastic Constant Matrix: (Units=GPa)
#
#
# Indices 1 2 3 4 5 6 
#
# 1 59.2072 27.3204 17.4914 0.0000 0.0000 0.0000
# 2 27.3204 70.6097 23.5584 0.0000 0.0000 0.0000
# 3 17.4914 23.5584 84.3124 0.0000 0.0000 0.0000
# 4 0.0000 0.0000 0.0000 12.8897 0.0000 0.0000
# 5 0.0000 0.0000 0.0000 0.0000 12.4799 0.0000
# 6 0.0000 0.0000 0.0000 0.0000 0.0000 21.6702
#
#
#
# Elastic Compliance Matrix: (Units=1/GPa)
#
#
# Indices 1 2 3 4 5 6 
#
# 1 0.020956 -0.007342 -0.002296 0.000000 0.000000 0.000000
# 2 -0.007342 0.018191 -0.003560 0.000000 0.000000 0.000000
# 3 -0.002296 -0.003560 0.013332 0.000000 0.000000 0.000000
# 4 0.000000 0.000000 0.000000 0.077581 0.000000 0.000000
# 5 0.000000 0.000000 0.000000 0.000000 0.080129 0.000000
# 6 0.000000 0.000000 0.000000 0.000000 0.000000 0.046146
#
#
# Mechanical properties :
#
#
# Convention : Reuss Voigt Hill
#
# Bulk Modulus (GPa) = 38.33947 38.98552 38.66250
# Shear Modulus (GPa) = 17.15704 19.12522 18.14113
#
# Velocity S-wave (km/s) = 3.23401 3.41447 3.32546
# Velocity P-wave (km/s) = 6.10873 6.26978 6.18978
#
# Compressibility (1/GPa) = 0.02608278
#
# Stress axis : x y z
#
# Youngs Moduli (GPa) = 47.71864 54.97251 75.00976
#
# Poissons Ratio (x) = 0.40363 0.17222
# Poissons Ratio (y) = 0.35037 0.26701
# Poissons Ratio (z) = 0.10956 0.19568
#
# Static dielectric constant tensor:
#      x y z
#    x 3.321170 0.000000 0.000000 
#    y 0.000000 2.862130 0.000000 
#    z 0.000000 0.000000 3.091080 
# 
# 
# High freq. dielectric constant tensor:
#      x y z
#    x 1.629030 0.000000 0.000000 
#    y 0.000000 1.620770 0.000000 
#    z 0.000000 0.000000 1.603010 
# 
# From -- ./inp_files/33002.got.cif
#   From: 2010.03.12/outbox.cif.g09.slc.cpg/sg69_17_cif.got.tgz:33002.got - 2010.04.10 23:52:46.
