data_PCOD8283726
_publ_section_title
;
Structure prediction by ZEFSAII (Michael W. Deem and Ramdas Pophale) SiO2 
 PCOD8283726
Probable space group: C C C A
;
_chemical_formula_sum "Si O2"
_cell_formula_units_Z 64
_cell_length_a 14.147089
_cell_length_b 21.213419
_cell_length_c 8.138818
_cell_angle_alpha 90.000000
_cell_angle_beta 90.000000
_cell_angle_gamma 90.000000
_cell_volume 2442.525423
_symmetry_space_group_name_H-M "C C C A"
_symmetry_group_IT_number 68
_space_group.IT_coordinate_system_code '2'
_symmetry_cell_setting 'orthorhombic'
loop_
_space_group_symop_operation_xyz
x,y,z
-x,1/2-y,z
x,1/2-y,1/2-z
-x,y,1/2-z
-x,-y,-z
x,1/2+y,-z
-x,1/2+y,1/2+z
x,-y,1/2+z
1/2+x,1/2+y,z
1/2-x,-y,z
1/2+x,-y,1/2-z
1/2-x,1/2+y,1/2-z
1/2-x,1/2-y,-z
1/2+x,y,-z
1/2-x,y,1/2+z
1/2+x,1/2-y,1/2+z
loop_
_atom_site_type_symbol
_atom_site_label
_atom_site_fract_x
_atom_site_fract_y
_atom_site_fract_z
Si Si1 0.220613 0.178610 0.703926
Si Si2 0.855662 0.513500 0.738179
Si Si3 0.579692 0.402713 0.035576
Si Si4 0.129754 0.377021 0.490570
O O1 0.196710 0.250000 0.750000
O O2 0.156595 0.153721 0.550247
O O3 0.330865 0.169798 0.653452
O O4 0.195677 0.133415 0.853220
O O5 0.750000 0.500000 0.799224
O O6 0.588584 0.556030 0.369986
O O7 0.911405 0.448667 0.696342
O O8 0.851876 0.550972 0.564208
O O9 0.479851 0.366080 0.030981
#
# Coordination Sequence:
#
# PCOD8283726 Si02
#       4
#    16  16  16  16
#     4  12  28  54  81 113 160 216 268 334 398 466
#     4  12  25  48  81 118 164 207 255 332 415 483
#     4  12  27  49  79 120 161 208 268 327 405 484
#     4  12  27  49  79 115 158 209 265 332 398 482
#
# _framework density 26.202389
#
# number of rings (size 3 to 8) (size 9 to 14) (size 15 to 20)
#    0.000    0.000    2.500    6.750    0.000    4.000 
#    0.000    2.500    0.000    0.000    0.000    0.000 
#    0.000    0.000    0.000    0.000    0.000    0.000 
#
# Total GULP energy -396779.891937 kJ/mol
# GULP energy per Si atom -12399.371623 kJ/mol
# Density = 2.614275 g / cm^3
# Si number density = 26.202389 Si / 1000 Ang^3
#
#
#
# Elastic Constant Matrix: (Units=GPa)
#
#
# Indices 1 2 3 4 5 6 
#
# 1 180.5646 63.1581 69.6463 0.0000 0.0000 0.0000
# 2 63.1581 154.9623 48.3362 0.0000 0.0000 0.0000
# 3 69.6463 48.3362 84.9358 0.0000 0.0000 0.0000
# 4 0.0000 0.0000 0.0000 21.5214 0.0000 0.0000
# 5 0.0000 0.0000 0.0000 0.0000 44.0397 0.0000
# 6 0.0000 0.0000 0.0000 0.0000 0.0000 25.2144
#
#
#
# Elastic Compliance Matrix: (Units=1/GPa)
#
#
# Indices 1 2 3 4 5 6 
#
# 1 0.008395 -0.001549 -0.006002 0.000000 0.000000 0.000000
# 2 -0.001549 0.008132 -0.003357 0.000000 0.000000 0.000000
# 3 -0.006002 -0.003357 0.018606 0.000000 0.000000 0.000000
# 4 0.000000 0.000000 0.000000 0.046465 0.000000 0.000000
# 5 0.000000 0.000000 0.000000 0.000000 0.022707 0.000000
# 6 0.000000 0.000000 0.000000 0.000000 0.000000 0.039660
#
#
# Mechanical properties :
#
#
# Convention : Reuss Voigt Hill
#
# Bulk Modulus (GPa) = 75.10202 86.97153 81.03678
# Shear Modulus (GPa) = 29.37349 34.10992 31.74170
#
# Velocity S-wave (km/s) = 3.35180 3.61194 3.48430
# Velocity P-wave (km/s) = 6.61089 7.11752 6.86888
#
# Compressibility (1/GPa) = 0.01331522
#
# Stress axis : x y z
#
# Youngs Moduli (GPa) = 119.11418 122.97261 53.74618
#
# Poissons Ratio (x) = 0.19054 0.32260
# Poissons Ratio (y) = 0.18456 0.18044
# Poissons Ratio (z) = 0.71496 0.41285
#
# Static dielectric constant tensor:
#      x y z
#    x 4.812260 0.000000 0.000000 
#    y 0.000000 4.604190 0.000000 
#    z 0.000000 0.000000 5.087920 
# 
# 
# High freq. dielectric constant tensor:
#      x y z
#    x 2.053430 0.000000 0.000000 
#    y 0.000000 2.023200 0.000000 
#    z 0.000000 0.000000 2.076350 
# 
# From -- ./inp_files/4988.got.cif
#   From: 2010.03.12/outbox.cif.g09.slc.cpg/sg68_3_cif.got.tgz:4988.got - 2010.04.10 23:14:56.
