data_PCOD8283502
_publ_section_title
;
Structure prediction by ZEFSAII (Michael W. Deem and Ramdas Pophale) SiO2 
 PCOD8283502
Probable space group: C C C A
;
_chemical_formula_sum "Si O2"
_cell_formula_units_Z 64
_cell_length_a 13.705203
_cell_length_b 17.324624
_cell_length_c 12.216067
_cell_angle_alpha 90.000000
_cell_angle_beta 90.000000
_cell_angle_gamma 90.000000
_cell_volume 2900.552272
_symmetry_space_group_name_H-M "C C C A"
_symmetry_group_IT_number 68
_space_group.IT_coordinate_system_code '2'
_symmetry_cell_setting 'orthorhombic'
loop_
_space_group_symop_operation_xyz
x,y,z
-x,1/2-y,z
x,1/2-y,1/2-z
-x,y,1/2-z
-x,-y,-z
x,1/2+y,-z
-x,1/2+y,1/2+z
x,-y,1/2+z
1/2+x,1/2+y,z
1/2-x,-y,z
1/2+x,-y,1/2-z
1/2-x,1/2+y,1/2-z
1/2-x,1/2-y,-z
1/2+x,y,-z
1/2-x,y,1/2+z
1/2+x,1/2-y,1/2+z
loop_
_atom_site_type_symbol
_atom_site_label
_atom_site_fract_x
_atom_site_fract_y
_atom_site_fract_z
Si Si1 0.438618 0.328109 0.471919
Si Si2 0.213337 0.335949 0.778158
Si Si3 0.601275 0.601333 0.310698
Si Si4 0.928634 0.566468 0.351333
O O1 0.500000 0.250000 0.449957
O O2 0.346618 0.337415 0.390870
O O3 0.396492 0.332988 0.594640
O O4 0.512187 0.400773 0.455477
O O5 0.242377 0.250000 0.750000
O O6 0.314917 0.383881 0.780702
O O7 0.153614 0.371210 0.676994
O O8 0.500000 0.606707 0.250000
O O9 0.616933 0.518291 0.370425
O O10 0.000000 0.559500 0.250000
#
# Coordination Sequence:
#
# PCOD8283502 Si02
#       4
#    16  16  16  16
#     4  11  23  42  72  98 128 179 228 274 333 397
#     4  11  23  41  69  96 130 173 226 272 328 398
#     4  11  26  42  64  99 142 172 215 281 340 398
#     4   9  20  43  68  96 130 174 224 273 328 392
#
# _framework density 22.064764
#
# number of rings (size 3 to 8) (size 9 to 14) (size 15 to 20)
#    0.000    1.500    2.500    1.500    3.500    3.000 
#    0.000    7.500    0.000    0.000    0.000    0.000 
#    0.000    0.000    0.000    0.000    0.000    0.000 
#
# Total GULP energy -396684.000041 kJ/mol
# GULP energy per Si atom -12396.375001 kJ/mol
# Density = 2.201454 g / cm^3
# Si number density = 22.064764 Si / 1000 Ang^3
#
#
#
# Elastic Constant Matrix: (Units=GPa)
#
#
# Indices 1 2 3 4 5 6 
#
# 1 126.7773 59.3674 42.7482 0.0000 0.0000 0.0000
# 2 59.3674 128.0681 31.4373 0.0000 0.0000 0.0000
# 3 42.7482 31.4373 88.8335 0.0000 0.0000 0.0000
# 4 0.0000 0.0000 0.0000 24.8632 0.0000 0.0000
# 5 0.0000 0.0000 0.0000 0.0000 30.2657 0.0000
# 6 0.0000 0.0000 0.0000 0.0000 0.0000 33.8557
#
#
#
# Elastic Compliance Matrix: (Units=1/GPa)
#
#
# Indices 1 2 3 4 5 6 
#
# 1 0.011177 -0.004228 -0.003882 0.000000 0.000000 0.000000
# 2 -0.004228 0.010151 -0.001558 0.000000 0.000000 0.000000
# 3 -0.003882 -0.001558 0.013676 0.000000 0.000000 0.000000
# 4 0.000000 0.000000 0.000000 0.040220 0.000000 0.000000
# 5 0.000000 0.000000 0.000000 0.000000 0.033041 0.000000
# 6 0.000000 0.000000 0.000000 0.000000 0.000000 0.029537
#
#
# Mechanical properties :
#
#
# Convention : Reuss Voigt Hill
#
# Bulk Modulus (GPa) = 63.82395 67.86497 65.84446
# Shear Modulus (GPa) = 30.79566 31.80531 31.30048
#
# Velocity S-wave (km/s) = 3.73995 3.80077 3.77048
# Velocity P-wave (km/s) = 6.90204 7.07708 6.99011
#
# Compressibility (1/GPa) = 0.01566810
#
# Stress axis : x y z
#
# Youngs Moduli (GPa) = 89.47057 98.51528 73.11875
#
# Poissons Ratio (x) = 0.41654 0.28386
# Poissons Ratio (y) = 0.37830 0.11389
# Poissons Ratio (z) = 0.34734 0.15344
#
# Static dielectric constant tensor:
#      x y z
#    x 4.078080 0.000000 0.000000 
#    y 0.000000 4.377780 0.000000 
#    z 0.000000 0.000000 3.637820 
# 
# 
# High freq. dielectric constant tensor:
#      x y z
#    x 1.873390 0.000000 0.000000 
#    y 0.000000 1.880690 0.000000 
#    z 0.000000 0.000000 1.842670 
# 
# From -- ./inp_files/11543.got.cif
#   From: 2010.03.12/outbox.cif.g09.slc.cpg/sg68_6_cif.got.tgz:11543.got - 2010.04.10 23:14:56.
