data_PCOD8283865
_publ_section_title
;
Structure prediction by ZEFSAII (Michael W. Deem and Ramdas Pophale) SiO2 
 PCOD8283865
Probable space group: F M M M
;
_chemical_formula_sum "Si O2"
_cell_formula_units_Z 176
_cell_length_a 13.357719
_cell_length_b 29.807070
_cell_length_c 23.631993
_cell_angle_alpha 90.000000
_cell_angle_beta 90.000000
_cell_angle_gamma 90.000000
_cell_volume 9409.183536
_symmetry_space_group_name_H-M "F M M M"
_symmetry_group_IT_number 69
_symmetry_cell_setting 'orthorhombic'
loop_
_space_group_symop_operation_xyz
x,y,z
-x,-y,z
x,-y,-z
-x,y,-z
-x,-y,-z
x,y,-z
-x,y,z
x,-y,z
x,1/2+y,1/2+z
-x,1/2-y,1/2+z
x,1/2-y,1/2-z
-x,1/2+y,1/2-z
-x,1/2-y,1/2-z
x,1/2+y,1/2-z
-x,1/2+y,1/2+z
x,1/2-y,1/2+z
1/2+x,y,1/2+z
1/2-x,-y,1/2+z
1/2+x,-y,1/2-z
1/2-x,y,1/2-z
1/2-x,-y,1/2-z
1/2+x,y,1/2-z
1/2-x,y,1/2+z
1/2+x,-y,1/2+z
1/2+x,1/2+y,z
1/2-x,1/2-y,z
1/2+x,1/2-y,-z
1/2-x,1/2+y,-z
1/2-x,1/2-y,-z
1/2+x,1/2+y,-z
1/2-x,1/2+y,z
1/2+x,1/2-y,z
loop_
_atom_site_type_symbol
_atom_site_label
_atom_site_fract_x
_atom_site_fract_y
_atom_site_fract_z
Si Si1 0.889320 0.143062 0.681246
Si Si2 0.750000 0.419173 0.750000
Si Si3 0.256890 0.697585 0.886629
Si Si4 0.384502 0.550040 0.153741
Si Si5 0.885022 0.875834 0.936380
Si Si6 0.391167 0.208539 0.281887
O O1 0.808501 0.105960 0.698857
O O2 0.850141 0.175485 0.629956
O O3 0.905394 0.168605 0.739325
O O4 0.000000 0.124656 0.662591
O O5 0.671104 0.447890 0.785866
O O6 0.250000 0.750000 0.905458
O O7 0.314117 0.668322 0.933676
O O8 0.321268 0.691300 0.830599
O O9 0.500000 0.559724 0.166975
O O10 0.369125 0.500000 0.128618
O O11 0.346634 0.585900 0.106910
O O12 0.000000 0.862095 0.923067
O O13 0.876268 0.894992 0.000000
O O14 0.500000 0.223575 0.306192
O O15 0.338969 0.250000 0.250000
#
# Coordination Sequence:
#
# PCOD8283865 Si02
#       6
#    32  16  32  32  32  32
#     4  11  21  30  46  74 111 153 190 221 262 327
#     4  12  19  34  55  82 120 158 173 218 277 350
#     4  12  21  32  52  76 111 148 192 236 284 326
#     4  10  21  37  60  91 120 146 181 229 287 350
#     4  10  22  41  62  83 109 146 193 243 292 339
#     4  10  18  28  44  71 106 143 187 228 267 322
#
# _framework density 18.70513
#
# number of rings (size 3 to 8) (size 9 to 14) (size 15 to 20)
#    0.000    1.273    5.455    1.364    0.000    4.364 
#    0.000    1.818    0.000    0.545    0.000    0.000 
#    0.000    1.455    0.000    0.000    0.000    0.000 
#
# Total GULP energy -545219.548030 kJ/mol
# GULP energy per Si atom -12391.353364 kJ/mol
# Density = 1.866256 g / cm^3
# Si number density = 18.705130 Si / 1000 Ang^3
#
#
#
# Elastic Constant Matrix: (Units=GPa)
#
#
# Indices 1 2 3 4 5 6 
#
# 1 89.3141 30.4051 25.7834 0.0000 0.0000 0.0000
# 2 30.4051 95.8991 29.5915 0.0000 0.0000 0.0000
# 3 25.7834 29.5915 71.0683 0.0000 0.0000 0.0000
# 4 0.0000 0.0000 0.0000 17.3746 0.0000 0.0000
# 5 0.0000 0.0000 0.0000 0.0000 35.1211 0.0000
# 6 0.0000 0.0000 0.0000 0.0000 0.0000 23.5872
#
#
#
# Elastic Compliance Matrix: (Units=1/GPa)
#
#
# Indices 1 2 3 4 5 6 
#
# 1 0.013275 -0.003124 -0.003515 0.000000 0.000000 0.000000
# 2 -0.003124 0.012700 -0.004155 0.000000 0.000000 0.000000
# 3 -0.003515 -0.004155 0.017076 0.000000 0.000000 0.000000
# 4 0.000000 0.000000 0.000000 0.057555 0.000000 0.000000
# 5 0.000000 0.000000 0.000000 0.000000 0.028473 0.000000
# 6 0.000000 0.000000 0.000000 0.000000 0.000000 0.042396
#
#
# Mechanical properties :
#
#
# Convention : Reuss Voigt Hill
#
# Bulk Modulus (GPa) = 46.59167 47.53798 47.06482
# Shear Modulus (GPa) = 24.97284 26.58334 25.77809
#
# Velocity S-wave (km/s) = 3.65784 3.77394 3.71634
# Velocity P-wave (km/s) = 6.54234 6.66782 6.60538
#
# Compressibility (1/GPa) = 0.02146306
#
# Stress axis : x y z
#
# Youngs Moduli (GPa) = 75.33089 78.73926 58.56096
#
# Poissons Ratio (x) = 0.24599 0.20586
# Poissons Ratio (y) = 0.23534 0.24330
# Poissons Ratio (z) = 0.26481 0.32714
#
# Static dielectric constant tensor:
#      x y z
#    x 4.236810 0.000000 0.000000 
#    y 0.000000 3.358500 0.000000 
#    z 0.000000 0.000000 3.071720 
# 
# 
# High freq. dielectric constant tensor:
#      x y z
#    x 1.736260 0.000000 0.000000 
#    y 0.000000 1.714780 0.000000 
#    z 0.000000 0.000000 1.687110 
# 
# From -- ./inp_files/36053.got.cif
#   From: 2010.03.12/outbox.cif.g09.slc.cpg/sg69_19_cif.got.tgz:36053.got - 2010.04.10 23:52:46.
