data_PCOD8283383
_publ_section_title
;
Structure prediction by ZEFSAII (Michael W. Deem and Ramdas Pophale) SiO2 
 PCOD8283383
Probable space group: C C C A
;
_chemical_formula_sum "Si O2"
_cell_formula_units_Z 64
_cell_length_a 12.406938
_cell_length_b 18.793328
_cell_length_c 14.084519
_cell_angle_alpha 90.000000
_cell_angle_beta 90.000000
_cell_angle_gamma 90.000000
_cell_volume 3284.054271
_symmetry_space_group_name_H-M "C C C A"
_symmetry_group_IT_number 68
_space_group.IT_coordinate_system_code '2'
_symmetry_cell_setting 'orthorhombic'
loop_
_space_group_symop_operation_xyz
x,y,z
-x,1/2-y,z
x,1/2-y,1/2-z
-x,y,1/2-z
-x,-y,-z
x,1/2+y,-z
-x,1/2+y,1/2+z
x,-y,1/2+z
1/2+x,1/2+y,z
1/2-x,-y,z
1/2+x,-y,1/2-z
1/2-x,1/2+y,1/2-z
1/2-x,1/2-y,-z
1/2+x,y,-z
1/2-x,y,1/2+z
1/2+x,1/2-y,1/2+z
loop_
_atom_site_type_symbol
_atom_site_label
_atom_site_fract_x
_atom_site_fract_y
_atom_site_fract_z
Si Si1 0.500000 0.250000 0.885287
Si Si2 0.823377 0.818689 0.494076
Si Si3 0.714063 0.419651 0.843328
Si Si4 0.000000 0.133046 0.250000
Si Si5 0.377607 0.169789 0.221643
O O1 0.440129 0.311273 0.822393
O O2 0.428601 0.202348 0.951000
O O3 0.750000 0.750000 0.500000
O O4 0.774145 0.885317 0.551773
O O5 0.856898 0.842314 0.389452
O O6 0.750000 0.500000 0.854341
O O7 0.592644 0.414654 0.799317
O O8 0.797510 0.382122 0.774425
O O9 0.349376 0.250000 0.250000
O O10 0.500000 0.150795 0.250000
#
# Coordination Sequence:
#
# PCOD8283383 Si02
#       5
#     8  16  16   8  16
#     4   9  18  34  61  94 118 162 219 270 311 376
#     4  11  21  38  65  94 126 169 216 265 319 389
#     4  11  25  42  64  95 134 172 217 270 333 390
#     4   9  20  38  62  88 127 172 218 270 325 392
#     4  11  23  41  67  98 129 171 219 274 324 386
#
# _framework density 19.488105999999998
#
# number of rings (size 3 to 8) (size 9 to 14) (size 15 to 20)
#    0.000    1.500    2.500    3.000    5.250    1.000 
#    0.000    1.250    0.000    0.000    0.000    0.000 
#    0.000    0.000    0.000    0.000    0.000    0.000 
#
# Total GULP energy -396518.889737 kJ/mol
# GULP energy per Si atom -12391.215304 kJ/mol
# Density = 1.944375 g / cm^3
# Si number density = 19.488106 Si / 1000 Ang^3
#
#
#
# Elastic Constant Matrix: (Units=GPa)
#
#
# Indices 1 2 3 4 5 6 
#
# 1 85.5688 65.4419 53.9072 0.0000 0.0000 0.0000
# 2 65.4419 148.4350 70.7124 0.0000 0.0000 0.0000
# 3 53.9072 70.7124 177.2998 0.0000 0.0000 0.0000
# 4 0.0000 0.0000 0.0000 35.9215 0.0000 0.0000
# 5 0.0000 0.0000 0.0000 0.0000 29.0009 0.0000
# 6 0.0000 0.0000 0.0000 0.0000 0.0000 30.0921
#
#
#
# Elastic Compliance Matrix: (Units=1/GPa)
#
#
# Indices 1 2 3 4 5 6 
#
# 1 0.018826 -0.006880 -0.002980 0.000000 0.000000 0.000000
# 2 -0.006880 0.010832 -0.002228 0.000000 0.000000 0.000000
# 3 -0.002980 -0.002228 0.007435 0.000000 0.000000 0.000000
# 4 0.000000 0.000000 0.000000 0.027838 0.000000 0.000000
# 5 0.000000 0.000000 0.000000 0.000000 0.034482 0.000000
# 6 0.000000 0.000000 0.000000 0.000000 0.000000 0.033231
#
#
# Mechanical properties :
#
#
# Convention : Reuss Voigt Hill
#
# Bulk Modulus (GPa) = 77.42430 87.93628 82.68029
# Shear Modulus (GPa) = 31.03171 33.75238 32.39204
#
# Velocity S-wave (km/s) = 3.99474 4.16618 4.08136
# Velocity P-wave (km/s) = 7.81617 8.26824 8.04538
#
# Compressibility (1/GPa) = 0.01291584
#
# Stress axis : x y z
#
# Youngs Moduli (GPa) = 53.11880 92.32081 134.50273
#
# Poissons Ratio (x) = 0.63520 0.40079
# Poissons Ratio (y) = 0.36548 0.29969
# Poissons Ratio (z) = 0.15828 0.20570
#
# Static dielectric constant tensor:
#      x y z
#    x 3.523960 0.000000 0.000000 
#    y 0.000000 3.246120 0.000000 
#    z 0.000000 0.000000 3.304820 
# 
# 
# High freq. dielectric constant tensor:
#      x y z
#    x 1.759170 0.000000 0.000000 
#    y 0.000000 1.746900 0.000000 
#    z 0.000000 0.000000 1.778400 
# 
# From -- ./inp_files/14031.got.cif
#   From: 2010.03.12/outbox.cif.g09.slc.cpg/sg68_8_cif.got.tgz:14031.got - 2010.04.10 23:14:56.
