data_PCOD8283060
_publ_section_title
;
Structure prediction by ZEFSAII (Michael W. Deem and Ramdas Pophale) SiO2 
 PCOD8283060
Probable space group: C C C A
;
_chemical_formula_sum "Si O2"
_cell_formula_units_Z 68
_cell_length_a 24.002104
_cell_length_b 4.987228
_cell_length_c 25.500431
_cell_angle_alpha 90.000000
_cell_angle_beta 90.000000
_cell_angle_gamma 90.000000
_cell_volume 3052.502703
_symmetry_space_group_name_H-M "C C C A"
_symmetry_group_IT_number 68
_space_group.IT_coordinate_system_code '2'
_symmetry_cell_setting 'orthorhombic'
loop_
_space_group_symop_operation_xyz
x,y,z
-x,1/2-y,z
x,1/2-y,1/2-z
-x,y,1/2-z
-x,-y,-z
x,1/2+y,-z
-x,1/2+y,1/2+z
x,-y,1/2+z
1/2+x,1/2+y,z
1/2-x,-y,z
1/2+x,-y,1/2-z
1/2-x,1/2+y,1/2-z
1/2-x,1/2-y,-z
1/2+x,y,-z
1/2-x,y,1/2+z
1/2+x,1/2-y,1/2+z
loop_
_atom_site_type_symbol
_atom_site_label
_atom_site_fract_x
_atom_site_fract_y
_atom_site_fract_z
Si Si1 0.572015 0.009138 0.335100
Si Si2 0.610880 0.584312 0.466731
Si Si3 0.141935 0.015529 0.352436
Si Si4 0.000000 0.750000 0.750000
Si Si5 0.750000 0.000000 0.213313
Si Si6 0.500000 0.750000 0.078361
O O1 0.625509 0.814112 0.334904
O O2 0.536632 0.954332 0.283627
O O3 0.534851 0.960225 0.386638
O O4 0.592574 0.315201 0.334542
O O5 0.626589 0.378154 0.512516
O O6 0.647420 0.511867 0.415534
O O7 0.544218 0.577864 0.455398
O O8 0.198704 0.929455 0.324641
O O9 0.735722 0.750000 0.250000
#
# Coordination Sequence:
#
# PCOD8283060 Si02
#       6
#    16  16  16   4   8   8
#     4  10  23  39  63  92 139 172 213 270 323 383
#     4  11  22  38  65  95 131 178 215 261 327 386
#     4  11  25  45  64  96 134 160 227 284 318 392
#     4  10  24  38  64  98 128 190 216 246 342 408
#     4  12  28  48  76  96 120 176 226 280 354 390
#     4   9  20  37  58 100 136 176 217 256 307 402
#
# _framework density 22.276805
#
# number of rings (size 3 to 8) (size 9 to 14) (size 15 to 20)
#    0.000    1.412    0.000    4.941    4.941   13.176 
#    0.000    1.176    0.000    0.000    0.000    0.000 
#    0.000    0.000    0.000    0.000    0.000    0.000 
#
# Total GULP energy -421725.125744 kJ/mol
# GULP energy per Si atom -12403.680169 kJ/mol
# Density = 2.222610 g / cm^3
# Si number density = 22.276805 Si / 1000 Ang^3
#
#
#
# Elastic Constant Matrix: (Units=GPa)
#
#
# Indices 1 2 3 4 5 6 
#
# 1 80.4737 13.2952 43.3220 0.0000 0.0000 0.0000
# 2 13.2952 91.3746 35.7051 0.0000 0.0000 0.0000
# 3 43.3220 35.7051 133.7539 0.0000 0.0000 0.0000
# 4 0.0000 0.0000 0.0000 28.2728 0.0000 0.0000
# 5 0.0000 0.0000 0.0000 0.0000 40.6641 0.0000
# 6 0.0000 0.0000 0.0000 0.0000 0.0000 27.5218
#
#
#
# Elastic Compliance Matrix: (Units=1/GPa)
#
#
# Indices 1 2 3 4 5 6 
#
# 1 0.015059 -0.000318 -0.004793 0.000000 0.000000 0.000000
# 2 -0.000318 0.012225 -0.003160 0.000000 0.000000 0.000000
# 3 -0.004793 -0.003160 0.009872 0.000000 0.000000 0.000000
# 4 0.000000 0.000000 0.000000 0.035370 0.000000 0.000000
# 5 0.000000 0.000000 0.000000 0.000000 0.024592 0.000000
# 6 0.000000 0.000000 0.000000 0.000000 0.000000 0.036335
#
#
# Mechanical properties :
#
#
# Convention : Reuss Voigt Hill
#
# Bulk Modulus (GPa) = 48.51070 54.47185 51.49128
# Shear Modulus (GPa) = 31.87420 33.51040 32.69230
#
# Velocity S-wave (km/s) = 3.78673 3.88270 3.83502
# Velocity P-wave (km/s) = 6.39865 6.67876 6.54020
#
# Compressibility (1/GPa) = 0.02061401
#
# Stress axis : x y z
#
# Youngs Moduli (GPa) = 66.40538 81.79816 101.29327
#
# Poissons Ratio (x) = 0.02605 0.48545
# Poissons Ratio (y) = 0.02114 0.32012
# Poissons Ratio (z) = 0.31825 0.25851
#
# Static dielectric constant tensor:
#      x y z
#    x 3.809100 0.000000 0.000000 
#    y 0.000000 3.900660 0.000000 
#    z 0.000000 0.000000 4.209880 
# 
# 
# High freq. dielectric constant tensor:
#      x y z
#    x 1.842340 0.000000 0.000000 
#    y 0.000000 1.884860 0.000000 
#    z 0.000000 0.000000 1.893800 
# 
# From -- ./inp_files/51656.got.cif
#   From: 2010.03.12/outbox.cif.g09.slc.cpg/sg68_26_cif.got.tgz:51656.got - 2010.04.10 23:14:56.
