data_PCOD8283358
_publ_section_title
;
Structure prediction by ZEFSAII (Michael W. Deem and Ramdas Pophale) SiO2 
 PCOD8283358
Probable space group: C C C A
;
_chemical_formula_sum "Si O2"
_cell_formula_units_Z 96
_cell_length_a 15.761457
_cell_length_b 13.017617
_cell_length_c 20.751434
_cell_angle_alpha 90.000000
_cell_angle_beta 90.000000
_cell_angle_gamma 90.000000
_cell_volume 4257.708893
_symmetry_space_group_name_H-M "C C C A"
_symmetry_group_IT_number 68
_space_group.IT_coordinate_system_code '2'
_symmetry_cell_setting 'orthorhombic'
loop_
_space_group_symop_operation_xyz
x,y,z
-x,1/2-y,z
x,1/2-y,1/2-z
-x,y,1/2-z
-x,-y,-z
x,1/2+y,-z
-x,1/2+y,1/2+z
x,-y,1/2+z
1/2+x,1/2+y,z
1/2-x,-y,z
1/2+x,-y,1/2-z
1/2-x,1/2+y,1/2-z
1/2-x,1/2-y,-z
1/2+x,y,-z
1/2-x,y,1/2+z
1/2+x,1/2-y,1/2+z
loop_
_atom_site_type_symbol
_atom_site_label
_atom_site_fract_x
_atom_site_fract_y
_atom_site_fract_z
Si Si1 0.900142 0.195042 0.439314
Si Si2 0.500000 0.079686 0.250000
Si Si3 0.006911 0.022030 0.387767
Si Si4 0.725363 0.750807 0.619570
Si Si5 0.067933 0.672382 0.449238
Si Si6 0.639494 0.250000 0.250000
Si Si7 0.830442 0.556905 0.446611
O O1 0.820967 0.217879 0.394157
O O2 0.934717 0.301337 0.473453
O O3 0.879005 0.123121 0.500224
O O4 0.969024 0.136811 0.394807
O O5 0.507495 0.009870 0.313601
O O6 0.582378 0.149817 0.239643
O O7 0.956729 0.944660 0.435986
O O8 0.105231 0.019660 0.409612
O O9 0.663732 0.685353 0.573720
O O10 0.702917 0.725688 0.692285
O O11 0.710703 0.870735 0.607649
O O12 0.000000 0.750000 0.413157
O O13 0.750000 0.500000 0.479144
#
# Coordination Sequence:
#
# PCOD8283358 Si02
#       7
#    16   8  16  16  16   8  16
#     4  11  27  38  67 101 142 174 215 285 352 418
#     4  11  22  42  72  94 129 174 242 287 320 404
#     4  12  24  44  68 103 132 185 230 285 343 408
#     4  11  23  42  61 102 134 177 225 280 343 397
#     4  11  20  40  70  96 133 173 230 274 347 400
#     4  11  20  40  72  90 127 178 236 285 322 398
#     4  11  24  41  66  99 134 171 228 283 348 409
#
# _framework density 22.547338
#
# number of rings (size 3 to 8) (size 9 to 14) (size 15 to 20)
#    0.000    0.833    6.667    2.500    4.667    0.000 
#    3.000    0.000    0.000    0.000    0.000    0.000 
#    0.000    0.000    0.000    0.000    0.000    0.000 
#
# Total GULP energy -595046.172777 kJ/mol
# GULP energy per Si atom -12396.795266 kJ/mol
# Density = 2.249602 g / cm^3
# Si number density = 22.547338 Si / 1000 Ang^3
#
#
#
# Elastic Constant Matrix: (Units=GPa)
#
#
# Indices 1 2 3 4 5 6 
#
# 1 129.7923 29.0102 47.9756 0.0000 0.0000 0.0000
# 2 29.0102 67.6882 44.2731 0.0000 0.0000 0.0000
# 3 47.9756 44.2731 135.0661 0.0000 0.0000 0.0000
# 4 0.0000 0.0000 0.0000 31.5858 0.0000 0.0000
# 5 0.0000 0.0000 0.0000 0.0000 37.4144 0.0000
# 6 0.0000 0.0000 0.0000 0.0000 0.0000 35.9679
#
#
#
# Elastic Compliance Matrix: (Units=1/GPa)
#
#
# Indices 1 2 3 4 5 6 
#
# 1 0.009138 -0.002283 -0.002498 0.000000 0.000000 0.000000
# 2 -0.002283 0.019376 -0.005540 0.000000 0.000000 0.000000
# 3 -0.002498 -0.005540 0.010107 0.000000 0.000000 0.000000
# 4 0.000000 0.000000 0.000000 0.031660 0.000000 0.000000
# 5 0.000000 0.000000 0.000000 0.000000 0.026728 0.000000
# 6 0.000000 0.000000 0.000000 0.000000 0.000000 0.027803
#
#
# Mechanical properties :
#
#
# Convention : Reuss Voigt Hill
#
# Bulk Modulus (GPa) = 55.61919 63.89603 59.75761
# Shear Modulus (GPa) = 33.01522 35.07947 34.04734
#
# Velocity S-wave (km/s) = 3.83072 3.94866 3.89014
# Velocity P-wave (km/s) = 6.65486 7.01351 6.83654
#
# Compressibility (1/GPa) = 0.01797941
#
# Stress axis : x y z
#
# Youngs Moduli (GPa) = 109.43267 51.61086 98.94182
#
# Poissons Ratio (x) = 0.11782 0.24711
# Poissons Ratio (y) = 0.24982 0.54817
# Poissons Ratio (z) = 0.27331 0.28594
#
# Static dielectric constant tensor:
#      x y z
#    x 4.326390 0.000000 0.000000 
#    y 0.000000 4.175160 0.000000 
#    z 0.000000 0.000000 3.906720 
# 
# 
# High freq. dielectric constant tensor:
#      x y z
#    x 1.906260 0.000000 0.000000 
#    y 0.000000 1.884870 0.000000 
#    z 0.000000 0.000000 1.865500 
# 
# From -- ./inp_files/38639.got.cif
#   From: 2010.03.12/outbox.cif.g09.slc.cpg/sg68_20_cif.got.tgz:38639.got - 2010.04.10 23:14:56.
