data_PCOD8283260
_publ_section_title
;
Structure prediction by ZEFSAII (Michael W. Deem and Ramdas Pophale) SiO2 
 PCOD8283260
Probable space group: C C C A
;
_chemical_formula_sum "Si O2"
_cell_formula_units_Z 60
_cell_length_a 20.304897
_cell_length_b 4.978632
_cell_length_c 25.533001
_cell_angle_alpha 90.000000
_cell_angle_beta 90.000000
_cell_angle_gamma 90.000000
_cell_volume 2581.146645
_symmetry_space_group_name_H-M "C C C A"
_symmetry_group_IT_number 68
_space_group.IT_coordinate_system_code '2'
_symmetry_cell_setting 'orthorhombic'
loop_
_space_group_symop_operation_xyz
x,y,z
-x,1/2-y,z
x,1/2-y,1/2-z
-x,y,1/2-z
-x,-y,-z
x,1/2+y,-z
-x,1/2+y,1/2+z
x,-y,1/2+z
1/2+x,1/2+y,z
1/2-x,-y,z
1/2+x,-y,1/2-z
1/2-x,1/2+y,1/2-z
1/2-x,1/2-y,-z
1/2+x,y,-z
1/2-x,y,1/2+z
1/2+x,1/2-y,1/2+z
loop_
_atom_site_type_symbol
_atom_site_label
_atom_site_fract_x
_atom_site_fract_y
_atom_site_fract_z
Si Si1 0.000000 0.750000 0.250000
Si Si2 0.250000 0.000000 0.461647
Si Si3 0.500000 0.250000 0.963203
Si Si4 0.896287 0.067149 0.828577
Si Si5 0.791965 0.750000 0.250000
Si Si6 0.882246 0.064478 0.105387
O O1 0.043431 0.943449 0.212670
O O2 0.250000 0.750000 0.500000
O O3 0.314282 0.985016 0.425104
O O4 0.565372 0.272239 0.928961
O O5 0.500000 0.500000 0.000000
O O6 0.832675 0.186694 0.801455
O O7 0.911333 0.276061 0.876226
O O8 0.875728 0.766946 0.845435
O O9 0.750000 0.500000 0.268471
#
# Coordination Sequence:
#
# PCOD8283260 Si02
#       6
#     4   8   8  16   8  16
#     4  10  24  48  68 102 148 180 232 286 364 408
#     4  12  26  46  68  98 140 184 228 296 366 418
#     4  12  24  43  68  97 134 173 226 289 352 408
#     4  11  25  42  69  99 134 183 224 284 337 412
#     4  11  24  41  64  93 138 173 222 272 330 395
#     4  12  25  43  70 101 134 180 237 285 344 431
#
# _framework density 23.245483
#
# number of rings (size 3 to 8) (size 9 to 14) (size 15 to 20)
#    0.000    0.533    0.000    8.000    5.600    4.267 
#    0.000    0.000    0.000    0.000    0.000    0.000 
#    0.000    0.000    0.000    0.000    0.000    0.000 
#
# Total GULP energy -372007.426124 kJ/mol
# GULP energy per Si atom -12400.247537 kJ/mol
# Density = 2.319258 g / cm^3
# Si number density = 23.245483 Si / 1000 Ang^3
#
#
#
# Elastic Constant Matrix: (Units=GPa)
#
#
# Indices 1 2 3 4 5 6 
#
# 1 167.2612 37.7960 61.3278 0.0000 0.0000 0.0000
# 2 37.7960 142.1763 41.3702 0.0000 0.0000 0.0000
# 3 61.3278 41.3702 108.3915 0.0000 0.0000 0.0000
# 4 0.0000 0.0000 0.0000 95.1266 0.0000 0.0000
# 5 0.0000 0.0000 0.0000 0.0000 66.1376 0.0000
# 6 0.0000 0.0000 0.0000 0.0000 0.0000 32.1348
#
#
#
# Elastic Compliance Matrix: (Units=1/GPa)
#
#
# Indices 1 2 3 4 5 6 
#
# 1 0.007638 -0.000870 -0.003990 0.000000 0.000000 0.000000
# 2 -0.000870 0.008011 -0.002566 0.000000 0.000000 0.000000
# 3 -0.003990 -0.002566 0.012462 0.000000 0.000000 0.000000
# 4 0.000000 0.000000 0.000000 0.010512 0.000000 0.000000
# 5 0.000000 0.000000 0.000000 0.000000 0.015120 0.000000
# 6 0.000000 0.000000 0.000000 0.000000 0.000000 0.031119
#
#
# Mechanical properties :
#
#
# Convention : Reuss Voigt Hill
#
# Bulk Modulus (GPa) = 75.40450 77.64634 76.52542
# Shear Modulus (GPa) = 48.01533 57.16880 52.59207
#
# Velocity S-wave (km/s) = 4.54979 4.96456 4.76170
# Velocity P-wave (km/s) = 7.75304 8.14480 7.95133
#
# Compressibility (1/GPa) = 0.01326181
#
# Stress axis : x y z
#
# Youngs Moduli (GPa) = 130.92382 124.82457 80.24116
#
# Poissons Ratio (x) = 0.10854 0.32014
# Poissons Ratio (y) = 0.11385 0.20587
# Poissons Ratio (z) = 0.52235 0.32026
#
# Static dielectric constant tensor:
#      x y z
#    x 4.334370 0.000000 0.000000 
#    y 0.000000 4.203460 0.000000 
#    z 0.000000 0.000000 4.378660 
# 
# 
# High freq. dielectric constant tensor:
#      x y z
#    x 1.929810 0.000000 0.000000 
#    y 0.000000 1.934880 0.000000 
#    z 0.000000 0.000000 1.935930 
# 
# From -- ./inp_files/34994.got.cif
#   From: 2010.03.12/outbox.cif.g09.slc.cpg/sg68_18_cif.got.tgz:34994.got - 2010.04.10 23:14:56.
