data_PCOD8283123
_publ_section_title
;
Structure prediction by ZEFSAII (Michael W. Deem and Ramdas Pophale) SiO2 
 PCOD8283123
Probable space group: C C C A
;
_chemical_formula_sum "Si O2"
_cell_formula_units_Z 112
_cell_length_a 18.135493
_cell_length_b 13.436129
_cell_length_c 21.974397
_cell_angle_alpha 90.000000
_cell_angle_beta 90.000000
_cell_angle_gamma 90.000000
_cell_volume 5354.519411
_symmetry_space_group_name_H-M "C C C A"
_symmetry_group_IT_number 68
_space_group.IT_coordinate_system_code '2'
_symmetry_cell_setting 'orthorhombic'
loop_
_space_group_symop_operation_xyz
x,y,z
-x,1/2-y,z
x,1/2-y,1/2-z
-x,y,1/2-z
-x,-y,-z
x,1/2+y,-z
-x,1/2+y,1/2+z
x,-y,1/2+z
1/2+x,1/2+y,z
1/2-x,-y,z
1/2+x,-y,1/2-z
1/2-x,1/2+y,1/2-z
1/2-x,1/2-y,-z
1/2+x,y,-z
1/2-x,y,1/2+z
1/2+x,1/2-y,1/2+z
loop_
_atom_site_type_symbol
_atom_site_label
_atom_site_fract_x
_atom_site_fract_y
_atom_site_fract_z
Si Si1 0.812648 0.262675 0.451523
Si Si2 0.065279 0.876177 0.016389
Si Si3 0.214909 0.598210 0.773729
Si Si4 0.072855 0.197307 0.650121
Si Si5 0.937526 0.479137 0.199114
Si Si6 0.070086 0.906555 0.565318
Si Si7 0.770726 0.710118 0.335488
O O1 0.750000 0.250000 0.500000
O O2 0.868766 0.344574 0.473738
O O3 0.855470 0.159663 0.435053
O O4 0.767608 0.315915 0.398090
O O5 0.061636 0.813231 0.078038
O O6 0.084402 0.989157 0.032615
O O7 0.992068 0.855232 0.976463
O O8 0.250000 0.500000 0.803909
O O9 0.128052 0.580175 0.768092
O O10 0.254157 0.618314 0.709046
O O11 0.228495 0.690501 0.816607
O O12 0.141724 0.270399 0.662056
O O13 0.000000 0.250000 0.677218
O O14 0.085160 0.092867 0.684342
O O15 0.957910 0.424412 0.135075
O O16 0.000000 0.474913 0.250000
#
# Coordination Sequence:
#
# PCOD8283123 Si02
#       7
#    16  16  16  16  16  16  16
#     4  12  23  41  68  99 130 171 224 266 334 406
#     4  10  23  43  66  97 132 173 214 278 333 391
#     4  11  24  47  66  92 137 174 224 279 333 390
#     4  11  23  42  69  98 131 169 224 280 334 392
#     4  11  25  42  68  99 129 178 225 268 336 409
#     4  10  23  45  68  93 135 175 217 274 336 395
#     4  11  25  43  68  99 131 179 221 280 335 392
#
# _framework density 20.916909
#
# number of rings (size 3 to 8) (size 9 to 14) (size 15 to 20)
#    0.000    1.143    4.286    1.286    4.000    0.857 
#    2.571    1.429    0.000    0.000    0.000    0.000 
#    0.000    0.000    0.000    0.000    0.000    0.000 
#
# Total GULP energy -694188.838507 kJ/mol
# GULP energy per Si atom -12396.229259 kJ/mol
# Density = 2.086930 g / cm^3
# Si number density = 20.916909 Si / 1000 Ang^3
#
#
#
# Elastic Constant Matrix: (Units=GPa)
#
#
# Indices 1 2 3 4 5 6 
#
# 1 143.9529 31.1544 44.8084 0.0000 0.0000 0.0000
# 2 31.1544 55.5359 20.5156 0.0000 0.0000 0.0000
# 3 44.8084 20.5156 115.9592 0.0000 0.0000 0.0000
# 4 0.0000 0.0000 0.0000 23.2666 0.0000 0.0000
# 5 0.0000 0.0000 0.0000 0.0000 17.2081 0.0000
# 6 0.0000 0.0000 0.0000 0.0000 0.0000 35.5635
#
#
#
# Elastic Compliance Matrix: (Units=1/GPa)
#
#
# Indices 1 2 3 4 5 6 
#
# 1 0.008603 -0.003849 -0.002643 0.000000 0.000000 0.000000
# 2 -0.003849 0.020988 -0.002226 0.000000 0.000000 0.000000
# 3 -0.002643 -0.002226 0.010039 0.000000 0.000000 0.000000
# 4 0.000000 0.000000 0.000000 0.042980 0.000000 0.000000
# 5 0.000000 0.000000 0.000000 0.000000 0.058112 0.000000
# 6 0.000000 0.000000 0.000000 0.000000 0.000000 0.028119
#
#
# Mechanical properties :
#
#
# Convention : Reuss Voigt Hill
#
# Bulk Modulus (GPa) = 45.05959 56.48944 50.77451
# Shear Modulus (GPa) = 25.81650 29.80561 27.81105
#
# Velocity S-wave (km/s) = 3.51699 3.77895 3.65032
# Velocity P-wave (km/s) = 6.17100 6.79013 6.48795
#
# Compressibility (1/GPa) = 0.02219284
#
# Stress axis : x y z
#
# Youngs Moduli (GPa) = 116.24474 47.64623 99.61314
#
# Poissons Ratio (x) = 0.18341 0.26329
# Poissons Ratio (y) = 0.44748 0.22171
# Poissons Ratio (z) = 0.30725 0.10605
#
# Static dielectric constant tensor:
#      x y z
#    x 3.835140 0.000000 0.000000 
#    y 0.000000 3.857250 0.000000 
#    z 0.000000 0.000000 3.882630 
# 
# 
# High freq. dielectric constant tensor:
#      x y z
#    x 1.827330 0.000000 0.000000 
#    y 0.000000 1.817480 0.000000 
#    z 0.000000 0.000000 1.829600 
# 
# From -- ./inp_files/45516.got.cif
#   From: 2010.03.12/outbox.cif.g09.slc.cpg/sg68_23_cif.got.tgz:45516.got - 2010.04.10 23:14:56.
