data_PCOD8283366
_publ_section_title
;
Structure prediction by ZEFSAII (Michael W. Deem and Ramdas Pophale) SiO2 
 PCOD8283366
Probable space group: C C C A
;
_chemical_formula_sum "Si O2"
_cell_formula_units_Z 72
_cell_length_a 9.736774
_cell_length_b 18.450604
_cell_length_c 18.590337
_cell_angle_alpha 90.000000
_cell_angle_beta 90.000000
_cell_angle_gamma 90.000000
_cell_volume 3339.742169
_symmetry_space_group_name_H-M "C C C A"
_symmetry_group_IT_number 68
_space_group.IT_coordinate_system_code '2'
_symmetry_cell_setting 'orthorhombic'
loop_
_space_group_symop_operation_xyz
x,y,z
-x,1/2-y,z
x,1/2-y,1/2-z
-x,y,1/2-z
-x,-y,-z
x,1/2+y,-z
-x,1/2+y,1/2+z
x,-y,1/2+z
1/2+x,1/2+y,z
1/2-x,-y,z
1/2+x,-y,1/2-z
1/2-x,1/2+y,1/2-z
1/2-x,1/2-y,-z
1/2+x,y,-z
1/2-x,y,1/2+z
1/2+x,1/2-y,1/2+z
loop_
_atom_site_type_symbol
_atom_site_label
_atom_site_fract_x
_atom_site_fract_y
_atom_site_fract_z
Si Si1 0.132594 0.627992 0.209282
Si Si2 0.931546 0.568052 0.588535
Si Si3 0.425197 0.173606 0.816686
Si Si4 0.872962 0.055367 0.564809
Si Si5 0.750000 0.000000 0.796733
O O1 0.266221 0.680571 0.208490
O O2 0.108908 0.617218 0.124449
O O3 0.154265 0.548855 0.245566
O O4 0.000000 0.663883 0.250000
O O5 0.859720 0.594195 0.513831
O O6 0.825478 0.559369 0.653608
O O7 0.052612 0.623891 0.612515
O O8 0.986012 0.488704 0.570026
O O9 0.500000 0.250000 0.830417
O O10 0.500000 0.133937 0.750000
O O11 0.750000 0.000000 0.580661
#
# Coordination Sequence:
#
# PCOD8283366 Si02
#       5
#    16  16  16  16   8
#     4  12  23  38  64  99 130 168 220 278 330 384
#     4  11  22  37  60  96 137 172 212 267 337 391
#     4  11  24  44  66  89 126 183 229 264 318 401
#     4  11  21  34  60 100 138 165 209 277 335 385
#     4  12  20  32  62 100 128 170 212 268 346 390
#
# _framework density 21.55855
#
# number of rings (size 3 to 8) (size 9 to 14) (size 15 to 20)
#    0.000    0.667    8.889    0.000    0.000    0.000 
#    0.000    3.333    0.000    0.000    0.000    0.000 
#    0.000    0.000    0.000    0.000    0.000    0.000 
#
# Total GULP energy -446034.469495 kJ/mol
# GULP energy per Si atom -12389.846375 kJ/mol
# Density = 2.150948 g / cm^3
# Si number density = 21.558550 Si / 1000 Ang^3
#
#
#
# Elastic Constant Matrix: (Units=GPa)
#
#
# Indices 1 2 3 4 5 6 
#
# 1 125.7195 30.6823 36.3981 0.0000 0.0000 0.0000
# 2 30.6823 58.5004 33.5844 0.0000 0.0000 0.0000
# 3 36.3981 33.5844 133.3188 0.0000 0.0000 0.0000
# 4 0.0000 0.0000 0.0000 17.5715 0.0000 0.0000
# 5 0.0000 0.0000 0.0000 0.0000 34.4591 0.0000
# 6 0.0000 0.0000 0.0000 0.0000 0.0000 25.3635
#
#
#
# Elastic Compliance Matrix: (Units=1/GPa)
#
#
# Indices 1 2 3 4 5 6 
#
# 1 0.009387 -0.004036 -0.001546 0.000000 0.000000 0.000000
# 2 -0.004036 0.021719 -0.004369 0.000000 0.000000 0.000000
# 3 -0.001546 -0.004369 0.009024 0.000000 0.000000 0.000000
# 4 0.000000 0.000000 0.000000 0.056910 0.000000 0.000000
# 5 0.000000 0.000000 0.000000 0.000000 0.029020 0.000000
# 6 0.000000 0.000000 0.000000 0.000000 0.000000 0.039427
#
#
# Mechanical properties :
#
#
# Convention : Reuss Voigt Hill
#
# Bulk Modulus (GPa) = 49.43875 57.65203 53.54539
# Shear Modulus (GPa) = 26.02395 29.93710 27.98052
#
# Velocity S-wave (km/s) = 3.47815 3.73049 3.60653
# Velocity P-wave (km/s) = 6.25397 6.73465 6.49876
#
# Compressibility (1/GPa) = 0.02022705
#
# Stress axis : x y z
#
# Youngs Moduli (GPa) = 106.53335 46.04286 110.82002
#
# Poissons Ratio (x) = 0.18581 0.17134
# Poissons Ratio (y) = 0.42992 0.48422
# Poissons Ratio (z) = 0.16471 0.20118
#
# Static dielectric constant tensor:
#      x y z
#    x 3.989550 0.000000 0.000000 
#    y 0.000000 3.205320 0.000000 
#    z 0.000000 0.000000 4.374760 
# 
# 
# High freq. dielectric constant tensor:
#      x y z
#    x 1.851540 0.000000 0.000000 
#    y 0.000000 1.786080 0.000000 
#    z 0.000000 0.000000 1.866450 
# 
# From -- ./inp_files/36045.got.cif
#   From: 2010.03.12/outbox.cif.g09.slc.cpg/sg68_19_cif.got.tgz:36045.got - 2010.04.10 23:14:56.
