data_PCOD8283209
_publ_section_title
;
Structure prediction by ZEFSAII (Michael W. Deem and Ramdas Pophale) SiO2 
 PCOD8283209
Probable space group: C C C A
;
_chemical_formula_sum "Si O2"
_cell_formula_units_Z 92
_cell_length_a 23.270122
_cell_length_b 8.638379
_cell_length_c 22.332436
_cell_angle_alpha 90.000000
_cell_angle_beta 90.000000
_cell_angle_gamma 90.000000
_cell_volume 4489.179930
_symmetry_space_group_name_H-M "C C C A"
_symmetry_group_IT_number 68
_space_group.IT_coordinate_system_code '2'
_symmetry_cell_setting 'orthorhombic'
loop_
_space_group_symop_operation_xyz
x,y,z
-x,1/2-y,z
x,1/2-y,1/2-z
-x,y,1/2-z
-x,-y,-z
x,1/2+y,-z
-x,1/2+y,1/2+z
x,-y,1/2+z
1/2+x,1/2+y,z
1/2-x,-y,z
1/2+x,-y,1/2-z
1/2-x,1/2+y,1/2-z
1/2-x,1/2-y,-z
1/2+x,y,-z
1/2-x,y,1/2+z
1/2+x,1/2-y,1/2+z
loop_
_atom_site_type_symbol
_atom_site_label
_atom_site_fract_x
_atom_site_fract_y
_atom_site_fract_z
Si Si1 0.807364 0.585409 0.668776
Si Si2 0.437595 0.788809 0.958370
Si Si3 0.094055 0.050394 0.072514
Si Si4 0.000000 0.750000 0.250000
Si Si5 0.567949 0.032232 0.161325
Si Si6 0.500000 0.250000 0.635214
Si Si7 0.810945 0.058682 0.197956
O O1 0.750000 0.500000 0.644880
O O2 0.853932 0.572427 0.617286
O O3 0.823804 0.510254 0.732856
O O4 0.802361 0.763178 0.684346
O O5 0.500000 0.750000 0.986760
O O6 0.409261 0.633179 0.934406
O O7 0.447808 0.908903 0.904620
O O8 0.396312 0.867628 0.008079
O O9 0.036358 0.125889 0.097907
O O10 0.957971 0.853462 0.210289
O O11 0.542633 0.859180 0.173905
O O12 0.636902 0.021098 0.162615
O O13 0.750000 0.000000 0.174773
#
# Coordination Sequence:
#
# PCOD8283209 Si02
#       7
#    16  16  16   4  16   8  16
#     4  10  24  45  66  99 128 173 225 277 338 403
#     4  12  24  42  63  97 135 181 221 277 340 410
#     4  12  24  42  68  95 131 179 225 279 337 410
#     4  12  28  40  64 108 146 178 216 284 344 402
#     4  12  26  42  67 103 141 176 226 276 342 407
#     4  12  22  42  68  98 137 171 224 278 336 408
#     4  10  24  43  71  95 132 178 220 277 340 408
#
# _framework density 20.49372
#
# number of rings (size 3 to 8) (size 9 to 14) (size 15 to 20)
#    0.000    0.696    5.217    1.565    7.304    1.739 
#    0.000    1.739    0.000    0.000    0.000    0.000 
#    0.000    0.000    0.000    0.000    0.000    0.000 
#
# Total GULP energy -570149.940218 kJ/mol
# GULP energy per Si atom -12394.563918 kJ/mol
# Density = 2.044708 g / cm^3
# Si number density = 20.493720 Si / 1000 Ang^3
#
#
#
# Elastic Constant Matrix: (Units=GPa)
#
#
# Indices 1 2 3 4 5 6 
#
# 1 139.5954 53.8276 54.7760 0.0000 0.0000 0.0000
# 2 53.8276 108.7267 39.6569 0.0000 0.0000 0.0000
# 3 54.7760 39.6569 90.9229 0.0000 0.0000 0.0000
# 4 0.0000 0.0000 0.0000 27.0883 0.0000 0.0000
# 5 0.0000 0.0000 0.0000 0.0000 45.3088 0.0000
# 6 0.0000 0.0000 0.0000 0.0000 0.0000 34.5161
#
#
#
# Elastic Compliance Matrix: (Units=1/GPa)
#
#
# Indices 1 2 3 4 5 6 
#
# 1 0.010331 -0.003383 -0.004749 0.000000 0.000000 0.000000
# 2 -0.003383 0.012045 -0.003216 0.000000 0.000000 0.000000
# 3 -0.004749 -0.003216 0.015262 0.000000 0.000000 0.000000
# 4 0.000000 0.000000 0.000000 0.036916 0.000000 0.000000
# 5 0.000000 0.000000 0.000000 0.000000 0.022071 0.000000
# 6 0.000000 0.000000 0.000000 0.000000 0.000000 0.028972
#
#
# Mechanical properties :
#
#
# Convention : Reuss Voigt Hill
#
# Bulk Modulus (GPa) = 66.91678 70.64067 68.77873
# Shear Modulus (GPa) = 32.62175 34.11493 33.36834
#
# Velocity S-wave (km/s) = 3.99406 4.08444 4.03950
# Velocity P-wave (km/s) = 7.34801 7.53577 7.44248
#
# Compressibility (1/GPa) = 0.01494393
#
# Stress axis : x y z
#
# Youngs Moduli (GPa) = 96.79388 83.02249 65.52388
#
# Poissons Ratio (x) = 0.28084 0.31115
# Poissons Ratio (y) = 0.32743 0.21070
# Poissons Ratio (z) = 0.45963 0.26697
#
# Static dielectric constant tensor:
#      x y z
#    x 3.668010 0.000000 0.000000 
#    y 0.000000 3.718400 0.000000 
#    z 0.000000 0.000000 3.758600 
# 
# 
# High freq. dielectric constant tensor:
#      x y z
#    x 1.792180 0.000000 0.000000 
#    y 0.000000 1.822880 0.000000 
#    z 0.000000 0.000000 1.795530 
# 
# From -- ./inp_files/46970.got.cif
#   From: 2010.03.12/outbox.cif.g09.slc.cpg/sg68_24_cif.got.tgz:46970.got - 2010.04.10 23:14:56.
