data_PCOD8283296
_publ_section_title
;
Structure prediction by ZEFSAII (Michael W. Deem and Ramdas Pophale) SiO2 
 PCOD8283296
Probable space group: C C C A
;
_chemical_formula_sum "Si O2"
_cell_formula_units_Z 64
_cell_length_a 9.123048
_cell_length_b 20.818455
_cell_length_c 14.756163
_cell_angle_alpha 90.000000
_cell_angle_beta 90.000000
_cell_angle_gamma 90.000000
_cell_volume 2802.605048
_symmetry_space_group_name_H-M "C C C A"
_symmetry_group_IT_number 68
_space_group.IT_coordinate_system_code '2'
_symmetry_cell_setting 'orthorhombic'
loop_
_space_group_symop_operation_xyz
x,y,z
-x,1/2-y,z
x,1/2-y,1/2-z
-x,y,1/2-z
-x,-y,-z
x,1/2+y,-z
-x,1/2+y,1/2+z
x,-y,1/2+z
1/2+x,1/2+y,z
1/2-x,-y,z
1/2+x,-y,1/2-z
1/2-x,1/2+y,1/2-z
1/2-x,1/2-y,-z
1/2+x,y,-z
1/2-x,y,1/2+z
1/2+x,1/2-y,1/2+z
loop_
_atom_site_type_symbol
_atom_site_label
_atom_site_fract_x
_atom_site_fract_y
_atom_site_fract_z
Si Si1 0.250000 0.500000 0.356364
Si Si2 0.795265 0.817801 0.719895
Si Si3 0.821326 0.132443 0.906106
Si Si4 0.000000 0.573340 0.750000
Si Si5 0.396529 0.190415 0.453445
O O1 0.210035 0.557840 0.422462
O O2 0.388358 0.525143 0.298103
O O3 0.869695 0.750000 0.750000
O O4 0.699454 0.848557 0.801217
O O5 0.910960 0.873701 0.687608
O O6 0.691048 0.797302 0.638253
O O7 0.990000 0.133303 0.936407
O O8 0.714855 0.177471 0.965137
O O9 0.500000 0.250000 0.478862
#
# Coordination Sequence:
#
# PCOD8283296 Si02
#       5
#     8  16  16   8  16
#     4  10  26  48  70 106 148 194 252 288 368 430
#     4  11  24  45  76 104 143 191 242 298 375 421
#     4  11  27  45  71 107 147 190 249 294 361 434
#     4  10  25  44  74 106 143 192 248 302 346 448
#     4  12  26  46  74 108 147 190 243 305 364 437
#
# _framework density 22.835898
#
# number of rings (size 3 to 8) (size 9 to 14) (size 15 to 20)
#    0.000    1.000    2.500    1.875   14.000    1.000 
#    0.000    0.000    0.000    0.000    0.000    0.000 
#    0.000    0.000    0.000    0.000    0.000    0.000 
#
# Total GULP energy -396420.753355 kJ/mol
# GULP energy per Si atom -12388.148542 kJ/mol
# Density = 2.278392 g / cm^3
# Si number density = 22.835898 Si / 1000 Ang^3
#
#
#
# Elastic Constant Matrix: (Units=GPa)
#
#
# Indices 1 2 3 4 5 6 
#
# 1 136.3867 36.9359 38.4392 0.0000 0.0000 0.0000
# 2 36.9359 130.9944 41.9671 0.0000 0.0000 0.0000
# 3 38.4392 41.9671 84.2271 0.0000 0.0000 0.0000
# 4 0.0000 0.0000 0.0000 7.0654 0.0000 0.0000
# 5 0.0000 0.0000 0.0000 0.0000 14.1429 0.0000
# 6 0.0000 0.0000 0.0000 0.0000 0.0000 40.7988
#
#
#
# Elastic Compliance Matrix: (Units=1/GPa)
#
#
# Indices 1 2 3 4 5 6 
#
# 1 0.008623 -0.001393 -0.003241 0.000000 0.000000 0.000000
# 2 -0.001393 0.009309 -0.004003 0.000000 0.000000 0.000000
# 3 -0.003241 -0.004003 0.015346 0.000000 0.000000 0.000000
# 4 0.000000 0.000000 0.000000 0.141535 0.000000 0.000000
# 5 0.000000 0.000000 0.000000 0.000000 0.070707 0.000000
# 6 0.000000 0.000000 0.000000 0.000000 0.000000 0.024511
#
#
# Mechanical properties :
#
#
# Convention : Reuss Voigt Hill
#
# Bulk Modulus (GPa) = 62.48227 65.14361 63.81294
# Shear Modulus (GPa) = 17.08591 28.01915 22.55253
#
# Velocity S-wave (km/s) = 2.73830 3.50663 3.14601
# Velocity P-wave (km/s) = 6.11707 6.70701 6.41882
#
# Compressibility (1/GPa) = 0.01600454
#
# Stress axis : x y z
#
# Youngs Moduli (GPa) = 115.97130 107.42293 65.16264
#
# Poissons Ratio (x) = 0.14963 0.21121
# Poissons Ratio (y) = 0.16154 0.26082
# Poissons Ratio (z) = 0.37589 0.42997
#
# Static dielectric constant tensor:
#      x y z
#    x 4.619540 0.000000 0.000000 
#    y 0.000000 4.548010 0.000000 
#    z 0.000000 0.000000 3.782480 
# 
# 
# High freq. dielectric constant tensor:
#      x y z
#    x 1.920720 0.000000 0.000000 
#    y 0.000000 1.920250 0.000000 
#    z 0.000000 0.000000 1.872410 
# 
# From -- ./inp_files/19308.got.cif
#   From: 2010.03.12/outbox.cif.g09.slc.cpg/sg68_10_cif.got.tgz:19308.got - 2010.04.10 23:14:56.
