data_PCOD8283960
_publ_section_title
;
Structure prediction by ZEFSAII (Michael W. Deem and Ramdas Pophale) SiO2 
 PCOD8283960
Probable space group: F M M M
;
_chemical_formula_sum "Si O2"
_cell_formula_units_Z 144
_cell_length_a 28.431506
_cell_length_b 18.755376
_cell_length_c 13.400949
_cell_angle_alpha 90.000000
_cell_angle_beta 90.000000
_cell_angle_gamma 90.000000
_cell_volume 7145.970091
_symmetry_space_group_name_H-M "F M M M"
_symmetry_group_IT_number 69
_symmetry_cell_setting 'orthorhombic'
loop_
_space_group_symop_operation_xyz
x,y,z
-x,-y,z
x,-y,-z
-x,y,-z
-x,-y,-z
x,y,-z
-x,y,z
x,-y,z
x,1/2+y,1/2+z
-x,1/2-y,1/2+z
x,1/2-y,1/2-z
-x,1/2+y,1/2-z
-x,1/2-y,1/2-z
x,1/2+y,1/2-z
-x,1/2+y,1/2+z
x,1/2-y,1/2+z
1/2+x,y,1/2+z
1/2-x,-y,1/2+z
1/2+x,-y,1/2-z
1/2-x,y,1/2-z
1/2-x,-y,1/2-z
1/2+x,y,1/2-z
1/2-x,y,1/2+z
1/2+x,-y,1/2+z
1/2+x,1/2+y,z
1/2-x,1/2-y,z
1/2+x,1/2-y,-z
1/2-x,1/2+y,-z
1/2-x,1/2-y,-z
1/2+x,1/2+y,-z
1/2-x,1/2+y,z
1/2+x,1/2-y,z
loop_
_atom_site_type_symbol
_atom_site_label
_atom_site_fract_x
_atom_site_fract_y
_atom_site_fract_z
Si Si1 0.444749 0.000000 0.614605
Si Si2 0.613683 0.709203 0.386098
Si Si3 0.280729 0.187526 0.117071
Si Si4 0.392887 0.138113 0.693221
Si Si5 0.297496 0.082485 0.383714
O O1 0.424260 0.928286 0.661303
O O2 0.500000 0.000000 0.630956
O O3 0.429790 0.000000 0.500000
O O4 0.604383 0.684136 0.500000
O O5 0.666417 0.695296 0.345403
O O6 0.598767 0.791884 0.375796
O O7 0.588377 0.657946 0.305288
O O8 0.250000 0.250000 0.165888
O O9 0.253904 0.114036 0.144774
O O10 0.283907 0.198140 0.000000
O O11 0.337890 0.117388 0.684071
O O12 0.309336 0.098074 0.500000
O O13 0.294853 0.000000 0.360105
#
# Coordination Sequence:
#
# PCOD8283960 Si02
#       5
#    16  32  32  32  32
#     4  11  24  44  71  98 119 137 176 248 317 367
#     4  10  21  37  56  84 124 164 202 242 283 341
#     4   9  16  29  49  75 114 162 205 245 283 322
#     4  11  21  36  62  90 113 153 199 242 302 358
#     4  10  18  30  51  79 114 153 199 254 295 333
#
# _framework density 20.151216999999999
#
# number of rings (size 3 to 8) (size 9 to 14) (size 15 to 20)
#    0.000    1.889    3.333    2.000    0.000    0.889 
#    2.000    3.889    0.000    2.667    0.000    0.000 
#    0.000    0.000    0.000    0.000    0.000    0.000 
#
# Total GULP energy -446068.186400 kJ/mol
# GULP energy per Si atom -12390.782956 kJ/mol
# Density = 2.010535 g / cm^3
# Si number density = 20.151217 Si / 1000 Ang^3
#
#
#
# Elastic Constant Matrix: (Units=GPa)
#
#
# Indices 1 2 3 4 5 6 
#
# 1 36.8279 33.3512 24.5992 0.0000 0.0000 0.0000
# 2 33.3512 152.1718 62.7823 0.0000 0.0000 0.0000
# 3 24.5992 62.7823 116.7274 0.0000 0.0000 0.0000
# 4 0.0000 0.0000 0.0000 23.8904 0.0000 0.0000
# 5 0.0000 0.0000 0.0000 0.0000 66.5189 0.0000
# 6 0.0000 0.0000 0.0000 0.0000 0.0000 11.7920
#
#
#
# Elastic Compliance Matrix: (Units=1/GPa)
#
#
# Indices 1 2 3 4 5 6 
#
# 1 0.035430 -0.006021 -0.004228 0.000000 0.000000 0.000000
# 2 -0.006021 0.009469 -0.003824 0.000000 0.000000 0.000000
# 3 -0.004228 -0.003824 0.011515 0.000000 0.000000 0.000000
# 4 0.000000 0.000000 0.000000 0.041858 0.000000 0.000000
# 5 0.000000 0.000000 0.000000 0.000000 0.015033 0.000000
# 6 0.000000 0.000000 0.000000 0.000000 0.000000 0.084803
#
#
# Mechanical properties :
#
#
# Convention : Reuss Voigt Hill
#
# Bulk Modulus (GPa) = 35.37626 60.79917 48.08772
# Shear Modulus (GPa) = 21.21556 32.77324 26.99440
#
# Velocity S-wave (km/s) = 3.24824 4.03720 3.66401
# Velocity P-wave (km/s) = 5.62686 7.20895 6.46647
#
# Compressibility (1/GPa) = 0.02826754
#
# Stress axis : x y z
#
# Youngs Moduli (GPa) = 28.22483 105.61075 86.84481
#
# Poissons Ratio (x) = 0.63584 0.36720
# Poissons Ratio (y) = 0.16993 0.33210
# Poissons Ratio (z) = 0.11934 0.40386
#
# Static dielectric constant tensor:
#      x y z
#    x 3.351260 0.000000 0.000000 
#    y 0.000000 3.700830 0.000000 
#    z 0.000000 0.000000 3.682560 
# 
# 
# High freq. dielectric constant tensor:
#      x y z
#    x 1.738550 0.000000 0.000000 
#    y 0.000000 1.791130 0.000000 
#    z 0.000000 0.000000 1.802310 
# 
# From -- ./inp_files/19473.got.cif
#   From: 2010.03.12/outbox.cif.g09.slc.cpg/sg69_10_cif.got.tgz:19473.got - 2010.04.10 23:52:46.
