data_PCOD8283978
_publ_section_title
;
Structure prediction by ZEFSAII (Michael W. Deem and Ramdas Pophale) SiO2 
 PCOD8283978
Probable space group: F M M M
;
_chemical_formula_sum "Si O2"
_cell_formula_units_Z 160
_cell_length_a 25.060429
_cell_length_b 21.064878
_cell_length_c 17.301927
_cell_angle_alpha 90.000000
_cell_angle_beta 90.000000
_cell_angle_gamma 90.000000
_cell_volume 9133.598669
_symmetry_space_group_name_H-M "F M M M"
_symmetry_group_IT_number 69
_symmetry_cell_setting 'orthorhombic'
loop_
_space_group_symop_operation_xyz
x,y,z
-x,-y,z
x,-y,-z
-x,y,-z
-x,-y,-z
x,y,-z
-x,y,z
x,-y,z
x,1/2+y,1/2+z
-x,1/2-y,1/2+z
x,1/2-y,1/2-z
-x,1/2+y,1/2-z
-x,1/2-y,1/2-z
x,1/2+y,1/2-z
-x,1/2+y,1/2+z
x,1/2-y,1/2+z
1/2+x,y,1/2+z
1/2-x,-y,1/2+z
1/2+x,-y,1/2-z
1/2-x,y,1/2-z
1/2-x,-y,1/2-z
1/2+x,y,1/2-z
1/2-x,y,1/2+z
1/2+x,-y,1/2+z
1/2+x,1/2+y,z
1/2-x,1/2-y,z
1/2+x,1/2-y,-z
1/2-x,1/2+y,-z
1/2-x,1/2-y,-z
1/2+x,1/2+y,-z
1/2-x,1/2+y,z
1/2+x,1/2-y,z
loop_
_atom_site_type_symbol
_atom_site_label
_atom_site_fract_x
_atom_site_fract_y
_atom_site_fract_z
Si Si1 0.276871 0.930395 0.908239
Si Si2 0.000000 0.735665 0.586164
Si Si3 0.386911 0.878787 0.092259
Si Si4 0.287517 0.190831 0.591477
Si Si5 0.500000 0.886826 0.914748
Si Si6 0.890695 0.741606 0.340765
O O1 0.337824 0.921424 0.878733
O O2 0.239265 0.874309 0.877180
O O3 0.256972 0.000000 0.879948
O O4 0.277426 0.926631 0.000000
O O5 0.052973 0.712421 0.630867
O O6 0.000000 0.706370 0.500000
O O7 0.000000 0.811100 0.581422
O O8 0.443757 0.906428 0.126291
O O9 0.376454 0.807544 0.118832
O O10 0.391343 0.876915 0.000000
O O11 0.297467 0.189431 0.500000
O O12 0.250000 0.250000 0.614255
O O13 0.343663 0.193616 0.635642
O O14 0.500000 0.917085 0.000000
O O15 0.893385 0.750000 0.250000
#
# Coordination Sequence:
#
# PCOD8283978 Si02
#       6
#    32  16  32  32  16  32
#     4   9  17  29  47  69  93 124 169 217 249 283
#     4   9  17  31  49  70  99 130 160 194 246 298
#     4   9  15  28  45  64  92 128 165 199 246 297
#     4  10  18  31  50  70  94 131 172 204 243 292
#     4   7  12  21  40  63  85 116 151 189 229 284
#     4  11  20  29  46  74 103 127 160 204 247 292
#
# _framework density 17.51774
#
# number of rings (size 3 to 8) (size 9 to 14) (size 15 to 20)
#    0.000    2.600    2.000    3.300    0.000    0.400 
#    0.000    0.500    0.000    5.400    0.000    0.700 
#    0.000    7.200    0.000    0.000    0.000    0.000 
#
# Total GULP energy -495612.263814 kJ/mol
# GULP energy per Si atom -12390.306595 kJ/mol
# Density = 1.747787 g / cm^3
# Si number density = 17.517740 Si / 1000 Ang^3
#
#
#
# Elastic Constant Matrix: (Units=GPa)
#
#
# Indices 1 2 3 4 5 6 
#
# 1 173.2941 63.9380 49.0252 0.0000 0.0000 0.0000
# 2 63.9380 93.4197 11.7707 0.0000 0.0000 0.0000
# 3 49.0252 11.7707 48.3116 0.0000 0.0000 0.0000
# 4 0.0000 0.0000 0.0000 4.2218 0.0000 0.0000
# 5 0.0000 0.0000 0.0000 0.0000 11.7624 0.0000
# 6 0.0000 0.0000 0.0000 0.0000 0.0000 43.9684
#
#
#
# Elastic Compliance Matrix: (Units=1/GPa)
#
#
# Indices 1 2 3 4 5 6 
#
# 1 0.010673 -0.006128 -0.009338 0.000000 0.000000 0.000000
# 2 -0.006128 0.014562 0.002671 0.000000 0.000000 0.000000
# 3 -0.009338 0.002671 0.029524 0.000000 0.000000 0.000000
# 4 0.000000 0.000000 0.000000 0.236866 0.000000 0.000000
# 5 0.000000 0.000000 0.000000 0.000000 0.085017 0.000000
# 6 0.000000 0.000000 0.000000 0.000000 0.000000 0.022744
#
#
# Mechanical properties :
#
#
# Convention : Reuss Voigt Hill
#
# Bulk Modulus (GPa) = 34.28295 62.72145 48.50220
# Shear Modulus (GPa) = 11.50220 24.67662 18.08941
#
# Velocity S-wave (km/s) = 2.56521 3.75729 3.21695
# Velocity P-wave (km/s) = 5.32791 7.39630 6.44561
#
# Compressibility (1/GPa) = 0.02916901
#
# Stress axis : x y z
#
# Youngs Moduli (GPa) = 93.69096 68.67056 33.87073
#
# Poissons Ratio (x) = 0.42085 0.31628
# Poissons Ratio (y) = 0.57418 -0.09047
# Poissons Ratio (z) = 0.87488 -0.18342
#
# Static dielectric constant tensor:
#      x y z
#    x 3.762320 0.000000 0.000000 
#    y 0.000000 3.126530 0.000000 
#    z 0.000000 0.000000 2.907000 
# 
# 
# High freq. dielectric constant tensor:
#      x y z
#    x 1.699670 0.000000 0.000000 
#    y 0.000000 1.637560 0.000000 
#    z 0.000000 0.000000 1.631260 
# 
# From -- ./inp_files/25841.got.cif
#   From: 2010.03.12/outbox.cif.g09.slc.cpg/sg69_13_cif.got.tgz:25841.got - 2010.04.10 23:52:46.
