data_PCOD8283328
_publ_section_title
;
Structure prediction by ZEFSAII (Michael W. Deem and Ramdas Pophale) SiO2 
 PCOD8283328
Probable space group: C C C A
;
_chemical_formula_sum "Si O2"
_cell_formula_units_Z 100
_cell_length_a 25.518619
_cell_length_b 19.387371
_cell_length_c 9.173672
_cell_angle_alpha 90.000000
_cell_angle_beta 90.000000
_cell_angle_gamma 90.000000
_cell_volume 4538.572706
_symmetry_space_group_name_H-M "C C C A"
_symmetry_group_IT_number 68
_space_group.IT_coordinate_system_code '2'
_symmetry_cell_setting 'orthorhombic'
loop_
_space_group_symop_operation_xyz
x,y,z
-x,1/2-y,z
x,1/2-y,1/2-z
-x,y,1/2-z
-x,-y,-z
x,1/2+y,-z
-x,1/2+y,1/2+z
x,-y,1/2+z
1/2+x,1/2+y,z
1/2-x,-y,z
1/2+x,-y,1/2-z
1/2-x,1/2+y,1/2-z
1/2-x,1/2-y,-z
1/2+x,y,-z
1/2-x,y,1/2+z
1/2+x,1/2-y,1/2+z
loop_
_atom_site_type_symbol
_atom_site_label
_atom_site_fract_x
_atom_site_fract_y
_atom_site_fract_z
Si Si1 0.556467 0.033504 0.034220
Si Si2 0.000000 0.750000 0.250000
Si Si3 0.619632 0.250000 0.750000
Si Si4 0.185826 0.886423 0.796129
Si Si5 0.209775 0.879121 0.126632
Si Si6 0.123241 0.983518 0.204076
Si Si7 0.839315 0.250000 0.750000
Si Si8 0.421292 0.687737 0.534271
O O1 0.566576 0.111038 0.974768
O O2 0.570638 0.035044 0.204641
O O3 0.601685 0.987343 0.959764
O O4 0.500000 0.000000 0.000000
O O5 0.031193 0.798091 0.358751
O O6 0.657168 0.314084 0.778658
O O7 0.582881 0.263442 0.608537
O O8 0.232296 0.895771 0.680720
O O9 0.144121 0.944626 0.762684
O O10 0.209652 0.895203 0.956136
O O11 0.197228 0.799069 0.153503
O O12 0.167581 0.925399 0.213146
O O13 0.870862 0.201419 0.636832
#
# Coordination Sequence:
#
# PCOD8283328 Si02
#       8
#    16   4   8  16  16  16   8  16
#     4  12  27  46  76 107 139 191 248 300 364 434
#     4  10  28  46  74 104 140 190 250 302 370 434
#     4  12  25  47  73 106 150 188 238 300 369 426
#     4  12  28  44  72 109 145 194 243 299 362 438
#     4  12  27  44  73 106 146 192 248 291 370 433
#     4  12  26  48  71 103 151 187 241 307 365 423
#     4  11  23  45  74 100 144 192 229 304 358 432
#     4  11  25  47  74 104 144 190 242 304 365 427
#
# _framework density 22.033359000000001
#
# number of rings (size 3 to 8) (size 9 to 14) (size 15 to 20)
#    0.000    0.320    6.400    1.440    6.720    4.160 
#    2.880    0.000    0.000    0.000    0.000    0.000 
#    0.000    0.000    0.000    0.000    0.000    0.000 
#
# Total GULP energy -619906.313156 kJ/mol
# GULP energy per Si atom -12398.126263 kJ/mol
# Density = 2.198321 g / cm^3
# Si number density = 22.033359 Si / 1000 Ang^3
#
#
#
# Elastic Constant Matrix: (Units=GPa)
#
#
# Indices 1 2 3 4 5 6 
#
# 1 95.4294 36.5876 43.0432 0.0000 0.0000 0.0000
# 2 36.5876 110.4465 20.4366 0.0000 0.0000 0.0000
# 3 43.0432 20.4366 129.1816 0.0000 0.0000 0.0000
# 4 0.0000 0.0000 0.0000 32.3530 0.0000 0.0000
# 5 0.0000 0.0000 0.0000 0.0000 56.8049 0.0000
# 6 0.0000 0.0000 0.0000 0.0000 0.0000 13.9851
#
#
#
# Elastic Compliance Matrix: (Units=1/GPa)
#
#
# Indices 1 2 3 4 5 6 
#
# 1 0.013733 -0.003814 -0.003972 0.000000 0.000000 0.000000
# 2 -0.003814 0.010387 -0.000372 0.000000 0.000000 0.000000
# 3 -0.003972 -0.000372 0.009124 0.000000 0.000000 0.000000
# 4 0.000000 0.000000 0.000000 0.030909 0.000000 0.000000
# 5 0.000000 0.000000 0.000000 0.000000 0.017604 0.000000
# 6 0.000000 0.000000 0.000000 0.000000 0.000000 0.071505
#
#
# Mechanical properties :
#
#
# Convention : Reuss Voigt Hill
#
# Bulk Modulus (GPa) = 59.08324 59.46580 59.27452
# Shear Modulus (GPa) = 28.53543 36.29461 32.41502
#
# Velocity S-wave (km/s) = 3.60266 4.06304 3.83976
# Velocity P-wave (km/s) = 6.64673 7.00419 6.82780
#
# Compressibility (1/GPa) = 0.01692527
#
# Stress axis : x y z
#
# Youngs Moduli (GPa) = 72.81670 96.27783 109.60660
#
# Poissons Ratio (x) = 0.36723 0.43540
# Poissons Ratio (y) = 0.27775 0.04080
# Poissons Ratio (z) = 0.28926 0.03584
#
# Static dielectric constant tensor:
#      x y z
#    x 3.966840 0.000000 0.000000 
#    y 0.000000 4.025600 0.000000 
#    z 0.000000 0.000000 4.028190 
# 
# 
# High freq. dielectric constant tensor:
#      x y z
#    x 1.865120 0.000000 0.000000 
#    y 0.000000 1.876120 0.000000 
#    z 0.000000 0.000000 1.882750 
# 
# From -- ./inp_files/9047.got.cif
#   From: 2010.03.12/outbox.cif.g09.slc.cpg/sg68_5_cif.got.tgz:9047.got - 2010.04.10 23:14:56.
