data_PCOD8283103
_publ_section_title
;
Structure prediction by ZEFSAII (Michael W. Deem and Ramdas Pophale) SiO2 
 PCOD8283103
Probable space group: C C C A
;
_chemical_formula_sum "Si O2"
_cell_formula_units_Z 80
_cell_length_a 9.159017
_cell_length_b 27.857192
_cell_length_c 13.552585
_cell_angle_alpha 90.000000
_cell_angle_beta 90.000000
_cell_angle_gamma 90.000000
_cell_volume 3457.867457
_symmetry_space_group_name_H-M "C C C A"
_symmetry_group_IT_number 68
_space_group.IT_coordinate_system_code '2'
_symmetry_cell_setting 'orthorhombic'
loop_
_space_group_symop_operation_xyz
x,y,z
-x,1/2-y,z
x,1/2-y,1/2-z
-x,y,1/2-z
-x,-y,-z
x,1/2+y,-z
-x,1/2+y,1/2+z
x,-y,1/2+z
1/2+x,1/2+y,z
1/2-x,-y,z
1/2+x,-y,1/2-z
1/2-x,1/2+y,1/2-z
1/2-x,1/2-y,-z
1/2+x,y,-z
1/2-x,y,1/2+z
1/2+x,1/2-y,1/2+z
loop_
_atom_site_type_symbol
_atom_site_label
_atom_site_fract_x
_atom_site_fract_y
_atom_site_fract_z
Si Si1 0.145755 0.134708 0.805593
Si Si2 0.505860 0.193349 0.027015
Si Si3 0.275559 0.148621 0.605435
Si Si4 0.346195 0.543876 0.377849
Si Si5 0.170908 0.453591 0.145158
O O1 0.103096 0.177236 0.879521
O O2 0.252233 0.157393 0.722460
O O3 0.226459 0.093354 0.869453
O O4 0.000000 0.114020 0.750000
O O5 0.500000 0.250000 0.021503
O O6 0.343440 0.173731 0.036810
O O7 0.569676 0.171539 0.925324
O O8 0.266385 0.091739 0.584487
O O9 0.250000 0.500000 0.421833
O O10 0.515533 0.547795 0.411936
O O11 0.350800 0.540174 0.260912
O O12 0.250000 0.500000 0.099863
#
# Coordination Sequence:
#
# PCOD8283103 Si02
#       5
#    16  16  16  16  16
#     4   9  21  39  66  94 132 172 221 269 333 393
#     4  11  24  44  69  93 128 174 219 275 333 389
#     4  10  23  42  65  94 132 168 217 274 328 390
#     4   9  19  35  57  91 133 170 212 266 327 390
#     4   9  18  30  61  92 126 171 220 264 319 388
#
# _framework density 23.135646000000001
#
# number of rings (size 3 to 8) (size 9 to 14) (size 15 to 20)
#    0.000    2.400    0.000    0.600   14.000    3.600 
#    0.000    2.000    0.000    0.000    0.000    0.000 
#    0.000    0.000    0.000    0.000    0.000    0.000 
#
# Total GULP energy -495887.698518 kJ/mol
# GULP energy per Si atom -12397.192463 kJ/mol
# Density = 2.308299 g / cm^3
# Si number density = 23.135646 Si / 1000 Ang^3
#
#
#
# Elastic Constant Matrix: (Units=GPa)
#
#
# Indices 1 2 3 4 5 6 
#
# 1 87.4004 46.4277 12.0330 0.0000 0.0000 0.0000
# 2 46.4277 169.1529 10.0520 0.0000 0.0000 0.0000
# 3 12.0330 10.0520 47.9047 0.0000 0.0000 0.0000
# 4 0.0000 0.0000 0.0000 19.1543 0.0000 0.0000
# 5 0.0000 0.0000 0.0000 0.0000 12.1282 0.0000
# 6 0.0000 0.0000 0.0000 0.0000 0.0000 40.9901
#
#
#
# Elastic Compliance Matrix: (Units=1/GPa)
#
#
# Indices 1 2 3 4 5 6 
#
# 1 0.013729 -0.003608 -0.002691 0.000000 0.000000 0.000000
# 2 -0.003608 0.006935 -0.000549 0.000000 0.000000 0.000000
# 3 -0.002691 -0.000549 0.021666 0.000000 0.000000 0.000000
# 4 0.000000 0.000000 0.000000 0.052208 0.000000 0.000000
# 5 0.000000 0.000000 0.000000 0.000000 0.082453 0.000000
# 6 0.000000 0.000000 0.000000 0.000000 0.000000 0.024396
#
#
# Mechanical properties :
#
#
# Convention : Reuss Voigt Hill
#
# Bulk Modulus (GPa) = 34.92501 49.05370 41.98936
# Shear Modulus (GPa) = 22.25911 30.18421 26.22166
#
# Velocity S-wave (km/s) = 3.10516 3.61593 3.37024
# Velocity P-wave (km/s) = 5.29004 6.21948 5.77350
#
# Compressibility (1/GPa) = 0.02863277
#
# Stress axis : x y z
#
# Youngs Moduli (GPa) = 72.83925 144.20061 46.15534
#
# Poissons Ratio (x) = 0.52031 0.12422
# Poissons Ratio (y) = 0.26282 0.02533
# Poissons Ratio (z) = 0.19604 0.07914
#
# Static dielectric constant tensor:
#      x y z
#    x 4.520270 0.000000 0.000000 
#    y 0.000000 4.004180 0.000000 
#    z 0.000000 0.000000 3.981170 
# 
# 
# High freq. dielectric constant tensor:
#      x y z
#    x 1.924430 0.000000 0.000000 
#    y 0.000000 1.898880 0.000000 
#    z 0.000000 0.000000 1.907010 
# 
# From -- ./inp_files/11947.got.cif
#   From: 2010.03.12/outbox.cif.g09.slc.cpg/sg68_6_cif.got.tgz:11947.got - 2010.04.10 23:14:56.
