data_PCOD8283821
_publ_section_title
;
Structure prediction by ZEFSAII (Michael W. Deem and Ramdas Pophale) SiO2 
 PCOD8283821
Probable space group: F M M M
;
_chemical_formula_sum "Si O2"
_cell_formula_units_Z 144
_cell_length_a 19.313931
_cell_length_b 16.769039
_cell_length_c 27.934476
_cell_angle_alpha 90.000000
_cell_angle_beta 90.000000
_cell_angle_gamma 90.000000
_cell_volume 9047.308086
_symmetry_space_group_name_H-M "F M M M"
_symmetry_group_IT_number 69
_symmetry_cell_setting 'orthorhombic'
loop_
_space_group_symop_operation_xyz
x,y,z
-x,-y,z
x,-y,-z
-x,y,-z
-x,-y,-z
x,y,-z
-x,y,z
x,-y,z
x,1/2+y,1/2+z
-x,1/2-y,1/2+z
x,1/2-y,1/2-z
-x,1/2+y,1/2-z
-x,1/2-y,1/2-z
x,1/2+y,1/2-z
-x,1/2+y,1/2+z
x,1/2-y,1/2+z
1/2+x,y,1/2+z
1/2-x,-y,1/2+z
1/2+x,-y,1/2-z
1/2-x,y,1/2-z
1/2-x,-y,1/2-z
1/2+x,y,1/2-z
1/2-x,y,1/2+z
1/2+x,-y,1/2+z
1/2+x,1/2+y,z
1/2-x,1/2-y,z
1/2+x,1/2-y,-z
1/2-x,1/2+y,-z
1/2-x,1/2-y,-z
1/2+x,1/2+y,-z
1/2-x,1/2+y,z
1/2+x,1/2-y,z
loop_
_atom_site_type_symbol
_atom_site_label
_atom_site_fract_x
_atom_site_fract_y
_atom_site_fract_z
Si Si1 0.349962 0.592952 0.732454
Si Si2 0.420795 0.905459 0.500000
Si Si3 0.635130 0.594475 0.899461
Si Si4 0.500000 0.405324 0.846059
Si Si5 0.500000 0.094135 0.239805
Si Si6 0.728846 0.341186 0.178429
O O1 0.350105 0.500000 0.746724
O O2 0.427344 0.621594 0.715646
O O3 0.327322 0.640761 0.780127
O O4 0.298106 0.607630 0.688597
O O5 0.500000 0.870573 0.500000
O O6 0.375463 0.877777 0.454323
O O7 0.428695 0.000000 0.500000
O O8 0.644701 0.500000 0.895341
O O9 0.567542 0.626540 0.872549
O O10 0.700998 0.636089 0.874273
O O11 0.500000 0.500000 0.847219
O O12 0.500000 0.370158 0.793067
O O13 0.500000 0.000000 0.241962
O O14 0.750000 0.250000 0.180056
#
# Coordination Sequence:
#
# PCOD8283821 Si02
#       6
#    32  16  32  16  16  32
#     4  10  18  31  49  66  86 119 159 195 231 264
#     4   9  16  26  47  78  98 107 139 194 235 271
#     4  10  17  29  48  69  94 119 145 182 231 278
#     4   9  14  23  43  70  92 111 141 180 225 277
#     4   9  16  26  45  70  86 107 150 195 228 263
#     4  11  21  31  41  62  95 128 157 183 213 268
#
# _framework density 15.916335999999999
#
# number of rings (size 3 to 8) (size 9 to 14) (size 15 to 20)
#    0.000    2.111    3.333    4.000    0.000    0.000 
#    0.000    3.889    0.000    0.000    0.000    0.000 
#    0.000    0.000    0.000    8.222    0.000    0.889 
#
# Total GULP energy -446071.827669 kJ/mol
# GULP energy per Si atom -12390.884102 kJ/mol
# Density = 1.588011 g / cm^3
# Si number density = 15.916336 Si / 1000 Ang^3
#
#
#
# Elastic Constant Matrix: (Units=GPa)
#
#
# Indices 1 2 3 4 5 6 
#
# 1 144.0712 29.3862 59.6691 0.0000 0.0000 0.0000
# 2 29.3862 50.5399 15.9652 0.0000 0.0000 0.0000
# 3 59.6691 15.9652 93.9157 0.0000 0.0000 0.0000
# 4 0.0000 0.0000 0.0000 21.8567 0.0000 0.0000
# 5 0.0000 0.0000 0.0000 0.0000 25.2210 0.0000
# 6 0.0000 0.0000 0.0000 0.0000 0.0000 5.3371
#
#
#
# Elastic Compliance Matrix: (Units=1/GPa)
#
#
# Indices 1 2 3 4 5 6 
#
# 1 0.010161 -0.004088 -0.005761 0.000000 0.000000 0.000000
# 2 -0.004088 0.022554 -0.001237 0.000000 0.000000 0.000000
# 3 -0.005761 -0.001237 0.014518 0.000000 0.000000 0.000000
# 4 0.000000 0.000000 0.000000 0.045753 0.000000 0.000000
# 5 0.000000 0.000000 0.000000 0.000000 0.039649 0.000000
# 6 0.000000 0.000000 0.000000 0.000000 0.000000 0.187369
#
#
# Mechanical properties :
#
#
# Convention : Reuss Voigt Hill
#
# Bulk Modulus (GPa) = 39.90117 55.39643 47.64880
# Shear Modulus (GPa) = 14.26418 22.71672 18.49045
#
# Velocity S-wave (km/s) = 2.99690 3.78201 3.41211
# Velocity P-wave (km/s) = 6.09089 7.34518 6.74725
#
# Compressibility (1/GPa) = 0.02506192
#
# Stress axis : x y z
#
# Youngs Moduli (GPa) = 98.41833 44.33794 68.87971
#
# Poissons Ratio (x) = 0.18126 0.39679
# Poissons Ratio (y) = 0.40235 0.08518
# Poissons Ratio (z) = 0.56695 0.05483
#
# Static dielectric constant tensor:
#      x y z
#    x 3.457060 0.000000 0.000000 
#    y 0.000000 2.682860 0.000000 
#    z 0.000000 0.000000 2.984880 
# 
# 
# High freq. dielectric constant tensor:
#      x y z
#    x 1.622820 0.000000 0.000000 
#    y 0.000000 1.571240 0.000000 
#    z 0.000000 0.000000 1.582370 
# 
# From -- ./inp_files/15627.got.cif
#   From: 2010.03.12/outbox.cif.g09.slc.cpg/sg69_8_cif.got.tgz:15627.got - 2010.04.10 23:52:46.
