data_PCOD8283049
_publ_section_title
;
Structure prediction by ZEFSAII (Michael W. Deem and Ramdas Pophale) SiO2 
 PCOD8283049
Probable space group: C C C A
;
_chemical_formula_sum "Si O2"
_cell_formula_units_Z 104
_cell_length_a 17.311371
_cell_length_b 13.802770
_cell_length_c 21.252434
_cell_angle_alpha 90.000000
_cell_angle_beta 90.000000
_cell_angle_gamma 90.000000
_cell_volume 5078.160128
_symmetry_space_group_name_H-M "C C C A"
_symmetry_group_IT_number 68
_space_group.IT_coordinate_system_code '2'
_symmetry_cell_setting 'orthorhombic'
loop_
_space_group_symop_operation_xyz
x,y,z
-x,1/2-y,z
x,1/2-y,1/2-z
-x,y,1/2-z
-x,-y,-z
x,1/2+y,-z
-x,1/2+y,1/2+z
x,-y,1/2+z
1/2+x,1/2+y,z
1/2-x,-y,z
1/2+x,-y,1/2-z
1/2-x,1/2+y,1/2-z
1/2-x,1/2-y,-z
1/2+x,y,-z
1/2-x,y,1/2+z
1/2+x,1/2-y,1/2+z
loop_
_atom_site_type_symbol
_atom_site_label
_atom_site_fract_x
_atom_site_fract_y
_atom_site_fract_z
Si Si1 0.250000 0.500000 0.012002
Si Si2 0.156365 0.168075 0.931519
Si Si3 0.903828 0.026336 0.359432
Si Si4 0.377286 0.383776 0.454344
Si Si5 0.500000 0.531921 0.750000
Si Si6 0.750000 0.000000 0.789114
Si Si7 0.475078 0.642813 0.473634
Si Si8 0.648552 0.648936 0.784168
O O1 0.226644 0.595970 0.051314
O O2 0.318589 0.529760 0.966975
O O3 0.164954 0.279684 0.955592
O O4 0.156590 0.168171 0.857398
O O5 0.076419 0.134923 0.963158
O O6 0.929364 0.098720 0.414874
O O7 0.967120 0.037613 0.304602
O O8 0.907366 0.913902 0.384518
O O9 0.817720 0.047266 0.332404
O O10 0.443620 0.404803 0.506377
O O11 0.566913 0.599043 0.775856
O O12 0.783048 0.083045 0.743576
O O13 0.500000 0.750000 0.454433
O O14 0.651608 0.750000 0.750000
#
# Coordination Sequence:
#
# PCOD8283049 Si02
#       8
#     8  16  16  16   8   8  16  16
#     4  12  24  38  62  94 134 162 202 268 328 392
#     4  11  23  41  65  96 126 166 216 263 327 384
#     4  11  21  42  66  89 131 170 215 264 326 382
#     4  11  23  39  64  96 125 166 209 267 330 384
#     4  10  23  36  67  92 118 172 217 262 314 383
#     4  10  24  42  62  92 126 176 216 254 324 390
#     4  10  23  41  65  95 126 165 218 269 321 387
#     4  11  23  43  62  93 129 166 214 269 313 380
#
# _framework density 20.479859000000001
#
# number of rings (size 3 to 8) (size 9 to 14) (size 15 to 20)
#    0.000    1.231    1.538    4.846    2.154    2.462 
#    5.538    0.385    0.000    0.000    0.000    0.000 
#    0.000    0.000    0.000    0.000    0.000    0.000 
#
# Total GULP energy -644376.847972 kJ/mol
# GULP energy per Si atom -12391.862461 kJ/mol
# Density = 2.043325 g / cm^3
# Si number density = 20.479859 Si / 1000 Ang^3
#
#
#
# Elastic Constant Matrix: (Units=GPa)
#
#
# Indices 1 2 3 4 5 6 
#
# 1 131.4101 56.0412 67.2373 0.0000 0.0000 0.0000
# 2 56.0412 60.6971 45.5528 0.0000 0.0000 0.0000
# 3 67.2373 45.5528 147.0636 0.0000 0.0000 0.0000
# 4 0.0000 0.0000 0.0000 25.3910 0.0000 0.0000
# 5 0.0000 0.0000 0.0000 0.0000 42.2800 0.0000
# 6 0.0000 0.0000 0.0000 0.0000 0.0000 38.5928
#
#
#
# Elastic Compliance Matrix: (Units=1/GPa)
#
#
# Indices 1 2 3 4 5 6 
#
# 1 0.013504 -0.010208 -0.003012 0.000000 0.000000 0.000000
# 2 -0.010208 0.029181 -0.004372 0.000000 0.000000 0.000000
# 3 -0.003012 -0.004372 0.009531 0.000000 0.000000 0.000000
# 4 0.000000 0.000000 0.000000 0.039384 0.000000 0.000000
# 5 0.000000 0.000000 0.000000 0.000000 0.023652 0.000000
# 6 0.000000 0.000000 0.000000 0.000000 0.000000 0.025912
#
#
# Mechanical properties :
#
#
# Convention : Reuss Voigt Hill
#
# Bulk Modulus (GPa) = 58.71046 75.20371 66.95708
# Shear Modulus (GPa) = 27.46880 32.60873 30.03876
#
# Velocity S-wave (km/s) = 3.66629 3.99461 3.83397
# Velocity P-wave (km/s) = 6.83022 7.62079 7.23631
#
# Compressibility (1/GPa) = 0.01703274
#
# Stress axis : x y z
#
# Youngs Moduli (GPa) = 74.05124 34.26902 104.91886
#
# Poissons Ratio (x) = 0.34980 0.31605
# Poissons Ratio (y) = 0.75588 0.45869
# Poissons Ratio (z) = 0.22306 0.14982
#
# Static dielectric constant tensor:
#      x y z
#    x 3.969920 0.000000 0.000000 
#    y 0.000000 3.797510 0.000000 
#    z 0.000000 0.000000 3.910560 
# 
# 
# High freq. dielectric constant tensor:
#      x y z
#    x 1.810920 0.000000 0.000000 
#    y 0.000000 1.798580 0.000000 
#    z 0.000000 0.000000 1.808830 
# 
# From -- ./inp_files/39658.got.cif
#   From: 2010.03.12/outbox.cif.g09.slc.cpg/sg68_20_cif.got.tgz:39658.got - 2010.04.10 23:14:56.
