data_PCOD8283655
_publ_section_title
;
Structure prediction by ZEFSAII (Michael W. Deem and Ramdas Pophale) SiO2 
 PCOD8283655
Probable space group: C C C A
;
_chemical_formula_sum "Si O2"
_cell_formula_units_Z 88
_cell_length_a 13.019724
_cell_length_b 22.890150
_cell_length_c 13.305847
_cell_angle_alpha 90.000000
_cell_angle_beta 90.000000
_cell_angle_gamma 90.000000
_cell_volume 3965.454233
_symmetry_space_group_name_H-M "C C C A"
_symmetry_group_IT_number 68
_space_group.IT_coordinate_system_code '2'
_symmetry_cell_setting 'orthorhombic'
loop_
_space_group_symop_operation_xyz
x,y,z
-x,1/2-y,z
x,1/2-y,1/2-z
-x,y,1/2-z
-x,-y,-z
x,1/2+y,-z
-x,1/2+y,1/2+z
x,-y,1/2+z
1/2+x,1/2+y,z
1/2-x,-y,z
1/2+x,-y,1/2-z
1/2-x,1/2+y,1/2-z
1/2-x,1/2-y,-z
1/2+x,y,-z
1/2-x,y,1/2+z
1/2+x,1/2-y,1/2+z
loop_
_atom_site_type_symbol
_atom_site_label
_atom_site_fract_x
_atom_site_fract_y
_atom_site_fract_z
Si Si1 0.339725 0.881751 0.714531
Si Si2 0.967014 0.638631 0.401981
Si Si3 0.000000 0.388109 0.250000
Si Si4 0.057788 0.547909 0.937637
Si Si5 0.163251 0.699589 0.822982
Si Si6 0.250000 0.500000 0.326133
Si Si7 0.500000 0.750000 0.020644
O O1 0.438204 0.897037 0.645983
O O2 0.378217 0.851030 0.818117
O O3 0.265023 0.838148 0.650714
O O4 0.287492 0.944709 0.740630
O O5 0.915591 0.603299 0.492822
O O6 0.020067 0.696973 0.444965
O O7 0.014110 0.429694 0.153507
O O8 0.903060 0.346170 0.240703
O O9 0.163086 0.522781 0.899232
O O10 0.000000 0.500000 0.000000
O O11 0.200943 0.750000 0.750000
O O12 0.099653 0.730246 0.913661
#
# Coordination Sequence:
#
# PCOD8283655 Si02
#       7
#    16  16   8  16  16   8   8
#     4  11  27  45  70 104 146 188 241 293 368 435
#     4  11  26  47  69 105 146 188 234 302 365 430
#     4  12  23  46  70 102 142 183 240 296 366 428
#     4  12  26  44  73 105 142 186 240 302 362 433
#     4  12  23  45  72 102 135 187 242 297 353 426
#     4  12  24  46  70 102 138 188 246 288 364 432
#     4  12  23  47  72 100 148 186 244 296 364 438
#
# _framework density 22.191658
#
# number of rings (size 3 to 8) (size 9 to 14) (size 15 to 20)
#    0.000    0.364    7.273    0.000    5.091    3.636 
#    6.545    0.000    0.000    0.000    0.000    0.000 
#    0.000    0.000    0.000    0.000    0.000    0.000 
#
# Total GULP energy -545314.096824 kJ/mol
# GULP energy per Si atom -12393.502201 kJ/mol
# Density = 2.214115 g / cm^3
# Si number density = 22.191658 Si / 1000 Ang^3
#
#
#
# Elastic Constant Matrix: (Units=GPa)
#
#
# Indices 1 2 3 4 5 6 
#
# 1 111.9470 46.4689 43.3882 0.0000 0.0000 0.0000
# 2 46.4689 148.0761 54.3568 0.0000 0.0000 0.0000
# 3 43.3882 54.3568 119.5634 0.0000 0.0000 0.0000
# 4 0.0000 0.0000 0.0000 40.5501 0.0000 0.0000
# 5 0.0000 0.0000 0.0000 0.0000 23.8013 0.0000
# 6 0.0000 0.0000 0.0000 0.0000 0.0000 35.4658
#
#
#
# Elastic Compliance Matrix: (Units=1/GPa)
#
#
# Indices 1 2 3 4 5 6 
#
# 1 0.011061 -0.002398 -0.002924 0.000000 0.000000 0.000000
# 2 -0.002398 0.008626 -0.003051 0.000000 0.000000 0.000000
# 3 -0.002924 -0.003051 0.010812 0.000000 0.000000 0.000000
# 4 0.000000 0.000000 0.000000 0.024661 0.000000 0.000000
# 5 0.000000 0.000000 0.000000 0.000000 0.042014 0.000000
# 6 0.000000 0.000000 0.000000 0.000000 0.000000 0.028196
#
#
# Mechanical properties :
#
#
# Convention : Reuss Voigt Hill
#
# Bulk Modulus (GPa) = 72.71174 74.22381 73.46778
# Shear Modulus (GPa) = 34.08277 35.65496 34.86886
#
# Velocity S-wave (km/s) = 3.92323 4.01269 3.96821
# Velocity P-wave (km/s) = 7.30471 7.41541 7.36027
#
# Compressibility (1/GPa) = 0.01375294
#
# Stress axis : x y z
#
# Youngs Moduli (GPa) = 90.40432 115.92953 92.48928
#
# Poissons Ratio (x) = 0.27799 0.27043
# Poissons Ratio (y) = 0.21678 0.28222
# Poissons Ratio (z) = 0.26433 0.35375
#
# Static dielectric constant tensor:
#      x y z
#    x 4.575570 0.000000 0.000000 
#    y 0.000000 4.503710 0.000000 
#    z 0.000000 0.000000 3.949480 
# 
# 
# High freq. dielectric constant tensor:
#      x y z
#    x 1.868720 0.000000 0.000000 
#    y 0.000000 1.896580 0.000000 
#    z 0.000000 0.000000 1.864330 
# 
# From -- ./inp_files/22303.got.cif
#   From: 2010.03.12/outbox.cif.g09.slc.cpg/sg68_12_cif.got.tgz:22303.got - 2010.04.10 23:14:56.
