data_PCOD8283226
_publ_section_title
;
Structure prediction by ZEFSAII (Michael W. Deem and Ramdas Pophale) SiO2 
 PCOD8283226
Probable space group: C C C A
;
_chemical_formula_sum "Si O2"
_cell_formula_units_Z 64
_cell_length_a 14.753148
_cell_length_b 17.637055
_cell_length_c 10.153901
_cell_angle_alpha 90.000000
_cell_angle_beta 90.000000
_cell_angle_gamma 90.000000
_cell_volume 2642.066188
_symmetry_space_group_name_H-M "C C C A"
_symmetry_group_IT_number 68
_space_group.IT_coordinate_system_code '2'
_symmetry_cell_setting 'orthorhombic'
loop_
_space_group_symop_operation_xyz
x,y,z
-x,1/2-y,z
x,1/2-y,1/2-z
-x,y,1/2-z
-x,-y,-z
x,1/2+y,-z
-x,1/2+y,1/2+z
x,-y,1/2+z
1/2+x,1/2+y,z
1/2-x,-y,z
1/2+x,-y,1/2-z
1/2-x,1/2+y,1/2-z
1/2-x,1/2-y,-z
1/2+x,y,-z
1/2-x,y,1/2+z
1/2+x,1/2-y,1/2+z
loop_
_atom_site_type_symbol
_atom_site_label
_atom_site_fract_x
_atom_site_fract_y
_atom_site_fract_z
Si Si1 0.104202 0.933407 0.452814
Si Si2 0.219788 0.663827 0.504223
Si Si3 0.470498 0.336145 0.608996
Si Si4 0.658811 0.043615 0.323766
O O1 0.197460 0.887111 0.449101
O O2 0.091366 0.959928 0.301664
O O3 0.018470 0.882651 0.492296
O O4 0.109664 0.005013 0.550455
O O5 0.250000 0.750000 0.500000
O O6 0.137826 0.656963 0.607703
O O7 0.183837 0.630765 0.363965
O O8 0.500000 0.250000 0.591124
O O9 0.500000 0.368964 0.750000
O O10 0.750000 0.000000 0.284696
#
# Coordination Sequence:
#
# PCOD8283226 Si02
#       4
#    16  16  16  16
#     4  11  25  48  72 107 152 190 250 312 371 459
#     4  11  24  45  75 106 146 201 246 308 370 444
#     4  11  26  46  73 109 150 195 251 306 382 451
#     4  10  24  44  74 108 149 196 248 301 388 441
#
# _framework density 24.223466999999999
#
# number of rings (size 3 to 8) (size 9 to 14) (size 15 to 20)
#    0.000    1.250    2.500    2.250   10.500    3.000 
#    0.000    1.250    0.000    0.000    0.000    0.000 
#    0.000    0.000    0.000    0.000    0.000    0.000 
#
# Total GULP energy -396874.390191 kJ/mol
# GULP energy per Si atom -12402.324693 kJ/mol
# Density = 2.416833 g / cm^3
# Si number density = 24.223467 Si / 1000 Ang^3
#
#
#
# Elastic Constant Matrix: (Units=GPa)
#
#
# Indices 1 2 3 4 5 6 
#
# 1 134.7671 38.1447 34.7960 0.0000 0.0000 0.0000
# 2 38.1447 144.7522 73.7256 0.0000 0.0000 0.0000
# 3 34.7960 73.7256 169.1120 0.0000 0.0000 0.0000
# 4 0.0000 0.0000 0.0000 30.9024 0.0000 0.0000
# 5 0.0000 0.0000 0.0000 0.0000 29.5530 0.0000
# 6 0.0000 0.0000 0.0000 0.0000 0.0000 34.2627
#
#
#
# Elastic Compliance Matrix: (Units=1/GPa)
#
#
# Indices 1 2 3 4 5 6 
#
# 1 0.008135 -0.001660 -0.000950 0.000000 0.000000 0.000000
# 2 -0.001660 0.009219 -0.003677 0.000000 0.000000 0.000000
# 3 -0.000950 -0.003677 0.007712 0.000000 0.000000 0.000000
# 4 0.000000 0.000000 0.000000 0.032360 0.000000 0.000000
# 5 0.000000 0.000000 0.000000 0.000000 0.033838 0.000000
# 6 0.000000 0.000000 0.000000 0.000000 0.000000 0.029186
#
#
# Mechanical properties :
#
#
# Convention : Reuss Voigt Hill
#
# Bulk Modulus (GPa) = 80.05784 82.44044 81.24914
# Shear Modulus (GPa) = 36.44616 39.07462 37.76039
#
# Velocity S-wave (km/s) = 3.88310 4.02069 3.95249
# Velocity P-wave (km/s) = 7.29562 7.46068 7.37861
#
# Compressibility (1/GPa) = 0.01249097
#
# Stress axis : x y z
#
# Youngs Moduli (GPa) = 122.92019 108.47443 129.66809
#
# Poissons Ratio (x) = 0.18004 0.12323
# Poissons Ratio (y) = 0.20402 0.47685
# Poissons Ratio (z) = 0.11681 0.39891
#
# Static dielectric constant tensor:
#      x y z
#    x 4.478490 0.000000 0.000000 
#    y 0.000000 4.564520 0.000000 
#    z 0.000000 0.000000 4.347920 
# 
# 
# High freq. dielectric constant tensor:
#      x y z
#    x 1.978000 0.000000 0.000000 
#    y 0.000000 1.970250 0.000000 
#    z 0.000000 0.000000 1.953330 
# 
# From -- ./inp_files/12804.got.cif
#   From: 2010.03.12/outbox.cif.g09.slc.cpg/sg68_7_cif.got.tgz:12804.got - 2010.04.10 23:14:56.
