data_PCOD8283367
_publ_section_title
;
Structure prediction by ZEFSAII (Michael W. Deem and Ramdas Pophale) SiO2 
 PCOD8283367
Probable space group: C C C A
;
_chemical_formula_sum "Si O2"
_cell_formula_units_Z 96
_cell_length_a 15.176450
_cell_length_b 18.758770
_cell_length_c 16.276567
_cell_angle_alpha 90.000000
_cell_angle_beta 90.000000
_cell_angle_gamma 90.000000
_cell_volume 4633.800843
_symmetry_space_group_name_H-M "C C C A"
_symmetry_group_IT_number 68
_space_group.IT_coordinate_system_code '2'
_symmetry_cell_setting 'orthorhombic'
loop_
_space_group_symop_operation_xyz
x,y,z
-x,1/2-y,z
x,1/2-y,1/2-z
-x,y,1/2-z
-x,-y,-z
x,1/2+y,-z
-x,1/2+y,1/2+z
x,-y,1/2+z
1/2+x,1/2+y,z
1/2-x,-y,z
1/2+x,-y,1/2-z
1/2-x,1/2+y,1/2-z
1/2-x,1/2-y,-z
1/2+x,y,-z
1/2-x,y,1/2+z
1/2+x,1/2-y,1/2+z
loop_
_atom_site_type_symbol
_atom_site_label
_atom_site_fract_x
_atom_site_fract_y
_atom_site_fract_z
Si Si1 0.046364 0.677394 0.417440
Si Si2 0.568220 0.063387 0.023662
Si Si3 0.678599 0.175941 0.555389
Si Si4 0.175221 0.831635 0.575123
Si Si5 0.783964 0.071259 0.649477
Si Si6 0.190144 0.675189 0.287154
O O1 0.107242 0.648381 0.491101
O O2 0.099478 0.690671 0.334404
O O3 0.000000 0.750000 0.444473
O O4 0.976185 0.614590 0.408336
O O5 0.656881 0.041449 0.072548
O O6 0.597405 0.110231 0.942309
O O7 0.500000 0.000000 0.000000
O O8 0.773648 0.181365 0.510629
O O9 0.644508 0.250518 0.595684
O O10 0.696623 0.116624 0.624339
O O11 0.236600 0.857551 0.650602
O O12 0.834425 0.118684 0.716786
O O13 0.750000 0.000000 0.694010
O O14 0.223696 0.750000 0.250000
#
# Coordination Sequence:
#
# PCOD8283367 Si02
#       6
#    16  16  16  16  16  16
#     4  11  21  35  61  92 119 150 193 255 316 361
#     4  11  23  39  60  91 122 157 202 257 310 364
#     4   9  17  35  59  84 114 151 206 245 289 354
#     4   9  18  35  59  85 113 156 203 249 289 356
#     4  11  23  39  59  85 123 164 202 250 305 365
#     4  11  22  37  60  90 121 155 203 253 303 370
#
# _framework density 20.717334000000001
#
# number of rings (size 3 to 8) (size 9 to 14) (size 15 to 20)
#    0.000    1.667    3.333    2.000    0.000    3.667 
#    0.000    1.667    0.000    3.000    0.000    0.000 
#    0.000    0.000    0.000    0.000    0.000    0.000 
#
# Total GULP energy -594695.912794 kJ/mol
# GULP energy per Si atom -12389.498183 kJ/mol
# Density = 2.067018 g / cm^3
# Si number density = 20.717334 Si / 1000 Ang^3
#
#
#
# Elastic Constant Matrix: (Units=GPa)
#
#
# Indices 1 2 3 4 5 6 
#
# 1 75.5857 44.9308 28.9236 0.0000 0.0000 0.0000
# 2 44.9308 139.6361 31.0598 0.0000 0.0000 0.0000
# 3 28.9236 31.0598 75.3398 0.0000 0.0000 0.0000
# 4 0.0000 0.0000 0.0000 25.3984 0.0000 0.0000
# 5 0.0000 0.0000 0.0000 0.0000 17.8028 0.0000
# 6 0.0000 0.0000 0.0000 0.0000 0.0000 39.2215
#
#
#
# Elastic Compliance Matrix: (Units=1/GPa)
#
#
# Indices 1 2 3 4 5 6 
#
# 1 0.017892 -0.004656 -0.004949 0.000000 0.000000 0.000000
# 2 -0.004656 0.009096 -0.001963 0.000000 0.000000 0.000000
# 3 -0.004949 -0.001963 0.015982 0.000000 0.000000 0.000000
# 4 0.000000 0.000000 0.000000 0.039373 0.000000 0.000000
# 5 0.000000 0.000000 0.000000 0.000000 0.056171 0.000000
# 6 0.000000 0.000000 0.000000 0.000000 0.000000 0.025496
#
#
# Mechanical properties :
#
#
# Convention : Reuss Voigt Hill
#
# Bulk Modulus (GPa) = 50.41724 55.59889 53.00806
# Shear Modulus (GPa) = 25.80551 28.86104 27.33328
#
# Velocity S-wave (km/s) = 3.53313 3.73646 3.63622
# Velocity P-wave (km/s) = 6.40567 6.74611 6.57809
#
# Compressibility (1/GPa) = 0.01983448
#
# Stress axis : x y z
#
# Youngs Moduli (GPa) = 55.89203 109.93596 62.56923
#
# Poissons Ratio (x) = 0.51188 0.30967
# Poissons Ratio (y) = 0.26024 0.12279
# Poissons Ratio (z) = 0.27662 0.21575
#
# Static dielectric constant tensor:
#      x y z
#    x 3.670660 0.000000 0.000000 
#    y 0.000000 3.796140 0.000000 
#    z 0.000000 0.000000 3.498270 
# 
# 
# High freq. dielectric constant tensor:
#      x y z
#    x 1.797240 0.000000 0.000000 
#    y 0.000000 1.813430 0.000000 
#    z 0.000000 0.000000 1.784440 
# 
# From -- ./inp_files/22340.got.cif
#   From: 2010.03.12/outbox.cif.g09.slc.cpg/sg68_12_cif.got.tgz:22340.got - 2010.04.10 23:14:56.
