data_PCOD8283013
_publ_section_title
;
Structure prediction by ZEFSAII (Michael W. Deem and Ramdas Pophale) SiO2 
 PCOD8283013
Probable space group: C C C A
;
_chemical_formula_sum "Si O2"
_cell_formula_units_Z 104
_cell_length_a 18.265373
_cell_length_b 27.191287
_cell_length_c 9.565486
_cell_angle_alpha 90.000000
_cell_angle_beta 90.000000
_cell_angle_gamma 90.000000
_cell_volume 4750.784706
_symmetry_space_group_name_H-M "C C C A"
_symmetry_group_IT_number 68
_space_group.IT_coordinate_system_code '2'
_symmetry_cell_setting 'orthorhombic'
loop_
_space_group_symop_operation_xyz
x,y,z
-x,1/2-y,z
x,1/2-y,1/2-z
-x,y,1/2-z
-x,-y,-z
x,1/2+y,-z
-x,1/2+y,1/2+z
x,-y,1/2+z
1/2+x,1/2+y,z
1/2-x,-y,z
1/2+x,-y,1/2-z
1/2-x,1/2+y,1/2-z
1/2-x,1/2-y,-z
1/2+x,y,-z
1/2-x,y,1/2+z
1/2+x,1/2-y,1/2+z
loop_
_atom_site_type_symbol
_atom_site_label
_atom_site_fract_x
_atom_site_fract_y
_atom_site_fract_z
Si Si1 0.187411 0.708799 0.138581
Si Si2 0.250000 0.500000 0.884796
Si Si3 0.649346 0.224273 0.609981
Si Si4 0.474651 0.352855 0.592280
Si Si5 0.160099 0.034819 0.866612
Si Si6 0.040688 0.463355 0.104513
Si Si7 0.069850 0.631448 0.148661
O O1 0.173159 0.750000 0.250000
O O2 0.273633 0.695304 0.130684
O O3 0.141695 0.661912 0.193680
O O4 0.159247 0.729840 0.992568
O O5 0.203916 0.464222 0.780598
O O6 0.206955 0.537497 0.989300
O O7 0.620430 0.250000 0.750000
O O8 0.590241 0.184854 0.556490
O O9 0.500000 0.347909 0.750000
O O10 0.450702 0.408046 0.547023
O O11 0.545026 0.342746 0.495864
O O12 0.096627 0.075612 0.869437
O O13 0.122831 0.981385 0.870855
O O14 0.000000 0.462213 0.250000
O O15 0.000000 0.500000 0.000000
O O16 0.000000 0.634279 0.250000
#
# Coordination Sequence:
#
# PCOD8283013 Si02
#       7
#    16   8  16  16  16  16  16
#     4  10  23  45  65  94 132 181 222 284 339 404
#     4  10  26  44  68  96 136 182 230 280 334 394
#     4  10  22  44  69  94 131 176 228 279 345 403
#     4  11  25  40  67 106 128 181 222 280 345 404
#     4  11  24  46  65 100 134 179 224 281 333 401
#     4  11  22  40  66  92 135 172 217 268 335 405
#     4  12  26  43  67 104 137 176 228 276 349 407
#
# _framework density 21.891120000000001
#
# number of rings (size 3 to 8) (size 9 to 14) (size 15 to 20)
#    0.000    1.231    1.538    3.231    4.308    6.154 
#    8.308    0.000    0.000    0.000    0.000    0.000 
#    0.000    0.000    0.000    0.000    0.000    0.000 
#
# Total GULP energy -644593.527133 kJ/mol
# GULP energy per Si atom -12396.029368 kJ/mol
# Density = 2.184129 g / cm^3
# Si number density = 21.891120 Si / 1000 Ang^3
#
#
#
# Elastic Constant Matrix: (Units=GPa)
#
#
# Indices 1 2 3 4 5 6 
#
# 1 112.9992 46.8348 20.0456 0.0000 0.0000 0.0000
# 2 46.8348 86.1581 2.8669 0.0000 0.0000 0.0000
# 3 20.0456 2.8669 107.7419 0.0000 0.0000 0.0000
# 4 0.0000 0.0000 0.0000 15.0356 0.0000 0.0000
# 5 0.0000 0.0000 0.0000 0.0000 40.4646 0.0000
# 6 0.0000 0.0000 0.0000 0.0000 0.0000 52.8066
#
#
#
# Elastic Compliance Matrix: (Units=1/GPa)
#
#
# Indices 1 2 3 4 5 6 
#
# 1 0.011853 -0.006376 -0.002036 0.000000 0.000000 0.000000
# 2 -0.006376 0.015046 0.000786 0.000000 0.000000 0.000000
# 3 -0.002036 0.000786 0.009639 0.000000 0.000000 0.000000
# 4 0.000000 0.000000 0.000000 0.066509 0.000000 0.000000
# 5 0.000000 0.000000 0.000000 0.000000 0.024713 0.000000
# 6 0.000000 0.000000 0.000000 0.000000 0.000000 0.018937
#
#
# Mechanical properties :
#
#
# Convention : Reuss Voigt Hill
#
# Bulk Modulus (GPa) = 46.97528 49.59930 48.28729
# Shear Modulus (GPa) = 29.57806 37.47150 33.52478
#
# Velocity S-wave (km/s) = 3.67978 4.14178 3.91760
# Velocity P-wave (km/s) = 6.28964 6.75122 6.52451
#
# Compressibility (1/GPa) = 0.02128779
#
# Stress axis : x y z
#
# Youngs Moduli (GPa) = 84.36518 66.46227 103.74230
#
# Poissons Ratio (x) = 0.42374 0.21119
# Poissons Ratio (y) = 0.53788 -0.08152
# Poissons Ratio (z) = 0.17174 -0.05223
#
# Static dielectric constant tensor:
#      x y z
#    x 4.155760 0.000000 0.000000 
#    y 0.000000 3.689430 0.000000 
#    z 0.000000 0.000000 4.041870 
# 
# 
# High freq. dielectric constant tensor:
#      x y z
#    x 1.869760 0.000000 0.000000 
#    y 0.000000 1.847850 0.000000 
#    z 0.000000 0.000000 1.877510 
# 
# From -- ./inp_files/7390.got.cif
#   From: 2010.03.12/outbox.cif.g09.slc.cpg/sg68_4_cif.got.tgz:7390.got - 2010.04.10 23:14:56.
