data_PCOD8283387
_publ_section_title
;
Structure prediction by ZEFSAII (Michael W. Deem and Ramdas Pophale) SiO2 
 PCOD8283387
Probable space group: C C C A
;
_chemical_formula_sum "Si O2"
_cell_formula_units_Z 80
_cell_length_a 11.750891
_cell_length_b 11.161987
_cell_length_c 26.857056
_cell_angle_alpha 90.000000
_cell_angle_beta 90.000000
_cell_angle_gamma 90.000000
_cell_volume 3522.659894
_symmetry_space_group_name_H-M "C C C A"
_symmetry_group_IT_number 68
_space_group.IT_coordinate_system_code '2'
_symmetry_cell_setting 'orthorhombic'
loop_
_space_group_symop_operation_xyz
x,y,z
-x,1/2-y,z
x,1/2-y,1/2-z
-x,y,1/2-z
-x,-y,-z
x,1/2+y,-z
-x,1/2+y,1/2+z
x,-y,1/2+z
1/2+x,1/2+y,z
1/2-x,-y,z
1/2+x,-y,1/2-z
1/2-x,1/2+y,1/2-z
1/2-x,1/2-y,-z
1/2+x,y,-z
1/2-x,y,1/2+z
1/2+x,1/2-y,1/2+z
loop_
_atom_site_type_symbol
_atom_site_label
_atom_site_fract_x
_atom_site_fract_y
_atom_site_fract_z
Si Si1 0.659871 0.789381 0.647178
Si Si2 0.627073 0.045835 0.942778
Si Si3 0.981228 0.428622 0.691981
Si Si4 0.395343 0.325002 0.847518
Si Si5 0.066638 0.860788 0.454487
O O1 0.610836 0.914676 0.670231
O O2 0.585147 0.678422 0.665369
O O3 0.785948 0.756036 0.665774
O O4 0.652469 0.809521 0.587331
O O5 0.600793 0.158090 0.907219
O O6 0.750000 0.000000 0.925092
O O7 0.526600 0.951394 0.931651
O O8 0.636723 0.078830 0.000907
O O9 0.908095 0.547450 0.680236
O O10 0.000000 0.411176 0.750000
O O11 0.500000 0.250000 0.827620
O O12 0.000000 0.750000 0.478917
#
# Coordination Sequence:
#
# PCOD8283387 Si02
#       5
#    16  16  16  16  16
#     4  11  22  45  76  98 137 184 232 290 355 420
#     4  11  24  40  65  98 141 188 230 288 345 420
#     4  11  24  49  74 104 135 182 242 291 358 420
#     4  12  26  45  68 103 147 182 230 292 354 418
#     4  11  21  39  66  99 137 178 237 283 348 423
#
# _framework density 22.710111999999999
#
# number of rings (size 3 to 8) (size 9 to 14) (size 15 to 20)
#    0.000    0.800    4.000    4.800    0.000    7.600 
#   10.800    0.000    0.000    0.000    0.000    0.000 
#    0.000    0.000    0.000    0.000    0.000    0.000 
#
# Total GULP energy -495651.217567 kJ/mol
# GULP energy per Si atom -12391.280439 kJ/mol
# Density = 2.265842 g / cm^3
# Si number density = 22.710112 Si / 1000 Ang^3
#
#
#
# Elastic Constant Matrix: (Units=GPa)
#
#
# Indices 1 2 3 4 5 6 
#
# 1 130.6706 43.8796 21.9734 0.0000 0.0000 0.0000
# 2 43.8796 67.2908 22.0163 0.0000 0.0000 0.0000
# 3 21.9734 22.0163 101.0642 0.0000 0.0000 0.0000
# 4 0.0000 0.0000 0.0000 28.0318 0.0000 0.0000
# 5 0.0000 0.0000 0.0000 0.0000 8.6766 0.0000
# 6 0.0000 0.0000 0.0000 0.0000 0.0000 40.4197
#
#
#
# Elastic Compliance Matrix: (Units=1/GPa)
#
#
# Indices 1 2 3 4 5 6 
#
# 1 0.009858 -0.006167 -0.000800 0.000000 0.000000 0.000000
# 2 -0.006167 0.019859 -0.002985 0.000000 0.000000 0.000000
# 3 -0.000800 -0.002985 0.010719 0.000000 0.000000 0.000000
# 4 0.000000 0.000000 0.000000 0.035674 0.000000 0.000000
# 5 0.000000 0.000000 0.000000 0.000000 0.115253 0.000000
# 6 0.000000 0.000000 0.000000 0.000000 0.000000 0.024740
#
#
# Mechanical properties :
#
#
# Convention : Reuss Voigt Hill
#
# Bulk Modulus (GPa) = 48.70467 52.75159 50.72813
# Shear Modulus (GPa) = 20.58877 29.50270 25.04573
#
# Velocity S-wave (km/s) = 3.01423 3.60821 3.32451
# Velocity P-wave (km/s) = 5.79715 6.37476 6.09280
#
# Compressibility (1/GPa) = 0.02053191
#
# Stress axis : x y z
#
# Youngs Moduli (GPa) = 101.43903 50.35542 93.29244
#
# Poissons Ratio (x) = 0.31052 0.07463
# Poissons Ratio (y) = 0.62554 0.27851
# Poissons Ratio (z) = 0.08115 0.15033
#
# Static dielectric constant tensor:
#      x y z
#    x 4.564350 0.000000 0.000000 
#    y 0.000000 4.763140 0.000000 
#    z 0.000000 0.000000 3.964720 
# 
# 
# High freq. dielectric constant tensor:
#      x y z
#    x 1.891330 0.000000 0.000000 
#    y 0.000000 1.895180 0.000000 
#    z 0.000000 0.000000 1.893420 
# 
# From -- ./inp_files/54511.got.cif
#   From: 2010.03.12/outbox.cif.g09.slc.cpg/sg68_28_cif.got.tgz:54511.got - 2010.04.10 23:14:56.
