data_PCOD8283537
_publ_section_title
;
Structure prediction by ZEFSAII (Michael W. Deem and Ramdas Pophale) SiO2 
 PCOD8283537
Probable space group: C C C A
;
_chemical_formula_sum "Si O2"
_cell_formula_units_Z 92
_cell_length_a 16.783843
_cell_length_b 25.136548
_cell_length_c 9.731504
_cell_angle_alpha 90.000000
_cell_angle_beta 90.000000
_cell_angle_gamma 90.000000
_cell_volume 4105.603545
_symmetry_space_group_name_H-M "C C C A"
_symmetry_group_IT_number 68
_space_group.IT_coordinate_system_code '2'
_symmetry_cell_setting 'orthorhombic'
loop_
_space_group_symop_operation_xyz
x,y,z
-x,1/2-y,z
x,1/2-y,1/2-z
-x,y,1/2-z
-x,-y,-z
x,1/2+y,-z
-x,1/2+y,1/2+z
x,-y,1/2+z
1/2+x,1/2+y,z
1/2-x,-y,z
1/2+x,-y,1/2-z
1/2-x,1/2+y,1/2-z
1/2-x,1/2-y,-z
1/2+x,y,-z
1/2-x,y,1/2+z
1/2+x,1/2-y,1/2+z
loop_
_atom_site_type_symbol
_atom_site_label
_atom_site_fract_x
_atom_site_fract_y
_atom_site_fract_z
Si Si1 0.722338 0.373847 0.805112
Si Si2 0.000000 0.982489 0.750000
Si Si3 0.431938 0.400342 0.564219
Si Si4 0.724307 0.308487 0.548243
Si Si5 0.122124 0.073763 0.734050
Si Si6 0.561496 0.836543 0.562662
Si Si7 0.000000 0.750000 0.250000
O O1 0.630099 0.392886 0.807420
O O2 0.744331 0.323722 0.705809
O O3 0.783536 0.422801 0.773786
O O4 0.731249 0.351945 0.957861
O O5 0.005892 0.945925 0.887040
O O6 0.081870 0.016322 0.753703
O O7 0.384993 0.414318 0.426502
O O8 0.483757 0.347567 0.530785
O O9 0.750000 0.250000 0.500000
O O10 0.631213 0.321018 0.540015
O O11 0.075470 0.114014 0.834600
O O12 0.556386 0.785085 0.656441
#
# Coordination Sequence:
#
# PCOD8283537 Si02
#       7
#    16   8  16  16  16  16   4
#     4  11  25  45  70 100 153 182 236 313 354 430
#     4  12  25  42  80  96 136 192 235 298 372 436
#     4  12  23  47  70 106 144 182 245 307 362 430
#     4  11  25  43  68 103 140 197 239 289 365 434
#     4  11  23  46  66 108 137 188 237 299 359 443
#     4  11  25  41  72 102 143 181 248 293 362 436
#     4  12  22  40  72 102 132 196 228 302 360 438
#
# _framework density 22.408397999999998
#
# number of rings (size 3 to 8) (size 9 to 14) (size 15 to 20)
#    0.000    0.696    5.217    2.087    7.304    0.696 
#    0.000    1.739    0.000    0.000    0.000    0.000 
#    0.000    0.000    0.000    0.000    0.000    0.000 
#
# Total GULP energy -570028.369778 kJ/mol
# GULP energy per Si atom -12391.921082 kJ/mol
# Density = 2.235740 g / cm^3
# Si number density = 22.408398 Si / 1000 Ang^3
#
#
#
# Elastic Constant Matrix: (Units=GPa)
#
#
# Indices 1 2 3 4 5 6 
#
# 1 121.1034 58.7940 45.8817 0.0000 0.0000 0.0000
# 2 58.7940 103.8195 34.7905 0.0000 0.0000 0.0000
# 3 45.8817 34.7905 91.2104 0.0000 0.0000 0.0000
# 4 0.0000 0.0000 0.0000 36.1140 0.0000 0.0000
# 5 0.0000 0.0000 0.0000 0.0000 29.8188 0.0000
# 6 0.0000 0.0000 0.0000 0.0000 0.0000 4.0732
#
#
#
# Elastic Compliance Matrix: (Units=1/GPa)
#
#
# Indices 1 2 3 4 5 6 
#
# 1 0.012627 -0.005759 -0.004156 0.000000 0.000000 0.000000
# 2 -0.005759 0.013670 -0.002317 0.000000 0.000000 0.000000
# 3 -0.004156 -0.002317 0.013938 0.000000 0.000000 0.000000
# 4 0.000000 0.000000 0.000000 0.027690 0.000000 0.000000
# 5 0.000000 0.000000 0.000000 0.000000 0.033536 0.000000
# 6 0.000000 0.000000 0.000000 0.000000 0.000000 0.245506
#
#
# Mechanical properties :
#
#
# Convention : Reuss Voigt Hill
#
# Bulk Modulus (GPa) = 63.40211 66.11842 64.76026
# Shear Modulus (GPa) = 13.27360 25.77901 19.52631
#
# Velocity S-wave (km/s) = 2.43646 3.39546 2.95512
# Velocity P-wave (km/s) = 6.02250 6.70391 6.37232
#
# Compressibility (1/GPa) = 0.01577235
#
# Stress axis : x y z
#
# Youngs Moduli (GPa) = 79.19251 73.15419 71.74654
#
# Poissons Ratio (x) = 0.42126 0.29815
# Poissons Ratio (y) = 0.45603 0.16626
# Poissons Ratio (z) = 0.32909 0.16953
#
# Static dielectric constant tensor:
#      x y z
#    x 4.190410 0.000000 0.000000 
#    y 0.000000 3.953130 0.000000 
#    z 0.000000 0.000000 4.484280 
# 
# 
# High freq. dielectric constant tensor:
#      x y z
#    x 1.891530 0.000000 0.000000 
#    y 0.000000 1.865550 0.000000 
#    z 0.000000 0.000000 1.892500 
# 
# From -- ./inp_files/14501.got.cif
#   From: 2010.03.12/outbox.cif.g09.slc.cpg/sg68_8_cif.got.tgz:14501.got - 2010.04.10 23:14:56.
