data_PCOD8283491
_publ_section_title
;
Structure prediction by ZEFSAII (Michael W. Deem and Ramdas Pophale) SiO2 
 PCOD8283491
Probable space group: C C C A
;
_chemical_formula_sum "Si O2"
_cell_formula_units_Z 64
_cell_length_a 23.091008
_cell_length_b 8.402583
_cell_length_c 13.349573
_cell_angle_alpha 90.000000
_cell_angle_beta 90.000000
_cell_angle_gamma 90.000000
_cell_volume 2590.139037
_symmetry_space_group_name_H-M "C C C A"
_symmetry_group_IT_number 68
_space_group.IT_coordinate_system_code '2'
_symmetry_cell_setting 'orthorhombic'
loop_
_space_group_symop_operation_xyz
x,y,z
-x,1/2-y,z
x,1/2-y,1/2-z
-x,y,1/2-z
-x,-y,-z
x,1/2+y,-z
-x,1/2+y,1/2+z
x,-y,1/2+z
1/2+x,1/2+y,z
1/2-x,-y,z
1/2+x,-y,1/2-z
1/2-x,1/2+y,1/2-z
1/2-x,1/2-y,-z
1/2+x,y,-z
1/2-x,y,1/2+z
1/2+x,1/2-y,1/2+z
loop_
_atom_site_type_symbol
_atom_site_label
_atom_site_fract_x
_atom_site_fract_y
_atom_site_fract_z
Si Si1 0.121368 0.541639 0.602031
Si Si2 0.558766 0.849778 0.447412
Si Si3 0.208592 0.377830 0.950106
Si Si4 0.105799 0.899258 0.194763
O O1 0.070860 0.424236 0.557344
O O2 0.108469 0.728764 0.585444
O O3 0.179773 0.515115 0.539014
O O4 0.131019 0.514729 0.719417
O O5 0.500000 0.750000 0.444558
O O6 0.559610 0.001051 0.371045
O O7 0.250000 0.500000 0.889920
O O8 0.157666 0.322827 0.873610
O O9 0.250000 0.250000 0.000000
O O10 0.075048 0.750000 0.250000
#
# Coordination Sequence:
#
# PCOD8283491 Si02
#       4
#    16  16  16  16
#     4  11  23  43  66  97 138 178 231 294 347 412
#     4  11  24  45  71 100 138 186 232 289 358 422
#     4  11  23  41  65  95 136 184 230 283 349 414
#     4  11  24  42  66 100 139 180 232 291 344 413
#
# _framework density 24.709098999999998
#
# number of rings (size 3 to 8) (size 9 to 14) (size 15 to 20)
#    0.000    1.000    0.000    9.000    0.000    5.000 
#    0.000    1.250    0.000    1.500    0.000    0.000 
#    0.000    0.000    0.000    0.000    0.000    0.000 
#
# Total GULP energy -396478.087930 kJ/mol
# GULP energy per Si atom -12389.940248 kJ/mol
# Density = 2.465286 g / cm^3
# Si number density = 24.709099 Si / 1000 Ang^3
#
#
#
# Elastic Constant Matrix: (Units=GPa)
#
#
# Indices 1 2 3 4 5 6 
#
# 1 108.4533 53.2614 45.5022 0.0000 0.0000 0.0000
# 2 53.2614 123.7438 32.3167 0.0000 0.0000 0.0000
# 3 45.5022 32.3167 149.9293 0.0000 0.0000 0.0000
# 4 0.0000 0.0000 0.0000 51.0570 0.0000 0.0000
# 5 0.0000 0.0000 0.0000 0.0000 17.3740 0.0000
# 6 0.0000 0.0000 0.0000 0.0000 0.0000 60.7176
#
#
#
# Elastic Compliance Matrix: (Units=1/GPa)
#
#
# Indices 1 2 3 4 5 6 
#
# 1 0.012743 -0.004742 -0.002845 0.000000 0.000000 0.000000
# 2 -0.004742 0.010328 -0.000787 0.000000 0.000000 0.000000
# 3 -0.002845 -0.000787 0.007703 0.000000 0.000000 0.000000
# 4 0.000000 0.000000 0.000000 0.019586 0.000000 0.000000
# 5 0.000000 0.000000 0.000000 0.000000 0.057557 0.000000
# 6 0.000000 0.000000 0.000000 0.000000 0.000000 0.016470
#
#
# Mechanical properties :
#
#
# Convention : Reuss Voigt Hill
#
# Bulk Modulus (GPa) = 71.29864 71.58743 71.44303
# Shear Modulus (GPa) = 34.29127 42.56612 38.42870
#
# Velocity S-wave (km/s) = 3.72936 4.15503 3.94794
# Velocity P-wave (km/s) = 6.88927 7.21485 7.05394
#
# Compressibility (1/GPa) = 0.01402551
#
# Stress axis : x y z
#
# Youngs Moduli (GPa) = 78.47460 96.82729 129.81987
#
# Poissons Ratio (x) = 0.45913 0.36938
# Poissons Ratio (y) = 0.37210 0.10217
# Poissons Ratio (z) = 0.22329 0.07621
#
# Static dielectric constant tensor:
#      x y z
#    x 4.445390 0.000000 0.000000 
#    y 0.000000 4.881870 0.000000 
#    z 0.000000 0.000000 4.503980 
# 
# 
# High freq. dielectric constant tensor:
#      x y z
#    x 1.960730 0.000000 0.000000 
#    y 0.000000 2.012900 0.000000 
#    z 0.000000 0.000000 1.978870 
# 
# From -- ./inp_files/24997.got.cif
#   From: 2010.03.12/outbox.cif.g09.slc.cpg/sg68_13_cif.got.tgz:24997.got - 2010.04.10 23:14:56.
