data_PCOD8283014
_publ_section_title
;
Structure prediction by ZEFSAII (Michael W. Deem and Ramdas Pophale) SiO2 
 PCOD8283014
Probable space group: C C C A
;
_chemical_formula_sum "Si O2"
_cell_formula_units_Z 92
_cell_length_a 15.495771
_cell_length_b 11.566925
_cell_length_c 23.702694
_cell_angle_alpha 90.000000
_cell_angle_beta 90.000000
_cell_angle_gamma 90.000000
_cell_volume 4248.433445
_symmetry_space_group_name_H-M "C C C A"
_symmetry_group_IT_number 68
_space_group.IT_coordinate_system_code '2'
_symmetry_cell_setting 'orthorhombic'
loop_
_space_group_symop_operation_xyz
x,y,z
-x,1/2-y,z
x,1/2-y,1/2-z
-x,y,1/2-z
-x,-y,-z
x,1/2+y,-z
-x,1/2+y,1/2+z
x,-y,1/2+z
1/2+x,1/2+y,z
1/2-x,-y,z
1/2+x,-y,1/2-z
1/2-x,1/2+y,1/2-z
1/2-x,1/2-y,-z
1/2+x,y,-z
1/2-x,y,1/2+z
1/2+x,1/2-y,1/2+z
loop_
_atom_site_type_symbol
_atom_site_label
_atom_site_fract_x
_atom_site_fract_y
_atom_site_fract_z
Si Si1 0.750000 0.500000 0.985694
Si Si2 0.477184 0.995928 0.106153
Si Si3 0.150871 0.616077 0.110073
Si Si4 0.125430 0.331588 0.960663
Si Si5 0.584384 0.035320 0.779571
Si Si6 0.750000 0.500000 0.797415
Si Si7 0.000000 0.750000 0.750000
Si Si8 0.000000 0.250000 0.051130
O O1 0.784804 0.606647 0.023204
O O2 0.825655 0.451006 0.947071
O O3 0.406212 0.010863 0.156507
O O4 0.491998 0.862998 0.089888
O O5 0.564184 0.053474 0.130795
O O6 0.443807 0.068497 0.053096
O O7 0.139660 0.750708 0.094215
O O8 0.222132 0.605061 0.160367
O O9 0.086031 0.259166 0.012623
O O10 0.500000 0.975426 0.750000
O O11 0.561820 0.170841 0.788515
O O12 0.670380 0.027429 0.742949
#
# Coordination Sequence:
#
# PCOD8283014 Si02
#       8
#     8  16  16  16  16   8   4   8
#     4  11  24  41  60 104 140 179 232 279 338 426
#     4  12  23  42  71 102 133 185 235 279 358 422
#     4  11  22  43  70  98 138 187 229 282 354 426
#     4  12  24  43  67 101 146 177 227 290 351 419
#     4  10  22  44  69  96 136 176 238 296 339 419
#     4  11  24  45  72 100 138 183 236 291 364 418
#     4   8  18  44  68  88 128 172 228 282 348 390
#     4  12  23  40  75  98 135 192 230 281 350 438
#
# _framework density 21.655042000000002
#
# number of rings (size 3 to 8) (size 9 to 14) (size 15 to 20)
#    0.522    0.348    5.217    2.609    0.000    0.696 
#    6.261    0.000    0.000    0.000    0.000    0.000 
#    0.000    0.000    0.000    0.000    0.000    0.000 
#
# Total GULP energy -570068.339521 kJ/mol
# GULP energy per Si atom -12392.789990 kJ/mol
# Density = 2.160575 g / cm^3
# Si number density = 21.655042 Si / 1000 Ang^3
#
#
#
# Elastic Constant Matrix: (Units=GPa)
#
#
# Indices 1 2 3 4 5 6 
#
# 1 124.0722 41.2333 62.9710 0.0000 0.0000 0.0000
# 2 41.2333 115.3276 47.7076 0.0000 0.0000 0.0000
# 3 62.9710 47.7076 115.8140 0.0000 0.0000 0.0000
# 4 0.0000 0.0000 0.0000 15.8828 0.0000 0.0000
# 5 0.0000 0.0000 0.0000 0.0000 48.5948 0.0000
# 6 0.0000 0.0000 0.0000 0.0000 0.0000 34.0528
#
#
#
# Elastic Compliance Matrix: (Units=1/GPa)
#
#
# Indices 1 2 3 4 5 6 
#
# 1 0.011443 -0.001829 -0.005468 0.000000 0.000000 0.000000
# 2 -0.001829 0.010744 -0.003431 0.000000 0.000000 0.000000
# 3 -0.005468 -0.003431 0.013021 0.000000 0.000000 0.000000
# 4 0.000000 0.000000 0.000000 0.062961 0.000000 0.000000
# 5 0.000000 0.000000 0.000000 0.000000 0.020578 0.000000
# 6 0.000000 0.000000 0.000000 0.000000 0.000000 0.029366
#
#
# Mechanical properties :
#
#
# Convention : Reuss Voigt Hill
#
# Bulk Modulus (GPa) = 72.72251 73.22642 72.97446
# Shear Modulus (GPa) = 28.70982 33.25952 30.98467
#
# Velocity S-wave (km/s) = 3.64508 3.92328 3.78673
# Velocity P-wave (km/s) = 7.16733 7.37639 7.27261
#
# Compressibility (1/GPa) = 0.01375090
#
# Stress axis : x y z
#
# Youngs Moduli (GPa) = 87.38859 93.07168 76.79682
#
# Poissons Ratio (x) = 0.17024 0.41996
# Poissons Ratio (y) = 0.15985 0.26352
# Poissons Ratio (z) = 0.47788 0.31937
#
# Static dielectric constant tensor:
#      x y z
#    x 3.846390 0.000000 0.000000 
#    y 0.000000 3.840250 0.000000 
#    z 0.000000 0.000000 3.834990 
# 
# 
# High freq. dielectric constant tensor:
#      x y z
#    x 1.845550 0.000000 0.000000 
#    y 0.000000 1.841050 0.000000 
#    z 0.000000 0.000000 1.850540 
# 
# From -- ./inp_files/39498.got.cif
#   From: 2010.03.12/outbox.cif.g09.slc.cpg/sg68_20_cif.got.tgz:39498.got - 2010.04.10 23:14:56.
