data_PCOD8283790
_publ_section_title
;
Structure prediction by ZEFSAII (Michael W. Deem and Ramdas Pophale) SiO2 
 PCOD8283790
Probable space group: F M M M
;
_chemical_formula_sum "Si O2"
_cell_formula_units_Z 112
_cell_length_a 30.395396
_cell_length_b 28.029918
_cell_length_c 7.954263
_cell_angle_alpha 90.000000
_cell_angle_beta 90.000000
_cell_angle_gamma 90.000000
_cell_volume 6776.876629
_symmetry_space_group_name_H-M "F M M M"
_symmetry_group_IT_number 69
_symmetry_cell_setting 'orthorhombic'
loop_
_space_group_symop_operation_xyz
x,y,z
-x,-y,z
x,-y,-z
-x,y,-z
-x,-y,-z
x,y,-z
-x,y,z
x,-y,z
x,1/2+y,1/2+z
-x,1/2-y,1/2+z
x,1/2-y,1/2-z
-x,1/2+y,1/2-z
-x,1/2-y,1/2-z
x,1/2+y,1/2-z
-x,1/2+y,1/2+z
x,1/2-y,1/2+z
1/2+x,y,1/2+z
1/2-x,-y,1/2+z
1/2+x,-y,1/2-z
1/2-x,y,1/2-z
1/2-x,-y,1/2-z
1/2+x,y,1/2-z
1/2-x,y,1/2+z
1/2+x,-y,1/2+z
1/2+x,1/2+y,z
1/2-x,1/2-y,z
1/2+x,1/2-y,-z
1/2-x,1/2+y,-z
1/2-x,1/2-y,-z
1/2+x,1/2+y,-z
1/2-x,1/2+y,z
1/2+x,1/2-y,z
loop_
_atom_site_type_symbol
_atom_site_label
_atom_site_fract_x
_atom_site_fract_y
_atom_site_fract_z
Si Si1 0.449097 0.116251 0.188144
Si Si2 0.947800 0.446730 0.500000
Si Si3 0.795754 0.195690 0.696139
Si Si4 0.388383 0.804478 0.691800
O O1 0.500000 0.128248 0.221387
O O2 0.431351 0.079712 0.330269
O O3 0.422439 0.165489 0.197881
O O4 0.442744 0.094525 0.000000
O O5 0.927695 0.500000 0.500000
O O6 0.000000 0.449504 0.500000
O O7 0.803403 0.190926 0.500000
O O8 0.791331 0.250000 0.750000
O O9 0.750000 0.169398 0.750000
O O10 0.838944 0.174058 0.786144
O O11 0.403079 0.808550 0.500000
O O12 0.389700 0.750000 0.750000
#
# Coordination Sequence:
#
# PCOD8283790 Si02
#       4
#    32  16  32  32
#     4  10  20  34  50  71  99 129 162 201 241 286
#     4   9  18  34  54  74  96 123 156 200 251 292
#     4  10  17  27  41  60  86 120 161 200 240 280
#     4  11  20  31  46  66  95 133 169 201 238 281
#
# _framework density 16.526788
#
# number of rings (size 3 to 8) (size 9 to 14) (size 15 to 20)
#    0.000    1.857    1.429    7.714    0.000    1.143 
#    0.000    2.857    0.000    0.000    0.000    0.000 
#    0.000    1.143    0.571    0.000    0.000    0.000 
#
# Total GULP energy -347059.493786 kJ/mol
# GULP energy per Si atom -12394.981921 kJ/mol
# Density = 1.648917 g / cm^3
# Si number density = 16.526788 Si / 1000 Ang^3
#
#
#
# Elastic Constant Matrix: (Units=GPa)
#
#
# Indices 1 2 3 4 5 6 
#
# 1 76.5946 35.9183 26.3597 -0.0021 0.0082 -0.0155
# 2 35.9183 67.4650 33.0497 -0.0113 -0.0073 0.0105
# 3 26.3597 33.0497 122.7949 0.0126 -0.0794 0.0651
# 4 -0.0021 -0.0113 0.0126 16.6500 -0.0059 0.0245
# 5 0.0082 -0.0073 -0.0794 -0.0059 26.0255 -0.0074
# 6 -0.0155 0.0105 0.0651 0.0245 -0.0074 1.3178
#
#
#
# Elastic Compliance Matrix: (Units=1/GPa)
#
#
# Indices 1 2 3 4 5 6 
#
# 1 0.017621 -0.008672 -0.001449 -0.000003 -0.000012 0.000348
# 2 -0.008672 0.021341 -0.003882 0.000016 -0.000003 -0.000081
# 3 -0.001449 -0.003882 0.009500 -0.000009 0.000028 -0.000455
# 4 -0.000003 0.000016 -0.000009 0.060062 0.000013 -0.001117
# 5 -0.000012 -0.000003 0.000028 0.000013 0.038424 0.000215
# 6 0.000348 -0.000081 -0.000455 -0.001117 0.000215 0.758876
#
#
# Mechanical properties :
#
#
# Convention : Reuss Voigt Hill
#
# Bulk Modulus (GPa) = 48.88480 50.83444 49.85962
# Shear Modulus (GPa) = 5.31548 20.23377 12.77463
#
# Velocity S-wave (km/s) = 1.79535 3.50280 2.78324
# Velocity P-wave (km/s) = 5.82589 6.86914 6.36891
#
# Compressibility (1/GPa) = 0.02045626
#
# Stress axis : x y z
#
# Youngs Moduli (GPa) = 56.75071 46.85775 105.26479
#
# Poissons Ratio (x) = 0.40633 0.15251
# Poissons Ratio (y) = 0.49212 0.40867
# Poissons Ratio (z) = 0.08222 0.18192
#
# Static dielectric constant tensor:
#      x y z
#    x 3.634260 -0.000030 0.000030 
#    y -0.000030 2.780680 -0.000040 
#    z 0.000030 -0.000040 3.359700 
# 
# 
# High freq. dielectric constant tensor:
#      x y z
#    x 1.633450 0.000000 0.000000 
#    y 0.000000 1.572910 0.000000 
#    z 0.000000 0.000000 1.663200 
# 
# From -- ./inp_files/4721.got.cif
#   From: 2010.03.12/outbox.cif.g09.slc.cpg/sg69_3_cif.got.tgz:4721.got - 2010.04.10 23:52:46.
