data_PCOD8283984
_publ_section_title
;
Structure prediction by ZEFSAII (Michael W. Deem and Ramdas Pophale) SiO2 
 PCOD8283984
Probable space group: F M M M
;
_chemical_formula_sum "Si O2"
_cell_formula_units_Z 144
_cell_length_a 21.022283
_cell_length_b 18.305740
_cell_length_c 19.521559
_cell_angle_alpha 90.000000
_cell_angle_beta 90.000000
_cell_angle_gamma 90.000000
_cell_volume 7512.451229
_symmetry_space_group_name_H-M "F M M M"
_symmetry_group_IT_number 69
_symmetry_cell_setting 'orthorhombic'
loop_
_space_group_symop_operation_xyz
x,y,z
-x,-y,z
x,-y,-z
-x,y,-z
-x,-y,-z
x,y,-z
-x,y,z
x,-y,z
x,1/2+y,1/2+z
-x,1/2-y,1/2+z
x,1/2-y,1/2-z
-x,1/2+y,1/2-z
-x,1/2-y,1/2-z
x,1/2+y,1/2-z
-x,1/2+y,1/2+z
x,1/2-y,1/2+z
1/2+x,y,1/2+z
1/2-x,-y,1/2+z
1/2+x,-y,1/2-z
1/2-x,y,1/2-z
1/2-x,-y,1/2-z
1/2+x,y,1/2-z
1/2-x,y,1/2+z
1/2+x,-y,1/2+z
1/2+x,1/2+y,z
1/2-x,1/2-y,z
1/2+x,1/2-y,-z
1/2-x,1/2+y,-z
1/2-x,1/2-y,-z
1/2+x,1/2+y,-z
1/2-x,1/2+y,z
1/2+x,1/2-y,z
loop_
_atom_site_type_symbol
_atom_site_label
_atom_site_fract_x
_atom_site_fract_y
_atom_site_fract_z
Si Si1 0.848907 0.863690 0.576280
Si Si2 0.312002 0.586289 0.708302
Si Si3 0.931730 0.000000 0.580484
Si Si4 0.426954 0.668617 0.221702
Si Si5 0.572070 0.217826 0.575068
O O1 0.821117 0.879216 0.500000
O O2 0.796693 0.871614 0.636004
O O3 0.897253 0.926035 0.602212
O O4 0.881755 0.786241 0.578807
O O5 0.318472 0.500000 0.697821
O O6 0.250000 0.607699 0.750000
O O7 0.376939 0.614377 0.743567
O O8 0.939853 0.000000 0.500000
O O9 0.000000 0.000000 0.617222
O O10 0.500000 0.644313 0.237042
O O11 0.415451 0.750000 0.250000
O O12 0.414104 0.664939 0.139186
O O13 0.581751 0.179068 0.500000
O O14 0.500000 0.247611 0.581003
#
# Coordination Sequence:
#
# PCOD8283984 Si02
#       5
#    32  32  16  32  32
#     4  10  18  31  51  78 109 142 179 223 279 345
#     4  11  24  40  55  78 114 155 191 230 279 334
#     4   9  16  24  41  74 112 142 169 208 268 339
#     4  10  20  36  58  85 113 145 186 229 277 335
#     4   9  17  31  53  81 114 145 176 224 282 334
#
# _framework density 19.168177
#
# number of rings (size 3 to 8) (size 9 to 14) (size 15 to 20)
#    0.000    2.111    3.333    0.667    0.000    4.444 
#    0.000    1.111    0.000    4.667    0.000    3.111 
#    0.000    0.000    0.000    0.000    0.000    0.000 
#
# Total GULP energy -445978.809845 kJ/mol
# GULP energy per Si atom -12388.300273 kJ/mol
# Density = 1.912455 g / cm^3
# Si number density = 19.168177 Si / 1000 Ang^3
#
#
#
# Elastic Constant Matrix: (Units=GPa)
#
#
# Indices 1 2 3 4 5 6 
#
# 1 77.1172 20.5347 55.8812 0.0000 0.0000 0.0000
# 2 20.5347 29.0721 25.0873 0.0000 0.0000 0.0000
# 3 55.8812 25.0873 179.4514 0.0000 0.0000 0.0000
# 4 0.0000 0.0000 0.0000 23.5275 0.0000 0.0000
# 5 0.0000 0.0000 0.0000 0.0000 26.0727 0.0000
# 6 0.0000 0.0000 0.0000 0.0000 0.0000 41.0453
#
#
#
# Elastic Compliance Matrix: (Units=1/GPa)
#
#
# Indices 1 2 3 4 5 6 
#
# 1 0.018732 -0.009322 -0.004530 0.000000 0.000000 0.000000
# 2 -0.009322 0.043755 -0.003214 0.000000 0.000000 0.000000
# 3 -0.004530 -0.003214 0.007432 0.000000 0.000000 0.000000
# 4 0.000000 0.000000 0.000000 0.042503 0.000000 0.000000
# 5 0.000000 0.000000 0.000000 0.000000 0.038354 0.000000
# 6 0.000000 0.000000 0.000000 0.000000 0.000000 0.024363
#
#
# Mechanical properties :
#
#
# Convention : Reuss Voigt Hill
#
# Bulk Modulus (GPa) = 27.94258 54.29410 41.11834
# Shear Modulus (GPa) = 22.60372 30.40493 26.50433
#
# Velocity S-wave (km/s) = 3.43772 3.98706 3.72254
# Velocity P-wave (km/s) = 5.51058 7.04146 6.32252
#
# Compressibility (1/GPa) = 0.03578767
#
# Stress axis : x y z
#
# Youngs Moduli (GPa) = 53.38438 22.85433 134.54438
#
# Poissons Ratio (x) = 0.21305 0.60948
# Poissons Ratio (y) = 0.49766 0.43244
# Poissons Ratio (z) = 0.24183 0.07346
#
# Static dielectric constant tensor:
#      x y z
#    x 3.466730 0.000000 0.000000 
#    y 0.000000 3.172730 0.000000 
#    z 0.000000 0.000000 4.251160 
# 
# 
# High freq. dielectric constant tensor:
#      x y z
#    x 1.719240 0.000000 0.000000 
#    y 0.000000 1.710050 0.000000 
#    z 0.000000 0.000000 1.776810 
# 
# From -- ./inp_files/24468.got.cif
#   From: 2010.03.12/outbox.cif.g09.slc.cpg/sg69_13_cif.got.tgz:24468.got - 2010.04.10 23:52:46.
