data_PCOD8283270
_publ_section_title
;
Structure prediction by ZEFSAII (Michael W. Deem and Ramdas Pophale) SiO2 
 PCOD8283270
Probable space group: C C C A
;
_chemical_formula_sum "Si O2"
_cell_formula_units_Z 80
_cell_length_a 9.130715
_cell_length_b 17.750129
_cell_length_c 24.021878
_cell_angle_alpha 90.000000
_cell_angle_beta 90.000000
_cell_angle_gamma 90.000000
_cell_volume 3893.258656
_symmetry_space_group_name_H-M "C C C A"
_symmetry_group_IT_number 68
_space_group.IT_coordinate_system_code '2'
_symmetry_cell_setting 'orthorhombic'
loop_
_space_group_symop_operation_xyz
x,y,z
-x,1/2-y,z
x,1/2-y,1/2-z
-x,y,1/2-z
-x,-y,-z
x,1/2+y,-z
-x,1/2+y,1/2+z
x,-y,1/2+z
1/2+x,1/2+y,z
1/2-x,-y,z
1/2+x,-y,1/2-z
1/2-x,1/2+y,1/2-z
1/2-x,1/2-y,-z
1/2+x,y,-z
1/2-x,y,1/2+z
1/2+x,1/2-y,1/2+z
loop_
_atom_site_type_symbol
_atom_site_label
_atom_site_fract_x
_atom_site_fract_y
_atom_site_fract_z
Si Si1 0.658261 0.243930 0.581662
Si Si2 0.250000 0.000000 0.856221
Si Si3 0.675418 0.359120 0.020581
Si Si4 0.249732 0.164587 0.814765
Si Si5 0.911991 0.550418 0.458028
Si Si6 0.000000 0.750000 0.750000
Si Si7 0.500000 0.250000 0.250000
O O1 0.500000 0.250000 0.611051
O O2 0.634939 0.205594 0.522425
O O3 0.723917 0.327085 0.570643
O O4 0.761373 0.194773 0.621860
O O5 0.262656 0.073451 0.816725
O O6 0.111326 0.010968 0.897985
O O7 0.522416 0.379820 0.050256
O O8 0.756879 0.426116 0.986385
O O9 0.395910 0.195780 0.785938
O O10 0.102184 0.193389 0.785197
O O11 0.000000 0.500000 0.500000
#
# Coordination Sequence:
#
# PCOD8283270 Si02
#       7
#    16   8  16  16  16   4   4
#     4  11  21  37  65  94 130 174 221 260 308 382
#     4  12  26  40  68  92 136 174 212 264 336 392
#     4  11  23  35  59  94 137 176 217 252 297 380
#     4  11  24  46  70  97 123 164 216 278 338 388
#     4  12  21  38  54  90 137 181 208 253 310 379
#     4  10  24  48  76  88 116 160 224 282 332 386
#     4  10  28  48  72  96 120 156 224 298 340 382
#
# _framework density 20.548338999999999
#
# number of rings (size 3 to 8) (size 9 to 14) (size 15 to 20)
#    0.000    0.800    7.000    0.000    2.800    0.800 
#    0.000    0.000    0.000    0.000    0.000    0.000 
#    0.000    0.000    0.000    0.000    0.000    0.000 
#
# Total GULP energy -495810.444201 kJ/mol
# GULP energy per Si atom -12395.261105 kJ/mol
# Density = 2.050157 g / cm^3
# Si number density = 20.548339 Si / 1000 Ang^3
#
#
#
# Elastic Constant Matrix: (Units=GPa)
#
#
# Indices 1 2 3 4 5 6 
#
# 1 140.5682 46.4790 47.1693 0.0000 0.0000 0.0000
# 2 46.4790 130.3164 56.3552 0.0000 0.0000 0.0000
# 3 47.1693 56.3552 80.4793 0.0000 0.0000 0.0000
# 4 0.0000 0.0000 0.0000 38.8239 0.0000 0.0000
# 5 0.0000 0.0000 0.0000 0.0000 26.7882 0.0000
# 6 0.0000 0.0000 0.0000 0.0000 0.0000 31.9447
#
#
#
# Elastic Compliance Matrix: (Units=1/GPa)
#
#
# Indices 1 2 3 4 5 6 
#
# 1 0.009015 -0.001334 -0.004349 0.000000 0.000000 0.000000
# 2 -0.001334 0.011204 -0.007064 0.000000 0.000000 0.000000
# 3 -0.004349 -0.007064 0.019921 0.000000 0.000000 0.000000
# 4 0.000000 0.000000 0.000000 0.025757 0.000000 0.000000
# 5 0.000000 0.000000 0.000000 0.000000 0.037330 0.000000
# 6 0.000000 0.000000 0.000000 0.000000 0.000000 0.031304
#
#
# Mechanical properties :
#
#
# Convention : Reuss Voigt Hill
#
# Bulk Modulus (GPa) = 68.28056 72.37455 70.32756
# Shear Modulus (GPa) = 30.32015 32.93539 31.62777
#
# Velocity S-wave (km/s) = 3.84546 4.00787 3.92751
# Velocity P-wave (km/s) = 7.28135 7.53097 7.40721
#
# Compressibility (1/GPa) = 0.01464546
#
# Stress axis : x y z
#
# Youngs Moduli (GPa) = 110.93125 89.25223 50.19881
#
# Poissons Ratio (x) = 0.11910 0.21832
# Poissons Ratio (y) = 0.14803 0.35458
# Poissons Ratio (z) = 0.48245 0.63044
#
# Static dielectric constant tensor:
#      x y z
#    x 4.539000 0.000000 0.000000 
#    y 0.000000 4.093990 0.000000 
#    z 0.000000 0.000000 3.570400 
# 
# 
# High freq. dielectric constant tensor:
#      x y z
#    x 1.816950 0.000000 0.000000 
#    y 0.000000 1.811850 0.000000 
#    z 0.000000 0.000000 1.779350 
# 
# From -- ./inp_files/43075.got.cif
#   From: 2010.03.12/outbox.cif.g09.slc.cpg/sg68_22_cif.got.tgz:43075.got - 2010.04.10 23:14:56.
