data_PCOD8283890
_publ_section_title
;
Structure prediction by ZEFSAII (Michael W. Deem and Ramdas Pophale) SiO2 
 PCOD8283890
Probable space group: F M M M
;
_chemical_formula_sum "Si O2"
_cell_formula_units_Z 160
_cell_length_a 23.006981
_cell_length_b 18.658837
_cell_length_c 23.054062
_cell_angle_alpha 90.000000
_cell_angle_beta 90.000000
_cell_angle_gamma 90.000000
_cell_volume 9896.728617
_symmetry_space_group_name_H-M "F M M M"
_symmetry_group_IT_number 69
_symmetry_cell_setting 'orthorhombic'
loop_
_space_group_symop_operation_xyz
x,y,z
-x,-y,z
x,-y,-z
-x,y,-z
-x,-y,-z
x,y,-z
-x,y,z
x,-y,z
x,1/2+y,1/2+z
-x,1/2-y,1/2+z
x,1/2-y,1/2-z
-x,1/2+y,1/2-z
-x,1/2-y,1/2-z
x,1/2+y,1/2-z
-x,1/2+y,1/2+z
x,1/2-y,1/2+z
1/2+x,y,1/2+z
1/2-x,-y,1/2+z
1/2+x,-y,1/2-z
1/2-x,y,1/2-z
1/2-x,-y,1/2-z
1/2+x,y,1/2-z
1/2-x,y,1/2+z
1/2+x,-y,1/2+z
1/2+x,1/2+y,z
1/2-x,1/2-y,z
1/2+x,1/2-y,-z
1/2-x,1/2+y,-z
1/2-x,1/2-y,-z
1/2+x,1/2+y,-z
1/2-x,1/2+y,z
1/2+x,1/2-y,z
loop_
_atom_site_type_symbol
_atom_site_label
_atom_site_fract_x
_atom_site_fract_y
_atom_site_fract_z
Si Si1 0.660746 0.210803 0.931755
Si Si2 0.430797 0.000000 0.661826
Si Si3 0.221518 0.143939 0.931890
Si Si4 0.568579 0.711153 0.338992
Si Si5 0.338112 0.500000 0.930887
Si Si6 0.931486 0.144227 0.221253
O O1 0.713385 0.160212 0.909118
O O2 0.677278 0.292511 0.916095
O O3 0.602651 0.189426 0.897210
O O4 0.648333 0.201254 0.000000
O O5 0.401593 0.000000 0.598419
O O6 0.407936 0.068810 0.697564
O O7 0.500000 0.000000 0.652406
O O8 0.197579 0.068824 0.907938
O O9 0.227116 0.139447 0.000000
O O10 0.500000 0.706051 0.351851
O O11 0.588068 0.791092 0.320441
O O12 0.588525 0.657360 0.287546
O O13 0.347805 0.500000 0.000000
O O14 0.000000 0.143478 0.221510
#
# Coordination Sequence:
#
# PCOD8283890 Si02
#       6
#    32  16  32  32  16  32
#     4   9  16  28  46  66  88 114 146 183 219 256
#     4  10  18  29  47  69  92 116 142 174 212 256
#     4   8  16  29  44  63  88 121 151 170 203 262
#     4   9  16  28  46  66  88 114 146 183 219 256
#     4  10  18  29  47  69  92 116 142 174 212 256
#     4   8  16  29  44  63  88 121 151 170 203 262
#
# _framework density 16.166958000000001
#
# number of rings (size 3 to 8) (size 9 to 14) (size 15 to 20)
#    0.000    3.200    0.000    3.600    0.000    0.600 
#    0.000    1.000    0.000   28.800    0.000    0.000 
#    0.000    8.000    0.000    0.000    0.000    0.400 
#
# Total GULP energy -495689.583207 kJ/mol
# GULP energy per Si atom -12392.239580 kJ/mol
# Density = 1.613016 g / cm^3
# Si number density = 16.166958 Si / 1000 Ang^3
#
#
#
# Elastic Constant Matrix: (Units=GPa)
#
#
# Indices 1 2 3 4 5 6 
#
# 1 67.4132 29.3711 54.5781 0.0000 0.0000 0.0000
# 2 29.3711 102.2636 36.4724 0.0000 0.0000 0.0000
# 3 54.5781 36.4724 85.2009 0.0000 0.0000 0.0000
# 4 0.0000 0.0000 0.0000 15.3024 0.0000 0.0000
# 5 0.0000 0.0000 0.0000 0.0000 18.5342 0.0000
# 6 0.0000 0.0000 0.0000 0.0000 0.0000 14.9893
#
#
#
# Elastic Compliance Matrix: (Units=1/GPa)
#
#
# Indices 1 2 3 4 5 6 
#
# 1 0.031216 -0.002164 -0.019070 0.000000 0.000000 0.000000
# 2 -0.002164 0.011691 -0.003618 0.000000 0.000000 0.000000
# 3 -0.019070 -0.003618 0.025502 0.000000 0.000000 0.000000
# 4 0.000000 0.000000 0.000000 0.065349 0.000000 0.000000
# 5 0.000000 0.000000 0.000000 0.000000 0.053954 0.000000
# 6 0.000000 0.000000 0.000000 0.000000 0.000000 0.066714
#
#
# Mechanical properties :
#
#
# Convention : Reuss Voigt Hill
#
# Bulk Modulus (GPa) = 53.46530 55.08010 54.27270
# Shear Modulus (GPa) = 16.11007 18.72893 17.41950
#
# Velocity S-wave (km/s) = 3.16013 3.40732 3.28605
# Velocity P-wave (km/s) = 6.81599 7.04438 6.93113
#
# Compressibility (1/GPa) = 0.01870372
#
# Stress axis : x y z
#
# Youngs Moduli (GPa) = 32.03492 85.53850 39.21321
#
# Poissons Ratio (x) = 0.18512 0.74779
# Poissons Ratio (y) = 0.06933 0.14188
# Poissons Ratio (z) = 0.61090 0.30949
#
# Static dielectric constant tensor:
#      x y z
#    x 2.916070 0.000000 0.000000 
#    y 0.000000 4.045220 0.000000 
#    z 0.000000 0.000000 2.902400 
# 
# 
# High freq. dielectric constant tensor:
#      x y z
#    x 1.603390 0.000000 0.000000 
#    y 0.000000 1.618320 0.000000 
#    z 0.000000 0.000000 1.603530 
# 
# From -- ./inp_files/24875.got.cif
#   From: 2010.03.12/outbox.cif.g09.slc.cpg/sg69_13_cif.got.tgz:24875.got - 2010.04.10 23:52:46.
