data_PCOD8283634
_publ_section_title
;
Structure prediction by ZEFSAII (Michael W. Deem and Ramdas Pophale) SiO2 
 PCOD8283634
Probable space group: C C C A
;
_chemical_formula_sum "Si O2"
_cell_formula_units_Z 32
_cell_length_a 8.015913
_cell_length_b 15.640084
_cell_length_c 10.120344
_cell_angle_alpha 90.000000
_cell_angle_beta 90.000000
_cell_angle_gamma 90.000000
_cell_volume 1268.783000
_symmetry_space_group_name_H-M "C C C A"
_symmetry_group_IT_number 68
_space_group.IT_coordinate_system_code '2'
_symmetry_cell_setting 'orthorhombic'
loop_
_space_group_symop_operation_xyz
x,y,z
-x,1/2-y,z
x,1/2-y,1/2-z
-x,y,1/2-z
-x,-y,-z
x,1/2+y,-z
-x,1/2+y,1/2+z
x,-y,1/2+z
1/2+x,1/2+y,z
1/2-x,-y,z
1/2+x,-y,1/2-z
1/2-x,1/2+y,1/2-z
1/2-x,1/2-y,-z
1/2+x,y,-z
1/2-x,y,1/2+z
1/2+x,1/2-y,1/2+z
loop_
_atom_site_type_symbol
_atom_site_label
_atom_site_fract_x
_atom_site_fract_y
_atom_site_fract_z
Si Si1 0.614743 0.924290 0.621401
Si Si2 0.065148 0.842336 0.892276
O O1 0.500000 0.926064 0.750000
O O2 0.733091 0.839682 0.616087
O O3 0.496733 0.917393 0.492191
O O4 0.750000 0.000000 0.620546
O O5 0.000000 0.750000 0.936280
O O6 0.000000 0.870548 0.750000
#
# Coordination Sequence:
#
# PCOD8283634 Si02
#       2
#    16  16
#     4  12  26  47  73 106 146 191 239 297 357 426
#     4  11  25  46  72 106 144 188 239 294 358 428
#
# _framework density 25.221018999999998
#
# number of rings (size 3 to 8) (size 9 to 14) (size 15 to 20)
#    0.000    0.500    0.000    7.500    0.000    9.000 
#    0.000    0.000    0.000    0.000    0.000    0.000 
#    0.000    0.000    0.000    0.000    0.000    0.000 
#
# Total GULP energy -198342.518701 kJ/mol
# GULP energy per Si atom -12396.407419 kJ/mol
# Density = 2.516361 g / cm^3
# Si number density = 25.221019 Si / 1000 Ang^3
#
#
#
# Elastic Constant Matrix: (Units=GPa)
#
#
# Indices 1 2 3 4 5 6 
#
# 1 204.4246 54.2338 89.2599 0.0000 0.0000 0.0000
# 2 54.2338 124.3372 42.1261 0.0000 0.0000 0.0000
# 3 89.2599 42.1261 226.2644 0.0000 0.0000 0.0000
# 4 0.0000 0.0000 0.0000 -43.8100 0.0000 0.0000
# 5 0.0000 0.0000 0.0000 0.0000 57.9386 0.0000
# 6 0.0000 0.0000 0.0000 0.0000 0.0000 50.4685
#
#
#
# Elastic Compliance Matrix: (Units=1/GPa)
#
#
# Indices 1 2 3 4 5 6 
#
# 1 0.006367 -0.002056 -0.002129 0.000000 0.000000 0.000000
# 2 -0.002056 0.009248 -0.000911 0.000000 0.000000 0.000000
# 3 -0.002129 -0.000911 0.005429 0.000000 0.000000 0.000000
# 4 0.000000 0.000000 0.000000 -0.022826 0.000000 0.000000
# 5 0.000000 0.000000 0.000000 0.000000 0.017260 0.000000
# 6 0.000000 0.000000 0.000000 0.000000 0.000000 0.019814
#
#
# Mechanical properties :
#
#
# Convention : Reuss Voigt Hill
#
# Bulk Modulus (GPa) = 92.14261 102.91843 97.53052
# Shear Modulus (GPa) = 101.83222 37.54650 69.68936
#
# Velocity S-wave (km/s) = 6.36110 3.86255 5.26227
# Velocity P-wave (km/s) = 9.51655 7.79664 8.69921
#
# Compressibility (1/GPa) = 0.01085274
#
# Stress axis : x y z
#
# Youngs Moduli (GPa) = 157.06634 108.13233 184.19552
#
# Poissons Ratio (x) = 0.22230 0.39213
# Poissons Ratio (y) = 0.32289 0.16776
# Poissons Ratio (z) = 0.33438 0.09849
#
# Static dielectric constant tensor:
#      x y z
#    x 6.100900 0.000000 0.000000 
#    y 0.000000 4.747090 0.000000 
#    z 0.000000 0.000000 4.450100 
# 
# 
# High freq. dielectric constant tensor:
#      x y z
#    x 2.036650 0.000000 0.000000 
#    y 0.000000 2.016670 0.000000 
#    z 0.000000 0.000000 2.010210 
# 
# From -- ./inp_files/3117.got.cif
#   From: 2010.03.12/outbox.cif.g09.slc.cpg/sg68_2_cif.got.tgz:3117.got - 2010.04.10 23:14:56.
