data_PCOD8283204
_publ_section_title
;
Structure prediction by ZEFSAII (Michael W. Deem and Ramdas Pophale) SiO2 
 PCOD8283204
Probable space group: C C C A
;
_chemical_formula_sum "Si O2"
_cell_formula_units_Z 72
_cell_length_a 9.965825
_cell_length_b 21.956712
_cell_length_c 12.934230
_cell_angle_alpha 90.000000
_cell_angle_beta 90.000000
_cell_angle_gamma 90.000000
_cell_volume 2830.226164
_symmetry_space_group_name_H-M "C C C A"
_symmetry_group_IT_number 68
_space_group.IT_coordinate_system_code '2'
_symmetry_cell_setting 'orthorhombic'
loop_
_space_group_symop_operation_xyz
x,y,z
-x,1/2-y,z
x,1/2-y,1/2-z
-x,y,1/2-z
-x,-y,-z
x,1/2+y,-z
-x,1/2+y,1/2+z
x,-y,1/2+z
1/2+x,1/2+y,z
1/2-x,-y,z
1/2+x,-y,1/2-z
1/2-x,1/2+y,1/2-z
1/2-x,1/2-y,-z
1/2+x,y,-z
1/2-x,y,1/2+z
1/2+x,1/2-y,1/2+z
loop_
_atom_site_type_symbol
_atom_site_label
_atom_site_fract_x
_atom_site_fract_y
_atom_site_fract_z
Si Si1 0.500000 0.250000 0.420284
Si Si2 0.500000 0.652221 0.750000
Si Si3 0.159631 0.334692 0.044741
Si Si4 0.750000 0.000000 0.081634
Si Si5 0.601153 0.093711 0.955560
Si Si6 0.213210 0.105555 0.263615
O O1 0.539220 0.306949 0.348699
O O2 0.377443 0.268846 0.496244
O O3 0.369354 0.610362 0.772460
O O4 0.170908 0.333508 0.171087
O O5 0.046214 0.384521 0.012130
O O6 0.299065 0.354282 0.995442
O O7 0.687468 0.948331 0.154084
O O8 0.866343 0.971245 0.008889
O O9 0.616368 0.091525 0.831546
#
# Coordination Sequence:
#
# PCOD8283204 Si02
#       6
#     8   8  16   8  16  16
#     4  11  22  46  71 102 136 196 229 296 355 434
#     4  11  24  44  72 104 142 186 240 291 364 420
#     4  11  25  44  73 100 145 182 244 288 362 417
#     4  10  24  42  74 100 136 196 232 284 376 408
#     4  11  24  46  66 104 142 185 232 306 341 440
#     4  11  24  46  67 106 143 183 236 305 342 437
#
# _framework density 25.439661999999998
#
# number of rings (size 3 to 8) (size 9 to 14) (size 15 to 20)
#    0.000    1.111    2.222    4.000    0.000    7.111 
#    8.000    1.111    0.000    0.000    0.000    0.000 
#    0.000    0.000    0.000    0.000    0.000    0.000 
#
# Total GULP energy -446248.089342 kJ/mol
# GULP energy per Si atom -12395.780260 kJ/mol
# Density = 2.538176 g / cm^3
# Si number density = 25.439662 Si / 1000 Ang^3
#
#
#
# Elastic Constant Matrix: (Units=GPa)
#
#
# Indices 1 2 3 4 5 6 
#
# 1 76.9579 9.9144 -3.4414 0.0000 0.0000 0.0000
# 2 9.9144 71.4149 37.1610 0.0000 0.0000 0.0000
# 3 -3.4414 37.1610 173.5077 0.0000 0.0000 0.0000
# 4 0.0000 0.0000 0.0000 50.2297 0.0000 0.0000
# 5 0.0000 0.0000 0.0000 0.0000 38.5135 0.0000
# 6 0.0000 0.0000 0.0000 0.0000 0.0000 29.3093
#
#
#
# Elastic Compliance Matrix: (Units=1/GPa)
#
#
# Indices 1 2 3 4 5 6 
#
# 1 0.013315 -0.002235 0.000743 0.000000 0.000000 0.000000
# 2 -0.002235 0.016134 -0.003500 0.000000 0.000000 0.000000
# 3 0.000743 -0.003500 0.006528 0.000000 0.000000 0.000000
# 4 0.000000 0.000000 0.000000 0.019909 0.000000 0.000000
# 5 0.000000 0.000000 0.000000 0.000000 0.025965 0.000000
# 6 0.000000 0.000000 0.000000 0.000000 0.000000 0.034119
#
#
# Mechanical properties :
#
#
# Convention : Reuss Voigt Hill
#
# Bulk Modulus (GPa) = 38.47200 45.46094 41.96647
# Shear Modulus (GPa) = 37.14216 42.16029 39.65123
#
# Velocity S-wave (km/s) = 3.82515 4.07537 3.95224
# Velocity P-wave (km/s) = 5.88768 6.32880 6.11222
#
# Compressibility (1/GPa) = 0.02599293
#
# Stress axis : x y z
#
# Youngs Moduli (GPa) = 75.10169 61.98045 153.19225
#
# Poissons Ratio (x) = 0.13853 -0.11379
# Poissons Ratio (y) = 0.16786 0.53615
# Poissons Ratio (z) = -0.05578 0.21692
#
# Static dielectric constant tensor:
#      x y z
#    x 4.468580 0.000000 0.000000 
#    y 0.000000 4.633760 0.000000 
#    z 0.000000 0.000000 5.073480 
# 
# 
# High freq. dielectric constant tensor:
#      x y z
#    x 2.022750 0.000000 0.000000 
#    y 0.000000 1.994660 0.000000 
#    z 0.000000 0.000000 2.031830 
# 
# From -- ./inp_files/20805.got.cif
#   From: 2010.03.12/outbox.cif.g09.slc.cpg/sg68_11_cif.got.tgz:20805.got - 2010.04.10 23:14:56.
