data_PCOD8283576
_publ_section_title
;
Structure prediction by ZEFSAII (Michael W. Deem and Ramdas Pophale) SiO2 
 PCOD8283576
Probable space group: C C C A
;
_chemical_formula_sum "Si O2"
_cell_formula_units_Z 68
_cell_length_a 9.882989
_cell_length_b 16.620270
_cell_length_c 20.307504
_cell_angle_alpha 90.000000
_cell_angle_beta 90.000000
_cell_angle_gamma 90.000000
_cell_volume 3335.668887
_symmetry_space_group_name_H-M "C C C A"
_symmetry_group_IT_number 68
_space_group.IT_coordinate_system_code '2'
_symmetry_cell_setting 'orthorhombic'
loop_
_space_group_symop_operation_xyz
x,y,z
-x,1/2-y,z
x,1/2-y,1/2-z
-x,y,1/2-z
-x,-y,-z
x,1/2+y,-z
-x,1/2+y,1/2+z
x,-y,1/2+z
1/2+x,1/2+y,z
1/2-x,-y,z
1/2+x,-y,1/2-z
1/2-x,1/2+y,1/2-z
1/2-x,1/2-y,-z
1/2+x,y,-z
1/2-x,y,1/2+z
1/2+x,1/2-y,1/2+z
loop_
_atom_site_type_symbol
_atom_site_label
_atom_site_fract_x
_atom_site_fract_y
_atom_site_fract_z
Si Si1 0.673336 0.627605 0.662499
Si Si2 0.060640 0.545937 0.818872
Si Si3 0.102987 0.460351 0.051443
Si Si4 0.872533 0.195190 0.979006
Si Si5 0.500000 0.750000 0.750000
O O1 0.836280 0.619711 0.666406
O O2 0.625036 0.541727 0.687985
O O3 0.645944 0.642573 0.586216
O O4 0.601766 0.696646 0.705896
O O5 0.000000 0.572004 0.750000
O O6 0.945900 0.534245 0.873907
O O7 0.250000 0.500000 0.043540
O O8 0.108603 0.365721 0.038702
O O9 0.000000 0.500000 0.000000
O O10 0.000000 0.250000 0.967148
O O11 0.750000 0.250000 0.000000
#
# Coordination Sequence:
#
# PCOD8283576 Si02
#       5
#    16  16  16  16   4
#     4  11  24  43  69 101 140 183 234 285 352 425
#     4  11  25  44  70 101 140 183 237 289 341 421
#     4  12  25  44  73 103 138 185 239 286 344 418
#     4  12  25  43  68 102 141 179 224 289 354 408
#     4  12  24  44  74 100 140 186 230 290 368 424
#
# _framework density 20.385717
#
# number of rings (size 3 to 8) (size 9 to 14) (size 15 to 20)
#    0.000    0.471    4.706    4.235    3.294    1.882 
#    0.000    2.941    0.000    0.000    0.000    0.000 
#    0.000    0.000    0.000    0.000    0.000    0.000 
#
# Total GULP energy -421493.668670 kJ/mol
# GULP energy per Si atom -12396.872608 kJ/mol
# Density = 2.033932 g / cm^3
# Si number density = 20.385717 Si / 1000 Ang^3
#
#
#
# Elastic Constant Matrix: (Units=GPa)
#
#
# Indices 1 2 3 4 5 6 
#
# 1 152.5393 45.3047 51.6846 0.0000 0.0000 0.0000
# 2 45.3047 100.4291 21.2955 0.0000 0.0000 0.0000
# 3 51.6846 21.2955 117.5652 0.0000 0.0000 0.0000
# 4 0.0000 0.0000 0.0000 -41.4188 0.0000 0.0000
# 5 0.0000 0.0000 0.0000 0.0000 23.1163 0.0000
# 6 0.0000 0.0000 0.0000 0.0000 0.0000 48.8043
#
#
#
# Elastic Compliance Matrix: (Units=1/GPa)
#
#
# Indices 1 2 3 4 5 6 
#
# 1 0.008588 -0.003196 -0.003197 0.000000 0.000000 0.000000
# 2 -0.003196 0.011545 -0.000686 0.000000 0.000000 0.000000
# 3 -0.003197 -0.000686 0.010035 0.000000 0.000000 0.000000
# 4 0.000000 0.000000 0.000000 -0.024144 0.000000 0.000000
# 5 0.000000 0.000000 0.000000 0.000000 0.043260 0.000000
# 6 0.000000 0.000000 0.000000 0.000000 0.000000 0.020490
#
#
# Mechanical properties :
#
#
# Convention : Reuss Voigt Hill
#
# Bulk Modulus (GPa) = 62.45934 67.45591 64.95763
# Shear Modulus (GPa) = 56.01066 22.91695 39.46380
#
# Velocity S-wave (km/s) = 5.24739 3.35650 4.40461
# Velocity P-wave (km/s) = 8.21089 6.94140 7.60269
#
# Compressibility (1/GPa) = 0.01601041
#
# Stress axis : x y z
#
# Youngs Moduli (GPa) = 116.44012 86.62023 99.64659
#
# Poissons Ratio (x) = 0.27687 0.31853
# Poissons Ratio (y) = 0.37219 0.06835
# Poissons Ratio (z) = 0.37221 0.05942
#
# Static dielectric constant tensor:
#      x y z
#    x 3.629930 0.000000 0.000000 
#    y 0.000000 3.796730 0.000000 
#    z 0.000000 0.000000 3.658690 
# 
# 
# High freq. dielectric constant tensor:
#      x y z
#    x 1.811540 0.000000 0.000000 
#    y 0.000000 1.804980 0.000000 
#    z 0.000000 0.000000 1.806670 
# 
# From -- ./inp_files/35851.got.cif
#   From: 2010.03.12/outbox.cif.g09.slc.cpg/sg68_18_cif.got.tgz:35851.got - 2010.04.10 23:14:56.
