data_PCOD8283348
_publ_section_title
;
Structure prediction by ZEFSAII (Michael W. Deem and Ramdas Pophale) SiO2 
 PCOD8283348
Probable space group: C C C A
;
_chemical_formula_sum "Si O2"
_cell_formula_units_Z 112
_cell_length_a 23.755367
_cell_length_b 13.788888
_cell_length_c 17.333796
_cell_angle_alpha 90.000000
_cell_angle_beta 90.000000
_cell_angle_gamma 90.000000
_cell_volume 5677.859864
_symmetry_space_group_name_H-M "C C C A"
_symmetry_group_IT_number 68
_space_group.IT_coordinate_system_code '2'
_symmetry_cell_setting 'orthorhombic'
loop_
_space_group_symop_operation_xyz
x,y,z
-x,1/2-y,z
x,1/2-y,1/2-z
-x,y,1/2-z
-x,-y,-z
x,1/2+y,-z
-x,1/2+y,1/2+z
x,-y,1/2+z
1/2+x,1/2+y,z
1/2-x,-y,z
1/2+x,-y,1/2-z
1/2-x,1/2+y,1/2-z
1/2-x,1/2-y,-z
1/2+x,y,-z
1/2-x,y,1/2+z
1/2+x,1/2-y,1/2+z
loop_
_atom_site_type_symbol
_atom_site_label
_atom_site_fract_x
_atom_site_fract_y
_atom_site_fract_z
Si Si1 0.637310 0.545520 0.339442
Si Si2 0.665589 0.658917 0.794743
Si Si3 0.194342 0.259924 0.950059
Si Si4 0.350507 0.853857 0.079976
Si Si5 0.186079 0.035332 0.507298
Si Si6 0.281842 0.144521 0.723549
Si Si7 0.560605 0.770836 0.161915
O O1 0.623998 0.430367 0.319295
O O2 0.671290 0.555214 0.418500
O O3 0.677232 0.572508 0.268513
O O4 0.583481 0.617789 0.348176
O O5 0.634648 0.750000 0.750000
O O6 0.696935 0.702294 0.870103
O O7 0.716470 0.620529 0.740283
O O8 0.178588 0.371445 0.938475
O O9 0.250000 0.250000 0.000000
O O10 0.147535 0.214918 0.005779
O O11 0.292480 0.858534 0.130948
O O12 0.399819 0.816000 0.133528
O O13 0.358216 0.961119 0.045293
O O14 0.250000 0.000000 0.508351
O O15 0.300237 0.250000 0.750000
O O16 0.500000 0.750000 0.121141
O O17 0.552645 0.750000 0.250000
#
# Coordination Sequence:
#
# PCOD8283348 Si02
#       7
#    16  16  16  16  16  16  16
#     4  12  20  40  59  85 125 169 200 254 317 367
#     4  11  25  34  52  89 132 176 202 236 301 388
#     4  12  21  37  54  82 132 167 205 242 299 386
#     4  12  22  39  59  90 118 160 210 261 313 364
#     4  12  24  33  59  92 129 173 200 239 316 389
#     4  11  20  35  56  86 121 162 210 246 294 372
#     4  11  24  44  69  91 112 153 218 280 324 358
#
# _framework density 19.725743000000001
#
# number of rings (size 3 to 8) (size 9 to 14) (size 15 to 20)
#    0.000    0.429    7.143    3.857    2.000    0.000 
#    0.000    0.714    0.000    0.000    0.000    6.000 
#    0.000    0.000    0.000    0.000    0.000    0.000 
#
# Total GULP energy -693744.250544 kJ/mol
# GULP energy per Si atom -12388.290188 kJ/mol
# Density = 1.968085 g / cm^3
# Si number density = 19.725743 Si / 1000 Ang^3
#
#
#
# Elastic Constant Matrix: (Units=GPa)
#
#
# Indices 1 2 3 4 5 6 
#
# 1 69.5038 51.2944 16.7663 0.0000 0.0000 0.0000
# 2 51.2944 164.3853 25.0943 0.0000 0.0000 0.0000
# 3 16.7663 25.0943 77.6844 0.0000 0.0000 0.0000
# 4 0.0000 0.0000 0.0000 36.6961 0.0000 0.0000
# 5 0.0000 0.0000 0.0000 0.0000 12.7444 0.0000
# 6 0.0000 0.0000 0.0000 0.0000 0.0000 14.5263
#
#
#
# Elastic Compliance Matrix: (Units=1/GPa)
#
#
# Indices 1 2 3 4 5 6 
#
# 1 0.019078 -0.005601 -0.002308 0.000000 0.000000 0.000000
# 2 -0.005601 0.008043 -0.001389 0.000000 0.000000 0.000000
# 3 -0.002308 -0.001389 0.013820 0.000000 0.000000 0.000000
# 4 0.000000 0.000000 0.000000 0.027251 0.000000 0.000000
# 5 0.000000 0.000000 0.000000 0.000000 0.078466 0.000000
# 6 0.000000 0.000000 0.000000 0.000000 0.000000 0.068841
#
#
# Mechanical properties :
#
#
# Convention : Reuss Voigt Hill
#
# Bulk Modulus (GPa) = 44.75514 55.32037 50.03775
# Shear Modulus (GPa) = 20.70029 27.35459 24.02744
#
# Velocity S-wave (km/s) = 3.24297 3.72794 3.49388
# Velocity P-wave (km/s) = 6.06303 6.82904 6.45740
#
# Compressibility (1/GPa) = 0.02234380
#
# Stress axis : x y z
#
# Youngs Moduli (GPa) = 52.41683 124.33230 72.36103
#
# Poissons Ratio (x) = 0.69634 0.16703
# Poissons Ratio (y) = 0.29357 0.10053
# Poissons Ratio (z) = 0.12100 0.17274
#
# Static dielectric constant tensor:
#      x y z
#    x 3.348060 0.000000 0.000000 
#    y 0.000000 3.433740 0.000000 
#    z 0.000000 0.000000 4.435190 
# 
# 
# High freq. dielectric constant tensor:
#      x y z
#    x 1.689440 0.000000 0.000000 
#    y 0.000000 1.792500 0.000000 
#    z 0.000000 0.000000 1.789560 
# 
# From -- ./inp_files/25477.got.cif
#   From: 2010.03.12/outbox.cif.g09.slc.cpg/sg68_13_cif.got.tgz:25477.got - 2010.04.10 23:14:56.
