data_PCOD8283444
_publ_section_title
;
Structure prediction by ZEFSAII (Michael W. Deem and Ramdas Pophale) SiO2 
 PCOD8283444
Probable space group: C C C A
;
_chemical_formula_sum "Si O2"
_cell_formula_units_Z 84
_cell_length_a 9.004869
_cell_length_b 25.071571
_cell_length_c 17.454048
_cell_angle_alpha 90.000000
_cell_angle_beta 90.000000
_cell_angle_gamma 90.000000
_cell_volume 3940.534309
_symmetry_space_group_name_H-M "C C C A"
_symmetry_group_IT_number 68
_space_group.IT_coordinate_system_code '2'
_symmetry_cell_setting 'orthorhombic'
loop_
_space_group_symop_operation_xyz
x,y,z
-x,1/2-y,z
x,1/2-y,1/2-z
-x,y,1/2-z
-x,-y,-z
x,1/2+y,-z
-x,1/2+y,1/2+z
x,-y,1/2+z
1/2+x,1/2+y,z
1/2-x,-y,z
1/2+x,-y,1/2-z
1/2-x,1/2+y,1/2-z
1/2-x,1/2-y,-z
1/2+x,y,-z
1/2-x,y,1/2+z
1/2+x,1/2-y,1/2+z
loop_
_atom_site_type_symbol
_atom_site_label
_atom_site_fract_x
_atom_site_fract_y
_atom_site_fract_z
Si Si1 0.750000 0.500000 0.566260
Si Si2 0.897884 0.332535 0.484557
Si Si3 0.500000 0.250000 0.250000
Si Si4 0.500000 0.250000 0.873249
Si Si5 0.279354 0.316066 0.350266
Si Si6 0.645248 0.904227 0.534136
Si Si7 0.069444 0.923315 0.168135
O O1 0.655461 0.459507 0.512809
O O2 0.866587 0.473686 0.623624
O O3 0.826622 0.309260 0.561789
O O4 0.811826 0.384366 0.453642
O O5 0.889233 0.285092 0.424131
O O6 0.064776 0.355833 0.488368
O O7 0.400947 0.287041 0.301283
O O8 0.384687 0.290344 0.829049
O O9 0.298633 0.378795 0.327573
O O10 0.569012 0.905727 0.616521
O O11 0.000000 0.938795 0.250000
#
# Coordination Sequence:
#
# PCOD8283444 Si02
#       7
#     8  16   4   8  16  16  16
#     4  12  22  46  72  98 128 176 234 286 334 406
#     4  11  22  41  65 104 130 170 225 289 321 396
#     4  12  26  42  68  84 134 194 208 266 360 406
#     4  12  23  37  66 101 129 170 228 276 324 385
#     4  11  24  41  65  94 135 174 225 266 333 407
#     4  11  23  41  71  98 135 174 231 281 336 398
#     4  11  25  45  68 101 138 179 219 282 348 410
#
# _framework density 21.316905999999999
#
# number of rings (size 3 to 8) (size 9 to 14) (size 15 to 20)
#    0.000    0.762    6.667    1.714    5.333    1.143 
#    0.000    0.000    4.190    0.000    0.000    0.000 
#    0.000    0.000    0.000    0.000    0.000    0.000 
#
# Total GULP energy -520390.330545 kJ/mol
# GULP energy per Si atom -12390.245965 kJ/mol
# Density = 2.126839 g / cm^3
# Si number density = 21.316906 Si / 1000 Ang^3
#
#
#
# Elastic Constant Matrix: (Units=GPa)
#
#
# Indices 1 2 3 4 5 6 
#
# 1 101.4053 40.8934 40.7471 0.0000 0.0000 0.0000
# 2 40.8934 110.5350 36.8015 0.0000 0.0000 0.0000
# 3 40.7471 36.8015 85.1858 0.0000 0.0000 0.0000
# 4 0.0000 0.0000 0.0000 14.2777 0.0000 0.0000
# 5 0.0000 0.0000 0.0000 0.0000 12.2200 0.0000
# 6 0.0000 0.0000 0.0000 0.0000 0.0000 30.5422
#
#
#
# Elastic Compliance Matrix: (Units=1/GPa)
#
#
# Indices 1 2 3 4 5 6 
#
# 1 0.013126 -0.003230 -0.004883 0.000000 0.000000 0.000000
# 2 -0.003230 0.011362 -0.003363 0.000000 0.000000 0.000000
# 3 -0.004883 -0.003363 0.015528 0.000000 0.000000 0.000000
# 4 0.000000 0.000000 0.000000 0.070039 0.000000 0.000000
# 5 0.000000 0.000000 0.000000 0.000000 0.081833 0.000000
# 6 0.000000 0.000000 0.000000 0.000000 0.000000 0.032742
#
#
# Mechanical properties :
#
#
# Convention : Reuss Voigt Hill
#
# Bulk Modulus (GPa) = 58.60885 59.33445 58.97165
# Shear Modulus (GPa) = 19.74175 23.32028 21.53101
#
# Velocity S-wave (km/s) = 3.04650 3.31113 3.18157
# Velocity P-wave (km/s) = 6.31891 6.52020 6.42034
#
# Compressibility (1/GPa) = 0.01706227
#
# Stress axis : x y z
#
# Youngs Moduli (GPa) = 76.18301 88.01437 64.40063
#
# Poissons Ratio (x) = 0.28432 0.31448
# Poissons Ratio (y) = 0.24610 0.21660
# Poissons Ratio (z) = 0.37201 0.29602
#
# Static dielectric constant tensor:
#      x y z
#    x 4.262480 0.000000 0.000000 
#    y 0.000000 4.021800 0.000000 
#    z 0.000000 0.000000 3.736690 
# 
# 
# High freq. dielectric constant tensor:
#      x y z
#    x 1.844790 0.000000 0.000000 
#    y 0.000000 1.846860 0.000000 
#    z 0.000000 0.000000 1.818620 
# 
# From -- ./inp_files/36227.got.cif
#   From: 2010.03.12/outbox.cif.g09.slc.cpg/sg68_19_cif.got.tgz:36227.got - 2010.04.10 23:14:56.
