data_PCOD8283391
_publ_section_title
;
Structure prediction by ZEFSAII (Michael W. Deem and Ramdas Pophale) SiO2 
 PCOD8283391
Probable space group: C C C A
;
_chemical_formula_sum "Si O2"
_cell_formula_units_Z 48
_cell_length_a 8.926408
_cell_length_b 17.886897
_cell_length_c 14.226872
_cell_angle_alpha 90.000000
_cell_angle_beta 90.000000
_cell_angle_gamma 90.000000
_cell_volume 2271.544053
_symmetry_space_group_name_H-M "C C C A"
_symmetry_group_IT_number 68
_space_group.IT_coordinate_system_code '2'
_symmetry_cell_setting 'orthorhombic'
loop_
_space_group_symop_operation_xyz
x,y,z
-x,1/2-y,z
x,1/2-y,1/2-z
-x,y,1/2-z
-x,-y,-z
x,1/2+y,-z
-x,1/2+y,1/2+z
x,-y,1/2+z
1/2+x,1/2+y,z
1/2-x,-y,z
1/2+x,-y,1/2-z
1/2-x,1/2+y,1/2-z
1/2-x,1/2-y,-z
1/2+x,y,-z
1/2-x,y,1/2+z
1/2+x,1/2-y,1/2+z
loop_
_atom_site_type_symbol
_atom_site_label
_atom_site_fract_x
_atom_site_fract_y
_atom_site_fract_z
Si Si1 0.040469 0.664508 0.971234
Si Si2 0.747765 0.412351 0.389853
Si Si3 0.671452 0.171138 0.779862
O O1 0.173906 0.659551 0.892458
O O2 0.000000 0.750000 0.993645
O O3 0.894214 0.622401 0.936327
O O4 0.100184 0.623820 0.064166
O O5 0.750000 0.500000 0.406124
O O6 0.743820 0.394361 0.277746
O O7 0.746622 0.250000 0.750000
O O8 0.500000 0.173105 0.750000
#
# Coordination Sequence:
#
# PCOD8283391 Si02
#       3
#    16  16  16
#     4  11  21  40  67  87 121 167 205 243 302 372
#     4  11  23  38  62  95 125 155 202 256 309 353
#     4   9  17  36  62  82 112 166 206 229 292 371
#
# _framework density 21.131001999999999
#
# number of rings (size 3 to 8) (size 9 to 14) (size 15 to 20)
#    0.000    1.667    6.667    2.000    0.000    1.333 
#    0.000    5.000    0.000    0.000    0.000    0.000 
#    0.000    0.000    0.000    0.000    0.000    0.000 
#
# Total GULP energy -297512.053774 kJ/mol
# GULP energy per Si atom -12396.335574 kJ/mol
# Density = 2.108291 g / cm^3
# Si number density = 21.131002 Si / 1000 Ang^3
#
#
#
# Elastic Constant Matrix: (Units=GPa)
#
#
# Indices 1 2 3 4 5 6 
#
# 1 30.0481 31.7570 4.4504 0.0000 0.0000 0.0000
# 2 31.7570 183.7381 34.1767 0.0000 0.0000 0.0000
# 3 4.4504 34.1767 67.9063 0.0000 0.0000 0.0000
# 4 0.0000 0.0000 0.0000 50.1738 0.0000 0.0000
# 5 0.0000 0.0000 0.0000 0.0000 29.0557 0.0000
# 6 0.0000 0.0000 0.0000 0.0000 0.0000 19.8007
#
#
#
# Elastic Compliance Matrix: (Units=1/GPa)
#
#
# Indices 1 2 3 4 5 6 
#
# 1 0.040775 -0.007227 0.000965 0.000000 0.000000 0.000000
# 2 -0.007227 0.007286 -0.003193 0.000000 0.000000 0.000000
# 3 0.000965 -0.003193 0.016270 0.000000 0.000000 0.000000
# 4 0.000000 0.000000 0.000000 0.019931 0.000000 0.000000
# 5 0.000000 0.000000 0.000000 0.000000 0.034417 0.000000
# 6 0.000000 0.000000 0.000000 0.000000 0.000000 0.050503
#
#
# Mechanical properties :
#
#
# Convention : Reuss Voigt Hill
#
# Bulk Modulus (GPa) = 22.01657 46.94007 34.47832
# Shear Modulus (GPa) = 24.60248 33.89327 29.24788
#
# Velocity S-wave (km/s) = 3.41586 4.00929 3.72441
# Velocity P-wave (km/s) = 5.09894 6.61019 5.90313
#
# Compressibility (1/GPa) = 0.04542034
#
# Stress axis : x y z
#
# Youngs Moduli (GPa) = 24.52482 137.25757 61.46276
#
# Poissons Ratio (x) = 0.99196 -0.05931
# Poissons Ratio (y) = 0.17724 0.19626
# Poissons Ratio (z) = -0.02367 0.43828
#
# Static dielectric constant tensor:
#      x y z
#    x 3.547160 0.000000 0.000000 
#    y 0.000000 4.299690 0.000000 
#    z 0.000000 0.000000 4.541730 
# 
# 
# High freq. dielectric constant tensor:
#      x y z
#    x 1.796410 0.000000 0.000000 
#    y 0.000000 1.826840 0.000000 
#    z 0.000000 0.000000 1.833050 
# 
# From -- ./inp_files/11240.got.cif
#   From: 2010.03.12/outbox.cif.g09.slc.cpg/sg68_6_cif.got.tgz:11240.got - 2010.04.10 23:14:56.
