data_PCOD8283767
_publ_section_title
;
Structure prediction by ZEFSAII (Michael W. Deem and Ramdas Pophale) SiO2 
 PCOD8283767
Probable space group: F M M M
;
_chemical_formula_sum "Si O2"
_cell_formula_units_Z 192
_cell_length_a 28.481629
_cell_length_b 21.122703
_cell_length_c 18.540338
_cell_angle_alpha 90.000000
_cell_angle_beta 90.000000
_cell_angle_gamma 90.000000
_cell_volume 11154.034024
_symmetry_space_group_name_H-M "F M M M"
_symmetry_group_IT_number 69
_symmetry_cell_setting 'orthorhombic'
loop_
_space_group_symop_operation_xyz
x,y,z
-x,-y,z
x,-y,-z
-x,y,-z
-x,-y,-z
x,y,-z
-x,y,z
x,-y,z
x,1/2+y,1/2+z
-x,1/2-y,1/2+z
x,1/2-y,1/2-z
-x,1/2+y,1/2-z
-x,1/2-y,1/2-z
x,1/2+y,1/2-z
-x,1/2+y,1/2+z
x,1/2-y,1/2+z
1/2+x,y,1/2+z
1/2-x,-y,1/2+z
1/2+x,-y,1/2-z
1/2-x,y,1/2-z
1/2-x,-y,1/2-z
1/2+x,y,1/2-z
1/2-x,y,1/2+z
1/2+x,-y,1/2+z
1/2+x,1/2+y,z
1/2-x,1/2-y,z
1/2+x,1/2-y,-z
1/2-x,1/2+y,-z
1/2-x,1/2-y,-z
1/2+x,1/2+y,-z
1/2-x,1/2+y,z
1/2+x,1/2-y,z
loop_
_atom_site_type_symbol
_atom_site_label
_atom_site_fract_x
_atom_site_fract_y
_atom_site_fract_z
Si Si1 0.446214 0.234846 0.417555
Si Si2 0.772626 0.689054 0.670539
Si Si3 0.880924 0.810328 0.799155
Si Si4 0.622054 0.928181 0.800319
Si Si5 0.228822 0.431949 0.829139
Si Si6 0.445941 0.381108 0.417364
O O1 0.437913 0.214821 0.500000
O O2 0.500000 0.224086 0.395300
O O3 0.414204 0.190250 0.368530
O O4 0.432406 0.307939 0.406271
O O5 0.750000 0.685510 0.750000
O O6 0.750000 0.750000 0.630273
O O7 0.828013 0.695079 0.673225
O O8 0.756989 0.624251 0.629528
O O9 0.893342 0.750000 0.750000
O O10 0.891533 0.876743 0.759994
O O11 0.674388 0.912619 0.826694
O O12 0.586881 0.923861 0.867536
O O13 0.619455 0.000000 0.768925
O O14 0.234925 0.500000 0.869202
O O15 0.250000 0.439225 0.750000
O O16 0.437574 0.401268 0.500000
O O17 0.500000 0.392766 0.395878
#
# Coordination Sequence:
#
# PCOD8283767 Si02
#       6
#    32  32  32  32  32  32
#     4   9  20  37  55  75 101 135 174 214 259 312
#     4  10  16  26  43  73 101 132 162 204 249 300
#     4  12  19  30  55  81 101 133 172 214 260 300
#     4  11  21  31  49  81 109 133 171 213 251 297
#     4   9  16  28  44  66 100 138 165 195 244 304
#     4   9  19  36  54  72 102 142 173 201 250 314
#
# _framework density 17.213502999999999
#
# number of rings (size 3 to 8) (size 9 to 14) (size 15 to 20)
#    0.000    2.000    6.667    1.000    0.000    1.667 
#    0.000    0.833    0.000    2.000    0.000    1.167 
#    0.000    0.000    0.000    0.000    0.000    0.000 
#
# Total GULP energy -594929.867083 kJ/mol
# GULP energy per Si atom -12394.372231 kJ/mol
# Density = 1.717432 g / cm^3
# Si number density = 17.213503 Si / 1000 Ang^3
#
#
#
# Elastic Constant Matrix: (Units=GPa)
#
#
# Indices 1 2 3 4 5 6 
#
# 1 101.0464 33.0138 46.2250 0.0000 0.0000 0.0000
# 2 33.0138 123.1912 34.7852 0.0000 0.0000 0.0000
# 3 46.2250 34.7852 46.6113 0.0000 0.0000 0.0000
# 4 0.0000 0.0000 0.0000 -6.0367 0.0000 0.0000
# 5 0.0000 0.0000 0.0000 0.0000 1.0502 0.0000
# 6 0.0000 0.0000 0.0000 0.0000 0.0000 24.9791
#
#
#
# Elastic Compliance Matrix: (Units=1/GPa)
#
#
# Indices 1 2 3 4 5 6 
#
# 1 0.018122 0.000276 -0.018178 0.000000 0.000000 0.000000
# 2 0.000276 0.010289 -0.007953 0.000000 0.000000 0.000000
# 3 -0.018178 -0.007953 0.045416 0.000000 0.000000 0.000000
# 4 0.000000 0.000000 0.000000 -0.165652 0.000000 0.000000
# 5 0.000000 0.000000 0.000000 0.000000 0.952214 0.000000
# 6 0.000000 0.000000 0.000000 0.000000 0.000000 0.040033
#
#
# Mechanical properties :
#
#
# Convention : Reuss Voigt Hill
#
# Bulk Modulus (GPa) = 45.21048 55.43298 50.32173
# Shear Modulus (GPa) = 5.21103 14.45350 9.83226
#
# Velocity S-wave (km/s) = 1.74180 2.90083 2.39256
# Velocity P-wave (km/s) = 5.51060 6.59491 6.07699
#
# Compressibility (1/GPa) = 0.02211877
#
# Stress axis : x y z
#
# Youngs Moduli (GPa) = 55.18185 97.19163 22.01850
#
# Poissons Ratio (x) = -0.02687 0.40025
# Poissons Ratio (y) = -0.01525 0.17511
# Poissons Ratio (z) = 1.00310 0.77293
#
# Static dielectric constant tensor:
#      x y z
#    x 3.258850 0.000000 0.000000 
#    y 0.000000 4.666130 0.000000 
#    z 0.000000 0.000000 2.770960 
# 
# 
# High freq. dielectric constant tensor:
#      x y z
#    x 1.673790 0.000000 0.000000 
#    y 0.000000 1.675190 0.000000 
#    z 0.000000 0.000000 1.606460 
# 
# From -- ./inp_files/33616.got.cif
#   From: 2010.03.12/outbox.cif.g09.slc.cpg/sg69_17_cif.got.tgz:33616.got - 2010.04.10 23:52:46.
