data_PCOD8283473
_publ_section_title
;
Structure prediction by ZEFSAII (Michael W. Deem and Ramdas Pophale) SiO2 
 PCOD8283473
Probable space group: C C C A
;
_chemical_formula_sum "Si O2"
_cell_formula_units_Z 68
_cell_length_a 18.101234
_cell_length_b 12.529827
_cell_length_c 13.853389
_cell_angle_alpha 90.000000
_cell_angle_beta 90.000000
_cell_angle_gamma 90.000000
_cell_volume 3142.022471
_symmetry_space_group_name_H-M "C C C A"
_symmetry_group_IT_number 68
_space_group.IT_coordinate_system_code '2'
_symmetry_cell_setting 'orthorhombic'
loop_
_space_group_symop_operation_xyz
x,y,z
-x,1/2-y,z
x,1/2-y,1/2-z
-x,y,1/2-z
-x,-y,-z
x,1/2+y,-z
-x,1/2+y,1/2+z
x,-y,1/2+z
1/2+x,1/2+y,z
1/2-x,-y,z
1/2+x,-y,1/2-z
1/2-x,1/2+y,1/2-z
1/2-x,1/2-y,-z
1/2+x,y,-z
1/2-x,y,1/2+z
1/2+x,1/2-y,1/2+z
loop_
_atom_site_type_symbol
_atom_site_label
_atom_site_fract_x
_atom_site_fract_y
_atom_site_fract_z
Si Si1 0.302906 0.598483 0.018500
Si Si2 0.961645 0.586381 0.899724
Si Si3 0.803856 0.731162 0.363224
Si Si4 0.041017 0.645023 0.086642
Si Si5 0.500000 0.750000 0.250000
O O1 0.250000 0.500000 0.002017
O O2 0.385186 0.565145 0.045793
O O3 0.271111 0.673259 0.103480
O O4 0.308606 0.655492 0.915352
O O5 0.986032 0.466931 0.864005
O O6 0.949577 0.670306 0.813275
O O7 0.023062 0.635351 0.972065
O O8 0.802902 0.750000 0.250000
O O9 0.872120 0.658041 0.396629
O O10 0.000000 0.750000 0.130555
#
# Coordination Sequence:
#
# PCOD8283473 Si02
#       5
#    16  16  16  16   4
#     4  11  23  47  66  96 141 183 224 281 349 415
#     4  11  24  43  71 101 135 187 226 291 342 416
#     4  11  25  42  68 102 134 179 226 287 341 410
#     4  11  22  46  66  96 140 179 230 278 354 403
#     4  12  24  44  70 108 130 176 238 290 340 412
#
# _framework density 21.642112000000001
#
# number of rings (size 3 to 8) (size 9 to 14) (size 15 to 20)
#    0.000    0.941    5.882    0.000    1.647    3.294 
#    0.000    0.000    0.000    0.000    0.000    0.000 
#    0.000    0.000    0.000    0.000    0.000    0.000 
#
# Total GULP energy -421488.666876 kJ/mol
# GULP energy per Si atom -12396.725496 kJ/mol
# Density = 2.159285 g / cm^3
# Si number density = 21.642112 Si / 1000 Ang^3
#
#
#
# Elastic Constant Matrix: (Units=GPa)
#
#
# Indices 1 2 3 4 5 6 
#
# 1 66.2314 13.8968 49.3757 0.0000 0.0000 0.0000
# 2 13.8968 172.5933 68.9687 0.0000 0.0000 0.0000
# 3 49.3757 68.9687 138.5434 0.0000 0.0000 0.0000
# 4 0.0000 0.0000 0.0000 29.3392 0.0000 0.0000
# 5 0.0000 0.0000 0.0000 0.0000 35.5985 0.0000
# 6 0.0000 0.0000 0.0000 0.0000 0.0000 27.5050
#
#
#
# Elastic Compliance Matrix: (Units=1/GPa)
#
#
# Indices 1 2 3 4 5 6 
#
# 1 0.020917 0.001616 -0.008259 0.000000 0.000000 0.000000
# 2 0.001616 0.007358 -0.004239 0.000000 0.000000 0.000000
# 3 -0.008259 -0.004239 0.012272 0.000000 0.000000 0.000000
# 4 0.000000 0.000000 0.000000 0.034084 0.000000 0.000000
# 5 0.000000 0.000000 0.000000 0.000000 0.028091 0.000000
# 6 0.000000 0.000000 0.000000 0.000000 0.000000 0.036357
#
#
# Mechanical properties :
#
#
# Convention : Reuss Voigt Hill
#
# Bulk Modulus (GPa) = 53.24085 71.31672 62.27879
# Shear Modulus (GPa) = 29.92183 34.83033 32.37608
#
# Velocity S-wave (km/s) = 3.72233 4.01606 3.87198
# Velocity P-wave (km/s) = 6.56722 7.38439 6.98776
#
# Compressibility (1/GPa) = 0.01878257
#
# Stress axis : x y z
#
# Youngs Moduli (GPa) = 47.80882 135.91305 81.48949
#
# Poissons Ratio (x) = -0.21966 0.67303
# Poissons Ratio (y) = -0.07727 0.34541
# Poissons Ratio (z) = 0.39486 0.57610
#
# Static dielectric constant tensor:
#      x y z
#    x 3.825320 0.000000 0.000000 
#    y 0.000000 4.355750 0.000000 
#    z 0.000000 0.000000 3.594750 
# 
# 
# High freq. dielectric constant tensor:
#      x y z
#    x 1.845350 0.000000 0.000000 
#    y 0.000000 1.880710 0.000000 
#    z 0.000000 0.000000 1.824220 
# 
# From -- ./inp_files/20671.got.cif
#   From: 2010.03.12/outbox.cif.g09.slc.cpg/sg68_11_cif.got.tgz:20671.got - 2010.04.10 23:14:56.
