data_PCOD8283119
_publ_section_title
;
Structure prediction by ZEFSAII (Michael W. Deem and Ramdas Pophale) SiO2 
 PCOD8283119
Probable space group: C C C A
;
_chemical_formula_sum "Si O2"
_cell_formula_units_Z 80
_cell_length_a 11.409205
_cell_length_b 22.912517
_cell_length_c 14.324977
_cell_angle_alpha 90.000000
_cell_angle_beta 90.000000
_cell_angle_gamma 90.000000
_cell_volume 3744.743858
_symmetry_space_group_name_H-M "C C C A"
_symmetry_group_IT_number 68
_space_group.IT_coordinate_system_code '2'
_symmetry_cell_setting 'orthorhombic'
loop_
_space_group_symop_operation_xyz
x,y,z
-x,1/2-y,z
x,1/2-y,1/2-z
-x,y,1/2-z
-x,-y,-z
x,1/2+y,-z
-x,1/2+y,1/2+z
x,-y,1/2+z
1/2+x,1/2+y,z
1/2-x,-y,z
1/2+x,-y,1/2-z
1/2-x,1/2+y,1/2-z
1/2-x,1/2-y,-z
1/2+x,y,-z
1/2-x,y,1/2+z
1/2+x,1/2-y,1/2+z
loop_
_atom_site_type_symbol
_atom_site_label
_atom_site_fract_x
_atom_site_fract_y
_atom_site_fract_z
Si Si1 0.133807 0.366818 0.218924
Si Si2 0.788046 0.770334 0.149857
Si Si3 0.533033 0.866909 0.643811
Si Si4 0.766988 0.065907 0.575591
Si Si5 0.723158 0.143973 0.404224
O O1 0.166954 0.306120 0.166897
O O2 0.158944 0.418311 0.144669
O O3 0.218832 0.376465 0.307369
O O4 0.000000 0.366460 0.250000
O O5 0.837343 0.750000 0.250000
O O6 0.888238 0.812227 0.107254
O O7 0.762355 0.714313 0.083965
O O8 0.500000 0.857790 0.750000
O O9 0.609987 0.925762 0.630729
O O10 0.413794 0.871741 0.586434
O O11 0.782111 0.109015 0.487778
O O12 0.750000 0.000000 0.541110
#
# Coordination Sequence:
#
# PCOD8283119 Si02
#       5
#    16  16  16  16  16
#     4  10  23  43  65  99 137 172 215 272 348 400
#     4   9  18  36  69  96 130 164 210 272 330 405
#     4  11  20  41  68  97 126 172 223 270 334 399
#     4  11  27  45  64  95 133 179 234 277 318 382
#     4  11  23  40  69  98 132 172 221 270 339 397
#
# _framework density 21.363278000000001
#
# number of rings (size 3 to 8) (size 9 to 14) (size 15 to 20)
#    0.000    1.600    6.000    0.600    2.800    9.200 
#    0.000    0.000    4.400    0.000    0.000    0.000 
#    0.000    0.000    0.000    0.000    0.000    0.000 
#
# Total GULP energy -495795.447873 kJ/mol
# GULP energy per Si atom -12394.886197 kJ/mol
# Density = 2.131465 g / cm^3
# Si number density = 21.363278 Si / 1000 Ang^3
#
#
#
# Elastic Constant Matrix: (Units=GPa)
#
#
# Indices 1 2 3 4 5 6 
#
# 1 134.3507 49.1912 21.4448 0.0000 0.0000 0.0000
# 2 49.1912 138.9130 63.7870 0.0000 0.0000 0.0000
# 3 21.4448 63.7870 67.9798 0.0000 0.0000 0.0000
# 4 0.0000 0.0000 0.0000 28.7006 0.0000 0.0000
# 5 0.0000 0.0000 0.0000 0.0000 18.4743 0.0000
# 6 0.0000 0.0000 0.0000 0.0000 0.0000 19.9452
#
#
#
# Elastic Compliance Matrix: (Units=1/GPa)
#
#
# Indices 1 2 3 4 5 6 
#
# 1 0.008554 -0.003145 0.000253 0.000000 0.000000 0.000000
# 2 -0.003145 0.013805 -0.011961 0.000000 0.000000 0.000000
# 3 0.000253 -0.011961 0.025854 0.000000 0.000000 0.000000
# 4 0.000000 0.000000 0.000000 0.034842 0.000000 0.000000
# 5 0.000000 0.000000 0.000000 0.000000 0.054129 0.000000
# 6 0.000000 0.000000 0.000000 0.000000 0.000000 0.050137
#
#
# Mechanical properties :
#
#
# Convention : Reuss Voigt Hill
#
# Bulk Modulus (GPa) = 54.03717 67.78773 60.91245
# Shear Modulus (GPa) = 22.40148 27.21205 24.80677
#
# Velocity S-wave (km/s) = 3.24172 3.57287 3.41132
# Velocity P-wave (km/s) = 6.27383 6.98716 6.64008
#
# Compressibility (1/GPa) = 0.01850578
#
# Stress axis : x y z
#
# Youngs Moduli (GPa) = 116.89762 72.43711 38.67849
#
# Poissons Ratio (x) = 0.22784 -0.00978
# Poissons Ratio (y) = 0.36768 0.46265
# Poissons Ratio (z) = -0.02955 0.86645
#
# Static dielectric constant tensor:
#      x y z
#    x 4.191080 0.000000 0.000000 
#    y 0.000000 3.827970 0.000000 
#    z 0.000000 0.000000 3.769160 
# 
# 
# High freq. dielectric constant tensor:
#      x y z
#    x 1.835330 0.000000 0.000000 
#    y 0.000000 1.820420 0.000000 
#    z 0.000000 0.000000 1.833760 
# 
# From -- ./inp_files/20885.got.cif
#   From: 2010.03.12/outbox.cif.g09.slc.cpg/sg68_11_cif.got.tgz:20885.got - 2010.04.10 23:14:56.
