data_PCOD8283844
_publ_section_title
;
Structure prediction by ZEFSAII (Michael W. Deem and Ramdas Pophale) SiO2 
 PCOD8283844
Probable space group: F M M M
;
_chemical_formula_sum "Si O2"
_cell_formula_units_Z 168
_cell_length_a 23.513026
_cell_length_b 13.980498
_cell_length_c 28.791117
_cell_angle_alpha 90.000000
_cell_angle_beta 90.000000
_cell_angle_gamma 90.000000
_cell_volume 9464.325760
_symmetry_space_group_name_H-M "F M M M"
_symmetry_group_IT_number 69
_symmetry_cell_setting 'orthorhombic'
loop_
_space_group_symop_operation_xyz
x,y,z
-x,-y,z
x,-y,-z
-x,y,-z
-x,-y,-z
x,y,-z
-x,y,z
x,-y,z
x,1/2+y,1/2+z
-x,1/2-y,1/2+z
x,1/2-y,1/2-z
-x,1/2+y,1/2-z
-x,1/2-y,1/2-z
x,1/2+y,1/2-z
-x,1/2+y,1/2+z
x,1/2-y,1/2+z
1/2+x,y,1/2+z
1/2-x,-y,1/2+z
1/2+x,-y,1/2-z
1/2-x,y,1/2-z
1/2-x,-y,1/2-z
1/2+x,y,1/2-z
1/2-x,y,1/2+z
1/2+x,-y,1/2+z
1/2+x,1/2+y,z
1/2-x,1/2-y,z
1/2+x,1/2-y,-z
1/2-x,1/2+y,-z
1/2-x,1/2-y,-z
1/2+x,1/2+y,-z
1/2-x,1/2+y,z
1/2+x,1/2-y,z
loop_
_atom_site_type_symbol
_atom_site_label
_atom_site_fract_x
_atom_site_fract_y
_atom_site_fract_z
Si Si1 0.337630 0.894531 0.446243
Si Si2 0.563201 0.610737 0.358813
Si Si3 0.892411 0.293336 0.052333
Si Si4 0.782522 0.891707 0.584518
Si Si5 0.750000 0.750000 0.250000
Si Si6 0.176087 0.108925 0.687762
O O1 0.323224 0.901911 0.500000
O O2 0.389243 0.820864 0.437530
O O3 0.281108 0.851940 0.421994
O O4 0.354346 0.000000 0.426543
O O5 0.500000 0.628833 0.338386
O O6 0.574663 0.500000 0.369814
O O7 0.567071 0.662249 0.408746
O O8 0.610341 0.643556 0.320978
O O9 0.828479 0.333396 0.055177
O O10 0.916041 0.312433 0.000000
O O11 0.793166 0.886834 0.638922
O O12 0.785077 0.000000 0.565944
O O13 0.792037 0.817748 0.278848
O O14 0.177773 0.000000 0.708051
#
# Coordination Sequence:
#
# PCOD8283844 Si02
#       6
#    32  32  32  32   8  32
#     4   9  17  27  40  63  97 136 173 205 242 288
#     4   9  19  36  55  73  99 135 168 201 244 293
#     4  10  18  26  43  70  99 130 170 212 242 277
#     4   9  17  28  43  65  99 135 163 197 246 301
#     4  12  22  32  58  82 102 128 150 202 256 306
#     4   9  20  35  51  77 105 129 160 197 247 306
#
# _framework density 17.750869000000002
#
# number of rings (size 3 to 8) (size 9 to 14) (size 15 to 20)
#    0.000    2.667    0.000    3.143    5.333    4.190 
#    0.000    1.429    0.000    0.571    0.000    2.667 
#    0.000    0.000    0.000    0.000    0.000    0.000 
#
# Total GULP energy -520493.305170 kJ/mol
# GULP energy per Si atom -12392.697742 kJ/mol
# Density = 1.771047 g / cm^3
# Si number density = 17.750869 Si / 1000 Ang^3
#
#
#
# Elastic Constant Matrix: (Units=GPa)
#
#
# Indices 1 2 3 4 5 6 
#
# 1 95.2283 41.1540 42.7859 0.0000 0.0000 0.0000
# 2 41.1540 67.4283 31.9469 0.0000 0.0000 0.0000
# 3 42.7859 31.9469 54.3302 0.0000 0.0000 0.0000
# 4 0.0000 0.0000 0.0000 22.9435 0.0000 0.0000
# 5 0.0000 0.0000 0.0000 0.0000 16.4373 0.0000
# 6 0.0000 0.0000 0.0000 0.0000 0.0000 17.9193
#
#
#
# Elastic Compliance Matrix: (Units=1/GPa)
#
#
# Indices 1 2 3 4 5 6 
#
# 1 0.017770 -0.005843 -0.010558 0.000000 0.000000 0.000000
# 2 -0.005843 0.022479 -0.008616 0.000000 0.000000 0.000000
# 3 -0.010558 -0.008616 0.031787 0.000000 0.000000 0.000000
# 4 0.000000 0.000000 0.000000 0.043585 0.000000 0.000000
# 5 0.000000 0.000000 0.000000 0.000000 0.060837 0.000000
# 6 0.000000 0.000000 0.000000 0.000000 0.000000 0.055806
#
#
# Mechanical properties :
#
#
# Convention : Reuss Voigt Hill
#
# Bulk Modulus (GPa) = 45.45307 49.86224 47.65766
# Shear Modulus (GPa) = 17.26310 18.20002 17.73156
#
# Velocity S-wave (km/s) = 3.12191 3.20551 3.16399
# Velocity P-wave (km/s) = 6.21746 6.46927 6.34461
#
# Compressibility (1/GPa) = 0.02200072
#
# Stress axis : x y z
#
# Youngs Moduli (GPa) = 56.27401 44.48526 31.45904
#
# Poissons Ratio (x) = 0.25994 0.33215
# Poissons Ratio (y) = 0.32883 0.27106
# Poissons Ratio (z) = 0.59416 0.38330
#
# Static dielectric constant tensor:
#      x y z
#    x 3.176460 0.000000 0.000000 
#    y 0.000000 3.622560 0.000000 
#    z 0.000000 0.000000 2.986090 
# 
# 
# High freq. dielectric constant tensor:
#      x y z
#    x 1.665600 0.000000 0.000000 
#    y 0.000000 1.696050 0.000000 
#    z 0.000000 0.000000 1.655950 
# 
# From -- ./inp_files/42589.got.cif
#   From: 2010.03.12/outbox.cif.g09.slc.cpg/sg69_22_cif.got.tgz:42589.got - 2010.04.10 23:52:46.
