data_PCOD8283641
_publ_section_title
;
Structure prediction by ZEFSAII (Michael W. Deem and Ramdas Pophale) SiO2 
 PCOD8283641
Probable space group: C C C A
;
_chemical_formula_sum "Si O2"
_cell_formula_units_Z 96
_cell_length_a 15.336576
_cell_length_b 21.208461
_cell_length_c 12.880096
_cell_angle_alpha 90.000000
_cell_angle_beta 90.000000
_cell_angle_gamma 90.000000
_cell_volume 4189.446666
_symmetry_space_group_name_H-M "C C C A"
_symmetry_group_IT_number 68
_space_group.IT_coordinate_system_code '2'
_symmetry_cell_setting 'orthorhombic'
loop_
_space_group_symop_operation_xyz
x,y,z
-x,1/2-y,z
x,1/2-y,1/2-z
-x,y,1/2-z
-x,-y,-z
x,1/2+y,-z
-x,1/2+y,1/2+z
x,-y,1/2+z
1/2+x,1/2+y,z
1/2-x,-y,z
1/2+x,-y,1/2-z
1/2-x,1/2+y,1/2-z
1/2-x,1/2-y,-z
1/2+x,y,-z
1/2-x,y,1/2+z
1/2+x,1/2-y,1/2+z
loop_
_atom_site_type_symbol
_atom_site_label
_atom_site_fract_x
_atom_site_fract_y
_atom_site_fract_z
Si Si1 0.379863 0.208054 0.566020
Si Si2 0.500000 0.098886 0.250000
Si Si3 0.073857 0.543440 0.449958
Si Si4 0.143172 0.308825 0.674004
Si Si5 0.431508 0.844860 0.395371
Si Si6 0.802602 0.626658 0.730040
Si Si7 0.250000 0.500000 0.875490
O O1 0.362664 0.211558 0.444635
O O2 0.467092 0.172243 0.602832
O O3 0.377370 0.280268 0.600145
O O4 0.304695 0.170262 0.626701
O O5 0.550227 0.054492 0.330404
O O6 0.433175 0.141406 0.312344
O O7 0.086224 0.609544 0.507988
O O8 0.167023 0.508556 0.451248
O O9 0.000000 0.500000 0.500000
O O10 0.127719 0.250000 0.750000
O O11 0.235107 0.342066 0.690917
O O12 0.396637 0.877914 0.289166
O O13 0.767658 0.558534 0.699638
#
# Coordination Sequence:
#
# PCOD8283641 Si02
#       7
#    16   8  16  16  16  16   8
#     4  11  25  48  76 116 147 197 255 321 390 465
#     4  12  25  48  70 112 142 199 250 306 388 460
#     4  12  28  49  76 107 150 206 258 322 383 465
#     4  12  26  44  78 108 151 191 246 318 391 456
#     4  11  25  47  78 108 150 197 252 317 388 455
#     4  12  28  48  73 110 153 199 250 323 378 469
#     4  12  30  50  72 106 156 198 262 306 384 466
#
# _framework density 22.914719999999999
#
# number of rings (size 3 to 8) (size 9 to 14) (size 15 to 20)
#    0.000    0.333    3.333    4.250    7.000    3.333 
#    0.000    0.000    0.000    0.000    0.000    0.000 
#    0.000    0.000    0.000    0.000    0.000    0.000 
#
# Total GULP energy -595355.112135 kJ/mol
# GULP energy per Si atom -12403.231503 kJ/mol
# Density = 2.286257 g / cm^3
# Si number density = 22.914720 Si / 1000 Ang^3
#
#
#
# Elastic Constant Matrix: (Units=GPa)
#
#
# Indices 1 2 3 4 5 6 
#
# 1 123.5150 50.5388 37.0963 0.0000 0.0000 0.0000
# 2 50.5388 112.1110 36.1891 0.0000 0.0000 0.0000
# 3 37.0963 36.1891 118.1129 0.0000 0.0000 0.0000
# 4 0.0000 0.0000 0.0000 32.8190 0.0000 0.0000
# 5 0.0000 0.0000 0.0000 0.0000 42.1870 0.0000
# 6 0.0000 0.0000 0.0000 0.0000 0.0000 79.1316
#
#
#
# Elastic Compliance Matrix: (Units=1/GPa)
#
#
# Indices 1 2 3 4 5 6 
#
# 1 0.010344 -0.004011 -0.002020 0.000000 0.000000 0.000000
# 2 -0.004011 0.011454 -0.002250 0.000000 0.000000 0.000000
# 3 -0.002020 -0.002250 0.009790 0.000000 0.000000 0.000000
# 4 0.000000 0.000000 0.000000 0.030470 0.000000 0.000000
# 5 0.000000 0.000000 0.000000 0.000000 0.023704 0.000000
# 6 0.000000 0.000000 0.000000 0.000000 0.000000 0.012637
#
#
# Mechanical properties :
#
#
# Convention : Reuss Voigt Hill
#
# Bulk Modulus (GPa) = 66.54635 66.82081 66.68358
# Shear Modulus (GPa) = 41.67720 46.15516 43.91618
#
# Velocity S-wave (km/s) = 4.26936 4.49287 4.38254
# Velocity P-wave (km/s) = 7.30802 7.49256 7.40087
#
# Compressibility (1/GPa) = 0.01502712
#
# Stress axis : x y z
#
# Youngs Moduli (GPa) = 96.67434 87.30532 102.14345
#
# Poissons Ratio (x) = 0.35018 0.20631
# Poissons Ratio (y) = 0.38776 0.22979
# Poissons Ratio (z) = 0.19527 0.19641
#
# Static dielectric constant tensor:
#      x y z
#    x 3.786850 0.000000 0.000000 
#    y 0.000000 4.238490 0.000000 
#    z 0.000000 0.000000 4.007950 
# 
# 
# High freq. dielectric constant tensor:
#      x y z
#    x 1.919630 0.000000 0.000000 
#    y 0.000000 1.913300 0.000000 
#    z 0.000000 0.000000 1.911030 
# 
# From -- ./inp_files/22433.got.cif
#   From: 2010.03.12/outbox.cif.g09.slc.cpg/sg68_12_cif.got.tgz:22433.got - 2010.04.10 23:14:56.
