data_PCOD8283971
_publ_section_title
;
Structure prediction by ZEFSAII (Michael W. Deem and Ramdas Pophale) SiO2 
 PCOD8283971
Probable space group: F M M M
;
_chemical_formula_sum "Si O2"
_cell_formula_units_Z 160
_cell_length_a 26.806823
_cell_length_b 17.734655
_cell_length_c 20.803642
_cell_angle_alpha 90.000000
_cell_angle_beta 90.000000
_cell_angle_gamma 90.000000
_cell_volume 9890.254399
_symmetry_space_group_name_H-M "F M M M"
_symmetry_group_IT_number 69
_symmetry_cell_setting 'orthorhombic'
loop_
_space_group_symop_operation_xyz
x,y,z
-x,-y,z
x,-y,-z
-x,y,-z
-x,-y,-z
x,y,-z
-x,y,z
x,-y,z
x,1/2+y,1/2+z
-x,1/2-y,1/2+z
x,1/2-y,1/2-z
-x,1/2+y,1/2-z
-x,1/2-y,1/2-z
x,1/2+y,1/2-z
-x,1/2+y,1/2+z
x,1/2-y,1/2+z
1/2+x,y,1/2+z
1/2-x,-y,1/2+z
1/2+x,-y,1/2-z
1/2-x,y,1/2-z
1/2-x,-y,1/2-z
1/2+x,y,1/2-z
1/2-x,y,1/2+z
1/2+x,-y,1/2+z
1/2+x,1/2+y,z
1/2-x,1/2-y,z
1/2+x,1/2-y,-z
1/2-x,1/2+y,-z
1/2-x,1/2-y,-z
1/2+x,1/2+y,-z
1/2-x,1/2+y,z
1/2+x,1/2-y,z
loop_
_atom_site_type_symbol
_atom_site_label
_atom_site_fract_x
_atom_site_fract_y
_atom_site_fract_z
Si Si1 0.109559 0.271931 0.428889
Si Si2 0.129991 0.414122 0.638501
Si Si3 0.789542 0.684665 0.072549
Si Si4 0.442573 0.696336 0.191850
Si Si5 0.256707 0.585460 0.179746
O O1 0.087581 0.258127 0.500000
O O2 0.127238 0.360067 0.424271
O O3 0.155514 0.216719 0.414976
O O4 0.067238 0.257329 0.374840
O O5 0.114618 0.500000 0.621594
O O6 0.091645 0.379375 0.691945
O O7 0.185393 0.409714 0.664482
O O8 0.750000 0.750000 0.082323
O O9 0.778022 0.622041 0.125461
O O10 0.785495 0.651245 0.000000
O O11 0.500000 0.672193 0.196958
O O12 0.426461 0.750000 0.250000
O O13 0.237705 0.500000 0.183030
O O14 0.250000 0.624004 0.250000
#
# Coordination Sequence:
#
# PCOD8283971 Si02
#       5
#    32  32  32  32  32
#     4   9  19  32  49  73  97 131 169 201 241 295
#     4   9  19  33  49  73 103 131 162 203 248 298
#     4  10  18  31  48  70  98 129 168 202 238 292
#     4   9  19  34  52  74  98 128 166 205 248 295
#     4  10  21  33  48  73 100 131 170 208 249 297
#
# _framework density 16.177541000000002
#
# number of rings (size 3 to 8) (size 9 to 14) (size 15 to 20)
#    1.200    1.400    2.000    0.000    2.800    2.000 
#    0.000    2.000    0.000    1.200    0.000    0.000 
#    0.000    0.000    0.000    8.800    0.000    0.000 
#
# Total GULP energy -495525.301730 kJ/mol
# GULP energy per Si atom -12388.132543 kJ/mol
# Density = 1.614072 g / cm^3
# Si number density = 16.177541 Si / 1000 Ang^3
#
#
#
# Elastic Constant Matrix: (Units=GPa)
#
#
# Indices 1 2 3 4 5 6 
#
# 1 36.4444 29.1499 18.4661 0.0000 0.0000 0.0000
# 2 29.1499 72.0689 45.3575 0.0000 0.0000 0.0000
# 3 18.4661 45.3575 112.0924 0.0000 0.0000 0.0000
# 4 0.0000 0.0000 0.0000 11.2876 0.0000 0.0000
# 5 0.0000 0.0000 0.0000 0.0000 19.3461 0.0000
# 6 0.0000 0.0000 0.0000 0.0000 0.0000 14.0592
#
#
#
# Elastic Compliance Matrix: (Units=1/GPa)
#
#
# Indices 1 2 3 4 5 6 
#
# 1 0.040562 -0.016369 -0.000058 0.000000 0.000000 0.000000
# 2 -0.016369 0.025223 -0.007510 0.000000 0.000000 0.000000
# 3 -0.000058 -0.007510 0.011970 0.000000 0.000000 0.000000
# 4 0.000000 0.000000 0.000000 0.088593 0.000000 0.000000
# 5 0.000000 0.000000 0.000000 0.000000 0.051690 0.000000
# 6 0.000000 0.000000 0.000000 0.000000 0.000000 0.071128
#
#
# Mechanical properties :
#
#
# Convention : Reuss Voigt Hill
#
# Bulk Modulus (GPa) = 33.46788 45.17253 39.32020
# Shear Modulus (GPa) = 14.40928 17.44739 15.92834
#
# Velocity S-wave (km/s) = 2.98769 3.28761 3.14123
# Velocity P-wave (km/s) = 5.71266 6.51113 6.12492
#
# Compressibility (1/GPa) = 0.02987940
#
# Stress axis : x y z
#
# Youngs Moduli (GPa) = 24.65390 39.64674 83.54547
#
# Poissons Ratio (x) = 0.64899 0.00488
# Poissons Ratio (y) = 0.40357 0.62739
# Poissons Ratio (z) = 0.00144 0.29773
#
# Static dielectric constant tensor:
#      x y z
#    x 2.887280 0.000000 0.000000 
#    y 0.000000 3.024540 0.000000 
#    z 0.000000 0.000000 3.099810 
# 
# 
# High freq. dielectric constant tensor:
#      x y z
#    x 1.613360 0.000000 0.000000 
#    y 0.000000 1.600680 0.000000 
#    z 0.000000 0.000000 1.624700 
# 
# From -- ./inp_files/33941.got.cif
#   From: 2010.03.12/outbox.cif.g09.slc.cpg/sg69_17_cif.got.tgz:33941.got - 2010.04.10 23:52:46.
