data_PCOD8283024
_publ_section_title
;
Structure prediction by ZEFSAII (Michael W. Deem and Ramdas Pophale) SiO2 
 PCOD8283024
Probable space group: C C C A
;
_chemical_formula_sum "Si O2"
_cell_formula_units_Z 88
_cell_length_a 17.544523
_cell_length_b 8.916654
_cell_length_c 27.007027
_cell_angle_alpha 90.000000
_cell_angle_beta 90.000000
_cell_angle_gamma 90.000000
_cell_volume 4224.937205
_symmetry_space_group_name_H-M "C C C A"
_symmetry_group_IT_number 68
_space_group.IT_coordinate_system_code '2'
_symmetry_cell_setting 'orthorhombic'
loop_
_space_group_symop_operation_xyz
x,y,z
-x,1/2-y,z
x,1/2-y,1/2-z
-x,y,1/2-z
-x,-y,-z
x,1/2+y,-z
-x,1/2+y,1/2+z
x,-y,1/2+z
1/2+x,1/2+y,z
1/2-x,-y,z
1/2+x,-y,1/2-z
1/2-x,1/2+y,1/2-z
1/2-x,1/2-y,-z
1/2+x,y,-z
1/2-x,y,1/2+z
1/2+x,1/2-y,1/2+z
loop_
_atom_site_type_symbol
_atom_site_label
_atom_site_fract_x
_atom_site_fract_y
_atom_site_fract_z
Si Si1 0.396202 0.122700 0.322701
Si Si2 0.944583 0.053010 0.850921
Si Si3 0.176396 0.923860 0.903685
Si Si4 0.210816 0.750000 0.250000
Si Si5 0.518593 0.575740 0.448573
Si Si6 0.698720 0.132421 0.843866
O O1 0.481287 0.056107 0.314775
O O2 0.402214 0.286133 0.349180
O O3 0.348812 0.127065 0.271510
O O4 0.345011 0.014858 0.355016
O O5 0.886980 0.924856 0.832512
O O6 0.973954 0.016481 0.906268
O O7 0.109367 0.933600 0.943167
O O8 0.195601 0.756103 0.886462
O O9 0.250000 0.000000 0.928903
O O10 0.263981 0.815432 0.207454
O O11 0.500000 0.750000 0.446897
O O12 0.500000 0.500000 0.500000
O O13 0.750000 0.000000 0.866806
#
# Coordination Sequence:
#
# PCOD8283024 Si02
#       6
#    16  16  16   8  16  16
#     4  10  23  38  67  94 134 177 224 270 329 393
#     4  10  22  45  64  93 134 182 207 268 348 400
#     4  11  22  43  69  99 134 176 216 269 347 400
#     4  12  24  39  66 103 132 178 238 286 311 386
#     4  11  25  44  73 100 132 168 222 276 333 415
#     4  12  24  41  65  94 136 181 220 275 332 387
#
# _framework density 20.828711999999999
#
# number of rings (size 3 to 8) (size 9 to 14) (size 15 to 20)
#    0.000    1.091    5.455    0.000    7.636    1.455 
#    0.000    1.818    8.000    0.000    0.000    0.000 
#    0.000    0.000    0.000    0.000    0.000    0.000 
#
# Total GULP energy -545483.298308 kJ/mol
# GULP energy per Si atom -12397.347689 kJ/mol
# Density = 2.078130 g / cm^3
# Si number density = 20.828712 Si / 1000 Ang^3
#
#
#
# Elastic Constant Matrix: (Units=GPa)
#
#
# Indices 1 2 3 4 5 6 
#
# 1 177.0212 54.0542 60.9882 0.0000 0.0000 0.0000
# 2 54.0542 98.5157 26.2472 0.0000 0.0000 0.0000
# 3 60.9882 26.2472 92.7582 0.0000 0.0000 0.0000
# 4 0.0000 0.0000 0.0000 15.9193 0.0000 0.0000
# 5 0.0000 0.0000 0.0000 0.0000 34.5904 0.0000
# 6 0.0000 0.0000 0.0000 0.0000 0.0000 47.8820
#
#
#
# Elastic Compliance Matrix: (Units=1/GPa)
#
#
# Indices 1 2 3 4 5 6 
#
# 1 0.008193 -0.003310 -0.004450 0.000000 0.000000 0.000000
# 2 -0.003310 0.012315 -0.001309 0.000000 0.000000 0.000000
# 3 -0.004450 -0.001309 0.014077 0.000000 0.000000 0.000000
# 4 0.000000 0.000000 0.000000 0.062817 0.000000 0.000000
# 5 0.000000 0.000000 0.000000 0.000000 0.028910 0.000000
# 6 0.000000 0.000000 0.000000 0.000000 0.000000 0.020885
#
#
# Mechanical properties :
#
#
# Convention : Reuss Voigt Hill
#
# Bulk Modulus (GPa) = 60.79768 72.31937 66.55853
# Shear Modulus (GPa) = 29.27118 34.81205 32.04162
#
# Velocity S-wave (km/s) = 3.75284 4.09265 3.92642
# Velocity P-wave (km/s) = 6.93045 7.55840 7.25123
#
# Compressibility (1/GPa) = 0.01644799
#
# Stress axis : x y z
#
# Youngs Moduli (GPa) = 122.05708 81.19983 71.03746
#
# Poissons Ratio (x) = 0.26874 0.31614
# Poissons Ratio (y) = 0.40397 0.09297
# Poissons Ratio (z) = 0.54319 0.10627
#
# Static dielectric constant tensor:
#      x y z
#    x 4.388820 0.000000 0.000000 
#    y 0.000000 4.041760 0.000000 
#    z 0.000000 0.000000 3.157290 
# 
# 
# High freq. dielectric constant tensor:
#      x y z
#    x 1.845760 0.000000 0.000000 
#    y 0.000000 1.826810 0.000000 
#    z 0.000000 0.000000 1.777740 
# 
# From -- ./inp_files/54046.got.cif
#   From: 2010.03.12/outbox.cif.g09.slc.cpg/sg68_28_cif.got.tgz:54046.got - 2010.04.10 23:14:56.
