data_PCOD8283621
_publ_section_title
;
Structure prediction by ZEFSAII (Michael W. Deem and Ramdas Pophale) SiO2 
 PCOD8283621
Probable space group: C C C A
;
_chemical_formula_sum "Si O2"
_cell_formula_units_Z 68
_cell_length_a 25.850037
_cell_length_b 12.950575
_cell_length_c 8.931311
_cell_angle_alpha 90.000000
_cell_angle_beta 90.000000
_cell_angle_gamma 90.000000
_cell_volume 2989.960374
_symmetry_space_group_name_H-M "C C C A"
_symmetry_group_IT_number 68
_space_group.IT_coordinate_system_code '2'
_symmetry_cell_setting 'orthorhombic'
loop_
_space_group_symop_operation_xyz
x,y,z
-x,1/2-y,z
x,1/2-y,1/2-z
-x,y,1/2-z
-x,-y,-z
x,1/2+y,-z
-x,1/2+y,1/2+z
x,-y,1/2+z
1/2+x,1/2+y,z
1/2-x,-y,z
1/2+x,-y,1/2-z
1/2-x,1/2+y,1/2-z
1/2-x,1/2-y,-z
1/2+x,y,-z
1/2-x,y,1/2+z
1/2+x,1/2-y,1/2+z
loop_
_atom_site_type_symbol
_atom_site_label
_atom_site_fract_x
_atom_site_fract_y
_atom_site_fract_z
Si Si1 0.713783 0.643483 0.166287
Si Si2 0.046941 0.434599 0.932542
Si Si3 0.000000 0.250000 0.750000
Si Si4 0.884242 0.966263 0.699574
Si Si5 0.309237 0.644341 0.673912
O O1 0.725525 0.750000 0.250000
O O2 0.659376 0.603199 0.225182
O O3 0.766664 0.584052 0.220167
O O4 0.715211 0.659898 0.989901
O O5 0.068751 0.513479 0.810535
O O6 0.032753 0.324532 0.859384
O O7 0.091599 0.409982 0.054551
O O8 0.000000 0.500000 0.000000
O O9 0.859831 0.075178 0.652868
O O10 0.328849 0.750000 0.750000
#
# Coordination Sequence:
#
# PCOD8283621 Si02
#       5
#    16  16   4  16  16
#     4  11  25  42  66 106 146 192 242 297 361 441
#     4  12  27  50  74 111 142 191 253 312 377 458
#     4  12  28  52  86  98 156 192 238 332 400 422
#     4  12  26  44  77 103 144 184 248 300 365 445
#     4  11  25  42  69 104 148 193 241 298 364 438
#
# _framework density 22.742775000000002
#
# number of rings (size 3 to 8) (size 9 to 14) (size 15 to 20)
#    0.000    0.471    4.706    3.529    8.235    3.765 
#    0.000    1.176    0.000    0.000    0.000    0.000 
#    0.000    0.000    0.000    0.000    0.000    0.000 
#
# Total GULP energy -421475.999896 kJ/mol
# GULP energy per Si atom -12396.352938 kJ/mol
# Density = 2.269101 g / cm^3
# Si number density = 22.742775 Si / 1000 Ang^3
#
#
#
# Elastic Constant Matrix: (Units=GPa)
#
#
# Indices 1 2 3 4 5 6 
#
# 1 128.6140 46.2981 58.4308 0.0000 0.0000 0.0000
# 2 46.2981 61.0511 30.7372 0.0000 0.0000 0.0000
# 3 58.4308 30.7372 171.7016 0.0000 0.0000 0.0000
# 4 0.0000 0.0000 0.0000 41.0491 0.0000 0.0000
# 5 0.0000 0.0000 0.0000 0.0000 30.0726 0.0000
# 6 0.0000 0.0000 0.0000 0.0000 0.0000 -2.8731
#
#
#
# Elastic Compliance Matrix: (Units=1/GPa)
#
#
# Indices 1 2 3 4 5 6 
#
# 1 0.011681 -0.007536 -0.002626 0.000000 0.000000 0.000000
# 2 -0.007536 0.022864 -0.001528 0.000000 0.000000 0.000000
# 3 -0.002626 -0.001528 0.006991 0.000000 0.000000 0.000000
# 4 0.000000 0.000000 0.000000 0.024361 0.000000 0.000000
# 5 0.000000 0.000000 0.000000 0.000000 0.033253 0.000000
# 6 0.000000 0.000000 0.000000 0.000000 0.000000 -0.348051
#
#
# Mechanical properties :
#
#
# Convention : Reuss Voigt Hill
#
# Bulk Modulus (GPa) = 55.08025 70.25544 62.66784
# Shear Modulus (GPa) = -22.78245 28.70974 2.96364
#
# Velocity S-wave (km/s) = -3.16847 3.55684 1.14278
# Velocity P-wave (km/s) = 3.29936 6.91567 5.41813
#
# Compressibility (1/GPa) = 0.01815533
#
# Stress axis : x y z
#
# Youngs Moduli (GPa) = 85.60819 43.73619 143.03446
#
# Poissons Ratio (x) = 0.32961 0.37561
# Poissons Ratio (y) = 0.64517 0.21862
# Poissons Ratio (z) = 0.22481 0.06685
#
# Static dielectric constant tensor:
#      x y z
#    x 4.374610 0.000000 0.000000 
#    y 0.000000 4.169180 0.000000 
#    z 0.000000 0.000000 4.461860 
# 
# 
# High freq. dielectric constant tensor:
#      x y z
#    x 1.917600 0.000000 0.000000 
#    y 0.000000 1.890210 0.000000 
#    z 0.000000 0.000000 1.915610 
# 
# From -- ./inp_files/8610.got.cif
#   From: 2010.03.12/outbox.cif.g09.slc.cpg/sg68_5_cif.got.tgz:8610.got - 2010.04.10 23:14:56.
