data_PCOD8283802
_publ_section_title
;
Structure prediction by ZEFSAII (Michael W. Deem and Ramdas Pophale) SiO2 
 PCOD8283802
Probable space group: F M M M
;
_chemical_formula_sum "Si O2"
_cell_formula_units_Z 176
_cell_length_a 32.407686
_cell_length_b 16.992168
_cell_length_c 17.764734
_cell_angle_alpha 90.000000
_cell_angle_beta 90.000000
_cell_angle_gamma 90.000000
_cell_volume 9782.627671
_symmetry_space_group_name_H-M "F M M M"
_symmetry_group_IT_number 69
_symmetry_cell_setting 'orthorhombic'
loop_
_space_group_symop_operation_xyz
x,y,z
-x,-y,z
x,-y,-z
-x,y,-z
-x,-y,-z
x,y,-z
-x,y,z
x,-y,z
x,1/2+y,1/2+z
-x,1/2-y,1/2+z
x,1/2-y,1/2-z
-x,1/2+y,1/2-z
-x,1/2-y,1/2-z
x,1/2+y,1/2-z
-x,1/2+y,1/2+z
x,1/2-y,1/2+z
1/2+x,y,1/2+z
1/2-x,-y,1/2+z
1/2+x,-y,1/2-z
1/2-x,y,1/2-z
1/2-x,-y,1/2-z
1/2+x,y,1/2-z
1/2-x,y,1/2+z
1/2+x,-y,1/2+z
1/2+x,1/2+y,z
1/2-x,1/2-y,z
1/2+x,1/2-y,-z
1/2-x,1/2+y,-z
1/2-x,1/2-y,-z
1/2+x,1/2+y,-z
1/2-x,1/2+y,z
1/2+x,1/2-y,z
loop_
_atom_site_type_symbol
_atom_site_label
_atom_site_fract_x
_atom_site_fract_y
_atom_site_fract_z
Si Si1 0.931260 0.316666 0.690436
Si Si2 0.000000 0.095311 0.091611
Si Si3 0.623881 0.589976 0.300931
Si Si4 0.204179 0.342841 0.733797
Si Si5 0.207405 0.208456 0.918294
Si Si6 0.877311 0.214064 0.416616
O O1 0.949520 0.250000 0.750000
O O2 0.962452 0.361735 0.634697
O O3 0.908029 0.382432 0.737968
O O4 0.897314 0.279062 0.636549
O O5 0.000000 0.000000 0.104553
O O6 0.000000 0.111874 0.000000
O O7 0.616422 0.500000 0.314465
O O8 0.671185 0.606731 0.278904
O O9 0.613818 0.629342 0.380969
O O10 0.197941 0.250000 0.750000
O O11 0.250000 0.373645 0.750000
O O12 0.196876 0.356695 0.644306
O O13 0.250000 0.250000 0.893969
O O14 0.171783 0.273893 0.920461
O O15 0.211821 0.167482 0.000000
O O16 0.896990 0.217526 0.500000
#
# Coordination Sequence:
#
# PCOD8283802 Si02
#       6
#    32  16  32  32  32  32
#     4  10  20  38  60  80 106 142 187 222 259 317
#     4  11  23  38  58  88 119 141 168 218 284 343
#     4  11  21  33  50  76 110 142 174 220 274 326
#     4  11  17  31  50  70  99 136 184 229 261 320
#     4  10  17  27  48  74  97 128 176 229 269 304
#     4  10  19  33  54  77 102 137 181 227 266 310
#
# _framework density 17.991076
#
# number of rings (size 3 to 8) (size 9 to 14) (size 15 to 20)
#    0.000    1.545    5.455    1.909    0.000    0.727 
#    0.000    0.000    0.000    1.636    0.000    0.000 
#    0.000   13.091    0.000    0.000    0.000    0.000 
#
# Total GULP energy -545097.256540 kJ/mol
# GULP energy per Si atom -12388.574012 kJ/mol
# Density = 1.795013 g / cm^3
# Si number density = 17.991076 Si / 1000 Ang^3
#
#
#
# Elastic Constant Matrix: (Units=GPa)
#
#
# Indices 1 2 3 4 5 6 
#
# 1 74.5918 21.5151 12.3517 0.0000 0.0000 0.0000
# 2 21.5151 76.5386 17.0353 0.0000 0.0000 0.0000
# 3 12.3517 17.0353 115.2093 0.0000 0.0000 0.0000
# 4 0.0000 0.0000 0.0000 19.9658 0.0000 0.0000
# 5 0.0000 0.0000 0.0000 0.0000 29.1302 0.0000
# 6 0.0000 0.0000 0.0000 0.0000 0.0000 17.4134
#
#
#
# Elastic Compliance Matrix: (Units=1/GPa)
#
#
# Indices 1 2 3 4 5 6 
#
# 1 0.014699 -0.003910 -0.000998 0.000000 0.000000 0.000000
# 2 -0.003910 0.014550 -0.001732 0.000000 0.000000 0.000000
# 3 -0.000998 -0.001732 0.009043 0.000000 0.000000 0.000000
# 4 0.000000 0.000000 0.000000 0.050086 0.000000 0.000000
# 5 0.000000 0.000000 0.000000 0.000000 0.034329 0.000000
# 6 0.000000 0.000000 0.000000 0.000000 0.000000 0.057427
#
#
# Mechanical properties :
#
#
# Convention : Reuss Voigt Hill
#
# Bulk Modulus (GPa) = 39.98028 40.90487 40.44258
# Shear Modulus (GPa) = 24.78305 27.66439 26.22372
#
# Velocity S-wave (km/s) = 3.71552 3.92557 3.82199
# Velocity P-wave (km/s) = 6.37788 6.58273 6.48111
#
# Compressibility (1/GPa) = 0.02501233
#
# Stress axis : x y z
#
# Youngs Moduli (GPa) = 68.03051 68.72888 110.58325
#
# Poissons Ratio (x) = 0.26872 0.11034
# Poissons Ratio (y) = 0.26599 0.19155
# Poissons Ratio (z) = 0.06788 0.11905
#
# Static dielectric constant tensor:
#      x y z
#    x 3.376300 0.000000 0.000000 
#    y 0.000000 3.021740 0.000000 
#    z 0.000000 0.000000 3.912620 
# 
# 
# High freq. dielectric constant tensor:
#      x y z
#    x 1.693950 0.000000 0.000000 
#    y 0.000000 1.653820 0.000000 
#    z 0.000000 0.000000 1.723760 
# 
# From -- ./inp_files/27714.got.cif
#   From: 2010.03.12/outbox.cif.g09.slc.cpg/sg69_14_cif.got.tgz:27714.got - 2010.04.10 23:52:46.
