data_PCOD8283624
_publ_section_title
;
Structure prediction by ZEFSAII (Michael W. Deem and Ramdas Pophale) SiO2 
 PCOD8283624
Probable space group: C C C A
;
_chemical_formula_sum "Si O2"
_cell_formula_units_Z 68
_cell_length_a 16.590028
_cell_length_b 8.658819
_cell_length_c 21.432376
_cell_angle_alpha 90.000000
_cell_angle_beta 90.000000
_cell_angle_gamma 90.000000
_cell_volume 3078.761877
_symmetry_space_group_name_H-M "C C C A"
_symmetry_group_IT_number 68
_space_group.IT_coordinate_system_code '2'
_symmetry_cell_setting 'orthorhombic'
loop_
_space_group_symop_operation_xyz
x,y,z
-x,1/2-y,z
x,1/2-y,1/2-z
-x,y,1/2-z
-x,-y,-z
x,1/2+y,-z
-x,1/2+y,1/2+z
x,-y,1/2+z
1/2+x,1/2+y,z
1/2-x,-y,z
1/2+x,-y,1/2-z
1/2-x,1/2+y,1/2-z
1/2-x,1/2-y,-z
1/2+x,y,-z
1/2-x,y,1/2+z
1/2+x,1/2-y,1/2+z
loop_
_atom_site_type_symbol
_atom_site_label
_atom_site_fract_x
_atom_site_fract_y
_atom_site_fract_z
Si Si1 0.166688 0.421526 0.434669
Si Si2 0.694802 0.780187 0.179811
Si Si3 0.000000 0.250000 0.750000
Si Si4 0.088949 0.271712 0.965803
Si Si5 0.371152 0.611426 0.659947
O O1 0.250000 0.500000 0.453785
O O2 0.167878 0.363153 0.363257
O O3 0.151515 0.275933 0.480023
O O4 0.098699 0.551661 0.443574
O O5 0.666399 0.750000 0.250000
O O6 0.791643 0.791979 0.178014
O O7 0.649889 0.931878 0.156217
O O8 0.056696 0.359295 0.708317
O O9 0.099899 0.157225 0.908184
O O10 0.000000 0.250000 0.993367
#
# Coordination Sequence:
#
# PCOD8283624 Si02
#       5
#    16  16   4  16  16
#     4  12  26  45  73 105 141 187 245 289 349 425
#     4  11  26  44  71 105 141 186 236 293 351 426
#     4  12  24  48  74 108 140 190 236 292 360 428
#     4  12  26  46  71 103 147 188 235 298 364 415
#     4  11  25  43  73 102 143 182 238 289 357 421
#
# _framework density 22.086801999999999
#
# number of rings (size 3 to 8) (size 9 to 14) (size 15 to 20)
#    0.000    0.471    4.706    2.824    9.882    0.000 
#    0.000    2.941    0.000    0.000    0.000    0.000 
#    0.000    0.000    0.000    0.000    0.000    0.000 
#
# Total GULP energy -421810.418940 kJ/mol
# GULP energy per Si atom -12406.188792 kJ/mol
# Density = 2.203653 g / cm^3
# Si number density = 22.086802 Si / 1000 Ang^3
#
#
#
# Elastic Constant Matrix: (Units=GPa)
#
#
# Indices 1 2 3 4 5 6 
#
# 1 104.7578 47.4712 40.6372 0.0000 0.0000 0.0000
# 2 47.4712 125.2781 50.2757 0.0000 0.0000 0.0000
# 3 40.6372 50.2757 144.3009 0.0000 0.0000 0.0000
# 4 0.0000 0.0000 0.0000 34.2474 0.0000 0.0000
# 5 0.0000 0.0000 0.0000 0.0000 32.0115 0.0000
# 6 0.0000 0.0000 0.0000 0.0000 0.0000 29.3913
#
#
#
# Elastic Compliance Matrix: (Units=1/GPa)
#
#
# Indices 1 2 3 4 5 6 
#
# 1 0.012046 -0.003724 -0.002095 0.000000 0.000000 0.000000
# 2 -0.003724 0.010431 -0.002586 0.000000 0.000000 0.000000
# 3 -0.002095 -0.002586 0.008421 0.000000 0.000000 0.000000
# 4 0.000000 0.000000 0.000000 0.029199 0.000000 0.000000
# 5 0.000000 0.000000 0.000000 0.000000 0.031239 0.000000
# 6 0.000000 0.000000 0.000000 0.000000 0.000000 0.034024
#
#
# Mechanical properties :
#
#
# Convention : Reuss Voigt Hill
#
# Bulk Modulus (GPa) = 70.97701 72.34501 71.66101
# Shear Modulus (GPa) = 34.04507 34.86023 34.45265
#
# Velocity S-wave (km/s) = 3.93035 3.97713 3.95381
# Velocity P-wave (km/s) = 7.26651 7.34275 7.30473
#
# Compressibility (1/GPa) = 0.01408907
#
# Stress axis : x y z
#
# Youngs Moduli (GPa) = 83.01564 95.86900 118.75438
#
# Poissons Ratio (x) = 0.35700 0.24878
# Poissons Ratio (y) = 0.30913 0.30704
# Poissons Ratio (z) = 0.17391 0.24787
#
# Static dielectric constant tensor:
#      x y z
#    x 4.048750 0.000000 0.000000 
#    y 0.000000 4.110390 0.000000 
#    z 0.000000 0.000000 4.026620 
# 
# 
# High freq. dielectric constant tensor:
#      x y z
#    x 1.870240 0.000000 0.000000 
#    y 0.000000 1.874420 0.000000 
#    z 0.000000 0.000000 1.877200 
# 
# From -- ./inp_files/35852.got.cif
#   From: 2010.03.12/outbox.cif.g09.slc.cpg/sg68_18_cif.got.tgz:35852.got - 2010.04.10 23:14:56.
