data_PCOD8283807
_publ_section_title
;
Structure prediction by ZEFSAII (Michael W. Deem and Ramdas Pophale) SiO2 
 PCOD8283807
Probable space group: F M M M
;
_chemical_formula_sum "Si O2"
_cell_formula_units_Z 144
_cell_length_a 33.487199
_cell_length_b 27.596458
_cell_length_c 10.300621
_cell_angle_alpha 90.000000
_cell_angle_beta 90.000000
_cell_angle_gamma 90.000000
_cell_volume 9519.093115
_symmetry_space_group_name_H-M "F M M M"
_symmetry_group_IT_number 69
_symmetry_cell_setting 'orthorhombic'
loop_
_space_group_symop_operation_xyz
x,y,z
-x,-y,z
x,-y,-z
-x,y,-z
-x,-y,-z
x,y,-z
-x,y,z
x,-y,z
x,1/2+y,1/2+z
-x,1/2-y,1/2+z
x,1/2-y,1/2-z
-x,1/2+y,1/2-z
-x,1/2-y,1/2-z
x,1/2+y,1/2-z
-x,1/2+y,1/2+z
x,1/2-y,1/2+z
1/2+x,y,1/2+z
1/2-x,-y,1/2+z
1/2+x,-y,1/2-z
1/2-x,y,1/2-z
1/2-x,-y,1/2-z
1/2+x,y,1/2-z
1/2-x,y,1/2+z
1/2+x,-y,1/2+z
1/2+x,1/2+y,z
1/2-x,1/2-y,z
1/2+x,1/2-y,-z
1/2-x,1/2+y,-z
1/2-x,1/2-y,-z
1/2+x,1/2+y,-z
1/2-x,1/2+y,z
1/2+x,1/2-y,z
loop_
_atom_site_type_symbol
_atom_site_label
_atom_site_fract_x
_atom_site_fract_y
_atom_site_fract_z
Si Si1 0.701409 0.442704 0.000000
Si Si2 0.290450 0.442670 0.500000
Si Si3 0.078894 0.606106 0.150526
Si Si4 0.343021 0.942472 0.241490
Si Si5 0.000000 0.054650 0.654374
Si Si6 0.046092 0.790239 0.646808
O O1 0.677563 0.425474 0.126071
O O2 0.705448 0.500000 0.000000
O O3 0.745954 0.419922 0.000000
O O4 0.287066 0.500000 0.500000
O O5 0.313927 0.425102 0.626817
O O6 0.115712 0.586354 0.233022
O O7 0.074400 0.663614 0.168562
O O8 0.039408 0.580775 0.208024
O O9 0.085346 0.592121 0.000000
O O10 0.351294 0.000000 0.235678
O O11 0.000000 0.058058 0.500000
O O12 0.000000 0.000000 0.705401
O O13 0.051597 0.770214 0.500000
O O14 0.059564 0.750000 0.750000
O O15 0.000000 0.805607 0.668735
#
# Coordination Sequence:
#
# PCOD8283807 Si02
#       6
#    16  16  32  32  16  32
#     4   9  18  30  42  61  92 127 154 185 230 265
#     4   9  16  28  46  65  86 119 160 191 220 265
#     4  10  17  28  44  66  92 119 154 189 225 261
#     4  10  18  28  44  66  94 125 154 187 222 264
#     4   9  16  24  39  63  91 123 155 187 214 251
#     4   9  17  31  49  67  88 113 147 191 237 273
#
# _framework density 15.127490999999999
#
# number of rings (size 3 to 8) (size 9 to 14) (size 15 to 20)
#    0.000    2.556    2.222    1.333    0.000    3.556 
#    2.000    0.000    0.000    0.667    0.000    3.111 
#    0.000    5.333    0.000    0.000    0.000    0.000 
#
# Total GULP energy -446373.391510 kJ/mol
# GULP energy per Si atom -12399.260875 kJ/mol
# Density = 1.509306 g / cm^3
# Si number density = 15.127491 Si / 1000 Ang^3
#
#
#
# Elastic Constant Matrix: (Units=GPa)
#
#
# Indices 1 2 3 4 5 6 
#
# 1 131.7371 39.9671 60.4500 0.0007 -0.0006 0.0000
# 2 39.9671 57.4539 35.9290 0.0025 -0.0020 -0.0007
# 3 60.4500 35.9290 104.4076 0.0083 -0.0050 -0.0013
# 4 0.0007 0.0025 0.0083 14.4650 -0.0034 -0.0010
# 5 -0.0006 -0.0020 -0.0050 -0.0034 15.1081 0.0003
# 6 0.0000 -0.0007 -0.0013 -0.0010 0.0003 7.5816
#
#
#
# Elastic Compliance Matrix: (Units=1/GPa)
#
#
# Indices 1 2 3 4 5 6 
#
# 1 0.011288 -0.004798 -0.004884 0.000003 -0.000002 -0.000001
# 2 -0.004798 0.024217 -0.005556 -0.000001 0.000001 0.000001
# 3 -0.004884 -0.005556 0.014318 -0.000007 0.000004 0.000002
# 4 0.000003 -0.000001 -0.000007 0.069133 0.000016 0.000009
# 5 -0.000002 0.000001 0.000004 0.000016 0.066190 -0.000003
# 6 -0.000001 0.000001 0.000002 0.000009 -0.000003 0.131898
#
#
# Mechanical properties :
#
#
# Convention : Reuss Voigt Hill
#
# Bulk Modulus (GPa) = 51.68860 62.92121 57.30491
# Shear Modulus (GPa) = 14.12559 17.91444 16.02001
#
# Velocity S-wave (km/s) = 3.05908 3.44500 3.25776
# Velocity P-wave (km/s) = 6.83521 7.58342 7.21902
#
# Compressibility (1/GPa) = 0.01934663
#
# Stress axis : x y z
#
# Youngs Moduli (GPa) = 88.59189 41.29313 69.84356
#
# Poissons Ratio (x) = 0.19811 0.34114
# Poissons Ratio (y) = 0.42504 0.38804
# Poissons Ratio (z) = 0.43272 0.22942
#
# Static dielectric constant tensor:
#      x y z
#    x 2.962340 0.000000 0.000000 
#    y 0.000000 2.594560 0.000000 
#    z 0.000000 0.000000 2.860790 
# 
# 
# High freq. dielectric constant tensor:
#      x y z
#    x 1.581200 0.000000 0.000000 
#    y 0.000000 1.540160 0.000000 
#    z 0.000000 0.000000 1.568470 
# 
# From -- ./inp_files/5639.got.cif
#   From: 2010.03.12/outbox.cif.g09.slc.cpg/sg69_3_cif.got.tgz:5639.got - 2010.04.10 23:52:46.
