data_PCOD8283542
_publ_section_title
;
Structure prediction by ZEFSAII (Michael W. Deem and Ramdas Pophale) SiO2 
 PCOD8283542
Probable space group: C C C A
;
_chemical_formula_sum "Si O2"
_cell_formula_units_Z 80
_cell_length_a 7.872773
_cell_length_b 19.731269
_cell_length_c 22.045435
_cell_angle_alpha 90.000000
_cell_angle_beta 90.000000
_cell_angle_gamma 90.000000
_cell_volume 3424.533504
_symmetry_space_group_name_H-M "C C C A"
_symmetry_group_IT_number 68
_space_group.IT_coordinate_system_code '2'
_symmetry_cell_setting 'orthorhombic'
loop_
_space_group_symop_operation_xyz
x,y,z
-x,1/2-y,z
x,1/2-y,1/2-z
-x,y,1/2-z
-x,-y,-z
x,1/2+y,-z
-x,1/2+y,1/2+z
x,-y,1/2+z
1/2+x,1/2+y,z
1/2-x,-y,z
1/2+x,-y,1/2-z
1/2-x,1/2+y,1/2-z
1/2-x,1/2-y,-z
1/2+x,y,-z
1/2-x,y,1/2+z
1/2+x,1/2-y,1/2+z
loop_
_atom_site_type_symbol
_atom_site_label
_atom_site_fract_x
_atom_site_fract_y
_atom_site_fract_z
Si Si1 0.250000 0.000000 0.605695
Si Si2 0.043693 0.905701 0.681264
Si Si3 0.000000 0.250000 0.904587
Si Si4 0.448562 0.614510 0.964056
Si Si5 0.300511 0.577806 0.084333
Si Si6 0.193280 0.732136 0.819779
O O1 0.401313 0.024912 0.648744
O O2 0.180026 0.061622 0.566111
O O3 0.193416 0.850092 0.674767
O O4 0.000000 0.920677 0.750000
O O5 0.865967 0.887988 0.647021
O O6 0.912090 0.192842 0.947740
O O7 0.839147 0.267767 0.860479
O O8 0.637981 0.615806 0.939347
O O9 0.449590 0.593692 0.034885
O O10 0.250000 0.500000 0.091711
O O11 0.227173 0.750000 0.750000
O O12 0.000000 0.750000 0.839040
#
# Coordination Sequence:
#
# PCOD8283542 Si02
#       6
#     8  16   8  16  16  16
#     4  12  24  46  72 104 148 186 250 302 376 452
#     4  12  26  46  72 105 142 194 245 304 368 446
#     4  12  27  46  72 114 141 190 260 308 364 460
#     4  12  26  46  75 106 144 195 239 310 373 445
#     4  12  25  47  75 104 148 192 242 298 378 441
#     4  11  23  47  72  96 150 199 234 300 383 441
#
# _framework density 23.360847
#
# number of rings (size 3 to 8) (size 9 to 14) (size 15 to 20)
#    0.000    0.200    7.000    3.300    1.400    0.800 
#    1.800    0.000    0.000    0.000    0.000    0.000 
#    0.000    0.000    0.000    0.000    0.000    0.000 
#
# Total GULP energy -495617.580651 kJ/mol
# GULP energy per Si atom -12390.439516 kJ/mol
# Density = 2.330768 g / cm^3
# Si number density = 23.360847 Si / 1000 Ang^3
#
#
#
# Elastic Constant Matrix: (Units=GPa)
#
#
# Indices 1 2 3 4 5 6 
#
# 1 97.2610 3.5171 44.0417 0.0000 0.0000 0.0000
# 2 3.5171 106.2261 38.3138 0.0000 0.0000 0.0000
# 3 44.0417 38.3138 161.4621 0.0000 0.0000 0.0000
# 4 0.0000 0.0000 0.0000 19.9483 0.0000 0.0000
# 5 0.0000 0.0000 0.0000 0.0000 32.9839 0.0000
# 6 0.0000 0.0000 0.0000 0.0000 0.0000 -93.7520
#
#
#
# Elastic Compliance Matrix: (Units=1/GPa)
#
#
# Indices 1 2 3 4 5 6 
#
# 1 0.011799 0.000842 -0.003418 0.000000 0.000000 0.000000
# 2 0.000842 0.010355 -0.002687 0.000000 0.000000 0.000000
# 3 -0.003418 -0.002687 0.007763 0.000000 0.000000 0.000000
# 4 0.000000 0.000000 0.000000 0.050130 0.000000 0.000000
# 5 0.000000 0.000000 0.000000 0.000000 0.030318 0.000000
# 6 0.000000 0.000000 0.000000 0.000000 0.000000 -0.010666
#
#
# Mechanical properties :
#
#
# Convention : Reuss Voigt Hill
#
# Bulk Modulus (GPa) = 51.56867 59.63273 55.60070
# Shear Modulus (GPa) = 42.84919 10.44114 26.64516
#
# Velocity S-wave (km/s) = 4.28744 2.11641 3.38093
# Velocity P-wave (km/s) = 6.82878 5.61734 6.25247
#
# Compressibility (1/GPa) = 0.01939162
#
# Stress axis : x y z
#
# Youngs Moduli (GPa) = 84.75292 96.57057 128.80987
#
# Poissons Ratio (x) = -0.08134 0.44030
# Poissons Ratio (y) = -0.07138 0.34610
# Poissons Ratio (z) = 0.28971 0.25948
#
# Static dielectric constant tensor:
#      x y z
#    x 4.422870 0.000000 0.000000 
#    y 0.000000 4.377050 0.000000 
#    z 0.000000 0.000000 4.591680 
# 
# 
# High freq. dielectric constant tensor:
#      x y z
#    x 1.929780 0.000000 0.000000 
#    y 0.000000 1.929990 0.000000 
#    z 0.000000 0.000000 1.925580 
# 
# From -- ./inp_files/43073.got.cif
#   From: 2010.03.12/outbox.cif.g09.slc.cpg/sg68_22_cif.got.tgz:43073.got - 2010.04.10 23:14:56.
