data_PCOD8283124
_publ_section_title
;
Structure prediction by ZEFSAII (Michael W. Deem and Ramdas Pophale) SiO2 
 PCOD8283124
Probable space group: C C C A
;
_chemical_formula_sum "Si O2"
_cell_formula_units_Z 116
_cell_length_a 28.890874
_cell_length_b 15.924778
_cell_length_c 10.603596
_cell_angle_alpha 90.000000
_cell_angle_beta 90.000000
_cell_angle_gamma 90.000000
_cell_volume 4878.510450
_symmetry_space_group_name_H-M "C C C A"
_symmetry_group_IT_number 68
_space_group.IT_coordinate_system_code '2'
_symmetry_cell_setting 'orthorhombic'
loop_
_space_group_symop_operation_xyz
x,y,z
-x,1/2-y,z
x,1/2-y,1/2-z
-x,y,1/2-z
-x,-y,-z
x,1/2+y,-z
-x,1/2+y,1/2+z
x,-y,1/2+z
1/2+x,1/2+y,z
1/2-x,-y,z
1/2+x,-y,1/2-z
1/2-x,1/2+y,1/2-z
1/2-x,1/2-y,-z
1/2+x,y,-z
1/2-x,y,1/2+z
1/2+x,1/2-y,1/2+z
loop_
_atom_site_type_symbol
_atom_site_label
_atom_site_fract_x
_atom_site_fract_y
_atom_site_fract_z
Si Si1 0.545230 0.402917 0.606166
Si Si2 0.814879 0.422399 0.611685
Si Si3 0.604774 0.203158 0.381930
Si Si4 0.519736 0.086747 0.372795
Si Si5 0.373300 0.696675 0.371683
Si Si6 0.724170 0.832308 0.455924
Si Si7 0.000000 0.750000 0.750000
Si Si8 0.301617 0.471816 0.123298
O O1 0.522911 0.409675 0.468588
O O2 0.532649 0.491337 0.670331
O O3 0.601179 0.394457 0.619271
O O4 0.529189 0.314494 0.665531
O O5 0.845416 0.340164 0.622992
O O6 0.760436 0.395896 0.610036
O O7 0.827752 0.471937 0.482698
O O8 0.824950 0.477668 0.738095
O O9 0.594557 0.250000 0.250000
O O10 0.565234 0.135534 0.418022
O O11 0.607566 0.264222 0.499290
O O12 0.500000 0.133060 0.250000
O O13 0.389160 0.750000 0.250000
O O14 0.317679 0.688153 0.360600
O O15 0.750000 0.750000 0.500000
O O16 0.699512 0.875218 0.576836
O O17 0.250000 0.500000 0.139500
#
# Coordination Sequence:
#
# PCOD8283124 Si02
#       8
#    16  16  16  16  16  16   4  16
#     4  11  25  46  77 110 147 191 241 309 382 447
#     4  11  25  46  72 102 150 196 253 309 373 447
#     4  12  27  48  72 112 149 202 255 310 382 453
#     4  11  26  49  76 109 150 196 251 309 381 458
#     4  12  27  44  73 113 144 197 250 308 378 447
#     4  11  24  43  70 104 150 192 248 303 373 448
#     4  12  20  48  74 104 150 184 224 302 376 448
#     4  10  23  43  66  99 136 198 246 304 372 430
#
# _framework density 23.777750000000001
#
# number of rings (size 3 to 8) (size 9 to 14) (size 15 to 20)
#    0.000    0.828    2.759    3.724    3.862    2.483 
#    2.483    0.000    0.000    0.000    0.000    0.000 
#    0.000    0.000    0.000    0.000    0.000    0.000 
#
# Total GULP energy -718706.408074 kJ/mol
# GULP energy per Si atom -12391.489794 kJ/mol
# Density = 2.372363 g / cm^3
# Si number density = 23.777750 Si / 1000 Ang^3
#
#
#
# Elastic Constant Matrix: (Units=GPa)
#
#
# Indices 1 2 3 4 5 6 
#
# 1 116.3991 29.1747 23.8020 0.0000 0.0000 0.0000
# 2 29.1747 101.5832 29.5051 0.0000 0.0000 0.0000
# 3 23.8020 29.5051 142.5770 0.0000 0.0000 0.0000
# 4 0.0000 0.0000 0.0000 22.8085 0.0000 0.0000
# 5 0.0000 0.0000 0.0000 0.0000 21.9972 0.0000
# 6 0.0000 0.0000 0.0000 0.0000 0.0000 11.7467
#
#
#
# Elastic Compliance Matrix: (Units=1/GPa)
#
#
# Indices 1 2 3 4 5 6 
#
# 1 0.009410 -0.002390 -0.001076 0.000000 0.000000 0.000000
# 2 -0.002390 0.011081 -0.001894 0.000000 0.000000 0.000000
# 3 -0.001076 -0.001894 0.007585 0.000000 0.000000 0.000000
# 4 0.000000 0.000000 0.000000 0.043843 0.000000 0.000000
# 5 0.000000 0.000000 0.000000 0.000000 0.045460 0.000000
# 6 0.000000 0.000000 0.000000 0.000000 0.000000 0.085130
#
#
# Mechanical properties :
#
#
# Convention : Reuss Voigt Hill
#
# Bulk Modulus (GPa) = 57.61862 58.39143 58.00503
# Shear Modulus (GPa) = 22.82937 29.84898 26.33918
#
# Velocity S-wave (km/s) = 3.10193 3.54691 3.33186
# Velocity P-wave (km/s) = 6.09213 6.43309 6.26493
#
# Compressibility (1/GPa) = 0.01735550
#
# Stress axis : x y z
#
# Youngs Moduli (GPa) = 106.26681 90.24711 131.83208
#
# Poissons Ratio (x) = 0.21569 0.14190
# Poissons Ratio (y) = 0.25398 0.24970
# Poissons Ratio (z) = 0.11438 0.17093
#
# Static dielectric constant tensor:
#      x y z
#    x 4.460320 0.000000 0.000000 
#    y 0.000000 2.499990 0.000000 
#    z 0.000000 0.000000 1.083580 
# 
# 
# High freq. dielectric constant tensor:
#      x y z
#    x 1.945300 0.000000 0.000000 
#    y 0.000000 1.947070 0.000000 
#    z 0.000000 0.000000 1.943520 
# 
# From -- ./inp_files/17226.got.cif
#   From: 2010.03.12/outbox.cif.g09.slc.cpg/sg68_9_cif.got.tgz:17226.got - 2010.04.10 23:14:56.
