data_PCOD8283158
_publ_section_title
;
Structure prediction by ZEFSAII (Michael W. Deem and Ramdas Pophale) SiO2 
 PCOD8283158
Probable space group: C C C A
;
_chemical_formula_sum "Si O2"
_cell_formula_units_Z 48
_cell_length_a 13.368283
_cell_length_b 11.068333
_cell_length_c 15.239042
_cell_angle_alpha 90.000000
_cell_angle_beta 90.000000
_cell_angle_gamma 90.000000
_cell_volume 2254.838874
_symmetry_space_group_name_H-M "C C C A"
_symmetry_group_IT_number 68
_space_group.IT_coordinate_system_code '2'
_symmetry_cell_setting 'orthorhombic'
loop_
_space_group_symop_operation_xyz
x,y,z
-x,1/2-y,z
x,1/2-y,1/2-z
-x,y,1/2-z
-x,-y,-z
x,1/2+y,-z
-x,1/2+y,1/2+z
x,-y,1/2+z
1/2+x,1/2+y,z
1/2-x,-y,z
1/2+x,-y,1/2-z
1/2-x,1/2+y,1/2-z
1/2-x,1/2-y,-z
1/2+x,y,-z
1/2-x,y,1/2+z
1/2+x,1/2-y,1/2+z
loop_
_atom_site_type_symbol
_atom_site_label
_atom_site_fract_x
_atom_site_fract_y
_atom_site_fract_z
Si Si1 0.000000 0.250000 0.453513
Si Si2 0.082336 0.560214 0.680904
Si Si3 0.734883 0.750000 0.250000
Si Si4 0.104081 0.798619 0.379170
O O1 0.029370 0.136996 0.394786
O O2 0.096630 0.280779 0.515101
O O3 0.167424 0.633630 0.732094
O O4 0.126905 0.439104 0.639457
O O5 0.000000 0.520262 0.750000
O O6 0.805150 0.776777 0.335050
O O7 0.000000 0.750000 0.337258
#
# Coordination Sequence:
#
# PCOD8283158 Si02
#       4
#     8  16   8  16
#     4  10  23  45  68 100 136 180 224 281 337 402
#     4  12  22  45  69  96 137 181 224 277 335 409
#     4  12  22  42  66 102 126 180 228 272 332 404
#     4  10  25  42  68  97 139 175 226 274 344 392
#
# _framework density 21.287551000000001
#
# number of rings (size 3 to 8) (size 9 to 14) (size 15 to 20)
#    1.000    0.000    3.333    4.500    0.000    1.333 
#    0.000    0.000    0.000    0.000    0.000    0.000 
#    0.000    0.000    0.000    0.000    0.000    0.000 
#
# Total GULP energy -297463.844394 kJ/mol
# GULP energy per Si atom -12394.326850 kJ/mol
# Density = 2.123910 g / cm^3
# Si number density = 21.287551 Si / 1000 Ang^3
#
#
#
# Elastic Constant Matrix: (Units=GPa)
#
#
# Indices 1 2 3 4 5 6 
#
# 1 69.5513 3.2510 23.1974 0.0000 0.0000 0.0000
# 2 3.2510 96.4249 32.1947 0.0000 0.0000 0.0000
# 3 23.1974 32.1947 127.0442 0.0000 0.0000 0.0000
# 4 0.0000 0.0000 0.0000 3.2624 0.0000 0.0000
# 5 0.0000 0.0000 0.0000 0.0000 36.3348 0.0000
# 6 0.0000 0.0000 0.0000 0.0000 0.0000 4.9952
#
#
#
# Elastic Compliance Matrix: (Units=1/GPa)
#
#
# Indices 1 2 3 4 5 6 
#
# 1 0.015329 0.000456 -0.002915 0.000000 0.000000 0.000000
# 2 0.000456 0.011343 -0.002958 0.000000 0.000000 0.000000
# 3 -0.002915 -0.002958 0.009153 0.000000 0.000000 0.000000
# 4 0.000000 0.000000 0.000000 0.306520 0.000000 0.000000
# 5 0.000000 0.000000 0.000000 0.000000 0.027522 0.000000
# 6 0.000000 0.000000 0.000000 0.000000 0.000000 0.200191
#
#
# Mechanical properties :
#
#
# Convention : Reuss Voigt Hill
#
# Bulk Modulus (GPa) = 40.01191 45.58962 42.80077
# Shear Modulus (GPa) = 8.48578 24.54364 16.51471
#
# Velocity S-wave (km/s) = 1.99873 3.39921 2.78833
# Velocity P-wave (km/s) = 4.91562 6.07196 5.52413
#
# Compressibility (1/GPa) = 0.02499256
#
# Stress axis : x y z
#
# Youngs Moduli (GPa) = 65.23738 88.16062 109.25400
#
# Poissons Ratio (x) = -0.04023 0.31842
# Poissons Ratio (y) = -0.02977 0.32315
# Poissons Ratio (z) = 0.19014 0.26076
#
# Static dielectric constant tensor:
#      x y z
#    x 3.901110 0.000000 0.000000 
#    y 0.000000 3.740010 0.000000 
#    z 0.000000 0.000000 3.930290 
# 
# 
# High freq. dielectric constant tensor:
#      x y z
#    x 1.830230 0.000000 0.000000 
#    y 0.000000 1.831600 0.000000 
#    z 0.000000 0.000000 1.839700 
# 
# From -- ./inp_files/20026.got.cif
#   From: 2010.03.12/outbox.cif.g09.slc.cpg/sg68_11_cif.got.tgz:20026.got - 2010.04.10 23:14:56.
