data_PCOD8283214
_publ_section_title
;
Structure prediction by ZEFSAII (Michael W. Deem and Ramdas Pophale) SiO2 
 PCOD8283214
Probable space group: C C C A
;
_chemical_formula_sum "Si O2"
_cell_formula_units_Z 88
_cell_length_a 11.319147
_cell_length_b 11.950734
_cell_length_c 31.886895
_cell_angle_alpha 90.000000
_cell_angle_beta 90.000000
_cell_angle_gamma 90.000000
_cell_volume 4313.407724
_symmetry_space_group_name_H-M "C C C A"
_symmetry_group_IT_number 68
_space_group.IT_coordinate_system_code '2'
_symmetry_cell_setting 'orthorhombic'
loop_
_space_group_symop_operation_xyz
x,y,z
-x,1/2-y,z
x,1/2-y,1/2-z
-x,y,1/2-z
-x,-y,-z
x,1/2+y,-z
-x,1/2+y,1/2+z
x,-y,1/2+z
1/2+x,1/2+y,z
1/2-x,-y,z
1/2+x,-y,1/2-z
1/2-x,1/2+y,1/2-z
1/2-x,1/2-y,-z
1/2+x,y,-z
1/2-x,y,1/2+z
1/2+x,1/2-y,1/2+z
loop_
_atom_site_type_symbol
_atom_site_label
_atom_site_fract_x
_atom_site_fract_y
_atom_site_fract_z
Si Si1 0.945621 0.134514 0.113503
Si Si2 0.875488 0.805381 0.449363
Si Si3 0.250000 0.500000 0.666569
Si Si4 0.307738 0.883784 0.466363
Si Si5 0.872390 0.045208 0.870768
Si Si6 0.031323 0.379716 0.705001
O O1 0.905540 0.156743 0.066332
O O2 0.000000 0.250000 0.133141
O O3 0.836042 0.082430 0.140073
O O4 0.052675 0.049713 0.106587
O O5 0.792998 0.706868 0.464066
O O6 0.867550 0.895157 0.487422
O O7 0.842739 0.858339 0.404515
O O8 0.000000 0.750000 0.443241
O O9 0.166674 0.416007 0.693934
O O10 0.250000 0.000000 0.452616
O O11 0.944236 0.080036 0.830513
O O12 0.750000 0.000000 0.853056
O O13 0.000000 0.250000 0.708243
O O14 0.000000 0.435539 0.750000
#
# Coordination Sequence:
#
# PCOD8283214 Si02
#       6
#    16  16   8  16  16  16
#     4  11  23  40  65  96 128 177 216 266 329 384
#     4  11  24  38  59  90 125 174 218 269 325 390
#     4  10  24  44  66 100 136 168 220 278 324 404
#     4  11  23  39  59  88 132 170 220 272 320 383
#     4  11  24  40  65  95 127 168 217 272 329 398
#     4  10  24  44  70  99 129 175 214 274 341 400
#
# _framework density 20.401502000000001
#
# number of rings (size 3 to 8) (size 9 to 14) (size 15 to 20)
#    0.000    1.273    0.909    3.818    8.909    5.818 
#    0.000    0.000    0.000    4.909    0.000    0.000 
#    0.000    0.000    0.000    0.000    0.000    0.000 
#
# Total GULP energy -545259.968436 kJ/mol
# GULP energy per Si atom -12392.272010 kJ/mol
# Density = 2.035507 g / cm^3
# Si number density = 20.401502 Si / 1000 Ang^3
#
#
#
# Elastic Constant Matrix: (Units=GPa)
#
#
# Indices 1 2 3 4 5 6 
#
# 1 113.4200 31.6819 47.1745 0.0000 0.0000 0.0000
# 2 31.6819 88.0313 28.4521 0.0000 0.0000 0.0000
# 3 47.1745 28.4521 123.9316 0.0000 0.0000 0.0000
# 4 0.0000 0.0000 0.0000 26.5223 0.0000 0.0000
# 5 0.0000 0.0000 0.0000 0.0000 9.3357 0.0000
# 6 0.0000 0.0000 0.0000 0.0000 0.0000 34.4484
#
#
#
# Elastic Compliance Matrix: (Units=1/GPa)
#
#
# Indices 1 2 3 4 5 6 
#
# 1 0.011095 -0.002839 -0.003572 0.000000 0.000000 0.000000
# 2 -0.002839 0.012996 -0.001903 0.000000 0.000000 0.000000
# 3 -0.003572 -0.001903 0.009865 0.000000 0.000000 0.000000
# 4 0.000000 0.000000 0.000000 0.037704 0.000000 0.000000
# 5 0.000000 0.000000 0.000000 0.000000 0.107116 0.000000
# 6 0.000000 0.000000 0.000000 0.000000 0.000000 0.029029
#
#
# Mechanical properties :
#
#
# Convention : Reuss Voigt Hill
#
# Bulk Modulus (GPa) = 57.70355 60.00001 58.85178
# Shear Modulus (GPa) = 21.71929 28.59955 25.15942
#
# Velocity S-wave (km/s) = 3.26635 3.74817 3.51552
# Velocity P-wave (km/s) = 6.52463 6.94299 6.73706
#
# Compressibility (1/GPa) = 0.01732996
#
# Stress axis : x y z
#
# Youngs Moduli (GPa) = 90.12817 76.94471 101.36383
#
# Poissons Ratio (x) = 0.21843 0.36204
# Poissons Ratio (y) = 0.25585 0.19291
# Poissons Ratio (z) = 0.32191 0.14644
#
# Static dielectric constant tensor:
#      x y z
#    x 4.096090 0.000000 0.000000 
#    y 0.000000 2.936030 0.000000 
#    z 0.000000 0.000000 4.098170 
# 
# 
# High freq. dielectric constant tensor:
#      x y z
#    x 1.813390 0.000000 0.000000 
#    y 0.000000 1.800130 0.000000 
#    z 0.000000 0.000000 1.796540 
# 
# From -- ./inp_files/54639.got.cif
#   From: 2010.03.12/outbox.cif.g09.slc.cpg/sg68_28_cif.got.tgz:54639.got - 2010.04.10 23:14:56.
