data_PCOD8283228
_publ_section_title
;
Structure prediction by ZEFSAII (Michael W. Deem and Ramdas Pophale) SiO2 
 PCOD8283228
Probable space group: C C C A
;
_chemical_formula_sum "Si O2"
_cell_formula_units_Z 56
_cell_length_a 5.536902
_cell_length_b 13.783069
_cell_length_c 28.858064
_cell_angle_alpha 90.000000
_cell_angle_beta 90.000000
_cell_angle_gamma 90.000000
_cell_volume 2202.317650
_symmetry_space_group_name_H-M "C C C A"
_symmetry_group_IT_number 68
_space_group.IT_coordinate_system_code '2'
_symmetry_cell_setting 'orthorhombic'
loop_
_space_group_symop_operation_xyz
x,y,z
-x,1/2-y,z
x,1/2-y,1/2-z
-x,y,1/2-z
-x,-y,-z
x,1/2+y,-z
-x,1/2+y,1/2+z
x,-y,1/2+z
1/2+x,1/2+y,z
1/2-x,-y,z
1/2+x,-y,1/2-z
1/2-x,1/2+y,1/2-z
1/2-x,1/2-y,-z
1/2+x,y,-z
1/2-x,y,1/2+z
1/2+x,1/2-y,1/2+z
loop_
_atom_site_type_symbol
_atom_site_label
_atom_site_fract_x
_atom_site_fract_y
_atom_site_fract_z
Si Si1 0.017080 0.359872 0.480432
Si Si2 0.640961 0.102299 0.617368
Si Si3 0.000000 0.250000 0.839098
Si Si4 0.658966 0.896384 0.291197
O O1 0.763987 0.408765 0.499063
O O2 0.031044 0.365200 0.424666
O O3 0.000000 0.250000 0.498360
O O4 0.491124 0.083341 0.663051
O O5 0.830818 0.188303 0.626753
O O6 0.750000 0.000000 0.602220
O O7 0.131891 0.321837 0.803702
O O8 0.500000 0.849815 0.250000
O O9 0.750000 0.000000 0.272536
#
# Coordination Sequence:
#
# PCOD8283228 Si02
#       4
#    16  16   8  16
#     4  10  24  44  76 113 158 210 268 331 401 477
#     4  12  27  49  78 113 154 205 263 327 391 478
#     4  12  28  51  80 106 154 208 250 326 395 472
#     4  12  28  52  78 114 155 202 260 323 393 477
#
# _framework density 25.427757
#
# number of rings (size 3 to 8) (size 9 to 14) (size 15 to 20)
#    0.000    0.571    2.857    3.429   10.000    4.571 
#    0.000    0.000    0.000    0.000    0.000    0.000 
#    0.000    0.000    0.000    0.000    0.000    0.000 
#
# Total GULP energy -347223.521619 kJ/mol
# GULP energy per Si atom -12400.840058 kJ/mol
# Density = 2.536988 g / cm^3
# Si number density = 25.427757 Si / 1000 Ang^3
#
#
#
# Elastic Constant Matrix: (Units=GPa)
#
#
# Indices 1 2 3 4 5 6 
#
# 1 138.8842 10.4538 45.8603 0.0000 0.0000 0.0000
# 2 10.4538 124.6414 -4.2276 0.0000 0.0000 0.0000
# 3 45.8603 -4.2276 151.3598 0.0000 0.0000 0.0000
# 4 0.0000 0.0000 0.0000 14.1097 0.0000 0.0000
# 5 0.0000 0.0000 0.0000 0.0000 53.8743 0.0000
# 6 0.0000 0.0000 0.0000 0.0000 0.0000 16.8405
#
#
#
# Elastic Compliance Matrix: (Units=1/GPa)
#
#
# Indices 1 2 3 4 5 6 
#
# 1 0.008072 -0.000761 -0.002467 0.000000 0.000000 0.000000
# 2 -0.000761 0.008102 0.000457 0.000000 0.000000 0.000000
# 3 -0.002467 0.000457 0.007367 0.000000 0.000000 0.000000
# 4 0.000000 0.000000 0.000000 0.070873 0.000000 0.000000
# 5 0.000000 0.000000 0.000000 0.000000 0.018562 0.000000
# 6 0.000000 0.000000 0.000000 0.000000 0.000000 0.059381
#
#
# Mechanical properties :
#
#
# Convention : Reuss Voigt Hill
#
# Bulk Modulus (GPa) = 55.55676 57.67315 56.61496
# Shear Modulus (GPa) = 27.18889 41.15150 34.17020
#
# Velocity S-wave (km/s) = 3.27350 4.02726 3.66979
# Velocity P-wave (km/s) = 6.01532 6.65999 6.34585
#
# Compressibility (1/GPa) = 0.01799961
#
# Stress axis : x y z
#
# Youngs Moduli (GPa) = 123.88321 123.42162 135.74035
#
# Poissons Ratio (x) = 0.09389 0.33487
# Poissons Ratio (y) = 0.09424 -0.06200
# Poissons Ratio (z) = 0.30562 -0.05638
#
# Static dielectric constant tensor:
#      x y z
#    x 5.137320 0.000000 0.000000 
#    y 0.000000 4.478580 0.000000 
#    z 0.000000 0.000000 4.357730 
# 
# 
# High freq. dielectric constant tensor:
#      x y z
#    x 2.018200 0.000000 0.000000 
#    y 0.000000 2.028330 0.000000 
#    z 0.000000 0.000000 2.023600 
# 
# From -- ./inp_files/52756.got.cif
#   From: 2010.03.12/outbox.cif.g09.slc.cpg/sg68_27_cif.got.tgz:52756.got - 2010.04.10 23:14:56.
