data_PCOD8283601
_publ_section_title
;
Structure prediction by ZEFSAII (Michael W. Deem and Ramdas Pophale) SiO2 
 PCOD8283601
Probable space group: C C C A
;
_chemical_formula_sum "Si O2"
_cell_formula_units_Z 72
_cell_length_a 20.716005
_cell_length_b 15.774962
_cell_length_c 9.867412
_cell_angle_alpha 90.000000
_cell_angle_beta 90.000000
_cell_angle_gamma 90.000000
_cell_volume 3224.612928
_symmetry_space_group_name_H-M "C C C A"
_symmetry_group_IT_number 68
_space_group.IT_coordinate_system_code '2'
_symmetry_cell_setting 'orthorhombic'
loop_
_space_group_symop_operation_xyz
x,y,z
-x,1/2-y,z
x,1/2-y,1/2-z
-x,y,1/2-z
-x,-y,-z
x,1/2+y,-z
-x,1/2+y,1/2+z
x,-y,1/2+z
1/2+x,1/2+y,z
1/2-x,-y,z
1/2+x,-y,1/2-z
1/2-x,1/2+y,1/2-z
1/2-x,1/2-y,-z
1/2+x,y,-z
1/2-x,y,1/2+z
1/2+x,1/2-y,1/2+z
loop_
_atom_site_type_symbol
_atom_site_label
_atom_site_fract_x
_atom_site_fract_y
_atom_site_fract_z
Si Si1 0.307895 0.222376 0.099063
Si Si2 0.178305 0.475971 0.870331
Si Si3 0.500000 0.405595 0.250000
Si Si4 0.560570 0.193751 0.488600
Si Si5 0.599581 0.475020 0.881512
O O1 0.290175 0.250000 0.250000
O O2 0.322422 0.123887 0.111534
O O3 0.376709 0.255389 0.037316
O O4 0.250000 0.250000 0.000000
O O5 0.250000 0.500000 0.906206
O O6 0.156802 0.515772 0.728116
O O7 0.128353 0.512690 0.979735
O O8 0.454301 0.348583 0.342780
O O9 0.459981 0.465366 0.150959
O O10 0.500000 0.250000 0.538540
O O11 0.575997 0.122651 0.602936
#
# Coordination Sequence:
#
# PCOD8283601 Si02
#       5
#    16  16   8  16  16
#     4  11  26  47  70 104 146 194 246 310 373 445
#     4  11  26  44  77 103 146 194 252 305 376 450
#     4  12  21  46  77 100 148 190 258 300 371 456
#     4  11  25  44  74 106 147 196 246 307 379 441
#     4  11  24  45  72 109 137 196 250 311 365 451
#
# _framework density 22.32826
#
# number of rings (size 3 to 8) (size 9 to 14) (size 15 to 20)
#    0.000    0.889    4.444    3.000    9.333    0.000 
#    0.000    0.556    0.000    0.000    0.000    0.000 
#    0.000    0.000    0.000    0.000    0.000    0.000 
#
# Total GULP energy -446250.611523 kJ/mol
# GULP energy per Si atom -12395.850320 kJ/mol
# Density = 2.227744 g / cm^3
# Si number density = 22.328260 Si / 1000 Ang^3
#
#
#
# Elastic Constant Matrix: (Units=GPa)
#
#
# Indices 1 2 3 4 5 6 
#
# 1 176.4803 50.2584 50.1198 0.0000 0.0000 0.0000
# 2 50.2584 70.2407 49.0251 0.0000 0.0000 0.0000
# 3 50.1198 49.0251 108.3302 0.0000 0.0000 0.0000
# 4 0.0000 0.0000 0.0000 38.4095 0.0000 0.0000
# 5 0.0000 0.0000 0.0000 0.0000 29.1005 0.0000
# 6 0.0000 0.0000 0.0000 0.0000 0.0000 40.4654
#
#
#
# Elastic Compliance Matrix: (Units=1/GPa)
#
#
# Indices 1 2 3 4 5 6 
#
# 1 0.007274 -0.004175 -0.001476 0.000000 0.000000 0.000000
# 2 -0.004175 0.023205 -0.008570 0.000000 0.000000 0.000000
# 3 -0.001476 -0.008570 0.013793 0.000000 0.000000 0.000000
# 4 0.000000 0.000000 0.000000 0.026035 0.000000 0.000000
# 5 0.000000 0.000000 0.000000 0.000000 0.034364 0.000000
# 6 0.000000 0.000000 0.000000 0.000000 0.000000 0.024712
#
#
# Mechanical properties :
#
#
# Convention : Reuss Voigt Hill
#
# Bulk Modulus (GPa) = 63.17095 72.65086 67.91091
# Shear Modulus (GPa) = 30.65547 35.30493 32.98020
#
# Velocity S-wave (km/s) = 3.70935 3.98072 3.84742
# Velocity P-wave (km/s) = 6.83367 7.33051 7.08645
#
# Compressibility (1/GPa) = 0.01583006
#
# Stress axis : x y z
#
# Youngs Moduli (GPa) = 137.46683 43.09337 72.50266
#
# Poissons Ratio (x) = 0.17990 0.10704
# Poissons Ratio (y) = 0.57386 0.62137
# Poissons Ratio (z) = 0.20296 0.36932
#
# Static dielectric constant tensor:
#      x y z
#    x 4.185240 0.000000 0.000000 
#    y 0.000000 3.909980 0.000000 
#    z 0.000000 0.000000 3.098590 
# 
# 
# High freq. dielectric constant tensor:
#      x y z
#    x 1.911200 0.000000 0.000000 
#    y 0.000000 1.867250 0.000000 
#    z 0.000000 0.000000 1.877210 
# 
# From -- ./inp_files/7860.got.cif
#   From: 2010.03.12/outbox.cif.g09.slc.cpg/sg68_4_cif.got.tgz:7860.got - 2010.04.10 23:14:56.
