data_PCOD8283389
_publ_section_title
;
Structure prediction by ZEFSAII (Michael W. Deem and Ramdas Pophale) SiO2 
 PCOD8283389
Probable space group: C C C A
;
_chemical_formula_sum "Si O2"
_cell_formula_units_Z 112
_cell_length_a 21.634198
_cell_length_b 11.282003
_cell_length_c 22.530739
_cell_angle_alpha 90.000000
_cell_angle_beta 90.000000
_cell_angle_gamma 90.000000
_cell_volume 5499.237137
_symmetry_space_group_name_H-M "C C C A"
_symmetry_group_IT_number 68
_space_group.IT_coordinate_system_code '2'
_symmetry_cell_setting 'orthorhombic'
loop_
_space_group_symop_operation_xyz
x,y,z
-x,1/2-y,z
x,1/2-y,1/2-z
-x,y,1/2-z
-x,-y,-z
x,1/2+y,-z
-x,1/2+y,1/2+z
x,-y,1/2+z
1/2+x,1/2+y,z
1/2-x,-y,z
1/2+x,-y,1/2-z
1/2-x,1/2+y,1/2-z
1/2-x,1/2-y,-z
1/2+x,y,-z
1/2-x,y,1/2+z
1/2+x,1/2-y,1/2+z
loop_
_atom_site_type_symbol
_atom_site_label
_atom_site_fract_x
_atom_site_fract_y
_atom_site_fract_z
Si Si1 0.682788 0.347754 0.900259
Si Si2 0.499262 0.389863 0.679979
Si Si3 0.184504 0.748646 0.378027
Si Si4 0.622366 0.531684 0.828857
Si Si5 0.180903 0.050959 0.528128
Si Si6 0.623193 0.896692 0.384283
Si Si7 0.313017 0.952894 0.710594
O O1 0.752988 0.307729 0.901140
O O2 0.676234 0.441815 0.847874
O O3 0.633594 0.243544 0.887673
O O4 0.666138 0.413386 0.961375
O O5 0.500000 0.250000 0.666800
O O6 0.500000 0.413195 0.750000
O O7 0.442286 0.467610 0.655335
O O8 0.558391 0.436926 0.644191
O O9 0.130924 0.845806 0.365330
O O10 0.164614 0.664087 0.431340
O O11 0.195307 0.678048 0.316759
O O12 0.631749 0.552113 0.758569
O O13 0.250000 0.000000 0.536296
O O14 0.132989 0.948882 0.549338
O O15 0.674933 0.953760 0.341980
O O16 0.250000 0.000000 0.741093
#
# Coordination Sequence:
#
# PCOD8283389 Si02
#       7
#    16  16  16  16  16  16  16
#     4  12  23  39  66 101 132 172 218 279 337 415
#     4  11  23  44  68  90 126 177 228 277 332 409
#     4  11  22  40  62  98 134 169 214 269 348 409
#     4  12  25  37  64  98 128 171 225 276 337 410
#     4  11  23  41  68  93 137 179 214 275 340 415
#     4  11  22  42  68  95 126 178 231 272 338 400
#     4  11  21  40  62  96 139 170 205 282 350 414
#
# _framework density 20.366461999999999
#
# number of rings (size 3 to 8) (size 9 to 14) (size 15 to 20)
#    0.000    0.714    5.714    3.857    2.000    0.571 
#    0.000    3.571    3.143    0.000    0.000    0.000 
#    0.000    0.000    0.000    0.000    0.000    0.000 
#
# Total GULP energy -694234.968226 kJ/mol
# GULP energy per Si atom -12397.053004 kJ/mol
# Density = 2.032011 g / cm^3
# Si number density = 20.366462 Si / 1000 Ang^3
#
#
#
# Elastic Constant Matrix: (Units=GPa)
#
#
# Indices 1 2 3 4 5 6 
#
# 1 93.2811 31.0653 24.2421 0.0000 0.0000 0.0000
# 2 31.0653 114.4775 34.6371 0.0000 0.0000 0.0000
# 3 24.2421 34.6371 95.3708 0.0000 0.0000 0.0000
# 4 0.0000 0.0000 0.0000 33.3133 0.0000 0.0000
# 5 0.0000 0.0000 0.0000 0.0000 22.2522 0.0000
# 6 0.0000 0.0000 0.0000 0.0000 0.0000 38.3804
#
#
#
# Elastic Compliance Matrix: (Units=1/GPa)
#
#
# Indices 1 2 3 4 5 6 
#
# 1 0.012157 -0.002656 -0.002126 0.000000 0.000000 0.000000
# 2 -0.002656 0.010394 -0.003100 0.000000 0.000000 0.000000
# 3 -0.002126 -0.003100 0.012151 0.000000 0.000000 0.000000
# 4 0.000000 0.000000 0.000000 0.030018 0.000000 0.000000
# 5 0.000000 0.000000 0.000000 0.000000 0.044939 0.000000
# 6 0.000000 0.000000 0.000000 0.000000 0.000000 0.026055
#
#
# Mechanical properties :
#
#
# Convention : Reuss Voigt Hill
#
# Bulk Modulus (GPa) = 52.79843 53.66870 53.23357
# Shear Modulus (GPa) = 31.68750 33.00153 32.34451
#
# Velocity S-wave (km/s) = 3.94873 4.02977 3.98945
# Velocity P-wave (km/s) = 6.83889 6.93259 6.88590
#
# Compressibility (1/GPa) = 0.01893996
#
# Stress axis : x y z
#
# Youngs Moduli (GPa) = 82.25582 96.20972 82.29438
#
# Poissons Ratio (x) = 0.25552 0.17493
# Poissons Ratio (y) = 0.21846 0.25510
# Poissons Ratio (z) = 0.17485 0.29823
#
# Static dielectric constant tensor:
#      x y z
#    x 3.438140 0.000000 0.000000 
#    y 0.000000 3.918960 0.000000 
#    z 0.000000 0.000000 3.671190 
# 
# 
# High freq. dielectric constant tensor:
#      x y z
#    x 1.767290 0.000000 0.000000 
#    y 0.000000 1.810220 0.000000 
#    z 0.000000 0.000000 1.797170 
# 
# From -- ./inp_files/46665.got.cif
#   From: 2010.03.12/outbox.cif.g09.slc.cpg/sg68_24_cif.got.tgz:46665.got - 2010.04.10 23:14:56.
