data_PCOD8283003
_publ_section_title
;
Structure prediction by ZEFSAII (Michael W. Deem and Ramdas Pophale) SiO2 
 PCOD8283003
Probable space group: C C C A
;
_chemical_formula_sum "Si O2"
_cell_formula_units_Z 104
_cell_length_a 26.447105
_cell_length_b 9.054930
_cell_length_c 22.138304
_cell_angle_alpha 90.000000
_cell_angle_beta 90.000000
_cell_angle_gamma 90.000000
_cell_volume 5301.607642
_symmetry_space_group_name_H-M "C C C A"
_symmetry_group_IT_number 68
_space_group.IT_coordinate_system_code '2'
_symmetry_cell_setting 'orthorhombic'
loop_
_space_group_symop_operation_xyz
x,y,z
-x,1/2-y,z
x,1/2-y,1/2-z
-x,y,1/2-z
-x,-y,-z
x,1/2+y,-z
-x,1/2+y,1/2+z
x,-y,1/2+z
1/2+x,1/2+y,z
1/2-x,-y,z
1/2+x,-y,1/2-z
1/2-x,1/2+y,1/2-z
1/2-x,1/2-y,-z
1/2+x,y,-z
1/2-x,y,1/2+z
1/2+x,1/2-y,1/2+z
loop_
_atom_site_type_symbol
_atom_site_label
_atom_site_fract_x
_atom_site_fract_y
_atom_site_fract_z
Si Si1 0.500000 0.250000 0.880795
Si Si2 0.411769 0.154145 0.690088
Si Si3 0.750000 0.500000 0.032567
Si Si4 0.750000 0.000000 0.191327
Si Si5 0.663017 0.091220 0.276392
Si Si6 0.151015 0.592988 0.030440
Si Si7 0.216048 0.234106 0.617896
Si Si8 0.897605 0.201305 0.071236
O O1 0.469241 0.365042 0.836408
O O2 0.541439 0.320410 0.925575
O O3 0.412263 0.250000 0.750000
O O4 0.379078 0.236616 0.636987
O O5 0.387557 0.996719 0.706643
O O6 0.799813 0.493162 0.992865
O O7 0.748533 0.651231 0.070332
O O8 0.801566 0.999937 0.230166
O O9 0.748579 0.855279 0.149665
O O10 0.646736 0.250000 0.250000
O O11 0.696504 0.112384 0.335666
O O12 0.120089 0.683355 0.980093
O O13 0.166855 0.699973 0.084871
O O14 0.118165 0.464869 0.059276
#
# Coordination Sequence:
#
# PCOD8283003 Si02
#       8
#     8  16   8   8  16  16  16  16
#     4   8  23  44  70 100 126 168 221 294 340 404
#     4  10  22  43  72  98 130 168 227 276 348 399
#     4  12  24  40  60  94 132 177 215 272 312 396
#     4  10  24  40  58  96 136 181 223 266 320 398
#     4  10  23  40  62  97 135 176 223 273 324 399
#     4  12  24  42  62  96 136 176 225 270 327 410
#     4  11  24  40  61  88 142 176 224 264 325 383
#     4  10  25  42  69  98 128 178 226 280 342 394
#
# _framework density 19.616690999999999
#
# number of rings (size 3 to 8) (size 9 to 14) (size 15 to 20)
#    0.923    0.615    1.538    2.538    6.462    3.692 
#    0.000    0.000    0.000    7.385    0.000    0.000 
#    0.000    0.000    0.000    0.000    0.000    0.000 
#
# Total GULP energy -644389.598612 kJ/mol
# GULP energy per Si atom -12392.107666 kJ/mol
# Density = 1.957204 g / cm^3
# Si number density = 19.616691 Si / 1000 Ang^3
#
#
#
# Elastic Constant Matrix: (Units=GPa)
#
#
# Indices 1 2 3 4 5 6 
#
# 1 114.7593 56.6545 41.7893 0.0000 0.0000 0.0000
# 2 56.6545 95.7719 42.7003 0.0000 0.0000 0.0000
# 3 41.7893 42.7003 111.1630 0.0000 0.0000 0.0000
# 4 0.0000 0.0000 0.0000 24.4420 0.0000 0.0000
# 5 0.0000 0.0000 0.0000 0.0000 24.2561 0.0000
# 6 0.0000 0.0000 0.0000 0.0000 0.0000 33.6801
#
#
#
# Elastic Compliance Matrix: (Units=1/GPa)
#
#
# Indices 1 2 3 4 5 6 
#
# 1 0.012775 -0.006535 -0.002292 0.000000 0.000000 0.000000
# 2 -0.006535 0.015942 -0.003667 0.000000 0.000000 0.000000
# 3 -0.002292 -0.003667 0.011266 0.000000 0.000000 0.000000
# 4 0.000000 0.000000 0.000000 0.040913 0.000000 0.000000
# 5 0.000000 0.000000 0.000000 0.000000 0.041227 0.000000
# 6 0.000000 0.000000 0.000000 0.000000 0.000000 0.029691
#
#
# Mechanical properties :
#
#
# Convention : Reuss Voigt Hill
#
# Bulk Modulus (GPa) = 66.69059 67.10916 66.89988
# Shear Modulus (GPa) = 27.50258 28.51231 28.00744
#
# Velocity S-wave (km/s) = 3.74839 3.81658 3.78264
# Velocity P-wave (km/s) = 7.26667 7.32845 7.29763
#
# Compressibility (1/GPa) = 0.01499462
#
# Stress axis : x y z
#
# Youngs Moduli (GPa) = 78.27905 62.72603 88.76178
#
# Poissons Ratio (x) = 0.40992 0.20345
# Poissons Ratio (y) = 0.51156 0.32550
# Poissons Ratio (z) = 0.17943 0.23002
#
# Static dielectric constant tensor:
#      x y z
#    x 3.437080 0.000000 0.000000 
#    y 0.000000 3.640390 0.000000 
#    z 0.000000 0.000000 3.883060 
# 
# 
# High freq. dielectric constant tensor:
#      x y z
#    x 1.745730 0.000000 0.000000 
#    y 0.000000 1.758440 0.000000 
#    z 0.000000 0.000000 1.786470 
# 
# From -- ./inp_files/41603.got.cif
#   From: 2010.03.12/outbox.cif.g09.slc.cpg/sg68_21_cif.got.tgz:41603.got - 2010.04.10 23:14:56.
