data_PCOD8283445
_publ_section_title
;
Structure prediction by ZEFSAII (Michael W. Deem and Ramdas Pophale) SiO2 
 PCOD8283445
Probable space group: C C C A
;
_chemical_formula_sum "Si O2"
_cell_formula_units_Z 68
_cell_length_a 29.084533
_cell_length_b 8.292038
_cell_length_c 11.711963
_cell_angle_alpha 90.000000
_cell_angle_beta 90.000000
_cell_angle_gamma 90.000000
_cell_volume 2824.574736
_symmetry_space_group_name_H-M "C C C A"
_symmetry_group_IT_number 68
_space_group.IT_coordinate_system_code '2'
_symmetry_cell_setting 'orthorhombic'
loop_
_space_group_symop_operation_xyz
x,y,z
-x,1/2-y,z
x,1/2-y,1/2-z
-x,y,1/2-z
-x,-y,-z
x,1/2+y,-z
-x,1/2+y,1/2+z
x,-y,1/2+z
1/2+x,1/2+y,z
1/2-x,-y,z
1/2+x,-y,1/2-z
1/2-x,1/2+y,1/2-z
1/2-x,1/2-y,-z
1/2+x,y,-z
1/2-x,y,1/2+z
1/2+x,1/2-y,1/2+z
loop_
_atom_site_type_symbol
_atom_site_label
_atom_site_fract_x
_atom_site_fract_y
_atom_site_fract_z
Si Si1 0.313896 0.243211 0.439772
Si Si2 0.928603 0.250000 0.250000
Si Si3 0.874801 0.037231 0.086808
Si Si4 0.957981 0.998612 0.415325
Si Si5 0.250000 0.500000 0.431008
Si Si6 0.000000 0.750000 0.250000
O O1 0.336255 0.337272 0.546514
O O2 0.286514 0.381918 0.362672
O O3 0.277432 0.118389 0.487353
O O4 0.353066 0.136963 0.376774
O O5 0.898075 0.104701 0.200433
O O6 0.959188 0.330318 0.151078
O O7 0.910367 0.016325 0.982452
O O8 0.965187 0.853951 0.326492
O O9 0.000000 0.000000 0.500000
#
# Coordination Sequence:
#
# PCOD8283445 Si02
#       6
#    16   8  16  16   8   4
#     4   9  18  36  66 103 137 176 236 280 346 423
#     4  12  26  45  70  98 143 192 231 296 358 396
#     4  11  22  41  65 104 139 184 232 293 340 418
#     4  12  27  47  67  99 139 182 236 287 348 419
#     4   8  16  34  68 102 126 190 222 274 364 418
#     4  12  28  42  68  94 130 186 242 284 352 416
#
# _framework density 24.074421000000001
#
# number of rings (size 3 to 8) (size 9 to 14) (size 15 to 20)
#    0.000    1.412    2.353    2.824    3.294    3.294 
#    0.000    0.000    0.000    8.471    0.000    0.000 
#    0.000    0.000    0.000    0.000    0.000    0.000 
#
# Total GULP energy -421209.889071 kJ/mol
# GULP energy per Si atom -12388.526149 kJ/mol
# Density = 2.401963 g / cm^3
# Si number density = 24.074421 Si / 1000 Ang^3
#
#
#
# Elastic Constant Matrix: (Units=GPa)
#
#
# Indices 1 2 3 4 5 6 
#
# 1 136.4346 91.3578 48.4822 0.0000 0.0000 0.0000
# 2 91.3578 189.3011 56.4958 0.0000 0.0000 0.0000
# 3 48.4822 56.4958 87.1965 0.0000 0.0000 0.0000
# 4 0.0000 0.0000 0.0000 40.8409 0.0000 0.0000
# 5 0.0000 0.0000 0.0000 0.0000 4.6434 0.0000
# 6 0.0000 0.0000 0.0000 0.0000 0.0000 62.2799
#
#
#
# Elastic Compliance Matrix: (Units=1/GPa)
#
#
# Indices 1 2 3 4 5 6 
#
# 1 0.011635 -0.004568 -0.003510 0.000000 0.000000 0.000000
# 2 -0.004568 0.008342 -0.002865 0.000000 0.000000 0.000000
# 3 -0.003510 -0.002865 0.015276 0.000000 0.000000 0.000000
# 4 0.000000 0.000000 0.000000 0.024485 0.000000 0.000000
# 5 0.000000 0.000000 0.000000 0.000000 0.215358 0.000000
# 6 0.000000 0.000000 0.000000 0.000000 0.000000 0.016057
#
#
# Mechanical properties :
#
#
# Convention : Reuss Voigt Hill
#
# Bulk Modulus (GPa) = 74.80534 89.51152 82.15843
# Shear Modulus (GPa) = 15.74825 35.99261 25.87043
#
# Velocity S-wave (km/s) = 2.56041 3.87079 3.28167
# Velocity P-wave (km/s) = 6.31513 7.56566 6.96851
#
# Compressibility (1/GPa) = 0.01336803
#
# Stress axis : x y z
#
# Youngs Moduli (GPa) = 85.94466 119.87308 65.46087
#
# Poissons Ratio (x) = 0.54756 0.22976
# Poissons Ratio (y) = 0.39258 0.18756
# Poissons Ratio (z) = 0.30165 0.34347
#
# Static dielectric constant tensor:
#      x y z
#    x 4.600780 0.000000 0.000000 
#    y 0.000000 5.330240 0.000000 
#    z 0.000000 0.000000 4.941620 
# 
# 
# High freq. dielectric constant tensor:
#      x y z
#    x 1.981280 0.000000 0.000000 
#    y 0.000000 1.992120 0.000000 
#    z 0.000000 0.000000 1.899770 
# 
# From -- ./inp_files/19416.got.cif
#   From: 2010.03.12/outbox.cif.g09.slc.cpg/sg68_10_cif.got.tgz:19416.got - 2010.04.10 23:14:56.
