data_PCOD8283394
_publ_section_title
;
Structure prediction by ZEFSAII (Michael W. Deem and Ramdas Pophale) SiO2 
 PCOD8283394
Probable space group: C C C A
;
_chemical_formula_sum "Si O2"
_cell_formula_units_Z 68
_cell_length_a 22.213750
_cell_length_b 24.701747
_cell_length_c 4.889901
_cell_angle_alpha 90.000000
_cell_angle_beta 90.000000
_cell_angle_gamma 90.000000
_cell_volume 2683.178811
_symmetry_space_group_name_H-M "C C C A"
_symmetry_group_IT_number 68
_space_group.IT_coordinate_system_code '2'
_symmetry_cell_setting 'orthorhombic'
loop_
_space_group_symop_operation_xyz
x,y,z
-x,1/2-y,z
x,1/2-y,1/2-z
-x,y,1/2-z
-x,-y,-z
x,1/2+y,-z
-x,1/2+y,1/2+z
x,-y,1/2+z
1/2+x,1/2+y,z
1/2-x,-y,z
1/2+x,-y,1/2-z
1/2-x,1/2+y,1/2-z
1/2-x,1/2-y,-z
1/2+x,y,-z
1/2-x,y,1/2+z
1/2+x,1/2-y,1/2+z
loop_
_atom_site_type_symbol
_atom_site_label
_atom_site_fract_x
_atom_site_fract_y
_atom_site_fract_z
Si Si1 0.000000 0.750000 0.250000
Si Si2 0.678837 0.465342 0.509361
Si Si3 0.786988 0.846375 0.124818
Si Si4 0.562599 0.589998 0.142215
Si Si5 0.415458 0.160351 0.151240
O O1 0.955029 0.712846 0.066325
O O2 0.697054 0.515350 0.312890
O O3 0.709986 0.411593 0.396335
O O4 0.606425 0.456187 0.524744
O O5 0.733894 0.826343 0.327342
O O6 0.850733 0.822448 0.221452
O O7 0.500000 0.564600 0.250000
O O8 0.595872 0.622520 0.388027
O O9 0.547520 0.630795 0.894884
#
# Coordination Sequence:
#
# PCOD8283394 Si02
#       5
#     4  16  16  16  16
#     4  12  24  46  76 106 128 166 228 300 328 426
#     4  11  23  37  60  96 127 171 232 270 311 382
#     4  11  23  43  65  89 134 180 214 271 335 392
#     4  11  21  41  61  92 141 178 213 277 348 408
#     4  11  24  41  68 102 130 171 228 276 351 411
#
# _framework density 25.343076
#
# number of rings (size 3 to 8) (size 9 to 14) (size 15 to 20)
#    0.000    0.941    2.353    7.059    0.000    5.647 
#    0.000    1.176    0.000    0.000    0.000    0.000 
#    0.000    0.000    0.000    0.000    0.000    0.000 
#
# Total GULP energy -421401.040556 kJ/mol
# GULP energy per Si atom -12394.148252 kJ/mol
# Density = 2.528539 g / cm^3
# Si number density = 25.343076 Si / 1000 Ang^3
#
#
#
# Elastic Constant Matrix: (Units=GPa)
#
#
# Indices 1 2 3 4 5 6 
#
# 1 138.9023 25.6107 16.8440 0.0000 0.0000 0.0000
# 2 25.6107 55.7058 13.5978 0.0000 0.0000 0.0000
# 3 16.8440 13.5978 134.7968 0.0000 0.0000 0.0000
# 4 0.0000 0.0000 0.0000 12.9567 0.0000 0.0000
# 5 0.0000 0.0000 0.0000 0.0000 39.1127 0.0000
# 6 0.0000 0.0000 0.0000 0.0000 0.0000 45.0926
#
#
#
# Elastic Compliance Matrix: (Units=1/GPa)
#
#
# Indices 1 2 3 4 5 6 
#
# 1 0.007919 -0.003485 -0.000638 0.000000 0.000000 0.000000
# 2 -0.003485 0.019938 -0.001576 0.000000 0.000000 0.000000
# 3 -0.000638 -0.001576 0.007657 0.000000 0.000000 0.000000
# 4 0.000000 0.000000 0.000000 0.077180 0.000000 0.000000
# 5 0.000000 0.000000 0.000000 0.000000 0.025567 0.000000
# 6 0.000000 0.000000 0.000000 0.000000 0.000000 0.022177
#
#
# Mechanical properties :
#
#
# Convention : Reuss Voigt Hill
#
# Bulk Modulus (GPa) = 41.46452 49.05666 45.26059
# Shear Modulus (GPa) = 27.79701 37.65591 32.72646
#
# Velocity S-wave (km/s) = 3.31543 3.85885 3.59742
# Velocity P-wave (km/s) = 5.57252 6.26525 5.92901
#
# Compressibility (1/GPa) = 0.02411700
#
# Stress axis : x y z
#
# Youngs Moduli (GPa) = 126.27440 50.15448 130.59498
#
# Poissons Ratio (x) = 0.17480 0.08332
# Poissons Ratio (y) = 0.44008 0.20579
# Poissons Ratio (z) = 0.08056 0.07903
#
# Static dielectric constant tensor:
#      x y z
#    x 4.771740 0.000000 0.000000 
#    y 0.000000 4.111530 0.000000 
#    z 0.000000 0.000000 4.586020 
# 
# 
# High freq. dielectric constant tensor:
#      x y z
#    x 2.040560 0.000000 0.000000 
#    y 0.000000 1.960020 0.000000 
#    z 0.000000 0.000000 2.015450 
# 
# From -- ./inp_files/1620.got.cif
#   From: 2010.03.12/outbox.cif.g09.slc.cpg/sg68_1_cif.got.tgz:1620.got - 2010.04.10 23:14:56.
