data_PCOD8283996
_publ_section_title
;
Structure prediction by ZEFSAII (Michael W. Deem and Ramdas Pophale) SiO2 
 PCOD8283996
Probable space group: F M M M
;
_chemical_formula_sum "Si O2"
_cell_formula_units_Z 144
_cell_length_a 19.551961
_cell_length_b 22.061394
_cell_length_c 17.189710
_cell_angle_alpha 90.000000
_cell_angle_beta 90.000000
_cell_angle_gamma 90.000000
_cell_volume 7414.669935
_symmetry_space_group_name_H-M "F M M M"
_symmetry_group_IT_number 69
_symmetry_cell_setting 'orthorhombic'
loop_
_space_group_symop_operation_xyz
x,y,z
-x,-y,z
x,-y,-z
-x,y,-z
-x,-y,-z
x,y,-z
-x,y,z
x,-y,z
x,1/2+y,1/2+z
-x,1/2-y,1/2+z
x,1/2-y,1/2-z
-x,1/2+y,1/2-z
-x,1/2-y,1/2-z
x,1/2+y,1/2-z
-x,1/2+y,1/2+z
x,1/2-y,1/2+z
1/2+x,y,1/2+z
1/2-x,-y,1/2+z
1/2+x,-y,1/2-z
1/2-x,y,1/2-z
1/2-x,-y,1/2-z
1/2+x,y,1/2-z
1/2-x,y,1/2+z
1/2+x,-y,1/2+z
1/2+x,1/2+y,z
1/2-x,1/2-y,z
1/2+x,1/2-y,-z
1/2-x,1/2+y,-z
1/2-x,1/2-y,-z
1/2+x,1/2+y,-z
1/2-x,1/2+y,z
1/2+x,1/2-y,z
loop_
_atom_site_type_symbol
_atom_site_label
_atom_site_fract_x
_atom_site_fract_y
_atom_site_fract_z
Si Si1 0.576332 0.000000 0.092370
Si Si2 0.575288 0.855888 0.408775
Si Si3 0.700352 0.432109 0.092414
Si Si4 0.344522 0.381427 0.407953
Si Si5 0.078599 0.229995 0.662879
O O1 0.614517 0.940115 0.121819
O O2 0.500000 0.000000 0.126567
O O3 0.576247 0.000000 0.000000
O O4 0.573092 0.866045 0.500000
O O5 0.500000 0.870830 0.372723
O O6 0.632356 0.900455 0.372345
O O7 0.594547 0.786481 0.392800
O O8 0.706298 0.500000 0.127063
O O9 0.765646 0.391703 0.115463
O O10 0.696235 0.436096 0.000000
O O11 0.354107 0.370929 0.500000
O O12 0.371494 0.323787 0.361444
O O13 0.095266 0.250000 0.750000
O O14 0.000000 0.208443 0.654080
#
# Coordination Sequence:
#
# PCOD8283996 Si02
#       5
#    16  32  32  32  32
#     4   9  16  26  46  78 106 131 168 208 250 309
#     4   9  18  33  54  78 101 132 180 226 261 308
#     4   9  17  31  52  79 109 136 167 216 273 317
#     4  10  18  31  53  80 110 140 170 212 265 320
#     4  10  21  36  53  73 105 143 178 218 264 312
#
# _framework density 19.420959
#
# number of rings (size 3 to 8) (size 9 to 14) (size 15 to 20)
#    0.000    2.556    1.111    1.333    0.000    3.556 
#    0.000    7.778    2.444    1.333    0.000    0.000 
#    0.000    0.000    0.000    0.000    0.000    0.000 
#
# Total GULP energy -446322.885299 kJ/mol
# GULP energy per Si atom -12397.857925 kJ/mol
# Density = 1.937676 g / cm^3
# Si number density = 19.420959 Si / 1000 Ang^3
#
#
#
# Elastic Constant Matrix: (Units=GPa)
#
#
# Indices 1 2 3 4 5 6 
#
# 1 171.6701 106.9664 29.9542 0.0000 0.0000 0.0000
# 2 106.9664 153.3676 29.7073 0.0000 0.0000 0.0000
# 3 29.9542 29.7073 22.7399 0.0000 0.0000 0.0000
# 4 0.0000 0.0000 0.0000 9.8878 0.0000 0.0000
# 5 0.0000 0.0000 0.0000 0.0000 13.5182 0.0000
# 6 0.0000 0.0000 0.0000 0.0000 0.0000 39.5534
#
#
#
# Elastic Compliance Matrix: (Units=1/GPa)
#
#
# Indices 1 2 3 4 5 6 
#
# 1 0.010864 -0.006433 -0.005907 0.000000 0.000000 0.000000
# 2 -0.006433 0.012538 -0.007906 0.000000 0.000000 0.000000
# 3 -0.005907 -0.007906 0.062085 0.000000 0.000000 0.000000
# 4 0.000000 0.000000 0.000000 0.101135 0.000000 0.000000
# 5 0.000000 0.000000 0.000000 0.000000 0.073975 0.000000
# 6 0.000000 0.000000 0.000000 0.000000 0.000000 0.025282
#
#
# Mechanical properties :
#
#
# Convention : Reuss Voigt Hill
#
# Bulk Modulus (GPa) = 22.22448 75.67038 48.94743
# Shear Modulus (GPa) = 14.64689 24.66852 19.65770
#
# Velocity S-wave (km/s) = 2.74921 3.56785 3.18494
# Velocity P-wave (km/s) = 4.64176 7.48469 6.22762
#
# Compressibility (1/GPa) = 0.04499542
#
# Stress axis : x y z
#
# Youngs Moduli (GPa) = 92.04552 79.75437 16.10701
#
# Poissons Ratio (x) = 0.51307 0.09514
# Poissons Ratio (y) = 0.59214 0.12735
# Poissons Ratio (z) = 0.54368 0.63055
#
# Static dielectric constant tensor:
#      x y z
#    x 3.929770 0.000000 0.000000 
#    y 0.000000 3.608860 0.000000 
#    z 0.000000 0.000000 3.066760 
# 
# 
# High freq. dielectric constant tensor:
#      x y z
#    x 1.767920 0.000000 0.000000 
#    y 0.000000 1.760480 0.000000 
#    z 0.000000 0.000000 1.708090 
# 
# From -- ./inp_files/22862.got.cif
#   From: 2010.03.12/outbox.cif.g09.slc.cpg/sg69_12_cif.got.tgz:22862.got - 2010.04.10 23:52:46.
