data_PCOD8283236
_publ_section_title
;
Structure prediction by ZEFSAII (Michael W. Deem and Ramdas Pophale) SiO2 
 PCOD8283236
Probable space group: C C C A
;
_chemical_formula_sum "Si O2"
_cell_formula_units_Z 64
_cell_length_a 9.030292
_cell_length_b 29.334717
_cell_length_c 9.904715
_cell_angle_alpha 90.000000
_cell_angle_beta 90.000000
_cell_angle_gamma 90.000000
_cell_volume 2623.769505
_symmetry_space_group_name_H-M "C C C A"
_symmetry_group_IT_number 68
_space_group.IT_coordinate_system_code '2'
_symmetry_cell_setting 'orthorhombic'
loop_
_space_group_symop_operation_xyz
x,y,z
-x,1/2-y,z
x,1/2-y,1/2-z
-x,y,1/2-z
-x,-y,-z
x,1/2+y,-z
-x,1/2+y,1/2+z
x,-y,1/2+z
1/2+x,1/2+y,z
1/2-x,-y,z
1/2+x,-y,1/2-z
1/2-x,1/2+y,1/2-z
1/2-x,1/2-y,-z
1/2+x,y,-z
1/2-x,y,1/2+z
1/2+x,1/2-y,1/2+z
loop_
_atom_site_type_symbol
_atom_site_label
_atom_site_fract_x
_atom_site_fract_y
_atom_site_fract_z
Si Si1 0.500000 0.858316 0.750000
Si Si2 0.664287 0.953575 0.278589
Si Si3 0.812741 0.898242 0.048473
Si Si4 0.767039 0.191388 0.896938
Si Si5 0.500000 0.250000 0.940806
O O1 0.475728 0.890148 0.882803
O O2 0.650328 0.828132 0.763916
O O3 0.500000 0.968443 0.250000
O O4 0.708745 0.915656 0.169452
O O5 0.679584 0.934554 0.429553
O O6 0.750000 0.000000 0.261474
O O7 0.760407 0.849240 0.999879
O O8 0.609903 0.216067 0.854797
O O9 0.885809 0.224536 0.963313
#
# Coordination Sequence:
#
# PCOD8283236 Si02
#       5
#     8  16  16  16   8
#     4  12  24  45  80 110 156 212 254 324 390 471
#     4  12  30  50  82 118 155 202 261 324 392 479
#     4  12  26  50  82 114 159 205 259 316 402 470
#     4  11  23  47  75 112 160 209 260 325 391 465
#     4  10  24  45  73 114 156 202 272 322 386 460
#
# _framework density 24.392385000000001
#
# number of rings (size 3 to 8) (size 9 to 14) (size 15 to 20)
#    0.000    0.500    5.000    2.250    1.750    2.500 
#    0.000    1.250    0.000    0.000    0.000    0.000 
#    0.000    0.000    0.000    0.000    0.000    0.000 
#
# Total GULP energy -396614.179803 kJ/mol
# GULP energy per Si atom -12394.193119 kJ/mol
# Density = 2.433687 g / cm^3
# Si number density = 24.392385 Si / 1000 Ang^3
#
#
#
# Elastic Constant Matrix: (Units=GPa)
#
#
# Indices 1 2 3 4 5 6 
#
# 1 182.2386 70.1134 45.1454 0.0000 0.0000 0.0000
# 2 70.1134 135.4897 38.7502 0.0000 0.0000 0.0000
# 3 45.1454 38.7502 117.7262 0.0000 0.0000 0.0000
# 4 0.0000 0.0000 0.0000 41.3403 0.0000 0.0000
# 5 0.0000 0.0000 0.0000 0.0000 46.3598 0.0000
# 6 0.0000 0.0000 0.0000 0.0000 0.0000 46.8843
#
#
#
# Elastic Compliance Matrix: (Units=1/GPa)
#
#
# Indices 1 2 3 4 5 6 
#
# 1 0.007140 -0.003214 -0.001680 0.000000 0.000000 0.000000
# 2 -0.003214 0.009595 -0.001925 0.000000 0.000000 0.000000
# 3 -0.001680 -0.001925 0.009772 0.000000 0.000000 0.000000
# 4 0.000000 0.000000 0.000000 0.024189 0.000000 0.000000
# 5 0.000000 0.000000 0.000000 0.000000 0.021570 0.000000
# 6 0.000000 0.000000 0.000000 0.000000 0.000000 0.021329
#
#
# Mechanical properties :
#
#
# Convention : Reuss Voigt Hill
#
# Bulk Modulus (GPa) = 77.71634 82.60804 80.16219
# Shear Modulus (GPa) = 44.83286 45.67991 45.25639
#
# Velocity S-wave (km/s) = 4.29182 4.33218 4.31205
# Velocity P-wave (km/s) = 7.51597 7.67877 7.59781
#
# Compressibility (1/GPa) = 0.01286731
#
# Stress axis : x y z
#
# Youngs Moduli (GPa) = 140.05198 104.22386 102.32967
#
# Poissons Ratio (x) = 0.33502 0.17192
# Poissons Ratio (y) = 0.45019 0.19704
# Poissons Ratio (z) = 0.23530 0.20068
#
# Static dielectric constant tensor:
#      x y z
#    x 4.921970 0.000000 0.000000 
#    y 0.000000 4.608460 0.000000 
#    z 0.000000 0.000000 4.293520 
# 
# 
# High freq. dielectric constant tensor:
#      x y z
#    x 1.986710 0.000000 0.000000 
#    y 0.000000 1.979970 0.000000 
#    z 0.000000 0.000000 1.971150 
# 
# From -- ./inp_files/10815.got.cif
#   From: 2010.03.12/outbox.cif.g09.slc.cpg/sg68_6_cif.got.tgz:10815.got - 2010.04.10 23:14:56.
