data_PCOD8283567
_publ_section_title
;
Structure prediction by ZEFSAII (Michael W. Deem and Ramdas Pophale) SiO2 
 PCOD8283567
Probable space group: C C C A
;
_chemical_formula_sum "Si O2"
_cell_formula_units_Z 88
_cell_length_a 25.426600
_cell_length_b 11.811801
_cell_length_c 13.475550
_cell_angle_alpha 90.000000
_cell_angle_beta 90.000000
_cell_angle_gamma 90.000000
_cell_volume 4047.165016
_symmetry_space_group_name_H-M "C C C A"
_symmetry_group_IT_number 68
_space_group.IT_coordinate_system_code '2'
_symmetry_cell_setting 'orthorhombic'
loop_
_space_group_symop_operation_xyz
x,y,z
-x,1/2-y,z
x,1/2-y,1/2-z
-x,y,1/2-z
-x,-y,-z
x,1/2+y,-z
-x,1/2+y,1/2+z
x,-y,1/2+z
1/2+x,1/2+y,z
1/2-x,-y,z
1/2+x,-y,1/2-z
1/2-x,1/2+y,1/2-z
1/2-x,1/2-y,-z
1/2+x,y,-z
1/2-x,y,1/2+z
1/2+x,1/2-y,1/2+z
loop_
_atom_site_type_symbol
_atom_site_label
_atom_site_fract_x
_atom_site_fract_y
_atom_site_fract_z
Si Si1 0.500000 0.750000 0.519852
Si Si2 0.750000 0.000000 0.745180
Si Si3 0.922645 0.184050 0.150520
Si Si4 0.454908 0.929858 0.824118
Si Si5 0.805196 0.326124 0.391305
Si Si6 0.876270 0.250000 0.750000
Si Si7 0.206779 0.331933 0.887766
O O1 0.451081 0.774646 0.448764
O O2 0.480921 0.643243 0.586419
O O3 0.712466 0.074104 0.678446
O O4 0.792079 0.063495 0.813381
O O5 0.943812 0.250000 0.250000
O O6 0.861779 0.219236 0.141010
O O7 0.928184 0.048033 0.146051
O O8 0.500000 0.967078 0.750000
O O9 0.412655 0.859017 0.761724
O O10 0.807055 0.374115 0.502906
O O11 0.764216 0.223880 0.383433
O O12 0.839826 0.248739 0.848511
#
# Coordination Sequence:
#
# PCOD8283567 Si02
#       7
#     8   8  16  16  16   8  16
#     4  12  24  50  70 108 146 182 258 294 360 434
#     4  12  20  44  64  98 142 186 232 294 348 432
#     4  12  27  47  73 108 146 192 235 304 364 428
#     4  12  25  47  76 104 143 189 241 304 359 426
#     4  11  25  44  67 104 144 184 236 288 357 427
#     4  12  21  44  72 102 142 191 244 294 364 430
#     4  11  24  42  70  99 145 187 239 289 352 442
#
# _framework density 21.743615999999999
#
# number of rings (size 3 to 8) (size 9 to 14) (size 15 to 20)
#    0.000    0.364    3.636    5.727    0.000    0.000 
#    6.545    0.000    0.000    0.000    0.000    0.000 
#    0.000    0.000    0.000    0.000    0.000    0.000 
#
# Total GULP energy -545564.413459 kJ/mol
# GULP energy per Si atom -12399.191215 kJ/mol
# Density = 2.169413 g / cm^3
# Si number density = 21.743616 Si / 1000 Ang^3
#
#
#
# Elastic Constant Matrix: (Units=GPa)
#
#
# Indices 1 2 3 4 5 6 
#
# 1 108.0276 9.8449 31.8689 0.0000 0.0000 0.0000
# 2 9.8449 91.7818 41.4052 0.0000 0.0000 0.0000
# 3 31.8689 41.4052 150.4978 0.0000 0.0000 0.0000
# 4 0.0000 0.0000 0.0000 57.5418 0.0000 0.0000
# 5 0.0000 0.0000 0.0000 0.0000 31.5100 0.0000
# 6 0.0000 0.0000 0.0000 0.0000 0.0000 43.9873
#
#
#
# Elastic Compliance Matrix: (Units=1/GPa)
#
#
# Indices 1 2 3 4 5 6 
#
# 1 0.009875 -0.000132 -0.002055 0.000000 0.000000 0.000000
# 2 -0.000132 0.012441 -0.003395 0.000000 0.000000 0.000000
# 3 -0.002055 -0.003395 0.008014 0.000000 0.000000 0.000000
# 4 0.000000 0.000000 0.000000 0.017379 0.000000 0.000000
# 5 0.000000 0.000000 0.000000 0.000000 0.031736 0.000000
# 6 0.000000 0.000000 0.000000 0.000000 0.000000 0.022734
#
#
# Mechanical properties :
#
#
# Convention : Reuss Voigt Hill
#
# Bulk Modulus (GPa) = 52.17504 57.39390 54.78447
# Shear Modulus (GPa) = 41.76037 44.42036 43.09037
#
# Velocity S-wave (km/s) = 4.38720 4.52477 4.45651
# Velocity P-wave (km/s) = 7.05060 7.33151 7.19243
#
# Compressibility (1/GPa) = 0.01916625
#
# Stress axis : x y z
#
# Youngs Moduli (GPa) = 101.26470 80.37886 124.78639
#
# Poissons Ratio (x) = 0.01063 0.25640
# Poissons Ratio (y) = 0.01340 0.42362
# Poissons Ratio (z) = 0.20807 0.27287
#
# Static dielectric constant tensor:
#      x y z
#    x 4.135700 0.000000 0.000000 
#    y 0.000000 3.685160 0.000000 
#    z 0.000000 0.000000 4.282700 
# 
# 
# High freq. dielectric constant tensor:
#      x y z
#    x 1.871720 0.000000 0.000000 
#    y 0.000000 1.847310 0.000000 
#    z 0.000000 0.000000 1.873650 
# 
# From -- ./inp_files/25986.got.cif
#   From: 2010.03.12/outbox.cif.g09.slc.cpg/sg68_13_cif.got.tgz:25986.got - 2010.04.10 23:14:56.
