data_PCOD8283937
_publ_section_title
;
Structure prediction by ZEFSAII (Michael W. Deem and Ramdas Pophale) SiO2 
 PCOD8283937
Probable space group: F M M M
;
_chemical_formula_sum "Si O2"
_cell_formula_units_Z 160
_cell_length_a 28.719990
_cell_length_b 10.400972
_cell_length_c 31.156344
_cell_angle_alpha 90.000000
_cell_angle_beta 90.000000
_cell_angle_gamma 90.000000
_cell_volume 9306.892592
_symmetry_space_group_name_H-M "F M M M"
_symmetry_group_IT_number 69
_symmetry_cell_setting 'orthorhombic'
loop_
_space_group_symop_operation_xyz
x,y,z
-x,-y,z
x,-y,-z
-x,y,-z
-x,-y,-z
x,y,-z
-x,y,z
x,-y,z
x,1/2+y,1/2+z
-x,1/2-y,1/2+z
x,1/2-y,1/2-z
-x,1/2+y,1/2-z
-x,1/2-y,1/2-z
x,1/2+y,1/2-z
-x,1/2+y,1/2+z
x,1/2-y,1/2+z
1/2+x,y,1/2+z
1/2-x,-y,1/2+z
1/2+x,-y,1/2-z
1/2-x,y,1/2-z
1/2-x,-y,1/2-z
1/2+x,y,1/2-z
1/2-x,y,1/2+z
1/2+x,-y,1/2+z
1/2+x,1/2+y,z
1/2-x,1/2-y,z
1/2+x,1/2-y,-z
1/2-x,1/2+y,-z
1/2-x,1/2-y,-z
1/2+x,1/2+y,-z
1/2-x,1/2+y,z
1/2+x,1/2-y,z
loop_
_atom_site_type_symbol
_atom_site_label
_atom_site_fract_x
_atom_site_fract_y
_atom_site_fract_z
Si Si1 0.304204 0.749241 0.400689
Si Si2 0.306397 0.000000 0.547094
Si Si3 0.947424 0.347327 0.952220
Si Si4 0.609238 0.348755 0.369871
Si Si5 0.302216 0.500000 0.453929
Si Si6 0.445212 0.353697 0.715366
O O1 0.250000 0.750000 0.385364
O O2 0.319591 0.875504 0.425824
O O3 0.341243 0.727152 0.362251
O O4 0.316982 0.628894 0.430500
O O5 0.252171 0.000000 0.538992
O O6 0.330946 0.000000 0.500000
O O7 0.947451 0.500000 0.949956
O O8 0.914670 0.295382 0.913764
O O9 0.000000 0.296703 0.944443
O O10 0.930414 0.302416 0.000000
O O11 0.618865 0.500000 0.372552
O O12 0.577037 0.315123 0.329809
O O13 0.327773 0.500000 0.500000
O O14 0.500000 0.342256 0.709192
O O15 0.431517 0.500000 0.729097
O O16 0.427077 0.250000 0.750000
#
# Coordination Sequence:
#
# PCOD8283937 Si02
#       6
#    32  16  32  32  16  32
#     4  10  19  31  45  66  95 131 171 211 254 294
#     4   9  18  30  42  60  92 131 170 216 258 285
#     4   8  14  24  39  65 100 130 157 195 241 288
#     4  10  18  30  49  75  99 130 168 205 246 293
#     4   9  16  28  46  64  86 123 174 220 252 285
#     4   9  18  34  57  83 108 128 153 199 255 307
#
# _framework density 17.191559999999999
#
# number of rings (size 3 to 8) (size 9 to 14) (size 15 to 20)
#    0.000    2.800    1.000    1.800    0.000    6.400 
#    1.800    0.000    0.000    0.600    0.000    2.800 
#    0.000    3.200    0.000    0.000    0.000    0.000 
#
# Total GULP energy -495554.342508 kJ/mol
# GULP energy per Si atom -12388.858563 kJ/mol
# Density = 1.715243 g / cm^3
# Si number density = 17.191560 Si / 1000 Ang^3
#
#
#
# Elastic Constant Matrix: (Units=GPa)
#
#
# Indices 1 2 3 4 5 6 
#
# 1 70.0864 24.3702 46.4644 0.0000 0.0000 -0.0001
# 2 24.3702 88.3500 42.1487 0.0000 0.0000 -0.0002
# 3 46.4644 42.1487 102.5523 0.0000 0.0000 0.0000
# 4 0.0000 0.0000 0.0000 -20.6395 0.0000 -0.0001
# 5 0.0000 0.0000 0.0000 0.0000 16.2284 0.0000
# 6 -0.0001 -0.0002 0.0000 -0.0001 0.0000 18.2650
#
#
#
# Elastic Compliance Matrix: (Units=1/GPa)
#
#
# Indices 1 2 3 4 5 6 
#
# 1 0.020558 -0.001526 -0.008687 0.000000 0.000000 0.000000
# 2 -0.001526 0.014192 -0.005142 0.000000 0.000000 0.000000
# 3 -0.008687 -0.005142 0.015800 0.000000 0.000000 0.000000
# 4 0.000000 0.000000 0.000000 -0.048451 0.000000 0.000000
# 5 0.000000 0.000000 0.000000 0.000000 0.061620 0.000000
# 6 0.000000 0.000000 0.000000 0.000000 0.000000 0.054749
#
#
# Mechanical properties :
#
#
# Convention : Reuss Voigt Hill
#
# Bulk Modulus (GPa) = 50.40121 54.10616 52.25368
# Shear Modulus (GPa) = 32.09383 12.63782 22.36582
#
# Velocity S-wave (km/s) = 4.32538 2.71425 3.61082
# Velocity P-wave (km/s) = 7.37063 6.43146 6.91701
#
# Compressibility (1/GPa) = 0.01984079
#
# Stress axis : x y z
#
# Youngs Moduli (GPa) = 48.64281 70.45986 63.29032
#
# Poissons Ratio (x) = 0.10755 0.54981
# Poissons Ratio (y) = 0.07425 0.32541
# Poissons Ratio (z) = 0.42256 0.36227
#
# Static dielectric constant tensor:
#      x y z
#    x 3.282770 0.000000 0.000000 
#    y 0.000000 3.115770 0.000000 
#    z 0.000000 0.000000 3.200630 
# 
# 
# High freq. dielectric constant tensor:
#      x y z
#    x 1.664450 0.000000 0.000000 
#    y 0.000000 1.638840 0.000000 
#    z 0.000000 0.000000 1.637270 
# 
# From -- ./inp_files/43512.got.cif
#   From: 2010.03.12/outbox.cif.g09.slc.cpg/sg69_22_cif.got.tgz:43512.got - 2010.04.10 23:52:46.
