data_PCOD8283223
_publ_section_title
;
Structure prediction by ZEFSAII (Michael W. Deem and Ramdas Pophale) SiO2 
 PCOD8283223
Probable space group: C C C A
;
_chemical_formula_sum "Si O2"
_cell_formula_units_Z 80
_cell_length_a 22.648785
_cell_length_b 27.667687
_cell_length_c 5.457452
_cell_angle_alpha 90.000000
_cell_angle_beta 90.000000
_cell_angle_gamma 90.000000
_cell_volume 3419.854962
_symmetry_space_group_name_H-M "C C C A"
_symmetry_group_IT_number 68
_space_group.IT_coordinate_system_code '2'
_symmetry_cell_setting 'orthorhombic'
loop_
_space_group_symop_operation_xyz
x,y,z
-x,1/2-y,z
x,1/2-y,1/2-z
-x,y,1/2-z
-x,-y,-z
x,1/2+y,-z
-x,1/2+y,1/2+z
x,-y,1/2+z
1/2+x,1/2+y,z
1/2-x,-y,z
1/2+x,-y,1/2-z
1/2-x,1/2+y,1/2-z
1/2-x,1/2-y,-z
1/2+x,y,-z
1/2-x,y,1/2+z
1/2+x,1/2-y,1/2+z
loop_
_atom_site_type_symbol
_atom_site_label
_atom_site_fract_x
_atom_site_fract_y
_atom_site_fract_z
Si Si1 0.201129 0.250000 0.250000
Si Si2 0.896832 0.291988 0.941706
Si Si3 0.221257 0.651640 0.580360
Si Si4 0.000000 0.313547 0.250000
Si Si5 0.406915 0.628855 0.939314
Si Si6 0.933101 0.481363 0.532008
O O1 0.159787 0.289896 0.383916
O O2 0.233867 0.211289 0.433252
O O3 0.888060 0.250000 0.750000
O O4 0.898791 0.345128 0.823189
O O5 0.957507 0.280380 0.083957
O O6 0.248326 0.630609 0.326715
O O7 0.153346 0.635054 0.591072
O O8 0.959858 0.346979 0.416868
O O9 0.426840 0.574349 0.897132
O O10 0.902604 0.491410 0.266274
O O11 0.000000 0.500000 0.500000
#
# Coordination Sequence:
#
# PCOD8283223 Si02
#       6
#     8  16  16   8  16  16
#     4  12  24  45  66 100 148 209 266 310 360 440
#     4  12  25  43  64 105 154 206 247 301 377 460
#     4  12  27  47  73 103 146 202 263 318 363 434
#     4  12  26  41  66  98 148 198 246 296 387 454
#     4  12  27  44  75 105 148 195 248 315 386 459
#     4  10  24  44  72 108 143 180 237 298 384 452
#
# _framework density 23.392804999999999
#
# number of rings (size 3 to 8) (size 9 to 14) (size 15 to 20)
#    0.000    0.400    4.000    3.600    8.400    6.000 
#    0.000    0.000    0.000    3.600    0.000    0.000 
#    0.000    0.000    0.000    0.000    0.000    0.000 
#
# Total GULP energy -495880.980177 kJ/mol
# GULP energy per Si atom -12397.024504 kJ/mol
# Density = 2.333956 g / cm^3
# Si number density = 23.392805 Si / 1000 Ang^3
#
#
#
# Elastic Constant Matrix: (Units=GPa)
#
#
# Indices 1 2 3 4 5 6 
#
# 1 94.8485 14.8790 22.5206 0.0000 0.0000 0.0000
# 2 14.8790 114.8893 26.1589 0.0000 0.0000 0.0000
# 3 22.5206 26.1589 156.4095 0.0000 0.0000 0.0000
# 4 0.0000 0.0000 0.0000 28.9865 0.0000 0.0000
# 5 0.0000 0.0000 0.0000 0.0000 31.8097 0.0000
# 6 0.0000 0.0000 0.0000 0.0000 0.0000 26.1785
#
#
#
# Elastic Compliance Matrix: (Units=1/GPa)
#
#
# Indices 1 2 3 4 5 6 
#
# 1 0.011051 -0.001111 -0.001405 0.000000 0.000000 0.000000
# 2 -0.001111 0.009160 -0.001372 0.000000 0.000000 0.000000
# 3 -0.001405 -0.001372 0.006825 0.000000 0.000000 0.000000
# 4 0.000000 0.000000 0.000000 0.034499 0.000000 0.000000
# 5 0.000000 0.000000 0.000000 0.000000 0.031437 0.000000
# 6 0.000000 0.000000 0.000000 0.000000 0.000000 0.038199
#
#
# Mechanical properties :
#
#
# Convention : Reuss Voigt Hill
#
# Bulk Modulus (GPa) = 51.92227 54.80713 53.36470
# Shear Modulus (GPa) = 34.39525 37.56752 35.98139
#
# Velocity S-wave (km/s) = 3.83865 4.01177 3.92617
# Velocity P-wave (km/s) = 6.47233 6.70365 6.58901
#
# Compressibility (1/GPa) = 0.01925956
#
# Stress axis : x y z
#
# Youngs Moduli (GPa) = 90.48846 109.16625 146.51393
#
# Poissons Ratio (x) = 0.12131 0.20590
# Poissons Ratio (y) = 0.10055 0.20102
# Poissons Ratio (z) = 0.12717 0.14978
#
# Static dielectric constant tensor:
#      x y z
#    x 5.115440 0.000000 0.000000 
#    y 0.000000 3.923500 0.000000 
#    z 0.000000 0.000000 2.837680 
# 
# 
# High freq. dielectric constant tensor:
#      x y z
#    x 1.924320 0.000000 0.000000 
#    y 0.000000 1.888200 0.000000 
#    z 0.000000 0.000000 1.963080 
# 
# From -- ./inp_files/2405.got.cif
#   From: 2010.03.12/outbox.cif.g09.slc.cpg/sg68_2_cif.got.tgz:2405.got - 2010.04.10 23:14:56.
