data_PCOD8283054
_publ_section_title
;
Structure prediction by ZEFSAII (Michael W. Deem and Ramdas Pophale) SiO2 
 PCOD8283054
Probable space group: C C C A
;
_chemical_formula_sum "Si O2"
_cell_formula_units_Z 80
_cell_length_a 19.206708
_cell_length_b 15.160965
_cell_length_c 12.748771
_cell_angle_alpha 90.000000
_cell_angle_beta 90.000000
_cell_angle_gamma 90.000000
_cell_volume 3712.343029
_symmetry_space_group_name_H-M "C C C A"
_symmetry_group_IT_number 68
_space_group.IT_coordinate_system_code '2'
_symmetry_cell_setting 'orthorhombic'
loop_
_space_group_symop_operation_xyz
x,y,z
-x,1/2-y,z
x,1/2-y,1/2-z
-x,y,1/2-z
-x,-y,-z
x,1/2+y,-z
-x,1/2+y,1/2+z
x,-y,1/2+z
1/2+x,1/2+y,z
1/2-x,-y,z
1/2+x,-y,1/2-z
1/2-x,1/2+y,1/2-z
1/2-x,1/2-y,-z
1/2+x,y,-z
1/2-x,y,1/2+z
1/2+x,1/2-y,1/2+z
loop_
_atom_site_type_symbol
_atom_site_label
_atom_site_fract_x
_atom_site_fract_y
_atom_site_fract_z
Si Si1 0.250000 0.500000 0.782869
Si Si2 0.067041 0.200544 0.643956
Si Si3 0.500000 0.046501 0.250000
Si Si4 0.129233 0.995083 0.873717
Si Si5 0.309644 0.375838 0.956457
Si Si6 0.168717 0.686837 0.539169
O O1 0.185992 0.470332 0.709655
O O2 0.275818 0.421396 0.856334
O O3 0.088412 0.250000 0.750000
O O4 0.046389 0.101445 0.669563
O O5 0.135078 0.195156 0.575021
O O6 0.000000 0.250000 0.591534
O O7 0.552236 0.993732 0.175008
O O8 0.134152 0.891140 0.895611
O O9 0.139487 0.057435 0.977890
O O10 0.345181 0.285272 0.912681
O O11 0.249549 0.340455 0.033882
#
# Coordination Sequence:
#
# PCOD8283054 Si02
#       6
#     8  16   8  16  16  16
#     4  12  22  44  70  92 140 178 218 288 330 406
#     4   9  19  40  63  98 129 179 230 281 335 407
#     4  10  23  38  70  95 134 184 226 274 341 409
#     4  12  24  46  64 104 135 177 232 279 337 419
#     4  11  23  42  66 100 130 175 226 281 339 399
#     4  11  22  41  67  98 135 173 223 288 335 395
#
# _framework density 21.549733
#
# number of rings (size 3 to 8) (size 9 to 14) (size 15 to 20)
#    0.000    1.400    4.000    3.600    0.000    1.600 
#    3.600    0.000    0.000    0.000    0.000    0.000 
#    0.000    0.000    0.000    0.000    0.000    0.000 
#
# Total GULP energy -495532.589169 kJ/mol
# GULP energy per Si atom -12388.314729 kJ/mol
# Density = 2.150069 g / cm^3
# Si number density = 21.549733 Si / 1000 Ang^3
#
#
#
# Elastic Constant Matrix: (Units=GPa)
#
#
# Indices 1 2 3 4 5 6 
#
# 1 93.6071 44.3517 43.1972 0.0000 0.0000 0.0000
# 2 44.3517 183.4672 57.7262 0.0000 0.0000 0.0000
# 3 43.1972 57.7262 81.3395 0.0000 0.0000 0.0000
# 4 0.0000 0.0000 0.0000 11.8733 0.0000 0.0000
# 5 0.0000 0.0000 0.0000 0.0000 56.2925 0.0000
# 6 0.0000 0.0000 0.0000 0.0000 0.0000 -177.9538
#
#
#
# Elastic Compliance Matrix: (Units=1/GPa)
#
#
# Indices 1 2 3 4 5 6 
#
# 1 0.014420 -0.001386 -0.006674 0.000000 0.000000 0.000000
# 2 -0.001386 0.007151 -0.004339 0.000000 0.000000 0.000000
# 3 -0.006674 -0.004339 0.018918 0.000000 0.000000 0.000000
# 4 0.000000 0.000000 0.000000 0.084222 0.000000 0.000000
# 5 0.000000 0.000000 0.000000 0.000000 0.017764 0.000000
# 6 0.000000 0.000000 0.000000 0.000000 0.000000 -0.005619
#
#
# Mechanical properties :
#
#
# Convention : Reuss Voigt Hill
#
# Bulk Modulus (GPa) = 63.73381 72.10712 67.92046
# Shear Modulus (GPa) = 29.96096 -7.74834 11.10631
#
# Velocity S-wave (km/s) = 3.73274 -1.89825 2.27266
# Velocity P-wave (km/s) = 6.94386 5.35994 6.20267
#
# Compressibility (1/GPa) = 0.01569026
#
# Stress axis : x y z
#
# Youngs Moduli (GPa) = 69.35006 139.84516 52.85968
#
# Poissons Ratio (x) = 0.19380 0.35280
# Poissons Ratio (y) = 0.09611 0.22935
# Poissons Ratio (z) = 0.46287 0.60677
#
# Static dielectric constant tensor:
#      x y z
#    x 4.013250 0.000000 0.000000 
#    y 0.000000 4.253480 0.000000 
#    z 0.000000 0.000000 3.767170 
# 
# 
# High freq. dielectric constant tensor:
#      x y z
#    x 1.837370 0.000000 0.000000 
#    y 0.000000 1.860700 0.000000 
#    z 0.000000 0.000000 1.824210 
# 
# From -- ./inp_files/15361.got.cif
#   From: 2010.03.12/outbox.cif.g09.slc.cpg/sg68_8_cif.got.tgz:15361.got - 2010.04.10 23:14:56.
