data_PCOD8283393
_publ_section_title
;
Structure prediction by ZEFSAII (Michael W. Deem and Ramdas Pophale) SiO2 
 PCOD8283393
Probable space group: C C C A
;
_chemical_formula_sum "Si O2"
_cell_formula_units_Z 96
_cell_length_a 16.604604
_cell_length_b 18.529515
_cell_length_c 13.608509
_cell_angle_alpha 90.000000
_cell_angle_beta 90.000000
_cell_angle_gamma 90.000000
_cell_volume 4187.001530
_symmetry_space_group_name_H-M "C C C A"
_symmetry_group_IT_number 68
_space_group.IT_coordinate_system_code '2'
_symmetry_cell_setting 'orthorhombic'
loop_
_space_group_symop_operation_xyz
x,y,z
-x,1/2-y,z
x,1/2-y,1/2-z
-x,y,1/2-z
-x,-y,-z
x,1/2+y,-z
-x,1/2+y,1/2+z
x,-y,1/2+z
1/2+x,1/2+y,z
1/2-x,-y,z
1/2+x,-y,1/2-z
1/2-x,1/2+y,1/2-z
1/2-x,1/2-y,-z
1/2+x,y,-z
1/2-x,y,1/2+z
1/2+x,1/2-y,1/2+z
loop_
_atom_site_type_symbol
_atom_site_label
_atom_site_fract_x
_atom_site_fract_y
_atom_site_fract_z
Si Si1 0.273862 0.847307 0.399389
Si Si2 0.385397 0.919239 0.855507
Si Si3 0.410220 0.934355 0.455368
Si Si4 0.953149 0.174867 0.493430
Si Si5 0.216717 0.307282 0.392868
Si Si6 0.313259 0.064099 0.158577
O O1 0.208162 0.908904 0.381886
O O2 0.357391 0.888006 0.378729
O O3 0.272490 0.817605 0.511273
O O4 0.271344 0.771193 0.340373
O O5 0.427598 0.845230 0.893932
O O6 0.386283 0.933252 0.738598
O O7 0.425566 0.986037 0.913057
O O8 0.494039 0.892767 0.459237
O O9 0.360305 0.940071 0.556476
O O10 0.877023 0.179085 0.420370
O O11 0.000000 0.250000 0.495121
O O12 0.254951 0.366684 0.319807
O O13 0.250000 0.000000 0.169550
#
# Coordination Sequence:
#
# PCOD8283393 Si02
#       6
#    16  16  16  16  16  16
#     4   9  17  35  61  88 124 167 221 270 315 390
#     4  11  24  39  64  98 130 178 225 285 334 393
#     4  11  21  40  67  97 132 174 223 275 345 414
#     4  11  22  41  66  98 135 184 224 271 347 424
#     4   9  19  36  61  92 124 172 224 262 327 395
#     4  11  23  40  64  99 132 171 227 283 336 396
#
# _framework density 22.928101999999999
#
# number of rings (size 3 to 8) (size 9 to 14) (size 15 to 20)
#    0.000    1.667    1.667    5.000    2.333    1.333 
#    0.000    0.833    0.000    3.000    0.000    0.000 
#    0.000    0.000    0.000    0.000    0.000    0.000 
#
# Total GULP energy -594666.194193 kJ/mol
# GULP energy per Si atom -12388.879046 kJ/mol
# Density = 2.287592 g / cm^3
# Si number density = 22.928102 Si / 1000 Ang^3
#
#
#
# Elastic Constant Matrix: (Units=GPa)
#
#
# Indices 1 2 3 4 5 6 
#
# 1 88.4118 39.4715 8.8237 0.0000 0.0000 0.0000
# 2 39.4715 149.3848 32.9771 0.0000 0.0000 0.0000
# 3 8.8237 32.9771 50.8447 0.0000 0.0000 0.0000
# 4 0.0000 0.0000 0.0000 23.0324 0.0000 0.0000
# 5 0.0000 0.0000 0.0000 0.0000 26.1393 0.0000
# 6 0.0000 0.0000 0.0000 0.0000 0.0000 40.2980
#
#
#
# Elastic Compliance Matrix: (Units=1/GPa)
#
#
# Indices 1 2 3 4 5 6 
#
# 1 0.012823 -0.003381 -0.000032 0.000000 0.000000 0.000000
# 2 -0.003381 0.008704 -0.005059 0.000000 0.000000 0.000000
# 3 -0.000032 -0.005059 0.022954 0.000000 0.000000 0.000000
# 4 0.000000 0.000000 0.000000 0.043417 0.000000 0.000000
# 5 0.000000 0.000000 0.000000 0.000000 0.038257 0.000000
# 6 0.000000 0.000000 0.000000 0.000000 0.000000 0.024815
#
#
# Mechanical properties :
#
#
# Convention : Reuss Voigt Hill
#
# Bulk Modulus (GPa) = 36.31410 50.13176 43.22293
# Shear Modulus (GPa) = 28.23349 31.71852 29.97601
#
# Velocity S-wave (km/s) = 3.51293 3.72343 3.61971
# Velocity P-wave (km/s) = 5.68567 6.35590 6.03010
#
# Compressibility (1/GPa) = 0.02753751
#
# Stress axis : x y z
#
# Youngs Moduli (GPa) = 77.98215 114.88690 43.56474
#
# Poissons Ratio (x) = 0.38845 0.00141
# Poissons Ratio (y) = 0.26367 0.22038
# Poissons Ratio (z) = 0.00253 0.58117
#
# Static dielectric constant tensor:
#      x y z
#    x 4.139640 0.000000 0.000000 
#    y 0.000000 4.640710 0.000000 
#    z 0.000000 0.000000 3.924780 
# 
# 
# High freq. dielectric constant tensor:
#      x y z
#    x 1.901990 0.000000 0.000000 
#    y 0.000000 1.930060 0.000000 
#    z 0.000000 0.000000 1.878780 
# 
# From -- ./inp_files/22365.got.cif
#   From: 2010.03.12/outbox.cif.g09.slc.cpg/sg68_12_cif.got.tgz:22365.got - 2010.04.10 23:14:56.
