data_PCOD8283526
_publ_section_title
;
Structure prediction by ZEFSAII (Michael W. Deem and Ramdas Pophale) SiO2 
 PCOD8283526
Probable space group: C C C A
;
_chemical_formula_sum "Si O2"
_cell_formula_units_Z 88
_cell_length_a 22.137696
_cell_length_b 15.202539
_cell_length_c 13.545904
_cell_angle_alpha 90.000000
_cell_angle_beta 90.000000
_cell_angle_gamma 90.000000
_cell_volume 4558.862976
_symmetry_space_group_name_H-M "C C C A"
_symmetry_group_IT_number 68
_space_group.IT_coordinate_system_code '2'
_symmetry_cell_setting 'orthorhombic'
loop_
_space_group_symop_operation_xyz
x,y,z
-x,1/2-y,z
x,1/2-y,1/2-z
-x,y,1/2-z
-x,-y,-z
x,1/2+y,-z
-x,1/2+y,1/2+z
x,-y,1/2+z
1/2+x,1/2+y,z
1/2-x,-y,z
1/2+x,-y,1/2-z
1/2-x,1/2+y,1/2-z
1/2-x,1/2-y,-z
1/2+x,y,-z
1/2-x,y,1/2+z
1/2+x,1/2-y,1/2+z
loop_
_atom_site_type_symbol
_atom_site_label
_atom_site_fract_x
_atom_site_fract_y
_atom_site_fract_z
Si Si1 0.778723 0.250000 0.750000
Si Si2 0.703765 0.079143 0.743778
Si Si3 0.498396 0.351969 0.633604
Si Si4 0.377118 0.927305 0.072614
Si Si5 0.127710 0.599515 0.551877
Si Si6 0.182774 0.731906 0.036752
O O1 0.736207 0.168399 0.776009
O O2 0.820187 0.272443 0.844248
O O3 0.647791 0.067768 0.816755
O O4 0.679523 0.084248 0.632828
O O5 0.750000 0.000000 0.754888
O O6 0.500000 0.250000 0.603652
O O7 0.500000 0.363508 0.750000
O O8 0.553273 0.399855 0.578611
O O9 0.437994 0.399560 0.599116
O O10 0.339708 0.860789 0.004441
O O11 0.369160 0.023350 0.028065
O O12 0.138283 0.692087 0.498955
O O13 0.250000 0.750000 0.000000
#
# Coordination Sequence:
#
# PCOD8283526 Si02
#       6
#     8  16  16  16  16  16
#     4  12  24  40  62  92 142 166 214 262 324 400
#     4  12  24  39  64  99 130 174 217 262 321 403
#     4  11  23  44  72  95 124 170 229 279 325 386
#     4  12  25  42  67  95 133 174 219 273 331 388
#     4  12  25  42  67  95 133 174 219 273 331 388
#     4  12  24  41  65  97 133 173 212 267 337 390
#
# _framework density 19.303059000000001
#
# number of rings (size 3 to 8) (size 9 to 14) (size 15 to 20)
#    0.000    0.182    7.273    2.727    0.000    0.000 
#    0.000    0.000    0.000    1.091    0.000    0.000 
#    0.000    0.000    0.000    0.000    0.000    0.000 
#
# Total GULP energy -545923.230418 kJ/mol
# GULP energy per Si atom -12407.346146 kJ/mol
# Density = 1.925912 g / cm^3
# Si number density = 19.303059 Si / 1000 Ang^3
#
#
#
# Elastic Constant Matrix: (Units=GPa)
#
#
# Indices 1 2 3 4 5 6 
#
# 1 85.1503 10.8837 7.1503 0.0000 0.0000 0.0000
# 2 10.8837 87.1782 5.5431 0.0000 0.0000 0.0000
# 3 7.1503 5.5431 87.8020 0.0000 0.0000 0.0000
# 4 0.0000 0.0000 0.0000 34.3988 0.0000 0.0000
# 5 0.0000 0.0000 0.0000 0.0000 32.7669 0.0000
# 6 0.0000 0.0000 0.0000 0.0000 0.0000 29.2521
#
#
#
# Elastic Compliance Matrix: (Units=1/GPa)
#
#
# Indices 1 2 3 4 5 6 
#
# 1 0.012003 -0.001442 -0.000886 0.000000 0.000000 0.000000
# 2 -0.001442 0.011690 -0.000621 0.000000 0.000000 0.000000
# 3 -0.000886 -0.000621 0.011501 0.000000 0.000000 0.000000
# 4 0.000000 0.000000 0.000000 0.029071 0.000000 0.000000
# 5 0.000000 0.000000 0.000000 0.000000 0.030519 0.000000
# 6 0.000000 0.000000 0.000000 0.000000 0.000000 0.034186
#
#
# Mechanical properties :
#
#
# Convention : Reuss Voigt Hill
#
# Bulk Modulus (GPa) = 34.13510 34.14275 34.13893
# Shear Modulus (GPa) = 34.57051 35.05377 34.81214
#
# Velocity S-wave (km/s) = 4.23653 4.26604 4.25131
# Velocity P-wave (km/s) = 6.45392 6.48010 6.46702
#
# Compressibility (1/GPa) = 0.02929536
#
# Stress axis : x y z
#
# Youngs Moduli (GPa) = 83.31460 85.54128 86.95173
#
# Poissons Ratio (x) = 0.12336 0.07708
# Poissons Ratio (y) = 0.12015 0.05396
# Poissons Ratio (z) = 0.07385 0.05309
#
# Static dielectric constant tensor:
#      x y z
#    x 3.596260 0.000000 0.000000 
#    y 0.000000 3.598630 0.000000 
#    z 0.000000 0.000000 3.652800 
# 
# 
# High freq. dielectric constant tensor:
#      x y z
#    x 1.753370 0.000000 0.000000 
#    y 0.000000 1.763100 0.000000 
#    z 0.000000 0.000000 1.761240 
# 
# From -- ./inp_files/13341.got.cif
#   From: 2010.03.12/outbox.cif.g09.slc.cpg/sg68_7_cif.got.tgz:13341.got - 2010.04.10 23:14:56.
