data_PCOD8283800
_publ_section_title
;
Structure prediction by ZEFSAII (Michael W. Deem and Ramdas Pophale) SiO2 
 PCOD8283800
Probable space group: F M M M
;
_chemical_formula_sum "Si O2"
_cell_formula_units_Z 192
_cell_length_a 24.857820
_cell_length_b 23.588081
_cell_length_c 19.274684
_cell_angle_alpha 90.000000
_cell_angle_beta 90.000000
_cell_angle_gamma 90.000000
_cell_volume 11301.677650
_symmetry_space_group_name_H-M "F M M M"
_symmetry_group_IT_number 69
_symmetry_cell_setting 'orthorhombic'
loop_
_space_group_symop_operation_xyz
x,y,z
-x,-y,z
x,-y,-z
-x,y,-z
-x,-y,-z
x,y,-z
-x,y,z
x,-y,z
x,1/2+y,1/2+z
-x,1/2-y,1/2+z
x,1/2-y,1/2-z
-x,1/2+y,1/2-z
-x,1/2-y,1/2-z
x,1/2+y,1/2-z
-x,1/2+y,1/2+z
x,1/2-y,1/2+z
1/2+x,y,1/2+z
1/2-x,-y,1/2+z
1/2+x,-y,1/2-z
1/2-x,y,1/2-z
1/2-x,-y,1/2-z
1/2+x,y,1/2-z
1/2-x,y,1/2+z
1/2+x,-y,1/2+z
1/2+x,1/2+y,z
1/2-x,1/2-y,z
1/2+x,1/2-y,-z
1/2-x,1/2+y,-z
1/2-x,1/2-y,-z
1/2+x,1/2+y,-z
1/2-x,1/2+y,z
1/2+x,1/2-y,z
loop_
_atom_site_type_symbol
_atom_site_label
_atom_site_fract_x
_atom_site_fract_y
_atom_site_fract_z
Si Si1 0.678811 0.500000 0.177637
Si Si2 0.653276 0.116435 0.151121
Si Si3 0.937896 0.282665 0.681831
Si Si4 0.699533 0.000000 0.840774
Si Si5 0.643565 0.121585 0.315258
Si Si6 0.252491 0.686511 0.167482
Si Si7 0.438443 0.317728 0.580220
O O1 0.692297 0.500000 0.258472
O O2 0.736999 0.500000 0.139626
O O3 0.644337 0.443683 0.157147
O O4 0.669570 0.053835 0.126359
O O5 0.646583 0.119910 0.232966
O O6 0.702331 0.157021 0.130069
O O7 0.598584 0.133638 0.112905
O O8 0.914186 0.250000 0.750000
O O9 0.909864 0.342977 0.666264
O O10 0.927870 0.242610 0.616140
O O11 0.000000 0.296710 0.694746
O O12 0.692750 0.154316 0.352347
O O13 0.250000 0.684865 0.250000
O O14 0.250000 0.750000 0.138763
O O15 0.424580 0.309936 0.500000
O O16 0.500000 0.337054 0.591980
#
# Coordination Sequence:
#
# PCOD8283800 Si02
#       7
#    16  32  32  16  32  32  32
#     4   9  16  28  43  73 109 134 164 212 258 309
#     4  10  17  29  47  69 101 135 172 213 256 306
#     4  10  19  32  52  76 102 135 175 216 265 318
#     4   9  16  28  44  70 101 137 171 207 256 302
#     4  10  17  27  47  75 105 133 166 211 261 308
#     4   9  16  22  39  70  99 124 160 206 255 307
#     4  10  21  36  53  74 103 139 176 217 264 314
#
# _framework density 16.988627999999999
#
# number of rings (size 3 to 8) (size 9 to 14) (size 15 to 20)
#    0.000    2.333    3.333    1.000    2.333    0.000 
#    0.000    1.250    0.000    8.500    0.000    0.583 
#    0.000    2.667    0.000    0.000    0.000    0.000 
#
# Total GULP energy -594952.994195 kJ/mol
# GULP energy per Si atom -12394.854046 kJ/mol
# Density = 1.694996 g / cm^3
# Si number density = 16.988628 Si / 1000 Ang^3
#
#
#
# Elastic Constant Matrix: (Units=GPa)
#
#
# Indices 1 2 3 4 5 6 
#
# 1 102.3583 77.6670 26.0035 0.0000 0.0000 0.0000
# 2 77.6670 173.1415 27.6444 0.0000 0.0000 0.0000
# 3 26.0035 27.6444 40.2060 0.0000 0.0000 0.0000
# 4 0.0000 0.0000 0.0000 10.1310 0.0000 0.0000
# 5 0.0000 0.0000 0.0000 0.0000 13.5743 0.0000
# 6 0.0000 0.0000 0.0000 0.0000 0.0000 29.3366
#
#
#
# Elastic Compliance Matrix: (Units=1/GPa)
#
#
# Indices 1 2 3 4 5 6 
#
# 1 0.016039 -0.006221 -0.006096 0.000000 0.000000 0.000000
# 2 -0.006221 0.008901 -0.002096 0.000000 0.000000 0.000000
# 3 -0.006096 -0.002096 0.030256 0.000000 0.000000 0.000000
# 4 0.000000 0.000000 0.000000 0.098707 0.000000 0.000000
# 5 0.000000 0.000000 0.000000 0.000000 0.073669 0.000000
# 6 0.000000 0.000000 0.000000 0.000000 0.000000 0.034087
#
#
# Mechanical properties :
#
#
# Convention : Reuss Voigt Hill
#
# Bulk Modulus (GPa) = 37.92350 64.25950 51.09150
# Shear Modulus (GPa) = 16.70707 22.90111 19.80409
#
# Velocity S-wave (km/s) = 3.13937 3.67553 3.41798
# Velocity P-wave (km/s) = 5.95921 7.47796 6.76136
#
# Compressibility (1/GPa) = 0.02636887
#
# Stress axis : x y z
#
# Youngs Moduli (GPa) = 62.34911 112.34594 33.05168
#
# Poissons Ratio (x) = 0.69894 0.20147
# Poissons Ratio (y) = 0.38789 0.06929
# Poissons Ratio (z) = 0.38005 0.23552
#
# Static dielectric constant tensor:
#      x y z
#    x 3.240030 0.000000 0.000000 
#    y 0.000000 3.468720 0.000000 
#    z 0.000000 0.000000 2.692740 
# 
# 
# High freq. dielectric constant tensor:
#      x y z
#    x 1.656490 0.000000 0.000000 
#    y 0.000000 1.662220 0.000000 
#    z 0.000000 0.000000 1.594840 
# 
# From -- ./inp_files/32926.got.cif
#   From: 2010.03.12/outbox.cif.g09.slc.cpg/sg69_17_cif.got.tgz:32926.got - 2010.04.10 23:52:46.
