data_PCOD8283133
_publ_section_title
;
Structure prediction by ZEFSAII (Michael W. Deem and Ramdas Pophale) SiO2 
 PCOD8283133
Probable space group: C C C A
;
_chemical_formula_sum "Si O2"
_cell_formula_units_Z 80
_cell_length_a 11.067002
_cell_length_b 14.370075
_cell_length_c 21.957145
_cell_angle_alpha 90.000000
_cell_angle_beta 90.000000
_cell_angle_gamma 90.000000
_cell_volume 3491.924886
_symmetry_space_group_name_H-M "C C C A"
_symmetry_group_IT_number 68
_space_group.IT_coordinate_system_code '2'
_symmetry_cell_setting 'orthorhombic'
loop_
_space_group_symop_operation_xyz
x,y,z
-x,1/2-y,z
x,1/2-y,1/2-z
-x,y,1/2-z
-x,-y,-z
x,1/2+y,-z
-x,1/2+y,1/2+z
x,-y,1/2+z
1/2+x,1/2+y,z
1/2-x,-y,z
1/2+x,-y,1/2-z
1/2-x,1/2+y,1/2-z
1/2-x,1/2-y,-z
1/2+x,y,-z
1/2-x,y,1/2+z
1/2+x,1/2-y,1/2+z
loop_
_atom_site_type_symbol
_atom_site_label
_atom_site_fract_x
_atom_site_fract_y
_atom_site_fract_z
Si Si1 0.113470 0.692957 0.901246
Si Si2 0.302976 0.599892 0.977140
Si Si3 0.281993 0.126570 0.886100
Si Si4 0.505043 0.642504 0.880543
Si Si5 0.009700 0.539989 0.680014
O O1 0.193631 0.668555 0.959791
O O2 0.192044 0.768229 0.862296
O O3 0.000000 0.750000 0.926866
O O4 0.079250 0.606580 0.858616
O O5 0.250000 0.500000 0.960084
O O6 0.423356 0.625400 0.939538
O O7 0.340498 0.609469 0.047184
O O8 0.140829 0.110160 0.894597
O O9 0.350588 0.055056 0.841035
O O10 0.500000 0.750000 0.857927
O O11 0.465718 0.567524 0.828675
O O12 0.000000 0.567633 0.750000
#
# Coordination Sequence:
#
# PCOD8283133 Si02
#       5
#    16  16  16  16  16
#     4  10  23  43  71 104 139 187 237 283 350 428
#     4  12  24  43  72 104 151 191 226 287 365 434
#     4  11  26  44  70 110 143 181 238 291 352 423
#     4  12  26  44  70 107 144 183 233 305 361 406
#     4  11  26  51  72  97 138 195 243 288 345 431
#
# _framework density 22.91
#
# number of rings (size 3 to 8) (size 9 to 14) (size 15 to 20)
#    0.000    0.800    4.000    2.400    5.600    5.600 
#    7.200    2.000    0.000    0.000    0.000    0.000 
#    0.000    0.000    0.000    0.000    0.000    0.000 
#
# Total GULP energy -495694.808415 kJ/mol
# GULP energy per Si atom -12392.370210 kJ/mol
# Density = 2.285786 g / cm^3
# Si number density = 22.910000 Si / 1000 Ang^3
#
#
#
# Elastic Constant Matrix: (Units=GPa)
#
#
# Indices 1 2 3 4 5 6 
#
# 1 137.6244 38.9441 60.1669 0.0000 0.0000 0.0000
# 2 38.9441 175.0486 34.0724 0.0000 0.0000 0.0000
# 3 60.1669 34.0724 124.4642 0.0000 0.0000 0.0000
# 4 0.0000 0.0000 0.0000 19.6472 0.0000 0.0000
# 5 0.0000 0.0000 0.0000 0.0000 21.9552 0.0000
# 6 0.0000 0.0000 0.0000 0.0000 0.0000 28.1112
#
#
#
# Elastic Compliance Matrix: (Units=1/GPa)
#
#
# Indices 1 2 3 4 5 6 
#
# 1 0.009479 -0.001285 -0.004231 0.000000 0.000000 0.000000
# 2 -0.001285 0.006209 -0.001078 0.000000 0.000000 0.000000
# 3 -0.004231 -0.001078 0.010375 0.000000 0.000000 0.000000
# 4 0.000000 0.000000 0.000000 0.050898 0.000000 0.000000
# 5 0.000000 0.000000 0.000000 0.000000 0.045547 0.000000
# 6 0.000000 0.000000 0.000000 0.000000 0.000000 0.035573
#
#
# Mechanical properties :
#
#
# Convention : Reuss Voigt Hill
#
# Bulk Modulus (GPa) = 77.67450 78.16711 77.92081
# Shear Modulus (GPa) = 28.48020 34.20631 31.34326
#
# Velocity S-wave (km/s) = 3.52964 3.86822 3.70280
# Velocity P-wave (km/s) = 7.11259 7.35827 7.23647
#
# Compressibility (1/GPa) = 0.01287424
#
# Stress axis : x y z
#
# Youngs Moduli (GPa) = 105.49168 161.06809 96.38869
#
# Poissons Ratio (x) = 0.20705 0.40777
# Poissons Ratio (y) = 0.13561 0.10393
# Poissons Ratio (z) = 0.44628 0.17366
#
# Static dielectric constant tensor:
#      x y z
#    x 4.369910 0.000000 0.000000 
#    y 0.000000 4.763360 0.000000 
#    z 0.000000 0.000000 3.560060 
# 
# 
# High freq. dielectric constant tensor:
#      x y z
#    x 1.917800 0.000000 0.000000 
#    y 0.000000 1.939960 0.000000 
#    z 0.000000 0.000000 1.853890 
# 
# From -- ./inp_files/44124.got.cif
#   From: 2010.03.12/outbox.cif.g09.slc.cpg/sg68_23_cif.got.tgz:44124.got - 2010.04.10 23:14:56.
