data_PCOD8283820
_publ_section_title
;
Structure prediction by ZEFSAII (Michael W. Deem and Ramdas Pophale) SiO2 
 PCOD8283820
Probable space group: F M M M
;
_chemical_formula_sum "Si O2"
_cell_formula_units_Z 176
_cell_length_a 28.209769
_cell_length_b 20.020347
_cell_length_c 18.615468
_cell_angle_alpha 90.000000
_cell_angle_beta 90.000000
_cell_angle_gamma 90.000000
_cell_volume 10513.446026
_symmetry_space_group_name_H-M "F M M M"
_symmetry_group_IT_number 69
_symmetry_cell_setting 'orthorhombic'
loop_
_space_group_symop_operation_xyz
x,y,z
-x,-y,z
x,-y,-z
-x,y,-z
-x,-y,-z
x,y,-z
-x,y,z
x,-y,z
x,1/2+y,1/2+z
-x,1/2-y,1/2+z
x,1/2-y,1/2-z
-x,1/2+y,1/2-z
-x,1/2-y,1/2-z
x,1/2+y,1/2-z
-x,1/2+y,1/2+z
x,1/2-y,1/2+z
1/2+x,y,1/2+z
1/2-x,-y,1/2+z
1/2+x,-y,1/2-z
1/2-x,y,1/2-z
1/2-x,-y,1/2-z
1/2+x,y,1/2-z
1/2-x,y,1/2+z
1/2+x,-y,1/2+z
1/2+x,1/2+y,z
1/2-x,1/2-y,z
1/2+x,1/2-y,-z
1/2-x,1/2+y,-z
1/2-x,1/2-y,-z
1/2+x,1/2+y,-z
1/2-x,1/2+y,z
1/2+x,1/2-y,z
loop_
_atom_site_type_symbol
_atom_site_label
_atom_site_fract_x
_atom_site_fract_y
_atom_site_fract_z
Si Si1 0.276472 0.819573 0.581455
Si Si2 0.944361 0.574914 0.000000
Si Si3 0.802264 0.076036 0.583048
Si Si4 0.363101 0.723434 0.831110
Si Si5 0.605565 0.862517 0.131306
Si Si6 0.447915 0.672387 0.231349
O O1 0.294057 0.832765 0.500000
O O2 0.250000 0.750000 0.586734
O O3 0.241477 0.878048 0.607499
O O4 0.320253 0.818647 0.636071
O O5 0.929163 0.616794 0.931554
O O6 0.921584 0.500000 0.000000
O O7 0.000000 0.568224 0.000000
O O8 0.816018 0.091549 0.500000
O O9 0.848081 0.090218 0.632451
O O10 0.786135 0.000000 0.593499
O O11 0.351585 0.750000 0.750000
O O12 0.375580 0.786987 0.880728
O O13 0.408234 0.672102 0.831505
O O14 0.574046 0.869908 0.202975
O O15 0.500000 0.643388 0.209540
O O16 0.454042 0.750000 0.250000
#
# Coordination Sequence:
#
# PCOD8283820 Si02
#       6
#    32  16  32  32  32  32
#     4  10  19  31  50  75 100 127 167 215 254 305
#     4  11  22  30  42  69 104 140 175 210 250 306
#     4  10  19  31  47  69 102 138 164 198 255 315
#     4   9  19  32  51  73  95 129 170 211 256 303
#     4  10  17  29  47  68  93 129 170 206 245 294
#     4   8  16  31  48  66  91 125 166 205 247 295
#
# _framework density 16.740466999999999
#
# number of rings (size 3 to 8) (size 9 to 14) (size 15 to 20)
#    0.000    2.818    2.727    1.091    1.273    1.091 
#    0.000    0.000    0.000   13.091    0.000    0.000 
#    0.000    0.000    0.000    4.545    0.000    0.000 
#
# Total GULP energy -545239.657215 kJ/mol
# GULP energy per Si atom -12391.810391 kJ/mol
# Density = 1.670236 g / cm^3
# Si number density = 16.740467 Si / 1000 Ang^3
#
#
#
# Elastic Constant Matrix: (Units=GPa)
#
#
# Indices 1 2 3 4 5 6 
#
# 1 143.0672 41.2410 49.2786 0.0000 0.0000 0.0000
# 2 41.2410 79.9089 33.6900 0.0000 0.0000 0.0000
# 3 49.2786 33.6900 53.5701 0.0000 0.0000 0.0000
# 4 0.0000 0.0000 0.0000 12.4271 0.0000 0.0000
# 5 0.0000 0.0000 0.0000 0.0000 16.4880 0.0000
# 6 0.0000 0.0000 0.0000 0.0000 0.0000 18.1552
#
#
#
# Elastic Compliance Matrix: (Units=1/GPa)
#
#
# Indices 1 2 3 4 5 6 
#
# 1 0.010422 -0.001819 -0.008443 0.000000 0.000000 0.000000
# 2 -0.001819 0.017347 -0.009236 0.000000 0.000000 0.000000
# 3 -0.008443 -0.009236 0.032243 0.000000 0.000000 0.000000
# 4 0.000000 0.000000 0.000000 0.080469 0.000000 0.000000
# 5 0.000000 0.000000 0.000000 0.000000 0.060650 0.000000
# 6 0.000000 0.000000 0.000000 0.000000 0.000000 0.055081
#
#
# Mechanical properties :
#
#
# Convention : Reuss Voigt Hill
#
# Bulk Modulus (GPa) = 47.58533 58.32949 52.95741
# Shear Modulus (GPa) = 16.54455 19.56984 18.05719
#
# Velocity S-wave (km/s) = 3.14713 3.42279 3.28785
# Velocity P-wave (km/s) = 6.45701 7.10913 6.79090
#
# Compressibility (1/GPa) = 0.02101488
#
# Stress axis : x y z
#
# Youngs Moduli (GPa) = 95.94710 57.64647 31.01486
#
# Poissons Ratio (x) = 0.10487 0.26187
# Poissons Ratio (y) = 0.17455 0.28645
# Poissons Ratio (z) = 0.81012 0.53242
#
# Static dielectric constant tensor:
#      x y z
#    x 3.566780 0.000000 0.000000 
#    y 0.000000 2.987180 0.000000 
#    z 0.000000 0.000000 3.008750 
# 
# 
# High freq. dielectric constant tensor:
#      x y z
#    x 1.661150 0.000000 0.000000 
#    y 0.000000 1.617900 0.000000 
#    z 0.000000 0.000000 1.615980 
# 
# From -- ./inp_files/27683.got.cif
#   From: 2010.03.12/outbox.cif.g09.slc.cpg/sg69_14_cif.got.tgz:27683.got - 2010.04.10 23:52:46.
