data_PCOD8283778
_publ_section_title
;
Structure prediction by ZEFSAII (Michael W. Deem and Ramdas Pophale) SiO2 
 PCOD8283778
Probable space group: F M M M
;
_chemical_formula_sum "Si O2"
_cell_formula_units_Z 160
_cell_length_a 25.508141
_cell_length_b 18.041689
_cell_length_c 19.493083
_cell_angle_alpha 90.000000
_cell_angle_beta 90.000000
_cell_angle_gamma 90.000000
_cell_volume 8970.910692
_symmetry_space_group_name_H-M "F M M M"
_symmetry_group_IT_number 69
_symmetry_cell_setting 'orthorhombic'
loop_
_space_group_symop_operation_xyz
x,y,z
-x,-y,z
x,-y,-z
-x,y,-z
-x,-y,-z
x,y,-z
-x,y,z
x,-y,z
x,1/2+y,1/2+z
-x,1/2-y,1/2+z
x,1/2-y,1/2-z
-x,1/2+y,1/2-z
-x,1/2-y,1/2-z
x,1/2+y,1/2-z
-x,1/2+y,1/2+z
x,1/2-y,1/2+z
1/2+x,y,1/2+z
1/2-x,-y,1/2+z
1/2+x,-y,1/2-z
1/2-x,y,1/2-z
1/2-x,-y,1/2-z
1/2+x,y,1/2-z
1/2-x,y,1/2+z
1/2+x,-y,1/2+z
1/2+x,1/2+y,z
1/2-x,1/2-y,z
1/2+x,1/2-y,-z
1/2-x,1/2+y,-z
1/2-x,1/2-y,-z
1/2+x,1/2+y,-z
1/2-x,1/2+y,z
1/2+x,1/2-y,z
loop_
_atom_site_type_symbol
_atom_site_label
_atom_site_fract_x
_atom_site_fract_y
_atom_site_fract_z
Si Si1 0.112007 0.177717 0.831730
Si Si2 0.500000 0.821905 0.302319
Si Si3 0.388581 0.346934 0.674191
Si Si4 0.194795 0.587069 0.075548
Si Si5 0.000000 0.087938 0.322782
Si Si6 0.310398 0.083448 0.419704
O O1 0.050386 0.177181 0.851011
O O2 0.127766 0.262876 0.840361
O O3 0.118072 0.142708 0.755821
O O4 0.145471 0.131836 0.884402
O O5 0.500000 0.750000 0.250000
O O6 0.500000 0.897918 0.258534
O O7 0.347112 0.396139 0.633744
O O8 0.446877 0.372133 0.648453
O O9 0.200939 0.500000 0.068364
O O10 0.252618 0.617129 0.096555
O O11 0.178404 0.618906 0.000000
O O12 0.000000 0.000000 0.339517
O O13 0.321267 0.085674 0.500000
O O14 0.315350 0.000000 0.391357
#
# Coordination Sequence:
#
# PCOD8283778 Si02
#       6
#    32  16  32  32  16  32
#     4  10  19  33  56  77 106 143 171 216 273 316
#     4  10  16  36  53  74 112 142 166 210 265 318
#     4  10  19  33  52  80 109 137 175 223 264 325
#     4   9  19  36  54  72 103 144 179 222 276 320
#     4  10  18  30  53  80 106 139 176 214 258 315
#     4   9  20  38  55  74 104 141 183 227 270 319
#
# _framework density 17.835424
#
# number of rings (size 3 to 8) (size 9 to 14) (size 15 to 20)
#    0.000    2.400    4.000    1.800    0.000    6.400 
#    0.000    7.000    0.000    5.400    0.000    0.000 
#    0.000    0.000    0.000    0.000    0.000    0.000 
#
# Total GULP energy -495557.509532 kJ/mol
# GULP energy per Si atom -12388.937738 kJ/mol
# Density = 1.779483 g / cm^3
# Si number density = 17.835424 Si / 1000 Ang^3
#
#
#
# Elastic Constant Matrix: (Units=GPa)
#
#
# Indices 1 2 3 4 5 6 
#
# 1 138.7380 38.7735 49.6311 0.0000 0.0000 0.0000
# 2 38.7735 60.4786 26.8695 0.0000 0.0000 0.0000
# 3 49.6311 26.8695 43.6944 0.0000 0.0000 0.0000
# 4 0.0000 0.0000 0.0000 28.1800 0.0000 0.0000
# 5 0.0000 0.0000 0.0000 0.0000 -92.7347 0.0000
# 6 0.0000 0.0000 0.0000 0.0000 0.0000 28.9077
#
#
#
# Elastic Compliance Matrix: (Units=1/GPa)
#
#
# Indices 1 2 3 4 5 6 
#
# 1 0.012374 -0.002323 -0.012627 0.000000 0.000000 0.000000
# 2 -0.002323 0.023187 -0.011619 0.000000 0.000000 0.000000
# 3 -0.012627 -0.011619 0.044373 0.000000 0.000000 0.000000
# 4 0.000000 0.000000 0.000000 0.035486 0.000000 0.000000
# 5 0.000000 0.000000 0.000000 0.000000 -0.010783 0.000000
# 6 0.000000 0.000000 0.000000 0.000000 0.000000 0.034593
#
#
# Mechanical properties :
#
#
# Convention : Reuss Voigt Hill
#
# Bulk Modulus (GPa) = 37.31951 52.60656 44.96303
# Shear Modulus (GPa) = 24.83855 1.37974 13.10915
#
# Velocity S-wave (km/s) = 3.73587 0.88050 2.71404
# Velocity P-wave (km/s) = 6.29117 5.53112 5.92335
#
# Compressibility (1/GPa) = 0.02679564
#
# Stress axis : x y z
#
# Youngs Moduli (GPa) = 80.81397 43.12841 22.53600
#
# Poissons Ratio (x) = 0.10021 0.28455
# Poissons Ratio (y) = 0.18777 0.26185
# Poissons Ratio (z) = 1.02040 0.50112
#
# Static dielectric constant tensor:
#      x y z
#    x 3.522060 0.000000 0.000000 
#    y 0.000000 3.256060 0.000000 
#    z 0.000000 0.000000 3.014090 
# 
# 
# High freq. dielectric constant tensor:
#      x y z
#    x 1.704680 0.000000 0.000000 
#    y 0.000000 1.687110 0.000000 
#    z 0.000000 0.000000 1.656890 
# 
# From -- ./inp_files/32649.got.cif
#   From: 2010.03.12/outbox.cif.g09.slc.cpg/sg69_17_cif.got.tgz:32649.got - 2010.04.10 23:52:46.
