data_PCOD8283736
_publ_section_title
;
Structure prediction by ZEFSAII (Michael W. Deem and Ramdas Pophale) SiO2 
 PCOD8283736
Probable space group: C C C A
;
_chemical_formula_sum "Si O2"
_cell_formula_units_Z 40
_cell_length_a 14.371146
_cell_length_b 9.536855
_cell_length_c 10.813249
_cell_angle_alpha 90.000000
_cell_angle_beta 90.000000
_cell_angle_gamma 90.000000
_cell_volume 1482.015633
_symmetry_space_group_name_H-M "C C C A"
_symmetry_group_IT_number 68
_space_group.IT_coordinate_system_code '2'
_symmetry_cell_setting 'orthorhombic'
loop_
_space_group_symop_operation_xyz
x,y,z
-x,1/2-y,z
x,1/2-y,1/2-z
-x,y,1/2-z
-x,-y,-z
x,1/2+y,-z
-x,1/2+y,1/2+z
x,-y,1/2+z
1/2+x,1/2+y,z
1/2-x,-y,z
1/2+x,-y,1/2-z
1/2-x,1/2+y,1/2-z
1/2-x,1/2-y,-z
1/2+x,y,-z
1/2-x,y,1/2+z
1/2+x,1/2-y,1/2+z
loop_
_atom_site_type_symbol
_atom_site_label
_atom_site_fract_x
_atom_site_fract_y
_atom_site_fract_z
Si Si1 0.587835 0.095196 0.658240
Si Si2 0.595512 0.707444 0.933233
Si Si3 0.752121 0.250000 0.250000
O O1 0.500000 0.089337 0.750000
O O2 0.587801 0.235619 0.573238
O O3 0.682685 0.111552 0.737725
O O4 0.597059 0.961710 0.568605
O O5 0.500000 0.750000 0.862598
O O6 0.685311 0.774155 0.867934
#
# Coordination Sequence:
#
# PCOD8283736 Si02
#       3
#    16  16   8
#     4  12  28  52  79 115 161 211 267 330 398 478
#     4  12  27  49  80 114 158 213 267 327 399 473
#     4  12  26  46  76 118 160 206 262 324 390 474
#
# _framework density 26.990265999999998
#
# number of rings (size 3 to 8) (size 9 to 14) (size 15 to 20)
#    0.000    0.000    0.000    9.600    0.000    6.400 
#    0.000    6.000    0.000    0.000    0.000    0.000 
#    0.000    0.000    0.000    0.000    0.000    0.000 
#
# Total GULP energy -247817.454463 kJ/mol
# GULP energy per Si atom -12390.872723 kJ/mol
# Density = 2.692883 g / cm^3
# Si number density = 26.990266 Si / 1000 Ang^3
#
#
#
# Elastic Constant Matrix: (Units=GPa)
#
#
# Indices 1 2 3 4 5 6 
#
# 1 247.6431 57.4562 61.0299 0.0000 0.0000 0.0000
# 2 57.4562 192.3401 76.9462 0.0000 0.0000 0.0000
# 3 61.0299 76.9462 126.7099 0.0000 0.0000 0.0000
# 4 0.0000 0.0000 0.0000 45.7971 0.0000 0.0000
# 5 0.0000 0.0000 0.0000 0.0000 33.6368 0.0000
# 6 0.0000 0.0000 0.0000 0.0000 0.0000 38.4885
#
#
#
# Elastic Compliance Matrix: (Units=1/GPa)
#
#
# Indices 1 2 3 4 5 6 
#
# 1 0.004643 -0.000650 -0.001841 0.000000 0.000000 0.000000
# 2 -0.000650 0.006959 -0.003912 0.000000 0.000000 0.000000
# 3 -0.001841 -0.003912 0.011155 0.000000 0.000000 0.000000
# 4 0.000000 0.000000 0.000000 0.021835 0.000000 0.000000
# 5 0.000000 0.000000 0.000000 0.000000 0.029729 0.000000
# 6 0.000000 0.000000 0.000000 0.000000 0.000000 0.025982
#
#
# Mechanical properties :
#
#
# Convention : Reuss Voigt Hill
#
# Bulk Modulus (GPa) = 100.52246 106.39530 103.45888
# Shear Modulus (GPa) = 42.94545 48.33518 45.64032
#
# Velocity S-wave (km/s) = 3.99324 4.23642 4.11663
# Velocity P-wave (km/s) = 7.65416 7.96462 7.81093
#
# Compressibility (1/GPa) = 0.00994803
#
# Stress axis : x y z
#
# Youngs Moduli (GPa) = 215.39137 143.70763 89.64750
#
# Poissons Ratio (x) = 0.09345 0.16507
# Poissons Ratio (y) = 0.14006 0.35074
# Poissons Ratio (z) = 0.39660 0.56225
#
# Static dielectric constant tensor:
#      x y z
#    x 5.929860 0.000000 0.000000 
#    y 0.000000 4.907930 0.000000 
#    z 0.000000 0.000000 4.680460 
# 
# 
# High freq. dielectric constant tensor:
#      x y z
#    x 2.126760 0.000000 0.000000 
#    y 0.000000 2.076250 0.000000 
#    z 0.000000 0.000000 2.083660 
# 
# From -- ./inp_files/12260.got.cif
#   From: 2010.03.12/outbox.cif.g09.slc.cpg/sg68_7_cif.got.tgz:12260.got - 2010.04.10 23:14:56.
