data_PCOD8283556
_publ_section_title
;
Structure prediction by ZEFSAII (Michael W. Deem and Ramdas Pophale) SiO2 
 PCOD8283556
Probable space group: C C C A
;
_chemical_formula_sum "Si O2"
_cell_formula_units_Z 64
_cell_length_a 9.457513
_cell_length_b 32.468427
_cell_length_c 10.135725
_cell_angle_alpha 90.000000
_cell_angle_beta 90.000000
_cell_angle_gamma 90.000000
_cell_volume 3112.382858
_symmetry_space_group_name_H-M "C C C A"
_symmetry_group_IT_number 68
_space_group.IT_coordinate_system_code '2'
_symmetry_cell_setting 'orthorhombic'
loop_
_space_group_symop_operation_xyz
x,y,z
-x,1/2-y,z
x,1/2-y,1/2-z
-x,y,1/2-z
-x,-y,-z
x,1/2+y,-z
-x,1/2+y,1/2+z
x,-y,1/2+z
1/2+x,1/2+y,z
1/2-x,-y,z
1/2+x,-y,1/2-z
1/2-x,1/2+y,1/2-z
1/2-x,1/2-y,-z
1/2+x,y,-z
1/2-x,y,1/2+z
1/2+x,1/2-y,1/2+z
loop_
_atom_site_type_symbol
_atom_site_label
_atom_site_fract_x
_atom_site_fract_y
_atom_site_fract_z
Si Si1 0.241554 0.844488 0.026493
Si Si2 0.835083 0.796383 0.727084
Si Si3 0.412586 0.983770 0.877994
Si Si4 0.486209 0.889875 0.896733
O O1 0.192248 0.810086 0.922792
O O2 0.393033 0.860142 0.984416
O O3 0.249702 0.824974 0.171503
O O4 0.139462 0.884944 0.034059
O O5 0.781518 0.750000 0.750000
O O6 0.000000 0.800184 0.750000
O O7 0.500000 0.998785 0.750000
O O8 0.416567 0.934759 0.890516
O O9 0.250000 0.000000 0.873851
O O10 0.500000 0.000000 0.000000
O O11 0.500000 0.872220 0.750000
#
# Coordination Sequence:
#
# PCOD8283556 Si02
#       4
#    16  16  16  16
#     4  12  22  43  64  95 130 172 217 268 322 382
#     4  11  24  41  64  96 132 172 219 271 325 384
#     4  11  24  45  68 100 134 174 221 273 335 405
#     4  11  24  41  66  95 132 165 214 266 325 389
#
# _framework density 20.563023999999999
#
# number of rings (size 3 to 8) (size 9 to 14) (size 15 to 20)
#    0.000    0.750    5.000    3.000    0.000    2.000 
#    4.500    1.250    0.000    0.000    0.000    0.000 
#    0.000    0.000    0.000    0.000    0.000    0.000 
#
# Total GULP energy -396679.378986 kJ/mol
# GULP energy per Si atom -12396.230593 kJ/mol
# Density = 2.051622 g / cm^3
# Si number density = 20.563024 Si / 1000 Ang^3
#
#
#
# Elastic Constant Matrix: (Units=GPa)
#
#
# Indices 1 2 3 4 5 6 
#
# 1 129.7194 51.6015 45.2188 0.0000 0.0000 0.0000
# 2 51.6015 92.8013 34.5757 0.0000 0.0000 0.0000
# 3 45.2188 34.5757 116.3254 0.0000 0.0000 0.0000
# 4 0.0000 0.0000 0.0000 33.4658 0.0000 0.0000
# 5 0.0000 0.0000 0.0000 0.0000 34.3008 0.0000
# 6 0.0000 0.0000 0.0000 0.0000 0.0000 28.7538
#
#
#
# Elastic Compliance Matrix: (Units=1/GPa)
#
#
# Indices 1 2 3 4 5 6 
#
# 1 0.010583 -0.004894 -0.002659 0.000000 0.000000 0.000000
# 2 -0.004894 0.014381 -0.002372 0.000000 0.000000 0.000000
# 3 -0.002659 -0.002372 0.010335 0.000000 0.000000 0.000000
# 4 0.000000 0.000000 0.000000 0.029881 0.000000 0.000000
# 5 0.000000 0.000000 0.000000 0.000000 0.029154 0.000000
# 6 0.000000 0.000000 0.000000 0.000000 0.000000 0.034778
#
#
# Mechanical properties :
#
#
# Convention : Reuss Voigt Hill
#
# Bulk Modulus (GPa) = 64.73046 66.84869 65.78958
# Shear Modulus (GPa) = 32.44417 33.13409 32.78913
#
# Velocity S-wave (km/s) = 3.97645 4.01851 3.99754
# Velocity P-wave (km/s) = 7.25467 7.35602 7.30552
#
# Compressibility (1/GPa) = 0.01544868
#
# Stress axis : x y z
#
# Youngs Moduli (GPa) = 94.49518 69.53827 96.75549
#
# Poissons Ratio (x) = 0.34029 0.25729
# Poissons Ratio (y) = 0.46242 0.22951
# Poissons Ratio (z) = 0.25128 0.16495
#
# Static dielectric constant tensor:
#      x y z
#    x 3.874510 0.000000 0.000000 
#    y 0.000000 3.113560 0.000000 
#    z 0.000000 0.000000 3.825430 
# 
# 
# High freq. dielectric constant tensor:
#      x y z
#    x 1.817700 0.000000 0.000000 
#    y 0.000000 1.799650 0.000000 
#    z 0.000000 0.000000 1.821000 
# 
# From -- ./inp_files/10740.got.cif
#   From: 2010.03.12/outbox.cif.g09.slc.cpg/sg68_6_cif.got.tgz:10740.got - 2010.04.10 23:14:56.
