data_PCOD8283080
_publ_section_title
;
Structure prediction by ZEFSAII (Michael W. Deem and Ramdas Pophale) SiO2 
 PCOD8283080
Probable space group: C C C A
;
_chemical_formula_sum "Si O2"
_cell_formula_units_Z 104
_cell_length_a 20.488847
_cell_length_b 15.896181
_cell_length_c 15.925345
_cell_angle_alpha 90.000000
_cell_angle_beta 90.000000
_cell_angle_gamma 90.000000
_cell_volume 5186.796009
_symmetry_space_group_name_H-M "C C C A"
_symmetry_group_IT_number 68
_space_group.IT_coordinate_system_code '2'
_symmetry_cell_setting 'orthorhombic'
loop_
_space_group_symop_operation_xyz
x,y,z
-x,1/2-y,z
x,1/2-y,1/2-z
-x,y,1/2-z
-x,-y,-z
x,1/2+y,-z
-x,1/2+y,1/2+z
x,-y,1/2+z
1/2+x,1/2+y,z
1/2-x,-y,z
1/2+x,-y,1/2-z
1/2-x,1/2+y,1/2-z
1/2-x,1/2-y,-z
1/2+x,y,-z
1/2-x,y,1/2+z
1/2+x,1/2-y,1/2+z
loop_
_atom_site_type_symbol
_atom_site_label
_atom_site_fract_x
_atom_site_fract_y
_atom_site_fract_z
Si Si1 0.966111 0.095258 0.925661
Si Si2 0.859017 0.827769 0.306008
Si Si3 0.077261 0.970125 0.903431
Si Si4 0.000000 0.750000 0.972303
Si Si5 0.749366 0.231899 0.597503
Si Si6 0.305131 0.064963 0.336190
Si Si7 0.896147 0.288826 0.340471
O O1 0.918683 0.139568 0.860411
O O2 0.923536 0.052187 0.998285
O O3 0.013100 0.026412 0.880691
O O4 0.008289 0.168236 0.969629
O O5 0.884686 0.750000 0.250000
O O6 0.795916 0.800236 0.359034
O O7 0.837612 0.905596 0.249786
O O8 0.084401 0.888085 0.843303
O O9 0.141548 0.024228 0.895572
O O10 0.936395 0.755484 0.914147
O O11 0.750000 0.250000 0.500000
O O12 0.776380 0.139219 0.608739
O O13 0.678714 0.233430 0.640660
O O14 0.250000 0.000000 0.309643
O O15 0.915097 0.250000 0.250000
#
# Coordination Sequence:
#
# PCOD8283080 Si02
#       7
#    16  16  16   8  16  16  16
#     4  10  23  46  63  96 131 173 225 265 329 399
#     4  10  24  44  67  99 129 173 222 272 333 395
#     4  10  23  43  65  93 134 172 216 276 324 396
#     4  10  23  40  69  92 132 172 224 266 325 404
#     4  11  23  42  70  94 129 173 224 268 330 403
#     4  11  23  43  63  98 135 166 214 276 334 386
#     4  11  22  43  66  97 131 174 221 271 333 395
#
# _framework density 20.050915
#
# number of rings (size 3 to 8) (size 9 to 14) (size 15 to 20)
#    0.000    1.538    1.538    3.462    6.462    0.615 
#   16.615    0.000    0.000    0.000    0.000    0.000 
#    0.000    0.000    0.000    0.000    0.000    0.000 
#
# Total GULP energy -644781.375016 kJ/mol
# GULP energy per Si atom -12399.641827 kJ/mol
# Density = 2.000528 g / cm^3
# Si number density = 20.050915 Si / 1000 Ang^3
#
#
#
# Elastic Constant Matrix: (Units=GPa)
#
#
# Indices 1 2 3 4 5 6 
#
# 1 134.8343 69.8582 57.6238 0.0000 0.0000 0.0000
# 2 69.8582 113.1606 64.1830 0.0000 0.0000 0.0000
# 3 57.6238 64.1830 104.5254 0.0000 0.0000 0.0000
# 4 0.0000 0.0000 0.0000 32.8028 0.0000 0.0000
# 5 0.0000 0.0000 0.0000 0.0000 33.1374 0.0000
# 6 0.0000 0.0000 0.0000 0.0000 0.0000 38.8851
#
#
#
# Elastic Compliance Matrix: (Units=1/GPa)
#
#
# Indices 1 2 3 4 5 6 
#
# 1 0.011501 -0.005376 -0.003039 0.000000 0.000000 0.000000
# 2 -0.005376 0.016072 -0.006905 0.000000 0.000000 0.000000
# 3 -0.003039 -0.006905 0.015483 0.000000 0.000000 0.000000
# 4 0.000000 0.000000 0.000000 0.030485 0.000000 0.000000
# 5 0.000000 0.000000 0.000000 0.000000 0.030177 0.000000
# 6 0.000000 0.000000 0.000000 0.000000 0.000000 0.025717
#
#
# Mechanical properties :
#
#
# Convention : Reuss Voigt Hill
#
# Bulk Modulus (GPa) = 80.54948 81.76114 81.15531
# Shear Modulus (GPa) = 30.44797 31.68876 31.06836
#
# Velocity S-wave (km/s) = 3.90106 3.97976 3.94061
# Velocity P-wave (km/s) = 7.78144 7.87294 7.82732
#
# Compressibility (1/GPa) = 0.01241473
#
# Stress axis : x y z
#
# Youngs Moduli (GPa) = 86.95137 62.21809 64.58829
#
# Poissons Ratio (x) = 0.33449 0.19629
# Poissons Ratio (y) = 0.46746 0.44601
# Poissons Ratio (z) = 0.26425 0.42964
#
# Static dielectric constant tensor:
#      x y z
#    x 3.775270 0.000000 0.000000 
#    y 0.000000 3.865790 0.000000 
#    z 0.000000 0.000000 3.605160 
# 
# 
# High freq. dielectric constant tensor:
#      x y z
#    x 1.792760 0.000000 0.000000 
#    y 0.000000 1.795590 0.000000 
#    z 0.000000 0.000000 1.782480 
# 
# From -- ./inp_files/24628.got.cif
#   From: 2010.03.12/outbox.cif.g09.slc.cpg/sg68_13_cif.got.tgz:24628.got - 2010.04.10 23:14:56.
