data_PCOD8283677
_publ_section_title
;
Structure prediction by ZEFSAII (Michael W. Deem and Ramdas Pophale) SiO2 
 PCOD8283677
Probable space group: C C C A
;
_chemical_formula_sum "Si O2"
_cell_formula_units_Z 92
_cell_length_a 8.534146
_cell_length_b 20.639896
_cell_length_c 24.392416
_cell_angle_alpha 90.000000
_cell_angle_beta 90.000000
_cell_angle_gamma 90.000000
_cell_volume 4296.574940
_symmetry_space_group_name_H-M "C C C A"
_symmetry_group_IT_number 68
_space_group.IT_coordinate_system_code '2'
_symmetry_cell_setting 'orthorhombic'
loop_
_space_group_symop_operation_xyz
x,y,z
-x,1/2-y,z
x,1/2-y,1/2-z
-x,y,1/2-z
-x,-y,-z
x,1/2+y,-z
-x,1/2+y,1/2+z
x,-y,1/2+z
1/2+x,1/2+y,z
1/2-x,-y,z
1/2+x,-y,1/2-z
1/2-x,1/2+y,1/2-z
1/2-x,1/2-y,-z
1/2+x,y,-z
1/2-x,y,1/2+z
1/2+x,1/2-y,1/2+z
loop_
_atom_site_type_symbol
_atom_site_label
_atom_site_fract_x
_atom_site_fract_y
_atom_site_fract_z
Si Si1 0.436336 0.489312 0.806922
Si Si2 0.115717 0.919349 0.388384
Si Si3 0.000000 0.750000 0.750000
Si Si4 0.944688 0.818861 0.944013
Si Si5 0.750000 0.500000 0.986670
Si Si6 0.121913 0.880099 0.036559
Si Si7 0.083992 0.355832 0.167814
O O1 0.500000 0.518869 0.750000
O O2 0.250000 0.500000 0.813347
O O3 0.536127 0.524234 0.853505
O O4 0.477332 0.413323 0.808012
O O5 0.162900 0.950323 0.446583
O O6 0.249367 0.882913 0.353784
O O7 0.986593 0.867718 0.409451
O O8 0.107893 0.798265 0.787301
O O9 0.762406 0.830145 0.954540
O O10 0.000000 0.750000 0.966774
O O11 0.983368 0.825006 0.880475
O O12 0.041287 0.870546 0.978052
O O13 0.840418 0.543598 0.031410
#
# Coordination Sequence:
#
# PCOD8283677 Si02
#       7
#    16  16   4  16   8  16  16
#     4  12  25  43  73 104 135 177 233 299 365 418
#     4  12  24  43  72 106 146 181 232 295 358 429
#     4  12  28  48  80  90 136 196 238 290 354 408
#     4  12  24  43  67  94 138 190 240 279 345 414
#     4  12  22  38  70 104 148 184 216 280 368 438
#     4  12  25  41  67 106 145 187 229 288 354 429
#     4  12  24  47  70 101 135 184 237 291 353 421
#
# _framework density 21.412405
#
# number of rings (size 3 to 8) (size 9 to 14) (size 15 to 20)
#    0.000    0.000    6.957    3.130    3.652    0.000 
#    0.000    0.000    0.000    4.174    0.000    0.000 
#    0.000    0.000    0.000    0.000    0.000    0.000 
#
# Total GULP energy -570065.420038 kJ/mol
# GULP energy per Si atom -12392.726523 kJ/mol
# Density = 2.136367 g / cm^3
# Si number density = 21.412405 Si / 1000 Ang^3
#
#
#
# Elastic Constant Matrix: (Units=GPa)
#
#
# Indices 1 2 3 4 5 6 
#
# 1 140.6886 57.8868 41.8210 0.0000 0.0000 0.0000
# 2 57.8868 108.2530 39.4693 0.0000 0.0000 0.0000
# 3 41.8210 39.4693 102.3009 0.0000 0.0000 0.0000
# 4 0.0000 0.0000 0.0000 17.7561 0.0000 0.0000
# 5 0.0000 0.0000 0.0000 0.0000 20.5829 0.0000
# 6 0.0000 0.0000 0.0000 0.0000 0.0000 16.5772
#
#
#
# Elastic Compliance Matrix: (Units=1/GPa)
#
#
# Indices 1 2 3 4 5 6 
#
# 1 0.009537 -0.004280 -0.002247 0.000000 0.000000 0.000000
# 2 -0.004280 0.012671 -0.003139 0.000000 0.000000 0.000000
# 3 -0.002247 -0.003139 0.011905 0.000000 0.000000 0.000000
# 4 0.000000 0.000000 0.000000 0.056319 0.000000 0.000000
# 5 0.000000 0.000000 0.000000 0.000000 0.048584 0.000000
# 6 0.000000 0.000000 0.000000 0.000000 0.000000 0.060324
#
#
# Mechanical properties :
#
#
# Convention : Reuss Voigt Hill
#
# Bulk Modulus (GPa) = 67.66037 69.95519 68.80778
# Shear Modulus (GPa) = 22.36145 25.12094 23.74119
#
# Velocity S-wave (km/s) = 3.23510 3.42891 3.33342
# Velocity P-wave (km/s) = 6.75439 6.95830 6.85710
#
# Compressibility (1/GPa) = 0.01477970
#
# Stress axis : x y z
#
# Youngs Moduli (GPa) = 104.85297 78.92061 83.99970
#
# Poissons Ratio (x) = 0.33782 0.18878
# Poissons Ratio (y) = 0.44882 0.26366
# Poissons Ratio (z) = 0.23564 0.24771
#
# Static dielectric constant tensor:
#      x y z
#    x 4.022830 0.000000 0.000000 
#    y 0.000000 3.964420 0.000000 
#    z 0.000000 0.000000 3.979870 
# 
# 
# High freq. dielectric constant tensor:
#      x y z
#    x 1.840870 0.000000 0.000000 
#    y 0.000000 1.837640 0.000000 
#    z 0.000000 0.000000 1.854870 
# 
# From -- ./inp_files/43189.got.cif
#   From: 2010.03.12/outbox.cif.g09.slc.cpg/sg68_22_cif.got.tgz:43189.got - 2010.04.10 23:14:56.
