data_PCOD8283600
_publ_section_title
;
Structure prediction by ZEFSAII (Michael W. Deem and Ramdas Pophale) SiO2 
 PCOD8283600
Probable space group: C C C A
;
_chemical_formula_sum "Si O2"
_cell_formula_units_Z 48
_cell_length_a 25.333713
_cell_length_b 8.617814
_cell_length_c 9.659997
_cell_angle_alpha 90.000000
_cell_angle_beta 90.000000
_cell_angle_gamma 90.000000
_cell_volume 2108.982394
_symmetry_space_group_name_H-M "C C C A"
_symmetry_group_IT_number 68
_space_group.IT_coordinate_system_code '2'
_symmetry_cell_setting 'orthorhombic'
loop_
_space_group_symop_operation_xyz
x,y,z
-x,1/2-y,z
x,1/2-y,1/2-z
-x,y,1/2-z
-x,-y,-z
x,1/2+y,-z
-x,1/2+y,1/2+z
x,-y,1/2+z
1/2+x,1/2+y,z
1/2-x,-y,z
1/2+x,-y,1/2-z
1/2-x,1/2+y,1/2-z
1/2-x,1/2-y,-z
1/2+x,y,-z
1/2-x,y,1/2+z
1/2+x,1/2-y,1/2+z
loop_
_atom_site_type_symbol
_atom_site_label
_atom_site_fract_x
_atom_site_fract_y
_atom_site_fract_z
Si Si1 0.558240 0.541432 0.812539
Si Si2 0.100306 0.854629 0.052206
Si Si3 0.217919 0.655780 0.390569
O O1 0.500000 0.555875 0.750000
O O2 0.575982 0.692375 0.898576
O O3 0.593772 0.519972 0.676116
O O4 0.567419 0.396460 0.913881
O O5 0.162730 0.863211 0.027505
O O6 0.207740 0.750000 0.250000
O O7 0.250000 0.500000 0.354725
O O8 0.250000 0.750000 0.500000
#
# Coordination Sequence:
#
# PCOD8283600 Si02
#       3
#    16  16  16
#     4  11  24  45  72 100 140 183 234 294 352 427
#     4  11  24  46  68 104 142 181 238 295 355 426
#     4  12  26  45  73 106 148 190 241 298 364 433
#
# _framework density 22.759791
#
# number of rings (size 3 to 8) (size 9 to 14) (size 15 to 20)
#    0.000    0.667    3.333    6.000    4.667    1.333 
#    0.000    3.333    0.000    0.000    0.000    0.000 
#    0.000    0.000    0.000    0.000    0.000    0.000 
#
# Total GULP energy -297431.174084 kJ/mol
# GULP energy per Si atom -12392.965587 kJ/mol
# Density = 2.270799 g / cm^3
# Si number density = 22.759791 Si / 1000 Ang^3
#
#
#
# Elastic Constant Matrix: (Units=GPa)
#
#
# Indices 1 2 3 4 5 6 
#
# 1 191.5770 57.4761 49.6208 0.0000 0.0000 0.0000
# 2 57.4761 62.7962 19.7044 0.0000 0.0000 0.0000
# 3 49.6208 19.7044 112.1095 0.0000 0.0000 0.0000
# 4 0.0000 0.0000 0.0000 33.4557 0.0000 0.0000
# 5 0.0000 0.0000 0.0000 0.0000 38.1082 0.0000
# 6 0.0000 0.0000 0.0000 0.0000 0.0000 29.9779
#
#
#
# Elastic Compliance Matrix: (Units=1/GPa)
#
#
# Indices 1 2 3 4 5 6 
#
# 1 0.007719 -0.006343 -0.002302 0.000000 0.000000 0.000000
# 2 -0.006343 0.022066 -0.001071 0.000000 0.000000 0.000000
# 3 -0.002302 -0.001071 0.010127 0.000000 0.000000 0.000000
# 4 0.000000 0.000000 0.000000 0.029890 0.000000 0.000000
# 5 0.000000 0.000000 0.000000 0.000000 0.026241 0.000000
# 6 0.000000 0.000000 0.000000 0.000000 0.000000 0.033358
#
#
# Mechanical properties :
#
#
# Convention : Reuss Voigt Hill
#
# Bulk Modulus (GPa) = 48.82585 68.89837 58.86211
# Shear Modulus (GPa) = 32.12155 36.28710 34.20432
#
# Velocity S-wave (km/s) = 3.76084 3.99726 3.88085
# Velocity P-wave (km/s) = 6.35278 7.18623 6.78232
#
# Compressibility (1/GPa) = 0.02048095
#
# Stress axis : x y z
#
# Youngs Moduli (GPa) = 129.55190 45.31869 98.74760
#
# Poissons Ratio (x) = 0.28744 0.22728
# Poissons Ratio (y) = 0.82171 0.10576
# Poissons Ratio (z) = 0.29819 0.04853
#
# Static dielectric constant tensor:
#      x y z
#    x 3.669730 0.000000 0.000000 
#    y 0.000000 3.924420 0.000000 
#    z 0.000000 0.000000 4.462640 
# 
# 
# High freq. dielectric constant tensor:
#      x y z
#    x 1.918720 0.000000 0.000000 
#    y 0.000000 1.884420 0.000000 
#    z 0.000000 0.000000 1.917130 
# 
# From -- ./inp_files/3311.got.cif
#   From: 2010.03.12/outbox.cif.g09.slc.cpg/sg68_2_cif.got.tgz:3311.got - 2010.04.10 23:14:56.
