data_PCOD8283021
_publ_section_title
;
Structure prediction by ZEFSAII (Michael W. Deem and Ramdas Pophale) SiO2 
 PCOD8283021
Probable space group: C C C A
;
_chemical_formula_sum "Si O2"
_cell_formula_units_Z 88
_cell_length_a 17.091442
_cell_length_b 26.854104
_cell_length_c 9.460614
_cell_angle_alpha 90.000000
_cell_angle_beta 90.000000
_cell_angle_gamma 90.000000
_cell_volume 4342.188726
_symmetry_space_group_name_H-M "C C C A"
_symmetry_group_IT_number 68
_space_group.IT_coordinate_system_code '2'
_symmetry_cell_setting 'orthorhombic'
loop_
_space_group_symop_operation_xyz
x,y,z
-x,1/2-y,z
x,1/2-y,1/2-z
-x,y,1/2-z
-x,-y,-z
x,1/2+y,-z
-x,1/2+y,1/2+z
x,-y,1/2+z
1/2+x,1/2+y,z
1/2-x,-y,z
1/2+x,-y,1/2-z
1/2-x,1/2+y,1/2-z
1/2-x,1/2-y,-z
1/2+x,y,-z
1/2-x,y,1/2+z
1/2+x,1/2-y,1/2+z
loop_
_atom_site_type_symbol
_atom_site_label
_atom_site_fract_x
_atom_site_fract_y
_atom_site_fract_z
Si Si1 0.301550 0.434215 0.554351
Si Si2 0.049907 0.376395 0.127163
Si Si3 0.250000 0.000000 0.196185
Si Si4 0.530136 0.306010 0.405939
Si Si5 0.169625 0.195323 0.262191
Si Si6 0.705984 0.336654 0.465399
O O1 0.386929 0.410113 0.548144
O O2 0.300410 0.465749 0.409784
O O3 0.302212 0.466677 0.698224
O O4 0.228247 0.395133 0.562427
O O5 0.092039 0.335831 0.222686
O O6 0.000000 0.405383 0.250000
O O7 0.000540 0.349011 0.007790
O O8 0.500000 0.250000 0.449521
O O9 0.500000 0.317562 0.250000
O O10 0.623722 0.314925 0.408120
O O11 0.136319 0.250000 0.250000
O O12 0.227073 0.196024 0.394460
O O13 0.216892 0.173289 0.130356
#
# Coordination Sequence:
#
# PCOD8283021 Si02
#       6
#    16  16   8  16  16  16
#     4  10  23  42  71  93 123 160 214 263 338 384
#     4  11  23  41  63  92 130 169 211 259 320 382
#     4  10  22  44  72  94 118 154 210 278 330 404
#     4  11  26  40  61  93 138 179 215 256 306 364
#     4  11  23  36  61  90 129 174 221 257 293 367
#     4  11  23  40  63  93 127 172 216 258 313 378
#
# _framework density 20.266278
#
# number of rings (size 3 to 8) (size 9 to 14) (size 15 to 20)
#    0.000    1.273    1.818    3.818   10.182    0.000 
#    0.000    0.909    0.000    0.000    0.000    0.000 
#    0.000    0.000    0.000    0.000    0.000    0.000 
#
# Total GULP energy -545128.821119 kJ/mol
# GULP energy per Si atom -12389.291389 kJ/mol
# Density = 2.022015 g / cm^3
# Si number density = 20.266278 Si / 1000 Ang^3
#
#
#
# Elastic Constant Matrix: (Units=GPa)
#
#
# Indices 1 2 3 4 5 6 
#
# 1 73.0841 11.9040 2.4054 0.0000 0.0000 0.0000
# 2 11.9040 76.3698 15.8770 0.0000 0.0000 0.0000
# 3 2.4054 15.8770 99.2679 0.0000 0.0000 0.0000
# 4 0.0000 0.0000 0.0000 19.5717 0.0000 0.0000
# 5 0.0000 0.0000 0.0000 0.0000 42.6496 0.0000
# 6 0.0000 0.0000 0.0000 0.0000 0.0000 17.4180
#
#
#
# Elastic Compliance Matrix: (Units=1/GPa)
#
#
# Indices 1 2 3 4 5 6 
#
# 1 0.014039 -0.002190 0.000010 0.000000 0.000000 0.000000
# 2 -0.002190 0.013886 -0.002168 0.000000 0.000000 0.000000
# 3 0.000010 -0.002168 0.010420 0.000000 0.000000 0.000000
# 4 0.000000 0.000000 0.000000 0.051094 0.000000 0.000000
# 5 0.000000 0.000000 0.000000 0.000000 0.023447 0.000000
# 6 0.000000 0.000000 0.000000 0.000000 0.000000 0.057412
#
#
# Mechanical properties :
#
#
# Convention : Reuss Voigt Hill
#
# Bulk Modulus (GPa) = 33.72745 34.34383 34.03564
# Shear Modulus (GPa) = 26.47203 30.49688 28.48446
#
# Velocity S-wave (km/s) = 3.61807 3.88340 3.75308
# Velocity P-wave (km/s) = 5.84228 6.09022 5.96754
#
# Compressibility (1/GPa) = 0.02964944
#
# Stress axis : x y z
#
# Youngs Moduli (GPa) = 71.22859 72.01337 95.96706
#
# Poissons Ratio (x) = 0.15774 -0.00097
# Poissons Ratio (y) = 0.15602 0.20805
# Poissons Ratio (z) = -0.00072 0.15612
#
# Static dielectric constant tensor:
#      x y z
#    x 3.633620 0.000000 0.000000 
#    y 0.000000 3.791880 0.000000 
#    z 0.000000 0.000000 3.928040 
# 
# 
# High freq. dielectric constant tensor:
#      x y z
#    x 1.787190 0.000000 0.000000 
#    y 0.000000 1.784860 0.000000 
#    z 0.000000 0.000000 1.815700 
# 
# From -- ./inp_files/6415.got.cif
#   From: 2010.03.12/outbox.cif.g09.slc.cpg/sg68_4_cif.got.tgz:6415.got - 2010.04.10 23:14:56.
