data_PCOD8283044
_publ_section_title
;
Structure prediction by ZEFSAII (Michael W. Deem and Ramdas Pophale) SiO2 
 PCOD8283044
Probable space group: C C C A
;
_chemical_formula_sum "Si O2"
_cell_formula_units_Z 88
_cell_length_a 11.802592
_cell_length_b 27.093743
_cell_length_c 11.645653
_cell_angle_alpha 90.000000
_cell_angle_beta 90.000000
_cell_angle_gamma 90.000000
_cell_volume 3724.004927
_symmetry_space_group_name_H-M "C C C A"
_symmetry_group_IT_number 68
_space_group.IT_coordinate_system_code '2'
_symmetry_cell_setting 'orthorhombic'
loop_
_space_group_symop_operation_xyz
x,y,z
-x,1/2-y,z
x,1/2-y,1/2-z
-x,y,1/2-z
-x,-y,-z
x,1/2+y,-z
-x,1/2+y,1/2+z
x,-y,1/2+z
1/2+x,1/2+y,z
1/2-x,-y,z
1/2+x,-y,1/2-z
1/2-x,1/2+y,1/2-z
1/2-x,1/2-y,-z
1/2+x,y,-z
1/2-x,y,1/2+z
1/2+x,1/2-y,1/2+z
loop_
_atom_site_type_symbol
_atom_site_label
_atom_site_fract_x
_atom_site_fract_y
_atom_site_fract_z
Si Si1 0.000000 0.824797 0.750000
Si Si2 0.076414 0.400688 0.923880
Si Si3 0.000000 0.019041 0.750000
Si Si4 0.576819 0.811972 0.640494
Si Si5 0.177164 0.456800 0.126220
Si Si6 0.000000 0.750000 0.553087
Si Si7 0.740559 0.868530 0.260152
O O1 0.108610 0.857415 0.715274
O O2 0.958654 0.793183 0.638848
O O3 0.192926 0.375777 0.879381
O O4 0.034695 0.447815 0.856002
O O5 0.979204 0.359518 0.920850
O O6 0.097919 0.421724 0.049811
O O7 0.103612 0.983711 0.778689
O O8 0.500000 0.795131 0.750000
O O9 0.592737 0.770856 0.539342
O O10 0.701858 0.824375 0.687161
O O11 0.250000 0.500000 0.060811
O O12 0.260778 0.419684 0.192514
#
# Coordination Sequence:
#
# PCOD8283044 Si02
#       7
#     8  16   8  16  16   8  16
#     4  11  27  48  67 112 144 182 221 298 375 427
#     4  11  23  45  68  99 142 187 233 293 353 413
#     4  12  23  46  63 101 144 175 249 294 331 426
#     4  10  22  47  74 101 134 186 238 290 356 423
#     4  12  25  39  70 104 135 195 236 290 350 409
#     4  11  25  48  74 106 135 171 246 292 352 437
#     4  11  24  47  69  99 151 185 229 286 361 428
#
# _framework density 23.630474
#
# number of rings (size 3 to 8) (size 9 to 14) (size 15 to 20)
#    0.000    0.909    4.545    2.455    5.091    0.727 
#   16.364    0.000    0.000    0.000    0.000    0.000 
#    0.000    0.000    0.000    0.000    0.000    0.000 
#
# Total GULP energy -545257.505637 kJ/mol
# GULP energy per Si atom -12392.216037 kJ/mol
# Density = 2.357669 g / cm^3
# Si number density = 23.630474 Si / 1000 Ang^3
#
#
#
# Elastic Constant Matrix: (Units=GPa)
#
#
# Indices 1 2 3 4 5 6 
#
# 1 105.2940 24.9531 2.8698 0.0000 0.0000 0.0000
# 2 24.9531 92.0061 36.1499 0.0000 0.0000 0.0000
# 3 2.8698 36.1499 86.8908 0.0000 0.0000 0.0000
# 4 0.0000 0.0000 0.0000 34.7221 0.0000 0.0000
# 5 0.0000 0.0000 0.0000 0.0000 20.6540 0.0000
# 6 0.0000 0.0000 0.0000 0.0000 0.0000 17.6115
#
#
#
# Elastic Compliance Matrix: (Units=1/GPa)
#
#
# Indices 1 2 3 4 5 6 
#
# 1 0.010218 -0.003154 0.000975 0.000000 0.000000 0.000000
# 2 -0.003154 0.013966 -0.005706 0.000000 0.000000 0.000000
# 3 0.000975 -0.005706 0.013851 0.000000 0.000000 0.000000
# 4 0.000000 0.000000 0.000000 0.028800 0.000000 0.000000
# 5 0.000000 0.000000 0.000000 0.000000 0.048417 0.000000
# 6 0.000000 0.000000 0.000000 0.000000 0.000000 0.056781
#
#
# Mechanical properties :
#
#
# Convention : Reuss Voigt Hill
#
# Bulk Modulus (GPa) = 44.91669 45.79295 45.35482
# Shear Modulus (GPa) = 25.61136 29.27874 27.44505
#
# Velocity S-wave (km/s) = 3.29573 3.52380 3.41167
# Velocity P-wave (km/s) = 5.79065 5.99809 5.89528
#
# Compressibility (1/GPa) = 0.02226344
#
# Stress axis : x y z
#
# Youngs Moduli (GPa) = 97.86497 71.60047 72.19925
#
# Poissons Ratio (x) = 0.22585 -0.07038
# Poissons Ratio (y) = 0.30869 0.41200
# Poissons Ratio (z) = -0.09540 0.40858
#
# Static dielectric constant tensor:
#      x y z
#    x 3.954510 0.000000 0.000000 
#    y 0.000000 4.570260 0.000000 
#    z 0.000000 0.000000 1.262270 
# 
# 
# High freq. dielectric constant tensor:
#      x y z
#    x 1.917300 0.000000 0.000000 
#    y 0.000000 1.954020 0.000000 
#    z 0.000000 0.000000 1.930040 
# 
# From -- ./inp_files/12096.got.cif
#   From: 2010.03.12/outbox.cif.g09.slc.cpg/sg68_7_cif.got.tgz:12096.got - 2010.04.10 23:14:56.
