data_PCOD8283507
_publ_section_title
;
Structure prediction by ZEFSAII (Michael W. Deem and Ramdas Pophale) SiO2 
 PCOD8283507
Probable space group: C C C A
;
_chemical_formula_sum "Si O2"
_cell_formula_units_Z 80
_cell_length_a 24.064234
_cell_length_b 15.503500
_cell_length_c 9.551991
_cell_angle_alpha 90.000000
_cell_angle_beta 90.000000
_cell_angle_gamma 90.000000
_cell_volume 3563.655387
_symmetry_space_group_name_H-M "C C C A"
_symmetry_group_IT_number 68
_space_group.IT_coordinate_system_code '2'
_symmetry_cell_setting 'orthorhombic'
loop_
_space_group_symop_operation_xyz
x,y,z
-x,1/2-y,z
x,1/2-y,1/2-z
-x,y,1/2-z
-x,-y,-z
x,1/2+y,-z
-x,1/2+y,1/2+z
x,-y,1/2+z
1/2+x,1/2+y,z
1/2-x,-y,z
1/2+x,-y,1/2-z
1/2-x,1/2+y,1/2-z
1/2-x,1/2-y,-z
1/2+x,y,-z
1/2-x,y,1/2+z
1/2+x,1/2-y,1/2+z
loop_
_atom_site_type_symbol
_atom_site_label
_atom_site_fract_x
_atom_site_fract_y
_atom_site_fract_z
Si Si1 0.300345 0.938887 0.772167
Si Si2 0.804144 0.309294 0.523829
Si Si3 0.960382 0.477257 0.876468
Si Si4 0.629361 0.651495 0.981322
Si Si5 0.632358 0.093620 0.716517
O O1 0.288894 0.866981 0.656675
O O2 0.316389 0.899032 0.923315
O O3 0.250000 0.000000 0.805648
O O4 0.348890 0.001645 0.717221
O O5 0.750000 0.250000 0.500000
O O6 0.858920 0.251370 0.559682
O O7 0.821119 0.366803 0.388460
O O8 0.924579 0.391182 0.910957
O O9 0.925361 0.566444 0.856578
O O10 0.000000 0.452200 0.750000
O O11 0.000000 0.500000 0.000000
O O12 0.624292 0.654866 0.149938
#
# Coordination Sequence:
#
# PCOD8283507 Si02
#       5
#    16  16  16  16  16
#     4  11  23  42  67 100 140 192 242 282 353 442
#     4  12  26  45  70 106 154 189 236 305 375 435
#     4  11  23  46  79 105 138 191 248 301 357 435
#     4  11  24  42  68 106 142 184 238 301 369 423
#     4  11  24  43  72  99 139 188 244 293 355 449
#
# _framework density 22.44886
#
# number of rings (size 3 to 8) (size 9 to 14) (size 15 to 20)
#    0.000    0.800    2.000    6.000    2.800    3.200 
#    0.000    1.000    4.400    0.000    0.000    0.000 
#    0.000    0.000    0.000    0.000    0.000    0.000 
#
# Total GULP energy -495651.450519 kJ/mol
# GULP energy per Si atom -12391.286263 kJ/mol
# Density = 2.239777 g / cm^3
# Si number density = 22.448860 Si / 1000 Ang^3
#
#
#
# Elastic Constant Matrix: (Units=GPa)
#
#
# Indices 1 2 3 4 5 6 
#
# 1 116.9507 57.8250 70.8244 0.0000 0.0000 0.0000
# 2 57.8250 114.5936 41.9710 0.0000 0.0000 0.0000
# 3 70.8244 41.9710 140.1821 0.0000 0.0000 0.0000
# 4 0.0000 0.0000 0.0000 37.5743 0.0000 0.0000
# 5 0.0000 0.0000 0.0000 0.0000 37.5512 0.0000
# 6 0.0000 0.0000 0.0000 0.0000 0.0000 43.6773
#
#
#
# Elastic Compliance Matrix: (Units=1/GPa)
#
#
# Indices 1 2 3 4 5 6 
#
# 1 0.014701 -0.005276 -0.005847 0.000000 0.000000 0.000000
# 2 -0.005276 0.011695 -0.000836 0.000000 0.000000 0.000000
# 3 -0.005847 -0.000836 0.010338 0.000000 0.000000 0.000000
# 4 0.000000 0.000000 0.000000 0.026614 0.000000 0.000000
# 5 0.000000 0.000000 0.000000 0.000000 0.026630 0.000000
# 6 0.000000 0.000000 0.000000 0.000000 0.000000 0.022895
#
#
# Mechanical properties :
#
#
# Convention : Reuss Voigt Hill
#
# Bulk Modulus (GPa) = 78.03558 79.21857 78.62708
# Shear Modulus (GPa) = 35.44488 37.16761 36.30625
#
# Velocity S-wave (km/s) = 3.97787 4.07339 4.02591
# Velocity P-wave (km/s) = 7.47896 7.58211 7.53071
#
# Compressibility (1/GPa) = 0.01281467
#
# Stress axis : x y z
#
# Youngs Moduli (GPa) = 68.02433 85.50582 96.72936
#
# Poissons Ratio (x) = 0.45116 0.56562
# Poissons Ratio (y) = 0.35892 0.08084
# Poissons Ratio (z) = 0.39777 0.07146
#
# Static dielectric constant tensor:
#      x y z
#    x 4.391870 0.000000 0.000000 
#    y 0.000000 7.236090 0.000000 
#    z 0.000000 0.000000 3.963980 
# 
# 
# High freq. dielectric constant tensor:
#      x y z
#    x 1.881530 0.000000 0.000000 
#    y 0.000000 1.889530 0.000000 
#    z 0.000000 0.000000 1.892910 
# 
# From -- ./inp_files/8752.got.cif
#   From: 2010.03.12/outbox.cif.g09.slc.cpg/sg68_5_cif.got.tgz:8752.got - 2010.04.10 23:14:56.
