data_PCOD8283520
_publ_section_title
;
Structure prediction by ZEFSAII (Michael W. Deem and Ramdas Pophale) SiO2 
 PCOD8283520
Probable space group: C C C A
;
_chemical_formula_sum "Si O2"
_cell_formula_units_Z 64
_cell_length_a 17.015923
_cell_length_b 9.195002
_cell_length_c 19.423701
_cell_angle_alpha 90.000000
_cell_angle_beta 90.000000
_cell_angle_gamma 90.000000
_cell_volume 3039.060345
_symmetry_space_group_name_H-M "C C C A"
_symmetry_group_IT_number 68
_space_group.IT_coordinate_system_code '2'
_symmetry_cell_setting 'orthorhombic'
loop_
_space_group_symop_operation_xyz
x,y,z
-x,1/2-y,z
x,1/2-y,1/2-z
-x,y,1/2-z
-x,-y,-z
x,1/2+y,-z
-x,1/2+y,1/2+z
x,-y,1/2+z
1/2+x,1/2+y,z
1/2-x,-y,z
1/2+x,-y,1/2-z
1/2-x,1/2+y,1/2-z
1/2-x,1/2-y,-z
1/2+x,y,-z
1/2-x,y,1/2+z
1/2+x,1/2-y,1/2+z
loop_
_atom_site_type_symbol
_atom_site_label
_atom_site_fract_x
_atom_site_fract_y
_atom_site_fract_z
Si Si1 0.528953 0.401581 0.328002
Si Si2 0.963690 0.597514 0.559386
Si Si3 0.781580 0.161550 0.435146
Si Si4 0.207486 0.351659 0.684826
O O1 0.500000 0.250000 0.360125
O O2 0.500000 0.416397 0.250000
O O3 0.487132 0.533114 0.366877
O O4 0.622200 0.403138 0.341044
O O5 0.872317 0.629171 0.555678
O O6 0.000000 0.750000 0.548054
O O7 0.000000 0.500000 0.500000
O O8 0.750000 0.250000 0.500000
O O9 0.758455 0.261221 0.370120
O O10 0.750000 0.000000 0.427385
O O11 0.194651 0.250000 0.750000
O O12 0.250000 0.500000 0.706244
#
# Coordination Sequence:
#
# PCOD8283520 Si02
#       4
#    16  16  16  16
#     4  11  23  44  67  95 133 180 224 277 342 405
#     4  12  25  44  69 101 137 180 227 282 337 404
#     4  12  25  44  71 102 139 181 229 283 341 406
#     4  12  25  43  67  98 135 177 228 282 344 408
#
# _framework density 21.059139999999999
#
# number of rings (size 3 to 8) (size 9 to 14) (size 15 to 20)
#    0.000    0.250    2.500    8.250    3.500    0.500 
#    0.000    0.000    0.000    0.000    0.000    0.000 
#    0.000    0.000    0.000    0.000    0.000    0.000 
#
# Total GULP energy -396697.350816 kJ/mol
# GULP energy per Si atom -12396.792213 kJ/mol
# Density = 2.101121 g / cm^3
# Si number density = 21.059140 Si / 1000 Ang^3
#
#
#
# Elastic Constant Matrix: (Units=GPa)
#
#
# Indices 1 2 3 4 5 6 
#
# 1 211.3846 65.7866 38.5820 0.0000 0.0000 0.0000
# 2 65.7866 164.1694 47.1119 0.0000 0.0000 0.0000
# 3 38.5820 47.1119 100.2237 0.0000 0.0000 0.0000
# 4 0.0000 0.0000 0.0000 32.9518 0.0000 0.0000
# 5 0.0000 0.0000 0.0000 0.0000 27.9989 0.0000
# 6 0.0000 0.0000 0.0000 0.0000 0.0000 46.5911
#
#
#
# Elastic Compliance Matrix: (Units=1/GPa)
#
#
# Indices 1 2 3 4 5 6 
#
# 1 0.005539 -0.001858 -0.001259 0.000000 0.000000 0.000000
# 2 -0.001858 0.007665 -0.002887 0.000000 0.000000 0.000000
# 3 -0.001259 -0.002887 0.011820 0.000000 0.000000 0.000000
# 4 0.000000 0.000000 0.000000 0.030347 0.000000 0.000000
# 5 0.000000 0.000000 0.000000 0.000000 0.035716 0.000000
# 6 0.000000 0.000000 0.000000 0.000000 0.000000 0.021463
#
#
# Mechanical properties :
#
#
# Convention : Reuss Voigt Hill
#
# Bulk Modulus (GPa) = 76.84074 86.52651 81.68362
# Shear Modulus (GPa) = 38.79092 43.12818 40.95955
#
# Velocity S-wave (km/s) = 4.29651 4.53034 4.41497
# Velocity P-wave (km/s) = 7.82180 8.27901 8.05365
#
# Compressibility (1/GPa) = 0.01301393
#
# Stress axis : x y z
#
# Youngs Moduli (GPa) = 180.54485 130.47046 84.60574
#
# Poissons Ratio (x) = 0.24246 0.10649
# Poissons Ratio (y) = 0.33551 0.24430
# Poissons Ratio (z) = 0.22725 0.37673
#
# Static dielectric constant tensor:
#      x y z
#    x 4.050590 0.000000 0.000000 
#    y 0.000000 3.902120 0.000000 
#    z 0.000000 0.000000 3.876560 
# 
# 
# High freq. dielectric constant tensor:
#      x y z
#    x 1.850040 0.000000 0.000000 
#    y 0.000000 1.851740 0.000000 
#    z 0.000000 0.000000 1.831090 
# 
# From -- ./inp_files/39107.got.cif
#   From: 2010.03.12/outbox.cif.g09.slc.cpg/sg68_20_cif.got.tgz:39107.got - 2010.04.10 23:14:56.
