data_PCOD8283803
_publ_section_title
;
Structure prediction by ZEFSAII (Michael W. Deem and Ramdas Pophale) SiO2 
 PCOD8283803
Probable space group: F M M M
;
_chemical_formula_sum "Si O2"
_cell_formula_units_Z 160
_cell_length_a 18.170090
_cell_length_b 17.370221
_cell_length_c 28.668157
_cell_angle_alpha 90.000000
_cell_angle_beta 90.000000
_cell_angle_gamma 90.000000
_cell_volume 9048.200105
_symmetry_space_group_name_H-M "F M M M"
_symmetry_group_IT_number 69
_symmetry_cell_setting 'orthorhombic'
loop_
_space_group_symop_operation_xyz
x,y,z
-x,-y,z
x,-y,-z
-x,y,-z
-x,-y,-z
x,y,-z
-x,y,z
x,-y,z
x,1/2+y,1/2+z
-x,1/2-y,1/2+z
x,1/2-y,1/2-z
-x,1/2+y,1/2-z
-x,1/2-y,1/2-z
x,1/2+y,1/2-z
-x,1/2+y,1/2+z
x,1/2-y,1/2+z
1/2+x,y,1/2+z
1/2-x,-y,1/2+z
1/2+x,-y,1/2-z
1/2-x,y,1/2-z
1/2-x,-y,1/2-z
1/2+x,y,1/2-z
1/2-x,y,1/2+z
1/2+x,-y,1/2+z
1/2+x,1/2+y,z
1/2-x,1/2-y,z
1/2+x,1/2-y,-z
1/2-x,1/2+y,-z
1/2-x,1/2-y,-z
1/2+x,1/2+y,-z
1/2-x,1/2+y,z
1/2+x,1/2-y,z
loop_
_atom_site_type_symbol
_atom_site_label
_atom_site_fract_x
_atom_site_fract_y
_atom_site_fract_z
Si Si1 0.580875 0.212248 0.700277
Si Si2 0.793799 0.089026 0.609136
Si Si3 0.188032 0.185425 0.947386
Si Si4 0.083318 0.708455 0.105335
Si Si5 0.231693 0.660153 0.301715
O O1 0.500000 0.172936 0.701135
O O2 0.599848 0.250000 0.750000
O O3 0.583395 0.278337 0.660952
O O4 0.643795 0.149104 0.690149
O O5 0.722601 0.111395 0.578267
O O6 0.867216 0.134261 0.593120
O O7 0.776480 0.107157 0.663012
O O8 0.810957 0.000000 0.602346
O O9 0.250000 0.250000 0.946237
O O10 0.115930 0.215951 0.920425
O O11 0.165821 0.163150 0.000000
O O12 0.000000 0.694419 0.087410
O O13 0.250000 0.632408 0.250000
O O14 0.250000 0.750000 0.310867
#
# Coordination Sequence:
#
# PCOD8283803 Si02
#       5
#    32  32  32  32  32
#     4  10  17  27  49  77 101 130 171 222 271 307
#     4  11  21  33  50  77 114 145 173 213 266 333
#     4   9  18  35  57  76  97 131 179 226 260 304
#     4  10  19  33  54  79 105 135 177 226 269 312
#     4  11  17  31  52  73 102 141 187 233 262 304
#
# _framework density 17.683074999999999
#
# number of rings (size 3 to 8) (size 9 to 14) (size 15 to 20)
#    0.000    1.800    6.000    0.600    0.000    1.600 
#    0.000    0.000    0.000    2.400    0.000    7.000 
#    0.000    0.000    0.000    0.000    0.000    0.000 
#
# Total GULP energy -495869.010687 kJ/mol
# GULP energy per Si atom -12396.725267 kJ/mol
# Density = 1.764283 g / cm^3
# Si number density = 17.683075 Si / 1000 Ang^3
#
#
#
# Elastic Constant Matrix: (Units=GPa)
#
#
# Indices 1 2 3 4 5 6 
#
# 1 144.4759 40.5414 24.9169 0.0000 0.0000 0.0000
# 2 40.5414 70.4876 30.5823 0.0000 0.0000 0.0000
# 3 24.9169 30.5823 104.1024 0.0000 0.0000 0.0000
# 4 0.0000 0.0000 0.0000 12.7017 0.0000 0.0000
# 5 0.0000 0.0000 0.0000 0.0000 16.5663 0.0000
# 6 0.0000 0.0000 0.0000 0.0000 0.0000 15.2177
#
#
#
# Elastic Compliance Matrix: (Units=1/GPa)
#
#
# Indices 1 2 3 4 5 6 
#
# 1 0.008294 -0.004480 -0.000669 0.000000 0.000000 0.000000
# 2 -0.004480 0.018679 -0.004415 0.000000 0.000000 0.000000
# 3 -0.000669 -0.004415 0.011063 0.000000 0.000000 0.000000
# 4 0.000000 0.000000 0.000000 0.078730 0.000000 0.000000
# 5 0.000000 0.000000 0.000000 0.000000 0.060364 0.000000
# 6 0.000000 0.000000 0.000000 0.000000 0.000000 0.065713
#
#
# Mechanical properties :
#
#
# Convention : Reuss Voigt Hill
#
# Bulk Modulus (GPa) = 52.88807 56.79414 54.84110
# Shear Modulus (GPa) = 18.63766 23.76549 21.20157
#
# Velocity S-wave (km/s) = 3.25003 3.66999 3.46638
# Velocity P-wave (km/s) = 6.63758 7.08138 6.86307
#
# Compressibility (1/GPa) = 0.01890786
#
# Stress axis : x y z
#
# Youngs Moduli (GPa) = 120.56715 53.53537 90.39066
#
# Poissons Ratio (x) = 0.23985 0.06048
# Poissons Ratio (y) = 0.54016 0.39908
# Poissons Ratio (z) = 0.08067 0.23636
#
# Static dielectric constant tensor:
#      x y z
#    x 3.623700 0.000000 0.000000 
#    y 0.000000 2.746350 0.000000 
#    z 0.000000 0.000000 3.438500 
# 
# 
# High freq. dielectric constant tensor:
#      x y z
#    x 1.695760 0.000000 0.000000 
#    y 0.000000 1.618650 0.000000 
#    z 0.000000 0.000000 1.693870 
# 
# From -- ./inp_files/23427.got.cif
#   From: 2010.03.12/outbox.cif.g09.slc.cpg/sg69_12_cif.got.tgz:23427.got - 2010.04.10 23:52:46.
