data_PCOD8283512
_publ_section_title
;
Structure prediction by ZEFSAII (Michael W. Deem and Ramdas Pophale) SiO2 
 PCOD8283512
Probable space group: C C C A
;
_chemical_formula_sum "Si O2"
_cell_formula_units_Z 48
_cell_length_a 8.791789
_cell_length_b 12.339931
_cell_length_c 19.751999
_cell_angle_alpha 90.000000
_cell_angle_beta 90.000000
_cell_angle_gamma 90.000000
_cell_volume 2142.895747
_symmetry_space_group_name_H-M "C C C A"
_symmetry_group_IT_number 68
_space_group.IT_coordinate_system_code '2'
_symmetry_cell_setting 'orthorhombic'
loop_
_space_group_symop_operation_xyz
x,y,z
-x,1/2-y,z
x,1/2-y,1/2-z
-x,y,1/2-z
-x,-y,-z
x,1/2+y,-z
-x,1/2+y,1/2+z
x,-y,1/2+z
1/2+x,1/2+y,z
1/2-x,-y,z
1/2+x,-y,1/2-z
1/2-x,1/2+y,1/2-z
1/2-x,1/2-y,-z
1/2+x,y,-z
1/2-x,y,1/2+z
1/2+x,1/2-y,1/2+z
loop_
_atom_site_type_symbol
_atom_site_label
_atom_site_fract_x
_atom_site_fract_y
_atom_site_fract_z
Si Si1 0.071490 0.021890 0.071981
Si Si2 0.000000 0.250000 0.362015
Si Si3 0.405596 0.950755 0.805874
Si Si4 0.252109 0.250000 0.250000
O O1 0.018407 0.143019 0.092189
O O2 0.250000 0.000000 0.068654
O O3 0.006058 0.935230 0.126722
O O4 0.000000 0.000000 0.000000
O O5 0.848117 0.252694 0.317587
O O6 0.500000 0.025409 0.750000
O O7 0.367131 0.849485 0.757605
O O8 0.250000 0.000000 0.832302
#
# Coordination Sequence:
#
# PCOD8283512 Si02
#       4
#    16   8  16   8
#     4  12  28  50  75 108 157 208 259 323 392 478
#     4  11  24  48  76 108 151 200 258 320 405 454
#     4  12  23  43  71 107 144 188 251 310 379 449
#     4  11  23  42  78 108 140 194 246 326 376 456
#
# _framework density 22.399595000000001
#
# number of rings (size 3 to 8) (size 9 to 14) (size 15 to 20)
#    0.000    0.333    3.333    6.500    0.000    1.333 
#    6.000    0.000    0.000    0.000    0.000    0.000 
#    0.000    0.000    0.000    0.000    0.000    0.000 
#
# Total GULP energy -297325.914523 kJ/mol
# GULP energy per Si atom -12388.579772 kJ/mol
# Density = 2.234861 g / cm^3
# Si number density = 22.399595 Si / 1000 Ang^3
#
#
#
# Elastic Constant Matrix: (Units=GPa)
#
#
# Indices 1 2 3 4 5 6 
#
# 1 198.6792 43.5175 105.2693 0.0000 0.0000 0.0000
# 2 43.5175 121.0414 52.1045 0.0000 0.0000 0.0000
# 3 105.2693 52.1045 210.6773 0.0000 0.0000 0.0000
# 4 0.0000 0.0000 0.0000 38.0340 0.0000 0.0000
# 5 0.0000 0.0000 0.0000 0.0000 50.1719 0.0000
# 6 0.0000 0.0000 0.0000 0.0000 0.0000 30.2674
#
#
#
# Elastic Compliance Matrix: (Units=1/GPa)
#
#
# Indices 1 2 3 4 5 6 
#
# 1 0.006981 -0.001128 -0.003209 0.000000 0.000000 0.000000
# 2 -0.001128 0.009428 -0.001768 0.000000 0.000000 0.000000
# 3 -0.003209 -0.001768 0.006787 0.000000 0.000000 0.000000
# 4 0.000000 0.000000 0.000000 0.026292 0.000000 0.000000
# 5 0.000000 0.000000 0.000000 0.000000 0.019931 0.000000
# 6 0.000000 0.000000 0.000000 0.000000 0.000000 0.033039
#
#
# Mechanical properties :
#
#
# Convention : Reuss Voigt Hill
#
# Bulk Modulus (GPa) = 91.02787 103.57561 97.30174
# Shear Modulus (GPa) = 42.25419 45.66177 43.95798
#
# Velocity S-wave (km/s) = 4.34796 4.51988 4.43476
# Velocity P-wave (km/s) = 8.11990 8.57785 8.35201
#
# Compressibility (1/GPa) = 0.01098565
#
# Stress axis : x y z
#
# Youngs Moduli (GPa) = 143.25326 106.06273 147.33442
#
# Poissons Ratio (x) = 0.11968 0.47279
# Poissons Ratio (y) = 0.16164 0.26049
# Poissons Ratio (z) = 0.45969 0.18752
#
# Static dielectric constant tensor:
#      x y z
#    x 4.272770 0.000000 0.000000 
#    y 0.000000 4.553450 0.000000 
#    z 0.000000 0.000000 4.001680 
# 
# 
# High freq. dielectric constant tensor:
#      x y z
#    x 1.929220 0.000000 0.000000 
#    y 0.000000 1.869310 0.000000 
#    z 0.000000 0.000000 1.884050 
# 
# From -- ./inp_files/27510.got.cif
#   From: 2010.03.12/outbox.cif.g09.slc.cpg/sg68_14_cif.got.tgz:27510.got - 2010.04.10 23:14:56.
