data_PCOD8283374
_publ_section_title
;
Structure prediction by ZEFSAII (Michael W. Deem and Ramdas Pophale) SiO2 
 PCOD8283374
Probable space group: C C C A
;
_chemical_formula_sum "Si O2"
_cell_formula_units_Z 112
_cell_length_a 24.796119
_cell_length_b 12.743106
_cell_length_c 16.418004
_cell_angle_alpha 90.000000
_cell_angle_beta 90.000000
_cell_angle_gamma 90.000000
_cell_volume 5187.753890
_symmetry_space_group_name_H-M "C C C A"
_symmetry_group_IT_number 68
_space_group.IT_coordinate_system_code '2'
_symmetry_cell_setting 'orthorhombic'
loop_
_space_group_symop_operation_xyz
x,y,z
-x,1/2-y,z
x,1/2-y,1/2-z
-x,y,1/2-z
-x,-y,-z
x,1/2+y,-z
-x,1/2+y,1/2+z
x,-y,1/2+z
1/2+x,1/2+y,z
1/2-x,-y,z
1/2+x,-y,1/2-z
1/2-x,1/2+y,1/2-z
1/2-x,1/2-y,-z
1/2+x,y,-z
1/2-x,y,1/2+z
1/2+x,1/2-y,1/2+z
loop_
_atom_site_type_symbol
_atom_site_label
_atom_site_fract_x
_atom_site_fract_y
_atom_site_fract_z
Si Si1 0.057783 0.245025 0.155834
Si Si2 0.590314 0.984889 0.396054
Si Si3 0.117690 0.414702 0.565625
Si Si4 0.007226 0.632394 0.153815
Si Si5 0.305159 0.280216 0.961428
Si Si6 0.193410 0.554937 0.819111
Si Si7 0.152304 0.106590 0.352042
O O1 0.046312 0.250000 0.250000
O O2 0.091569 0.349499 0.137866
O O3 0.000000 0.250000 0.109551
O O4 0.087014 0.138534 0.128640
O O5 0.537342 0.052605 0.380352
O O6 0.598895 0.990113 0.492324
O O7 0.643623 0.023971 0.345296
O O8 0.067034 0.391222 0.623212
O O9 0.149989 0.313346 0.530200
O O10 0.156515 0.484176 0.623252
O O11 0.000000 0.750000 0.121900
O O12 0.000000 0.624313 0.250000
O O13 0.297320 0.371800 0.896512
O O14 0.315337 0.171956 0.916927
O O15 0.250000 0.250000 0.000000
O O16 0.250000 0.500000 0.799268
O O17 0.175519 0.620435 0.739224
#
# Coordination Sequence:
#
# PCOD8283374 Si02
#       7
#    16  16  16  16  16  16  16
#     4  11  21  37  70 103 133 177 227 295 355 410
#     4  11  23  43  67 101 139 176 236 291 352 424
#     4  11  26  42  70 104 132 189 228 296 364 417
#     4  11  26  45  67  97 144 188 232 286 349 439
#     4  11  27  45  71 101 145 183 239 298 359 426
#     4  11  25  44  73 100 138 188 234 295 358 423
#     4  12  23  47  69 102 141 177 242 293 355 440
#
# _framework density 21.589305
#
# number of rings (size 3 to 8) (size 9 to 14) (size 15 to 20)
#    0.000    0.857    4.286    2.571   10.000    0.571 
#    0.000    0.000    0.000    0.000    0.000    0.000 
#    0.000    0.000    0.000    0.000    0.000    0.000 
#
# Total GULP energy -693828.198892 kJ/mol
# GULP energy per Si atom -12389.789266 kJ/mol
# Density = 2.154017 g / cm^3
# Si number density = 21.589305 Si / 1000 Ang^3
#
#
#
# Elastic Constant Matrix: (Units=GPa)
#
#
# Indices 1 2 3 4 5 6 
#
# 1 153.1218 37.6617 58.6319 0.0000 0.0000 0.0000
# 2 37.6617 79.8174 32.8464 0.0000 0.0000 0.0000
# 3 58.6319 32.8464 107.9839 0.0000 0.0000 0.0000
# 4 0.0000 0.0000 0.0000 -48.3501 0.0000 0.0000
# 5 0.0000 0.0000 0.0000 0.0000 88.9895 0.0000
# 6 0.0000 0.0000 0.0000 0.0000 0.0000 36.3246
#
#
#
# Elastic Compliance Matrix: (Units=1/GPa)
#
#
# Indices 1 2 3 4 5 6 
#
# 1 0.008646 -0.002455 -0.003948 0.000000 0.000000 0.000000
# 2 -0.002455 0.015018 -0.003235 0.000000 0.000000 0.000000
# 3 -0.003948 -0.003235 0.012388 0.000000 0.000000 0.000000
# 4 0.000000 0.000000 0.000000 -0.020682 0.000000 0.000000
# 5 0.000000 0.000000 0.000000 0.000000 0.011237 0.000000
# 6 0.000000 0.000000 0.000000 0.000000 0.000000 0.027530
#
#
# Mechanical properties :
#
#
# Convention : Reuss Voigt Hill
#
# Bulk Modulus (GPa) = 59.60697 66.57812 63.09255
# Shear Modulus (GPa) = 63.28641 29.51168 46.39904
#
# Velocity S-wave (km/s) = 5.42009 3.70125 4.64094
# Velocity P-wave (km/s) = 8.17553 7.01221 7.61612
#
# Compressibility (1/GPa) = 0.01677656
#
# Stress axis : x y z
#
# Youngs Moduli (GPa) = 115.65658 66.58502 80.72139
#
# Poissons Ratio (x) = 0.16347 0.31868
# Poissons Ratio (y) = 0.28395 0.26115
# Poissons Ratio (z) = 0.45660 0.21542
#
# Static dielectric constant tensor:
#      x y z
#    x 8.818400 0.000000 0.000000 
#    y 0.000000 3.869180 0.000000 
#    z 0.000000 0.000000 4.100890 
# 
# 
# High freq. dielectric constant tensor:
#      x y z
#    x 1.862630 0.000000 0.000000 
#    y 0.000000 1.831950 0.000000 
#    z 0.000000 0.000000 1.859650 
# 
# From -- ./inp_files/25486.got.cif
#   From: 2010.03.12/outbox.cif.g09.slc.cpg/sg68_13_cif.got.tgz:25486.got - 2010.04.10 23:14:56.
