data_PCOD8283897
_publ_section_title
;
Structure prediction by ZEFSAII (Michael W. Deem and Ramdas Pophale) SiO2 
 PCOD8283897
Probable space group: F M M M
;
_chemical_formula_sum "Si O2"
_cell_formula_units_Z 208
_cell_length_a 28.738308
_cell_length_b 18.901224
_cell_length_c 21.206750
_cell_angle_alpha 90.000000
_cell_angle_beta 90.000000
_cell_angle_gamma 90.000000
_cell_volume 11519.277501
_symmetry_space_group_name_H-M "F M M M"
_symmetry_group_IT_number 69
_symmetry_cell_setting 'orthorhombic'
loop_
_space_group_symop_operation_xyz
x,y,z
-x,-y,z
x,-y,-z
-x,y,-z
-x,-y,-z
x,y,-z
-x,y,z
x,-y,z
x,1/2+y,1/2+z
-x,1/2-y,1/2+z
x,1/2-y,1/2-z
-x,1/2+y,1/2-z
-x,1/2-y,1/2-z
x,1/2+y,1/2-z
-x,1/2+y,1/2+z
x,1/2-y,1/2+z
1/2+x,y,1/2+z
1/2-x,-y,1/2+z
1/2+x,-y,1/2-z
1/2-x,y,1/2-z
1/2-x,-y,1/2-z
1/2+x,y,1/2-z
1/2-x,y,1/2+z
1/2+x,-y,1/2+z
1/2+x,1/2+y,z
1/2-x,1/2-y,z
1/2+x,1/2-y,-z
1/2-x,1/2+y,-z
1/2-x,1/2-y,-z
1/2+x,1/2+y,-z
1/2-x,1/2+y,z
1/2+x,1/2-y,z
loop_
_atom_site_type_symbol
_atom_site_label
_atom_site_fract_x
_atom_site_fract_y
_atom_site_fract_z
Si Si1 0.944964 0.580214 0.000000
Si Si2 0.104518 0.653100 0.115214
Si Si3 0.879577 0.693485 0.573945
Si Si4 0.946331 0.081139 0.724494
Si Si5 0.695624 0.580542 0.574229
Si Si6 0.553477 0.581449 0.130001
Si Si7 0.275650 0.181376 0.574275
O O1 0.927415 0.618044 0.937604
O O2 0.925863 0.500000 0.000000
O O3 0.000000 0.582042 0.000000
O O4 0.102061 0.737477 0.109978
O O5 0.085550 0.632773 0.183713
O O6 0.157341 0.626733 0.109856
O O7 0.878402 0.710593 0.500000
O O8 0.913841 0.628575 0.586305
O O9 0.828147 0.673804 0.600063
O O10 0.934221 0.094887 0.797189
O O11 0.000000 0.098637 0.711043
O O12 0.935867 0.000000 0.706080
O O13 0.685548 0.586748 0.500000
O O14 0.693874 0.500000 0.597591
O O15 0.746340 0.611339 0.591728
O O16 0.500000 0.601633 0.116590
O O17 0.562363 0.500000 0.112143
O O18 0.278272 0.191403 0.500000
O O19 0.250000 0.250000 0.603819
#
# Coordination Sequence:
#
# PCOD8283897 Si02
#       7
#    16  32  32  32  32  32  32
#     4  11  22  32  44  71 115 155 179 212 263 322
#     4  12  20  32  51  81 115 146 179 221 270 330
#     4  11  22  36  56  84 115 146 177 225 286 336
#     4   9  19  37  58  78 105 146 192 231 267 317
#     4  10  18  29  49  77 108 143 183 222 265 324
#     4   9  21  42  62  79 104 143 193 242 282 323
#     4   9  17  32  51  72 107 145 177 219 269 322
#
# _framework density 18.056688000000001
#
# number of rings (size 3 to 8) (size 9 to 14) (size 15 to 20)
#    0.000    1.923    3.077    2.769    0.000    4.308 
#    0.000    3.846    0.000    0.923    0.000    3.231 
#    0.000    0.000    0.000    0.000    0.000    0.000 
#
# Total GULP energy -644906.198216 kJ/mol
# GULP energy per Si atom -12402.042273 kJ/mol
# Density = 1.801559 g / cm^3
# Si number density = 18.056688 Si / 1000 Ang^3
#
#
#
# Elastic Constant Matrix: (Units=GPa)
#
#
# Indices 1 2 3 4 5 6 
#
# 1 102.9381 52.3089 20.9770 0.0000 0.0000 0.0000
# 2 52.3089 101.8345 17.1957 0.0000 0.0000 0.0000
# 3 20.9770 17.1957 25.4338 0.0000 0.0000 0.0000
# 4 0.0000 0.0000 0.0000 24.2512 0.0000 0.0000
# 5 0.0000 0.0000 0.0000 0.0000 15.0122 0.0000
# 6 0.0000 0.0000 0.0000 0.0000 0.0000 33.0507
#
#
#
# Elastic Compliance Matrix: (Units=1/GPa)
#
#
# Indices 1 2 3 4 5 6 
#
# 1 0.014384 -0.006079 -0.007753 0.000000 0.000000 0.000000
# 2 -0.006079 0.013655 -0.004218 0.000000 0.000000 0.000000
# 3 -0.007753 -0.004218 0.048564 0.000000 0.000000 0.000000
# 4 0.000000 0.000000 0.000000 0.041235 0.000000 0.000000
# 5 0.000000 0.000000 0.000000 0.000000 0.066613 0.000000
# 6 0.000000 0.000000 0.000000 0.000000 0.000000 0.030257
#
#
# Mechanical properties :
#
#
# Convention : Reuss Voigt Hill
#
# Bulk Modulus (GPa) = 24.69017 45.68549 35.18783
# Shear Modulus (GPa) = 18.91732 23.77780 21.34756
#
# Velocity S-wave (km/s) = 3.24027 3.63277 3.44212
# Velocity P-wave (km/s) = 5.26332 6.55378 5.94368
#
# Compressibility (1/GPa) = 0.04050196
#
# Stress axis : x y z
#
# Youngs Moduli (GPa) = 69.52291 73.23428 20.59136
#
# Poissons Ratio (x) = 0.44521 0.15965
# Poissons Ratio (y) = 0.42265 0.08685
# Poissons Ratio (z) = 0.53902 0.30890
#
# Static dielectric constant tensor:
#      x y z
#    x 3.443690 0.000000 0.000000 
#    y 0.000000 3.343230 0.000000 
#    z 0.000000 0.000000 3.008060 
# 
# 
# High freq. dielectric constant tensor:
#      x y z
#    x 1.707650 0.000000 0.000000 
#    y 0.000000 1.704570 0.000000 
#    z 0.000000 0.000000 1.661360 
# 
# From -- ./inp_files/34026.got.cif
#   From: 2010.03.12/outbox.cif.g09.slc.cpg/sg69_18_cif.got.tgz:34026.got - 2010.04.10 23:52:46.
