data_PCOD8283706
_publ_section_title
;
Structure prediction by ZEFSAII (Michael W. Deem and Ramdas Pophale) SiO2 
 PCOD8283706
Probable space group: C C C A
;
_chemical_formula_sum "Si O2"
_cell_formula_units_Z 72
_cell_length_a 24.485085
_cell_length_b 5.392565
_cell_length_c 22.803002
_cell_angle_alpha 90.000000
_cell_angle_beta 90.000000
_cell_angle_gamma 90.000000
_cell_volume 3010.849379
_symmetry_space_group_name_H-M "C C C A"
_symmetry_group_IT_number 68
_space_group.IT_coordinate_system_code '2'
_symmetry_cell_setting 'orthorhombic'
loop_
_space_group_symop_operation_xyz
x,y,z
-x,1/2-y,z
x,1/2-y,1/2-z
-x,y,1/2-z
-x,-y,-z
x,1/2+y,-z
-x,1/2+y,1/2+z
x,-y,1/2+z
1/2+x,1/2+y,z
1/2-x,-y,z
1/2+x,-y,1/2-z
1/2-x,1/2+y,1/2-z
1/2-x,1/2-y,-z
1/2+x,y,-z
1/2-x,y,1/2+z
1/2+x,1/2-y,1/2+z
loop_
_atom_site_type_symbol
_atom_site_label
_atom_site_fract_x
_atom_site_fract_y
_atom_site_fract_z
Si Si1 0.426092 0.750000 0.250000
Si Si2 0.951763 0.441628 0.853385
Si Si3 0.750000 0.500000 0.713017
Si Si4 0.000000 0.250000 0.048754
Si Si5 0.637679 0.055903 0.344402
Si Si6 0.388931 0.915537 0.028907
O O1 0.463627 0.588677 0.206606
O O2 0.388437 0.574289 0.288597
O O3 0.891384 0.322712 0.852685
O O4 0.000000 0.250000 0.859588
O O5 0.955074 0.613385 0.910309
O O6 0.735492 0.250000 0.750000
O O7 0.701242 0.583418 0.669896
O O8 0.956164 0.433128 0.015787
O O9 0.627797 0.897654 0.403072
O O10 0.364465 0.671097 0.997400
#
# Coordination Sequence:
#
# PCOD8283706 Si02
#       6
#     8  16   8   8  16  16
#     4  12  24  43  68 100 154 188 235 314 380 458
#     4  12  24  42  67 110 153 197 242 309 392 466
#     4  12  28  52  82 116 150 200 254 324 388 464
#     4  12  24  43  70 102 152 203 260 306 376 462
#     4  12  27  47  75 108 148 197 258 314 389 455
#     4  12  27  47  74 105 151 203 258 315 374 453
#
# _framework density 23.913516000000001
#
# number of rings (size 3 to 8) (size 9 to 14) (size 15 to 20)
#    0.000    0.000    5.556    4.000    0.000    6.667 
#    0.000    1.111    0.000    0.000    0.000    0.000 
#    0.000    0.000    0.000    0.000    0.000    0.000 
#
# Total GULP energy -446410.087922 kJ/mol
# GULP energy per Si atom -12400.280220 kJ/mol
# Density = 2.385909 g / cm^3
# Si number density = 23.913516 Si / 1000 Ang^3
#
#
#
# Elastic Constant Matrix: (Units=GPa)
#
#
# Indices 1 2 3 4 5 6 
#
# 1 113.1085 25.9982 18.9914 0.0000 0.0000 0.0000
# 2 25.9982 130.3421 30.2412 0.0000 0.0000 0.0000
# 3 18.9914 30.2412 115.2887 0.0000 0.0000 0.0000
# 4 0.0000 0.0000 0.0000 29.6703 0.0000 0.0000
# 5 0.0000 0.0000 0.0000 0.0000 11.9700 0.0000
# 6 0.0000 0.0000 0.0000 0.0000 0.0000 32.2229
#
#
#
# Elastic Compliance Matrix: (Units=1/GPa)
#
#
# Indices 1 2 3 4 5 6 
#
# 1 0.009401 -0.001614 -0.001125 0.000000 0.000000 0.000000
# 2 -0.001614 0.008446 -0.001950 0.000000 0.000000 0.000000
# 3 -0.001125 -0.001950 0.009371 0.000000 0.000000 0.000000
# 4 0.000000 0.000000 0.000000 0.033704 0.000000 0.000000
# 5 0.000000 0.000000 0.000000 0.000000 0.083542 0.000000
# 6 0.000000 0.000000 0.000000 0.000000 0.000000 0.031034
#
#
# Mechanical properties :
#
#
# Convention : Reuss Voigt Hill
#
# Bulk Modulus (GPa) = 56.05347 56.57786 56.31567
# Shear Modulus (GPa) = 26.20237 33.67322 29.93780
#
# Velocity S-wave (km/s) = 3.31375 3.75657 3.54209
# Velocity P-wave (km/s) = 6.17513 6.52123 6.35054
#
# Compressibility (1/GPa) = 0.01784011
#
# Stress axis : x y z
#
# Youngs Moduli (GPa) = 106.37168 118.39345 106.71614
#
# Poissons Ratio (x) = 0.19109 0.12008
# Poissons Ratio (y) = 0.17169 0.20806
# Poissons Ratio (z) = 0.11969 0.23083
#
# Static dielectric constant tensor:
#      x y z
#    x 4.024280 0.000000 0.000000 
#    y 0.000000 4.531290 0.000000 
#    z 0.000000 0.000000 4.872440 
# 
# 
# High freq. dielectric constant tensor:
#      x y z
#    x 1.906010 0.000000 0.000000 
#    y 0.000000 1.973270 0.000000 
#    z 0.000000 0.000000 1.974500 
# 
# From -- ./inp_files/47159.got.cif
#   From: 2010.03.12/outbox.cif.g09.slc.cpg/sg68_24_cif.got.tgz:47159.got - 2010.04.10 23:14:56.
