data_PCOD8283121
_publ_section_title
;
Structure prediction by ZEFSAII (Michael W. Deem and Ramdas Pophale) SiO2 
 PCOD8283121
Probable space group: C C C A
;
_chemical_formula_sum "Si O2"
_cell_formula_units_Z 48
_cell_length_a 5.215321
_cell_length_b 13.863933
_cell_length_c 27.240297
_cell_angle_alpha 90.000000
_cell_angle_beta 90.000000
_cell_angle_gamma 90.000000
_cell_volume 1969.605886
_symmetry_space_group_name_H-M "C C C A"
_symmetry_group_IT_number 68
_space_group.IT_coordinate_system_code '2'
_symmetry_cell_setting 'orthorhombic'
loop_
_space_group_symop_operation_xyz
x,y,z
-x,1/2-y,z
x,1/2-y,1/2-z
-x,y,1/2-z
-x,-y,-z
x,1/2+y,-z
-x,1/2+y,1/2+z
x,-y,1/2+z
1/2+x,1/2+y,z
1/2-x,-y,z
1/2+x,-y,1/2-z
1/2-x,1/2+y,1/2-z
1/2-x,1/2-y,-z
1/2+x,y,-z
1/2-x,y,1/2+z
1/2+x,1/2-y,1/2+z
loop_
_atom_site_type_symbol
_atom_site_label
_atom_site_fract_x
_atom_site_fract_y
_atom_site_fract_z
Si Si1 0.748826 0.813907 0.117470
Si Si2 0.747963 0.387916 0.275320
Si Si3 0.077729 0.607180 0.519197
O O1 0.500000 0.750000 0.123173
O O2 0.777670 0.874499 0.166737
O O3 0.694402 0.890550 0.073806
O O4 0.000000 0.750000 0.106833
O O5 0.500000 0.339182 0.250000
O O6 0.750000 0.500000 0.262888
O O7 0.000000 0.340497 0.250000
O O8 0.298658 0.659207 0.484746
O O9 0.000000 0.500000 0.500000
#
# Coordination Sequence:
#
# PCOD8283121 Si02
#       3
#    16  16  16
#     4  12  26  42  68 104 136 173 222 284 345 403
#     4  10  23  44  68  98 133 179 226 270 327 410
#     4  10  23  43  66  95 128 183 223 272 329 403
#
# _framework density 24.370359000000001
#
# number of rings (size 3 to 8) (size 9 to 14) (size 15 to 20)
#    0.000    1.333    0.000    4.000    4.667    8.000 
#   12.000    0.000    0.000    0.000    0.000    0.000 
#    0.000    0.000    0.000    0.000    0.000    0.000 
#
# Total GULP energy -297329.461294 kJ/mol
# GULP energy per Si atom -12388.727554 kJ/mol
# Density = 2.431489 g / cm^3
# Si number density = 24.370359 Si / 1000 Ang^3
#
#
#
# Elastic Constant Matrix: (Units=GPa)
#
#
# Indices 1 2 3 4 5 6 
#
# 1 282.2993 28.9366 88.4416 0.0000 0.0000 0.0000
# 2 28.9366 44.7373 24.3978 0.0000 0.0000 0.0000
# 3 88.4416 24.3978 207.4363 0.0000 0.0000 0.0000
# 4 0.0000 0.0000 0.0000 43.9910 0.0000 0.0000
# 5 0.0000 0.0000 0.0000 0.0000 49.9882 0.0000
# 6 0.0000 0.0000 0.0000 0.0000 0.0000 4.1389
#
#
#
# Elastic Compliance Matrix: (Units=1/GPa)
#
#
# Indices 1 2 3 4 5 6 
#
# 1 0.004230 -0.001873 -0.001583 0.000000 0.000000 0.000000
# 2 -0.001873 0.024714 -0.002108 0.000000 0.000000 0.000000
# 3 -0.001583 -0.002108 0.005744 0.000000 0.000000 0.000000
# 4 0.000000 0.000000 0.000000 0.022732 0.000000 0.000000
# 5 0.000000 0.000000 0.000000 0.000000 0.020005 0.000000
# 6 0.000000 0.000000 0.000000 0.000000 0.000000 0.241607
#
#
# Mechanical properties :
#
#
# Convention : Reuss Voigt Hill
#
# Bulk Modulus (GPa) = 42.44633 90.89165 66.66899
# Shear Modulus (GPa) = 14.79230 45.80342 30.29786
#
# Velocity S-wave (km/s) = 2.46637 4.33999 3.52977
# Velocity P-wave (km/s) = 5.05625 7.90512 6.63538
#
# Compressibility (1/GPa) = 0.02355916
#
# Stress axis : x y z
#
# Youngs Moduli (GPa) = 236.38670 40.46326 174.10064
#
# Poissons Ratio (x) = 0.07578 0.27567
# Poissons Ratio (y) = 0.44269 0.36705
# Poissons Ratio (z) = 0.37429 0.08531
#
# Static dielectric constant tensor:
#      x y z
#    x -84.213280 0.000000 0.000000 
#    y 0.000000 8.311530 0.000000 
#    z 0.000000 0.000000 4.659760 
# 
# 
# High freq. dielectric constant tensor:
#      x y z
#    x 2.012620 0.000000 0.000000 
#    y 0.000000 1.961130 0.000000 
#    z 0.000000 0.000000 1.968320 
# 
# From -- ./inp_files/47763.got.cif
#   From: 2010.03.12/outbox.cif.g09.slc.cpg/sg68_24_cif.got.tgz:47763.got - 2010.04.10 23:14:56.
