data_PCOD8283941
_publ_section_title
;
Structure prediction by ZEFSAII (Michael W. Deem and Ramdas Pophale) SiO2 
 PCOD8283941
Probable space group: F M M M
;
_chemical_formula_sum "Si O2"
_cell_formula_units_Z 240
_cell_length_a 20.606985
_cell_length_b 30.867214
_cell_length_c 23.464595
_cell_angle_alpha 90.000000
_cell_angle_beta 90.000000
_cell_angle_gamma 90.000000
_cell_volume 14925.364653
_symmetry_space_group_name_H-M "F M M M"
_symmetry_group_IT_number 69
_symmetry_cell_setting 'orthorhombic'
loop_
_space_group_symop_operation_xyz
x,y,z
-x,-y,z
x,-y,-z
-x,y,-z
-x,-y,-z
x,y,-z
-x,y,z
x,-y,z
x,1/2+y,1/2+z
-x,1/2-y,1/2+z
x,1/2-y,1/2-z
-x,1/2+y,1/2-z
-x,1/2-y,1/2-z
x,1/2+y,1/2-z
-x,1/2+y,1/2+z
x,1/2-y,1/2+z
1/2+x,y,1/2+z
1/2-x,-y,1/2+z
1/2+x,-y,1/2-z
1/2-x,y,1/2-z
1/2-x,-y,1/2-z
1/2+x,y,1/2-z
1/2-x,y,1/2+z
1/2+x,-y,1/2+z
1/2+x,1/2+y,z
1/2-x,1/2-y,z
1/2+x,1/2-y,-z
1/2-x,1/2+y,-z
1/2-x,1/2-y,-z
1/2+x,1/2+y,-z
1/2-x,1/2+y,z
1/2+x,1/2-y,z
loop_
_atom_site_type_symbol
_atom_site_label
_atom_site_fract_x
_atom_site_fract_y
_atom_site_fract_z
Si Si1 0.293266 0.207599 0.934446
Si Si2 0.769718 0.133648 0.344009
Si Si3 0.927107 0.186242 0.392421
Si Si4 0.073825 0.549609 0.776431
Si Si5 0.383980 0.910467 0.890175
Si Si6 0.846807 0.872966 0.230293
Si Si7 0.426466 0.203338 0.759795
Si Si8 0.928999 0.049789 0.500000
O O1 0.250000 0.250000 0.923868
O O2 0.267596 0.173012 0.888615
O O3 0.371044 0.214966 0.923461
O O4 0.284101 0.191779 0.000000
O O5 0.808086 0.093718 0.372875
O O6 0.807888 0.144189 0.285645
O O7 0.697065 0.120796 0.326019
O O8 0.914857 0.135950 0.405381
O O9 0.920703 0.190653 0.325199
O O10 0.000000 0.199686 0.413123
O O11 0.098759 0.500000 0.771433
O O12 0.075334 0.565332 0.841590
O O13 0.118757 0.580764 0.738542
O O14 0.000000 0.553091 0.754700
O O15 0.385912 0.938940 0.945949
O O16 0.896686 0.833862 0.219348
O O17 0.500000 0.206908 0.738859
O O18 0.391985 0.250000 0.750000
O O19 0.000000 0.073269 0.500000
O O20 0.942817 0.000000 0.500000
#
# Coordination Sequence:
#
# PCOD8283941 Si02
#       8
#    32  32  32  32  32  32  32  16
#     4  10  21  35  49  70  98 131 172 210 248 295
#     4   9  20  32  49  68  92 131 169 198 244 288
#     4  10  19  33  51  74 100 129 168 206 250 305
#     4  10  18  30  50  72  98 130 159 198 252 301
#     4  10  19  33  47  69 101 134 166 205 242 292
#     4  10  18  33  49  71  98 127 165 206 237 301
#     4  10  19  30  48  75 102 128 158 207 256 296
#     4  11  22  32  48  76 101 128 171 209 244 295
#
# _framework density 16.080009
#
# number of rings (size 3 to 8) (size 9 to 14) (size 15 to 20)
#    0.000    2.067    4.000    2.000    5.600    1.333 
#    0.000    7.333    0.000    0.000    0.000    0.000 
#    0.000    0.000    0.000    1.467    0.000    0.000 
#
# Total GULP energy -743518.507003 kJ/mol
# GULP energy per Si atom -12391.975117 kJ/mol
# Density = 1.604341 g / cm^3
# Si number density = 16.080009 Si / 1000 Ang^3
#
#
#
# Elastic Constant Matrix: (Units=GPa)
#
#
# Indices 1 2 3 4 5 6 
#
# 1 107.8991 54.5542 49.2153 0.0000 0.0000 0.0000
# 2 54.5542 93.5042 24.6050 0.0000 0.0000 0.0000
# 3 49.2153 24.6050 66.9033 0.0000 0.0000 0.0000
# 4 0.0000 0.0000 0.0000 16.7238 0.0000 0.0000
# 5 0.0000 0.0000 0.0000 0.0000 21.1068 0.0000
# 6 0.0000 0.0000 0.0000 0.0000 0.0000 20.3829
#
#
#
# Elastic Compliance Matrix: (Units=1/GPa)
#
#
# Indices 1 2 3 4 5 6 
#
# 1 0.017870 -0.007713 -0.010309 0.000000 0.000000 0.000000
# 2 -0.007713 0.015170 0.000095 0.000000 0.000000 0.000000
# 3 -0.010309 0.000095 0.022495 0.000000 0.000000 0.000000
# 4 0.000000 0.000000 0.000000 0.059795 0.000000 0.000000
# 5 0.000000 0.000000 0.000000 0.000000 0.047378 0.000000
# 6 0.000000 0.000000 0.000000 0.000000 0.000000 0.049061
#
#
# Mechanical properties :
#
#
# Convention : Reuss Voigt Hill
#
# Bulk Modulus (GPa) = 50.81017 58.33951 54.57484
# Shear Modulus (GPa) = 19.67086 20.97151 20.32119
#
# Velocity S-wave (km/s) = 3.50138 3.61529 3.55879
# Velocity P-wave (km/s) = 6.92915 7.33393 7.13442
#
# Compressibility (1/GPa) = 0.01968110
#
# Stress axis : x y z
#
# Youngs Moduli (GPa) = 55.96036 65.91973 44.45388
#
# Poissons Ratio (x) = 0.50846 0.45826
# Poissons Ratio (y) = 0.43164 -0.00422
# Poissons Ratio (z) = 0.57687 -0.00626
#
# Static dielectric constant tensor:
#      x y z
#    x 3.292380 0.000000 0.000000 
#    y 0.000000 3.040730 0.000000 
#    z 0.000000 0.000000 2.919830 
# 
# 
# High freq. dielectric constant tensor:
#      x y z
#    x 1.617890 0.000000 0.000000 
#    y 0.000000 1.608870 0.000000 
#    z 0.000000 0.000000 1.595840 
# 
# From -- ./inp_files/37537.got.cif
#   From: 2010.03.12/outbox.cif.g09.slc.cpg/sg69_19_cif.got.tgz:37537.got - 2010.04.10 23:52:46.
