data_PCOD8283088
_publ_section_title
;
Structure prediction by ZEFSAII (Michael W. Deem and Ramdas Pophale) SiO2 
 PCOD8283088
Probable space group: C C C A
;
_chemical_formula_sum "Si O2"
_cell_formula_units_Z 80
_cell_length_a 9.759537
_cell_length_b 25.325380
_cell_length_c 15.826930
_cell_angle_alpha 90.000000
_cell_angle_beta 90.000000
_cell_angle_gamma 90.000000
_cell_volume 3911.847060
_symmetry_space_group_name_H-M "C C C A"
_symmetry_group_IT_number 68
_space_group.IT_coordinate_system_code '2'
_symmetry_cell_setting 'orthorhombic'
loop_
_space_group_symop_operation_xyz
x,y,z
-x,1/2-y,z
x,1/2-y,1/2-z
-x,y,1/2-z
-x,-y,-z
x,1/2+y,-z
-x,1/2+y,1/2+z
x,-y,1/2+z
1/2+x,1/2+y,z
1/2-x,-y,z
1/2+x,-y,1/2-z
1/2-x,1/2+y,1/2-z
1/2-x,1/2-y,-z
1/2+x,y,-z
1/2-x,y,1/2+z
1/2+x,1/2-y,1/2+z
loop_
_atom_site_type_symbol
_atom_site_label
_atom_site_fract_x
_atom_site_fract_y
_atom_site_fract_z
Si Si1 0.683094 0.108702 0.050532
Si Si2 0.896300 0.480614 0.823072
Si Si3 0.276182 0.250000 0.750000
Si Si4 0.648753 0.730147 0.927266
Si Si5 0.500000 0.661493 0.250000
Si Si6 0.479455 0.085860 0.908385
O O1 0.627821 0.072099 0.124827
O O2 0.644466 0.167455 0.075947
O O3 0.846213 0.103015 0.038176
O O4 0.615304 0.090998 0.963390
O O5 0.750000 0.500000 0.785877
O O6 0.965178 0.525401 0.880566
O O7 0.000000 0.465038 0.750000
O O8 0.186030 0.252654 0.834848
O O9 0.365701 0.302765 0.748313
O O10 0.500000 0.750000 0.954007
O O11 0.750000 0.750000 0.000000
O O12 0.499073 0.624385 0.169668
#
# Coordination Sequence:
#
# PCOD8283088 Si02
#       6
#    16  16   8  16   8  16
#     4  11  24  42  65  97 133 169 223 275 329 392
#     4  10  23  41  65  97 133 169 223 270 334 400
#     4  11  25  42  66  98 132 176 218 278 332 394
#     4  12  26  44  66  98 134 176 226 275 333 401
#     4  11  22  42  72  92 132 172 221 264 338 396
#     4  11  22  44  67  98 129 175 217 274 334 401
#
# _framework density 20.450697000000002
#
# number of rings (size 3 to 8) (size 9 to 14) (size 15 to 20)
#    0.000    1.000    3.000    3.300    2.800    3.200 
#    0.000    0.000    0.000    0.000    0.000    0.000 
#    0.000    0.000    0.000    0.000    0.000    0.000 
#
# Total GULP energy -496217.923755 kJ/mol
# GULP energy per Si atom -12405.448094 kJ/mol
# Density = 2.040415 g / cm^3
# Si number density = 20.450697 Si / 1000 Ang^3
#
#
#
# Elastic Constant Matrix: (Units=GPa)
#
#
# Indices 1 2 3 4 5 6 
#
# 1 119.8423 28.4421 78.9818 0.0000 0.0000 0.0000
# 2 28.4421 112.7542 31.1360 0.0000 0.0000 0.0000
# 3 78.9818 31.1360 132.8823 0.0000 0.0000 0.0000
# 4 0.0000 0.0000 0.0000 -30.3441 0.0000 0.0000
# 5 0.0000 0.0000 0.0000 0.0000 19.2538 0.0000
# 6 0.0000 0.0000 0.0000 0.0000 0.0000 21.3028
#
#
#
# Elastic Compliance Matrix: (Units=1/GPa)
#
#
# Indices 1 2 3 4 5 6 
#
# 1 0.013896 -0.001309 -0.007953 0.000000 0.000000 0.000000
# 2 -0.001309 0.009606 -0.001473 0.000000 0.000000 0.000000
# 3 -0.007953 -0.001473 0.012597 0.000000 0.000000 0.000000
# 4 0.000000 0.000000 0.000000 -0.032955 0.000000 0.000000
# 5 0.000000 0.000000 0.000000 0.000000 0.051938 0.000000
# 6 0.000000 0.000000 0.000000 0.000000 0.000000 0.046942
#
#
# Mechanical properties :
#
#
# Convention : Reuss Voigt Hill
#
# Bulk Modulus (GPa) = 68.35164 71.39985 69.87574
# Shear Modulus (GPa) = 38.94985 17.17043 28.06014
#
# Velocity S-wave (km/s) = 4.36888 2.90073 3.70819
# Velocity P-wave (km/s) = 7.67754 6.79764 7.25095
#
# Compressibility (1/GPa) = 0.01463023
#
# Stress axis : x y z
#
# Youngs Moduli (GPa) = 71.96155 104.10447 79.38109
#
# Poissons Ratio (x) = 0.13630 0.63130
# Poissons Ratio (y) = 0.09421 0.11689
# Poissons Ratio (z) = 0.57230 0.15330
#
# Static dielectric constant tensor:
#      x y z
#    x 3.973770 0.000000 0.000000 
#    y 0.000000 3.920660 0.000000 
#    z 0.000000 0.000000 3.652130 
# 
# 
# High freq. dielectric constant tensor:
#      x y z
#    x 1.809780 0.000000 0.000000 
#    y 0.000000 1.819940 0.000000 
#    z 0.000000 0.000000 1.800820 
# 
# From -- ./inp_files/20914.got.cif
#   From: 2010.03.12/outbox.cif.g09.slc.cpg/sg68_11_cif.got.tgz:20914.got - 2010.04.10 23:14:56.
