data_PCOD8283510
_publ_section_title
;
Structure prediction by ZEFSAII (Michael W. Deem and Ramdas Pophale) SiO2 
 PCOD8283510
Probable space group: C C C A
;
_chemical_formula_sum "Si O2"
_cell_formula_units_Z 48
_cell_length_a 15.192026
_cell_length_b 8.138263
_cell_length_c 15.171159
_cell_angle_alpha 90.000000
_cell_angle_beta 90.000000
_cell_angle_gamma 90.000000
_cell_volume 1875.712081
_symmetry_space_group_name_H-M "C C C A"
_symmetry_group_IT_number 68
_space_group.IT_coordinate_system_code '2'
_symmetry_cell_setting 'orthorhombic'
loop_
_space_group_symop_operation_xyz
x,y,z
-x,1/2-y,z
x,1/2-y,1/2-z
-x,y,1/2-z
-x,-y,-z
x,1/2+y,-z
-x,1/2+y,1/2+z
x,-y,1/2+z
1/2+x,1/2+y,z
1/2-x,-y,z
1/2+x,-y,1/2-z
1/2-x,1/2+y,1/2-z
1/2-x,1/2-y,-z
1/2+x,y,-z
1/2-x,y,1/2+z
1/2+x,1/2-y,1/2+z
loop_
_atom_site_type_symbol
_atom_site_label
_atom_site_fract_x
_atom_site_fract_y
_atom_site_fract_z
Si Si1 0.155414 0.429946 0.582506
Si Si2 0.846459 0.942104 0.770661
Si Si3 0.076410 0.613969 0.429512
O O1 0.250000 0.500000 0.558013
O O2 0.126058 0.463992 0.682155
O O3 0.077883 0.510115 0.520913
O O4 0.162215 0.233653 0.568765
O O5 0.848258 0.750000 0.750000
O O6 0.750000 0.000000 0.801148
O O7 0.915984 0.987770 0.847483
O O8 0.000000 0.750000 0.418318
#
# Coordination Sequence:
#
# PCOD8283510 Si02
#       3
#    16  16  16
#     4  11  23  42  68  98 136 186 233 280 336 409
#     4  11  23  43  71 102 136 184 238 287 339 407
#     4  12  25  44  69 104 142 179 225 287 350 410
#
# _framework density 25.590281999999998
#
# number of rings (size 3 to 8) (size 9 to 14) (size 15 to 20)
#    0.000    0.667    0.000   10.000    0.000    2.667 
#    0.000    1.667    0.000    0.000    0.000    0.000 
#    0.000    0.000    0.000    0.000    0.000    0.000 
#
# Total GULP energy -297565.643483 kJ/mol
# GULP energy per Si atom -12398.568478 kJ/mol
# Density = 2.553204 g / cm^3
# Si number density = 25.590282 Si / 1000 Ang^3
#
#
#
# Elastic Constant Matrix: (Units=GPa)
#
#
# Indices 1 2 3 4 5 6 
#
# 1 73.8791 -7.2427 16.8097 0.0000 0.0000 0.0000
# 2 -7.2427 143.2656 23.0097 0.0000 0.0000 0.0000
# 3 16.8097 23.0097 173.7808 0.0000 0.0000 0.0000
# 4 0.0000 0.0000 0.0000 35.7788 0.0000 0.0000
# 5 0.0000 0.0000 0.0000 0.0000 -36.2079 0.0000
# 6 0.0000 0.0000 0.0000 0.0000 0.0000 30.0897
#
#
#
# Elastic Compliance Matrix: (Units=1/GPa)
#
#
# Indices 1 2 3 4 5 6 
#
# 1 0.013964 0.000943 -0.001476 0.000000 0.000000 0.000000
# 2 0.000943 0.007195 -0.001044 0.000000 0.000000 0.000000
# 3 -0.001476 -0.001044 0.006035 0.000000 0.000000 0.000000
# 4 0.000000 0.000000 0.000000 0.027949 0.000000 0.000000
# 5 0.000000 0.000000 0.000000 0.000000 -0.027618 0.000000
# 6 0.000000 0.000000 0.000000 0.000000 0.000000 0.033234
#
#
# Mechanical properties :
#
#
# Convention : Reuss Voigt Hill
#
# Bulk Modulus (GPa) = 41.59494 50.67541 46.13518
# Shear Modulus (GPa) = 69.51529 29.82204 49.66866
#
# Velocity S-wave (km/s) = 5.21763 3.41745 4.41037
# Velocity P-wave (km/s) = 7.25174 5.95126 6.63345
#
# Compressibility (1/GPa) = 0.02404139
#
# Stress axis : x y z
#
# Youngs Moduli (GPa) = 71.61374 138.97818 165.69109
#
# Poissons Ratio (x) = -0.13104 0.24449
# Poissons Ratio (y) = -0.06753 0.17297
# Poissons Ratio (z) = 0.10567 0.14508
#
# Static dielectric constant tensor:
#      x y z
#    x 4.809130 0.000000 0.000000 
#    y 0.000000 5.464330 0.000000 
#    z 0.000000 0.000000 4.716650 
# 
# 
# High freq. dielectric constant tensor:
#      x y z
#    x 2.027640 0.000000 0.000000 
#    y 0.000000 2.048030 0.000000 
#    z 0.000000 0.000000 2.026930 
# 
# From -- ./inp_files/18740.got.cif
#   From: 2010.03.12/outbox.cif.g09.slc.cpg/sg68_10_cif.got.tgz:18740.got - 2010.04.10 23:14:56.
