data_PCOD8283864
_publ_section_title
;
Structure prediction by ZEFSAII (Michael W. Deem and Ramdas Pophale) SiO2 
 PCOD8283864
Probable space group: F M M M
;
_chemical_formula_sum "Si O2"
_cell_formula_units_Z 176
_cell_length_a 23.731999
_cell_length_b 13.708848
_cell_length_c 30.605990
_cell_angle_alpha 90.000000
_cell_angle_beta 90.000000
_cell_angle_gamma 90.000000
_cell_volume 9957.302808
_symmetry_space_group_name_H-M "F M M M"
_symmetry_group_IT_number 69
_symmetry_cell_setting 'orthorhombic'
loop_
_space_group_symop_operation_xyz
x,y,z
-x,-y,z
x,-y,-z
-x,y,-z
-x,-y,-z
x,y,-z
-x,y,z
x,-y,z
x,1/2+y,1/2+z
-x,1/2-y,1/2+z
x,1/2-y,1/2-z
-x,1/2+y,1/2-z
-x,1/2-y,1/2-z
x,1/2+y,1/2-z
-x,1/2+y,1/2+z
x,1/2-y,1/2+z
1/2+x,y,1/2+z
1/2-x,-y,1/2+z
1/2+x,-y,1/2-z
1/2-x,y,1/2-z
1/2-x,-y,1/2-z
1/2+x,y,1/2-z
1/2-x,y,1/2+z
1/2+x,-y,1/2+z
1/2+x,1/2+y,z
1/2-x,1/2-y,z
1/2+x,1/2-y,-z
1/2-x,1/2+y,-z
1/2-x,1/2-y,-z
1/2+x,1/2+y,-z
1/2-x,1/2+y,z
1/2+x,1/2-y,z
loop_
_atom_site_type_symbol
_atom_site_label
_atom_site_fract_x
_atom_site_fract_y
_atom_site_fract_z
Si Si1 0.000000 0.103065 0.824336
Si Si2 0.064821 0.267889 0.083722
Si Si3 0.683668 0.254204 0.801125
Si Si4 0.114624 0.616271 0.361057
Si Si5 0.903041 0.389522 0.164197
Si Si6 0.933213 0.111314 0.500000
Si Si7 0.000000 0.641992 0.231270
O O1 0.942982 0.157579 0.838069
O O2 0.000000 0.075079 0.773683
O O3 0.000000 0.000000 0.850133
O O4 0.108883 0.176920 0.093278
O O5 0.065829 0.344966 0.122783
O O6 0.000000 0.230510 0.077267
O O7 0.087465 0.326254 0.041614
O O8 0.666637 0.250000 0.750000
O O9 0.750000 0.250000 0.806842
O O10 0.663304 0.351707 0.827154
O O11 0.655962 0.162465 0.825144
O O12 0.119028 0.500000 0.368840
O O13 0.887710 0.500000 0.153634
O O14 0.944094 0.381821 0.205149
O O15 0.000000 0.102947 0.500000
O O16 0.908222 0.000000 0.500000
O O17 0.000000 0.750000 0.250000
#
# Coordination Sequence:
#
# PCOD8283864 Si02
#       7
#    16  32  32  32  32  16  16
#     4  10  18  28  44  68  94 126 168 204 244 298
#     4  10  18  32  50  75 108 139 168 207 252 311
#     4  10  22  37  51  70 100 138 181 226 264 302
#     4  10  20  34  53  75 102 139 176 215 262 310
#     4  11  21  32  50  74 101 133 170 211 260 310
#     4   9  18  30  49  75 108 145 173 196 244 312
#     4  12  20  28  44  70 101 132 164 206 253 304
#
# _framework density 17.675469
#
# number of rings (size 3 to 8) (size 9 to 14) (size 15 to 20)
#    0.000    1.727    1.818    5.182    0.000    3.636 
#    0.000    2.273    0.000    1.636    0.000   10.182 
#    0.000   11.636    0.000    0.000    0.000    0.000 
#
# Total GULP energy -545158.816518 kJ/mol
# GULP energy per Si atom -12389.973103 kJ/mol
# Density = 1.763524 g / cm^3
# Si number density = 17.675469 Si / 1000 Ang^3
#
#
#
# Elastic Constant Matrix: (Units=GPa)
#
#
# Indices 1 2 3 4 5 6 
#
# 1 66.3160 22.1871 20.8690 0.0000 0.0000 0.0000
# 2 22.1871 142.9202 45.0065 0.0000 0.0000 0.0000
# 3 20.8690 45.0065 96.4443 0.0000 0.0000 0.0000
# 4 0.0000 0.0000 0.0000 22.8580 0.0000 0.0000
# 5 0.0000 0.0000 0.0000 0.0000 16.2373 0.0000
# 6 0.0000 0.0000 0.0000 0.0000 0.0000 14.9518
#
#
#
# Elastic Compliance Matrix: (Units=1/GPa)
#
#
# Indices 1 2 3 4 5 6 
#
# 1 0.016521 -0.001687 -0.002788 0.000000 0.000000 0.000000
# 2 -0.001687 0.008375 -0.003543 0.000000 0.000000 0.000000
# 3 -0.002788 -0.003543 0.012625 0.000000 0.000000 0.000000
# 4 0.000000 0.000000 0.000000 0.043748 0.000000 0.000000
# 5 0.000000 0.000000 0.000000 0.000000 0.061587 0.000000
# 6 0.000000 0.000000 0.000000 0.000000 0.000000 0.066882
#
#
# Mechanical properties :
#
#
# Convention : Reuss Voigt Hill
#
# Bulk Modulus (GPa) = 46.54285 53.53398 50.03842
# Shear Modulus (GPa) = 21.46530 25.31729 23.39130
#
# Velocity S-wave (km/s) = 3.48862 3.78873 3.64177
# Velocity P-wave (km/s) = 6.52812 7.03507 6.78633
#
# Compressibility (1/GPa) = 0.02148558
#
# Stress axis : x y z
#
# Youngs Moduli (GPa) = 60.52924 119.41008 79.20627
#
# Poissons Ratio (x) = 0.20143 0.22080
# Poissons Ratio (y) = 0.10211 0.28063
# Poissons Ratio (z) = 0.16874 0.42307
#
# Static dielectric constant tensor:
#      x y z
#    x 2.976000 0.000000 0.000000 
#    y 0.000000 3.424170 0.000000 
#    z 0.000000 0.000000 4.136700 
# 
# 
# High freq. dielectric constant tensor:
#      x y z
#    x 1.648480 0.000000 0.000000 
#    y 0.000000 1.699930 0.000000 
#    z 0.000000 0.000000 1.670330 
# 
# From -- ./inp_files/43633.got.cif
#   From: 2010.03.12/outbox.cif.g09.slc.cpg/sg69_22_cif.got.tgz:43633.got - 2010.04.10 23:52:46.
