data_PCOD8283738
_publ_section_title
;
Structure prediction by ZEFSAII (Michael W. Deem and Ramdas Pophale) SiO2 
 PCOD8283738
Probable space group: C C C A
;
_chemical_formula_sum "Si O2"
_cell_formula_units_Z 56
_cell_length_a 15.194145
_cell_length_b 9.012045
_cell_length_c 15.837439
_cell_angle_alpha 90.000000
_cell_angle_beta 90.000000
_cell_angle_gamma 90.000000
_cell_volume 2168.625566
_symmetry_space_group_name_H-M "C C C A"
_symmetry_group_IT_number 68
_space_group.IT_coordinate_system_code '2'
_symmetry_cell_setting 'orthorhombic'
loop_
_space_group_symop_operation_xyz
x,y,z
-x,1/2-y,z
x,1/2-y,1/2-z
-x,y,1/2-z
-x,-y,-z
x,1/2+y,-z
-x,1/2+y,1/2+z
x,-y,1/2+z
1/2+x,1/2+y,z
1/2-x,-y,z
1/2+x,-y,1/2-z
1/2-x,1/2+y,1/2-z
1/2-x,1/2-y,-z
1/2+x,y,-z
1/2-x,y,1/2+z
1/2+x,1/2-y,1/2+z
loop_
_atom_site_type_symbol
_atom_site_label
_atom_site_fract_x
_atom_site_fract_y
_atom_site_fract_z
Si Si1 0.941259 0.423244 0.430006
Si Si2 0.000000 0.484871 0.250000
Si Si3 0.155224 0.792161 0.466511
Si Si4 0.324278 0.621382 0.804424
O O1 0.988051 0.397668 0.338764
O O2 0.857161 0.539305 0.432073
O O3 0.912450 0.256509 0.458352
O O4 0.000000 0.500000 0.500000
O O5 0.909634 0.575141 0.248268
O O6 0.250000 0.750000 0.500000
O O7 0.136110 0.677251 0.391758
O O8 0.276296 0.750000 0.750000
O O9 0.250000 0.500000 0.821068
#
# Coordination Sequence:
#
# PCOD8283738 Si02
#       4
#    16   8  16  16
#     4  12  26  48  77 111 152 202 260 313 390 466
#     4  12  27  50  81 110 155 214 255 318 393 470
#     4  12  27  48  77 112 155 201 256 324 390 461
#     4  12  27  49  78 114 154 206 261 319 392 469
#
# _framework density 25.822808999999999
#
# number of rings (size 3 to 8) (size 9 to 14) (size 15 to 20)
#    0.000    0.000    5.714    3.857    4.000    0.000 
#    0.000    3.571    0.000    0.000    0.000    0.000 
#    0.000    0.000    0.000    0.000    0.000    0.000 
#
# Total GULP energy -346907.373169 kJ/mol
# GULP energy per Si atom -12389.549042 kJ/mol
# Density = 2.576404 g / cm^3
# Si number density = 25.822809 Si / 1000 Ang^3
#
#
#
# Elastic Constant Matrix: (Units=GPa)
#
#
# Indices 1 2 3 4 5 6 
#
# 1 64.1912 -10.8216 12.5322 0.0000 0.0000 0.0000
# 2 -10.8216 106.5200 24.1285 0.0000 0.0000 0.0000
# 3 12.5322 24.1285 185.1936 0.0000 0.0000 0.0000
# 4 0.0000 0.0000 0.0000 36.9748 0.0000 0.0000
# 5 0.0000 0.0000 0.0000 0.0000 49.8943 0.0000
# 6 0.0000 0.0000 0.0000 0.0000 0.0000 37.5810
#
#
#
# Elastic Compliance Matrix: (Units=1/GPa)
#
#
# Indices 1 2 3 4 5 6 
#
# 1 0.016170 0.001948 -0.001348 0.000000 0.000000 0.000000
# 2 0.001948 0.009908 -0.001423 0.000000 0.000000 0.000000
# 3 -0.001348 -0.001423 0.005676 0.000000 0.000000 0.000000
# 4 0.000000 0.000000 0.000000 0.027045 0.000000 0.000000
# 5 0.000000 0.000000 0.000000 0.000000 0.020042 0.000000
# 6 0.000000 0.000000 0.000000 0.000000 0.000000 0.026609
#
#
# Mechanical properties :
#
#
# Convention : Reuss Voigt Hill
#
# Bulk Modulus (GPa) = 33.21251 45.28700 39.24976
# Shear Modulus (GPa) = 42.68643 46.89440 44.79042
#
# Velocity S-wave (km/s) = 4.07018 4.26609 4.16929
# Velocity P-wave (km/s) = 5.91423 6.46851 6.19757
#
# Compressibility (1/GPa) = 0.03010914
#
# Stress axis : x y z
#
# Youngs Moduli (GPa) = 61.84270 100.92757 176.16970
#
# Poissons Ratio (x) = -0.19662 0.23749
# Poissons Ratio (y) = -0.12048 0.25064
# Poissons Ratio (z) = 0.08337 0.14359
#
# Static dielectric constant tensor:
#      x y z
#    x 4.497410 0.000000 0.000000 
#    y 0.000000 5.174010 0.000000 
#    z 0.000000 0.000000 3.860840 
# 
# 
# High freq. dielectric constant tensor:
#      x y z
#    x 2.037100 0.000000 0.000000 
#    y 0.000000 2.028970 0.000000 
#    z 0.000000 0.000000 2.055790 
# 
# From -- ./inp_files/21596.got.cif
#   From: 2010.03.12/outbox.cif.g09.slc.cpg/sg68_11_cif.got.tgz:21596.got - 2010.04.10 23:14:56.
