data_PCOD8283963
_publ_section_title
;
Structure prediction by ZEFSAII (Michael W. Deem and Ramdas Pophale) SiO2 
 PCOD8283963
Probable space group: F M M M
;
_chemical_formula_sum "Si O2"
_cell_formula_units_Z 112
_cell_length_a 8.985592
_cell_length_b 21.007613
_cell_length_c 28.008948
_cell_angle_alpha 90.000000
_cell_angle_beta 90.000000
_cell_angle_gamma 90.000000
_cell_volume 5287.132577
_symmetry_space_group_name_H-M "F M M M"
_symmetry_group_IT_number 69
_symmetry_cell_setting 'orthorhombic'
loop_
_space_group_symop_operation_xyz
x,y,z
-x,-y,z
x,-y,-z
-x,y,-z
-x,-y,-z
x,y,-z
-x,y,z
x,-y,z
x,1/2+y,1/2+z
-x,1/2-y,1/2+z
x,1/2-y,1/2-z
-x,1/2+y,1/2-z
-x,1/2-y,1/2-z
x,1/2+y,1/2-z
-x,1/2+y,1/2+z
x,1/2-y,1/2+z
1/2+x,y,1/2+z
1/2-x,-y,1/2+z
1/2+x,-y,1/2-z
1/2-x,y,1/2-z
1/2-x,-y,1/2-z
1/2+x,y,1/2-z
1/2-x,y,1/2+z
1/2+x,-y,1/2+z
1/2+x,1/2+y,z
1/2-x,1/2-y,z
1/2+x,1/2-y,-z
1/2-x,1/2+y,-z
1/2-x,1/2-y,-z
1/2+x,1/2+y,-z
1/2-x,1/2+y,z
1/2+x,1/2-y,z
loop_
_atom_site_type_symbol
_atom_site_label
_atom_site_fract_x
_atom_site_fract_y
_atom_site_fract_z
Si Si1 0.830345 0.928616 0.443601
Si Si2 0.831521 0.686645 0.605071
Si Si3 0.828411 0.623887 0.299358
Si Si4 0.677894 0.000000 0.197707
O O1 0.810122 0.924940 0.500000
O O2 0.727132 0.876434 0.419902
O O3 0.000000 0.914482 0.428918
O O4 0.787240 0.000000 0.425642
O O5 0.750000 0.750000 0.587390
O O6 0.817856 0.680882 0.662627
O O7 0.000000 0.694543 0.588898
O O8 0.750000 0.644855 0.250000
O O9 0.742287 0.564709 0.325210
O O10 0.000000 0.605589 0.288492
O O11 0.750000 0.000000 0.250000
O O12 0.500000 0.000000 0.197080
#
# Coordination Sequence:
#
# PCOD8283963 Si02
#       4
#    32  32  32  16
#     4   9  20  41  68  96 124 155 195 244 300 363
#     4  11  25  41  60  88 123 162 205 251 300 359
#     4  10  21  37  56  82 117 157 202 250 298 353
#     4  10  18  30  52  80 109 146 191 242 296 347
#
# _framework density 21.183505
#
# number of rings (size 3 to 8) (size 9 to 14) (size 15 to 20)
#    0.000    2.000    0.000    5.571    2.000    6.857 
#    0.000    4.286    0.000    0.000    0.000    0.000 
#    0.000    0.000    0.000    0.000    0.000    0.000 
#
# Total GULP energy -347113.011125 kJ/mol
# GULP energy per Si atom -12396.893254 kJ/mol
# Density = 2.113529 g / cm^3
# Si number density = 21.183505 Si / 1000 Ang^3
#
#
#
# Elastic Constant Matrix: (Units=GPa)
#
#
# Indices 1 2 3 4 5 6 
#
# 1 186.6339 84.8506 42.4679 0.0000 0.0000 0.0000
# 2 84.8506 137.2260 39.9787 0.0000 0.0000 0.0000
# 3 42.4679 39.9787 30.0471 0.0000 0.0000 0.0000
# 4 0.0000 0.0000 0.0000 22.6497 0.0000 0.0000
# 5 0.0000 0.0000 0.0000 0.0000 28.3401 0.0000
# 6 0.0000 0.0000 0.0000 0.0000 0.0000 35.1276
#
#
#
# Elastic Compliance Matrix: (Units=1/GPa)
#
#
# Indices 1 2 3 4 5 6 
#
# 1 0.008543 -0.002882 -0.008241 0.000000 0.000000 0.000000
# 2 -0.002882 0.012872 -0.013054 0.000000 0.000000 0.000000
# 3 -0.008241 -0.013054 0.062297 0.000000 0.000000 0.000000
# 4 0.000000 0.000000 0.000000 0.044151 0.000000 0.000000
# 5 0.000000 0.000000 0.000000 0.000000 0.035286 0.000000
# 6 0.000000 0.000000 0.000000 0.000000 0.000000 0.028468
#
#
# Mechanical properties :
#
#
# Convention : Reuss Voigt Hill
#
# Bulk Modulus (GPa) = 28.28076 76.50015 52.39046
# Shear Modulus (GPa) = 19.86055 29.66414 24.76235
#
# Velocity S-wave (km/s) = 3.06526 3.74617 3.42269
# Velocity P-wave (km/s) = 5.08990 7.40967 6.35651
#
# Compressibility (1/GPa) = 0.03535973
#
# Stress axis : x y z
#
# Youngs Moduli (GPa) = 117.04954 77.68692 16.05222
#
# Poissons Ratio (x) = 0.22388 0.13228
# Poissons Ratio (y) = 0.33732 0.20954
# Poissons Ratio (z) = 0.96456 1.01411
#
# Static dielectric constant tensor:
#      x y z
#    x 3.896630 0.000000 0.000000 
#    y 0.000000 4.109740 0.000000 
#    z 0.000000 0.000000 3.700110 
# 
# 
# High freq. dielectric constant tensor:
#      x y z
#    x 1.837290 0.000000 0.000000 
#    y 0.000000 1.828580 0.000000 
#    z 0.000000 0.000000 1.825780 
# 
# From -- ./inp_files/44300.got.cif
#   From: 2010.03.12/outbox.cif.g09.slc.cpg/sg69_23_cif.got.tgz:44300.got - 2010.04.10 23:52:46.
