data_PCOD8283659
_publ_section_title
;
Structure prediction by ZEFSAII (Michael W. Deem and Ramdas Pophale) SiO2 
 PCOD8283659
Probable space group: C C C A
;
_chemical_formula_sum "Si O2"
_cell_formula_units_Z 56
_cell_length_a 10.300965
_cell_length_b 16.032679
_cell_length_c 14.963001
_cell_angle_alpha 90.000000
_cell_angle_beta 90.000000
_cell_angle_gamma 90.000000
_cell_volume 2471.170517
_symmetry_space_group_name_H-M "C C C A"
_symmetry_group_IT_number 68
_space_group.IT_coordinate_system_code '2'
_symmetry_cell_setting 'orthorhombic'
loop_
_space_group_symop_operation_xyz
x,y,z
-x,1/2-y,z
x,1/2-y,1/2-z
-x,y,1/2-z
-x,-y,-z
x,1/2+y,-z
-x,1/2+y,1/2+z
x,-y,1/2+z
1/2+x,1/2+y,z
1/2-x,-y,z
1/2+x,-y,1/2-z
1/2-x,1/2+y,1/2-z
1/2-x,1/2-y,-z
1/2+x,y,-z
1/2-x,y,1/2+z
1/2+x,1/2-y,1/2+z
loop_
_atom_site_type_symbol
_atom_site_label
_atom_site_fract_x
_atom_site_fract_y
_atom_site_fract_z
Si Si1 0.127432 0.052507 0.511174
Si Si2 0.746227 0.750000 0.250000
Si Si3 0.142559 0.927530 0.216647
Si Si4 0.136993 0.778641 0.935457
O O1 0.139168 0.088690 0.610766
O O2 0.128921 0.122161 0.434954
O O3 0.250000 0.000000 0.484383
O O4 0.000000 0.000000 0.500000
O O5 0.827957 0.663703 0.259996
O O6 0.655638 0.741777 0.163272
O O7 0.000000 0.957347 0.250000
O O8 0.250000 0.000000 0.239522
O O9 0.000000 0.750000 0.975668
O O10 0.250000 0.750000 0.000000
#
# Coordination Sequence:
#
# PCOD8283659 Si02
#       4
#    16   8  16  16
#     4  11  26  47  75 108 146 194 244 305 377 446
#     4  12  28  48  76 112 152 204 252 308 380 452
#     4  11  28  48  75 112 150 195 252 310 376 449
#     4  12  27  48  75 109 149 194 250 310 374 447
#
# _framework density 22.661324
#
# number of rings (size 3 to 8) (size 9 to 14) (size 15 to 20)
#    0.000    0.571    2.857    2.571   16.000    0.000 
#    0.000    0.000    0.000    0.000    0.000    0.000 
#    0.000    0.000    0.000    0.000    0.000    0.000 
#
# Total GULP energy -347177.644641 kJ/mol
# GULP energy per Si atom -12399.201594 kJ/mol
# Density = 2.260975 g / cm^3
# Si number density = 22.661324 Si / 1000 Ang^3
#
#
#
# Elastic Constant Matrix: (Units=GPa)
#
#
# Indices 1 2 3 4 5 6 
#
# 1 213.0169 78.3667 43.0902 0.0000 0.0000 0.0000
# 2 78.3667 157.8054 29.4152 0.0000 0.0000 0.0000
# 3 43.0902 29.4152 91.4675 0.0000 0.0000 0.0000
# 4 0.0000 0.0000 0.0000 43.2311 0.0000 0.0000
# 5 0.0000 0.0000 0.0000 0.0000 59.6665 0.0000
# 6 0.0000 0.0000 0.0000 0.0000 0.0000 38.9222
#
#
#
# Elastic Compliance Matrix: (Units=1/GPa)
#
#
# Indices 1 2 3 4 5 6 
#
# 1 0.006073 -0.002641 -0.002012 0.000000 0.000000 0.000000
# 2 -0.002641 0.007889 -0.001293 0.000000 0.000000 0.000000
# 3 -0.002012 -0.001293 0.012296 0.000000 0.000000 0.000000
# 4 0.000000 0.000000 0.000000 0.023132 0.000000 0.000000
# 5 0.000000 0.000000 0.000000 0.000000 0.016760 0.000000
# 6 0.000000 0.000000 0.000000 0.000000 0.000000 0.025692
#
#
# Mechanical properties :
#
#
# Convention : Reuss Voigt Hill
#
# Bulk Modulus (GPa) = 69.60136 84.89265 77.24701
# Shear Modulus (GPa) = 46.07328 49.12512 47.59920
#
# Velocity S-wave (km/s) = 4.51391 4.66101 4.58805
# Velocity P-wave (km/s) = 7.61233 8.15533 7.88851
#
# Compressibility (1/GPa) = 0.01436754
#
# Stress axis : x y z
#
# Youngs Moduli (GPa) = 164.66480 126.75222 81.32475
#
# Poissons Ratio (x) = 0.33474 0.16360
# Poissons Ratio (y) = 0.43486 0.10516
# Poissons Ratio (z) = 0.33125 0.16390
#
# Static dielectric constant tensor:
#      x y z
#    x 4.211320 0.000000 0.000000 
#    y 0.000000 4.358040 0.000000 
#    z 0.000000 0.000000 4.174300 
# 
# 
# High freq. dielectric constant tensor:
#      x y z
#    x 1.908330 0.000000 0.000000 
#    y 0.000000 1.907620 0.000000 
#    z 0.000000 0.000000 1.894740 
# 
# From -- ./inp_files/20138.got.cif
#   From: 2010.03.12/outbox.cif.g09.slc.cpg/sg68_11_cif.got.tgz:20138.got - 2010.04.10 23:14:56.
