data_PCOD8283493
_publ_section_title
;
Structure prediction by ZEFSAII (Michael W. Deem and Ramdas Pophale) SiO2 
 PCOD8283493
Probable space group: C C C A
;
_chemical_formula_sum "Si O2"
_cell_formula_units_Z 80
_cell_length_a 16.455746
_cell_length_b 8.841407
_cell_length_c 26.085499
_cell_angle_alpha 90.000000
_cell_angle_beta 90.000000
_cell_angle_gamma 90.000000
_cell_volume 3795.230061
_symmetry_space_group_name_H-M "C C C A"
_symmetry_group_IT_number 68
_space_group.IT_coordinate_system_code '2'
_symmetry_cell_setting 'orthorhombic'
loop_
_space_group_symop_operation_xyz
x,y,z
-x,1/2-y,z
x,1/2-y,1/2-z
-x,y,1/2-z
-x,-y,-z
x,1/2+y,-z
-x,1/2+y,1/2+z
x,-y,1/2+z
1/2+x,1/2+y,z
1/2-x,-y,z
1/2+x,-y,1/2-z
1/2-x,1/2+y,1/2-z
1/2-x,1/2-y,-z
1/2+x,y,-z
1/2-x,y,1/2+z
1/2+x,1/2-y,1/2+z
loop_
_atom_site_type_symbol
_atom_site_label
_atom_site_fract_x
_atom_site_fract_y
_atom_site_fract_z
Si Si1 0.165796 0.083534 0.869297
Si Si2 0.567399 0.461764 0.540615
Si Si3 0.916633 0.188967 0.807243
Si Si4 0.836712 0.743606 0.474753
Si Si5 0.999880 0.079197 0.152498
O O1 0.159732 0.246688 0.839861
O O2 0.160160 0.117087 0.929869
O O3 0.250000 0.000000 0.856083
O O4 0.092499 0.982620 0.846621
O O5 0.500000 0.500000 0.500000
O O6 0.606836 0.306546 0.521649
O O7 0.634201 0.594613 0.545879
O O8 0.529995 0.429108 0.594943
O O9 0.907579 0.250000 0.750000
O O10 0.000000 0.250000 0.833506
O O11 0.933276 0.008523 0.811368
O O12 0.750000 0.750000 0.500000
O O13 0.000000 0.250000 0.173066
#
# Coordination Sequence:
#
# PCOD8283493 Si02
#       5
#    16  16  16  16  16
#     4  11  23  42  63  91 131 172 215 269 328 386
#     4  12  23  38  61  91 128 174 219 261 320 386
#     4   9  20  44  73  94 122 171 221 270 336 397
#     4  12  25  40  57  91 132 175 220 268 321 387
#     4  11  23  41  66 100 129 166 222 275 323 397
#
# _framework density 21.079091999999999
#
# number of rings (size 3 to 8) (size 9 to 14) (size 15 to 20)
#    0.000    1.000    4.000    3.600    2.800    0.000 
#    0.000   11.000    0.000    0.000    0.000    0.000 
#    0.000    0.000    0.000    0.000    0.000    0.000 
#
# Total GULP energy -495776.882973 kJ/mol
# GULP energy per Si atom -12394.422074 kJ/mol
# Density = 2.103111 g / cm^3
# Si number density = 21.079092 Si / 1000 Ang^3
#
#
#
# Elastic Constant Matrix: (Units=GPa)
#
#
# Indices 1 2 3 4 5 6 
#
# 1 97.3651 35.5539 32.4419 0.0000 0.0000 0.0000
# 2 35.5539 135.8573 34.7398 0.0000 0.0000 0.0000
# 3 32.4419 34.7398 94.8824 0.0000 0.0000 0.0000
# 4 0.0000 0.0000 0.0000 26.6304 0.0000 0.0000
# 5 0.0000 0.0000 0.0000 0.0000 21.2336 0.0000
# 6 0.0000 0.0000 0.0000 0.0000 0.0000 44.3253
#
#
#
# Elastic Compliance Matrix: (Units=1/GPa)
#
#
# Indices 1 2 3 4 5 6 
#
# 1 0.012237 -0.002353 -0.003323 0.000000 0.000000 0.000000
# 2 -0.002353 0.008573 -0.002335 0.000000 0.000000 0.000000
# 3 -0.003323 -0.002335 0.012530 0.000000 0.000000 0.000000
# 4 0.000000 0.000000 0.000000 0.037551 0.000000 0.000000
# 5 0.000000 0.000000 0.000000 0.000000 0.047095 0.000000
# 6 0.000000 0.000000 0.000000 0.000000 0.000000 0.022560
#
#
# Mechanical properties :
#
#
# Convention : Reuss Voigt Hill
#
# Bulk Modulus (GPa) = 57.73475 59.28622 58.51048
# Shear Modulus (GPa) = 30.79951 33.46248 32.13100
#
# Velocity S-wave (km/s) = 3.82663 3.98863 3.90847
# Velocity P-wave (km/s) = 6.85370 7.02844 6.94162
#
# Compressibility (1/GPa) = 0.01732059
#
# Stress axis : x y z
#
# Youngs Moduli (GPa) = 81.72052 116.64052 79.80747
#
# Poissons Ratio (x) = 0.27443 0.26516
# Poissons Ratio (y) = 0.19227 0.18631
# Poissons Ratio (z) = 0.27152 0.27230
#
# Static dielectric constant tensor:
#      x y z
#    x 3.818410 0.000000 0.000000 
#    y 0.000000 4.310060 0.000000 
#    z 0.000000 0.000000 3.625940 
# 
# 
# High freq. dielectric constant tensor:
#      x y z
#    x 1.814990 0.000000 0.000000 
#    y 0.000000 1.833320 0.000000 
#    z 0.000000 0.000000 1.817770 
# 
# From -- ./inp_files/49102.got.cif
#   From: 2010.03.12/outbox.cif.g09.slc.cpg/sg68_25_cif.got.tgz:49102.got - 2010.04.10 23:14:56.
