data_PCOD8283030
_publ_section_title
;
Structure prediction by ZEFSAII (Michael W. Deem and Ramdas Pophale) SiO2 
 PCOD8283030
Probable space group: C C C A
;
_chemical_formula_sum "Si O2"
_cell_formula_units_Z 96
_cell_length_a 9.516563
_cell_length_b 20.518232
_cell_length_c 24.326304
_cell_angle_alpha 90.000000
_cell_angle_beta 90.000000
_cell_angle_gamma 90.000000
_cell_volume 4750.028253
_symmetry_space_group_name_H-M "C C C A"
_symmetry_group_IT_number 68
_space_group.IT_coordinate_system_code '2'
_symmetry_cell_setting 'orthorhombic'
loop_
_space_group_symop_operation_xyz
x,y,z
-x,1/2-y,z
x,1/2-y,1/2-z
-x,y,1/2-z
-x,-y,-z
x,1/2+y,-z
-x,1/2+y,1/2+z
x,-y,1/2+z
1/2+x,1/2+y,z
1/2-x,-y,z
1/2+x,-y,1/2-z
1/2-x,1/2+y,1/2-z
1/2-x,1/2-y,-z
1/2+x,y,-z
1/2-x,y,1/2+z
1/2+x,1/2-y,1/2+z
loop_
_atom_site_type_symbol
_atom_site_label
_atom_site_fract_x
_atom_site_fract_y
_atom_site_fract_z
Si Si1 0.658746 0.758406 0.359705
Si Si2 0.485997 0.089591 0.106239
Si Si3 0.277789 0.864884 0.424416
Si Si4 0.244776 0.649743 0.954998
Si Si5 0.425530 0.189831 0.191021
Si Si6 0.033119 0.539072 0.944773
O O1 0.500000 0.750000 0.337105
O O2 0.711369 0.686443 0.374935
O O3 0.659864 0.800938 0.415857
O O4 0.757714 0.792656 0.312876
O O5 0.648109 0.089055 0.089778
O O6 0.404007 0.138411 0.065028
O O7 0.456251 0.118598 0.166589
O O8 0.440361 0.013939 0.103617
O O9 0.251294 0.826166 0.481938
O O10 0.412349 0.910740 0.428143
O O11 0.175661 0.578354 0.953077
O O12 0.500000 0.250000 0.157747
O O13 0.500000 0.189048 0.250000
O O14 0.000000 0.500000 0.000000
#
# Coordination Sequence:
#
# PCOD8283030 Si02
#       6
#    16  16  16  16  16  16
#     4  11  23  40  61  97 127 161 211 271 323 372
#     4  11  23  35  61  90 120 168 219 254 300 378
#     4  12  21  37  56  89 133 177 213 251 300 373
#     4  11  22  36  56  87 137 178 210 246 302 374
#     4  10  22  45  70  89 112 157 216 271 332 376
#     4  12  22  36  56  85 135 182 214 242 301 377
#
# _framework density 20.210405999999999
#
# number of rings (size 3 to 8) (size 9 to 14) (size 15 to 20)
#    0.000    0.833    6.667    1.500    0.000    0.000 
#    0.000    1.667    0.000    8.000    0.000    0.000 
#    0.000    0.000    0.000    0.000    0.000    0.000 
#
# Total GULP energy -594918.446045 kJ/mol
# GULP energy per Si atom -12394.134293 kJ/mol
# Density = 2.016441 g / cm^3
# Si number density = 20.210406 Si / 1000 Ang^3
#
#
#
# Elastic Constant Matrix: (Units=GPa)
#
#
# Indices 1 2 3 4 5 6 
#
# 1 101.2006 12.7777 38.6612 0.0000 0.0000 0.0000
# 2 12.7777 87.4605 33.5286 0.0000 0.0000 0.0000
# 3 38.6612 33.5286 84.6769 0.0000 0.0000 0.0000
# 4 0.0000 0.0000 0.0000 25.7963 0.0000 0.0000
# 5 0.0000 0.0000 0.0000 0.0000 22.0598 0.0000
# 6 0.0000 0.0000 0.0000 0.0000 0.0000 31.9265
#
#
#
# Elastic Compliance Matrix: (Units=1/GPa)
#
#
# Indices 1 2 3 4 5 6 
#
# 1 0.011981 0.000409 -0.005632 0.000000 0.000000 0.000000
# 2 0.000409 0.013494 -0.005530 0.000000 0.000000 0.000000
# 3 -0.005632 -0.005530 0.016571 0.000000 0.000000 0.000000
# 4 0.000000 0.000000 0.000000 0.038765 0.000000 0.000000
# 5 0.000000 0.000000 0.000000 0.000000 0.045331 0.000000
# 6 0.000000 0.000000 0.000000 0.000000 0.000000 0.031322
#
#
# Mechanical properties :
#
#
# Convention : Reuss Voigt Hill
#
# Bulk Modulus (GPa) = 48.68642 49.25256 48.96949
# Shear Modulus (GPa) = 26.90816 28.51455 27.71135
#
# Velocity S-wave (km/s) = 3.65280 3.76025 3.70691
# Velocity P-wave (km/s) = 6.47554 6.57841 6.52718
#
# Compressibility (1/GPa) = 0.02053961
#
# Stress axis : x y z
#
# Youngs Moduli (GPa) = 83.46265 74.10785 60.34779
#
# Poissons Ratio (x) = -0.03029 0.33989
# Poissons Ratio (y) = -0.03411 0.33370
# Poissons Ratio (z) = 0.47008 0.40979
#
# Static dielectric constant tensor:
#      x y z
#    x 3.797850 0.000000 0.000000 
#    y 0.000000 4.087760 0.000000 
#    z 0.000000 0.000000 3.318140 
# 
# 
# High freq. dielectric constant tensor:
#      x y z
#    x 1.807590 0.000000 0.000000 
#    y 0.000000 1.793800 0.000000 
#    z 0.000000 0.000000 1.742060 
# 
# From -- ./inp_files/49295.got.cif
#   From: 2010.03.12/outbox.cif.g09.slc.cpg/sg68_25_cif.got.tgz:49295.got - 2010.04.10 23:14:56.
