data_PCOD8283211
_publ_section_title
;
Structure prediction by ZEFSAII (Michael W. Deem and Ramdas Pophale) SiO2 
 PCOD8283211
Probable space group: C C C A
;
_chemical_formula_sum "Si O2"
_cell_formula_units_Z 104
_cell_length_a 19.602368
_cell_length_b 9.044458
_cell_length_c 27.895611
_cell_angle_alpha 90.000000
_cell_angle_beta 90.000000
_cell_angle_gamma 90.000000
_cell_volume 4945.690817
_symmetry_space_group_name_H-M "C C C A"
_symmetry_group_IT_number 68
_space_group.IT_coordinate_system_code '2'
_symmetry_cell_setting 'orthorhombic'
loop_
_space_group_symop_operation_xyz
x,y,z
-x,1/2-y,z
x,1/2-y,1/2-z
-x,y,1/2-z
-x,-y,-z
x,1/2+y,-z
-x,1/2+y,1/2+z
x,-y,1/2+z
1/2+x,1/2+y,z
1/2-x,-y,z
1/2+x,-y,1/2-z
1/2-x,1/2+y,1/2-z
1/2-x,1/2-y,-z
1/2+x,y,-z
1/2-x,y,1/2+z
1/2+x,1/2-y,1/2+z
loop_
_atom_site_type_symbol
_atom_site_label
_atom_site_fract_x
_atom_site_fract_y
_atom_site_fract_z
Si Si1 0.351491 0.560565 0.638607
Si Si2 0.206150 0.637206 0.968305
Si Si3 0.922033 0.409403 0.764270
Si Si4 0.500000 0.750000 0.001645
Si Si5 0.690064 0.101309 0.777762
Si Si6 0.911619 0.506254 0.464283
Si Si7 0.720218 0.265236 0.868134
O O1 0.410009 0.580823 0.678550
O O2 0.383758 0.526032 0.588022
O O3 0.311186 0.414053 0.653868
O O4 0.302206 0.704218 0.632371
O O5 0.250000 0.500000 0.950028
O O6 0.188427 0.731012 0.920671
O O7 0.250000 0.750000 0.000000
O O8 0.142931 0.560706 0.995852
O O9 0.893688 0.250000 0.750000
O O10 0.882990 0.530921 0.733040
O O11 0.000000 0.430175 0.750000
O O12 0.438413 0.665563 0.030824
O O13 0.525874 0.619028 0.967902
O O14 0.698881 0.250000 0.750000
O O15 0.699735 0.128110 0.834527
O O16 0.750000 0.000000 0.757305
#
# Coordination Sequence:
#
# PCOD8283211 Si02
#       7
#    16  16  16   8  16  16  16
#     4  11  22  43  69  98 134 176 223 291 350 410
#     4  12  23  40  67 103 139 172 219 290 350 412
#     4  11  26  48  69  97 137 180 230 286 353 418
#     4  10  24  44  62  94 132 194 226 268 328 414
#     4  12  23  43  69 100 133 173 226 288 342 415
#     4  11  23  43  67  94 140 177 231 277 341 406
#     4  11  23  39  68 104 132 175 226 278 362 412
#
# _framework density 21.028407000000001
#
# number of rings (size 3 to 8) (size 9 to 14) (size 15 to 20)
#    0.000    0.769    3.077    5.538    0.000    1.538 
#    8.308    0.000    0.000    0.000    0.000    0.000 
#    0.000    0.000    0.000    0.000    0.000    0.000 
#
# Total GULP energy -644509.992261 kJ/mol
# GULP energy per Si atom -12394.422928 kJ/mol
# Density = 2.098055 g / cm^3
# Si number density = 21.028407 Si / 1000 Ang^3
#
#
#
# Elastic Constant Matrix: (Units=GPa)
#
#
# Indices 1 2 3 4 5 6 
#
# 1 98.8183 41.6339 62.6880 0.0000 0.0000 0.0000
# 2 41.6339 125.9269 53.1825 0.0000 0.0000 0.0000
# 3 62.6880 53.1825 134.9624 0.0000 0.0000 0.0000
# 4 0.0000 0.0000 0.0000 33.4834 0.0000 0.0000
# 5 0.0000 0.0000 0.0000 0.0000 30.6604 0.0000
# 6 0.0000 0.0000 0.0000 0.0000 0.0000 46.2599
#
#
#
# Elastic Compliance Matrix: (Units=1/GPa)
#
#
# Indices 1 2 3 4 5 6 
#
# 1 0.014932 -0.002409 -0.005987 0.000000 0.000000 0.000000
# 2 -0.002409 0.009915 -0.002788 0.000000 0.000000 0.000000
# 3 -0.005987 -0.002788 0.011289 0.000000 0.000000 0.000000
# 4 0.000000 0.000000 0.000000 0.029866 0.000000 0.000000
# 5 0.000000 0.000000 0.000000 0.000000 0.032615 0.000000
# 6 0.000000 0.000000 0.000000 0.000000 0.000000 0.021617
#
#
# Mechanical properties :
#
#
# Convention : Reuss Voigt Hill
#
# Bulk Modulus (GPa) = 72.62662 74.96848 73.79755
# Shear Modulus (GPa) = 33.96955 35.56096 34.76526
#
# Velocity S-wave (km/s) = 4.02358 4.11675 4.07043
# Velocity P-wave (km/s) = 7.49653 7.63710 7.56714
#
# Compressibility (1/GPa) = 0.01376906
#
# Stress axis : x y z
#
# Youngs Moduli (GPa) = 66.96970 100.85715 88.58231
#
# Poissons Ratio (x) = 0.24292 0.53031
# Poissons Ratio (y) = 0.16130 0.24700
# Poissons Ratio (z) = 0.40092 0.28122
#
# Static dielectric constant tensor:
#      x y z
#    x 4.165960 0.000000 0.000000 
#    y 0.000000 4.680250 0.000000 
#    z 0.000000 0.000000 3.822930 
# 
# 
# High freq. dielectric constant tensor:
#      x y z
#    x 1.817810 0.000000 0.000000 
#    y 0.000000 1.844740 0.000000 
#    z 0.000000 0.000000 1.826280 
# 
# From -- ./inp_files/51844.got.cif
#   From: 2010.03.12/outbox.cif.g09.slc.cpg/sg68_26_cif.got.tgz:51844.got - 2010.04.10 23:14:56.
