data_PCOD8283428
_publ_section_title
;
Structure prediction by ZEFSAII (Michael W. Deem and Ramdas Pophale) SiO2 
 PCOD8283428
Probable space group: C C C A
;
_chemical_formula_sum "Si O2"
_cell_formula_units_Z 72
_cell_length_a 12.497064
_cell_length_b 21.303855
_cell_length_c 13.400800
_cell_angle_alpha 90.000000
_cell_angle_beta 90.000000
_cell_angle_gamma 90.000000
_cell_volume 3567.770556
_symmetry_space_group_name_H-M "C C C A"
_symmetry_group_IT_number 68
_space_group.IT_coordinate_system_code '2'
_symmetry_cell_setting 'orthorhombic'
loop_
_space_group_symop_operation_xyz
x,y,z
-x,1/2-y,z
x,1/2-y,1/2-z
-x,y,1/2-z
-x,-y,-z
x,1/2+y,-z
-x,1/2+y,1/2+z
x,-y,1/2+z
1/2+x,1/2+y,z
1/2-x,-y,z
1/2+x,-y,1/2-z
1/2-x,1/2+y,1/2-z
1/2-x,1/2-y,-z
1/2+x,y,-z
1/2-x,y,1/2+z
1/2+x,1/2-y,1/2+z
loop_
_atom_site_type_symbol
_atom_site_label
_atom_site_fract_x
_atom_site_fract_y
_atom_site_fract_z
Si Si1 0.591118 0.571524 0.608554
Si Si2 0.901895 0.797824 0.495301
Si Si3 0.750000 0.000000 0.027469
Si Si4 0.360576 0.587744 0.672860
Si Si5 0.766828 0.217772 0.647561
O O1 0.567741 0.634371 0.546133
O O2 0.647967 0.518502 0.541056
O O3 0.471869 0.553820 0.643911
O O4 0.663035 0.578237 0.708963
O O5 0.814594 0.772061 0.419642
O O6 0.845196 0.806953 0.602441
O O7 0.000000 0.750000 0.505793
O O8 0.727826 0.058386 0.100056
O O9 0.355503 0.662725 0.656853
O O10 0.736487 0.250000 0.750000
#
# Coordination Sequence:
#
# PCOD8283428 Si02
#       5
#    16  16   8  16  16
#     4  11  23  40  66  93 122 165 212 258 306 379
#     4  11  22  38  64  95 124 160 204 259 318 370
#     4  12  24  44  62  88 130 168 206 262 310 370
#     4  11  23  40  64  93 123 165 213 254 311 374
#     4  11  22  38  64  93 125 161 203 257 318 371
#
# _framework density 20.180669000000002
#
# number of rings (size 3 to 8) (size 9 to 14) (size 15 to 20)
#    0.000    0.889    6.667    1.333    0.000    0.889 
#    0.000    0.000    0.000    0.000    0.000    0.000 
#    0.000    0.000    0.000    0.000    0.000    0.000 
#
# Total GULP energy -446197.840370 kJ/mol
# GULP energy per Si atom -12394.384455 kJ/mol
# Density = 2.013474 g / cm^3
# Si number density = 20.180669 Si / 1000 Ang^3
#
#
#
# Elastic Constant Matrix: (Units=GPa)
#
#
# Indices 1 2 3 4 5 6 
#
# 1 67.7617 10.0500 42.0971 0.0000 0.0000 0.0000
# 2 10.0500 75.5825 32.1528 0.0000 0.0000 0.0000
# 3 42.0971 32.1528 123.9869 0.0000 0.0000 0.0000
# 4 0.0000 0.0000 0.0000 33.2647 0.0000 0.0000
# 5 0.0000 0.0000 0.0000 0.0000 29.0998 0.0000
# 6 0.0000 0.0000 0.0000 0.0000 0.0000 32.4448
#
#
#
# Elastic Compliance Matrix: (Units=1/GPa)
#
#
# Indices 1 2 3 4 5 6 
#
# 1 0.018707 0.000241 -0.006414 0.000000 0.000000 0.000000
# 2 0.000241 0.014874 -0.003939 0.000000 0.000000 0.000000
# 3 -0.006414 -0.003939 0.011265 0.000000 0.000000 0.000000
# 4 0.000000 0.000000 0.000000 0.030062 0.000000 0.000000
# 5 0.000000 0.000000 0.000000 0.000000 0.034364 0.000000
# 6 0.000000 0.000000 0.000000 0.000000 0.000000 0.030822
#
#
# Mechanical properties :
#
#
# Convention : Reuss Voigt Hill
#
# Bulk Modulus (GPa) = 40.61491 48.43676 44.52583
# Shear Modulus (GPa) = 29.66932 31.16394 30.41663
#
# Velocity S-wave (km/s) = 3.83846 3.93395 3.88650
# Velocity P-wave (km/s) = 6.30986 6.68493 6.50010
#
# Compressibility (1/GPa) = 0.02462150
#
# Stress axis : x y z
#
# Youngs Moduli (GPa) = 53.45733 67.23044 88.77380
#
# Poissons Ratio (x) = -0.01621 0.56939
# Poissons Ratio (y) = -0.01289 0.34969
# Poissons Ratio (z) = 0.34287 0.26483
#
# Static dielectric constant tensor:
#      x y z
#    x 3.480880 0.000000 0.000000 
#    y 0.000000 3.475490 0.000000 
#    z 0.000000 0.000000 3.994250 
# 
# 
# High freq. dielectric constant tensor:
#      x y z
#    x 1.774510 0.000000 0.000000 
#    y 0.000000 1.779300 0.000000 
#    z 0.000000 0.000000 1.804140 
# 
# From -- ./inp_files/11818.got.cif
#   From: 2010.03.12/outbox.cif.g09.slc.cpg/sg68_6_cif.got.tgz:11818.got - 2010.04.10 23:14:56.
