data_PCOD8283034
_publ_section_title
;
Structure prediction by ZEFSAII (Michael W. Deem and Ramdas Pophale) SiO2 
 PCOD8283034
Probable space group: C C C A
;
_chemical_formula_sum "Si O2"
_cell_formula_units_Z 80
_cell_length_a 15.984218
_cell_length_b 8.258929
_cell_length_c 25.237182
_cell_angle_alpha 90.000000
_cell_angle_beta 90.000000
_cell_angle_gamma 90.000000
_cell_volume 3331.624033
_symmetry_space_group_name_H-M "C C C A"
_symmetry_group_IT_number 68
_space_group.IT_coordinate_system_code '2'
_symmetry_cell_setting 'orthorhombic'
loop_
_space_group_symop_operation_xyz
x,y,z
-x,1/2-y,z
x,1/2-y,1/2-z
-x,y,1/2-z
-x,-y,-z
x,1/2+y,-z
-x,1/2+y,1/2+z
x,-y,1/2+z
1/2+x,1/2+y,z
1/2-x,-y,z
1/2+x,-y,1/2-z
1/2-x,1/2+y,1/2-z
1/2-x,1/2-y,-z
1/2+x,y,-z
1/2-x,y,1/2+z
1/2+x,1/2-y,1/2+z
loop_
_atom_site_type_symbol
_atom_site_label
_atom_site_fract_x
_atom_site_fract_y
_atom_site_fract_z
Si Si1 0.417007 0.845632 0.560713
Si Si2 0.157058 0.466409 0.526752
Si Si3 0.525809 0.077970 0.324375
Si Si4 0.085994 0.836738 0.877190
Si Si5 0.671854 0.379810 0.704417
O O1 0.500000 0.750000 0.543946
O O2 0.344056 0.716203 0.548824
O O3 0.402302 0.004784 0.524685
O O4 0.420554 0.897896 0.621663
O O5 0.250000 0.500000 0.508001
O O6 0.129883 0.591817 0.571780
O O7 0.500000 0.250000 0.299619
O O8 0.440852 0.978836 0.336133
O O9 0.587207 0.984704 0.283196
O O10 0.153076 0.718365 0.849598
O O11 0.000000 0.750000 0.894174
O O12 0.690660 0.250000 0.750000
O O13 0.750000 0.500000 0.697131
#
# Coordination Sequence:
#
# PCOD8283034 Si02
#       5
#    16  16  16  16  16
#     4  11  23  41  65  98 143 196 240 287 338 414
#     4  12  25  38  63 103 146 188 243 288 351 401
#     4  10  22  45  74 104 139 185 239 286 349 418
#     4  10  23  44  70 100 137 185 237 288 344 413
#     4  11  28  49  75 104 140 177 226 293 372 429
#
# _framework density 24.012314
#
# number of rings (size 3 to 8) (size 9 to 14) (size 15 to 20)
#    0.000    1.200    4.000    1.800    8.400    6.800 
#    0.000    1.000    0.000    0.000    0.000    0.000 
#    0.000    0.000    0.000    0.000    0.000    0.000 
#
# Total GULP energy -495920.492821 kJ/mol
# GULP energy per Si atom -12398.012321 kJ/mol
# Density = 2.395766 g / cm^3
# Si number density = 24.012314 Si / 1000 Ang^3
#
#
#
# Elastic Constant Matrix: (Units=GPa)
#
#
# Indices 1 2 3 4 5 6 
#
# 1 93.8391 23.2711 20.7161 0.0000 0.0000 0.0000
# 2 23.2711 128.0155 24.8737 0.0000 0.0000 0.0000
# 3 20.7161 24.8737 94.9319 0.0000 0.0000 0.0000
# 4 0.0000 0.0000 0.0000 34.6274 0.0000 0.0000
# 5 0.0000 0.0000 0.0000 0.0000 19.1916 0.0000
# 6 0.0000 0.0000 0.0000 0.0000 0.0000 52.3190
#
#
#
# Elastic Compliance Matrix: (Units=1/GPa)
#
#
# Indices 1 2 3 4 5 6 
#
# 1 0.011534 -0.001694 -0.002073 0.000000 0.000000 0.000000
# 2 -0.001694 0.008479 -0.001852 0.000000 0.000000 0.000000
# 3 -0.002073 -0.001852 0.011472 0.000000 0.000000 0.000000
# 4 0.000000 0.000000 0.000000 0.028879 0.000000 0.000000
# 5 0.000000 0.000000 0.000000 0.000000 0.052106 0.000000
# 6 0.000000 0.000000 0.000000 0.000000 0.000000 0.019114
#
#
# Mechanical properties :
#
#
# Convention : Reuss Voigt Hill
#
# Bulk Modulus (GPa) = 49.39048 50.50094 49.94571
# Shear Modulus (GPa) = 33.42892 37.75597 35.59244
#
# Velocity S-wave (km/s) = 3.73521 3.96960 3.85419
# Velocity P-wave (km/s) = 6.26226 6.48747 6.37586
#
# Compressibility (1/GPa) = 0.02024682
#
# Stress axis : x y z
#
# Youngs Moduli (GPa) = 86.69792 117.93364 87.17210
#
# Poissons Ratio (x) = 0.19977 0.18072
# Poissons Ratio (y) = 0.14686 0.16145
# Poissons Ratio (z) = 0.17974 0.21842
#
# Static dielectric constant tensor:
#      x y z
#    x 4.176130 0.000000 0.000000 
#    y 0.000000 5.094770 0.000000 
#    z 0.000000 0.000000 4.001150 
# 
# 
# High freq. dielectric constant tensor:
#      x y z
#    x 1.938060 0.000000 0.000000 
#    y 0.000000 1.978670 0.000000 
#    z 0.000000 0.000000 1.941410 
# 
# From -- ./inp_files/51307.got.cif
#   From: 2010.03.12/outbox.cif.g09.slc.cpg/sg68_26_cif.got.tgz:51307.got - 2010.04.10 23:14:56.
