data_PCOD8283549
_publ_section_title
;
Structure prediction by ZEFSAII (Michael W. Deem and Ramdas Pophale) SiO2 
 PCOD8283549
Probable space group: C C C A
;
_chemical_formula_sum "Si O2"
_cell_formula_units_Z 116
_cell_length_a 25.234169
_cell_length_b 8.735987
_cell_length_c 24.015046
_cell_angle_alpha 90.000000
_cell_angle_beta 90.000000
_cell_angle_gamma 90.000000
_cell_volume 5294.005757
_symmetry_space_group_name_H-M "C C C A"
_symmetry_group_IT_number 68
_space_group.IT_coordinate_system_code '2'
_symmetry_cell_setting 'orthorhombic'
loop_
_space_group_symop_operation_xyz
x,y,z
-x,1/2-y,z
x,1/2-y,1/2-z
-x,y,1/2-z
-x,-y,-z
x,1/2+y,-z
-x,1/2+y,1/2+z
x,-y,1/2+z
1/2+x,1/2+y,z
1/2-x,-y,z
1/2+x,-y,1/2-z
1/2-x,1/2+y,1/2-z
1/2-x,1/2-y,-z
1/2+x,y,-z
1/2-x,y,1/2+z
1/2+x,1/2-y,1/2+z
loop_
_atom_site_type_symbol
_atom_site_label
_atom_site_fract_x
_atom_site_fract_y
_atom_site_fract_z
Si Si1 0.000000 0.250000 0.750000
Si Si2 0.164041 0.223121 0.884956
Si Si3 0.349298 0.344207 0.867913
Si Si4 0.743492 0.818589 0.191135
Si Si5 0.623810 0.939913 0.069390
Si Si6 0.505672 0.565452 0.438569
Si Si7 0.931451 0.578061 0.155797
Si Si8 0.191895 0.045217 0.536193
O O1 0.036192 0.360119 0.789866
O O2 0.210542 0.263827 0.843105
O O3 0.107205 0.290628 0.866761
O O4 0.184872 0.276850 0.946400
O O5 0.157756 0.039876 0.887125
O O6 0.313748 0.238596 0.828856
O O7 0.373503 0.238441 0.916412
O O8 0.394303 0.429126 0.830264
O O9 0.316647 0.466716 0.903617
O O10 0.754188 0.750000 0.250000
O O11 0.750000 0.000000 0.190420
O O12 0.563887 0.989673 0.077183
O O13 0.645984 0.982491 0.008421
O O14 0.500000 0.750000 0.436589
O O15 0.500000 0.500000 0.500000
O O16 0.468865 0.477025 0.394545
O O17 0.250000 0.000000 0.512512
#
# Coordination Sequence:
#
# PCOD8283549 Si02
#       8
#     4  16  16  16  16  16  16  16
#     4  12  28  52  86 108 144 200 262 322 388 454
#     4  11  25  45  72 104 144 187 237 295 355 443
#     4  11  24  48  67 108 146 185 242 300 358 433
#     4  12  28  46  73 102 141 191 242 299 364 437
#     4  12  25  42  70 105 145 188 237 287 363 433
#     4  12  27  47  74 107 147 197 248 309 370 443
#     4  11  27  51  77 107 146 192 249 315 372 439
#     4  11  24  38  69 105 148 191 227 290 360 441
#
# _framework density 21.911573000000001
#
# number of rings (size 3 to 8) (size 9 to 14) (size 15 to 20)
#    0.000    0.552    4.138    3.310   11.586    1.103 
#    2.483    0.345    0.000    0.000    0.000    0.000 
#    0.000    0.000    0.000    0.000    0.000    0.000 
#
# Total GULP energy -718604.969251 kJ/mol
# GULP energy per Si atom -12389.740849 kJ/mol
# Density = 2.186170 g / cm^3
# Si number density = 21.911573 Si / 1000 Ang^3
#
#
#
# Elastic Constant Matrix: (Units=GPa)
#
#
# Indices 1 2 3 4 5 6 
#
# 1 145.4274 51.2607 57.7780 0.0000 0.0000 0.0000
# 2 51.2607 120.6195 51.2545 0.0000 0.0000 0.0000
# 3 57.7780 51.2545 111.2571 0.0000 0.0000 0.0000
# 4 0.0000 0.0000 0.0000 41.9044 0.0000 0.0000
# 5 0.0000 0.0000 0.0000 0.0000 12.6951 0.0000
# 6 0.0000 0.0000 0.0000 0.0000 0.0000 41.5487
#
#
#
# Elastic Compliance Matrix: (Units=1/GPa)
#
#
# Indices 1 2 3 4 5 6 
#
# 1 0.009161 -0.002327 -0.003685 0.000000 0.000000 0.000000
# 2 -0.002327 0.010900 -0.003813 0.000000 0.000000 0.000000
# 3 -0.003685 -0.003813 0.012659 0.000000 0.000000 0.000000
# 4 0.000000 0.000000 0.000000 0.023864 0.000000 0.000000
# 5 0.000000 0.000000 0.000000 0.000000 0.078770 0.000000
# 6 0.000000 0.000000 0.000000 0.000000 0.000000 0.024068
#
#
# Mechanical properties :
#
#
# Convention : Reuss Voigt Hill
#
# Bulk Modulus (GPa) = 76.51974 77.54337 77.03155
# Shear Modulus (GPa) = 27.25867 33.69703 30.47785
#
# Velocity S-wave (km/s) = 3.53091 3.92582 3.73359
# Velocity P-wave (km/s) = 7.18477 7.48435 7.33609
#
# Compressibility (1/GPa) = 0.01306852
#
# Stress axis : x y z
#
# Youngs Moduli (GPa) = 109.16187 91.74584 78.99816
#
# Poissons Ratio (x) = 0.21351 0.29113
# Poissons Ratio (y) = 0.25403 0.30120
# Poissons Ratio (z) = 0.40229 0.34981
#
# Static dielectric constant tensor:
#      x y z
#    x 4.261260 0.000000 0.000000 
#    y 0.000000 4.746970 0.000000 
#    z 0.000000 0.000000 3.726750 
# 
# 
# High freq. dielectric constant tensor:
#      x y z
#    x 1.877280 0.000000 0.000000 
#    y 0.000000 1.882620 0.000000 
#    z 0.000000 0.000000 1.845490 
# 
# From -- ./inp_files/47315.got.cif
#   From: 2010.03.12/outbox.cif.g09.slc.cpg/sg68_24_cif.got.tgz:47315.got - 2010.04.10 23:14:56.
