data_PCOD8283312
_publ_section_title
;
Structure prediction by ZEFSAII (Michael W. Deem and Ramdas Pophale) SiO2 
 PCOD8283312
Probable space group: C C C A
;
_chemical_formula_sum "Si O2"
_cell_formula_units_Z 88
_cell_length_a 26.808347
_cell_length_b 13.946109
_cell_length_c 10.689780
_cell_angle_alpha 90.000000
_cell_angle_beta 90.000000
_cell_angle_gamma 90.000000
_cell_volume 3996.610811
_symmetry_space_group_name_H-M "C C C A"
_symmetry_group_IT_number 68
_space_group.IT_coordinate_system_code '2'
_symmetry_cell_setting 'orthorhombic'
loop_
_space_group_symop_operation_xyz
x,y,z
-x,1/2-y,z
x,1/2-y,1/2-z
-x,y,1/2-z
-x,-y,-z
x,1/2+y,-z
-x,1/2+y,1/2+z
x,-y,1/2+z
1/2+x,1/2+y,z
1/2-x,-y,z
1/2+x,-y,1/2-z
1/2-x,1/2+y,1/2-z
1/2-x,1/2-y,-z
1/2+x,y,-z
1/2-x,y,1/2+z
1/2+x,1/2-y,1/2+z
loop_
_atom_site_type_symbol
_atom_site_label
_atom_site_fract_x
_atom_site_fract_y
_atom_site_fract_z
Si Si1 0.418478 0.100641 0.600263
Si Si2 0.000000 0.002306 0.250000
Si Si3 0.077996 0.846413 0.324308
Si Si4 0.361498 0.250000 0.750000
Si Si5 0.656540 0.941446 0.840662
Si Si6 0.750000 0.500000 0.303444
Si Si7 0.712399 0.827671 0.047843
O O1 0.418472 0.166479 0.474687
O O2 0.397026 0.162307 0.714038
O O3 0.473997 0.067483 0.642420
O O4 0.382549 0.008090 0.584204
O O5 0.959610 0.934661 0.186248
O O6 0.059997 0.750000 0.250000
O O7 0.130617 0.879050 0.267772
O O8 0.326776 0.221282 0.862925
O O9 0.700420 0.004384 0.780521
O O10 0.680179 0.867336 0.935078
O O11 0.747754 0.593309 0.389166
O O12 0.750000 0.750000 0.000000
#
# Coordination Sequence:
#
# PCOD8283312 Si02
#       7
#    16   8  16   8  16   8  16
#     4  11  25  48  74 102 145 183 239 297 359 433
#     4  10  25  49  74 108 138 184 230 293 373 434
#     4  11  24  46  74 106 139 179 237 296 359 429
#     4  12  26  47  66 108 140 186 244 289 350 426
#     4  11  25  43  69 102 139 193 233 294 361 417
#     4  12  24  44  68 102 144 190 244 294 358 422
#     4  12  27  43  70 102 148 189 244 294 352 424
#
# _framework density 22.018657999999999
#
# number of rings (size 3 to 8) (size 9 to 14) (size 15 to 20)
#    0.000    0.727    1.818    4.636   10.182    0.364 
#    6.545    0.000    0.000    0.000    0.000    0.000 
#    0.000    0.000    0.000    0.000    0.000    0.000 
#
# Total GULP energy -545753.863028 kJ/mol
# GULP energy per Si atom -12403.496887 kJ/mol
# Density = 2.196854 g / cm^3
# Si number density = 22.018658 Si / 1000 Ang^3
#
#
#
# Elastic Constant Matrix: (Units=GPa)
#
#
# Indices 1 2 3 4 5 6 
#
# 1 127.0224 54.1928 67.6883 0.0000 0.0000 0.0000
# 2 54.1928 123.8098 58.9444 0.0000 0.0000 0.0000
# 3 67.6883 58.9444 143.7465 0.0000 0.0000 0.0000
# 4 0.0000 0.0000 0.0000 25.1805 0.0000 0.0000
# 5 0.0000 0.0000 0.0000 0.0000 30.9050 0.0000
# 6 0.0000 0.0000 0.0000 0.0000 0.0000 31.6882
#
#
#
# Elastic Compliance Matrix: (Units=1/GPa)
#
#
# Indices 1 2 3 4 5 6 
#
# 1 0.011346 -0.003010 -0.004108 0.000000 0.000000 0.000000
# 2 -0.003010 0.010835 -0.003025 0.000000 0.000000 0.000000
# 3 -0.004108 -0.003025 0.010132 0.000000 0.000000 0.000000
# 4 0.000000 0.000000 0.000000 0.039713 0.000000 0.000000
# 5 0.000000 0.000000 0.000000 0.000000 0.032357 0.000000
# 6 0.000000 0.000000 0.000000 0.000000 0.000000 0.031557
#
#
# Mechanical properties :
#
#
# Convention : Reuss Voigt Hill
#
# Bulk Modulus (GPa) = 83.16203 84.02552 83.59378
# Shear Modulus (GPa) = 31.20364 31.80495 31.50429
#
# Velocity S-wave (km/s) = 3.76858 3.80472 3.78670
# Velocity P-wave (km/s) = 7.53573 7.58585 7.56083
#
# Compressibility (1/GPa) = 0.01202472
#
# Stress axis : x y z
#
# Youngs Moduli (GPa) = 88.13456 92.29387 98.69871
#
# Poissons Ratio (x) = 0.27785 0.40549
# Poissons Ratio (y) = 0.26532 0.29860
# Poissons Ratio (z) = 0.36209 0.27922
#
# Static dielectric constant tensor:
#      x y z
#    x 4.531740 0.000000 0.000000 
#    y 0.000000 4.041420 0.000000 
#    z 0.000000 0.000000 4.106550 
# 
# 
# High freq. dielectric constant tensor:
#      x y z
#    x 1.879300 0.000000 0.000000 
#    y 0.000000 1.873200 0.000000 
#    z 0.000000 0.000000 1.871350 
# 
# From -- ./inp_files/16374.got.cif
#   From: 2010.03.12/outbox.cif.g09.slc.cpg/sg68_9_cif.got.tgz:16374.got - 2010.04.10 23:14:56.
