data_PCOD8283882
_publ_section_title
;
Structure prediction by ZEFSAII (Michael W. Deem and Ramdas Pophale) SiO2 
 PCOD8283882
Probable space group: F M M M
;
_chemical_formula_sum "Si O2"
_cell_formula_units_Z 192
_cell_length_a 26.997584
_cell_length_b 25.143652
_cell_length_c 18.066918
_cell_angle_alpha 90.000000
_cell_angle_beta 90.000000
_cell_angle_gamma 90.000000
_cell_volume 12264.146558
_symmetry_space_group_name_H-M "F M M M"
_symmetry_group_IT_number 69
_symmetry_cell_setting 'orthorhombic'
loop_
_space_group_symop_operation_xyz
x,y,z
-x,-y,z
x,-y,-z
-x,y,-z
-x,-y,-z
x,y,-z
-x,y,z
x,-y,z
x,1/2+y,1/2+z
-x,1/2-y,1/2+z
x,1/2-y,1/2-z
-x,1/2+y,1/2-z
-x,1/2-y,1/2-z
x,1/2+y,1/2-z
-x,1/2+y,1/2+z
x,1/2-y,1/2+z
1/2+x,y,1/2+z
1/2-x,-y,1/2+z
1/2+x,-y,1/2-z
1/2-x,y,1/2-z
1/2-x,-y,1/2-z
1/2+x,y,1/2-z
1/2-x,y,1/2+z
1/2+x,-y,1/2+z
1/2+x,1/2+y,z
1/2-x,1/2-y,z
1/2+x,1/2-y,-z
1/2-x,1/2+y,-z
1/2-x,1/2-y,-z
1/2+x,1/2+y,-z
1/2-x,1/2+y,z
1/2+x,1/2-y,z
loop_
_atom_site_type_symbol
_atom_site_label
_atom_site_fract_x
_atom_site_fract_y
_atom_site_fract_z
Si Si1 0.055146 0.140408 0.189585
Si Si2 0.766329 0.694257 0.832368
Si Si3 0.185057 0.354275 0.417508
Si Si4 0.895004 0.061972 0.915036
Si Si5 0.905681 0.722712 0.413804
Si Si6 0.876407 0.300654 0.802001
O O1 0.068088 0.085756 0.146685
O O2 0.053842 0.186606 0.127541
O O3 0.093258 0.154176 0.256934
O O4 0.000000 0.135190 0.223258
O O5 0.750000 0.699968 0.750000
O O6 0.750000 0.750000 0.872691
O O7 0.734278 0.647115 0.868266
O O8 0.824159 0.678170 0.833880
O O9 0.204531 0.349550 0.500000
O O10 0.158127 0.410382 0.403494
O O11 0.147269 0.305953 0.400074
O O12 0.889234 0.000000 0.899823
O O13 0.913540 0.073076 0.000000
O O14 0.918956 0.728517 0.500000
O O15 0.906307 0.780600 0.374647
O O16 0.866096 0.250000 0.750000
#
# Coordination Sequence:
#
# PCOD8283882 Si02
#       6
#    32  32  32  32  32  32
#     4  10  20  32  46  63  88 122 156 194 236 273
#     4  11  16  24  42  64  88 125 155 183 214 255
#     4   9  17  28  43  67  96 122 148 184 228 268
#     4   9  18  33  51  70  93 119 149 186 226 273
#     4   9  17  28  42  63  93 123 153 187 222 272
#     4  10  18  29  42  63  93 125 159 187 221 270
#
# _framework density 15.655390000000001
#
# number of rings (size 3 to 8) (size 9 to 14) (size 15 to 20)
#    0.000    2.333    3.333    3.500    0.000    5.667 
#    0.000    0.833    0.000    4.500    0.000    0.000 
#    0.000    0.667    0.000    1.500    0.000    0.500 
#
# Total GULP energy -594741.857077 kJ/mol
# GULP energy per Si atom -12390.455356 kJ/mol
# Density = 1.561976 g / cm^3
# Si number density = 15.655390 Si / 1000 Ang^3
#
#
#
# Elastic Constant Matrix: (Units=GPa)
#
#
# Indices 1 2 3 4 5 6 
#
# 1 98.1415 35.2622 29.4172 0.0000 0.0000 0.0000
# 2 35.2622 73.0482 38.0228 0.0000 0.0000 0.0000
# 3 29.4172 38.0228 61.4703 0.0000 0.0000 0.0000
# 4 0.0000 0.0000 0.0000 18.7979 0.0000 0.0000
# 5 0.0000 0.0000 0.0000 0.0000 -0.7823 0.0000
# 6 0.0000 0.0000 0.0000 0.0000 0.0000 10.1293
#
#
#
# Elastic Compliance Matrix: (Units=1/GPa)
#
#
# Indices 1 2 3 4 5 6 
#
# 1 0.012790 -0.004407 -0.003395 0.000000 0.000000 0.000000
# 2 -0.004407 0.021709 -0.011319 0.000000 0.000000 0.000000
# 3 -0.003395 -0.011319 0.024894 0.000000 0.000000 0.000000
# 4 0.000000 0.000000 0.000000 0.053198 0.000000 0.000000
# 5 0.000000 0.000000 0.000000 0.000000 -1.278267 0.000000
# 6 0.000000 0.000000 0.000000 0.000000 0.000000 0.098724
#
#
# Mechanical properties :
#
#
# Convention : Reuss Voigt Hill
#
# Bulk Modulus (GPa) = 47.27866 48.67382 47.97624
# Shear Modulus (GPa) = -4.89400 14.29282 4.69941
#
# Velocity S-wave (km/s) = -1.76999 3.02481 1.73445
# Velocity P-wave (km/s) = 5.10764 6.58465 5.89260
#
# Compressibility (1/GPa) = 0.02115119
#
# Stress axis : x y z
#
# Youngs Moduli (GPa) = 78.18333 46.06438 40.17015
#
# Poissons Ratio (x) = 0.20301 0.13637
# Poissons Ratio (y) = 0.34457 0.45469
# Poissons Ratio (z) = 0.26543 0.52140
#
# Static dielectric constant tensor:
#      x y z
#    x 2.990100 0.000000 0.000000 
#    y 0.000000 2.749460 0.000000 
#    z 0.000000 0.000000 3.020230 
# 
# 
# High freq. dielectric constant tensor:
#      x y z
#    x 1.591470 0.000000 0.000000 
#    y 0.000000 1.555110 0.000000 
#    z 0.000000 0.000000 1.595920 
# 
# From -- ./inp_files/32989.got.cif
#   From: 2010.03.12/outbox.cif.g09.slc.cpg/sg69_17_cif.got.tgz:32989.got - 2010.04.10 23:52:46.
