data_PCOD8283107
_publ_section_title
;
Structure prediction by ZEFSAII (Michael W. Deem and Ramdas Pophale) SiO2 
 PCOD8283107
Probable space group: C C C A
;
_chemical_formula_sum "Si O2"
_cell_formula_units_Z 72
_cell_length_a 23.785308
_cell_length_b 14.778850
_cell_length_c 9.344526
_cell_angle_alpha 90.000000
_cell_angle_beta 90.000000
_cell_angle_gamma 90.000000
_cell_volume 3284.783099
_symmetry_space_group_name_H-M "C C C A"
_symmetry_group_IT_number 68
_space_group.IT_coordinate_system_code '2'
_symmetry_cell_setting 'orthorhombic'
loop_
_space_group_symop_operation_xyz
x,y,z
-x,1/2-y,z
x,1/2-y,1/2-z
-x,y,1/2-z
-x,-y,-z
x,1/2+y,-z
-x,1/2+y,1/2+z
x,-y,1/2+z
1/2+x,1/2+y,z
1/2-x,-y,z
1/2+x,-y,1/2-z
1/2-x,1/2+y,1/2-z
1/2-x,1/2-y,-z
1/2+x,y,-z
1/2-x,y,1/2+z
1/2+x,1/2-y,1/2+z
loop_
_atom_site_type_symbol
_atom_site_label
_atom_site_fract_x
_atom_site_fract_y
_atom_site_fract_z
Si Si1 0.693390 0.610800 0.437268
Si Si2 0.556364 0.588434 0.170852
Si Si3 0.604214 0.044620 0.122211
Si Si4 0.636146 0.250000 0.750000
Si Si5 0.797123 0.645403 0.260584
O O1 0.646260 0.535381 0.419533
O O2 0.672548 0.709731 0.381709
O O3 0.750993 0.590522 0.352617
O O4 0.707541 0.606832 0.602704
O O5 0.500000 0.624063 0.250000
O O6 0.570059 0.492071 0.242283
O O7 0.601408 0.667004 0.188381
O O8 0.557819 0.569363 0.999787
O O9 0.641084 0.131050 0.169734
O O10 0.783338 0.750000 0.250000
#
# Coordination Sequence:
#
# PCOD8283107 Si02
#       5
#    16  16  16   8  16
#     4  11  24  40  62  98 133 176 211 261 327 405
#     4  11  23  44  68  92 123 171 222 278 331 384
#     4  11  24  41  65  94 132 166 221 269 326 396
#     4  10  23  42  68  96 130 166 223 268 334 396
#     4  12  24  39  64  95 137 174 214 260 328 396
#
# _framework density 21.919255
#
# number of rings (size 3 to 8) (size 9 to 14) (size 15 to 20)
#    0.000    0.889    3.333    3.667    6.222    1.778 
#    0.000    0.000    0.000    0.000    0.000    0.000 
#    0.000    0.000    0.000    0.000    0.000    0.000 
#
# Total GULP energy -446180.876453 kJ/mol
# GULP energy per Si atom -12393.913235 kJ/mol
# Density = 2.186937 g / cm^3
# Si number density = 21.919255 Si / 1000 Ang^3
#
#
#
# Elastic Constant Matrix: (Units=GPa)
#
#
# Indices 1 2 3 4 5 6 
#
# 1 84.6452 1.0419 37.8491 0.0000 0.0000 0.0000
# 2 1.0419 51.0574 8.1637 0.0000 0.0000 0.0000
# 3 37.8491 8.1637 148.7954 0.0000 0.0000 0.0000
# 4 0.0000 0.0000 0.0000 22.3986 0.0000 0.0000
# 5 0.0000 0.0000 0.0000 0.0000 60.0956 0.0000
# 6 0.0000 0.0000 0.0000 0.0000 0.0000 18.7753
#
#
#
# Elastic Compliance Matrix: (Units=1/GPa)
#
#
# Indices 1 2 3 4 5 6 
#
# 1 0.013334 0.000273 -0.003407 0.000000 0.000000 0.000000
# 2 0.000273 0.019765 -0.001154 0.000000 0.000000 0.000000
# 3 -0.003407 -0.001154 0.007651 0.000000 0.000000 0.000000
# 4 0.000000 0.000000 0.000000 0.044646 0.000000 0.000000
# 5 0.000000 0.000000 0.000000 0.000000 0.016640 0.000000
# 6 0.000000 0.000000 0.000000 0.000000 0.000000 0.053262
#
#
# Mechanical properties :
#
#
# Convention : Reuss Voigt Hill
#
# Bulk Modulus (GPa) = 31.08148 42.06748 36.57448
# Shear Modulus (GPa) = 28.63742 36.08344 32.36043
#
# Velocity S-wave (km/s) = 3.61847 4.06174 3.84649
# Velocity P-wave (km/s) = 5.62748 6.42111 6.03735
#
# Compressibility (1/GPa) = 0.03217350
#
# Stress axis : x y z
#
# Youngs Moduli (GPa) = 74.99639 50.59520 130.71031
#
# Poissons Ratio (x) = -0.01379 0.44529
# Poissons Ratio (y) = -0.02044 0.15081
# Poissons Ratio (z) = 0.25549 0.05837
#
# Static dielectric constant tensor:
#      x y z
#    x 4.007950 0.000000 0.000000 
#    y 0.000000 3.985720 0.000000 
#    z 0.000000 0.000000 4.916440 
# 
# 
# High freq. dielectric constant tensor:
#      x y z
#    x 1.855000 0.000000 0.000000 
#    y 0.000000 1.862600 0.000000 
#    z 0.000000 0.000000 1.870900 
# 
# From -- ./inp_files/5185.got.cif
#   From: 2010.03.12/outbox.cif.g09.slc.cpg/sg68_3_cif.got.tgz:5185.got - 2010.04.10 23:14:56.
