data_PCOD8283682
_publ_section_title
;
Structure prediction by ZEFSAII (Michael W. Deem and Ramdas Pophale) SiO2 
 PCOD8283682
Probable space group: C C C A
;
_chemical_formula_sum "Si O2"
_cell_formula_units_Z 44
_cell_length_a 8.329150
_cell_length_b 17.451700
_cell_length_c 12.955711
_cell_angle_alpha 90.000000
_cell_angle_beta 90.000000
_cell_angle_gamma 90.000000
_cell_volume 1883.213999
_symmetry_space_group_name_H-M "C C C A"
_symmetry_group_IT_number 68
_space_group.IT_coordinate_system_code '2'
_symmetry_cell_setting 'orthorhombic'
loop_
_space_group_symop_operation_xyz
x,y,z
-x,1/2-y,z
x,1/2-y,1/2-z
-x,y,1/2-z
-x,-y,-z
x,1/2+y,-z
-x,1/2+y,1/2+z
x,-y,1/2+z
1/2+x,1/2+y,z
1/2-x,-y,z
1/2+x,-y,1/2-z
1/2-x,1/2+y,1/2-z
1/2-x,1/2-y,-z
1/2+x,y,-z
1/2-x,y,1/2+z
1/2+x,1/2-y,1/2+z
loop_
_atom_site_type_symbol
_atom_site_label
_atom_site_fract_x
_atom_site_fract_y
_atom_site_fract_z
Si Si1 0.000000 0.750000 0.750000
Si Si2 0.750000 0.000000 0.266339
Si Si3 0.030759 0.574553 0.430454
Si Si4 0.186072 0.626386 0.624481
O O1 0.877012 0.798840 0.681713
O O2 0.648404 0.057852 0.335733
O O3 0.866742 0.050565 0.190998
O O4 0.117630 0.631985 0.509192
O O5 0.000000 0.500000 0.500000
O O6 0.878452 0.618513 0.383727
#
# Coordination Sequence:
#
# PCOD8283682 Si02
#       4
#     4   8  16  16
#     4  12  32  52  70 108 170 206 242 316 400 458
#     4  12  22  44  82 116 144 196 264 320 376 452
#     4  12  22  43  77 115 145 194 261 322 373 442
#     4  12  27  46  75 110 156 201 252 314 386 459
#
# _framework density 23.364314
#
# number of rings (size 3 to 8) (size 9 to 14) (size 15 to 20)
#    0.000    0.000    7.273    3.273    0.000    1.455 
#    0.000    1.818    0.000    0.000    0.000    0.000 
#    0.000    0.000    0.000    0.000    0.000    0.000 
#
# Total GULP energy -272711.370736 kJ/mol
# GULP energy per Si atom -12395.971397 kJ/mol
# Density = 2.331114 g / cm^3
# Si number density = 23.364314 Si / 1000 Ang^3
#
#
#
# Elastic Constant Matrix: (Units=GPa)
#
#
# Indices 1 2 3 4 5 6 
#
# 1 149.3074 53.0754 74.9464 0.0000 0.0000 0.0000
# 2 53.0754 110.9345 58.1645 0.0000 0.0000 0.0000
# 3 74.9464 58.1645 180.9763 0.0000 0.0000 0.0000
# 4 0.0000 0.0000 0.0000 8.2727 0.0000 0.0000
# 5 0.0000 0.0000 0.0000 0.0000 44.0651 0.0000
# 6 0.0000 0.0000 0.0000 0.0000 0.0000 44.5501
#
#
#
# Elastic Compliance Matrix: (Units=1/GPa)
#
#
# Indices 1 2 3 4 5 6 
#
# 1 0.009161 -0.002879 -0.002868 0.000000 0.000000 0.000000
# 2 -0.002879 0.011746 -0.002583 0.000000 0.000000 0.000000
# 3 -0.002868 -0.002583 0.007544 0.000000 0.000000 0.000000
# 4 0.000000 0.000000 0.000000 0.120879 0.000000 0.000000
# 5 0.000000 0.000000 0.000000 0.000000 0.022694 0.000000
# 6 0.000000 0.000000 0.000000 0.000000 0.000000 0.022447
#
#
# Mechanical properties :
#
#
# Convention : Reuss Voigt Hill
#
# Bulk Modulus (GPa) = 84.81809 90.39897 87.60853
# Shear Modulus (GPa) = 23.24930 36.37970 29.81450
#
# Velocity S-wave (km/s) = 3.15791 3.95024 3.57609
# Velocity P-wave (km/s) = 7.04824 7.71887 7.39117
#
# Compressibility (1/GPa) = 0.01178994
#
# Stress axis : x y z
#
# Youngs Moduli (GPa) = 109.16041 85.13579 132.56320
#
# Poissons Ratio (x) = 0.24510 0.38025
# Poissons Ratio (y) = 0.31427 0.34239
# Poissons Ratio (z) = 0.31312 0.21989
#
# Static dielectric constant tensor:
#      x y z
#    x 4.262190 0.000000 0.000000 
#    y 0.000000 3.845080 0.000000 
#    z 0.000000 0.000000 5.063820 
# 
# 
# High freq. dielectric constant tensor:
#      x y z
#    x 1.932590 0.000000 0.000000 
#    y 0.000000 1.878260 0.000000 
#    z 0.000000 0.000000 1.965980 
# 
# From -- ./inp_files/10358.got.cif
#   From: 2010.03.12/outbox.cif.g09.slc.cpg/sg68_6_cif.got.tgz:10358.got - 2010.04.10 23:14:56.
