data_PCOD8283277
_publ_section_title
;
Structure prediction by ZEFSAII (Michael W. Deem and Ramdas Pophale) SiO2 
 PCOD8283277
Probable space group: C C C A
;
_chemical_formula_sum "Si O2"
_cell_formula_units_Z 108
_cell_length_a 23.334144
_cell_length_b 13.491293
_cell_length_c 14.642843
_cell_angle_alpha 90.000000
_cell_angle_beta 90.000000
_cell_angle_gamma 90.000000
_cell_volume 4609.680804
_symmetry_space_group_name_H-M "C C C A"
_symmetry_group_IT_number 68
_space_group.IT_coordinate_system_code '2'
_symmetry_cell_setting 'orthorhombic'
loop_
_space_group_symop_operation_xyz
x,y,z
-x,1/2-y,z
x,1/2-y,1/2-z
-x,y,1/2-z
-x,-y,-z
x,1/2+y,-z
-x,1/2+y,1/2+z
x,-y,1/2+z
1/2+x,1/2+y,z
1/2-x,-y,z
1/2+x,-y,1/2-z
1/2-x,1/2+y,1/2-z
1/2-x,1/2-y,-z
1/2+x,y,-z
1/2-x,y,1/2+z
1/2+x,1/2-y,1/2+z
loop_
_atom_site_type_symbol
_atom_site_label
_atom_site_fract_x
_atom_site_fract_y
_atom_site_fract_z
Si Si1 0.341312 0.750000 0.750000
Si Si2 0.866765 0.086854 0.506663
Si Si3 0.362446 0.887975 0.385084
Si Si4 0.914232 0.910821 0.807714
Si Si5 0.947891 0.371686 0.687166
Si Si6 0.236360 0.112043 0.878258
Si Si7 0.559886 0.233718 0.494856
Si Si8 0.500000 0.750000 0.250000
O O1 0.383926 0.829175 0.704121
O O2 0.299063 0.816104 0.811838
O O3 0.875440 0.082636 0.398389
O O4 0.799997 0.108166 0.527884
O O5 0.909495 0.169592 0.549965
O O6 0.880996 0.985324 0.559160
O O7 0.371479 0.901077 0.277565
O O8 0.298618 0.845890 0.402318
O O9 0.400459 0.800517 0.423076
O O10 0.959463 0.820760 0.812129
O O11 0.949773 0.011308 0.799258
O O12 0.958571 0.345087 0.582139
O O13 0.000000 0.328270 0.750000
O O14 0.250000 0.000000 0.839086
O O15 0.500000 0.250000 0.546077
#
# Coordination Sequence:
#
# PCOD8283277 Si02
#       8
#     8  16  16  16  16  16  16   4
#     4  12  23  47  80 116 152 208 258 328 396 450
#     4  11  25  50  74 108 153 203 262 320 389 464
#     4  11  27  51  73 111 154 200 262 320 390 462
#     4  12  27  48  78 112 156 211 254 325 390 477
#     4  12  25  46  76 119 156 198 262 322 393 465
#     4  10  24  49  76 110 154 197 263 328 377 471
#     4  12  27  44  74 110 147 199 252 320 389 468
#     4  12  28  50  72 114 154 210 256 296 402 486
#
# _framework density 23.428954000000001
#
# number of rings (size 3 to 8) (size 9 to 14) (size 15 to 20)
#    0.000    0.593    3.704    3.778    6.222    2.963 
#    2.667    3.704    0.000    0.000    0.000    0.000 
#    0.000    0.000    0.000    0.000    0.000    0.000 
#
# Total GULP energy -669198.035188 kJ/mol
# GULP energy per Si atom -12392.556207 kJ/mol
# Density = 2.337563 g / cm^3
# Si number density = 23.428954 Si / 1000 Ang^3
#
#
#
# Elastic Constant Matrix: (Units=GPa)
#
#
# Indices 1 2 3 4 5 6 
#
# 1 206.1257 80.3199 71.3211 0.0000 0.0000 0.0000
# 2 80.3199 135.0879 42.1525 0.0000 0.0000 0.0000
# 3 71.3211 42.1525 136.9643 0.0000 0.0000 0.0000
# 4 0.0000 0.0000 0.0000 30.7542 0.0000 0.0000
# 5 0.0000 0.0000 0.0000 0.0000 14.7104 0.0000
# 6 0.0000 0.0000 0.0000 0.0000 0.0000 34.5726
#
#
#
# Elastic Compliance Matrix: (Units=1/GPa)
#
#
# Indices 1 2 3 4 5 6 
#
# 1 0.007088 -0.003388 -0.002648 0.000000 0.000000 0.000000
# 2 -0.003388 0.009808 -0.001254 0.000000 0.000000 0.000000
# 3 -0.002648 -0.001254 0.009066 0.000000 0.000000 0.000000
# 4 0.000000 0.000000 0.000000 0.032516 0.000000 0.000000
# 5 0.000000 0.000000 0.000000 0.000000 0.067979 0.000000
# 6 0.000000 0.000000 0.000000 0.000000 0.000000 0.028925
#
#
# Mechanical properties :
#
#
# Convention : Reuss Voigt Hill
#
# Bulk Modulus (GPa) = 87.86302 96.19609 92.02956
# Shear Modulus (GPa) = 28.77580 34.96641 31.87111
#
# Velocity S-wave (km/s) = 3.50839 3.86741 3.69227
# Velocity P-wave (km/s) = 7.34813 7.81602 7.58569
#
# Compressibility (1/GPa) = 0.01138135
#
# Stress axis : x y z
#
# Youngs Moduli (GPa) = 141.08650 101.95337 110.29959
#
# Poissons Ratio (x) = 0.34541 0.29209
# Poissons Ratio (y) = 0.47799 0.13837
# Poissons Ratio (z) = 0.37362 0.12790
#
# Static dielectric constant tensor:
#      x y z
#    x 4.836340 0.000000 0.000000 
#    y 0.000000 4.557510 0.000000 
#    z 0.000000 0.000000 4.016150 
# 
# 
# High freq. dielectric constant tensor:
#      x y z
#    x 1.939160 0.000000 0.000000 
#    y 0.000000 1.944970 0.000000 
#    z 0.000000 0.000000 1.923010 
# 
# From -- ./inp_files/25518.got.cif
#   From: 2010.03.12/outbox.cif.g09.slc.cpg/sg68_13_cif.got.tgz:25518.got - 2010.04.10 23:14:56.
