data_PCOD8283679
_publ_section_title
;
Structure prediction by ZEFSAII (Michael W. Deem and Ramdas Pophale) SiO2 
 PCOD8283679
Probable space group: C C C A
;
_chemical_formula_sum "Si O2"
_cell_formula_units_Z 88
_cell_length_a 29.398679
_cell_length_b 4.971546
_cell_length_c 25.866272
_cell_angle_alpha 90.000000
_cell_angle_beta 90.000000
_cell_angle_gamma 90.000000
_cell_volume 3780.533742
_symmetry_space_group_name_H-M "C C C A"
_symmetry_group_IT_number 68
_space_group.IT_coordinate_system_code '2'
_symmetry_cell_setting 'orthorhombic'
loop_
_space_group_symop_operation_xyz
x,y,z
-x,1/2-y,z
x,1/2-y,1/2-z
-x,y,1/2-z
-x,-y,-z
x,1/2+y,-z
-x,1/2+y,1/2+z
x,-y,1/2+z
1/2+x,1/2+y,z
1/2-x,-y,z
1/2+x,-y,1/2-z
1/2-x,1/2+y,1/2-z
1/2-x,1/2-y,-z
1/2+x,y,-z
1/2-x,y,1/2+z
1/2+x,1/2-y,1/2+z
loop_
_atom_site_type_symbol
_atom_site_label
_atom_site_fract_x
_atom_site_fract_y
_atom_site_fract_z
Si Si1 0.923365 0.164078 0.690672
Si Si2 0.048746 0.182546 0.130540
Si Si3 0.802746 0.449127 0.083960
Si Si4 0.250000 0.000000 0.779871
Si Si5 0.889736 0.665416 0.532074
Si Si6 0.325315 0.562091 0.646979
O O1 0.928390 0.250000 0.750000
O O2 0.945408 0.385080 0.653040
O O3 0.872164 0.088693 0.676667
O O4 0.949190 0.886671 0.679143
O O5 0.087972 0.230496 0.087719
O O6 0.000000 0.250000 0.104090
O O7 0.750000 0.500000 0.067960
O O8 0.834379 0.334885 0.037544
O O9 0.824543 0.737086 0.098355
O O10 0.809788 0.239146 0.130872
O O11 0.226665 0.750000 0.750000
O O12 0.287686 0.841264 0.812703
O O13 0.906176 0.381901 0.509776
#
# Coordination Sequence:
#
# PCOD8283679 Si02
#       6
#    16  16  16   8  16  16
#     4  12  25  45  73 105 143 191 237 283 353 429
#     4  12  27  48  74 105 143 182 232 298 361 425
#     4  12  23  43  71  98 138 184 232 286 352 416
#     4  12  24  36  58  98 136 178 246 288 330 412
#     4  12  26  46  75 103 138 180 235 295 360 425
#     4  12  22  42  65  95 138 192 230 286 346 407
#
# _framework density 23.277137
#
# number of rings (size 3 to 8) (size 9 to 14) (size 15 to 20)
#    0.000    0.000    5.455    4.909    0.000    5.091 
#    0.000    0.000    0.000    0.000    0.000    0.000 
#    0.000    0.000    0.000    0.000    0.000    0.000 
#
# Total GULP energy -545425.155838 kJ/mol
# GULP energy per Si atom -12396.026269 kJ/mol
# Density = 2.322416 g / cm^3
# Si number density = 23.277137 Si / 1000 Ang^3
#
#
#
# Elastic Constant Matrix: (Units=GPa)
#
#
# Indices 1 2 3 4 5 6 
#
# 1 122.5902 26.6352 20.7289 0.0000 0.0000 0.0000
# 2 26.6352 122.3368 27.7442 0.0000 0.0000 0.0000
# 3 20.7289 27.7442 87.7937 0.0000 0.0000 0.0000
# 4 0.0000 0.0000 0.0000 37.9120 0.0000 0.0000
# 5 0.0000 0.0000 0.0000 0.0000 20.8888 0.0000
# 6 0.0000 0.0000 0.0000 0.0000 0.0000 34.6153
#
#
#
# Elastic Compliance Matrix: (Units=1/GPa)
#
#
# Indices 1 2 3 4 5 6 
#
# 1 0.008761 -0.001549 -0.001579 0.000000 0.000000 0.000000
# 2 -0.001549 0.009079 -0.002503 0.000000 0.000000 0.000000
# 3 -0.001579 -0.002503 0.012554 0.000000 0.000000 0.000000
# 4 0.000000 0.000000 0.000000 0.026377 0.000000 0.000000
# 5 0.000000 0.000000 0.000000 0.000000 0.047872 0.000000
# 6 0.000000 0.000000 0.000000 0.000000 0.000000 0.028889
#
#
# Mechanical properties :
#
#
# Convention : Reuss Voigt Hill
#
# Bulk Modulus (GPa) = 52.27094 53.65971 52.96533
# Shear Modulus (GPa) = 33.07472 35.85737 34.46604
#
# Velocity S-wave (km/s) = 3.77359 3.92912 3.85214
# Velocity P-wave (km/s) = 6.44137 6.60958 6.52602
#
# Compressibility (1/GPa) = 0.01913109
#
# Stress axis : x y z
#
# Youngs Moduli (GPa) = 114.14400 110.14179 79.65435
#
# Poissons Ratio (x) = 0.17065 0.12577
# Poissons Ratio (y) = 0.17685 0.19940
# Poissons Ratio (z) = 0.18022 0.27572
#
# Static dielectric constant tensor:
#      x y z
#    x 4.332280 0.000000 0.000000 
#    y 0.000000 4.036800 0.000000 
#    z 0.000000 0.000000 4.063430 
# 
# 
# High freq. dielectric constant tensor:
#      x y z
#    x 1.923410 0.000000 0.000000 
#    y 0.000000 1.940760 0.000000 
#    z 0.000000 0.000000 1.907360 
# 
# From -- ./inp_files/47484.got.cif
#   From: 2010.03.12/outbox.cif.g09.slc.cpg/sg68_24_cif.got.tgz:47484.got - 2010.04.10 23:14:56.
