data_PCOD8283094
_publ_section_title
;
Structure prediction by ZEFSAII (Michael W. Deem and Ramdas Pophale) SiO2 
 PCOD8283094
Probable space group: C C C A
;
_chemical_formula_sum "Si O2"
_cell_formula_units_Z 80
_cell_length_a 13.935814
_cell_length_b 10.982653
_cell_length_c 23.288453
_cell_angle_alpha 90.000000
_cell_angle_beta 90.000000
_cell_angle_gamma 90.000000
_cell_volume 3564.349186
_symmetry_space_group_name_H-M "C C C A"
_symmetry_group_IT_number 68
_space_group.IT_coordinate_system_code '2'
_symmetry_cell_setting 'orthorhombic'
loop_
_space_group_symop_operation_xyz
x,y,z
-x,1/2-y,z
x,1/2-y,1/2-z
-x,y,1/2-z
-x,-y,-z
x,1/2+y,-z
-x,1/2+y,1/2+z
x,-y,1/2+z
1/2+x,1/2+y,z
1/2-x,-y,z
1/2+x,-y,1/2-z
1/2-x,1/2+y,1/2-z
1/2-x,1/2-y,-z
1/2+x,y,-z
1/2-x,y,1/2+z
1/2+x,1/2-y,1/2+z
loop_
_atom_site_type_symbol
_atom_site_label
_atom_site_fract_x
_atom_site_fract_y
_atom_site_fract_z
Si Si1 0.753939 0.637633 0.078879
Si Si2 0.940488 0.623820 0.865451
Si Si3 0.248426 0.803700 0.312769
Si Si4 0.398035 0.790739 0.483123
Si Si5 0.538482 0.879204 0.686174
O O1 0.750000 0.500000 0.096640
O O2 0.768884 0.702791 0.138981
O O3 0.842669 0.655456 0.036490
O O4 0.657037 0.677421 0.046316
O O5 0.844711 0.622818 0.827017
O O6 0.998305 0.499906 0.848497
O O7 0.000000 0.750000 0.855401
O O8 0.912663 0.609669 0.932559
O O9 0.261743 0.750000 0.250000
O O10 0.153903 0.886883 0.313859
O O11 0.500000 0.750000 0.507732
O O12 0.500000 0.750000 0.659817
O O13 0.500000 0.890780 0.750000
#
# Coordination Sequence:
#
# PCOD8283094 Si02
#       5
#    16  16  16  16  16
#     4  10  23  41  69 101 136 181 234 288 338 421
#     4  10  24  43  71 102 136 185 236 285 346 420
#     4  11  24  43  63  97 137 183 226 285 350 415
#     4   9  21  44  65 100 138 177 230 286 352 406
#     4  11  24  44  63  98 138 184 228 287 345 420
#
# _framework density 22.444490999999999
#
# number of rings (size 3 to 8) (size 9 to 14) (size 15 to 20)
#    0.000    1.800    2.000    0.600    2.800   12.800 
#    0.000    0.000    0.000    0.000    0.000    0.000 
#    0.000    0.000    0.000    0.000    0.000    0.000 
#
# Total GULP energy -495787.163682 kJ/mol
# GULP energy per Si atom -12394.679092 kJ/mol
# Density = 2.239341 g / cm^3
# Si number density = 22.444491 Si / 1000 Ang^3
#
#
#
# Elastic Constant Matrix: (Units=GPa)
#
#
# Indices 1 2 3 4 5 6 
#
# 1 130.0533 33.0385 39.3300 0.0000 0.0000 0.0000
# 2 33.0385 172.9403 69.4370 0.0000 0.0000 0.0000
# 3 39.3300 69.4370 140.3407 0.0000 0.0000 0.0000
# 4 0.0000 0.0000 0.0000 6.8641 0.0000 0.0000
# 5 0.0000 0.0000 0.0000 0.0000 48.6557 0.0000
# 6 0.0000 0.0000 0.0000 0.0000 0.0000 15.0697
#
#
#
# Elastic Compliance Matrix: (Units=1/GPa)
#
#
# Indices 1 2 3 4 5 6 
#
# 1 0.008496 -0.000832 -0.001969 0.000000 0.000000 0.000000
# 2 -0.000832 0.007297 -0.003377 0.000000 0.000000 0.000000
# 3 -0.001969 -0.003377 0.009348 0.000000 0.000000 0.000000
# 4 0.000000 0.000000 0.000000 0.145685 0.000000 0.000000
# 5 0.000000 0.000000 0.000000 0.000000 0.020553 0.000000
# 6 0.000000 0.000000 0.000000 0.000000 0.000000 0.066358
#
#
# Mechanical properties :
#
#
# Convention : Reuss Voigt Hill
#
# Bulk Modulus (GPa) = 78.22201 80.77170 79.49686
# Shear Modulus (GPa) = 18.22447 34.21982 26.22214
#
# Velocity S-wave (km/s) = 2.85262 3.90890 3.42176
# Velocity P-wave (km/s) = 6.76586 7.51253 7.14895
#
# Compressibility (1/GPa) = 0.01278413
#
# Stress axis : x y z
#
# Youngs Moduli (GPa) = 117.70064 137.03549 106.97084
#
# Poissons Ratio (x) = 0.11408 0.21064
# Poissons Ratio (y) = 0.09798 0.36127
# Poissons Ratio (z) = 0.23177 0.46280
#
# Static dielectric constant tensor:
#      x y z
#    x 4.420290 0.000000 0.000000 
#    y 0.000000 3.995260 0.000000 
#    z 0.000000 0.000000 4.073330 
# 
# 
# High freq. dielectric constant tensor:
#      x y z
#    x 1.897910 0.000000 0.000000 
#    y 0.000000 1.876890 0.000000 
#    z 0.000000 0.000000 1.888330 
# 
# From -- ./inp_files/45158.got.cif
#   From: 2010.03.12/outbox.cif.g09.slc.cpg/sg68_23_cif.got.tgz:45158.got - 2010.04.10 23:14:56.
