data_PCOD8283455
_publ_section_title
;
Structure prediction by ZEFSAII (Michael W. Deem and Ramdas Pophale) SiO2 
 PCOD8283455
Probable space group: C C C A
;
_chemical_formula_sum "Si O2"
_cell_formula_units_Z 80
_cell_length_a 12.922433
_cell_length_b 11.313435
_cell_length_c 23.032053
_cell_angle_alpha 90.000000
_cell_angle_beta 90.000000
_cell_angle_gamma 90.000000
_cell_volume 3367.219489
_symmetry_space_group_name_H-M "C C C A"
_symmetry_group_IT_number 68
_space_group.IT_coordinate_system_code '2'
_symmetry_cell_setting 'orthorhombic'
loop_
_space_group_symop_operation_xyz
x,y,z
-x,1/2-y,z
x,1/2-y,1/2-z
-x,y,1/2-z
-x,-y,-z
x,1/2+y,-z
-x,1/2+y,1/2+z
x,-y,1/2+z
1/2+x,1/2+y,z
1/2-x,-y,z
1/2+x,-y,1/2-z
1/2-x,1/2+y,1/2-z
1/2-x,1/2-y,-z
1/2+x,y,-z
1/2-x,y,1/2+z
1/2+x,1/2-y,1/2+z
loop_
_atom_site_type_symbol
_atom_site_label
_atom_site_fract_x
_atom_site_fract_y
_atom_site_fract_z
Si Si1 0.541539 0.620978 0.885025
Si Si2 0.634365 0.965902 0.345064
Si Si3 0.871578 0.995637 0.716008
Si Si4 0.765497 0.628560 0.463740
Si Si5 0.892736 0.707590 0.870041
O O1 0.500000 0.750000 0.884180
O O2 0.448067 0.523082 0.890890
O O3 0.600682 0.607252 0.823866
O O4 0.618823 0.616329 0.939416
O O5 0.586067 0.003896 0.282135
O O6 0.655998 0.826780 0.346720
O O7 0.750000 0.000000 0.360158
O O8 0.915678 0.878008 0.684343
O O9 0.750000 0.000000 0.723737
O O10 0.750000 0.500000 0.496608
O O11 0.750000 0.750000 0.500000
O O12 0.680784 0.634102 0.412739
O O13 0.000000 0.750000 0.900560
#
# Coordination Sequence:
#
# PCOD8283455 Si02
#       5
#    16  16  16  16  16
#     4  12  24  45  71 101 153 193 246 313 374 455
#     4  11  25  38  67 111 145 198 239 293 373 467
#     4  11  22  42  68 100 152 193 240 288 374 458
#     4  12  27  52  79 106 142 198 260 332 395 452
#     4  12  22  44  70  99 145 184 245 306 373 454
#
# _framework density 23.758475000000001
#
# number of rings (size 3 to 8) (size 9 to 14) (size 15 to 20)
#    0.000    0.400    6.000    2.400    0.000    5.600 
#    0.000    3.000    0.000    0.000    0.000    0.000 
#    0.000    0.000    0.000    0.000    0.000    0.000 
#
# Total GULP energy -495551.811029 kJ/mol
# GULP energy per Si atom -12388.795276 kJ/mol
# Density = 2.370440 g / cm^3
# Si number density = 23.758475 Si / 1000 Ang^3
#
#
#
# Elastic Constant Matrix: (Units=GPa)
#
#
# Indices 1 2 3 4 5 6 
#
# 1 114.2937 45.5326 45.8687 0.0000 0.0000 0.0000
# 2 45.5326 177.8290 40.6828 0.0000 0.0000 0.0000
# 3 45.8687 40.6828 70.3593 0.0000 0.0000 0.0000
# 4 0.0000 0.0000 0.0000 37.7075 0.0000 0.0000
# 5 0.0000 0.0000 0.0000 0.0000 31.6306 0.0000
# 6 0.0000 0.0000 0.0000 0.0000 0.0000 47.8945
#
#
#
# Elastic Compliance Matrix: (Units=1/GPa)
#
#
# Indices 1 2 3 4 5 6 
#
# 1 0.012188 -0.001502 -0.007077 0.000000 0.000000 0.000000
# 2 -0.001502 0.006666 -0.002875 0.000000 0.000000 0.000000
# 3 -0.007077 -0.002875 0.020489 0.000000 0.000000 0.000000
# 4 0.000000 0.000000 0.000000 0.026520 0.000000 0.000000
# 5 0.000000 0.000000 0.000000 0.000000 0.031615 0.000000
# 6 0.000000 0.000000 0.000000 0.000000 0.000000 0.020879
#
#
# Mechanical properties :
#
#
# Convention : Reuss Voigt Hill
#
# Bulk Modulus (GPa) = 60.84813 69.62782 65.23798
# Shear Modulus (GPa) = 34.07315 38.80638 36.43977
#
# Velocity S-wave (km/s) = 3.79112 4.04588 3.92057
# Velocity P-wave (km/s) = 6.69554 7.15512 6.92914
#
# Compressibility (1/GPa) = 0.01643436
#
# Stress axis : x y z
#
# Youngs Moduli (GPa) = 82.04882 150.02302 48.80639
#
# Poissons Ratio (x) = 0.22527 0.34542
# Poissons Ratio (y) = 0.12320 0.14033
# Poissons Ratio (z) = 0.58068 0.43136
#
# Static dielectric constant tensor:
#      x y z
#    x 4.777510 0.000000 0.000000 
#    y 0.000000 4.601490 0.000000 
#    z 0.000000 0.000000 4.291510 
# 
# 
# High freq. dielectric constant tensor:
#      x y z
#    x 1.977980 0.000000 0.000000 
#    y 0.000000 1.960810 0.000000 
#    z 0.000000 0.000000 1.902500 
# 
# From -- ./inp_files/45209.got.cif
#   From: 2010.03.12/outbox.cif.g09.slc.cpg/sg68_23_cif.got.tgz:45209.got - 2010.04.10 23:14:56.
