data_PCOD8283306
_publ_section_title
;
Structure prediction by ZEFSAII (Michael W. Deem and Ramdas Pophale) SiO2 
 PCOD8283306
Probable space group: C C C A
;
_chemical_formula_sum "Si O2"
_cell_formula_units_Z 108
_cell_length_a 12.116704
_cell_length_b 30.352008
_cell_length_c 12.791353
_cell_angle_alpha 90.000000
_cell_angle_beta 90.000000
_cell_angle_gamma 90.000000
_cell_volume 4704.228523
_symmetry_space_group_name_H-M "C C C A"
_symmetry_group_IT_number 68
_space_group.IT_coordinate_system_code '2'
_symmetry_cell_setting 'orthorhombic'
loop_
_space_group_symop_operation_xyz
x,y,z
-x,1/2-y,z
x,1/2-y,1/2-z
-x,y,1/2-z
-x,-y,-z
x,1/2+y,-z
-x,1/2+y,1/2+z
x,-y,1/2+z
1/2+x,1/2+y,z
1/2-x,-y,z
1/2+x,-y,1/2-z
1/2-x,1/2+y,1/2-z
1/2-x,1/2-y,-z
1/2+x,y,-z
1/2-x,y,1/2+z
1/2+x,1/2-y,1/2+z
loop_
_atom_site_type_symbol
_atom_site_label
_atom_site_fract_x
_atom_site_fract_y
_atom_site_fract_z
Si Si1 0.175266 0.130654 0.685262
Si Si2 0.500000 0.750000 0.250000
Si Si3 0.402446 0.072548 0.001904
Si Si4 0.386322 0.126215 0.801780
Si Si5 0.319433 0.788911 0.387373
Si Si6 0.079843 0.439326 0.666396
Si Si7 0.620993 0.271175 0.122422
Si Si8 0.250000 0.000000 0.931046
O O1 0.154686 0.110029 0.571606
O O2 0.304068 0.119267 0.704272
O O3 0.106358 0.107884 0.779335
O O4 0.141889 0.182452 0.680943
O O5 0.425594 0.781216 0.318045
O O6 0.522899 0.065614 0.052869
O O7 0.413074 0.085567 0.879399
O O8 0.333761 0.026940 0.005447
O O9 0.500000 0.142768 0.750000
O O10 0.312453 0.158679 0.875913
O O11 0.353847 0.774784 0.501578
O O12 0.210927 0.765070 0.340406
O O13 0.190054 0.466532 0.647963
O O14 0.000000 0.464440 0.750000
O O15 0.500000 0.250000 0.145068
#
# Coordination Sequence:
#
# PCOD8283306 Si02
#       8
#    16   4  16  16  16  16  16   8
#     4  11  25  49  72 112 149 199 247 311 379 445
#     4  12  20  44  62 100 144 190 248 306 364 420
#     4  11  26  48  76 110 147 193 240 315 371 455
#     4  12  26  45  75 106 143 197 249 306 374 447
#     4  11  24  42  72 105 146 196 251 310 366 435
#     4  10  25  47  76 110 150 194 241 309 374 457
#     4  11  25  46  75 107 149 205 252 314 370 442
#     4  12  24  50  78 112 152 190 252 304 392 450
#
# _framework density 22.958068999999998
#
# number of rings (size 3 to 8) (size 9 to 14) (size 15 to 20)
#    0.000    0.889    4.444    1.333    2.074    6.519 
#    0.000    2.593    0.000    0.000    0.000    0.000 
#    0.000    0.000    0.000    0.000    0.000    0.000 
#
# Total GULP energy -669026.712289 kJ/mol
# GULP energy per Si atom -12389.383561 kJ/mol
# Density = 2.290582 g / cm^3
# Si number density = 22.958069 Si / 1000 Ang^3
#
#
#
# Elastic Constant Matrix: (Units=GPa)
#
#
# Indices 1 2 3 4 5 6 
#
# 1 164.7180 56.4007 47.2559 0.0000 0.0000 0.0000
# 2 56.4007 117.7982 48.2399 0.0000 0.0000 0.0000
# 3 47.2559 48.2399 98.0294 0.0000 0.0000 0.0000
# 4 0.0000 0.0000 0.0000 37.4233 0.0000 0.0000
# 5 0.0000 0.0000 0.0000 0.0000 39.7222 0.0000
# 6 0.0000 0.0000 0.0000 0.0000 0.0000 39.1117
#
#
#
# Elastic Compliance Matrix: (Units=1/GPa)
#
#
# Indices 1 2 3 4 5 6 
#
# 1 0.007677 -0.002705 -0.002370 0.000000 0.000000 0.000000
# 2 -0.002705 0.011585 -0.004397 0.000000 0.000000 0.000000
# 3 -0.002370 -0.004397 0.013507 0.000000 0.000000 0.000000
# 4 0.000000 0.000000 0.000000 0.026721 0.000000 0.000000
# 5 0.000000 0.000000 0.000000 0.000000 0.025175 0.000000
# 6 0.000000 0.000000 0.000000 0.000000 0.000000 0.025568
#
#
# Mechanical properties :
#
#
# Convention : Reuss Voigt Hill
#
# Bulk Modulus (GPa) = 72.32934 76.03763 74.18349
# Shear Modulus (GPa) = 37.37346 38.49470 37.93408
#
# Velocity S-wave (km/s) = 4.03910 4.09924 4.06928
# Velocity P-wave (km/s) = 7.30245 7.45635 7.37980
#
# Compressibility (1/GPa) = 0.01382565
#
# Stress axis : x y z
#
# Youngs Moduli (GPa) = 130.25724 86.31899 74.03624
#
# Poissons Ratio (x) = 0.23353 0.17543
# Poissons Ratio (y) = 0.35240 0.32552
# Poissons Ratio (z) = 0.30865 0.37952
#
# Static dielectric constant tensor:
#      x y z
#    x 4.319290 0.000000 0.000000 
#    y 0.000000 4.195760 0.000000 
#    z 0.000000 0.000000 4.162460 
# 
# 
# High freq. dielectric constant tensor:
#      x y z
#    x 1.918270 0.000000 0.000000 
#    y 0.000000 1.901400 0.000000 
#    z 0.000000 0.000000 1.915930 
# 
# From -- ./inp_files/21303.got.cif
#   From: 2010.03.12/outbox.cif.g09.slc.cpg/sg68_11_cif.got.tgz:21303.got - 2010.04.10 23:14:56.
