data_PCOD8283759
_publ_section_title
;
Structure prediction by ZEFSAII (Michael W. Deem and Ramdas Pophale) SiO2 
 PCOD8283759
Probable space group: F M M M
;
_chemical_formula_sum "Si O2"
_cell_formula_units_Z 112
_cell_length_a 36.726962
_cell_length_b 19.634767
_cell_length_c 8.863070
_cell_angle_alpha 90.000000
_cell_angle_beta 90.000000
_cell_angle_gamma 90.000000
_cell_volume 6391.384380
_symmetry_space_group_name_H-M "F M M M"
_symmetry_group_IT_number 69
_symmetry_cell_setting 'orthorhombic'
loop_
_space_group_symop_operation_xyz
x,y,z
-x,-y,z
x,-y,-z
-x,y,-z
-x,-y,-z
x,y,-z
-x,y,z
x,-y,z
x,1/2+y,1/2+z
-x,1/2-y,1/2+z
x,1/2-y,1/2-z
-x,1/2+y,1/2-z
-x,1/2-y,1/2-z
x,1/2+y,1/2-z
-x,1/2+y,1/2+z
x,1/2-y,1/2+z
1/2+x,y,1/2+z
1/2-x,-y,1/2+z
1/2+x,-y,1/2-z
1/2-x,y,1/2-z
1/2-x,-y,1/2-z
1/2+x,y,1/2-z
1/2-x,y,1/2+z
1/2+x,-y,1/2+z
1/2+x,1/2+y,z
1/2-x,1/2-y,z
1/2+x,1/2-y,-z
1/2-x,1/2+y,-z
1/2-x,1/2-y,-z
1/2+x,1/2+y,-z
1/2-x,1/2+y,z
1/2+x,1/2-y,z
loop_
_atom_site_type_symbol
_atom_site_label
_atom_site_fract_x
_atom_site_fract_y
_atom_site_fract_z
Si Si1 0.150341 0.676907 0.675801
Si Si2 0.000000 0.325700 0.179183
Si Si3 0.570219 0.176647 0.676177
Si Si4 0.787401 0.577325 0.678584
O O1 0.156378 0.688708 0.500000
O O2 0.155784 0.750000 0.750000
O O3 0.110090 0.643748 0.704144
O O4 0.179745 0.623850 0.740840
O O5 0.000000 0.250000 0.250000
O O6 0.036803 0.363288 0.240774
O O7 0.000000 0.324252 0.000000
O O8 0.561010 0.182528 0.500000
O O9 0.572881 0.250000 0.750000
O O10 0.784173 0.582010 0.500000
O O11 0.795008 0.500000 0.731242
O O12 0.750000 0.604705 0.750000
#
# Coordination Sequence:
#
# PCOD8283759 Si02
#       4
#    32  16  32  32
#     4   9  18  30  45  66  91 118 146 181 222 261
#     4  10  16  22  34  54  81 112 143 173 209 251
#     4   9  15  24  37  55  81 111 142 174 211 253
#     4   9  18  33  50  67  88 115 148 183 219 261
#
# _framework density 17.523589000000001
#
# number of rings (size 3 to 8) (size 9 to 14) (size 15 to 20)
#    0.000    2.857    0.000    3.857    0.000    2.857 
#    0.000    2.857    0.000    0.000    0.000    1.000 
#    0.000    8.000    0.000    0.000    0.000    0.000 
#
# Total GULP energy -346892.124818 kJ/mol
# GULP energy per Si atom -12389.004458 kJ/mol
# Density = 1.748370 g / cm^3
# Si number density = 17.523589 Si / 1000 Ang^3
#
#
#
# Elastic Constant Matrix: (Units=GPa)
#
#
# Indices 1 2 3 4 5 6 
#
# 1 200.5207 61.0737 59.8668 0.0000 0.0000 0.0000
# 2 61.0737 46.6607 21.1342 0.0000 0.0000 0.0000
# 3 59.8668 21.1342 77.6921 0.0000 0.0000 0.0000
# 4 0.0000 0.0000 0.0000 13.5294 0.0000 0.0000
# 5 0.0000 0.0000 0.0000 0.0000 31.3096 0.0000
# 6 0.0000 0.0000 0.0000 0.0000 0.0000 5.2864
#
#
#
# Elastic Compliance Matrix: (Units=1/GPa)
#
#
# Indices 1 2 3 4 5 6 
#
# 1 0.009492 -0.010391 -0.004487 0.000000 0.000000 0.000000
# 2 -0.010391 0.035819 -0.001737 0.000000 0.000000 0.000000
# 3 -0.004487 -0.001737 0.016801 0.000000 0.000000 0.000000
# 4 0.000000 0.000000 0.000000 0.073913 0.000000 0.000000
# 5 0.000000 0.000000 0.000000 0.000000 0.031939 0.000000
# 6 0.000000 0.000000 0.000000 0.000000 0.000000 0.189163
#
#
# Mechanical properties :
#
#
# Convention : Reuss Voigt Hill
#
# Bulk Modulus (GPa) = 34.62383 67.66921 51.14652
# Shear Modulus (GPa) = 12.50050 22.21166 17.35608
#
# Velocity S-wave (km/s) = 2.67376 3.56410 3.15054
# Velocity P-wave (km/s) = 5.41602 7.45902 6.51806
#
# Compressibility (1/GPa) = 0.02888184
#
# Stress axis : x y z
#
# Youngs Moduli (GPa) = 105.35685 27.91853 59.51874
#
# Poissons Ratio (x) = 0.29010 0.26708
# Poissons Ratio (y) = 1.09476 0.10336
# Poissons Ratio (z) = 0.47276 0.04848
#
# Static dielectric constant tensor:
#      x y z
#    x 4.719610 0.000000 0.000000 
#    y 0.000000 2.815600 0.000000 
#    z 0.000000 0.000000 2.679910 
# 
# 
# High freq. dielectric constant tensor:
#      x y z
#    x 1.710000 0.000000 0.000000 
#    y 0.000000 1.605600 0.000000 
#    z 0.000000 0.000000 1.680320 
# 
# From -- ./inp_files/3973.got.cif
#   From: 2010.03.12/outbox.cif.g09.slc.cpg/sg69_2_cif.got.tgz:3973.got - 2010.04.10 23:52:46.
