data_PCOD8283454
_publ_section_title
;
Structure prediction by ZEFSAII (Michael W. Deem and Ramdas Pophale) SiO2 
 PCOD8283454
Probable space group: C C C A
;
_chemical_formula_sum "Si O2"
_cell_formula_units_Z 120
_cell_length_a 13.457997
_cell_length_b 23.634207
_cell_length_c 18.775386
_cell_angle_alpha 90.000000
_cell_angle_beta 90.000000
_cell_angle_gamma 90.000000
_cell_volume 5971.869881
_symmetry_space_group_name_H-M "C C C A"
_symmetry_group_IT_number 68
_space_group.IT_coordinate_system_code '2'
_symmetry_cell_setting 'orthorhombic'
loop_
_space_group_symop_operation_xyz
x,y,z
-x,1/2-y,z
x,1/2-y,1/2-z
-x,y,1/2-z
-x,-y,-z
x,1/2+y,-z
-x,1/2+y,1/2+z
x,-y,1/2+z
1/2+x,1/2+y,z
1/2-x,-y,z
1/2+x,-y,1/2-z
1/2-x,1/2+y,1/2-z
1/2-x,1/2-y,-z
1/2+x,y,-z
1/2-x,y,1/2+z
1/2+x,1/2-y,1/2+z
loop_
_atom_site_type_symbol
_atom_site_label
_atom_site_fract_x
_atom_site_fract_y
_atom_site_fract_z
Si Si1 0.245034 0.174642 0.536896
Si Si2 0.441279 0.123305 0.561065
Si Si3 0.464566 0.189426 0.332015
Si Si4 0.751111 0.785051 0.617808
Si Si5 0.000000 0.558268 0.750000
Si Si6 0.634351 0.986435 0.362439
Si Si7 0.429105 0.598999 0.929929
Si Si8 0.441856 0.832657 0.316426
O O1 0.358852 0.159753 0.520826
O O2 0.209252 0.194176 0.459270
O O3 0.233031 0.218547 0.603077
O O4 0.182603 0.120675 0.560872
O O5 0.382051 0.073847 0.601001
O O6 0.518408 0.097557 0.506048
O O7 0.492111 0.169695 0.612465
O O8 0.500000 0.250000 0.362881
O O9 0.500000 0.183800 0.250000
O O10 0.345754 0.186901 0.345396
O O11 0.511931 0.137763 0.374543
O O12 0.838139 0.800075 0.673735
O O13 0.920756 0.517067 0.713132
O O14 0.932960 0.599197 0.801386
O O15 0.750000 0.000000 0.351805
O O16 0.577213 0.034690 0.405556
O O17 0.500000 0.803564 0.250000
#
# Coordination Sequence:
#
# PCOD8283454 Si02
#       8
#    16  16  16  16   8  16  16  16
#     4  11  23  38  69  99 126 172 214 263 331 393
#     4  11  22  43  64  97 132 163 214 276 322 386
#     4  11  25  42  61  94 136 170 206 267 323 386
#     4  11  22  42  67  97 131 174 218 261 329 402
#     4   8  22  44  62  95 129 168 214 280 328 382
#     4  11  23  41  68  92 126 172 221 270 330 389
#     4  12  23  41  68  96 127 169 219 266 327 386
#     4   9  21  42  68  89 135 167 211 275 328 379
#
# _framework density 20.094208999999999
#
# number of rings (size 3 to 8) (size 9 to 14) (size 15 to 20)
#    0.400    0.933    5.333    0.400    0.933    2.667 
#    0.000    0.667    0.000    0.000    0.000    0.000 
#    0.000    0.000    0.000    0.000    0.000    0.000 
#
# Total GULP energy -743561.997957 kJ/mol
# GULP energy per Si atom -12392.699966 kJ/mol
# Density = 2.004847 g / cm^3
# Si number density = 20.094209 Si / 1000 Ang^3
#
#
#
# Elastic Constant Matrix: (Units=GPa)
#
#
# Indices 1 2 3 4 5 6 
#
# 1 131.1126 19.9151 52.9336 0.0000 0.0000 0.0000
# 2 19.9151 33.5933 8.8102 0.0000 0.0000 0.0000
# 3 52.9336 8.8102 93.6410 0.0000 0.0000 0.0000
# 4 0.0000 0.0000 0.0000 16.1655 0.0000 0.0000
# 5 0.0000 0.0000 0.0000 0.0000 38.5583 0.0000
# 6 0.0000 0.0000 0.0000 0.0000 0.0000 29.6093
#
#
#
# Elastic Compliance Matrix: (Units=1/GPa)
#
#
# Indices 1 2 3 4 5 6 
#
# 1 0.010595 -0.004830 -0.005535 0.000000 0.000000 0.000000
# 2 -0.004830 0.032722 -0.000349 0.000000 0.000000 0.000000
# 3 -0.005535 -0.000349 0.013841 0.000000 0.000000 0.000000
# 4 0.000000 0.000000 0.000000 0.061860 0.000000 0.000000
# 5 0.000000 0.000000 0.000000 0.000000 0.025935 0.000000
# 6 0.000000 0.000000 0.000000 0.000000 0.000000 0.033773
#
#
# Mechanical properties :
#
#
# Convention : Reuss Voigt Hill
#
# Bulk Modulus (GPa) = 27.98604 46.85165 37.41885
# Shear Modulus (GPa) = 23.57790 28.64583 26.11186
#
# Velocity S-wave (km/s) = 3.42916 3.77978 3.60873
# Velocity P-wave (km/s) = 5.44394 6.51272 6.00217
#
# Compressibility (1/GPa) = 0.03573210
#
# Stress axis : x y z
#
# Youngs Moduli (GPa) = 94.38241 30.56009 72.25094
#
# Poissons Ratio (x) = 0.14759 0.39990
# Poissons Ratio (y) = 0.45583 0.02519
# Poissons Ratio (z) = 0.52240 0.01065
#
# Static dielectric constant tensor:
#      x y z
#    x 3.611500 0.000000 0.000000 
#    y 0.000000 3.515350 0.000000 
#    z 0.000000 0.000000 3.590380 
# 
# 
# High freq. dielectric constant tensor:
#      x y z
#    x 1.790330 0.000000 0.000000 
#    y 0.000000 1.778740 0.000000 
#    z 0.000000 0.000000 1.784610 
# 
# From -- ./inp_files/37886.got.cif
#   From: 2010.03.12/outbox.cif.g09.slc.cpg/sg68_19_cif.got.tgz:37886.got - 2010.04.10 23:14:56.
