data_PCOD8283265
_publ_section_title
;
Structure prediction by ZEFSAII (Michael W. Deem and Ramdas Pophale) SiO2 
 PCOD8283265
Probable space group: C C C A
;
_chemical_formula_sum "Si O2"
_cell_formula_units_Z 72
_cell_length_a 14.742290
_cell_length_b 17.501256
_cell_length_c 13.210673
_cell_angle_alpha 90.000000
_cell_angle_beta 90.000000
_cell_angle_gamma 90.000000
_cell_volume 3408.467131
_symmetry_space_group_name_H-M "C C C A"
_symmetry_group_IT_number 68
_space_group.IT_coordinate_system_code '2'
_symmetry_cell_setting 'orthorhombic'
loop_
_space_group_symop_operation_xyz
x,y,z
-x,1/2-y,z
x,1/2-y,1/2-z
-x,y,1/2-z
-x,-y,-z
x,1/2+y,-z
-x,1/2+y,1/2+z
x,-y,1/2+z
1/2+x,1/2+y,z
1/2-x,-y,z
1/2+x,-y,1/2-z
1/2-x,1/2+y,1/2-z
1/2-x,1/2-y,-z
1/2+x,y,-z
1/2-x,y,1/2+z
1/2+x,1/2-y,1/2+z
loop_
_atom_site_type_symbol
_atom_site_label
_atom_site_fract_x
_atom_site_fract_y
_atom_site_fract_z
Si Si1 0.664550 0.643577 0.638991
Si Si2 0.750000 0.000000 0.462895
Si Si3 0.789976 0.250000 0.250000
Si Si4 0.075869 0.521997 0.578175
Si Si5 0.000000 0.928121 0.250000
Si Si6 0.908643 0.799404 0.561603
O O1 0.723863 0.571079 0.606810
O O2 0.722929 0.679805 0.728612
O O3 0.564366 0.622899 0.679321
O O4 0.647707 0.701004 0.544016
O O5 0.833329 0.016598 0.536478
O O6 0.850405 0.262481 0.348929
O O7 0.073562 0.613023 0.591466
O O8 0.000000 0.500000 0.500000
O O9 0.063382 0.483751 0.686029
O O10 0.000000 0.750000 0.549275
#
# Coordination Sequence:
#
# PCOD8283265 Si02
#       6
#    16   8   8  16   8  16
#     4  11  28  45  73 104 142 187 237 292 353 428
#     4  10  24  48  72 104 140 186 228 306 342 420
#     4  12  29  43  74 104 142 190 234 289 355 432
#     4  11  25  47  73 105 141 183 240 295 356 416
#     4  12  26  43  77 104 138 192 238 298 354 419
#     4  11  27  48  70 103 144 188 227 298 352 429
#
# _framework density 21.123864999999999
#
# number of rings (size 3 to 8) (size 9 to 14) (size 15 to 20)
#    0.000    0.889    4.444    1.000   18.667    0.000 
#    0.000    0.000    0.000    0.000    0.000    0.000 
#    0.000    0.000    0.000    0.000    0.000    0.000 
#
# Total GULP energy -446380.738432 kJ/mol
# GULP energy per Si atom -12399.464956 kJ/mol
# Density = 2.107579 g / cm^3
# Si number density = 21.123865 Si / 1000 Ang^3
#
#
#
# Elastic Constant Matrix: (Units=GPa)
#
#
# Indices 1 2 3 4 5 6 
#
# 1 146.5873 54.8283 48.8769 0.0000 0.0000 0.0000
# 2 54.8283 89.5266 34.9950 0.0000 0.0000 0.0000
# 3 48.8769 34.9950 104.4149 0.0000 0.0000 0.0000
# 4 0.0000 0.0000 0.0000 37.6729 0.0000 0.0000
# 5 0.0000 0.0000 0.0000 0.0000 42.4590 0.0000
# 6 0.0000 0.0000 0.0000 0.0000 0.0000 37.3574
#
#
#
# Elastic Compliance Matrix: (Units=1/GPa)
#
#
# Indices 1 2 3 4 5 6 
#
# 1 0.009550 -0.004720 -0.002889 0.000000 0.000000 0.000000
# 2 -0.004720 0.015186 -0.002880 0.000000 0.000000 0.000000
# 3 -0.002889 -0.002880 0.011895 0.000000 0.000000 0.000000
# 4 0.000000 0.000000 0.000000 0.026544 0.000000 0.000000
# 5 0.000000 0.000000 0.000000 0.000000 0.023552 0.000000
# 6 0.000000 0.000000 0.000000 0.000000 0.000000 0.026768
#
#
# Mechanical properties :
#
#
# Convention : Reuss Voigt Hill
#
# Bulk Modulus (GPa) = 63.88265 68.65880 66.27072
# Shear Modulus (GPa) = 35.79304 36.95310 36.37307
#
# Velocity S-wave (km/s) = 4.12082 4.18706 4.15407
# Velocity P-wave (km/s) = 7.27661 7.47990 7.37896
#
# Compressibility (1/GPa) = 0.01565370
#
# Stress axis : x y z
#
# Youngs Moduli (GPa) = 104.70769 65.84892 84.07050
#
# Poissons Ratio (x) = 0.31079 0.24286
# Poissons Ratio (y) = 0.49419 0.24216
# Poissons Ratio (z) = 0.30247 0.18967
#
# Static dielectric constant tensor:
#      x y z
#    x 4.323720 0.000000 0.000000 
#    y 0.000000 3.561990 0.000000 
#    z 0.000000 0.000000 4.119210 
# 
# 
# High freq. dielectric constant tensor:
#      x y z
#    x 1.844210 0.000000 0.000000 
#    y 0.000000 1.827180 0.000000 
#    z 0.000000 0.000000 1.844850 
# 
# From -- ./inp_files/22056.got.cif
#   From: 2010.03.12/outbox.cif.g09.slc.cpg/sg68_12_cif.got.tgz:22056.got - 2010.04.10 23:14:56.
