data_PCOD8283932
_publ_section_title
;
Structure prediction by ZEFSAII (Michael W. Deem and Ramdas Pophale) SiO2 
 PCOD8283932
Probable space group: F M M M
;
_chemical_formula_sum "Si O2"
_cell_formula_units_Z 160
_cell_length_a 15.483197
_cell_length_b 23.611630
_cell_length_c 23.269901
_cell_angle_alpha 90.000000
_cell_angle_beta 90.000000
_cell_angle_gamma 90.000000
_cell_volume 8507.092289
_symmetry_space_group_name_H-M "F M M M"
_symmetry_group_IT_number 69
_symmetry_cell_setting 'orthorhombic'
loop_
_space_group_symop_operation_xyz
x,y,z
-x,-y,z
x,-y,-z
-x,y,-z
-x,-y,-z
x,y,-z
-x,y,z
x,-y,z
x,1/2+y,1/2+z
-x,1/2-y,1/2+z
x,1/2-y,1/2-z
-x,1/2+y,1/2-z
-x,1/2-y,1/2-z
x,1/2+y,1/2-z
-x,1/2+y,1/2+z
x,1/2-y,1/2+z
1/2+x,y,1/2+z
1/2-x,-y,1/2+z
1/2+x,-y,1/2-z
1/2-x,y,1/2-z
1/2-x,-y,1/2-z
1/2+x,y,1/2-z
1/2-x,y,1/2+z
1/2+x,-y,1/2+z
1/2+x,1/2+y,z
1/2-x,1/2-y,z
1/2+x,1/2-y,-z
1/2-x,1/2+y,-z
1/2-x,1/2-y,-z
1/2+x,1/2+y,-z
1/2-x,1/2+y,z
1/2+x,1/2-y,z
loop_
_atom_site_type_symbol
_atom_site_label
_atom_site_fract_x
_atom_site_fract_y
_atom_site_fract_z
Si Si1 0.903733 0.303552 0.220534
Si Si2 0.103051 0.000000 0.224261
Si Si3 0.824213 0.615824 0.297728
Si Si4 0.400489 0.604062 0.435478
Si Si5 0.101762 0.000000 0.642422
Si Si6 0.720632 0.814149 0.882388
O O1 0.856619 0.250000 0.250000
O O2 0.905476 0.353858 0.267220
O O3 0.854092 0.317993 0.163841
O O4 0.000000 0.287930 0.201907
O O5 0.145321 0.947781 0.189982
O O6 0.133829 0.000000 0.291363
O O7 0.000000 0.000000 0.219188
O O8 0.750000 0.619564 0.250000
O O9 0.800081 0.648329 0.357190
O O10 0.398921 0.579055 0.500000
O O11 0.500000 0.622802 0.420784
O O12 0.366331 0.556487 0.390419
O O13 0.329789 0.655376 0.434857
O O14 0.000000 0.000000 0.640217
O O15 0.750000 0.750000 0.898382
#
# Coordination Sequence:
#
# PCOD8283932 Si02
#       6
#    32  16  32  32  16  32
#     4  10  18  30  49  71  99 137 177 209 241 297
#     4  11  21  34  50  76 112 146 173 202 243 305
#     4  10  20  31  48  72 107 137 174 208 254 302
#     4  10  21  37  57  78  99 129 172 221 270 316
#     4   9  17  33  55  77  99 126 163 209 259 306
#     4  11  21  34  50  75 108 140 175 213 254 304
#
# _framework density 18.807836000000002
#
# number of rings (size 3 to 8) (size 9 to 14) (size 15 to 20)
#    0.000    1.800    2.000    4.200    0.000    4.000 
#    0.000    0.000    0.000    0.000    0.000    0.000 
#    0.000    0.800    0.000    0.000    0.000    0.000 
#
# Total GULP energy -495621.909572 kJ/mol
# GULP energy per Si atom -12390.547739 kJ/mol
# Density = 1.876503 g / cm^3
# Si number density = 18.807836 Si / 1000 Ang^3
#
#
#
# Elastic Constant Matrix: (Units=GPa)
#
#
# Indices 1 2 3 4 5 6 
#
# 1 53.1321 28.4234 18.3403 0.0000 0.0000 0.0000
# 2 28.4234 134.2004 21.3269 0.0000 0.0000 0.0000
# 3 18.3403 21.3269 46.0020 0.0000 0.0000 0.0000
# 4 0.0000 0.0000 0.0000 20.8379 0.0000 0.0000
# 5 0.0000 0.0000 0.0000 0.0000 11.2675 0.0000
# 6 0.0000 0.0000 0.0000 0.0000 0.0000 33.5822
#
#
#
# Elastic Compliance Matrix: (Units=1/GPa)
#
#
# Indices 1 2 3 4 5 6 
#
# 1 0.023459 -0.003759 -0.007610 0.000000 0.000000 0.000000
# 2 -0.003759 0.008647 -0.002510 0.000000 0.000000 0.000000
# 3 -0.007610 -0.002510 0.025936 0.000000 0.000000 0.000000
# 4 0.000000 0.000000 0.000000 0.047989 0.000000 0.000000
# 5 0.000000 0.000000 0.000000 0.000000 0.088751 0.000000
# 6 0.000000 0.000000 0.000000 0.000000 0.000000 0.029778
#
#
# Mechanical properties :
#
#
# Convention : Reuss Voigt Hill
#
# Bulk Modulus (GPa) = 33.02162 41.05730 37.03946
# Shear Modulus (GPa) = 19.05407 24.15379 21.60393
#
# Velocity S-wave (km/s) = 3.18636 3.58752 3.39287
# Velocity P-wave (km/s) = 5.57967 6.24801 5.92327
#
# Compressibility (1/GPa) = 0.03028319
#
# Stress axis : x y z
#
# Youngs Moduli (GPa) = 42.62793 115.65244 38.55685
#
# Poissons Ratio (x) = 0.43476 0.29341
# Poissons Ratio (y) = 0.16025 0.09677
# Poissons Ratio (z) = 0.32439 0.29028
#
# Static dielectric constant tensor:
#      x y z
#    x 3.389710 0.000000 0.000000 
#    y 0.000000 3.888230 0.000000 
#    z 0.000000 0.000000 3.196780 
# 
# 
# High freq. dielectric constant tensor:
#      x y z
#    x 1.720660 0.000000 0.000000 
#    y 0.000000 1.743070 0.000000 
#    z 0.000000 0.000000 1.688300 
# 
# From -- ./inp_files/18037.got.cif
#   From: 2010.03.12/outbox.cif.g09.slc.cpg/sg69_10_cif.got.tgz:18037.got - 2010.04.10 23:52:46.
