data_PCOD8283905
_publ_section_title
;
Structure prediction by ZEFSAII (Michael W. Deem and Ramdas Pophale) SiO2 
 PCOD8283905
Probable space group: F M M M
;
_chemical_formula_sum "Si O2"
_cell_formula_units_Z 208
_cell_length_a 18.557280
_cell_length_b 23.077937
_cell_length_c 27.167461
_cell_angle_alpha 90.000000
_cell_angle_beta 90.000000
_cell_angle_gamma 90.000000
_cell_volume 11634.838420
_symmetry_space_group_name_H-M "F M M M"
_symmetry_group_IT_number 69
_symmetry_cell_setting 'orthorhombic'
loop_
_space_group_symop_operation_xyz
x,y,z
-x,-y,z
x,-y,-z
-x,y,-z
-x,-y,-z
x,y,-z
-x,y,z
x,-y,z
x,1/2+y,1/2+z
-x,1/2-y,1/2+z
x,1/2-y,1/2-z
-x,1/2+y,1/2-z
-x,1/2-y,1/2-z
x,1/2+y,1/2-z
-x,1/2+y,1/2+z
x,1/2-y,1/2+z
1/2+x,y,1/2+z
1/2-x,-y,1/2+z
1/2+x,-y,1/2-z
1/2-x,y,1/2-z
1/2-x,-y,1/2-z
1/2+x,y,1/2-z
1/2-x,y,1/2+z
1/2+x,-y,1/2+z
1/2+x,1/2+y,z
1/2-x,1/2-y,z
1/2+x,1/2-y,-z
1/2-x,1/2+y,-z
1/2-x,1/2-y,-z
1/2+x,1/2+y,-z
1/2-x,1/2+y,z
1/2+x,1/2-y,z
loop_
_atom_site_type_symbol
_atom_site_label
_atom_site_fract_x
_atom_site_fract_y
_atom_site_fract_z
Si Si1 0.085410 0.632070 0.137425
Si Si2 0.329018 0.933028 0.942046
Si Si3 0.332392 0.932949 0.408038
Si Si4 0.082162 0.628438 0.326302
Si Si5 0.415309 0.936912 0.769852
Si Si6 0.580497 0.930920 0.500000
Si Si7 0.582212 0.742430 0.695744
O O1 0.118989 0.612767 0.085247
O O2 0.111094 0.584310 0.176963
O O3 0.115549 0.693500 0.159293
O O4 0.000000 0.634792 0.129539
O O5 0.250657 0.922670 0.919385
O O6 0.353286 0.000000 0.933954
O O7 0.329006 0.918498 0.000000
O O8 0.357339 0.899499 0.360010
O O9 0.379051 0.906742 0.452460
O O10 0.350018 0.000000 0.399990
O O11 0.105210 0.610130 0.271264
O O12 0.087044 0.697154 0.332825
O O13 0.000000 0.607255 0.338339
O O14 0.500000 0.943447 0.771550
O O15 0.380255 0.000000 0.758658
O O16 0.500000 0.906255 0.500000
O O17 0.582871 0.000000 0.500000
O O18 0.500000 0.722623 0.705846
O O19 0.619392 0.750000 0.750000
#
# Coordination Sequence:
#
# PCOD8283905 Si02
#       7
#    32  32  32  32  32  16  32
#     4  10  19  33  56  80 104 138 183 229 267 316
#     4  10  21  38  57  76 104 143 182 226 283 332
#     4  10  19  33  51  75 108 142 172 209 266 327
#     4  10  18  29  51  80 109 140 174 215 259 315
#     4   9  16  26  44  76 111 135 162 209 266 317
#     4   9  16  28  50  76 100 131 173 213 250 307
#     4   9  16  31  54  79 106 141 180 217 262 314
#
# _framework density 17.877343
#
# number of rings (size 3 to 8) (size 9 to 14) (size 15 to 20)
#    0.000    2.385    2.308    1.385    0.000    2.769 
#    0.000    2.308    1.692    4.615    0.000    0.000 
#    0.000    0.000    0.000    0.000    0.000    0.000 
#
# Total GULP energy -644486.525813 kJ/mol
# GULP energy per Si atom -12393.971650 kJ/mol
# Density = 1.783665 g / cm^3
# Si number density = 17.877343 Si / 1000 Ang^3
#
#
#
# Elastic Constant Matrix: (Units=GPa)
#
#
# Indices 1 2 3 4 5 6 
#
# 1 50.6490 29.2684 37.9855 0.0000 0.0000 0.0000
# 2 29.2684 99.8737 45.1888 0.0000 0.0000 0.0000
# 3 37.9855 45.1888 112.4615 0.0000 0.0000 0.0000
# 4 0.0000 0.0000 0.0000 23.3739 0.0000 0.0000
# 5 0.0000 0.0000 0.0000 0.0000 9.9486 0.0000
# 6 0.0000 0.0000 0.0000 0.0000 0.0000 16.2005
#
#
#
# Elastic Compliance Matrix: (Units=1/GPa)
#
#
# Indices 1 2 3 4 5 6 
#
# 1 0.028234 -0.004839 -0.007592 0.000000 0.000000 0.000000
# 2 -0.004839 0.013067 -0.003616 0.000000 0.000000 0.000000
# 3 -0.007592 -0.003616 0.012909 0.000000 0.000000 0.000000
# 4 0.000000 0.000000 0.000000 0.042783 0.000000 0.000000
# 5 0.000000 0.000000 0.000000 0.000000 0.100516 0.000000
# 6 0.000000 0.000000 0.000000 0.000000 0.000000 0.061727
#
#
# Mechanical properties :
#
#
# Convention : Reuss Voigt Hill
#
# Bulk Modulus (GPa) = 45.21640 54.20775 49.71207
# Shear Modulus (GPa) = 16.73910 19.94068 18.33989
#
# Velocity S-wave (km/s) = 3.06327 3.34341 3.20640
# Velocity P-wave (km/s) = 6.15297 6.72996 6.44792
#
# Compressibility (1/GPa) = 0.02211587
#
# Stress axis : x y z
#
# Youngs Moduli (GPa) = 35.41847 76.52961 77.46397
#
# Poissons Ratio (x) = 0.37032 0.58811
# Poissons Ratio (y) = 0.17139 0.28011
# Poissons Ratio (z) = 0.26890 0.27673
#
# Static dielectric constant tensor:
#      x y z
#    x 2.961760 0.000000 0.000000 
#    y 0.000000 3.357300 0.000000 
#    z 0.000000 0.000000 3.342460 
# 
# 
# High freq. dielectric constant tensor:
#      x y z
#    x 1.653910 0.000000 0.000000 
#    y 0.000000 1.682370 0.000000 
#    z 0.000000 0.000000 1.694170 
# 
# From -- ./inp_files/26131.got.cif
#   From: 2010.03.12/outbox.cif.g09.slc.cpg/sg69_14_cif.got.tgz:26131.got - 2010.04.10 23:52:46.
