data_PCOD8283690
_publ_section_title
;
Structure prediction by ZEFSAII (Michael W. Deem and Ramdas Pophale) SiO2 
 PCOD8283690
Probable space group: C C C A
;
_chemical_formula_sum "Si O2"
_cell_formula_units_Z 64
_cell_length_a 8.453044
_cell_length_b 14.574725
_cell_length_c 21.627933
_cell_angle_alpha 90.000000
_cell_angle_beta 90.000000
_cell_angle_gamma 90.000000
_cell_volume 2664.578469
_symmetry_space_group_name_H-M "C C C A"
_symmetry_group_IT_number 68
_space_group.IT_coordinate_system_code '2'
_symmetry_cell_setting 'orthorhombic'
loop_
_space_group_symop_operation_xyz
x,y,z
-x,1/2-y,z
x,1/2-y,1/2-z
-x,y,1/2-z
-x,-y,-z
x,1/2+y,-z
-x,1/2+y,1/2+z
x,-y,1/2+z
1/2+x,1/2+y,z
1/2-x,-y,z
1/2+x,-y,1/2-z
1/2-x,1/2+y,1/2-z
1/2-x,1/2-y,-z
1/2+x,y,-z
1/2-x,y,1/2+z
1/2+x,1/2-y,1/2+z
loop_
_atom_site_type_symbol
_atom_site_label
_atom_site_fract_x
_atom_site_fract_y
_atom_site_fract_z
Si Si1 0.597437 0.343112 0.095413
Si Si2 0.117480 0.431505 0.030096
Si Si3 0.061189 0.154782 0.143100
Si Si4 0.065229 0.523669 0.188029
O O1 0.500000 0.250000 0.090641
O O2 0.668491 0.368114 0.027806
O O3 0.751838 0.332249 0.136671
O O4 0.481092 0.418856 0.126451
O O5 0.250000 0.500000 0.058375
O O6 0.000000 0.500000 0.000000
O O7 0.040216 0.366606 0.081263
O O8 0.000000 0.250000 0.171611
O O9 0.033004 0.071260 0.189321
O O10 0.250000 0.500000 0.189174
O O11 0.000000 0.575224 0.250000
#
# Coordination Sequence:
#
# PCOD8283690 Si02
#       4
#    16  16  16  16
#     4  12  26  44  68 102 138 180 229 279 336 403
#     4  12  23  41  70  99 141 184 227 276 340 402
#     4  12  26  43  69 102 139 179 229 278 337 404
#     4  12  26  48  74  98 133 175 224 283 344 403
#
# _framework density 24.018809999999998
#
# number of rings (size 3 to 8) (size 9 to 14) (size 15 to 20)
#    0.000    0.000    5.000    5.250    3.500    3.000 
#    0.000    5.000    0.000    0.000    0.000    0.000 
#    0.000    0.000    0.000    0.000    0.000    0.000 
#
# Total GULP energy -396594.162203 kJ/mol
# GULP energy per Si atom -12393.567569 kJ/mol
# Density = 2.396414 g / cm^3
# Si number density = 24.018810 Si / 1000 Ang^3
#
#
#
# Elastic Constant Matrix: (Units=GPa)
#
#
# Indices 1 2 3 4 5 6 
#
# 1 152.2260 26.1429 2.9734 0.0000 0.0000 0.0000
# 2 26.1429 134.0905 -0.8736 0.0000 0.0000 0.0000
# 3 2.9734 -0.8736 94.1734 0.0000 0.0000 0.0000
# 4 0.0000 0.0000 0.0000 -13.5997 0.0000 0.0000
# 5 0.0000 0.0000 0.0000 0.0000 33.5110 0.0000
# 6 0.0000 0.0000 0.0000 0.0000 0.0000 48.1424
#
#
#
# Elastic Compliance Matrix: (Units=1/GPa)
#
#
# Indices 1 2 3 4 5 6 
#
# 1 0.006802 -0.001328 -0.000227 0.000000 0.000000 0.000000
# 2 -0.001328 0.007717 0.000114 0.000000 0.000000 0.000000
# 3 -0.000227 0.000114 0.010627 0.000000 0.000000 0.000000
# 4 0.000000 0.000000 0.000000 -0.073531 0.000000 0.000000
# 5 0.000000 0.000000 0.000000 0.000000 0.029841 0.000000
# 6 0.000000 0.000000 0.000000 0.000000 0.000000 0.020772
#
#
# Mechanical properties :
#
#
# Convention : Reuss Voigt Hill
#
# Bulk Modulus (GPa) = 44.91654 48.55284 46.73469
# Shear Modulus (GPa) = 399.02079 37.09389 218.05734
#
# Velocity S-wave (km/s) = 12.90307 3.93411 9.53851
# Velocity P-wave (km/s) = 15.51537 6.39489 11.86637
#
# Compressibility (1/GPa) = 0.02226351
#
# Stress axis : x y z
#
# Youngs Moduli (GPa) = 147.02408 129.58043 94.10050
#
# Poissons Ratio (x) = 0.17203 0.02137
# Poissons Ratio (y) = 0.19518 -0.01068
# Poissons Ratio (z) = 0.03338 -0.01471
#
# Static dielectric constant tensor:
#      x y z
#    x 4.300660 0.000000 0.000000 
#    y 0.000000 4.302400 0.000000 
#    z 0.000000 0.000000 4.970070 
# 
# 
# High freq. dielectric constant tensor:
#      x y z
#    x 1.970500 0.000000 0.000000 
#    y 0.000000 1.950890 0.000000 
#    z 0.000000 0.000000 1.954960 
# 
# From -- ./inp_files/42736.got.cif
#   From: 2010.03.12/outbox.cif.g09.slc.cpg/sg68_22_cif.got.tgz:42736.got - 2010.04.10 23:14:56.
