data_PCOD8283436
_publ_section_title
;
Structure prediction by ZEFSAII (Michael W. Deem and Ramdas Pophale) SiO2 
 PCOD8283436
Probable space group: C C C A
;
_chemical_formula_sum "Si O2"
_cell_formula_units_Z 80
_cell_length_a 27.143315
_cell_length_b 8.580240
_cell_length_c 14.803733
_cell_angle_alpha 90.000000
_cell_angle_beta 90.000000
_cell_angle_gamma 90.000000
_cell_volume 3447.732526
_symmetry_space_group_name_H-M "C C C A"
_symmetry_group_IT_number 68
_space_group.IT_coordinate_system_code '2'
_symmetry_cell_setting 'orthorhombic'
loop_
_space_group_symop_operation_xyz
x,y,z
-x,1/2-y,z
x,1/2-y,1/2-z
-x,y,1/2-z
-x,-y,-z
x,1/2+y,-z
-x,1/2+y,1/2+z
x,-y,1/2+z
1/2+x,1/2+y,z
1/2-x,-y,z
1/2+x,-y,1/2-z
1/2-x,1/2+y,1/2-z
1/2-x,1/2-y,-z
1/2+x,y,-z
1/2-x,y,1/2+z
1/2+x,1/2-y,1/2+z
loop_
_atom_site_type_symbol
_atom_site_label
_atom_site_fract_x
_atom_site_fract_y
_atom_site_fract_z
Si Si1 0.891625 0.132874 0.119194
Si Si2 0.396201 0.034180 0.692396
Si Si3 0.536157 0.885184 0.953321
Si Si4 0.699739 0.072730 0.066210
Si Si5 0.799239 0.931857 0.375627
O O1 0.919059 0.057131 0.206993
O O2 0.877390 0.306324 0.147007
O O3 0.922990 0.155436 0.028298
O O4 0.845748 0.018823 0.108836
O O5 0.438714 0.952201 0.635520
O O6 0.345589 0.934446 0.692777
O O7 0.500000 0.750000 0.920800
O O8 0.500000 0.000000 0.000000
O O9 0.750000 0.000000 0.104308
O O10 0.702193 0.255705 0.087687
O O11 0.694597 0.051553 0.958888
O O12 0.750000 0.000000 0.325499
#
# Coordination Sequence:
#
# PCOD8283436 Si02
#       5
#    16  16  16  16  16
#     4  11  25  46  72 103 143 181 233 287 355 419
#     4  11  25  46  72 105 140 184 230 291 350 421
#     4  12  26  48  75 100 135 184 234 293 354 413
#     4  11  22  39  68 102 141 188 232 282 345 422
#     4  11  22  39  68 102 141 187 233 280 348 420
#
# _framework density 23.203655999999999
#
# number of rings (size 3 to 8) (size 9 to 14) (size 15 to 20)
#    0.000    0.800    4.000    4.800    2.800    2.400 
#    0.000    1.000    0.000    0.000    0.000    0.000 
#    0.000    0.000    0.000    0.000    0.000    0.000 
#
# Total GULP energy -495583.466803 kJ/mol
# GULP energy per Si atom -12389.586670 kJ/mol
# Density = 2.315084 g / cm^3
# Si number density = 23.203656 Si / 1000 Ang^3
#
#
#
# Elastic Constant Matrix: (Units=GPa)
#
#
# Indices 1 2 3 4 5 6 
#
# 1 123.7986 39.4650 35.6012 0.0000 0.0000 0.0000
# 2 39.4650 117.1968 18.4357 0.0000 0.0000 0.0000
# 3 35.6012 18.4357 100.3452 0.0000 0.0000 0.0000
# 4 0.0000 0.0000 0.0000 29.4121 0.0000 0.0000
# 5 0.0000 0.0000 0.0000 0.0000 15.3866 0.0000
# 6 0.0000 0.0000 0.0000 0.0000 0.0000 51.6069
#
#
#
# Elastic Compliance Matrix: (Units=1/GPa)
#
#
# Indices 1 2 3 4 5 6 
#
# 1 0.009838 -0.002846 -0.002968 0.000000 0.000000 0.000000
# 2 -0.002846 0.009610 -0.000756 0.000000 0.000000 0.000000
# 3 -0.002968 -0.000756 0.011157 0.000000 0.000000 0.000000
# 4 0.000000 0.000000 0.000000 0.034000 0.000000 0.000000
# 5 0.000000 0.000000 0.000000 0.000000 0.064992 0.000000
# 6 0.000000 0.000000 0.000000 0.000000 0.000000 0.019377
#
#
# Mechanical properties :
#
#
# Convention : Reuss Voigt Hill
#
# Bulk Modulus (GPa) = 57.25240 58.70493 57.97866
# Shear Modulus (GPa) = 29.77332 35.80370 32.78851
#
# Velocity S-wave (km/s) = 3.58597 3.93239 3.76317
# Velocity P-wave (km/s) = 6.47093 6.78034 6.62744
#
# Compressibility (1/GPa) = 0.01746652
#
# Stress axis : x y z
#
# Youngs Moduli (GPa) = 101.64299 104.05870 89.62717
#
# Poissons Ratio (x) = 0.29617 0.26598
# Poissons Ratio (y) = 0.28929 0.06774
# Poissons Ratio (z) = 0.30164 0.07865
#
# Static dielectric constant tensor:
#      x y z
#    x 4.336840 0.000000 0.000000 
#    y 0.000000 4.275600 0.000000 
#    z 0.000000 0.000000 3.819590 
# 
# 
# High freq. dielectric constant tensor:
#      x y z
#    x 1.919250 0.000000 0.000000 
#    y 0.000000 1.932240 0.000000 
#    z 0.000000 0.000000 1.913730 
# 
# From -- ./inp_files/33958.got.cif
#   From: 2010.03.12/outbox.cif.g09.slc.cpg/sg68_17_cif.got.tgz:33958.got - 2010.04.10 23:14:56.
