data_PCOD8283878
_publ_section_title
;
Structure prediction by ZEFSAII (Michael W. Deem and Ramdas Pophale) SiO2 
 PCOD8283878
Probable space group: F M M M
;
_chemical_formula_sum "Si O2"
_cell_formula_units_Z 176
_cell_length_a 26.587175
_cell_length_b 13.847802
_cell_length_c 27.802543
_cell_angle_alpha 90.000000
_cell_angle_beta 90.000000
_cell_angle_gamma 90.000000
_cell_volume 10236.171663
_symmetry_space_group_name_H-M "F M M M"
_symmetry_group_IT_number 69
_symmetry_cell_setting 'orthorhombic'
loop_
_space_group_symop_operation_xyz
x,y,z
-x,-y,z
x,-y,-z
-x,y,-z
-x,-y,-z
x,y,-z
-x,y,z
x,-y,z
x,1/2+y,1/2+z
-x,1/2-y,1/2+z
x,1/2-y,1/2-z
-x,1/2+y,1/2-z
-x,1/2-y,1/2-z
x,1/2+y,1/2-z
-x,1/2+y,1/2+z
x,1/2-y,1/2+z
1/2+x,y,1/2+z
1/2-x,-y,1/2+z
1/2+x,-y,1/2-z
1/2-x,y,1/2-z
1/2-x,-y,1/2-z
1/2+x,y,1/2-z
1/2-x,y,1/2+z
1/2+x,-y,1/2+z
1/2+x,1/2+y,z
1/2-x,1/2-y,z
1/2+x,1/2-y,-z
1/2-x,1/2+y,-z
1/2-x,1/2-y,-z
1/2+x,1/2+y,-z
1/2-x,1/2+y,z
1/2+x,1/2-y,z
loop_
_atom_site_type_symbol
_atom_site_label
_atom_site_fract_x
_atom_site_fract_y
_atom_site_fract_z
Si Si1 0.557687 0.386664 0.631192
Si Si2 0.362886 0.317628 0.706507
Si Si3 0.304475 0.207603 0.625261
Si Si4 0.700815 0.500000 0.282265
Si Si5 0.730889 0.000000 0.630042
Si Si6 0.690750 0.500000 0.444441
Si Si7 0.128476 0.311992 0.056796
O O1 0.500000 0.360098 0.640544
O O2 0.565099 0.500000 0.621924
O O3 0.588308 0.354041 0.678106
O O4 0.575292 0.327380 0.583683
O O5 0.381215 0.250000 0.750000
O O6 0.325091 0.260956 0.671939
O O7 0.332643 0.406864 0.729163
O O8 0.250000 0.250000 0.611913
O O9 0.341295 0.221481 0.579221
O O10 0.303051 0.094276 0.638019
O O11 0.750000 0.500000 0.250000
O O12 0.718922 0.500000 0.337311
O O13 0.753267 0.000000 0.576605
O O14 0.699906 0.500000 0.500000
O O15 0.660580 0.594352 0.428567
O O16 0.119890 0.297883 0.000000
#
# Coordination Sequence:
#
# PCOD8283878 Si02
#       7
#    32  32  32  16  16  16  32
#     4  10  20  37  59  81 107 140 180 232 289 335
#     4  11  23  37  53  80 109 144 187 225 273 329
#     4  11  21  33  52  74 110 150 185 221 265 317
#     4  12  22  32  54  77 111 147 185 228 266 316
#     4  12  20  34  48  74 107 149 193 223 254 308
#     4  10  18  28  48  72 105 141 175 215 260 312
#     4  10  20  34  52  80 112 144 180 223 276 331
#
# _framework density 17.193928
#
# number of rings (size 3 to 8) (size 9 to 14) (size 15 to 20)
#    0.000    1.273    5.455    2.182    0.000    1.818 
#    0.000    0.909    0.000    0.000    0.000    5.727 
#    0.000    5.818    0.000    0.000    0.000    0.000 
#
# Total GULP energy -545696.630148 kJ/mol
# GULP energy per Si atom -12402.196140 kJ/mol
# Density = 1.715479 g / cm^3
# Si number density = 17.193928 Si / 1000 Ang^3
#
#
#
# Elastic Constant Matrix: (Units=GPa)
#
#
# Indices 1 2 3 4 5 6 
#
# 1 111.9413 39.3511 48.3319 0.0000 0.0000 0.0000
# 2 39.3511 95.4152 27.9916 0.0000 0.0000 0.0000
# 3 48.3319 27.9916 83.7388 0.0000 0.0000 0.0000
# 4 0.0000 0.0000 0.0000 23.4364 0.0000 0.0000
# 5 0.0000 0.0000 0.0000 0.0000 22.3604 0.0000
# 6 0.0000 0.0000 0.0000 0.0000 0.0000 22.3932
#
#
#
# Elastic Compliance Matrix: (Units=1/GPa)
#
#
# Indices 1 2 3 4 5 6 
#
# 1 0.012855 -0.003465 -0.006261 0.000000 0.000000 0.000000
# 2 -0.003465 0.012554 -0.002197 0.000000 0.000000 0.000000
# 3 -0.006261 -0.002197 0.016290 0.000000 0.000000 0.000000
# 4 0.000000 0.000000 0.000000 0.042669 0.000000 0.000000
# 5 0.000000 0.000000 0.000000 0.000000 0.044722 0.000000
# 6 0.000000 0.000000 0.000000 0.000000 0.000000 0.044656
#
#
# Mechanical properties :
#
#
# Convention : Reuss Voigt Hill
#
# Bulk Modulus (GPa) = 56.01203 58.04940 57.03071
# Shear Modulus (GPa) = 24.56499 25.33269 24.94884
#
# Velocity S-wave (km/s) = 3.78392 3.84259 3.81337
# Velocity P-wave (km/s) = 7.19292 7.31589 7.25466
#
# Compressibility (1/GPa) = 0.01785331
#
# Stress axis : x y z
#
# Youngs Moduli (GPa) = 77.79363 79.65688 61.38745
#
# Poissons Ratio (x) = 0.27598 0.38436
# Poissons Ratio (y) = 0.26953 0.13485
# Poissons Ratio (z) = 0.48708 0.17498
#
# Static dielectric constant tensor:
#      x y z
#    x 3.075870 0.000000 0.000000 
#    y 0.000000 3.190920 0.000000 
#    z 0.000000 0.000000 3.230530 
# 
# 
# High freq. dielectric constant tensor:
#      x y z
#    x 1.644950 0.000000 0.000000 
#    y 0.000000 1.659440 0.000000 
#    z 0.000000 0.000000 1.669630 
# 
# From -- ./inp_files/11590.got.cif
#   From: 2010.03.12/outbox.cif.g09.slc.cpg/sg69_6_cif.got.tgz:11590.got - 2010.04.10 23:52:46.
