data_PCOD8283733
_publ_section_title
;
Structure prediction by ZEFSAII (Michael W. Deem and Ramdas Pophale) SiO2 
 PCOD8283733
Probable space group: C C C A
;
_chemical_formula_sum "Si O2"
_cell_formula_units_Z 64
_cell_length_a 12.407835
_cell_length_b 12.559755
_cell_length_c 17.384031
_cell_angle_alpha 90.000000
_cell_angle_beta 90.000000
_cell_angle_gamma 90.000000
_cell_volume 2709.116399
_symmetry_space_group_name_H-M "C C C A"
_symmetry_group_IT_number 68
_space_group.IT_coordinate_system_code '2'
_symmetry_cell_setting 'orthorhombic'
loop_
_space_group_symop_operation_xyz
x,y,z
-x,1/2-y,z
x,1/2-y,1/2-z
-x,y,1/2-z
-x,-y,-z
x,1/2+y,-z
-x,1/2+y,1/2+z
x,-y,1/2+z
1/2+x,1/2+y,z
1/2-x,-y,z
1/2+x,-y,1/2-z
1/2-x,1/2+y,1/2-z
1/2-x,1/2-y,-z
1/2+x,y,-z
1/2-x,y,1/2+z
1/2+x,1/2-y,1/2+z
loop_
_atom_site_type_symbol
_atom_site_label
_atom_site_fract_x
_atom_site_fract_y
_atom_site_fract_z
Si Si1 0.422835 0.851553 0.407186
Si Si2 0.182734 0.608792 0.430149
Si Si3 0.016844 0.439403 0.661001
Si Si4 0.277514 0.703771 0.666712
O O1 0.500000 0.750000 0.413511
O O2 0.356024 0.873272 0.484130
O O3 0.338788 0.854097 0.334835
O O4 0.495152 0.954111 0.389945
O O5 0.250000 0.500000 0.421139
O O6 0.251517 0.708960 0.399969
O O7 0.084391 0.626145 0.369948
O O8 0.126916 0.376252 0.643092
O O9 0.000000 0.464054 0.750000
O O10 0.303789 0.750000 0.750000
#
# Coordination Sequence:
#
# PCOD8283733 Si02
#       4
#    16  16  16  16
#     4  12  28  48  74 108 153 194 251 313 375 452
#     4  12  26  48  76 110 149 200 251 307 377 450
#     4  12  26  45  75 107 150 198 253 310 380 447
#     4  12  26  45  75 107 150 198 253 310 380 447
#
# _framework density 23.623937999999999
#
# number of rings (size 3 to 8) (size 9 to 14) (size 15 to 20)
#    0.000    0.000    2.500    7.500    7.000    0.000 
#    0.000    0.000    0.000    0.000    0.000    0.000 
#    0.000    0.000    0.000    0.000    0.000    0.000 
#
# Total GULP energy -396749.045544 kJ/mol
# GULP energy per Si atom -12398.407673 kJ/mol
# Density = 2.357017 g / cm^3
# Si number density = 23.623938 Si / 1000 Ang^3
#
#
#
# Elastic Constant Matrix: (Units=GPa)
#
#
# Indices 1 2 3 4 5 6 
#
# 1 108.1466 18.9861 21.6831 0.0000 0.0000 0.0000
# 2 18.9861 119.4483 40.7898 0.0000 0.0000 0.0000
# 3 21.6831 40.7898 98.8609 0.0000 0.0000 0.0000
# 4 0.0000 0.0000 0.0000 38.6586 0.0000 0.0000
# 5 0.0000 0.0000 0.0000 0.0000 36.3433 0.0000
# 6 0.0000 0.0000 0.0000 0.0000 0.0000 34.6120
#
#
#
# Elastic Compliance Matrix: (Units=1/GPa)
#
#
# Indices 1 2 3 4 5 6 
#
# 1 0.009765 -0.000955 -0.001748 0.000000 0.000000 0.000000
# 2 -0.000955 0.009838 -0.003850 0.000000 0.000000 0.000000
# 3 -0.001748 -0.003850 0.012087 0.000000 0.000000 0.000000
# 4 0.000000 0.000000 0.000000 0.025867 0.000000 0.000000
# 5 0.000000 0.000000 0.000000 0.000000 0.027515 0.000000
# 6 0.000000 0.000000 0.000000 0.000000 0.000000 0.028892
#
#
# Mechanical properties :
#
#
# Convention : Reuss Voigt Hill
#
# Bulk Modulus (GPa) = 53.80743 54.37485 54.09114
# Shear Modulus (GPa) = 37.51931 38.25590 37.88761
#
# Velocity S-wave (km/s) = 3.98953 4.02851 4.00907
# Velocity P-wave (km/s) = 6.63686 6.68620 6.66158
#
# Compressibility (1/GPa) = 0.01858479
#
# Stress axis : x y z
#
# Youngs Moduli (GPa) = 102.40861 101.64367 82.73422
#
# Poissons Ratio (x) = 0.09710 0.14458
# Poissons Ratio (y) = 0.09783 0.31850
# Poissons Ratio (z) = 0.17896 0.39130
#
# Static dielectric constant tensor:
#      x y z
#    x 4.349100 0.000000 0.000000 
#    y 0.000000 4.347670 0.000000 
#    z 0.000000 0.000000 4.052260 
# 
# 
# High freq. dielectric constant tensor:
#      x y z
#    x 1.954120 0.000000 0.000000 
#    y 0.000000 1.954180 0.000000 
#    z 0.000000 0.000000 1.939310 
# 
# From -- ./inp_files/29169.got.cif
#   From: 2010.03.12/outbox.cif.g09.slc.cpg/sg68_15_cif.got.tgz:29169.got - 2010.04.10 23:14:56.
