data_PCOD8283141
_publ_section_title
;
Structure prediction by ZEFSAII (Michael W. Deem and Ramdas Pophale) SiO2 
 PCOD8283141
Probable space group: C C C A
;
_chemical_formula_sum "Si O2"
_cell_formula_units_Z 92
_cell_length_a 22.804224
_cell_length_b 10.797884
_cell_length_c 15.423555
_cell_angle_alpha 90.000000
_cell_angle_beta 90.000000
_cell_angle_gamma 90.000000
_cell_volume 3797.855549
_symmetry_space_group_name_H-M "C C C A"
_symmetry_group_IT_number 68
_space_group.IT_coordinate_system_code '2'
_symmetry_cell_setting 'orthorhombic'
loop_
_space_group_symop_operation_xyz
x,y,z
-x,1/2-y,z
x,1/2-y,1/2-z
-x,y,1/2-z
-x,-y,-z
x,1/2+y,-z
-x,1/2+y,1/2+z
x,-y,1/2+z
1/2+x,1/2+y,z
1/2-x,-y,z
1/2+x,-y,1/2-z
1/2-x,1/2+y,1/2-z
1/2-x,1/2-y,-z
1/2+x,y,-z
1/2-x,y,1/2+z
1/2+x,1/2-y,1/2+z
loop_
_atom_site_type_symbol
_atom_site_label
_atom_site_fract_x
_atom_site_fract_y
_atom_site_fract_z
Si Si1 0.285570 0.124286 0.095697
Si Si2 0.096460 0.917323 0.830656
Si Si3 0.500000 0.250000 0.095541
Si Si4 0.000000 0.250000 0.250000
Si Si5 0.407241 0.933578 0.660193
Si Si6 0.282855 0.127369 0.892448
Si Si7 0.562796 0.941656 0.504490
O O1 0.347247 0.138934 0.145119
O O2 0.253854 0.249241 0.125661
O O3 0.250000 0.000000 0.123970
O O4 0.298171 0.120586 0.993760
O O5 0.041322 0.826386 0.815905
O O6 0.159573 0.850863 0.832208
O O7 0.092186 0.019339 0.756918
O O8 0.098477 0.985237 0.922995
O O9 0.532999 0.352811 0.152938
O O10 0.447017 0.300375 0.034292
O O11 0.407038 0.047366 0.589872
O O12 0.250000 0.000000 0.864119
O O13 0.500000 0.000000 0.500000
#
# Coordination Sequence:
#
# PCOD8283141 Si02
#       7
#    16  16   8   4  16  16  16
#     4  10  23  46  79 111 145 195 256 306 381 454
#     4  12  27  47  70 109 151 191 253 310 386 459
#     4  10  24  42  74 102 146 194 252 318 388 458
#     4  12  28  46  72 108 152 198 244 324 386 466
#     4  11  25  44  73 107 146 196 250 315 385 462
#     4  10  24  49  77 110 148 194 249 318 373 456
#     4  10  23  44  66 104 142 192 245 305 381 454
#
# _framework density 24.224195999999999
#
# number of rings (size 3 to 8) (size 9 to 14) (size 15 to 20)
#    0.000    1.391    1.739    2.087    4.870    9.739 
#    0.000    0.000    0.000    0.000    0.000    0.000 
#    0.000    0.000    0.000    0.000    0.000    0.000 
#
# Total GULP energy -570164.017900 kJ/mol
# GULP energy per Si atom -12394.869954 kJ/mol
# Density = 2.416906 g / cm^3
# Si number density = 24.224196 Si / 1000 Ang^3
#
#
#
# Elastic Constant Matrix: (Units=GPa)
#
#
# Indices 1 2 3 4 5 6 
#
# 1 155.4860 63.3045 38.1107 0.0000 0.0000 0.0000
# 2 63.3045 139.6930 20.7140 0.0000 0.0000 0.0000
# 3 38.1107 20.7140 64.8492 0.0000 0.0000 0.0000
# 4 0.0000 0.0000 0.0000 16.6922 0.0000 0.0000
# 5 0.0000 0.0000 0.0000 0.0000 33.5090 0.0000
# 6 0.0000 0.0000 0.0000 0.0000 0.0000 38.2993
#
#
#
# Elastic Compliance Matrix: (Units=1/GPa)
#
#
# Indices 1 2 3 4 5 6 
#
# 1 0.008815 -0.003387 -0.004099 0.000000 0.000000 0.000000
# 2 -0.003387 0.008816 -0.000825 0.000000 0.000000 0.000000
# 3 -0.004099 -0.000825 0.018093 0.000000 0.000000 0.000000
# 4 0.000000 0.000000 0.000000 0.059908 0.000000 0.000000
# 5 0.000000 0.000000 0.000000 0.000000 0.029843 0.000000
# 6 0.000000 0.000000 0.000000 0.000000 0.000000 0.026110
#
#
# Mechanical properties :
#
#
# Convention : Reuss Voigt Hill
#
# Bulk Modulus (GPa) = 52.35176 67.14295 59.74736
# Shear Modulus (GPa) = 28.64121 33.56005 31.10063
#
# Velocity S-wave (km/s) = 3.44225 3.72613 3.58700
# Velocity P-wave (km/s) = 6.12021 6.80364 6.47095
#
# Compressibility (1/GPa) = 0.01910155
#
# Stress axis : x y z
#
# Youngs Moduli (GPa) = 113.44313 113.43261 55.27082
#
# Poissons Ratio (x) = 0.38419 0.22653
# Poissons Ratio (y) = 0.38422 0.04563
# Poissons Ratio (z) = 0.46495 0.09364
#
# Static dielectric constant tensor:
#      x y z
#    x 4.500410 0.000000 0.000000 
#    y 0.000000 4.718030 0.000000 
#    z 0.000000 0.000000 4.647980 
# 
# 
# High freq. dielectric constant tensor:
#      x y z
#    x 1.974080 0.000000 0.000000 
#    y 0.000000 1.958130 0.000000 
#    z 0.000000 0.000000 1.957510 
# 
# From -- ./inp_files/32829.got.cif
#   From: 2010.03.12/outbox.cif.g09.slc.cpg/sg68_17_cif.got.tgz:32829.got - 2010.04.10 23:14:56.
