data_PCOD8283463
_publ_section_title
;
Structure prediction by ZEFSAII (Michael W. Deem and Ramdas Pophale) SiO2 
 PCOD8283463
Probable space group: C C C A
;
_chemical_formula_sum "Si O2"
_cell_formula_units_Z 112
_cell_length_a 11.170945
_cell_length_b 14.872597
_cell_length_c 31.074180
_cell_angle_alpha 90.000000
_cell_angle_beta 90.000000
_cell_angle_gamma 90.000000
_cell_volume 5162.694193
_symmetry_space_group_name_H-M "C C C A"
_symmetry_group_IT_number 68
_space_group.IT_coordinate_system_code '2'
_symmetry_cell_setting 'orthorhombic'
loop_
_space_group_symop_operation_xyz
x,y,z
-x,1/2-y,z
x,1/2-y,1/2-z
-x,y,1/2-z
-x,-y,-z
x,1/2+y,-z
-x,1/2+y,1/2+z
x,-y,1/2+z
1/2+x,1/2+y,z
1/2-x,-y,z
1/2+x,-y,1/2-z
1/2-x,1/2+y,1/2-z
1/2-x,1/2-y,-z
1/2+x,y,-z
1/2-x,y,1/2+z
1/2+x,1/2-y,1/2+z
loop_
_atom_site_type_symbol
_atom_site_label
_atom_site_fract_x
_atom_site_fract_y
_atom_site_fract_z
Si Si1 0.010408 0.854548 0.923693
Si Si2 0.984747 0.351739 0.328868
Si Si3 0.363060 0.770257 0.850860
Si Si4 0.237925 0.600175 0.810510
Si Si5 0.257882 0.601927 0.713106
Si Si6 0.623897 0.551541 0.006577
Si Si7 0.764401 0.601415 0.424317
O O1 0.019350 0.900421 0.875792
O O2 0.136277 0.877809 0.946553
O O3 0.000000 0.750000 0.920398
O O4 0.896054 0.889302 0.950623
O O5 0.870443 0.357342 0.298275
O O6 0.000000 0.250000 0.341427
O O7 0.097384 0.387074 0.302401
O O8 0.500000 0.750000 0.863018
O O9 0.295296 0.675601 0.841747
O O10 0.359391 0.838024 0.810201
O O11 0.295219 0.823570 0.888750
O O12 0.250000 0.500000 0.830518
O O13 0.295307 0.606462 0.763078
O O14 0.250000 0.500000 0.696417
O O15 0.750000 0.500000 0.013310
O O16 0.500000 0.500000 0.000000
O O17 0.638046 0.608679 0.962471
O O18 0.750000 0.500000 0.404947
#
# Coordination Sequence:
#
# PCOD8283463 Si02
#       7
#    16  16  16  16  16  16  16
#     4  11  23  42  70 102 141 182 229 293 353 426
#     4  11  22  43  70  96 133 179 233 285 343 413
#     4  12  26  44  67 102 142 186 235 295 357 428
#     4  11  26  44  64 102 140 178 234 293 350 415
#     4  11  24  42  71  98 133 188 231 284 359 420
#     4  11  23  46  73 107 141 185 238 293 359 438
#     4  11  23  47  74  99 142 186 240 287 365 434
#
# _framework density 21.694099000000001
#
# number of rings (size 3 to 8) (size 9 to 14) (size 15 to 20)
#    0.000    0.857    5.714    2.143    2.000    3.429 
#    5.143    0.000    0.000    0.000    0.000    0.000 
#    0.000    0.000    0.000    0.000    0.000    0.000 
#
# Total GULP energy -693888.800222 kJ/mol
# GULP energy per Si atom -12390.871433 kJ/mol
# Density = 2.164472 g / cm^3
# Si number density = 21.694099 Si / 1000 Ang^3
#
#
#
# Elastic Constant Matrix: (Units=GPa)
#
#
# Indices 1 2 3 4 5 6 
#
# 1 122.2732 40.9864 27.5610 0.0000 0.0000 0.0000
# 2 40.9864 130.8900 49.1157 0.0000 0.0000 0.0000
# 3 27.5610 49.1157 97.0520 0.0000 0.0000 0.0000
# 4 0.0000 0.0000 0.0000 354.8306 0.0000 0.0000
# 5 0.0000 0.0000 0.0000 0.0000 54.1827 0.0000
# 6 0.0000 0.0000 0.0000 0.0000 0.0000 37.3478
#
#
#
# Elastic Compliance Matrix: (Units=1/GPa)
#
#
# Indices 1 2 3 4 5 6 
#
# 1 0.009298 -0.002371 -0.001441 0.000000 0.000000 0.000000
# 2 -0.002371 0.010036 -0.004405 0.000000 0.000000 0.000000
# 3 -0.001441 -0.004405 0.012942 0.000000 0.000000 0.000000
# 4 0.000000 0.000000 0.000000 0.002818 0.000000 0.000000
# 5 0.000000 0.000000 0.000000 0.000000 0.018456 0.000000
# 6 0.000000 0.000000 0.000000 0.000000 0.000000 0.026775
#
#
# Mechanical properties :
#
#
# Convention : Reuss Voigt Hill
#
# Bulk Modulus (GPa) = 63.12382 65.06015 64.09198
# Shear Modulus (GPa) = 49.00045 104.77571 76.88808
#
# Velocity S-wave (km/s) = 4.75773 6.95713 5.95977
# Velocity P-wave (km/s) = 7.70336 9.72577 8.77304
#
# Compressibility (1/GPa) = 0.01584188
#
# Stress axis : x y z
#
# Youngs Moduli (GPa) = 107.55159 99.64583 77.26585
#
# Poissons Ratio (x) = 0.23625 0.11130
# Poissons Ratio (y) = 0.25500 0.34039
# Poissons Ratio (z) = 0.15493 0.43898
#
# Static dielectric constant tensor:
#      x y z
#    x 3.827700 0.000000 0.000000 
#    y 0.000000 3.992380 0.000000 
#    z 0.000000 0.000000 4.291400 
# 
# 
# High freq. dielectric constant tensor:
#      x y z
#    x 1.856460 0.000000 0.000000 
#    y 0.000000 1.851810 0.000000 
#    z 0.000000 0.000000 1.851960 
# 
# From -- ./inp_files/54832.got.cif
#   From: 2010.03.12/outbox.cif.g09.slc.cpg/sg68_28_cif.got.tgz:54832.got - 2010.04.10 23:14:56.
