data_PCOD8283326
_publ_section_title
;
Structure prediction by ZEFSAII (Michael W. Deem and Ramdas Pophale) SiO2 
 PCOD8283326
Probable space group: C C C A
;
_chemical_formula_sum "Si O2"
_cell_formula_units_Z 88
_cell_length_a 13.794076
_cell_length_b 22.246285
_cell_length_c 13.394537
_cell_angle_alpha 90.000000
_cell_angle_beta 90.000000
_cell_angle_gamma 90.000000
_cell_volume 4110.340662
_symmetry_space_group_name_H-M "C C C A"
_symmetry_group_IT_number 68
_space_group.IT_coordinate_system_code '2'
_symmetry_cell_setting 'orthorhombic'
loop_
_space_group_symop_operation_xyz
x,y,z
-x,1/2-y,z
x,1/2-y,1/2-z
-x,y,1/2-z
-x,-y,-z
x,1/2+y,-z
-x,1/2+y,1/2+z
x,-y,1/2+z
1/2+x,1/2+y,z
1/2-x,-y,z
1/2+x,-y,1/2-z
1/2-x,1/2+y,1/2-z
1/2-x,1/2-y,-z
1/2+x,y,-z
1/2-x,y,1/2+z
1/2+x,1/2-y,1/2+z
loop_
_atom_site_type_symbol
_atom_site_label
_atom_site_fract_x
_atom_site_fract_y
_atom_site_fract_z
Si Si1 0.500000 0.250000 0.750000
Si Si2 0.000000 0.750000 0.250000
Si Si3 0.409250 0.847754 0.615099
Si Si4 0.804185 0.605406 0.629907
Si Si5 0.624968 0.951070 0.175812
Si Si6 0.000000 0.444942 0.750000
Si Si7 0.750000 0.000000 0.505272
Si Si8 0.007508 0.153179 0.398166
O O1 0.444781 0.295402 0.673879
O O2 0.928827 0.789958 0.317044
O O3 0.294987 0.859123 0.611848
O O4 0.466145 0.905441 0.656629
O O5 0.449339 0.834167 0.505821
O O6 0.807889 0.583374 0.744610
O O7 0.812557 0.545768 0.561669
O O8 0.889998 0.652571 0.602179
O O9 0.531669 0.911751 0.147880
O O10 0.591256 0.015332 0.216623
O O11 0.682081 0.958820 0.073231
#
# Coordination Sequence:
#
# PCOD8283326 Si02
#       8
#     4   4  16  16  16   8   8  16
#     4  12  24  50  70  86 130 178 234 300 332 394
#     4  10  26  54  70  98 146 174 238 308 336 396
#     4  11  25  46  72 102 137 186 232 285 352 406
#     4  12  24  42  69 104 138 181 229 276 343 428
#     4  12  23  42  64 106 141 183 221 281 342 414
#     4  11  21  41  70  97 147 181 216 282 342 413
#     4  12  24  36  68 102 146 174 220 268 342 432
#     4  12  25  46  70  98 136 180 236 288 345 403
#
# _framework density 21.409417000000001
#
# number of rings (size 3 to 8) (size 9 to 14) (size 15 to 20)
#    0.000    0.364    5.455    4.364    0.000    3.636 
#    0.000    1.818    0.000    0.000    0.000    0.000 
#    0.000    0.000    0.000    0.000    0.000    0.000 
#
# Total GULP energy -545650.456630 kJ/mol
# GULP energy per Si atom -12401.146742 kJ/mol
# Density = 2.136069 g / cm^3
# Si number density = 21.409417 Si / 1000 Ang^3
#
#
#
# Elastic Constant Matrix: (Units=GPa)
#
#
# Indices 1 2 3 4 5 6 
#
# 1 126.0321 43.6883 54.6833 0.0000 0.0000 0.0000
# 2 43.6883 123.0082 62.3039 0.0000 0.0000 0.0000
# 3 54.6833 62.3039 166.6937 0.0000 0.0000 0.0000
# 4 0.0000 0.0000 0.0000 20.1337 0.0000 0.0000
# 5 0.0000 0.0000 0.0000 0.0000 30.9535 0.0000
# 6 0.0000 0.0000 0.0000 0.0000 0.0000 20.1553
#
#
#
# Elastic Compliance Matrix: (Units=1/GPa)
#
#
# Indices 1 2 3 4 5 6 
#
# 1 0.009740 -0.002271 -0.002346 0.000000 0.000000 0.000000
# 2 -0.002271 0.010557 -0.003201 0.000000 0.000000 0.000000
# 3 -0.002346 -0.003201 0.007965 0.000000 0.000000 0.000000
# 4 0.000000 0.000000 0.000000 0.049668 0.000000 0.000000
# 5 0.000000 0.000000 0.000000 0.000000 0.032307 0.000000
# 6 0.000000 0.000000 0.000000 0.000000 0.000000 0.049615
#
#
# Mechanical properties :
#
#
# Convention : Reuss Voigt Hill
#
# Bulk Modulus (GPa) = 79.20214 81.89832 80.55023
# Shear Modulus (GPa) = 27.82471 31.25239 29.53855
#
# Velocity S-wave (km/s) = 3.60897 3.82481 3.71846
# Velocity P-wave (km/s) = 7.37839 7.60540 7.49275
#
# Compressibility (1/GPa) = 0.01262592
#
# Stress axis : x y z
#
# Youngs Moduli (GPa) = 102.67281 94.72052 125.54667
#
# Poissons Ratio (x) = 0.21509 0.29457
# Poissons Ratio (y) = 0.23315 0.40188
# Poissons Ratio (z) = 0.24090 0.30320
#
# Static dielectric constant tensor:
#      x y z
#    x 3.752860 0.000000 0.000000 
#    y 0.000000 3.964030 0.000000 
#    z 0.000000 0.000000 4.123550 
# 
# 
# High freq. dielectric constant tensor:
#      x y z
#    x 1.825720 0.000000 0.000000 
#    y 0.000000 1.842790 0.000000 
#    z 0.000000 0.000000 1.864640 
# 
# From -- ./inp_files/13382.got.cif
#   From: 2010.03.12/outbox.cif.g09.slc.cpg/sg68_7_cif.got.tgz:13382.got - 2010.04.10 23:14:56.
