data_PCOD8283777
_publ_section_title
;
Structure prediction by ZEFSAII (Michael W. Deem and Ramdas Pophale) SiO2 
 PCOD8283777
Probable space group: F M M M
;
_chemical_formula_sum "Si O2"
_cell_formula_units_Z 144
_cell_length_a 27.455464
_cell_length_b 19.219334
_cell_length_c 14.096560
_cell_angle_alpha 90.000000
_cell_angle_beta 90.000000
_cell_angle_gamma 90.000000
_cell_volume 7438.412627
_symmetry_space_group_name_H-M "F M M M"
_symmetry_group_IT_number 69
_symmetry_cell_setting 'orthorhombic'
loop_
_space_group_symop_operation_xyz
x,y,z
-x,-y,z
x,-y,-z
-x,y,-z
-x,-y,-z
x,y,-z
-x,y,z
x,-y,z
x,1/2+y,1/2+z
-x,1/2-y,1/2+z
x,1/2-y,1/2-z
-x,1/2+y,1/2-z
-x,1/2-y,1/2-z
x,1/2+y,1/2-z
-x,1/2+y,1/2+z
x,1/2-y,1/2+z
1/2+x,y,1/2+z
1/2-x,-y,1/2+z
1/2+x,-y,1/2-z
1/2-x,y,1/2-z
1/2-x,-y,1/2-z
1/2+x,y,1/2-z
1/2-x,y,1/2+z
1/2+x,-y,1/2+z
1/2+x,1/2+y,z
1/2-x,1/2-y,z
1/2+x,1/2-y,-z
1/2-x,1/2+y,-z
1/2-x,1/2-y,-z
1/2+x,1/2+y,-z
1/2-x,1/2+y,z
1/2+x,1/2-y,z
loop_
_atom_site_type_symbol
_atom_site_label
_atom_site_fract_x
_atom_site_fract_y
_atom_site_fract_z
Si Si1 0.056762 0.500000 0.104765
Si Si2 0.370999 0.919415 0.656506
Si Si3 0.388125 0.130644 0.148313
Si Si4 0.943293 0.720561 0.000000
Si Si5 0.944227 0.615080 0.500000
Si Si6 0.312761 0.082668 0.000000
Si Si7 0.296469 0.417719 0.000000
O O1 0.073595 0.431827 0.157954
O O2 0.000000 0.500000 0.095794
O O3 0.081310 0.500000 0.000000
O O4 0.373477 0.861607 0.741232
O O5 0.419757 0.916366 0.593750
O O6 0.325173 0.893328 0.593942
O O7 0.363973 0.000000 0.691438
O O8 0.416234 0.193456 0.095695
O O9 0.339207 0.110866 0.093242
O O10 0.938859 0.802265 0.000000
O O11 0.000000 0.695963 0.000000
O O12 0.000000 0.591553 0.500000
O O13 0.257956 0.113258 0.000000
O O14 0.312003 0.000000 0.000000
O O15 0.295279 0.500000 0.000000
#
# Coordination Sequence:
#
# PCOD8283777 Si02
#       7
#    16  32  32  16  16  16  16
#     4  11  18  28  46  74 110 142 166 211 270 309
#     4  10  20  37  55  80 108 137 180 224 271 311
#     4  11  19  32  53  81 111 136 175 222 263 323
#     4  10  22  38  53  77 109 145 180 214 266 317
#     4  10  23  40  55  72 105 148 188 220 249 312
#     4  10  16  30  51  81 114 140 172 212 275 327
#     4   8  18  32  52  75 110 148 169 215 268 321
#
# _framework density 19.358968000000001
#
# number of rings (size 3 to 8) (size 9 to 14) (size 15 to 20)
#    0.000    1.889    4.444    1.667    0.000    4.444 
#    0.000    5.556    0.000   10.667    0.000   12.444 
#    0.000    0.000    0.000    0.000    0.000    0.000 
#
# Total GULP energy -446178.651651 kJ/mol
# GULP energy per Si atom -12393.851435 kJ/mol
# Density = 1.931491 g / cm^3
# Si number density = 19.358968 Si / 1000 Ang^3
#
#
#
# Elastic Constant Matrix: (Units=GPa)
#
#
# Indices 1 2 3 4 5 6 
#
# 1 139.5400 12.6766 50.8339 0.0000 0.0000 0.0000
# 2 12.6766 36.8353 6.3063 0.0000 0.0000 0.0000
# 3 50.8339 6.3063 143.4181 0.0000 0.0000 0.0000
# 4 0.0000 0.0000 0.0000 19.3095 0.0000 0.0000
# 5 0.0000 0.0000 0.0000 0.0000 15.3766 0.0000
# 6 0.0000 0.0000 0.0000 0.0000 0.0000 15.1703
#
#
#
# Elastic Compliance Matrix: (Units=1/GPa)
#
#
# Indices 1 2 3 4 5 6 
#
# 1 0.008436 -0.002409 -0.002884 0.000000 0.000000 0.000000
# 2 -0.002409 0.028042 -0.000379 0.000000 0.000000 0.000000
# 3 -0.002884 -0.000379 0.008012 0.000000 0.000000 0.000000
# 4 0.000000 0.000000 0.000000 0.051788 0.000000 0.000000
# 5 0.000000 0.000000 0.000000 0.000000 0.065034 0.000000
# 6 0.000000 0.000000 0.000000 0.000000 0.000000 0.065918
#
#
# Mechanical properties :
#
#
# Convention : Reuss Voigt Hill
#
# Bulk Modulus (GPa) = 30.17111 51.04744 40.60928
# Shear Modulus (GPa) = 20.03020 26.63637 23.33329
#
# Velocity S-wave (km/s) = 3.22012 3.71336 3.47550
# Velocity P-wave (km/s) = 5.42628 6.69414 6.09328
#
# Compressibility (1/GPa) = 0.03314428
#
# Stress axis : x y z
#
# Youngs Moduli (GPa) = 118.53999 35.66086 124.81959
#
# Poissons Ratio (x) = 0.08592 0.36000
# Poissons Ratio (y) = 0.28561 0.04731
# Poissons Ratio (z) = 0.34189 0.01352
#
# Static dielectric constant tensor:
#      x y z
#    x 3.806990 0.000000 0.000000 
#    y 0.000000 3.206980 0.000000 
#    z 0.000000 0.000000 3.788800 
# 
# 
# High freq. dielectric constant tensor:
#      x y z
#    x 1.758430 0.000000 0.000000 
#    y 0.000000 1.719370 0.000000 
#    z 0.000000 0.000000 1.755350 
# 
# From -- ./inp_files/19548.got.cif
#   From: 2010.03.12/outbox.cif.g09.slc.cpg/sg69_10_cif.got.tgz:19548.got - 2010.04.10 23:52:46.
