data_PCOD8283951
_publ_section_title
;
Structure prediction by ZEFSAII (Michael W. Deem and Ramdas Pophale) SiO2 
 PCOD8283951
Probable space group: F M M M
;
_chemical_formula_sum "Si O2"
_cell_formula_units_Z 144
_cell_length_a 17.976275
_cell_length_b 23.546115
_cell_length_c 17.996584
_cell_angle_alpha 90.000000
_cell_angle_beta 90.000000
_cell_angle_gamma 90.000000
_cell_volume 7617.439996
_symmetry_space_group_name_H-M "F M M M"
_symmetry_group_IT_number 69
_symmetry_cell_setting 'orthorhombic'
loop_
_space_group_symop_operation_xyz
x,y,z
-x,-y,z
x,-y,-z
-x,y,-z
-x,-y,-z
x,y,-z
-x,y,z
x,-y,z
x,1/2+y,1/2+z
-x,1/2-y,1/2+z
x,1/2-y,1/2-z
-x,1/2+y,1/2-z
-x,1/2-y,1/2-z
x,1/2+y,1/2-z
-x,1/2+y,1/2+z
x,1/2-y,1/2+z
1/2+x,y,1/2+z
1/2-x,-y,1/2+z
1/2+x,-y,1/2-z
1/2-x,y,1/2-z
1/2-x,-y,1/2-z
1/2+x,y,1/2-z
1/2-x,y,1/2+z
1/2+x,-y,1/2+z
1/2+x,1/2+y,z
1/2-x,1/2-y,z
1/2+x,1/2-y,-z
1/2-x,1/2+y,-z
1/2-x,1/2-y,-z
1/2+x,1/2+y,-z
1/2-x,1/2+y,z
1/2+x,1/2-y,z
loop_
_atom_site_type_symbol
_atom_site_label
_atom_site_fract_x
_atom_site_fract_y
_atom_site_fract_z
Si Si1 0.000000 0.563362 0.588091
Si Si2 0.083812 0.860327 0.412664
Si Si3 0.413742 0.756263 0.663695
Si Si4 0.358639 0.365541 0.911666
Si Si5 0.282662 0.436677 0.588121
O O1 0.072810 0.596136 0.615895
O O2 0.000000 0.500000 0.622205
O O3 0.000000 0.559552 0.500000
O O4 0.089881 0.850323 0.500000
O O5 0.108993 0.802337 0.374550
O O6 0.138832 0.910146 0.385942
O O7 0.000000 0.877646 0.389241
O O8 0.500000 0.770949 0.648281
O O9 0.396439 0.750000 0.750000
O O10 0.362529 0.804988 0.628571
O O11 0.284361 0.397046 0.883834
O O12 0.359926 0.355912 0.000000
O O13 0.278782 0.440714 0.500000
O O14 0.275626 0.500000 0.622264
#
# Coordination Sequence:
#
# PCOD8283951 Si02
#       5
#    16  32  32  32  32
#     4   9  16  26  45  74 102 132 167 198 236 295
#     4   9  18  33  54  77 100 131 172 215 255 304
#     4  10  20  34  52  75 103 137 172 213 255 302
#     4  10  18  30  51  77 106 136 166 206 254 307
#     4   9  18  32  51  78 107 132 165 214 263 303
#
# _framework density 18.903987999999998
#
# number of rings (size 3 to 8) (size 9 to 14) (size 15 to 20)
#    0.000    2.556    1.111    1.333    0.000    4.889 
#    0.000    7.778    0.000    4.000    0.000    0.000 
#    0.000    0.000    0.000    0.000    0.000    0.000 
#
# Total GULP energy -446418.814152 kJ/mol
# GULP energy per Si atom -12400.522615 kJ/mol
# Density = 1.886096 g / cm^3
# Si number density = 18.903988 Si / 1000 Ang^3
#
#
#
# Elastic Constant Matrix: (Units=GPa)
#
#
# Indices 1 2 3 4 5 6 
#
# 1 129.8776 82.7558 25.8814 0.0000 0.0000 0.0000
# 2 82.7558 153.9272 41.4404 0.0000 0.0000 0.0000
# 3 25.8814 41.4404 31.2947 0.0000 0.0000 0.0000
# 4 0.0000 0.0000 0.0000 -1.1350 0.0000 0.0000
# 5 0.0000 0.0000 0.0000 0.0000 9.6190 0.0000
# 6 0.0000 0.0000 0.0000 0.0000 0.0000 35.4189
#
#
#
# Elastic Compliance Matrix: (Units=1/GPa)
#
#
# Indices 1 2 3 4 5 6 
#
# 1 0.011801 -0.005776 -0.002111 0.000000 0.000000 0.000000
# 2 -0.005776 0.012923 -0.012336 0.000000 0.000000 0.000000
# 3 -0.002111 -0.012336 0.050035 0.000000 0.000000 0.000000
# 4 0.000000 0.000000 0.000000 -0.881029 0.000000 0.000000
# 5 0.000000 0.000000 0.000000 0.000000 0.103961 0.000000
# 6 0.000000 0.000000 0.000000 0.000000 0.000000 0.028234
#
#
# Mechanical properties :
#
#
# Convention : Reuss Voigt Hill
#
# Bulk Modulus (GPa) = 29.14309 68.36162 48.75235
# Shear Modulus (GPa) = -8.03607 19.78204 5.87299
#
# Velocity S-wave (km/s) = -2.06403 3.23839 1.76451
# Velocity P-wave (km/s) = 3.12563 7.08689 5.47693
#
# Compressibility (1/GPa) = 0.03431345
#
# Stress axis : x y z
#
# Youngs Moduli (GPa) = 84.74140 77.38142 19.98621
#
# Poissons Ratio (x) = 0.44697 0.04218
# Poissons Ratio (y) = 0.48948 0.24654
# Poissons Ratio (z) = 0.17885 0.95455
#
# Static dielectric constant tensor:
#      x y z
#    x 3.576600 0.000000 0.000000 
#    y 0.000000 3.645550 0.000000 
#    z 0.000000 0.000000 3.008690 
# 
# 
# High freq. dielectric constant tensor:
#      x y z
#    x 1.737170 0.000000 0.000000 
#    y 0.000000 1.744670 0.000000 
#    z 0.000000 0.000000 1.687820 
# 
# From -- ./inp_files/22863.got.cif
#   From: 2010.03.12/outbox.cif.g09.slc.cpg/sg69_12_cif.got.tgz:22863.got - 2010.04.10 23:52:46.
