data_PCOD8283587
_publ_section_title
;
Structure prediction by ZEFSAII (Michael W. Deem and Ramdas Pophale) SiO2 
 PCOD8283587
Probable space group: C C C A
;
_chemical_formula_sum "Si O2"
_cell_formula_units_Z 84
_cell_length_a 10.980117
_cell_length_b 16.761699
_cell_length_c 21.267532
_cell_angle_alpha 90.000000
_cell_angle_beta 90.000000
_cell_angle_gamma 90.000000
_cell_volume 3914.191777
_symmetry_space_group_name_H-M "C C C A"
_symmetry_group_IT_number 68
_space_group.IT_coordinate_system_code '2'
_symmetry_cell_setting 'orthorhombic'
loop_
_space_group_symop_operation_xyz
x,y,z
-x,1/2-y,z
x,1/2-y,1/2-z
-x,y,1/2-z
-x,-y,-z
x,1/2+y,-z
-x,1/2+y,1/2+z
x,-y,1/2+z
1/2+x,1/2+y,z
1/2-x,-y,z
1/2+x,-y,1/2-z
1/2-x,1/2+y,1/2-z
1/2-x,1/2-y,-z
1/2+x,y,-z
1/2-x,y,1/2+z
1/2+x,1/2-y,1/2+z
loop_
_atom_site_type_symbol
_atom_site_label
_atom_site_fract_x
_atom_site_fract_y
_atom_site_fract_z
Si Si1 0.500713 0.905759 0.067053
Si Si2 0.550259 0.340197 0.186152
Si Si3 0.000000 0.750000 0.750000
Si Si4 0.816507 0.829417 0.842832
Si Si5 0.078662 0.074538 0.926210
Si Si6 0.781735 0.699245 0.937999
O O1 0.377344 0.891702 0.107797
O O2 0.576767 0.823927 0.066627
O O3 0.578395 0.981086 0.093923
O O4 0.475336 0.921253 0.995010
O O5 0.500000 0.250000 0.184670
O O6 0.500000 0.381155 0.250000
O O7 0.695041 0.359375 0.191710
O O8 0.507174 0.380624 0.122360
O O9 0.082374 0.692414 0.791892
O O10 0.757911 0.753860 0.878283
O O11 0.209624 0.116365 0.930092
O O12 0.750000 0.750000 0.000000
#
# Coordination Sequence:
#
# PCOD8283587 Si02
#       6
#    16  16   4  16  16  16
#     4  11  25  43  64 105 139 178 232 283 358 405
#     4  11  24  44  70 101 134 180 236 283 348 426
#     4  12  24  44  66 100 136 176 228 298 332 408
#     4  12  24  42  71 100 134 178 233 291 345 411
#     4  11  25  42  68  99 142 181 224 290 345 412
#     4  12  22  41  70  99 136 179 230 285 339 411
#
# _framework density 21.460370000000001
#
# number of rings (size 3 to 8) (size 9 to 14) (size 15 to 20)
#    0.000    0.571    5.714    2.857    0.000    0.762 
#    1.714    0.000    0.000    0.000    0.000    0.000 
#    0.000    0.000    0.000    0.000    0.000    0.000 
#
# Total GULP energy -520488.839208 kJ/mol
# GULP energy per Si atom -12392.591410 kJ/mol
# Density = 2.141153 g / cm^3
# Si number density = 21.460370 Si / 1000 Ang^3
#
#
#
# Elastic Constant Matrix: (Units=GPa)
#
#
# Indices 1 2 3 4 5 6 
#
# 1 141.0695 42.1560 57.7298 0.0000 0.0000 0.0000
# 2 42.1560 92.6182 36.2049 0.0000 0.0000 0.0000
# 3 57.7298 36.2049 132.6403 0.0000 0.0000 0.0000
# 4 0.0000 0.0000 0.0000 -54.0457 0.0000 0.0000
# 5 0.0000 0.0000 0.0000 0.0000 42.0436 0.0000
# 6 0.0000 0.0000 0.0000 0.0000 0.0000 279.7967
#
#
#
# Elastic Compliance Matrix: (Units=1/GPa)
#
#
# Indices 1 2 3 4 5 6 
#
# 1 0.009301 -0.002967 -0.003238 0.000000 0.000000 0.000000
# 2 -0.002967 0.013033 -0.002266 0.000000 0.000000 0.000000
# 3 -0.003238 -0.002266 0.009567 0.000000 0.000000 0.000000
# 4 0.000000 0.000000 0.000000 -0.018503 0.000000 0.000000
# 5 0.000000 0.000000 0.000000 0.000000 0.023785 0.000000
# 6 0.000000 0.000000 0.000000 0.000000 0.000000 0.003574
#
#
# Mechanical properties :
#
#
# Convention : Reuss Voigt Hill
#
# Bulk Modulus (GPa) = 66.85325 70.94547 68.89936
# Shear Modulus (GPa) = 79.76275 68.90807 74.33541
#
# Velocity S-wave (km/s) = 6.10313 5.67267 5.89183
# Velocity P-wave (km/s) = 8.99354 8.71987 8.85776
#
# Compressibility (1/GPa) = 0.01495814
#
# Stress axis : x y z
#
# Youngs Moduli (GPa) = 107.52061 76.72544 104.52633
#
# Poissons Ratio (x) = 0.22768 0.33845
# Poissons Ratio (y) = 0.31907 0.23686
# Poissons Ratio (z) = 0.34814 0.17386
#
# Static dielectric constant tensor:
#      x y z
#    x 3.946560 0.000000 0.000000 
#    y 0.000000 4.196690 0.000000 
#    z 0.000000 0.000000 4.085150 
# 
# 
# High freq. dielectric constant tensor:
#      x y z
#    x 1.852250 0.000000 0.000000 
#    y 0.000000 1.829660 0.000000 
#    z 0.000000 0.000000 1.849590 
# 
# From -- ./inp_files/37387.got.cif
#   From: 2010.03.12/outbox.cif.g09.slc.cpg/sg68_19_cif.got.tgz:37387.got - 2010.04.10 23:14:56.
