data_PCOD8283052
_publ_section_title
;
Structure prediction by ZEFSAII (Michael W. Deem and Ramdas Pophale) SiO2 
 PCOD8283052
Probable space group: C C C A
;
_chemical_formula_sum "Si O2"
_cell_formula_units_Z 80
_cell_length_a 30.852428
_cell_length_b 12.351336
_cell_length_c 11.090527
_cell_angle_alpha 90.000000
_cell_angle_beta 90.000000
_cell_angle_gamma 90.000000
_cell_volume 4226.252758
_symmetry_space_group_name_H-M "C C C A"
_symmetry_group_IT_number 68
_space_group.IT_coordinate_system_code '2'
_symmetry_cell_setting 'orthorhombic'
loop_
_space_group_symop_operation_xyz
x,y,z
-x,1/2-y,z
x,1/2-y,1/2-z
-x,y,1/2-z
-x,-y,-z
x,1/2+y,-z
-x,1/2+y,1/2+z
x,-y,1/2+z
1/2+x,1/2+y,z
1/2-x,-y,z
1/2+x,-y,1/2-z
1/2-x,1/2+y,1/2-z
1/2-x,1/2-y,-z
1/2+x,y,-z
1/2-x,y,1/2+z
1/2+x,1/2-y,1/2+z
loop_
_atom_site_type_symbol
_atom_site_label
_atom_site_fract_x
_atom_site_fract_y
_atom_site_fract_z
Si Si1 0.194036 0.594642 0.209070
Si Si2 0.164084 0.720560 0.438370
Si Si3 0.294250 0.853804 0.323452
Si Si4 0.496252 0.422117 0.112869
Si Si5 0.427932 0.251343 0.384935
O O1 0.172240 0.641007 0.327626
O O2 0.174822 0.654224 0.091448
O O3 0.244593 0.623794 0.206765
O O4 0.182019 0.467313 0.206148
O O5 0.196167 0.675609 0.539264
O O6 0.112725 0.721413 0.472978
O O7 0.312025 0.750000 0.250000
O O8 0.500000 0.473092 0.250000
O O9 0.449774 0.365206 0.092684
O O10 0.535287 0.339421 0.099351
O O11 0.500000 0.500000 0.000000
O O12 0.408528 0.250000 0.250000
#
# Coordination Sequence:
#
# PCOD8283052 Si02
#       5
#    16  16  16  16  16
#     4  10  23  38  60  80 115 168 203 246 314 352
#     4  11  21  40  60  85 120 160 208 253 296 369
#     4  11  24  38  58  89 118 158 210 261 306 348
#     4   9  19  37  62  89 117 154 193 240 300 365
#     4   9  18  38  60  83 115 158 199 228 292 376
#
# _framework density 18.929299
#
# number of rings (size 3 to 8) (size 9 to 14) (size 15 to 20)
#    0.000    2.000    4.000    1.800    2.800    3.200 
#    0.000    2.000    0.000    0.000    0.000    0.000 
#    0.000    0.000    0.000    0.000    0.000    0.000 
#
# Total GULP energy -495534.815274 kJ/mol
# GULP energy per Si atom -12388.370382 kJ/mol
# Density = 1.888622 g / cm^3
# Si number density = 18.929299 Si / 1000 Ang^3
#
#
#
# Elastic Constant Matrix: (Units=GPa)
#
#
# Indices 1 2 3 4 5 6 
#
# 1 82.8144 28.2476 24.1073 0.0000 0.0000 0.0000
# 2 28.2476 148.7460 62.3463 0.0000 0.0000 0.0000
# 3 24.1073 62.3463 93.0318 0.0000 0.0000 0.0000
# 4 0.0000 0.0000 0.0000 23.9159 0.0000 0.0000
# 5 0.0000 0.0000 0.0000 0.0000 11.9598 0.0000
# 6 0.0000 0.0000 0.0000 0.0000 0.0000 9.0860
#
#
#
# Elastic Compliance Matrix: (Units=1/GPa)
#
#
# Indices 1 2 3 4 5 6 
#
# 1 0.013298 -0.001503 -0.002438 0.000000 0.000000 0.000000
# 2 -0.001503 0.009519 -0.005990 0.000000 0.000000 0.000000
# 3 -0.002438 -0.005990 0.015395 0.000000 0.000000 0.000000
# 4 0.000000 0.000000 0.000000 0.041813 0.000000 0.000000
# 5 0.000000 0.000000 0.000000 0.000000 0.083613 0.000000
# 6 0.000000 0.000000 0.000000 0.000000 0.000000 0.110059
#
#
# Mechanical properties :
#
#
# Convention : Reuss Voigt Hill
#
# Bulk Modulus (GPa) = 54.49915 61.55496 58.02705
# Shear Modulus (GPa) = 16.68468 22.98509 19.83488
#
# Velocity S-wave (km/s) = 2.97209 3.48840 3.24055
# Velocity P-wave (km/s) = 6.37426 6.98672 6.68750
#
# Compressibility (1/GPa) = 0.01834891
#
# Stress axis : x y z
#
# Youngs Moduli (GPa) = 75.20053 105.05439 64.95654
#
# Poissons Ratio (x) = 0.15792 0.15839
# Poissons Ratio (y) = 0.11305 0.38907
# Poissons Ratio (z) = 0.18337 0.62924
#
# Static dielectric constant tensor:
#      x y z
#    x 3.489640 0.000000 0.000000 
#    y 0.000000 6.318630 0.000000 
#    z 0.000000 0.000000 3.177950 
# 
# 
# High freq. dielectric constant tensor:
#      x y z
#    x 1.738050 0.000000 0.000000 
#    y 0.000000 1.735480 0.000000 
#    z 0.000000 0.000000 1.717100 
# 
# From -- ./inp_files/17566.got.cif
#   From: 2010.03.12/outbox.cif.g09.slc.cpg/sg68_9_cif.got.tgz:17566.got - 2010.04.10 23:14:56.
