data_PCOD8283100
_publ_section_title
;
Structure prediction by ZEFSAII (Michael W. Deem and Ramdas Pophale) SiO2 
 PCOD8283100
Probable space group: C C C A
;
_chemical_formula_sum "Si O2"
_cell_formula_units_Z 96
_cell_length_a 12.713251
_cell_length_b 15.175291
_cell_length_c 23.866168
_cell_angle_alpha 90.000000
_cell_angle_beta 90.000000
_cell_angle_gamma 90.000000
_cell_volume 4604.434959
_symmetry_space_group_name_H-M "C C C A"
_symmetry_group_IT_number 68
_space_group.IT_coordinate_system_code '2'
_symmetry_cell_setting 'orthorhombic'
loop_
_space_group_symop_operation_xyz
x,y,z
-x,1/2-y,z
x,1/2-y,1/2-z
-x,y,1/2-z
-x,-y,-z
x,1/2+y,-z
-x,1/2+y,1/2+z
x,-y,1/2+z
1/2+x,1/2+y,z
1/2-x,-y,z
1/2+x,-y,1/2-z
1/2-x,1/2+y,1/2-z
1/2-x,1/2-y,-z
1/2+x,y,-z
1/2-x,y,1/2+z
1/2+x,1/2-y,1/2+z
loop_
_atom_site_type_symbol
_atom_site_label
_atom_site_fract_x
_atom_site_fract_y
_atom_site_fract_z
Si Si1 0.188158 0.763093 0.185382
Si Si2 0.500000 0.422240 0.750000
Si Si3 0.000000 0.750000 0.118966
Si Si4 0.438800 0.920715 0.558526
Si Si5 0.904370 0.315612 0.346933
Si Si6 0.136122 0.960168 0.941864
Si Si7 0.859203 0.963688 0.329674
O O1 0.205497 0.750000 0.250000
O O2 0.093293 0.705989 0.157598
O O3 0.297969 0.742686 0.154295
O O4 0.141403 0.860210 0.179049
O O5 0.421332 0.360210 0.714218
O O6 0.555303 0.486179 0.706515
O O7 0.051830 0.821283 0.078814
O O8 0.368220 0.914092 0.502635
O O9 0.380083 0.981917 0.604611
O O10 0.555413 0.959209 0.551606
O O11 0.895655 0.390553 0.394104
O O12 0.000000 0.250000 0.361823
O O13 0.250000 0.000000 0.927998
O O14 0.750000 0.000000 0.308742
#
# Coordination Sequence:
#
# PCOD8283100 Si02
#       7
#    16   8   8  16  16  16  16
#     4  11  24  39  65  95 138 175 220 283 339 407
#     4  12  25  44  67 100 136 182 232 279 342 414
#     4  10  23  42  64  98 134 177 232 280 344 412
#     4  10  23  44  66  97 134 174 231 284 341 418
#     4  12  25  44  68 102 140 179 231 286 347 421
#     4  11  24  44  71  97 134 177 230 287 348 411
#     4  11  23  41  65  95 131 180 222 277 342 407
#
# _framework density 20.849464000000001
#
# number of rings (size 3 to 8) (size 9 to 14) (size 15 to 20)
#    0.000    1.000    1.667    5.000    5.833    2.000 
#    3.000    4.167    0.000    0.000    0.000    0.000 
#    0.000    0.000    0.000    0.000    0.000    0.000 
#
# Total GULP energy -595030.939605 kJ/mol
# GULP energy per Si atom -12396.477908 kJ/mol
# Density = 2.080201 g / cm^3
# Si number density = 20.849464 Si / 1000 Ang^3
#
#
#
# Elastic Constant Matrix: (Units=GPa)
#
#
# Indices 1 2 3 4 5 6 
#
# 1 120.9630 30.5589 34.8644 0.0000 0.0000 0.0000
# 2 30.5589 76.6912 34.0599 0.0000 0.0000 0.0000
# 3 34.8644 34.0599 132.1952 0.0000 0.0000 0.0000
# 4 0.0000 0.0000 0.0000 31.1221 0.0000 0.0000
# 5 0.0000 0.0000 0.0000 0.0000 25.5514 0.0000
# 6 0.0000 0.0000 0.0000 0.0000 0.0000 33.7520
#
#
#
# Elastic Compliance Matrix: (Units=1/GPa)
#
#
# Indices 1 2 3 4 5 6 
#
# 1 0.009532 -0.003028 -0.001734 0.000000 0.000000 0.000000
# 2 -0.003028 0.015686 -0.003243 0.000000 0.000000 0.000000
# 3 -0.001734 -0.003243 0.008857 0.000000 0.000000 0.000000
# 4 0.000000 0.000000 0.000000 0.032131 0.000000 0.000000
# 5 0.000000 0.000000 0.000000 0.000000 0.039137 0.000000
# 6 0.000000 0.000000 0.000000 0.000000 0.000000 0.029628
#
#
# Mechanical properties :
#
#
# Convention : Reuss Voigt Hill
#
# Bulk Modulus (GPa) = 55.35312 58.75731 57.05522
# Shear Modulus (GPa) = 31.84661 33.44283 32.64472
#
# Velocity S-wave (km/s) = 3.91251 4.00936 3.96123
# Velocity P-wave (km/s) = 6.85688 7.04813 6.95316
#
# Compressibility (1/GPa) = 0.01806583
#
# Stress axis : x y z
#
# Youngs Moduli (GPa) = 104.91352 63.75055 112.90100
#
# Poissons Ratio (x) = 0.19304 0.19573
# Poissons Ratio (y) = 0.31769 0.36613
# Poissons Ratio (z) = 0.18188 0.20674
#
# Static dielectric constant tensor:
#      x y z
#    x 4.098170 0.000000 0.000000 
#    y 0.000000 3.272640 0.000000 
#    z 0.000000 0.000000 4.333730 
# 
# 
# High freq. dielectric constant tensor:
#      x y z
#    x 1.828550 0.000000 0.000000 
#    y 0.000000 1.812750 0.000000 
#    z 0.000000 0.000000 1.827660 
# 
# From -- ./inp_files/44467.got.cif
#   From: 2010.03.12/outbox.cif.g09.slc.cpg/sg68_23_cif.got.tgz:44467.got - 2010.04.10 23:14:56.
