data_PCOD8283813
_publ_section_title
;
Structure prediction by ZEFSAII (Michael W. Deem and Ramdas Pophale) SiO2 
 PCOD8283813
Probable space group: F M M M
;
_chemical_formula_sum "Si O2"
_cell_formula_units_Z 136
_cell_length_a 29.441781
_cell_length_b 21.734035
_cell_length_c 13.651744
_cell_angle_alpha 90.000000
_cell_angle_beta 90.000000
_cell_angle_gamma 90.000000
_cell_volume 8735.596703
_symmetry_space_group_name_H-M "F M M M"
_symmetry_group_IT_number 69
_symmetry_cell_setting 'orthorhombic'
loop_
_space_group_symop_operation_xyz
x,y,z
-x,-y,z
x,-y,-z
-x,y,-z
-x,-y,-z
x,y,-z
-x,y,z
x,-y,z
x,1/2+y,1/2+z
-x,1/2-y,1/2+z
x,1/2-y,1/2-z
-x,1/2+y,1/2-z
-x,1/2-y,1/2-z
x,1/2+y,1/2-z
-x,1/2+y,1/2+z
x,1/2-y,1/2+z
1/2+x,y,1/2+z
1/2-x,-y,1/2+z
1/2+x,-y,1/2-z
1/2-x,y,1/2-z
1/2-x,-y,1/2-z
1/2+x,y,1/2-z
1/2-x,y,1/2+z
1/2+x,-y,1/2+z
1/2+x,1/2+y,z
1/2-x,1/2-y,z
1/2+x,1/2-y,-z
1/2-x,1/2+y,-z
1/2-x,1/2-y,-z
1/2+x,1/2+y,-z
1/2-x,1/2+y,z
1/2+x,1/2-y,z
loop_
_atom_site_type_symbol
_atom_site_label
_atom_site_fract_x
_atom_site_fract_y
_atom_site_fract_z
Si Si1 0.250000 0.250000 0.750000
Si Si2 0.640798 0.928152 0.797546
Si Si3 0.193953 0.570555 0.609820
Si Si4 0.781790 0.850512 0.387223
Si Si5 0.950374 0.927024 0.610268
O O1 0.217017 0.209678 0.681003
O O2 0.652649 0.915330 0.683832
O O3 0.674556 0.892361 0.869049
O O4 0.589610 0.903794 0.817574
O O5 0.645228 0.000000 0.823667
O O6 0.176925 0.585647 0.500000
O O7 0.209858 0.500000 0.618388
O O8 0.236654 0.611553 0.640265
O O9 0.781397 0.829847 0.500000
O O10 0.940465 0.903507 0.500000
O O11 0.000000 0.902191 0.645502
O O12 0.951591 0.000000 0.610643
#
# Coordination Sequence:
#
# PCOD8283813 Si02
#       5
#     8  32  32  32  32
#     4  12  22  36  42  58  90 128 150 186 216 250
#     4  10  17  28  47  69  91 116 146 179 220 267
#     4   9  17  29  45  65  89 115 145 183 222 260
#     4  11  21  32  46  64  88 118 152 184 216 259
#     4   8  14  24  39  63  93 117 136 167 217 271
#
# _framework density 15.568484
#
# number of rings (size 3 to 8) (size 9 to 14) (size 15 to 20)
#    0.000    2.353    2.353    2.471    0.000    4.235 
#    0.000    0.000    0.000    0.706    0.000    5.765 
#    0.000    0.000    0.000    0.000    0.000    0.000 
#
# Total GULP energy -421472.338757 kJ/mol
# GULP energy per Si atom -12396.245258 kJ/mol
# Density = 1.553305 g / cm^3
# Si number density = 15.568484 Si / 1000 Ang^3
#
#
#
# Elastic Constant Matrix: (Units=GPa)
#
#
# Indices 1 2 3 4 5 6 
#
# 1 139.2248 32.4953 67.8354 0.0000 0.0000 0.0000
# 2 32.4953 45.3922 37.5681 0.0000 0.0000 0.0000
# 3 67.8354 37.5681 100.6349 0.0001 0.0000 0.0000
# 4 0.0000 0.0000 0.0001 22.5557 0.0000 0.0000
# 5 0.0000 0.0000 0.0000 0.0000 25.2536 0.0000
# 6 0.0000 0.0000 0.0000 0.0000 0.0000 2.5707
#
#
#
# Elastic Compliance Matrix: (Units=1/GPa)
#
#
# Indices 1 2 3 4 5 6 
#
# 1 0.010886 -0.002489 -0.006409 0.000000 0.000000 0.000000
# 2 -0.002489 0.032449 -0.010436 0.000000 0.000000 0.000000
# 3 -0.006409 -0.010436 0.018153 0.000000 0.000000 0.000000
# 4 0.000000 0.000000 0.000000 0.044335 0.000000 0.000000
# 5 0.000000 0.000000 0.000000 0.000000 0.039598 0.000000
# 6 0.000000 0.000000 0.000000 0.000000 0.000000 0.389004
#
#
# Mechanical properties :
#
#
# Convention : Reuss Voigt Hill
#
# Bulk Modulus (GPa) = 43.82003 62.33882 53.07942
# Shear Modulus (GPa) = 8.61030 19.89952 14.25491
#
# Velocity S-wave (km/s) = 2.35427 3.57906 3.02921
# Velocity P-wave (km/s) = 5.96639 7.56361 6.81198
#
# Compressibility (1/GPa) = 0.02282062
#
# Stress axis : x y z
#
# Youngs Moduli (GPa) = 91.85906 30.81747 55.08763
#
# Poissons Ratio (x) = 0.07670 0.35306
# Poissons Ratio (y) = 0.22863 0.57489
# Poissons Ratio (z) = 0.58872 0.32161
#
# Static dielectric constant tensor:
#      x y z
#    x 3.160220 0.000000 0.000000 
#    y 0.000000 2.719990 0.000000 
#    z 0.000000 0.000000 3.113130 
# 
# 
# High freq. dielectric constant tensor:
#      x y z
#    x 1.579560 0.000000 0.000000 
#    y 0.000000 1.560530 0.000000 
#    z 0.000000 0.000000 1.606380 
# 
# From -- ./inp_files/17523.got.cif
#   From: 2010.03.12/outbox.cif.g09.slc.cpg/sg69_9_cif.got.tgz:17523.got - 2010.04.10 23:52:46.
