data_PCOD8283720
_publ_section_title
;
Structure prediction by ZEFSAII (Michael W. Deem and Ramdas Pophale) SiO2 
 PCOD8283720
Probable space group: C C C A
;
_chemical_formula_sum "Si O2"
_cell_formula_units_Z 48
_cell_length_a 13.536335
_cell_length_b 31.185465
_cell_length_c 4.854687
_cell_angle_alpha 90.000000
_cell_angle_beta 90.000000
_cell_angle_gamma 90.000000
_cell_volume 2049.342527
_symmetry_space_group_name_H-M "C C C A"
_symmetry_group_IT_number 68
_space_group.IT_coordinate_system_code '2'
_symmetry_cell_setting 'orthorhombic'
loop_
_space_group_symop_operation_xyz
x,y,z
-x,1/2-y,z
x,1/2-y,1/2-z
-x,y,1/2-z
-x,-y,-z
x,1/2+y,-z
-x,1/2+y,1/2+z
x,-y,1/2+z
1/2+x,1/2+y,z
1/2-x,-y,z
1/2+x,-y,1/2-z
1/2-x,1/2+y,1/2-z
1/2-x,1/2-y,-z
1/2+x,y,-z
1/2-x,y,1/2+z
1/2+x,1/2-y,1/2+z
loop_
_atom_site_type_symbol
_atom_site_label
_atom_site_fract_x
_atom_site_fract_y
_atom_site_fract_z
Si Si1 0.562037 0.172042 0.509243
Si Si2 0.500000 0.531496 0.750000
Si Si3 0.817896 0.405412 0.712695
Si Si4 0.823162 0.750000 0.750000
O O1 0.500000 0.191041 0.250000
O O2 0.641516 0.141565 0.363766
O O3 0.608132 0.209022 0.700888
O O4 0.500000 0.146529 0.750000
O O5 0.500000 0.500000 0.500000
O O6 0.595023 0.560634 0.695681
O O7 0.723676 0.411934 0.518079
O O8 0.750000 0.750000 0.500000
#
# Coordination Sequence:
#
# PCOD8283720 Si02
#       4
#    16   8  16   8
#     4  12  25  45  74 105 149 201 259 312 381 452
#     4  12  28  48  76 112 155 191 248 316 378 456
#     4  12  26  47  77 111 150 200 251 306 379 456
#     4  12  25  44  67 106 148 192 256 315 372 447
#
# _framework density 23.422145
#
# number of rings (size 3 to 8) (size 9 to 14) (size 15 to 20)
#    0.000    0.000    1.667    8.500    2.333    5.333 
#    0.000    0.000    0.000    0.000    0.000    0.000 
#    0.000    0.000    0.000    0.000    0.000    0.000 
#
# Total GULP energy -297365.531920 kJ/mol
# GULP energy per Si atom -12390.230497 kJ/mol
# Density = 2.336884 g / cm^3
# Si number density = 23.422145 Si / 1000 Ang^3
#
#
#
# Elastic Constant Matrix: (Units=GPa)
#
#
# Indices 1 2 3 4 5 6 
#
# 1 130.2038 62.6177 42.6541 0.0000 0.0000 0.0000
# 2 62.6177 140.3892 35.2382 0.0000 0.0000 0.0000
# 3 42.6541 35.2382 148.2911 0.0000 0.0000 0.0000
# 4 0.0000 0.0000 0.0000 45.1836 0.0000 0.0000
# 5 0.0000 0.0000 0.0000 0.0000 64.8691 0.0000
# 6 0.0000 0.0000 0.0000 0.0000 0.0000 157.8278
#
#
#
# Elastic Compliance Matrix: (Units=1/GPa)
#
#
# Indices 1 2 3 4 5 6 
#
# 1 0.010302 -0.004095 -0.001990 0.000000 0.000000 0.000000
# 2 -0.004095 0.009203 -0.001009 0.000000 0.000000 0.000000
# 3 -0.001990 -0.001009 0.007556 0.000000 0.000000 0.000000
# 4 0.000000 0.000000 0.000000 0.022132 0.000000 0.000000
# 5 0.000000 0.000000 0.000000 0.000000 0.015416 0.000000
# 6 0.000000 0.000000 0.000000 0.000000 0.000000 0.006336
#
#
# Mechanical properties :
#
#
# Convention : Reuss Voigt Hill
#
# Bulk Modulus (GPa) = 77.68932 77.76714 77.72823
# Shear Modulus (GPa) = 55.91399 72.13436 64.02417
#
# Velocity S-wave (km/s) = 4.89123 5.55557 5.23395
# Velocity P-wave (km/s) = 8.07093 8.62711 8.35365
#
# Compressibility (1/GPa) = 0.01287178
#
# Stress axis : x y z
#
# Youngs Moduli (GPa) = 97.07105 108.66078 132.35162
#
# Poissons Ratio (x) = 0.44501 0.26338
# Poissons Ratio (y) = 0.39754 0.13353
# Poissons Ratio (z) = 0.19317 0.10963
#
# Static dielectric constant tensor:
#      x y z
#    x 4.788480 0.000000 0.000000 
#    y 0.000000 4.208260 0.000000 
#    z 0.000000 0.000000 4.473400 
# 
# 
# High freq. dielectric constant tensor:
#      x y z
#    x 1.954710 0.000000 0.000000 
#    y 0.000000 1.913580 0.000000 
#    z 0.000000 0.000000 1.960730 
# 
# From -- ./inp_files/599.got.cif
#   From: 2010.03.12/outbox.cif.g09.slc.cpg/sg68_1_cif.got.tgz:599.got - 2010.04.10 23:14:56.
