data_PCOD8283074
_publ_section_title
;
Structure prediction by ZEFSAII (Michael W. Deem and Ramdas Pophale) SiO2 
 PCOD8283074
Probable space group: C C C A
;
_chemical_formula_sum "Si O2"
_cell_formula_units_Z 48
_cell_length_a 5.255359
_cell_length_b 13.997454
_cell_length_c 31.302919
_cell_angle_alpha 90.000000
_cell_angle_beta 90.000000
_cell_angle_gamma 90.000000
_cell_volume 2302.694242
_symmetry_space_group_name_H-M "C C C A"
_symmetry_group_IT_number 68
_space_group.IT_coordinate_system_code '2'
_symmetry_cell_setting 'orthorhombic'
loop_
_space_group_symop_operation_xyz
x,y,z
-x,1/2-y,z
x,1/2-y,1/2-z
-x,y,1/2-z
-x,-y,-z
x,1/2+y,-z
-x,1/2+y,1/2+z
x,-y,1/2+z
1/2+x,1/2+y,z
1/2-x,-y,z
1/2+x,-y,1/2-z
1/2-x,1/2+y,1/2-z
1/2-x,1/2-y,-z
1/2+x,y,-z
1/2-x,y,1/2+z
1/2+x,1/2-y,1/2+z
loop_
_atom_site_type_symbol
_atom_site_label
_atom_site_fract_x
_atom_site_fract_y
_atom_site_fract_z
Si Si1 0.500000 0.250000 0.647855
Si Si2 0.250000 0.000000 0.528627
Si Si3 0.751635 0.703450 0.565794
Si Si4 0.502330 0.442234 0.800237
O O1 0.259738 0.229921 0.616394
O O2 0.533622 0.159111 0.677538
O O3 0.250770 0.090263 0.559870
O O4 0.500000 0.000000 0.500000
O O5 0.500000 0.750000 0.545301
O O6 0.000000 0.750000 0.542537
O O7 0.500000 0.423161 0.750000
O O8 0.750000 0.500000 0.814525
O O9 0.250000 0.500000 0.814510
#
# Coordination Sequence:
#
# PCOD8283074 Si02
#       4
#     8   8  16  16
#     4  10  25  38  68  88 130 160 206 256 306 366
#     4  12  26  44  68  90 124 166 204 256 312 378
#     4  10  25  42  63  95 122 160 204 255 308 366
#     4  10  23  40  62  91 125 166 208 251 303 362
#
# _framework density 20.845147999999998
#
# number of rings (size 3 to 8) (size 9 to 14) (size 15 to 20)
#    1.000    0.667    0.000    2.500    7.000    4.000 
#    0.000    5.000    0.000    0.000    0.000    0.000 
#    0.000    0.000    0.000    0.000    0.000    0.000 
#
# Total GULP energy -297469.804788 kJ/mol
# GULP energy per Si atom -12394.575199 kJ/mol
# Density = 2.079770 g / cm^3
# Si number density = 20.845148 Si / 1000 Ang^3
#
#
#
# Elastic Constant Matrix: (Units=GPa)
#
#
# Indices 1 2 3 4 5 6 
#
# 1 194.9481 87.9535 37.3121 0.0000 0.0000 0.0000
# 2 87.9535 228.9682 69.3123 0.0000 0.0000 0.0000
# 3 37.3121 69.3123 62.8813 0.0000 0.0000 0.0000
# 4 0.0000 0.0000 0.0000 208.1407 0.0000 0.0000
# 5 0.0000 0.0000 0.0000 0.0000 -12.5641 0.0000
# 6 0.0000 0.0000 0.0000 0.0000 0.0000 29.7113
#
#
#
# Elastic Compliance Matrix: (Units=1/GPa)
#
#
# Indices 1 2 3 4 5 6 
#
# 1 0.006312 -0.001937 -0.001610 0.000000 0.000000 0.000000
# 2 -0.001937 0.007149 -0.006731 0.000000 0.000000 0.000000
# 3 -0.001610 -0.006731 0.024277 0.000000 0.000000 0.000000
# 4 0.000000 0.000000 0.000000 0.004804 0.000000 0.000000
# 5 0.000000 0.000000 0.000000 0.000000 -0.079592 0.000000
# 6 0.000000 0.000000 0.000000 0.000000 0.000000 0.033657
#
#
# Mechanical properties :
#
#
# Convention : Reuss Voigt Hill
#
# Bulk Modulus (GPa) = 58.19880 97.32814 77.76347
# Shear Modulus (GPa) = 218.42795 64.53889 141.48342
#
# Velocity S-wave (km/s) = 10.24761 5.57031 8.24748
# Velocity P-wave (km/s) = 12.96141 9.38954 11.31728
#
# Compressibility (1/GPa) = 0.01718248
#
# Stress axis : x y z
#
# Youngs Moduli (GPa) = 158.43655 139.87909 41.19064
#
# Poissons Ratio (x) = 0.27097 0.06631
# Poissons Ratio (y) = 0.30692 0.27724
# Poissons Ratio (z) = 0.25507 0.94149
#
# Static dielectric constant tensor:
#      x y z
#    x 3.869410 0.000000 0.000000 
#    y 0.000000 3.779100 0.000000 
#    z 0.000000 0.000000 3.567060 
# 
# 
# High freq. dielectric constant tensor:
#      x y z
#    x 1.825530 0.000000 0.000000 
#    y 0.000000 1.828860 0.000000 
#    z 0.000000 0.000000 1.810500 
# 
# From -- ./inp_files/52714.got.cif
#   From: 2010.03.12/outbox.cif.g09.slc.cpg/sg68_27_cif.got.tgz:52714.got - 2010.04.10 23:14:56.
