data_PCOD8283244
_publ_section_title
;
Structure prediction by ZEFSAII (Michael W. Deem and Ramdas Pophale) SiO2 
 PCOD8283244
Probable space group: C C C A
;
_chemical_formula_sum "Si O2"
_cell_formula_units_Z 64
_cell_length_a 26.176487
_cell_length_b 12.852867
_cell_length_c 8.754946
_cell_angle_alpha 90.000000
_cell_angle_beta 90.000000
_cell_angle_gamma 90.000000
_cell_volume 2945.539474
_symmetry_space_group_name_H-M "C C C A"
_symmetry_group_IT_number 68
_space_group.IT_coordinate_system_code '2'
_symmetry_cell_setting 'orthorhombic'
loop_
_space_group_symop_operation_xyz
x,y,z
-x,1/2-y,z
x,1/2-y,1/2-z
-x,y,1/2-z
-x,-y,-z
x,1/2+y,-z
-x,1/2+y,1/2+z
x,-y,1/2+z
1/2+x,1/2+y,z
1/2-x,-y,z
1/2+x,-y,1/2-z
1/2-x,1/2+y,1/2-z
1/2-x,1/2-y,-z
1/2+x,y,-z
1/2-x,y,1/2+z
1/2+x,1/2-y,1/2+z
loop_
_atom_site_type_symbol
_atom_site_label
_atom_site_fract_x
_atom_site_fract_y
_atom_site_fract_z
Si Si1 0.000000 0.750000 0.750000
Si Si2 0.199600 0.863606 0.789054
Si Si3 0.750000 0.500000 0.542777
Si Si4 0.500000 0.750000 0.750000
Si Si5 0.046140 0.575390 0.045646
Si Si6 0.084955 0.606827 0.716859
O O1 0.962215 0.822868 0.646290
O O2 0.223512 0.750000 0.750000
O O3 0.207856 0.943817 0.649240
O O4 0.139700 0.845829 0.822192
O O5 0.224512 0.909887 0.941796
O O6 0.466395 0.822606 0.858477
O O7 0.083751 0.509452 0.153683
O O8 0.076822 0.611288 0.898062
O O9 0.000000 0.500000 0.000000
#
# Coordination Sequence:
#
# PCOD8283244 Si02
#       6
#     4  16   8   4  16  16
#     4  12  20  36  60  92 136 180 206 266 310 388
#     4  11  23  44  72  99 131 175 218 273 352 391
#     4  10  24  46  70 100 134 160 226 298 322 402
#     4  12  24  40  66  82 132 196 216 268 326 358
#     4  12  23  41  59  91 132 180 227 271 313 385
#     4  12  24  40  64  97 135 178 224 265 327 405
#
# _framework density 21.727768000000001
#
# number of rings (size 3 to 8) (size 9 to 14) (size 15 to 20)
#    0.000    0.500    6.250    3.000    0.000    0.000 
#    4.500    0.000    5.500    0.000    0.000    0.000 
#    0.000    0.000    0.000    0.000    0.000    0.000 
#
# Total GULP energy -396665.783338 kJ/mol
# GULP energy per Si atom -12395.805729 kJ/mol
# Density = 2.167832 g / cm^3
# Si number density = 21.727768 Si / 1000 Ang^3
#
#
#
# Elastic Constant Matrix: (Units=GPa)
#
#
# Indices 1 2 3 4 5 6 
#
# 1 101.2875 19.6406 10.6634 0.0000 0.0000 0.0000
# 2 19.6406 145.1602 38.4077 0.0000 0.0000 0.0000
# 3 10.6634 38.4077 102.4329 0.0000 0.0000 0.0000
# 4 0.0000 0.0000 0.0000 47.4502 0.0000 0.0000
# 5 0.0000 0.0000 0.0000 0.0000 21.9297 0.0000
# 6 0.0000 0.0000 0.0000 0.0000 0.0000 27.2914
#
#
#
# Elastic Compliance Matrix: (Units=1/GPa)
#
#
# Indices 1 2 3 4 5 6 
#
# 1 0.010172 -0.001217 -0.000603 0.000000 0.000000 0.000000
# 2 -0.001217 0.007793 -0.002795 0.000000 0.000000 0.000000
# 3 -0.000603 -0.002795 0.010873 0.000000 0.000000 0.000000
# 4 0.000000 0.000000 0.000000 0.021075 0.000000 0.000000
# 5 0.000000 0.000000 0.000000 0.000000 0.045600 0.000000
# 6 0.000000 0.000000 0.000000 0.000000 0.000000 0.036642
#
#
# Mechanical properties :
#
#
# Convention : Reuss Voigt Hill
#
# Bulk Modulus (GPa) = 50.99713 54.03378 52.51546
# Shear Modulus (GPa) = 33.80165 38.01219 35.90692
#
# Velocity S-wave (km/s) = 3.94850 4.18721 4.06961
# Velocity P-wave (km/s) = 6.65653 6.94978 6.80474
#
# Compressibility (1/GPa) = 0.01960894
#
# Stress axis : x y z
#
# Youngs Moduli (GPa) = 98.30619 128.31657 91.96762
#
# Poissons Ratio (x) = 0.15615 0.05543
# Poissons Ratio (y) = 0.11963 0.25709
# Poissons Ratio (z) = 0.05925 0.35870
#
# Static dielectric constant tensor:
#      x y z
#    x 3.752510 0.000000 0.000000 
#    y 0.000000 4.454580 0.000000 
#    z 0.000000 0.000000 4.378580 
# 
# 
# High freq. dielectric constant tensor:
#      x y z
#    x 1.829890 0.000000 0.000000 
#    y 0.000000 1.883530 0.000000 
#    z 0.000000 0.000000 1.854190 
# 
# From -- ./inp_files/5165.got.cif
#   From: 2010.03.12/outbox.cif.g09.slc.cpg/sg68_3_cif.got.tgz:5165.got - 2010.04.10 23:14:56.
