data_PCOD8283797
_publ_section_title
;
Structure prediction by ZEFSAII (Michael W. Deem and Ramdas Pophale) SiO2 
 PCOD8283797
Probable space group: F M M M
;
_chemical_formula_sum "Si O2"
_cell_formula_units_Z 160
_cell_length_a 28.931711
_cell_length_b 19.723224
_cell_length_c 16.153026
_cell_angle_alpha 90.000000
_cell_angle_beta 90.000000
_cell_angle_gamma 90.000000
_cell_volume 9217.346577
_symmetry_space_group_name_H-M "F M M M"
_symmetry_group_IT_number 69
_symmetry_cell_setting 'orthorhombic'
loop_
_space_group_symop_operation_xyz
x,y,z
-x,-y,z
x,-y,-z
-x,y,-z
-x,-y,-z
x,y,-z
-x,y,z
x,-y,z
x,1/2+y,1/2+z
-x,1/2-y,1/2+z
x,1/2-y,1/2-z
-x,1/2+y,1/2-z
-x,1/2-y,1/2-z
x,1/2+y,1/2-z
-x,1/2+y,1/2+z
x,1/2-y,1/2+z
1/2+x,y,1/2+z
1/2-x,-y,1/2+z
1/2+x,-y,1/2-z
1/2-x,y,1/2-z
1/2-x,-y,1/2-z
1/2+x,y,1/2-z
1/2-x,y,1/2+z
1/2+x,-y,1/2+z
1/2+x,1/2+y,z
1/2-x,1/2-y,z
1/2+x,1/2-y,-z
1/2-x,1/2+y,-z
1/2-x,1/2-y,-z
1/2+x,1/2+y,-z
1/2-x,1/2+y,z
1/2+x,1/2-y,z
loop_
_atom_site_type_symbol
_atom_site_label
_atom_site_fract_x
_atom_site_fract_y
_atom_site_fract_z
Si Si1 0.729044 0.677780 0.402171
Si Si2 0.805709 0.924195 0.901826
Si Si3 0.134531 0.291699 0.166939
Si Si4 0.395159 0.341454 0.906129
Si Si5 0.949875 0.169513 0.749723
O O1 0.723247 0.673164 0.500000
O O2 0.750000 0.750000 0.375878
O O3 0.762753 0.619449 0.367193
O O4 0.679124 0.666010 0.360702
O O5 0.853499 0.889332 0.875807
O O6 0.803435 0.000000 0.864654
O O7 0.802567 0.925686 0.000000
O O8 0.145560 0.250000 0.250000
O O9 0.121164 0.237085 0.096334
O O10 0.091963 0.345097 0.184495
O O11 0.437112 0.355554 0.842513
O O12 0.410898 0.358223 0.000000
O O13 0.954636 0.250000 0.750000
O O14 0.000000 0.137469 0.724772
#
# Coordination Sequence:
#
# PCOD8283797 Si02
#       5
#    32  32  32  32  32
#     4  10  17  27  45  67  88 114 151 187 213 254
#     4   9  17  28  42  63  93 121 142 176 226 265
#     4   9  17  27  42  64  88 117 146 179 218 265
#     4   9  15  26  44  64  85 113 149 181 214 260
#     4   8  16  29  42  61  87 113 141 181 229 266
#
# _framework density 17.358574999999998
#
# number of rings (size 3 to 8) (size 9 to 14) (size 15 to 20)
#    0.000    3.400    2.000    0.600    0.000    0.800 
#    0.000    0.000    0.000   12.000    0.000    2.800 
#    0.000    0.000    0.000    5.000    0.000    0.000 
#
# Total GULP energy -495574.198942 kJ/mol
# GULP energy per Si atom -12389.354974 kJ/mol
# Density = 1.731907 g / cm^3
# Si number density = 17.358575 Si / 1000 Ang^3
#
#
#
# Elastic Constant Matrix: (Units=GPa)
#
#
# Indices 1 2 3 4 5 6 
#
# 1 158.5081 47.9106 44.4756 0.0000 0.0000 0.0000
# 2 47.9106 62.9909 24.0057 0.0000 0.0000 0.0000
# 3 44.4756 24.0057 39.6689 0.0000 0.0000 0.0000
# 4 0.0000 0.0000 0.0000 7.1159 0.0000 0.0000
# 5 0.0000 0.0000 0.0000 0.0000 23.1786 0.0000
# 6 0.0000 0.0000 0.0000 0.0000 0.0000 7.7031
#
#
#
# Elastic Compliance Matrix: (Units=1/GPa)
#
#
# Indices 1 2 3 4 5 6 
#
# 1 0.010045 -0.004352 -0.008629 0.000000 0.000000 0.000000
# 2 -0.004352 0.022519 -0.008748 0.000000 0.000000 0.000000
# 3 -0.008629 -0.008748 0.040177 0.000000 0.000000 0.000000
# 4 0.000000 0.000000 0.000000 0.140531 0.000000 0.000000
# 5 0.000000 0.000000 0.000000 0.000000 0.043143 0.000000
# 6 0.000000 0.000000 0.000000 0.000000 0.000000 0.129818
#
#
# Mechanical properties :
#
#
# Convention : Reuss Voigt Hill
#
# Bulk Modulus (GPa) = 34.14893 54.88350 44.51622
# Shear Modulus (GPa) = 11.37774 17.25125 14.31450
#
# Velocity S-wave (km/s) = 2.56296 3.15591 2.87476
# Velocity P-wave (km/s) = 5.33608 6.70566 6.05968
#
# Compressibility (1/GPa) = 0.02928349
#
# Stress axis : x y z
#
# Youngs Moduli (GPa) = 99.54718 44.40618 24.88970
#
# Poissons Ratio (x) = 0.19326 0.21477
# Poissons Ratio (y) = 0.43323 0.21774
# Poissons Ratio (z) = 0.85900 0.38848
#
# Static dielectric constant tensor:
#      x y z
#    x 3.886480 0.000000 0.000000 
#    y 0.000000 3.047350 0.000000 
#    z 0.000000 0.000000 3.047740 
# 
# 
# High freq. dielectric constant tensor:
#      x y z
#    x 1.677900 0.000000 0.000000 
#    y 0.000000 1.614680 0.000000 
#    z 0.000000 0.000000 1.651130 
# 
# From -- ./inp_files/27838.got.cif
#   From: 2010.03.12/outbox.cif.g09.slc.cpg/sg69_14_cif.got.tgz:27838.got - 2010.04.10 23:52:46.
