data_PCOD8283409
_publ_section_title
;
Structure prediction by ZEFSAII (Michael W. Deem and Ramdas Pophale) SiO2 
 PCOD8283409
Probable space group: C C C A
;
_chemical_formula_sum "Si O2"
_cell_formula_units_Z 112
_cell_length_a 11.966021
_cell_length_b 16.010100
_cell_length_c 27.091761
_cell_angle_alpha 90.000000
_cell_angle_beta 90.000000
_cell_angle_gamma 90.000000
_cell_volume 5190.163521
_symmetry_space_group_name_H-M "C C C A"
_symmetry_group_IT_number 68
_space_group.IT_coordinate_system_code '2'
_symmetry_cell_setting 'orthorhombic'
loop_
_space_group_symop_operation_xyz
x,y,z
-x,1/2-y,z
x,1/2-y,1/2-z
-x,y,1/2-z
-x,-y,-z
x,1/2+y,-z
-x,1/2+y,1/2+z
x,-y,1/2+z
1/2+x,1/2+y,z
1/2-x,-y,z
1/2+x,-y,1/2-z
1/2-x,1/2+y,1/2-z
1/2-x,1/2-y,-z
1/2+x,y,-z
1/2-x,y,1/2+z
1/2+x,1/2-y,1/2+z
loop_
_atom_site_type_symbol
_atom_site_label
_atom_site_fract_x
_atom_site_fract_y
_atom_site_fract_z
Si Si1 0.479744 0.380584 0.845462
Si Si2 0.368652 0.538640 0.869056
Si Si3 0.570031 0.832621 0.058753
Si Si4 0.878018 0.278335 0.645257
Si Si5 0.196010 0.706015 0.048071
Si Si6 0.337227 0.269337 0.692763
Si Si7 0.502493 0.082390 0.467710
O O1 0.429119 0.471689 0.832178
O O2 0.506590 0.394828 0.903888
O O3 0.390134 0.306881 0.838350
O O4 0.592557 0.355091 0.816117
O O5 0.250000 0.500000 0.886384
O O6 0.353710 0.625291 0.839524
O O7 0.445256 0.564458 0.915113
O O8 0.500000 0.750000 0.062575
O O9 0.696064 0.824596 0.079173
O O10 0.578320 0.856552 0.001070
O O11 0.869293 0.267943 0.585436
O O12 0.790345 0.220439 0.675000
O O13 0.000000 0.250000 0.662899
O O14 0.119633 0.625785 0.035638
O O15 0.250000 0.750000 0.000000
O O16 0.344242 0.250000 0.750000
O O17 0.500000 0.000000 0.500000
#
# Coordination Sequence:
#
# PCOD8283409 Si02
#       7
#    16  16  16  16  16  16  16
#     4  11  21  43  71 104 133 174 228 292 345 414
#     4  12  26  43  68  99 148 188 231 287 352 414
#     4  12  22  38  63  93 131 183 236 280 326 398
#     4  12  25  47  71 103 140 189 232 286 355 427
#     4  12  25  40  65  92 139 191 236 281 332 413
#     4  11  24  46  81 107 129 174 238 294 359 433
#     4  12  27  39  58 101 140 188 243 286 335 399
#
# _framework density 21.579281999999999
#
# number of rings (size 3 to 8) (size 9 to 14) (size 15 to 20)
#    0.000    0.286    8.571    1.714    4.000    0.286 
#    0.000    2.143    9.429    0.000    0.000    0.000 
#    0.000    0.000    0.000    0.000    0.000    0.000 
#
# Total GULP energy -693932.079281 kJ/mol
# GULP energy per Si atom -12391.644273 kJ/mol
# Density = 2.153017 g / cm^3
# Si number density = 21.579282 Si / 1000 Ang^3
#
#
#
# Elastic Constant Matrix: (Units=GPa)
#
#
# Indices 1 2 3 4 5 6 
#
# 1 167.0884 65.2072 32.4097 0.0000 0.0000 0.0000
# 2 65.2072 108.9074 15.6108 0.0000 0.0000 0.0000
# 3 32.4097 15.6108 80.8766 0.0000 0.0000 0.0000
# 4 0.0000 0.0000 0.0000 20.8965 0.0000 0.0000
# 5 0.0000 0.0000 0.0000 0.0000 45.3128 0.0000
# 6 0.0000 0.0000 0.0000 0.0000 0.0000 37.9441
#
#
#
# Elastic Compliance Matrix: (Units=1/GPa)
#
#
# Indices 1 2 3 4 5 6 
#
# 1 0.008245 -0.004590 -0.002418 0.000000 0.000000 0.000000
# 2 -0.004590 0.011999 -0.000477 0.000000 0.000000 0.000000
# 3 -0.002418 -0.000477 0.013426 0.000000 0.000000 0.000000
# 4 0.000000 0.000000 0.000000 0.047855 0.000000 0.000000
# 5 0.000000 0.000000 0.000000 0.000000 0.022069 0.000000
# 6 0.000000 0.000000 0.000000 0.000000 0.000000 0.026355
#
#
# Mechanical properties :
#
#
# Convention : Reuss Voigt Hill
#
# Bulk Modulus (GPa) = 53.47656 64.81420 59.14538
# Shear Modulus (GPa) = 33.07959 37.07367 35.07663
#
# Velocity S-wave (km/s) = 3.91952 4.14940 4.03609
# Velocity P-wave (km/s) = 6.73192 7.28404 7.01341
#
# Compressibility (1/GPa) = 0.01869978
#
# Stress axis : x y z
#
# Youngs Moduli (GPa) = 121.28245 83.34222 74.48500
#
# Poissons Ratio (x) = 0.38255 0.18011
# Poissons Ratio (y) = 0.55670 0.03550
# Poissons Ratio (z) = 0.29328 0.03972
#
# Static dielectric constant tensor:
#      x y z
#    x 4.137130 0.000000 0.000000 
#    y 0.000000 3.810730 0.000000 
#    z 0.000000 0.000000 3.405460 
# 
# 
# High freq. dielectric constant tensor:
#      x y z
#    x 1.864210 0.000000 0.000000 
#    y 0.000000 1.840520 0.000000 
#    z 0.000000 0.000000 1.823100 
# 
# From -- ./inp_files/54816.got.cif
#   From: 2010.03.12/outbox.cif.g09.slc.cpg/sg68_28_cif.got.tgz:54816.got - 2010.04.10 23:14:56.
