data_PCOD8283405
_publ_section_title
;
Structure prediction by ZEFSAII (Michael W. Deem and Ramdas Pophale) SiO2 
 PCOD8283405
Probable space group: C C C A
;
_chemical_formula_sum "Si O2"
_cell_formula_units_Z 52
_cell_length_a 12.032390
_cell_length_b 18.146239
_cell_length_c 9.354620
_cell_angle_alpha 90.000000
_cell_angle_beta 90.000000
_cell_angle_gamma 90.000000
_cell_volume 2042.512284
_symmetry_space_group_name_H-M "C C C A"
_symmetry_group_IT_number 68
_space_group.IT_coordinate_system_code '2'
_symmetry_cell_setting 'orthorhombic'
loop_
_space_group_symop_operation_xyz
x,y,z
-x,1/2-y,z
x,1/2-y,1/2-z
-x,y,1/2-z
-x,-y,-z
x,1/2+y,-z
-x,1/2+y,1/2+z
x,-y,1/2+z
1/2+x,1/2+y,z
1/2-x,-y,z
1/2+x,-y,1/2-z
1/2-x,1/2+y,1/2-z
1/2-x,1/2-y,-z
1/2+x,y,-z
1/2-x,y,1/2+z
1/2+x,1/2-y,1/2+z
loop_
_atom_site_type_symbol
_atom_site_label
_atom_site_fract_x
_atom_site_fract_y
_atom_site_fract_z
Si Si1 0.000000 0.750000 0.250000
Si Si2 0.124703 0.353877 0.251840
Si Si3 0.422905 0.986076 0.635277
Si Si4 0.677244 0.159259 0.430443
O O1 0.075637 0.701075 0.355472
O O2 0.122624 0.440126 0.290031
O O3 0.202693 0.313279 0.370123
O O4 0.000000 0.321228 0.250000
O O5 0.179420 0.334145 0.100501
O O6 0.500000 0.944532 0.750000
O O7 0.325711 0.928820 0.599986
O O8 0.500000 0.000000 0.500000
#
# Coordination Sequence:
#
# PCOD8283405 Si02
#       4
#     4  16  16  16
#     4  12  32  52  80 104 152 228 266 324 376 484
#     4  11  27  47  78 119 149 200 254 333 398 452
#     4  11  21  42  79 116 153 191 248 325 393 458
#     4  12  27  49  76 110 160 202 267 313 397 466
#
# _framework density 25.458842000000001
#
# number of rings (size 3 to 8) (size 9 to 14) (size 15 to 20)
#    0.000    0.615    7.692    0.923    8.615    3.692 
#    0.000    0.000    0.000    0.000    0.000    0.000 
#    0.000    0.000    0.000    0.000    0.000    0.000 
#
# Total GULP energy -322170.381686 kJ/mol
# GULP energy per Si atom -12391.168526 kJ/mol
# Density = 2.540090 g / cm^3
# Si number density = 25.458842 Si / 1000 Ang^3
#
#
#
# Elastic Constant Matrix: (Units=GPa)
#
#
# Indices 1 2 3 4 5 6 
#
# 1 195.9777 18.0110 89.4085 0.0000 0.0000 0.0000
# 2 18.0110 110.1887 20.7371 0.0000 0.0000 0.0000
# 3 89.4085 20.7371 215.3334 0.0000 0.0000 0.0000
# 4 0.0000 0.0000 0.0000 1.9238 0.0000 0.0000
# 5 0.0000 0.0000 0.0000 0.0000 43.8321 0.0000
# 6 0.0000 0.0000 0.0000 0.0000 0.0000 20.2026
#
#
#
# Elastic Compliance Matrix: (Units=1/GPa)
#
#
# Indices 1 2 3 4 5 6 
#
# 1 0.006328 -0.000550 -0.002574 0.000000 0.000000 0.000000
# 2 -0.000550 0.009291 -0.000666 0.000000 0.000000 0.000000
# 3 -0.002574 -0.000666 0.005777 0.000000 0.000000 0.000000
# 4 0.000000 0.000000 0.000000 0.519812 0.000000 0.000000
# 5 0.000000 0.000000 0.000000 0.000000 0.022814 0.000000
# 6 0.000000 0.000000 0.000000 0.000000 0.000000 0.049499
#
#
# Mechanical properties :
#
#
# Convention : Reuss Voigt Hill
#
# Bulk Modulus (GPa) = 72.38962 86.42365 79.40663
# Shear Modulus (GPa) = 7.99098 39.41456 23.70277
#
# Velocity S-wave (km/s) = 1.77358 3.93895 3.05458
# Velocity P-wave (km/s) = 5.71750 7.39643 6.61048
#
# Compressibility (1/GPa) = 0.01381414
#
# Stress axis : x y z
#
# Youngs Moduli (GPa) = 158.03761 107.63536 173.09934
#
# Poissons Ratio (x) = 0.05918 0.44562
# Poissons Ratio (y) = 0.08689 0.11536
# Poissons Ratio (z) = 0.40684 0.07173
#
# Static dielectric constant tensor:
#      x y z
#    x 5.093780 0.000000 0.000000 
#    y 0.000000 5.088500 0.000000 
#    z 0.000000 0.000000 4.755530 
# 
# 
# High freq. dielectric constant tensor:
#      x y z
#    x 2.022500 0.000000 0.000000 
#    y 0.000000 2.024990 0.000000 
#    z 0.000000 0.000000 2.029790 
# 
# From -- ./inp_files/3837.got.cif
#   From: 2010.03.12/outbox.cif.g09.slc.cpg/sg68_2_cif.got.tgz:3837.got - 2010.04.10 23:14:56.
