data_PCOD8283276
_publ_section_title
;
Structure prediction by ZEFSAII (Michael W. Deem and Ramdas Pophale) SiO2 
 PCOD8283276
Probable space group: C C C A
;
_chemical_formula_sum "Si O2"
_cell_formula_units_Z 64
_cell_length_a 15.391625
_cell_length_b 23.253583
_cell_length_c 7.670018
_cell_angle_alpha 90.000000
_cell_angle_beta 90.000000
_cell_angle_gamma 90.000000
_cell_volume 2745.179436
_symmetry_space_group_name_H-M "C C C A"
_symmetry_group_IT_number 68
_space_group.IT_coordinate_system_code '2'
_symmetry_cell_setting 'orthorhombic'
loop_
_space_group_symop_operation_xyz
x,y,z
-x,1/2-y,z
x,1/2-y,1/2-z
-x,y,1/2-z
-x,-y,-z
x,1/2+y,-z
-x,1/2+y,1/2+z
x,-y,1/2+z
1/2+x,1/2+y,z
1/2-x,-y,z
1/2+x,-y,1/2-z
1/2-x,1/2+y,1/2-z
1/2-x,1/2-y,-z
1/2+x,y,-z
1/2-x,y,1/2+z
1/2+x,1/2-y,1/2+z
loop_
_atom_site_type_symbol
_atom_site_label
_atom_site_fract_x
_atom_site_fract_y
_atom_site_fract_z
Si Si1 0.675942 0.565935 0.155907
Si Si2 0.215556 0.750000 0.750000
Si Si3 0.349640 0.181156 0.448495
Si Si4 0.000000 0.868029 0.250000
Si Si5 0.133468 0.947647 0.049515
O O1 0.779103 0.555636 0.165171
O O2 0.616884 0.516582 0.060290
O O3 0.643232 0.574122 0.352524
O O4 0.665063 0.621181 0.039423
O O5 0.275822 0.695316 0.696580
O O6 0.153502 0.767557 0.590138
O O7 0.443357 0.176988 0.360696
O O8 0.941482 0.909148 0.368924
#
# Coordination Sequence:
#
# PCOD8283276 Si02
#       5
#    16   8  16   8  16
#     4  11  22  43  68  93 132 184 222 258 329 422
#     4  10  24  49  74  93 126 186 240 266 320 410
#     4  11  24  44  71  97 131 176 228 281 330 385
#     4  12  26  43  66 104 142 167 212 288 346 382
#     4  11  23  39  67 102 135 172 220 267 332 418
#
# _framework density 23.313593999999998
#
# number of rings (size 3 to 8) (size 9 to 14) (size 15 to 20)
#    0.000    1.000    0.000    9.000    0.000    7.500 
#    0.000    2.500    0.000    1.500    0.000    0.000 
#    0.000    0.000    0.000    0.000    0.000    0.000 
#
# Total GULP energy -396765.197034 kJ/mol
# GULP energy per Si atom -12398.912407 kJ/mol
# Density = 2.326053 g / cm^3
# Si number density = 23.313594 Si / 1000 Ang^3
#
#
#
# Elastic Constant Matrix: (Units=GPa)
#
#
# Indices 1 2 3 4 5 6 
#
# 1 125.2471 77.8701 73.8911 0.0000 0.0000 0.0000
# 2 77.8701 121.4657 67.5607 0.0000 0.0000 0.0000
# 3 73.8911 67.5607 157.2732 0.0000 0.0000 0.0000
# 4 0.0000 0.0000 0.0000 30.9115 0.0000 0.0000
# 5 0.0000 0.0000 0.0000 0.0000 30.8184 0.0000
# 6 0.0000 0.0000 0.0000 0.0000 0.0000 98.4903
#
#
#
# Elastic Compliance Matrix: (Units=1/GPa)
#
#
# Indices 1 2 3 4 5 6 
#
# 1 0.014812 -0.007391 -0.003784 0.000000 0.000000 0.000000
# 2 -0.007391 0.014505 -0.002759 0.000000 0.000000 0.000000
# 3 -0.003784 -0.002759 0.009321 0.000000 0.000000 0.000000
# 4 0.000000 0.000000 0.000000 0.032350 0.000000 0.000000
# 5 0.000000 0.000000 0.000000 0.000000 0.032448 0.000000
# 6 0.000000 0.000000 0.000000 0.000000 0.000000 0.010153
#
#
# Mechanical properties :
#
#
# Convention : Reuss Voigt Hill
#
# Bulk Modulus (GPa) = 92.84040 93.62553 93.23296
# Shear Modulus (GPa) = 34.47129 44.35498 39.41313
#
# Velocity S-wave (km/s) = 3.84942 4.36654 4.11611
# Velocity P-wave (km/s) = 7.72439 8.10362 7.91628
#
# Compressibility (1/GPa) = 0.01077117
#
# Stress axis : x y z
#
# Youngs Moduli (GPa) = 67.51359 68.93951 107.28150
#
# Poissons Ratio (x) = 0.50953 0.40595
# Poissons Ratio (y) = 0.49899 0.29596
# Poissons Ratio (z) = 0.25547 0.19019
#
# Static dielectric constant tensor:
#      x y z
#    x 4.171060 0.000000 0.000000 
#    y 0.000000 4.507850 0.000000 
#    z 0.000000 0.000000 4.420830 
# 
# 
# High freq. dielectric constant tensor:
#      x y z
#    x 1.898980 0.000000 0.000000 
#    y 0.000000 1.934180 0.000000 
#    z 0.000000 0.000000 1.940420 
# 
# From -- ./inp_files/5056.got.cif
#   From: 2010.03.12/outbox.cif.g09.slc.cpg/sg68_3_cif.got.tgz:5056.got - 2010.04.10 23:14:56.
