data_PCOD8283933
_publ_section_title
;
Structure prediction by ZEFSAII (Michael W. Deem and Ramdas Pophale) SiO2 
 PCOD8283933
Probable space group: F M M M
;
_chemical_formula_sum "Si O2"
_cell_formula_units_Z 192
_cell_length_a 27.174326
_cell_length_b 17.379737
_cell_length_c 22.701048
_cell_angle_alpha 90.000000
_cell_angle_beta 90.000000
_cell_angle_gamma 90.000000
_cell_volume 10721.310858
_symmetry_space_group_name_H-M "F M M M"
_symmetry_group_IT_number 69
_symmetry_cell_setting 'orthorhombic'
loop_
_space_group_symop_operation_xyz
x,y,z
-x,-y,z
x,-y,-z
-x,y,-z
-x,-y,-z
x,y,-z
-x,y,z
x,-y,z
x,1/2+y,1/2+z
-x,1/2-y,1/2+z
x,1/2-y,1/2-z
-x,1/2+y,1/2-z
-x,1/2-y,1/2-z
x,1/2+y,1/2-z
-x,1/2+y,1/2+z
x,1/2-y,1/2+z
1/2+x,y,1/2+z
1/2-x,-y,1/2+z
1/2+x,-y,1/2-z
1/2-x,y,1/2-z
1/2-x,-y,1/2-z
1/2+x,y,1/2-z
1/2-x,y,1/2+z
1/2+x,-y,1/2+z
1/2+x,1/2+y,z
1/2-x,1/2-y,z
1/2+x,1/2-y,-z
1/2-x,1/2+y,-z
1/2-x,1/2-y,-z
1/2+x,1/2+y,-z
1/2-x,1/2+y,z
1/2+x,1/2-y,z
loop_
_atom_site_type_symbol
_atom_site_label
_atom_site_fract_x
_atom_site_fract_y
_atom_site_fract_z
Si Si1 0.557851 0.773987 0.500000
Si Si2 0.653123 0.913867 0.626922
Si Si3 0.396210 0.910013 0.796054
Si Si4 0.943806 0.796922 0.377669
Si Si5 0.805591 0.838685 0.236494
Si Si6 0.444587 0.364218 0.178671
Si Si7 0.128904 0.088578 0.000000
O O1 0.500000 0.788425 0.500000
O O2 0.574881 0.727298 0.442407
O O3 0.581262 0.858094 0.500000
O O4 0.682892 0.853900 0.667485
O O5 0.594336 0.910378 0.638897
O O6 0.662100 0.894656 0.558066
O O7 0.671215 0.000000 0.642072
O O8 0.409364 0.866651 0.856506
O O9 0.340645 0.891212 0.776474
O O10 0.434892 0.881482 0.747067
O O11 0.401288 0.000000 0.807255
O O12 0.938069 0.726523 0.332218
O O13 0.000000 0.825388 0.380689
O O14 0.815912 0.750000 0.250000
O O15 0.750000 0.862421 0.250000
O O16 0.500000 0.390385 0.161937
O O17 0.111027 0.000000 0.000000
#
# Coordination Sequence:
#
# PCOD8283933 Si02
#       7
#    16  32  32  32  32  32  16
#     4  10  20  35  53  75 103 149 193 224 262 304
#     4  10  20  33  51  78 111 145 177 213 265 318
#     4  11  22  34  52  78 106 138 174 219 276 325
#     4  10  20  34  52  74 103 143 187 222 260 311
#     4  10  21  37  59  83 108 134 174 220 270 330
#     4  10  18  30  49  73 106 142 177 216 260 313
#     4  10  20  33  52  79 109 145 181 219 265 315
#
# _framework density 17.908258
#
# number of rings (size 3 to 8) (size 9 to 14) (size 15 to 20)
#    0.000    1.833    1.667    5.000    0.000    5.167 
#    0.000    2.083    0.000    4.500    0.000    0.000 
#    0.000    0.000    0.000    0.000    0.000    0.000 
#
# Total GULP energy -595210.987409 kJ/mol
# GULP energy per Si atom -12400.228904 kJ/mol
# Density = 1.786750 g / cm^3
# Si number density = 17.908258 Si / 1000 Ang^3
#
#
#
# Elastic Constant Matrix: (Units=GPa)
#
#
# Indices 1 2 3 4 5 6 
#
# 1 81.8852 36.5673 47.0428 0.0000 0.0000 0.0000
# 2 36.5673 118.5044 72.5152 0.0000 0.0000 0.0000
# 3 47.0428 72.5152 137.5820 0.0000 0.0000 0.0000
# 4 0.0000 0.0000 0.0000 28.7358 0.0000 0.0000
# 5 0.0000 0.0000 0.0000 0.0000 11.6385 0.0000
# 6 0.0000 0.0000 0.0000 0.0000 0.0000 15.6248
#
#
#
# Elastic Compliance Matrix: (Units=1/GPa)
#
#
# Indices 1 2 3 4 5 6 
#
# 1 0.015607 -0.002289 -0.004130 0.000000 0.000000 0.000000
# 2 -0.002289 0.012791 -0.005959 0.000000 0.000000 0.000000
# 3 -0.004130 -0.005959 0.011822 0.000000 0.000000 0.000000
# 4 0.000000 0.000000 0.000000 0.034800 0.000000 0.000000
# 5 0.000000 0.000000 0.000000 0.000000 0.085922 0.000000
# 6 0.000000 0.000000 0.000000 0.000000 0.000000 0.064001
#
#
# Mechanical properties :
#
#
# Convention : Reuss Voigt Hill
#
# Bulk Modulus (GPa) = 64.66774 72.24690 68.45732
# Shear Modulus (GPa) = 19.61912 23.32291 21.47101
#
# Velocity S-wave (km/s) = 3.31348 3.61273 3.46633
# Velocity P-wave (km/s) = 7.12936 7.60479 7.37091
#
# Compressibility (1/GPa) = 0.01546366
#
# Stress axis : x y z
#
# Youngs Moduli (GPa) = 64.07385 78.17764 84.59062
#
# Poissons Ratio (x) = 0.17891 0.34938
# Poissons Ratio (y) = 0.14664 0.50411
# Poissons Ratio (z) = 0.26464 0.46589
#
# Static dielectric constant tensor:
#      x y z
#    x 3.119240 0.000000 0.000000 
#    y 0.000000 3.224900 0.000000 
#    z 0.000000 0.000000 3.487180 
# 
# 
# High freq. dielectric constant tensor:
#      x y z
#    x 1.666650 0.000000 0.000000 
#    y 0.000000 1.690180 0.000000 
#    z 0.000000 0.000000 1.692440 
# 
# From -- ./inp_files/39024.got.cif
#   From: 2010.03.12/outbox.cif.g09.slc.cpg/sg69_20_cif.got.tgz:39024.got - 2010.04.10 23:52:46.
