data_PCOD8283207
_publ_section_title
;
Structure prediction by ZEFSAII (Michael W. Deem and Ramdas Pophale) SiO2 
 PCOD8283207
Probable space group: C C C A
;
_chemical_formula_sum "Si O2"
_cell_formula_units_Z 104
_cell_length_a 26.857261
_cell_length_b 7.794882
_cell_length_c 21.637763
_cell_angle_alpha 90.000000
_cell_angle_beta 90.000000
_cell_angle_gamma 90.000000
_cell_volume 4529.847948
_symmetry_space_group_name_H-M "C C C A"
_symmetry_group_IT_number 68
_space_group.IT_coordinate_system_code '2'
_symmetry_cell_setting 'orthorhombic'
loop_
_space_group_symop_operation_xyz
x,y,z
-x,1/2-y,z
x,1/2-y,1/2-z
-x,y,1/2-z
-x,-y,-z
x,1/2+y,-z
-x,1/2+y,1/2+z
x,-y,1/2+z
1/2+x,1/2+y,z
1/2-x,-y,z
1/2+x,-y,1/2-z
1/2-x,1/2+y,1/2-z
1/2-x,1/2-y,-z
1/2+x,y,-z
1/2-x,y,1/2+z
1/2+x,1/2-y,1/2+z
loop_
_atom_site_type_symbol
_atom_site_label
_atom_site_fract_x
_atom_site_fract_y
_atom_site_fract_z
Si Si1 0.707168 0.750000 0.250000
Si Si2 0.332753 0.315228 0.418145
Si Si3 0.765377 0.180626 0.123198
Si Si4 0.854496 0.573258 0.947939
Si Si5 0.446602 0.329019 0.615836
Si Si6 0.549476 0.942483 0.726043
Si Si7 0.376125 0.560613 0.319144
O O1 0.739700 0.845311 0.197935
O O2 0.676915 0.868884 0.297633
O O3 0.274200 0.323635 0.399121
O O4 0.337550 0.419041 0.481578
O O5 0.367259 0.406024 0.367001
O O6 0.350789 0.120033 0.423128
O O7 0.821527 0.206549 0.095103
O O8 0.750000 0.000000 0.092367
O O9 0.912339 0.632978 0.944197
O O10 0.500000 0.250000 0.595814
O O11 0.450272 0.510811 0.652969
O O12 0.416509 0.194598 0.656956
O O13 0.542951 0.750000 0.750000
O O14 0.500000 0.042910 0.750000
O O15 0.601466 0.000503 0.754306
#
# Coordination Sequence:
#
# PCOD8283207 Si02
#       7
#     8  16  16  16  16  16  16
#     4  12  24  40  67 102 146 178 235 286 360 420
#     4  11  26  45  74 101 142 189 241 293 357 422
#     4  10  24  43  67 103 140 189 232 296 357 425
#     4  11  23  49  69 103 141 187 245 293 347 427
#     4  12  23  43  71 101 141 188 235 293 362 421
#     4  11  22  38  65  99 138 180 233 293 356 430
#     4  12  23  41  67 102 138 187 231 295 356 423
#
# _framework density 22.958829000000001
#
# number of rings (size 3 to 8) (size 9 to 14) (size 15 to 20)
#    0.000    0.769    4.615    2.308    2.154    1.231 
#    0.000    3.077    0.000    0.000    0.000    0.000 
#    0.000    0.000    0.000    0.000    0.000    0.000 
#
# Total GULP energy -644227.289243 kJ/mol
# GULP energy per Si atom -12388.986332 kJ/mol
# Density = 2.290657 g / cm^3
# Si number density = 22.958829 Si / 1000 Ang^3
#
#
#
# Elastic Constant Matrix: (Units=GPa)
#
#
# Indices 1 2 3 4 5 6 
#
# 1 124.0273 36.2026 45.9728 0.0000 0.0000 0.0000
# 2 36.2026 76.7806 25.5730 0.0000 0.0000 0.0000
# 3 45.9728 25.5730 123.1911 0.0000 0.0000 0.0000
# 4 0.0000 0.0000 0.0000 37.0009 0.0000 0.0000
# 5 0.0000 0.0000 0.0000 0.0000 39.7459 0.0000
# 6 0.0000 0.0000 0.0000 0.0000 0.0000 21.8313
#
#
#
# Elastic Compliance Matrix: (Units=1/GPa)
#
#
# Indices 1 2 3 4 5 6 
#
# 1 0.010317 -0.003848 -0.003051 0.000000 0.000000 0.000000
# 2 -0.003848 0.015427 -0.001766 0.000000 0.000000 0.000000
# 3 -0.003051 -0.001766 0.009623 0.000000 0.000000 0.000000
# 4 0.000000 0.000000 0.000000 0.027026 0.000000 0.000000
# 5 0.000000 0.000000 0.000000 0.000000 0.025160 0.000000
# 6 0.000000 0.000000 0.000000 0.000000 0.000000 0.045806
#
#
# Mechanical properties :
#
#
# Convention : Reuss Voigt Hill
#
# Bulk Modulus (GPa) = 55.44775 59.94396 57.69586
# Shear Modulus (GPa) = 31.90764 34.13232 33.01998
#
# Velocity S-wave (km/s) = 3.73201 3.85993 3.79651
# Velocity P-wave (km/s) = 6.54018 6.78464 6.66353
#
# Compressibility (1/GPa) = 0.01803500
#
# Stress axis : x y z
#
# Youngs Moduli (GPa) = 96.92707 64.82171 103.91954
#
# Poissons Ratio (x) = 0.24945 0.31709
# Poissons Ratio (y) = 0.37300 0.18356
# Poissons Ratio (z) = 0.29575 0.11450
#
# Static dielectric constant tensor:
#      x y z
#    x 4.818230 0.000000 0.000000 
#    y 0.000000 6.073730 0.000000 
#    z 0.000000 0.000000 3.959830 
# 
# 
# High freq. dielectric constant tensor:
#      x y z
#    x 1.918700 0.000000 0.000000 
#    y 0.000000 1.902860 0.000000 
#    z 0.000000 0.000000 1.895030 
# 
# From -- ./inp_files/41349.got.cif
#   From: 2010.03.12/outbox.cif.g09.slc.cpg/sg68_21_cif.got.tgz:41349.got - 2010.04.10 23:14:56.
