data_PCOD8283248
_publ_section_title
;
Structure prediction by ZEFSAII (Michael W. Deem and Ramdas Pophale) SiO2 
 PCOD8283248
Probable space group: C C C A
;
_chemical_formula_sum "Si O2"
_cell_formula_units_Z 64
_cell_length_a 20.638683
_cell_length_b 7.371709
_cell_length_c 17.876550
_cell_angle_alpha 90.000000
_cell_angle_beta 90.000000
_cell_angle_gamma 90.000000
_cell_volume 2719.780599
_symmetry_space_group_name_H-M "C C C A"
_symmetry_group_IT_number 68
_space_group.IT_coordinate_system_code '2'
_symmetry_cell_setting 'orthorhombic'
loop_
_space_group_symop_operation_xyz
x,y,z
-x,1/2-y,z
x,1/2-y,1/2-z
-x,y,1/2-z
-x,-y,-z
x,1/2+y,-z
-x,1/2+y,1/2+z
x,-y,1/2+z
1/2+x,1/2+y,z
1/2-x,-y,z
1/2+x,-y,1/2-z
1/2-x,1/2+y,1/2-z
1/2-x,1/2-y,-z
1/2+x,y,-z
1/2-x,y,1/2+z
1/2+x,1/2-y,1/2+z
loop_
_atom_site_type_symbol
_atom_site_label
_atom_site_fract_x
_atom_site_fract_y
_atom_site_fract_z
Si Si1 0.064204 0.511530 0.049346
Si Si2 0.376076 0.154954 0.588204
Si Si3 0.890966 0.783410 0.334801
Si Si4 0.254109 0.790380 0.167084
O O1 0.071328 0.316167 0.088362
O O2 0.061056 0.670458 0.111467
O O3 0.124179 0.557965 0.993197
O O4 0.000000 0.500000 0.000000
O O5 0.308990 0.263163 0.606711
O O6 0.394430 0.999510 0.648909
O O7 0.913367 0.750000 0.250000
O O8 0.817145 0.704710 0.346134
O O9 0.280075 0.750000 0.250000
O O10 0.250000 0.000000 0.155056
#
# Coordination Sequence:
#
# PCOD8283248 Si02
#       4
#    16  16  16  16
#     4  12  26  45  70  97 142 194 246 297 351 420
#     4  11  24  42  71  99 141 187 236 293 368 422
#     4  10  24  46  71 107 144 183 237 300 366 439
#     4   9  21  40  67 105 144 178 224 297 378 439
#
# _framework density 23.531307999999999
#
# number of rings (size 3 to 8) (size 9 to 14) (size 15 to 20)
#    0.000    1.500    2.500    0.750   10.500    1.000 
#    4.500    2.500    5.500    0.000    0.000    0.000 
#    0.000    0.000    0.000    0.000    0.000    0.000 
#
# Total GULP energy -396507.687114 kJ/mol
# GULP energy per Si atom -12390.865222 kJ/mol
# Density = 2.347775 g / cm^3
# Si number density = 23.531308 Si / 1000 Ang^3
#
#
#
# Elastic Constant Matrix: (Units=GPa)
#
#
# Indices 1 2 3 4 5 6 
#
# 1 113.5871 44.7745 70.2315 0.0000 0.0000 0.0000
# 2 44.7745 114.8233 35.0386 0.0000 0.0000 0.0000
# 3 70.2315 35.0386 141.5561 0.0000 0.0000 0.0000
# 4 0.0000 0.0000 0.0000 44.6287 0.0000 0.0000
# 5 0.0000 0.0000 0.0000 0.0000 1909.1950 0.0000
# 6 0.0000 0.0000 0.0000 0.0000 0.0000 26.7574
#
#
#
# Elastic Compliance Matrix: (Units=1/GPa)
#
#
# Indices 1 2 3 4 5 6 
#
# 1 0.013952 -0.003600 -0.006031 0.000000 0.000000 0.000000
# 2 -0.003600 0.010350 -0.000776 0.000000 0.000000 0.000000
# 3 -0.006031 -0.000776 0.010249 0.000000 0.000000 0.000000
# 4 0.000000 0.000000 0.000000 0.022407 0.000000 0.000000
# 5 0.000000 0.000000 0.000000 0.000000 0.000524 0.000000
# 6 0.000000 0.000000 0.000000 0.000000 0.000000 0.037373
#
#
# Mechanical properties :
#
#
# Convention : Reuss Voigt Hill
#
# Bulk Modulus (GPa) = 72.79813 74.45062 73.62437
# Shear Modulus (GPa) = 41.58145 410.77768 226.17957
#
# Velocity S-wave (km/s) = 4.20821 13.22669 9.81464
# Velocity P-wave (km/s) = 7.39026 16.27784 12.64089
#
# Compressibility (1/GPa) = 0.01373662
#
# Stress axis : x y z
#
# Youngs Moduli (GPa) = 71.67487 96.62265 97.57505
#
# Poissons Ratio (x) = 0.34785 0.58847
# Poissons Ratio (y) = 0.25803 0.07568
# Poissons Ratio (z) = 0.43227 0.07494
#
# Static dielectric constant tensor:
#      x y z
#    x 5.546950 0.000000 0.000000 
#    y 0.000000 4.313880 0.000000 
#    z 0.000000 0.000000 4.274180 
# 
# 
# High freq. dielectric constant tensor:
#      x y z
#    x 1.921790 0.000000 0.000000 
#    y 0.000000 1.938820 0.000000 
#    z 0.000000 0.000000 1.922320 
# 
# From -- ./inp_files/33372.got.cif
#   From: 2010.03.12/outbox.cif.g09.slc.cpg/sg68_17_cif.got.tgz:33372.got - 2010.04.10 23:14:56.
