data_PCOD8283929
_publ_section_title
;
Structure prediction by ZEFSAII (Michael W. Deem and Ramdas Pophale) SiO2 
 PCOD8283929
Probable space group: F M M M
;
_chemical_formula_sum "Si O2"
_cell_formula_units_Z 160
_cell_length_a 22.301476
_cell_length_b 20.511239
_cell_length_c 19.020764
_cell_angle_alpha 90.000000
_cell_angle_beta 90.000000
_cell_angle_gamma 90.000000
_cell_volume 8700.685277
_symmetry_space_group_name_H-M "F M M M"
_symmetry_group_IT_number 69
_symmetry_cell_setting 'orthorhombic'
loop_
_space_group_symop_operation_xyz
x,y,z
-x,-y,z
x,-y,-z
-x,y,-z
-x,-y,-z
x,y,-z
-x,y,z
x,-y,z
x,1/2+y,1/2+z
-x,1/2-y,1/2+z
x,1/2-y,1/2-z
-x,1/2+y,1/2-z
-x,1/2-y,1/2-z
x,1/2+y,1/2-z
-x,1/2+y,1/2+z
x,1/2-y,1/2+z
1/2+x,y,1/2+z
1/2-x,-y,1/2+z
1/2+x,-y,1/2-z
1/2-x,y,1/2-z
1/2-x,-y,1/2-z
1/2+x,y,1/2-z
1/2-x,y,1/2+z
1/2+x,-y,1/2+z
1/2+x,1/2+y,z
1/2-x,1/2-y,z
1/2+x,1/2-y,-z
1/2-x,1/2+y,-z
1/2-x,1/2-y,-z
1/2+x,1/2+y,-z
1/2-x,1/2+y,z
1/2+x,1/2-y,z
loop_
_atom_site_type_symbol
_atom_site_label
_atom_site_fract_x
_atom_site_fract_y
_atom_site_fract_z
Si Si1 0.319285 0.736344 0.923914
Si Si2 0.500000 0.650264 0.581310
Si Si3 0.814533 0.074472 0.717725
Si Si4 0.376115 0.315114 0.203270
Si Si5 0.500000 0.722280 0.826978
Si Si6 0.368061 0.621965 0.580782
O O1 0.250000 0.750000 0.925221
O O2 0.329806 0.685396 0.861511
O O3 0.357040 0.801439 0.908629
O O4 0.338672 0.707485 0.000000
O O5 0.500000 0.668083 0.500000
O O6 0.500000 0.719314 0.618746
O O7 0.438937 0.609684 0.599292
O O8 0.750000 0.095471 0.750000
O O9 0.864812 0.120827 0.751097
O O10 0.823202 0.082592 0.633072
O O11 0.827221 0.000000 0.738642
O O12 0.369034 0.250000 0.250000
O O13 0.440896 0.321856 0.166243
O O14 0.500000 0.750000 0.750000
O O15 0.353892 0.600684 0.500000
#
# Coordination Sequence:
#
# PCOD8283929 Si02
#       6
#    32  16  32  32  16  32
#     4  10  19  30  50  82 112 138 178 229 278 328
#     4  10  18  32  56  88 124 152 178 229 291 348
#     4  11  24  40  56  79 112 153 196 238 287 342
#     4  11  20  33  56  79 109 144 187 229 279 331
#     4  10  18  30  48  79 112 144 178 224 272 324
#     4  10  19  35  57  85 117 148 184 230 288 350
#
# _framework density 18.389355999999999
#
# number of rings (size 3 to 8) (size 9 to 14) (size 15 to 20)
#    0.000    1.600    4.000    2.400    0.000    0.400 
#    0.000    2.000    0.000    3.600    0.000    0.000 
#    0.000    2.400    0.000    0.000    0.000    0.200 
#
# Total GULP energy -495702.356402 kJ/mol
# GULP energy per Si atom -12392.558910 kJ/mol
# Density = 1.834750 g / cm^3
# Si number density = 18.389356 Si / 1000 Ang^3
#
#
#
# Elastic Constant Matrix: (Units=GPa)
#
#
# Indices 1 2 3 4 5 6 
#
# 1 91.9877 22.7909 49.4902 0.0000 0.0000 0.0000
# 2 22.7909 63.2928 31.9864 0.0000 0.0000 0.0000
# 3 49.4902 31.9864 115.1059 0.0000 0.0000 0.0000
# 4 0.0000 0.0000 0.0000 29.2023 0.0000 0.0000
# 5 0.0000 0.0000 0.0000 0.0000 34.3756 0.0000
# 6 0.0000 0.0000 0.0000 0.0000 0.0000 12.0215
#
#
#
# Elastic Compliance Matrix: (Units=1/GPa)
#
#
# Indices 1 2 3 4 5 6 
#
# 1 0.014449 -0.002400 -0.005545 0.000000 0.000000 0.000000
# 2 -0.002400 0.018780 -0.004187 0.000000 0.000000 0.000000
# 3 -0.005545 -0.004187 0.012235 0.000000 0.000000 0.000000
# 4 0.000000 0.000000 0.000000 0.034244 0.000000 0.000000
# 5 0.000000 0.000000 0.000000 0.000000 0.029090 0.000000
# 6 0.000000 0.000000 0.000000 0.000000 0.000000 0.083184
#
#
# Mechanical properties :
#
#
# Convention : Reuss Voigt Hill
#
# Bulk Modulus (GPa) = 47.17120 53.21348 50.19234
# Shear Modulus (GPa) = 22.38999 26.19447 24.29223
#
# Velocity S-wave (km/s) = 3.49313 3.77826 3.63849
# Velocity P-wave (km/s) = 6.47891 6.93063 6.70857
#
# Compressibility (1/GPa) = 0.02119937
#
# Stress axis : x y z
#
# Youngs Moduli (GPa) = 69.20766 53.24892 81.73054
#
# Poissons Ratio (x) = 0.12782 0.45323
# Poissons Ratio (y) = 0.16613 0.34217
# Poissons Ratio (z) = 0.38379 0.22293
#
# Static dielectric constant tensor:
#      x y z
#    x 4.006000 0.000000 0.000000 
#    y 0.000000 2.921510 0.000000 
#    z 0.000000 0.000000 3.720990 
# 
# 
# High freq. dielectric constant tensor:
#      x y z
#    x 1.725680 0.000000 0.000000 
#    y 0.000000 1.655980 0.000000 
#    z 0.000000 0.000000 1.730280 
# 
# From -- ./inp_files/24933.got.cif
#   From: 2010.03.12/outbox.cif.g09.slc.cpg/sg69_13_cif.got.tgz:24933.got - 2010.04.10 23:52:46.
