data_PCOD8283606
_publ_section_title
;
Structure prediction by ZEFSAII (Michael W. Deem and Ramdas Pophale) SiO2 
 PCOD8283606
Probable space group: C C C A
;
_chemical_formula_sum "Si O2"
_cell_formula_units_Z 64
_cell_length_a 9.790336
_cell_length_b 18.399168
_cell_length_c 16.874464
_cell_angle_alpha 90.000000
_cell_angle_beta 90.000000
_cell_angle_gamma 90.000000
_cell_volume 3039.665320
_symmetry_space_group_name_H-M "C C C A"
_symmetry_group_IT_number 68
_space_group.IT_coordinate_system_code '2'
_symmetry_cell_setting 'orthorhombic'
loop_
_space_group_symop_operation_xyz
x,y,z
-x,1/2-y,z
x,1/2-y,1/2-z
-x,y,1/2-z
-x,-y,-z
x,1/2+y,-z
-x,1/2+y,1/2+z
x,-y,1/2+z
1/2+x,1/2+y,z
1/2-x,-y,z
1/2+x,-y,1/2-z
1/2-x,1/2+y,1/2-z
1/2-x,1/2-y,-z
1/2+x,y,-z
1/2-x,y,1/2+z
1/2+x,1/2-y,1/2+z
loop_
_atom_site_type_symbol
_atom_site_label
_atom_site_fract_x
_atom_site_fract_y
_atom_site_fract_z
Si Si1 0.150578 0.939855 0.783608
Si Si2 0.875450 0.955182 0.531875
Si Si3 0.865722 0.201011 0.959404
Si Si4 0.143667 0.669317 0.278565
O O1 0.134100 0.958054 0.874607
O O2 0.225927 0.864231 0.765921
O O3 0.000000 0.939753 0.750000
O O4 0.250000 0.000000 0.743044
O O5 0.886864 0.870633 0.510988
O O6 0.750000 0.000000 0.494145
O O7 0.000000 0.000000 0.500000
O O8 0.830370 0.169975 0.872608
O O9 0.000000 0.250000 0.955318
O O10 0.750000 0.250000 0.000000
O O11 0.135073 0.750000 0.250000
O O12 0.000000 0.630797 0.250000
#
# Coordination Sequence:
#
# PCOD8283606 Si02
#       4
#    16  16  16  16
#     4  11  27  45  71 103 139 182 238 291 354 428
#     4  11  27  45  70 102 142 181 231 291 353 419
#     4  12  26  45  75 103 141 188 238 293 356 427
#     4  11  24  46  72  99 141 189 232 289 358 427
#
# _framework density 21.054949000000001
#
# number of rings (size 3 to 8) (size 9 to 14) (size 15 to 20)
#    0.000    0.750    2.500    3.750   17.500    0.500 
#    0.000    0.000    0.000    0.000    0.000    0.000 
#    0.000    0.000    0.000    0.000    0.000    0.000 
#
# Total GULP energy -396671.534588 kJ/mol
# GULP energy per Si atom -12395.985456 kJ/mol
# Density = 2.100703 g / cm^3
# Si number density = 21.054949 Si / 1000 Ang^3
#
#
#
# Elastic Constant Matrix: (Units=GPa)
#
#
# Indices 1 2 3 4 5 6 
#
# 1 195.5011 70.1179 62.5978 0.0000 0.0000 0.0000
# 2 70.1179 114.2416 18.1424 0.0000 0.0000 0.0000
# 3 62.5978 18.1424 98.1119 0.0000 0.0000 0.0000
# 4 0.0000 0.0000 0.0000 36.7369 0.0000 0.0000
# 5 0.0000 0.0000 0.0000 0.0000 37.9105 0.0000
# 6 0.0000 0.0000 0.0000 0.0000 0.0000 57.5184
#
#
#
# Elastic Compliance Matrix: (Units=1/GPa)
#
#
# Indices 1 2 3 4 5 6 
#
# 1 0.008022 -0.004235 -0.004335 0.000000 0.000000 0.000000
# 2 -0.004235 0.011254 0.000621 0.000000 0.000000 0.000000
# 3 -0.004335 0.000621 0.012844 0.000000 0.000000 0.000000
# 4 0.000000 0.000000 0.000000 0.027221 0.000000 0.000000
# 5 0.000000 0.000000 0.000000 0.000000 0.026378 0.000000
# 6 0.000000 0.000000 0.000000 0.000000 0.000000 0.017386
#
#
# Mechanical properties :
#
#
# Convention : Reuss Voigt Hill
#
# Bulk Modulus (GPa) = 61.64739 78.84119 70.24429
# Shear Modulus (GPa) = 40.18971 43.56625 41.87798
#
# Velocity S-wave (km/s) = 4.37372 4.55375 4.46464
# Velocity P-wave (km/s) = 7.40600 8.07314 7.74675
#
# Compressibility (1/GPa) = 0.01622129
#
# Stress axis : x y z
#
# Youngs Moduli (GPa) = 124.65455 88.85546 77.86018
#
# Poissons Ratio (x) = 0.37633 0.33754
# Poissons Ratio (y) = 0.52795 -0.04836
# Poissons Ratio (z) = 0.54040 -0.05519
#
# Static dielectric constant tensor:
#      x y z
#    x 4.753730 0.000000 0.000000 
#    y 0.000000 4.047010 0.000000 
#    z 0.000000 0.000000 3.328200 
# 
# 
# High freq. dielectric constant tensor:
#      x y z
#    x 1.842230 0.000000 0.000000 
#    y 0.000000 1.841000 0.000000 
#    z 0.000000 0.000000 1.832750 
# 
# From -- ./inp_files/27845.got.cif
#   From: 2010.03.12/outbox.cif.g09.slc.cpg/sg68_14_cif.got.tgz:27845.got - 2010.04.10 23:14:56.
