data_PCOD8283167
_publ_section_title
;
Structure prediction by ZEFSAII (Michael W. Deem and Ramdas Pophale) SiO2 
 PCOD8283167
Probable space group: C C C A
;
_chemical_formula_sum "Si O2"
_cell_formula_units_Z 116
_cell_length_a 23.990561
_cell_length_b 11.052182
_cell_length_c 18.989658
_cell_angle_alpha 90.000000
_cell_angle_beta 90.000000
_cell_angle_gamma 90.000000
_cell_volume 5035.070722
_symmetry_space_group_name_H-M "C C C A"
_symmetry_group_IT_number 68
_space_group.IT_coordinate_system_code '2'
_symmetry_cell_setting 'orthorhombic'
loop_
_space_group_symop_operation_xyz
x,y,z
-x,1/2-y,z
x,1/2-y,1/2-z
-x,y,1/2-z
-x,-y,-z
x,1/2+y,-z
-x,1/2+y,1/2+z
x,-y,1/2+z
1/2+x,1/2+y,z
1/2-x,-y,z
1/2+x,-y,1/2-z
1/2-x,1/2+y,1/2-z
1/2-x,1/2-y,-z
1/2+x,y,-z
1/2-x,y,1/2+z
1/2+x,1/2-y,1/2+z
loop_
_atom_site_type_symbol
_atom_site_label
_atom_site_fract_x
_atom_site_fract_y
_atom_site_fract_z
Si Si1 0.140098 0.854284 0.082670
Si Si2 0.051369 0.337660 0.594885
Si Si3 0.312355 0.129757 0.783215
Si Si4 0.574821 0.913032 0.440848
Si Si5 0.000000 0.750000 0.750000
Si Si6 0.463207 0.409715 0.635085
Si Si7 0.143944 0.809087 0.928942
Si Si8 0.313018 0.378412 0.271858
O O1 0.110409 0.728979 0.104827
O O2 0.185018 0.887816 0.142836
O O3 0.090429 0.950415 0.077293
O O4 0.169637 0.843699 0.005697
O O5 0.050106 0.400445 0.518678
O O6 0.044323 0.447185 0.650394
O O7 0.000000 0.250000 0.605794
O O8 0.341582 0.250000 0.750000
O O9 0.314074 0.145790 0.868044
O O10 0.249653 0.124980 0.755732
O O11 0.341449 0.001168 0.760969
O O12 0.524890 0.872594 0.390260
O O13 0.630889 0.834186 0.427200
O O14 0.043246 0.664459 0.707229
O O15 0.416197 0.372301 0.578770
O O16 0.342309 0.250000 0.250000
#
# Coordination Sequence:
#
# PCOD8283167 Si02
#       8
#    16  16  16  16   4  16  16  16
#     4  11  23  40  66 102 130 183 231 285 334 425
#     4  11  22  38  64  95 137 182 221 274 347 393
#     4  10  23  46  70  94 127 180 221 294 367 430
#     4  11  20  39  65  96 136 177 220 282 335 393
#     4  12  28  40  62  92 140 196 230 278 324 400
#     4  12  23  41  58  96 138 181 226 276 323 403
#     4  11  23  38  69  99 131 174 239 279 340 409
#     4  10  24  46  68  94 134 175 227 287 375 422
#
# _framework density 23.038405000000001
#
# number of rings (size 3 to 8) (size 9 to 14) (size 15 to 20)
#    0.000    1.103    4.138    2.897    2.897    1.103 
#    0.000    5.862    0.000    0.000    0.000    0.000 
#    0.000    0.000    0.000    0.000    0.000    0.000 
#
# Total GULP energy -718824.244211 kJ/mol
# GULP energy per Si atom -12393.521452 kJ/mol
# Density = 2.298597 g / cm^3
# Si number density = 23.038405 Si / 1000 Ang^3
#
#
#
# Elastic Constant Matrix: (Units=GPa)
#
#
# Indices 1 2 3 4 5 6 
#
# 1 54.9666 11.2423 41.9841 0.0000 0.0000 0.0000
# 2 11.2423 179.4704 60.0383 0.0000 0.0000 0.0000
# 3 41.9841 60.0383 164.3743 0.0000 0.0000 0.0000
# 4 0.0000 0.0000 0.0000 36.3682 0.0000 0.0000
# 5 0.0000 0.0000 0.0000 0.0000 31.1859 0.0000
# 6 0.0000 0.0000 0.0000 0.0000 0.0000 15.1599
#
#
#
# Elastic Compliance Matrix: (Units=1/GPa)
#
#
# Indices 1 2 3 4 5 6 
#
# 1 0.022657 0.000589 -0.006002 0.000000 0.000000 0.000000
# 2 0.000589 0.006363 -0.002474 0.000000 0.000000 0.000000
# 3 -0.006002 -0.002474 0.008520 0.000000 0.000000 0.000000
# 4 0.000000 0.000000 0.000000 0.027497 0.000000 0.000000
# 5 0.000000 0.000000 0.000000 0.000000 0.032066 0.000000
# 6 0.000000 0.000000 0.000000 0.000000 0.000000 0.065964
#
#
# Mechanical properties :
#
#
# Convention : Reuss Voigt Hill
#
# Bulk Modulus (GPa) = 45.94610 69.48230 57.71420
# Shear Modulus (GPa) = 26.86780 35.57924 31.22352
#
# Velocity S-wave (km/s) = 3.41870 3.93408 3.68541
# Velocity P-wave (km/s) = 5.96405 7.13167 6.57384
#
# Compressibility (1/GPa) = 0.02176463
#
# Stress axis : x y z
#
# Youngs Moduli (GPa) = 44.13683 157.16261 117.36471
#
# Poissons Ratio (x) = -0.09250 0.70441
# Poissons Ratio (y) = -0.02598 0.29040
# Poissons Ratio (z) = 0.26491 0.38888
#
# Static dielectric constant tensor:
#      x y z
#    x 3.498110 0.000000 0.000000 
#    y 0.000000 5.369540 0.000000 
#    z 0.000000 0.000000 4.072720 
# 
# 
# High freq. dielectric constant tensor:
#      x y z
#    x 1.862570 0.000000 0.000000 
#    y 0.000000 1.944510 0.000000 
#    z 0.000000 0.000000 1.901600 
# 
# From -- ./inp_files/34170.got.cif
#   From: 2010.03.12/outbox.cif.g09.slc.cpg/sg68_18_cif.got.tgz:34170.got - 2010.04.10 23:14:56.
