data_PCOD8283571
_publ_section_title
;
Structure prediction by ZEFSAII (Michael W. Deem and Ramdas Pophale) SiO2 
 PCOD8283571
Probable space group: C C C A
;
_chemical_formula_sum "Si O2"
_cell_formula_units_Z 56
_cell_length_a 10.839739
_cell_length_b 10.546943
_cell_length_c 19.753298
_cell_angle_alpha 90.000000
_cell_angle_beta 90.000000
_cell_angle_gamma 90.000000
_cell_volume 2258.317708
_symmetry_space_group_name_H-M "C C C A"
_symmetry_group_IT_number 68
_space_group.IT_coordinate_system_code '2'
_symmetry_cell_setting 'orthorhombic'
loop_
_space_group_symop_operation_xyz
x,y,z
-x,1/2-y,z
x,1/2-y,1/2-z
-x,y,1/2-z
-x,-y,-z
x,1/2+y,-z
-x,1/2+y,1/2+z
x,-y,1/2+z
1/2+x,1/2+y,z
1/2-x,-y,z
1/2+x,-y,1/2-z
1/2-x,1/2+y,1/2-z
1/2-x,1/2-y,-z
1/2+x,y,-z
1/2-x,y,1/2+z
1/2+x,1/2-y,1/2+z
loop_
_atom_site_type_symbol
_atom_site_label
_atom_site_fract_x
_atom_site_fract_y
_atom_site_fract_z
Si Si1 0.500000 0.250000 0.664157
Si Si2 0.119933 0.834464 0.421688
Si Si3 0.677755 0.876392 0.430280
Si Si4 0.885142 0.990171 0.707857
O O1 0.435989 0.140549 0.619875
O O2 0.406346 0.337399 0.707076
O O3 0.241187 0.748652 0.421000
O O4 0.120292 0.899992 0.495321
O O5 0.000000 0.750000 0.410774
O O6 0.126263 0.942822 0.365165
O O7 0.750000 0.000000 0.406799
O O8 0.000000 0.052596 0.750000
O O9 0.750000 0.000000 0.744046
#
# Coordination Sequence:
#
# PCOD8283571 Si02
#       4
#     8  16  16  16
#     4  12  25  50  80 110 151 194 260 316 398 458
#     4  11  24  44  73 116 154 197 252 318 395 467
#     4  11  24  42  78 115 155 192 246 326 399 464
#     4  12  28  52  78 109 155 213 266 319 385 475
#
# _framework density 24.797221
#
# number of rings (size 3 to 8) (size 9 to 14) (size 15 to 20)
#    0.000    0.571    4.286    3.000    4.000    6.286 
#    5.143    0.000    0.000    0.000    0.000    0.000 
#    0.000    0.000    0.000    0.000    0.000    0.000 
#
# Total GULP energy -347145.199075 kJ/mol
# GULP energy per Si atom -12398.042824 kJ/mol
# Density = 2.474078 g / cm^3
# Si number density = 24.797221 Si / 1000 Ang^3
#
#
#
# Elastic Constant Matrix: (Units=GPa)
#
#
# Indices 1 2 3 4 5 6 
#
# 1 161.4618 39.3194 46.0284 0.0000 0.0000 0.0000
# 2 39.3194 132.0975 34.1816 0.0000 0.0000 0.0000
# 3 46.0284 34.1816 99.3250 0.0000 0.0000 0.0000
# 4 0.0000 0.0000 0.0000 34.3082 0.0000 0.0000
# 5 0.0000 0.0000 0.0000 0.0000 3.6366 0.0000
# 6 0.0000 0.0000 0.0000 0.0000 0.0000 56.5930
#
#
#
# Elastic Compliance Matrix: (Units=1/GPa)
#
#
# Indices 1 2 3 4 5 6 
#
# 1 0.007377 -0.001439 -0.002923 0.000000 0.000000 0.000000
# 2 -0.001439 0.008591 -0.002289 0.000000 0.000000 0.000000
# 3 -0.002923 -0.002289 0.012211 0.000000 0.000000 0.000000
# 4 0.000000 0.000000 0.000000 0.029148 0.000000 0.000000
# 5 0.000000 0.000000 0.000000 0.000000 0.274978 0.000000
# 6 0.000000 0.000000 0.000000 0.000000 0.000000 0.017670
#
#
# Mechanical properties :
#
#
# Convention : Reuss Voigt Hill
#
# Bulk Modulus (GPa) = 67.22962 70.21591 68.72276
# Shear Modulus (GPa) = 13.57819 37.13123 25.35471
#
# Velocity S-wave (km/s) = 2.34256 3.87382 3.20110
# Velocity P-wave (km/s) = 5.87260 6.95601 6.43714
#
# Compressibility (1/GPa) = 0.01487440
#
# Stress axis : x y z
#
# Youngs Moduli (GPa) = 135.55056 116.40029 81.89624
#
# Poissons Ratio (x) = 0.16755 0.23941
# Poissons Ratio (y) = 0.19512 0.18750
# Poissons Ratio (z) = 0.39626 0.26649
#
# Static dielectric constant tensor:
#      x y z
#    x 4.981440 0.000000 0.000000 
#    y 0.000000 4.263940 0.000000 
#    z 0.000000 0.000000 4.635540 
# 
# 
# High freq. dielectric constant tensor:
#      x y z
#    x 2.006340 0.000000 0.000000 
#    y 0.000000 1.988200 0.000000 
#    z 0.000000 0.000000 1.989260 
# 
# From -- ./inp_files/36926.got.cif
#   From: 2010.03.12/outbox.cif.g09.slc.cpg/sg68_19_cif.got.tgz:36926.got - 2010.04.10 23:14:56.
