data_PCOD8283985
_publ_section_title
;
Structure prediction by ZEFSAII (Michael W. Deem and Ramdas Pophale) SiO2 
 PCOD8283985
Probable space group: F M M M
;
_chemical_formula_sum "Si O2"
_cell_formula_units_Z 144
_cell_length_a 31.228364
_cell_length_b 14.122569
_cell_length_c 18.130903
_cell_angle_alpha 90.000000
_cell_angle_beta 90.000000
_cell_angle_gamma 90.000000
_cell_volume 7996.176516
_symmetry_space_group_name_H-M "F M M M"
_symmetry_group_IT_number 69
_symmetry_cell_setting 'orthorhombic'
loop_
_space_group_symop_operation_xyz
x,y,z
-x,-y,z
x,-y,-z
-x,y,-z
-x,-y,-z
x,y,-z
-x,y,z
x,-y,z
x,1/2+y,1/2+z
-x,1/2-y,1/2+z
x,1/2-y,1/2-z
-x,1/2+y,1/2-z
-x,1/2-y,1/2-z
x,1/2+y,1/2-z
-x,1/2+y,1/2+z
x,1/2-y,1/2+z
1/2+x,y,1/2+z
1/2-x,-y,1/2+z
1/2+x,-y,1/2-z
1/2-x,y,1/2-z
1/2-x,-y,1/2-z
1/2+x,y,1/2-z
1/2-x,y,1/2+z
1/2+x,-y,1/2+z
1/2+x,1/2+y,z
1/2-x,1/2-y,z
1/2+x,1/2-y,-z
1/2-x,1/2+y,-z
1/2-x,1/2-y,-z
1/2+x,1/2+y,-z
1/2-x,1/2+y,z
1/2+x,1/2-y,z
loop_
_atom_site_type_symbol
_atom_site_label
_atom_site_fract_x
_atom_site_fract_y
_atom_site_fract_z
Si Si1 0.548381 0.000000 0.783180
Si Si2 0.119021 0.500000 0.665501
Si Si3 0.377190 0.196481 0.413420
Si Si4 0.293343 0.711078 0.166104
Si Si5 0.790314 0.000000 0.196968
Si Si6 0.450722 0.206375 0.170802
O O1 0.575518 0.000000 0.709530
O O2 0.557362 0.093564 0.830976
O O3 0.500000 0.000000 0.753892
O O4 0.119998 0.588912 0.611819
O O5 0.159442 0.500000 0.724055
O O6 0.371599 0.202585 0.500000
O O7 0.335733 0.246486 0.376039
O O8 0.420445 0.250530 0.391287
O O9 0.296813 0.750000 0.250000
O O10 0.250000 0.750000 0.129046
O O11 0.287488 0.598320 0.153480
O O12 0.750000 0.000000 0.250000
O O13 0.500000 0.231014 0.152018
O O14 0.437964 0.250000 0.250000
#
# Coordination Sequence:
#
# PCOD8283985 Si02
#       6
#    16  16  32  32  16  32
#     4  10  20  35  58  87 110 135 183 240 277 314
#     4  10  21  34  58  80 113 146 178 227 283 327
#     4  11  23  37  54  82 118 150 181 221 278 339
#     4  10  20  34  57  81 106 141 187 230 272 316
#     4  10  18  31  51  84 107 132 172 232 278 317
#     4  10  20  36  59  83 109 143 186 231 272 319
#
# _framework density 18.008607000000001
#
# number of rings (size 3 to 8) (size 9 to 14) (size 15 to 20)
#    0.000    1.778    4.444    1.000    3.111    0.889 
#    0.000    0.556    0.000    4.000    0.000    0.000 
#    0.000    0.000    0.000    0.000    0.000    0.000 
#
# Total GULP energy -446017.558736 kJ/mol
# GULP energy per Si atom -12389.376632 kJ/mol
# Density = 1.796762 g / cm^3
# Si number density = 18.008607 Si / 1000 Ang^3
#
#
#
# Elastic Constant Matrix: (Units=GPa)
#
#
# Indices 1 2 3 4 5 6 
#
# 1 140.7385 54.4780 65.6783 0.0000 0.0000 0.0000
# 2 54.4780 116.4211 28.0015 0.0000 0.0000 0.0000
# 3 65.6783 28.0015 87.2248 0.0000 0.0000 0.0000
# 4 0.0000 0.0000 0.0000 29.2826 0.0000 0.0000
# 5 0.0000 0.0000 0.0000 0.0000 17.0571 0.0000
# 6 0.0000 0.0000 0.0000 0.0000 0.0000 20.8787
#
#
#
# Elastic Compliance Matrix: (Units=1/GPa)
#
#
# Indices 1 2 3 4 5 6 
#
# 1 0.012360 -0.003842 -0.008074 0.000000 0.000000 0.000000
# 2 -0.003842 0.010502 -0.000479 0.000000 0.000000 0.000000
# 3 -0.008074 -0.000479 0.017698 0.000000 0.000000 0.000000
# 4 0.000000 0.000000 0.000000 0.034150 0.000000 0.000000
# 5 0.000000 0.000000 0.000000 0.000000 0.058626 0.000000
# 6 0.000000 0.000000 0.000000 0.000000 0.000000 0.047896
#
#
# Mechanical properties :
#
#
# Convention : Reuss Voigt Hill
#
# Bulk Modulus (GPa) = 63.40445 71.18890 67.29667
# Shear Modulus (GPa) = 23.66547 26.52545 25.09546
#
# Velocity S-wave (km/s) = 3.62901 3.84204 3.73705
# Velocity P-wave (km/s) = 7.26938 7.70052 7.48806
#
# Compressibility (1/GPa) = 0.01577176
#
# Stress axis : x y z
#
# Youngs Moduli (GPa) = 80.90431 95.21583 56.50498
#
# Poissons Ratio (x) = 0.36582 0.45620
# Poissons Ratio (y) = 0.31083 0.02704
# Poissons Ratio (z) = 0.65319 0.04557
#
# Static dielectric constant tensor:
#      x y z
#    x 3.797060 0.000000 0.000000 
#    y 0.000000 4.495260 0.000000 
#    z 0.000000 0.000000 2.834590 
# 
# 
# High freq. dielectric constant tensor:
#      x y z
#    x 1.726970 0.000000 0.000000 
#    y 0.000000 1.712620 0.000000 
#    z 0.000000 0.000000 1.640950 
# 
# From -- ./inp_files/15634.got.cif
#   From: 2010.03.12/outbox.cif.g09.slc.cpg/sg69_8_cif.got.tgz:15634.got - 2010.04.10 23:52:46.
