data_PCOD8283441
_publ_section_title
;
Structure prediction by ZEFSAII (Michael W. Deem and Ramdas Pophale) SiO2 
 PCOD8283441
Probable space group: C C C A
;
_chemical_formula_sum "Si O2"
_cell_formula_units_Z 112
_cell_length_a 16.923989
_cell_length_b 12.074590
_cell_length_c 24.714782
_cell_angle_alpha 90.000000
_cell_angle_beta 90.000000
_cell_angle_gamma 90.000000
_cell_volume 5050.471345
_symmetry_space_group_name_H-M "C C C A"
_symmetry_group_IT_number 68
_space_group.IT_coordinate_system_code '2'
_symmetry_cell_setting 'orthorhombic'
loop_
_space_group_symop_operation_xyz
x,y,z
-x,1/2-y,z
x,1/2-y,1/2-z
-x,y,1/2-z
-x,-y,-z
x,1/2+y,-z
-x,1/2+y,1/2+z
x,-y,1/2+z
1/2+x,1/2+y,z
1/2-x,-y,z
1/2+x,-y,1/2-z
1/2-x,1/2+y,1/2-z
1/2-x,1/2-y,-z
1/2+x,y,-z
1/2-x,y,1/2+z
1/2+x,1/2-y,1/2+z
loop_
_atom_site_type_symbol
_atom_site_label
_atom_site_fract_x
_atom_site_fract_y
_atom_site_fract_z
Si Si1 0.158855 0.028358 0.587074
Si Si2 0.080700 0.187227 0.800436
Si Si3 0.848734 0.168500 0.115997
Si Si4 0.907485 0.064884 0.211919
Si Si5 0.425667 0.378077 0.830665
Si Si6 0.156309 0.511684 0.033251
Si Si7 0.826571 0.720363 0.404032
O O1 0.130465 0.982891 0.529045
O O2 0.144658 0.158584 0.580640
O O3 0.250000 0.000000 0.600419
O O4 0.102307 0.984597 0.634697
O O5 0.118744 0.250000 0.750000
O O6 0.147399 0.188586 0.844613
O O7 0.000000 0.250000 0.817978
O O8 0.065986 0.061493 0.782172
O O9 0.836392 0.090486 0.169725
O O10 0.902715 0.272174 0.133214
O O11 0.883903 0.089116 0.067866
O O12 0.767775 0.218539 0.093932
O O13 0.885460 0.116325 0.270606
O O14 0.981249 0.125061 0.181635
O O15 0.250000 0.500000 0.039419
O O16 0.132307 0.631886 0.056205
#
# Coordination Sequence:
#
# PCOD8283441 Si02
#       7
#    16  16  16  16  16  16  16
#     4  11  22  40  66  98 127 166 218 270 315 379
#     4  11  22  40  65  89 127 173 212 257 322 391
#     4  11  22  40  62  96 129 169 213 264 322 382
#     4  11  23  42  63  92 131 175 216 253 329 390
#     4  11  23  41  65  95 130 171 215 263 319 386
#     4   9  22  38  64  91 127 173 205 263 329 381
#     4  11  22  41  64  97 130 163 217 268 325 377
#
# _framework density 22.176148000000001
#
# number of rings (size 3 to 8) (size 9 to 14) (size 15 to 20)
#    0.000    1.286    2.857    4.286    2.000    4.000 
#    2.571    0.714    0.000    0.000    0.000    0.000 
#    0.000    0.000    0.000    0.000    0.000    0.000 
#
# Total GULP energy -693988.902315 kJ/mol
# GULP energy per Si atom -12392.658970 kJ/mol
# Density = 2.212567 g / cm^3
# Si number density = 22.176148 Si / 1000 Ang^3
#
#
#
# Elastic Constant Matrix: (Units=GPa)
#
#
# Indices 1 2 3 4 5 6 
#
# 1 27.2220 26.6293 31.5040 0.0000 0.0000 0.0000
# 2 26.6293 148.2479 40.7381 0.0000 0.0000 0.0000
# 3 31.5040 40.7381 148.0701 0.0000 0.0000 0.0000
# 4 0.0000 0.0000 0.0000 28.1521 0.0000 0.0000
# 5 0.0000 0.0000 0.0000 0.0000 30.0162 0.0000
# 6 0.0000 0.0000 0.0000 0.0000 0.0000 29.2005
#
#
#
# Elastic Compliance Matrix: (Units=1/GPa)
#
#
# Indices 1 2 3 4 5 6 
#
# 1 0.055051 -0.007216 -0.009728 0.000000 0.000000 0.000000
# 2 -0.007216 0.008243 -0.000733 0.000000 0.000000 0.000000
# 3 -0.009728 -0.000733 0.009025 0.000000 0.000000 0.000000
# 4 0.000000 0.000000 0.000000 0.035521 0.000000 0.000000
# 5 0.000000 0.000000 0.000000 0.000000 0.033315 0.000000
# 6 0.000000 0.000000 0.000000 0.000000 0.000000 0.034246
#
#
# Mechanical properties :
#
#
# Convention : Reuss Voigt Hill
#
# Bulk Modulus (GPa) = 27.05098 57.92031 42.48564
# Shear Modulus (GPa) = 22.41388 32.45165 27.43276
#
# Velocity S-wave (km/s) = 3.18263 3.82954 3.52097
# Velocity P-wave (km/s) = 5.07250 6.76231 5.97742
#
# Compressibility (1/GPa) = 0.03696723
#
# Stress axis : x y z
#
# Youngs Moduli (GPa) = 18.16485 121.31670 110.80515
#
# Poissons Ratio (x) = 0.87536 1.07789
# Poissons Ratio (y) = 0.13107 0.08118
# Poissons Ratio (z) = 0.17670 0.08888
#
# Static dielectric constant tensor:
#      x y z
#    x 3.664780 0.000000 0.000000 
#    y 0.000000 4.531810 0.000000 
#    z 0.000000 0.000000 4.246060 
# 
# 
# High freq. dielectric constant tensor:
#      x y z
#    x 1.828780 0.000000 0.000000 
#    y 0.000000 1.900190 0.000000 
#    z 0.000000 0.000000 1.882830 
# 
# From -- ./inp_files/46669.got.cif
#   From: 2010.03.12/outbox.cif.g09.slc.cpg/sg68_24_cif.got.tgz:46669.got - 2010.04.10 23:14:56.
