data_PCOD8283754
_publ_section_title
;
Structure prediction by ZEFSAII (Michael W. Deem and Ramdas Pophale) SiO2 
 PCOD8283754
Probable space group: F M M M
;
_chemical_formula_sum "Si O2"
_cell_formula_units_Z 144
_cell_length_a 18.351797
_cell_length_b 20.043931
_cell_length_c 23.226259
_cell_angle_alpha 90.000000
_cell_angle_beta 90.000000
_cell_angle_gamma 90.000000
_cell_volume 8543.597112
_symmetry_space_group_name_H-M "F M M M"
_symmetry_group_IT_number 69
_symmetry_cell_setting 'orthorhombic'
loop_
_space_group_symop_operation_xyz
x,y,z
-x,-y,z
x,-y,-z
-x,y,-z
-x,-y,-z
x,y,-z
-x,y,z
x,-y,z
x,1/2+y,1/2+z
-x,1/2-y,1/2+z
x,1/2-y,1/2-z
-x,1/2+y,1/2-z
-x,1/2-y,1/2-z
x,1/2+y,1/2-z
-x,1/2+y,1/2+z
x,1/2-y,1/2+z
1/2+x,y,1/2+z
1/2-x,-y,1/2+z
1/2+x,-y,1/2-z
1/2-x,y,1/2-z
1/2-x,-y,1/2-z
1/2+x,y,1/2-z
1/2-x,y,1/2+z
1/2+x,-y,1/2+z
1/2+x,1/2+y,z
1/2-x,1/2-y,z
1/2+x,1/2-y,-z
1/2-x,1/2+y,-z
1/2-x,1/2-y,-z
1/2+x,1/2+y,-z
1/2-x,1/2+y,z
1/2+x,1/2-y,z
loop_
_atom_site_type_symbol
_atom_site_label
_atom_site_fract_x
_atom_site_fract_y
_atom_site_fract_z
Si Si1 0.852029 0.860816 0.650365
Si Si2 0.250000 0.839186 0.250000
Si Si3 0.861124 0.292769 0.339474
Si Si4 0.765532 0.171861 0.063998
Si Si5 0.000000 0.577436 0.825302
Si Si6 0.000000 0.177368 0.221970
O O1 0.806710 0.881139 0.709023
O O2 0.880320 0.784711 0.652897
O O3 0.800275 0.868814 0.594387
O O4 0.924660 0.905248 0.641004
O O5 0.204441 0.793319 0.206313
O O6 0.838452 0.332441 0.397501
O O7 0.929985 0.333190 0.317377
O O8 0.750000 0.250000 0.061148
O O9 0.777821 0.142264 0.000000
O O10 0.000000 0.500000 0.810930
O O11 0.000000 0.618601 0.767113
O O12 0.000000 0.250000 0.250000
#
# Coordination Sequence:
#
# PCOD8283754 Si02
#       6
#    32  16  32  32  16  16
#     4  10  17  29  48  69 100 133 165 204 256 303
#     4  10  15  24  47  78  93 122 169 210 247 310
#     4  10  16  25  49  76  99 129 166 203 254 310
#     4   8  16  29  48  75 102 125 161 213 260 296
#     4  12  24  34  45  72 111 140 168 211 253 305
#     4  12  18  30  51  73 103 137 173 202 251 322
#
# _framework density 16.854728000000001
#
# number of rings (size 3 to 8) (size 9 to 14) (size 15 to 20)
#    0.000    2.000    4.444    3.333    0.000    0.000 
#    0.000    1.667    0.000    6.667    0.000    0.000 
#    0.000    0.889    0.000    0.000    0.000    0.000 
#
# Total GULP energy -446040.021155 kJ/mol
# GULP energy per Si atom -12390.000588 kJ/mol
# Density = 1.681637 g / cm^3
# Si number density = 16.854728 Si / 1000 Ang^3
#
#
#
# Elastic Constant Matrix: (Units=GPa)
#
#
# Indices 1 2 3 4 5 6 
#
# 1 119.6691 32.3633 54.2343 0.0000 0.0000 0.0000
# 2 32.3633 58.2316 23.8344 0.0000 0.0000 0.0000
# 3 54.2343 23.8344 130.0386 0.0000 0.0000 0.0000
# 4 0.0000 0.0000 0.0000 8.2406 0.0000 0.0000
# 5 0.0000 0.0000 0.0000 0.0000 21.2147 0.0000
# 6 0.0000 0.0000 0.0000 0.0000 0.0000 11.7008
#
#
#
# Elastic Compliance Matrix: (Units=1/GPa)
#
#
# Indices 1 2 3 4 5 6 
#
# 1 0.011400 -0.004746 -0.003885 0.000000 0.000000 0.000000
# 2 -0.004746 0.020541 -0.001786 0.000000 0.000000 0.000000
# 3 -0.003885 -0.001786 0.009638 0.000000 0.000000 0.000000
# 4 0.000000 0.000000 0.000000 0.121350 0.000000 0.000000
# 5 0.000000 0.000000 0.000000 0.000000 0.047137 0.000000
# 6 0.000000 0.000000 0.000000 0.000000 0.000000 0.085464
#
#
# Mechanical properties :
#
#
# Convention : Reuss Voigt Hill
#
# Bulk Modulus (GPa) = 48.20086 58.75594 53.47840
# Shear Modulus (GPa) = 15.46651 21.39838 18.43244
#
# Velocity S-wave (km/s) = 3.03254 3.56698 3.31056
# Velocity P-wave (km/s) = 6.39700 7.20419 6.81256
#
# Compressibility (1/GPa) = 0.02074652
#
# Stress axis : x y z
#
# Youngs Moduli (GPa) = 87.71555 48.68243 103.76100
#
# Poissons Ratio (x) = 0.23104 0.40310
# Poissons Ratio (y) = 0.41629 0.18528
# Poissons Ratio (z) = 0.34076 0.08693
#
# Static dielectric constant tensor:
#      x y z
#    x 3.396550 0.000000 0.000000 
#    y 0.000000 2.549810 0.000000 
#    z 0.000000 0.000000 3.523670 
# 
# 
# High freq. dielectric constant tensor:
#      x y z
#    x 1.663730 0.000000 0.000000 
#    y 0.000000 1.579800 0.000000 
#    z 0.000000 0.000000 1.640290 
# 
# From -- ./inp_files/36597.got.cif
#   From: 2010.03.12/outbox.cif.g09.slc.cpg/sg69_19_cif.got.tgz:36597.got - 2010.04.10 23:52:46.
