data_PCOD8283809
_publ_section_title
;
Structure prediction by ZEFSAII (Michael W. Deem and Ramdas Pophale) SiO2 
 PCOD8283809
Probable space group: F M M M
;
_chemical_formula_sum "Si O2"
_cell_formula_units_Z 112
_cell_length_a 30.213478
_cell_length_b 8.637104
_cell_length_c 25.521959
_cell_angle_alpha 90.000000
_cell_angle_beta 90.000000
_cell_angle_gamma 90.000000
_cell_volume 6660.132622
_symmetry_space_group_name_H-M "F M M M"
_symmetry_group_IT_number 69
_symmetry_cell_setting 'orthorhombic'
loop_
_space_group_symop_operation_xyz
x,y,z
-x,-y,z
x,-y,-z
-x,y,-z
-x,-y,-z
x,y,-z
-x,y,z
x,-y,z
x,1/2+y,1/2+z
-x,1/2-y,1/2+z
x,1/2-y,1/2-z
-x,1/2+y,1/2-z
-x,1/2-y,1/2-z
x,1/2+y,1/2-z
-x,1/2+y,1/2+z
x,1/2-y,1/2+z
1/2+x,y,1/2+z
1/2-x,-y,1/2+z
1/2+x,-y,1/2-z
1/2-x,y,1/2-z
1/2-x,-y,1/2-z
1/2+x,y,1/2-z
1/2-x,y,1/2+z
1/2+x,-y,1/2+z
1/2+x,1/2+y,z
1/2-x,1/2-y,z
1/2+x,1/2-y,-z
1/2-x,1/2+y,-z
1/2-x,1/2-y,-z
1/2+x,1/2+y,-z
1/2-x,1/2+y,z
1/2+x,1/2-y,z
loop_
_atom_site_type_symbol
_atom_site_label
_atom_site_fract_x
_atom_site_fract_y
_atom_site_fract_z
Si Si1 0.116588 0.180887 0.306954
Si Si2 0.447395 0.321915 0.113258
Si Si3 0.951729 0.182908 0.000000
Si Si4 0.205886 0.316751 0.308308
O O1 0.106378 0.250000 0.250000
O O2 0.074837 0.212621 0.343893
O O3 0.160187 0.257593 0.334226
O O4 0.124709 0.000000 0.300671
O O5 0.500000 0.297640 0.115373
O O6 0.435274 0.500000 0.125450
O O7 0.428428 0.271857 0.055249
O O8 0.000000 0.261840 0.000000
O O9 0.958236 0.000000 0.000000
O O10 0.207867 0.500000 0.308335
O O11 0.205044 0.250000 0.250000
O O12 0.250000 0.250000 0.337172
#
# Coordination Sequence:
#
# PCOD8283809 Si02
#       4
#    32  32  16  32
#     4  11  21  32  45  65  94 126 158 190 227 272
#     4   9  17  31  50  70  92 120 154 191 230 272
#     4   7  12  26  49  71  88 111 148 191 231 271
#     4  10  17  28  45  65  89 117 150 187 227 269
#
# _framework density 16.816482000000001
#
# number of rings (size 3 to 8) (size 9 to 14) (size 15 to 20)
#    0.000    2.429    0.000    9.429    0.000    1.143 
#    0.000    0.714    0.000    2.571    0.000    1.000 
#    0.000    0.000    0.000    0.000    0.000    0.000 
#
# Total GULP energy -346887.544078 kJ/mol
# GULP energy per Si atom -12388.840860 kJ/mol
# Density = 1.677821 g / cm^3
# Si number density = 16.816482 Si / 1000 Ang^3
#
#
#
# Elastic Constant Matrix: (Units=GPa)
#
#
# Indices 1 2 3 4 5 6 
#
# 1 74.7592 35.9648 41.5552 0.0000 0.0000 0.0001
# 2 35.9648 124.9997 32.8672 0.0000 0.0001 0.0000
# 3 41.5552 32.8672 83.9633 0.0000 0.0000 0.0000
# 4 0.0000 0.0000 0.0000 16.0604 0.0000 0.0000
# 5 0.0000 0.0001 0.0000 0.0000 1.8837 0.0000
# 6 0.0001 0.0000 0.0000 0.0000 0.0000 25.0521
#
#
#
# Elastic Compliance Matrix: (Units=1/GPa)
#
#
# Indices 1 2 3 4 5 6 
#
# 1 0.019711 -0.003463 -0.008400 0.000000 0.000000 0.000000
# 2 -0.003463 0.009526 -0.002015 0.000000 0.000000 0.000000
# 3 -0.008400 -0.002015 0.016856 0.000000 0.000000 0.000000
# 4 0.000000 0.000000 0.000000 0.062265 0.000000 0.000000
# 5 0.000000 0.000000 0.000000 0.000000 0.530858 0.000001
# 6 0.000000 0.000000 0.000000 0.000000 0.000001 0.039917
#
#
# Mechanical properties :
#
#
# Convention : Reuss Voigt Hill
#
# Bulk Modulus (GPa) = 54.53243 56.05519 55.29381
# Shear Modulus (GPa) = 7.01260 20.15491 13.58376
#
# Velocity S-wave (km/s) = 2.04429 3.46572 2.84520
# Velocity P-wave (km/s) = 6.17013 7.02999 6.61405
#
# Compressibility (1/GPa) = 0.01833771
#
# Stress axis : x y z
#
# Youngs Moduli (GPa) = 50.73231 104.97403 59.32524
#
# Poissons Ratio (x) = 0.36348 0.49834
# Poissons Ratio (y) = 0.17567 0.11956
# Poissons Ratio (z) = 0.42616 0.21155
#
# Static dielectric constant tensor:
#      x y z
#    x 3.682200 0.000000 0.000000 
#    y 0.000000 3.058080 0.000000 
#    z 0.000000 0.000000 3.050520 
# 
# 
# High freq. dielectric constant tensor:
#      x y z
#    x 1.642050 0.000000 0.000000 
#    y 0.000000 1.647950 0.000000 
#    z 0.000000 0.000000 1.611090 
# 
# From -- ./inp_files/4716.got.cif
#   From: 2010.03.12/outbox.cif.g09.slc.cpg/sg69_3_cif.got.tgz:4716.got - 2010.04.10 23:52:46.
