data_PCOD8283900
_publ_section_title
;
Structure prediction by ZEFSAII (Michael W. Deem and Ramdas Pophale) SiO2 
 PCOD8283900
Probable space group: F M M M
;
_chemical_formula_sum "Si O2"
_cell_formula_units_Z 144
_cell_length_a 18.701017
_cell_length_b 28.259957
_cell_length_c 17.141197
_cell_angle_alpha 90.000000
_cell_angle_beta 90.000000
_cell_angle_gamma 90.000000
_cell_volume 9058.950110
_symmetry_space_group_name_H-M "F M M M"
_symmetry_group_IT_number 69
_symmetry_cell_setting 'orthorhombic'
loop_
_space_group_symop_operation_xyz
x,y,z
-x,-y,z
x,-y,-z
-x,y,-z
-x,-y,-z
x,y,-z
-x,y,z
x,-y,z
x,1/2+y,1/2+z
-x,1/2-y,1/2+z
x,1/2-y,1/2-z
-x,1/2+y,1/2-z
-x,1/2-y,1/2-z
x,1/2+y,1/2-z
-x,1/2+y,1/2+z
x,1/2-y,1/2+z
1/2+x,y,1/2+z
1/2-x,-y,1/2+z
1/2+x,-y,1/2-z
1/2-x,y,1/2-z
1/2-x,-y,1/2-z
1/2+x,y,1/2-z
1/2-x,y,1/2+z
1/2+x,-y,1/2+z
1/2+x,1/2+y,z
1/2-x,1/2-y,z
1/2+x,1/2-y,-z
1/2-x,1/2+y,-z
1/2-x,1/2-y,-z
1/2+x,1/2+y,-z
1/2-x,1/2+y,z
1/2+x,1/2-y,z
loop_
_atom_site_type_symbol
_atom_site_label
_atom_site_fract_x
_atom_site_fract_y
_atom_site_fract_z
Si Si1 0.856157 0.097809 0.589768
Si Si2 0.500000 0.153446 0.086502
Si Si3 0.352974 0.235484 0.591676
Si Si4 0.582229 0.500000 0.406984
Si Si5 0.500000 0.251535 0.841219
Si Si6 0.731372 0.821488 0.840508
O O1 0.831278 0.097869 0.500000
O O2 0.795813 0.125688 0.639090
O O3 0.931720 0.122004 0.601333
O O4 0.870311 0.044760 0.621348
O O5 0.500000 0.196344 0.143967
O O6 0.500000 0.175039 0.000000
O O7 0.352526 0.246735 0.500000
O O8 0.431628 0.222177 0.621788
O O9 0.328483 0.282721 0.637445
O O10 0.302197 0.190877 0.609785
O O11 0.500000 0.500000 0.373759
O O12 0.575780 0.500000 0.500000
O O13 0.500000 0.250000 0.750000
O O14 0.750000 0.818129 0.750000
#
# Coordination Sequence:
#
# PCOD8283900 Si02
#       6
#    32  16  32  16  16  32
#     4  10  18  31  51  74 102 129 160 199 251 306
#     4  10  18  29  50  74  99 130 163 196 244 301
#     4  11  21  34  50  68  95 132 174 206 243 290
#     4   9  16  28  49  80 104 121 153 204 249 299
#     4  12  22  32  47  73 102 129 163 207 245 288
#     4  11  21  33  47  69  98 133 167 205 244 291
#
# _framework density 15.895882
#
# number of rings (size 3 to 8) (size 9 to 14) (size 15 to 20)
#    0.000    1.444    3.333    6.333    0.000    0.000 
#    0.000    0.556    0.000    0.000    0.000    0.000 
#    0.000    0.000    0.000    6.333    0.000    0.889 
#
# Total GULP energy -446283.262239 kJ/mol
# GULP energy per Si atom -12396.757284 kJ/mol
# Density = 1.585970 g / cm^3
# Si number density = 15.895882 Si / 1000 Ang^3
#
#
#
# Elastic Constant Matrix: (Units=GPa)
#
#
# Indices 1 2 3 4 5 6 
#
# 1 110.5509 46.0378 41.3791 0.0000 0.0000 0.0000
# 2 46.0378 107.8902 37.5038 0.0000 0.0000 0.0000
# 3 41.3791 37.5038 103.0574 0.0000 0.0000 0.0000
# 4 0.0000 0.0000 0.0000 5.7187 0.0000 0.0000
# 5 0.0000 0.0000 0.0000 0.0000 28.5293 0.0000
# 6 0.0000 0.0000 0.0000 0.0000 0.0000 39.4333
#
#
#
# Elastic Compliance Matrix: (Units=1/GPa)
#
#
# Indices 1 2 3 4 5 6 
#
# 1 0.011940 -0.003925 -0.003366 0.000000 0.000000 0.000000
# 2 -0.003925 0.011901 -0.002755 0.000000 0.000000 0.000000
# 3 -0.003366 -0.002755 0.012057 0.000000 0.000000 0.000000
# 4 0.000000 0.000000 0.000000 0.174864 0.000000 0.000000
# 5 0.000000 0.000000 0.000000 0.000000 0.035052 0.000000
# 6 0.000000 0.000000 0.000000 0.000000 0.000000 0.025359
#
#
# Mechanical properties :
#
#
# Convention : Reuss Voigt Hill
#
# Bulk Modulus (GPa) = 63.26317 63.48220 63.37268
# Shear Modulus (GPa) = 16.86147 27.84145 22.35146
#
# Velocity S-wave (km/s) = 3.26044 4.18962 3.75389
# Velocity P-wave (km/s) = 7.35247 7.96410 7.66439
#
# Compressibility (1/GPa) = 0.01580699
#
# Stress axis : x y z
#
# Youngs Moduli (GPa) = 83.75292 84.02534 82.93715
#
# Poissons Ratio (x) = 0.32979 0.27914
# Poissons Ratio (y) = 0.32872 0.22850
# Poissons Ratio (z) = 0.28189 0.23150
#
# Static dielectric constant tensor:
#      x y z
#    x 3.217380 0.000000 0.000000 
#    y 0.000000 3.098020 0.000000 
#    z 0.000000 0.000000 2.898700 
# 
# 
# High freq. dielectric constant tensor:
#      x y z
#    x 1.615010 0.000000 0.000000 
#    y 0.000000 1.590080 0.000000 
#    z 0.000000 0.000000 1.596090 
# 
# From -- ./inp_files/15626.got.cif
#   From: 2010.03.12/outbox.cif.g09.slc.cpg/sg69_8_cif.got.tgz:15626.got - 2010.04.10 23:52:46.
