data_PCOD8283942
_publ_section_title
;
Structure prediction by ZEFSAII (Michael W. Deem and Ramdas Pophale) SiO2 
 PCOD8283942
Probable space group: F M M M
;
_chemical_formula_sum "Si O2"
_cell_formula_units_Z 128
_cell_length_a 24.824222
_cell_length_b 30.195400
_cell_length_c 8.862035
_cell_angle_alpha 90.000000
_cell_angle_beta 90.000000
_cell_angle_gamma 90.000000
_cell_volume 6642.780383
_symmetry_space_group_name_H-M "F M M M"
_symmetry_group_IT_number 69
_symmetry_cell_setting 'orthorhombic'
loop_
_space_group_symop_operation_xyz
x,y,z
-x,-y,z
x,-y,-z
-x,y,-z
-x,-y,-z
x,y,-z
-x,y,z
x,-y,z
x,1/2+y,1/2+z
-x,1/2-y,1/2+z
x,1/2-y,1/2-z
-x,1/2+y,1/2-z
-x,1/2-y,1/2-z
x,1/2+y,1/2-z
-x,1/2+y,1/2+z
x,1/2-y,1/2+z
1/2+x,y,1/2+z
1/2-x,-y,1/2+z
1/2+x,-y,1/2-z
1/2-x,y,1/2-z
1/2-x,-y,1/2-z
1/2+x,y,1/2-z
1/2-x,y,1/2+z
1/2+x,-y,1/2+z
1/2+x,1/2+y,z
1/2-x,1/2-y,z
1/2+x,1/2-y,-z
1/2-x,1/2+y,-z
1/2-x,1/2-y,-z
1/2+x,1/2+y,-z
1/2-x,1/2+y,z
1/2+x,1/2-y,z
loop_
_atom_site_type_symbol
_atom_site_label
_atom_site_fract_x
_atom_site_fract_y
_atom_site_fract_z
Si Si1 0.691166 0.500000 0.821103
Si Si2 0.938761 0.791248 0.164384
Si Si3 0.000000 0.947846 0.179528
Si Si4 0.080939 0.618411 0.173536
Si Si5 0.305806 0.586300 0.327211
O O1 0.750000 0.500000 0.750000
O O2 0.665518 0.544555 0.755748
O O3 0.689516 0.500000 0.000000
O O4 0.909705 0.750000 0.250000
O O5 0.938956 0.835728 0.260400
O O6 0.000000 0.777354 0.136532
O O7 0.910901 0.798433 0.000000
O O8 0.053419 0.923123 0.241292
O O9 0.000000 0.000000 0.227848
O O10 0.000000 0.943981 0.000000
O O11 0.146208 0.621470 0.186847
O O12 0.063363 0.614570 0.000000
O O13 0.291721 0.574650 0.500000
O O14 0.250000 0.602477 0.250000
#
# Coordination Sequence:
#
# PCOD8283942 Si02
#       5
#    16  32  16  32  32
#     4  10  18  30  50  73 100 137 182 234 278 318
#     4  10  20  35  58  86 115 146 183 229 282 335
#     4  11  25  41  56  81 116 155 197 233 279 337
#     4  11  23  38  59  84 115 151 190 233 282 338
#     4  10  21  36  54  79 108 145 189 234 281 330
#
# _framework density 19.26904
#
# number of rings (size 3 to 8) (size 9 to 14) (size 15 to 20)
#    0.000    1.625    1.250    5.250    1.750    6.000 
#    0.000    0.000    0.000    0.750    0.000    5.250 
#    0.000    0.000    0.000    0.000    0.000    0.000 
#
# Total GULP energy -396473.082375 kJ/mol
# GULP energy per Si atom -12389.783824 kJ/mol
# Density = 1.922518 g / cm^3
# Si number density = 19.269040 Si / 1000 Ang^3
#
#
#
# Elastic Constant Matrix: (Units=GPa)
#
#
# Indices 1 2 3 4 5 6 
#
# 1 83.4442 23.8907 37.6208 -0.0096 0.0170 0.0087
# 2 23.8907 121.3430 54.4771 0.0035 0.0035 -0.0023
# 3 37.6208 54.4771 159.8905 -0.0103 0.0314 0.0046
# 4 -0.0096 0.0035 -0.0103 27.9808 0.0135 0.0005
# 5 0.0170 0.0035 0.0314 0.0135 24.0406 -0.0110
# 6 0.0087 -0.0023 0.0046 0.0005 -0.0110 10.9955
#
#
#
# Elastic Compliance Matrix: (Units=1/GPa)
#
#
# Indices 1 2 3 4 5 6 
#
# 1 0.013624 -0.001468 -0.002706 0.000004 -0.000006 -0.000010
# 2 -0.001468 0.009887 -0.003023 -0.000003 0.000004 0.000005
# 3 -0.002706 -0.003023 0.007921 0.000002 -0.000008 -0.000002
# 4 0.000004 -0.000003 0.000002 0.035739 -0.000020 -0.000002
# 5 -0.000006 0.000004 -0.000008 -0.000020 0.041596 0.000041
# 6 -0.000010 0.000005 -0.000002 -0.000002 0.000041 0.090946
#
#
# Mechanical properties :
#
#
# Convention : Reuss Voigt Hill
#
# Bulk Modulus (GPa) = 58.68864 66.29499 62.49182
# Shear Modulus (GPa) = 22.74926 29.18265 25.96596
#
# Velocity S-wave (km/s) = 3.43973 3.89586 3.67488
# Velocity P-wave (km/s) = 6.80436 7.39707 7.10689
#
# Compressibility (1/GPa) = 0.01703907
#
# Stress axis : x y z
#
# Youngs Moduli (GPa) = 73.39948 101.13817 126.24646
#
# Poissons Ratio (x) = 0.14844 0.34157
# Poissons Ratio (y) = 0.10773 0.38170
# Poissons Ratio (z) = 0.19859 0.30579
#
# Static dielectric constant tensor:
#      x y z
#    x 3.274840 0.000010 0.000010 
#    y 0.000010 4.444660 0.000050 
#    z 0.000010 0.000050 3.900460 
# 
# 
# High freq. dielectric constant tensor:
#      x y z
#    x 1.724060 0.000000 0.000000 
#    y 0.000000 1.736250 0.000000 
#    z 0.000000 0.000000 1.775240 
# 
# From -- ./inp_files/4848.got.cif
#   From: 2010.03.12/outbox.cif.g09.slc.cpg/sg69_3_cif.got.tgz:4848.got - 2010.04.10 23:52:46.
