data_PCOD8283101
_publ_section_title
;
Structure prediction by ZEFSAII (Michael W. Deem and Ramdas Pophale) SiO2 
 PCOD8283101
Probable space group: C C C A
;
_chemical_formula_sum "Si O2"
_cell_formula_units_Z 80
_cell_length_a 13.660216
_cell_length_b 13.825178
_cell_length_c 22.261230
_cell_angle_alpha 90.000000
_cell_angle_beta 90.000000
_cell_angle_gamma 90.000000
_cell_volume 4204.142760
_symmetry_space_group_name_H-M "C C C A"
_symmetry_group_IT_number 68
_space_group.IT_coordinate_system_code '2'
_symmetry_cell_setting 'orthorhombic'
loop_
_space_group_symop_operation_xyz
x,y,z
-x,1/2-y,z
x,1/2-y,1/2-z
-x,y,1/2-z
-x,-y,-z
x,1/2+y,-z
-x,1/2+y,1/2+z
x,-y,1/2+z
1/2+x,1/2+y,z
1/2-x,-y,z
1/2+x,-y,1/2-z
1/2-x,1/2+y,1/2-z
1/2-x,1/2-y,-z
1/2+x,y,-z
1/2-x,y,1/2+z
1/2+x,1/2-y,1/2+z
loop_
_atom_site_type_symbol
_atom_site_label
_atom_site_fract_x
_atom_site_fract_y
_atom_site_fract_z
Si Si1 0.409822 0.818480 0.327486
Si Si2 0.165842 0.422277 0.814258
Si Si3 0.500000 0.024377 0.750000
Si Si4 0.756212 0.250000 0.750000
Si Si5 0.768572 0.887697 0.444965
Si Si6 0.608386 0.272397 0.958868
O O1 0.500000 0.750000 0.310971
O O2 0.421798 0.915921 0.289312
O O3 0.309895 0.766759 0.308635
O O4 0.403566 0.836322 0.398540
O O5 0.250000 0.500000 0.804021
O O6 0.059044 0.465408 0.800679
O O7 0.175074 0.339720 0.764401
O O8 0.174108 0.380948 0.881731
O O9 0.666322 0.827817 0.444306
O O10 0.837795 0.840005 0.494098
O O11 0.750000 0.000000 0.461430
O O12 0.500000 0.250000 0.984042
#
# Coordination Sequence:
#
# PCOD8283101 Si02
#       6
#    16  16   8   8  16  16
#     4  11  19  36  65  90 113 157 210 254 284 357
#     4  11  23  40  63  91 123 165 196 253 310 360
#     4  12  23  39  60  96 126 154 208 246 308 370
#     4  12  19  39  62  88 126 152 202 250 306 358
#     4  10  23  44  62  88 127 160 204 258 314 361
#     4  10  23  42  65  90 117 164 213 253 304 365
#
# _framework density 19.028849999999998
#
# number of rings (size 3 to 8) (size 9 to 14) (size 15 to 20)
#    0.000    1.200    6.000    0.000    8.400    1.200 
#    7.200    0.000    0.000    0.000    0.000    0.000 
#    0.000    0.000    0.000    0.000    0.000    0.000 
#
# Total GULP energy -495979.254755 kJ/mol
# GULP energy per Si atom -12399.481369 kJ/mol
# Density = 1.898554 g / cm^3
# Si number density = 19.028850 Si / 1000 Ang^3
#
#
#
# Elastic Constant Matrix: (Units=GPa)
#
#
# Indices 1 2 3 4 5 6 
#
# 1 91.5319 32.0283 44.1935 0.0000 0.0000 0.0000
# 2 32.0283 95.2301 54.9874 0.0000 0.0000 0.0000
# 3 44.1935 54.9874 104.2293 0.0000 0.0000 0.0000
# 4 0.0000 0.0000 0.0000 39.2849 0.0000 0.0000
# 5 0.0000 0.0000 0.0000 0.0000 32.3339 0.0000
# 6 0.0000 0.0000 0.0000 0.0000 0.0000 20.1921
#
#
#
# Elastic Compliance Matrix: (Units=1/GPa)
#
#
# Indices 1 2 3 4 5 6 
#
# 1 0.013957 -0.001837 -0.004949 0.000000 0.000000 0.000000
# 2 -0.001837 0.015343 -0.007316 0.000000 0.000000 0.000000
# 3 -0.004949 -0.007316 0.015552 0.000000 0.000000 0.000000
# 4 0.000000 0.000000 0.000000 0.025455 0.000000 0.000000
# 5 0.000000 0.000000 0.000000 0.000000 0.030927 0.000000
# 6 0.000000 0.000000 0.000000 0.000000 0.000000 0.049524
#
#
# Mechanical properties :
#
#
# Convention : Reuss Voigt Hill
#
# Bulk Modulus (GPa) = 60.06078 61.48997 60.77538
# Shear Modulus (GPa) = 27.09871 29.01433 28.05652
#
# Velocity S-wave (km/s) = 3.77780 3.90905 3.84398
# Velocity P-wave (km/s) = 7.11762 7.26350 7.19093
#
# Compressibility (1/GPa) = 0.01664980
#
# Stress axis : x y z
#
# Youngs Moduli (GPa) = 71.64721 65.17780 64.30033
#
# Poissons Ratio (x) = 0.11970 0.31822
# Poissons Ratio (y) = 0.13158 0.47039
# Poissons Ratio (z) = 0.35458 0.47681
#
# Static dielectric constant tensor:
#      x y z
#    x 3.447270 0.000000 0.000000 
#    y 0.000000 3.450470 0.000000 
#    z 0.000000 0.000000 3.554390 
# 
# 
# High freq. dielectric constant tensor:
#      x y z
#    x 1.735370 0.000000 0.000000 
#    y 0.000000 1.734130 0.000000 
#    z 0.000000 0.000000 1.746830 
# 
# From -- ./inp_files/44154.got.cif
#   From: 2010.03.12/outbox.cif.g09.slc.cpg/sg68_23_cif.got.tgz:44154.got - 2010.04.10 23:14:56.
