data_PCOD8283437
_publ_section_title
;
Structure prediction by ZEFSAII (Michael W. Deem and Ramdas Pophale) SiO2 
 PCOD8283437
Probable space group: C C C A
;
_chemical_formula_sum "Si O2"
_cell_formula_units_Z 68
_cell_length_a 20.746090
_cell_length_b 15.313703
_cell_length_c 9.037199
_cell_angle_alpha 90.000000
_cell_angle_beta 90.000000
_cell_angle_gamma 90.000000
_cell_volume 2871.113248
_symmetry_space_group_name_H-M "C C C A"
_symmetry_group_IT_number 68
_space_group.IT_coordinate_system_code '2'
_symmetry_cell_setting 'orthorhombic'
loop_
_space_group_symop_operation_xyz
x,y,z
-x,1/2-y,z
x,1/2-y,1/2-z
-x,y,1/2-z
-x,-y,-z
x,1/2+y,-z
-x,1/2+y,1/2+z
x,-y,1/2+z
1/2+x,1/2+y,z
1/2-x,-y,z
1/2+x,-y,1/2-z
1/2-x,1/2+y,1/2-z
1/2-x,1/2-y,-z
1/2+x,y,-z
1/2-x,y,1/2+z
1/2+x,1/2-y,1/2+z
loop_
_atom_site_type_symbol
_atom_site_label
_atom_site_fract_x
_atom_site_fract_y
_atom_site_fract_z
Si Si1 0.778479 0.093451 0.244714
Si Si2 0.928880 0.354729 0.743806
Si Si3 0.322533 0.157567 0.456012
Si Si4 0.386944 0.168464 0.934206
Si Si5 0.000000 0.750000 0.750000
O O1 0.729271 0.166720 0.178294
O O2 0.787235 0.099128 0.420893
O O3 0.849236 0.104034 0.174234
O O4 0.750000 0.000000 0.202269
O O5 0.930843 0.250000 0.750000
O O6 0.886203 0.387616 0.882783
O O7 0.898773 0.383186 0.586959
O O8 0.000000 0.395643 0.750000
O O9 0.341920 0.247817 0.533779
O O10 0.454865 0.192552 0.857381
#
# Coordination Sequence:
#
# PCOD8283437 Si02
#       5
#    16  16  16  16   4
#     4  12  25  41  64  96 142 188 234 288 353 426
#     4   9  19  36  64  98 137 173 223 291 355 410
#     4  11  22  42  64 100 137 184 241 288 351 417
#     4  11  22  39  69 106 138 181 232 296 352 417
#     4  12  20  40  74 112 140 172 242 296 348 416
#
# _framework density 23.684191999999999
#
# number of rings (size 3 to 8) (size 9 to 14) (size 15 to 20)
#    0.000    1.176    2.353    5.647    0.000    3.765 
#    0.000    1.176    2.588    4.235    0.000    0.000 
#    0.000    0.000    0.000    0.000    0.000    0.000 
#
# Total GULP energy -421499.774575 kJ/mol
# GULP energy per Si atom -12397.052193 kJ/mol
# Density = 2.363029 g / cm^3
# Si number density = 23.684192 Si / 1000 Ang^3
#
#
#
# Elastic Constant Matrix: (Units=GPa)
#
#
# Indices 1 2 3 4 5 6 
#
# 1 177.0489 38.1075 79.0086 0.0000 0.0000 0.0000
# 2 38.1075 47.7953 31.1089 0.0000 0.0000 0.0000
# 3 79.0086 31.1089 169.9805 0.0000 0.0000 0.0000
# 4 0.0000 0.0000 0.0000 14.2822 0.0000 0.0000
# 5 0.0000 0.0000 0.0000 0.0000 50.4401 0.0000
# 6 0.0000 0.0000 0.0000 0.0000 0.0000 21.5655
#
#
#
# Elastic Compliance Matrix: (Units=1/GPa)
#
#
# Indices 1 2 3 4 5 6 
#
# 1 0.007871 -0.004421 -0.002850 0.000000 0.000000 0.000000
# 2 -0.004421 0.026235 -0.002746 0.000000 0.000000 0.000000
# 3 -0.002850 -0.002746 0.007710 0.000000 0.000000 0.000000
# 4 0.000000 0.000000 0.000000 0.070017 0.000000 0.000000
# 5 0.000000 0.000000 0.000000 0.000000 0.019826 0.000000
# 6 0.000000 0.000000 0.000000 0.000000 0.000000 0.046370
#
#
# Mechanical properties :
#
#
# Convention : Reuss Voigt Hill
#
# Bulk Modulus (GPa) = 45.90857 76.80829 61.35843
# Shear Modulus (GPa) = 24.35162 33.69752 29.02457
#
# Velocity S-wave (km/s) = 3.21000 3.77607 3.50449
# Velocity P-wave (km/s) = 5.75887 7.17720 6.50680
#
# Compressibility (1/GPa) = 0.02178243
#
# Stress axis : x y z
#
# Youngs Moduli (GPa) = 127.04241 38.11671 129.69896
#
# Poissons Ratio (x) = 0.16852 0.36958
# Poissons Ratio (y) = 0.56168 0.35621
# Poissons Ratio (z) = 0.36201 0.10468
#
# Static dielectric constant tensor:
#      x y z
#    x 4.632560 0.000000 0.000000 
#    y 0.000000 3.489310 0.000000 
#    z 0.000000 0.000000 4.670400 
# 
# 
# High freq. dielectric constant tensor:
#      x y z
#    x 1.959980 0.000000 0.000000 
#    y 0.000000 1.868430 0.000000 
#    z 0.000000 0.000000 1.965080 
# 
# From -- ./inp_files/5966.got.cif
#   From: 2010.03.12/outbox.cif.g09.slc.cpg/sg68_3_cif.got.tgz:5966.got - 2010.04.10 23:14:56.
