data_PCOD8283729
_publ_section_title
;
Structure prediction by ZEFSAII (Michael W. Deem and Ramdas Pophale) SiO2 
 PCOD8283729
Probable space group: C C C A
;
_chemical_formula_sum "Si O2"
_cell_formula_units_Z 56
_cell_length_a 7.999467
_cell_length_b 15.546712
_cell_length_c 17.647890
_cell_angle_alpha 90.000000
_cell_angle_beta 90.000000
_cell_angle_gamma 90.000000
_cell_volume 2194.787068
_symmetry_space_group_name_H-M "C C C A"
_symmetry_group_IT_number 68
_space_group.IT_coordinate_system_code '2'
_symmetry_cell_setting 'orthorhombic'
loop_
_space_group_symop_operation_xyz
x,y,z
-x,1/2-y,z
x,1/2-y,1/2-z
-x,y,1/2-z
-x,-y,-z
x,1/2+y,-z
-x,1/2+y,1/2+z
x,-y,1/2+z
1/2+x,1/2+y,z
1/2-x,-y,z
1/2+x,-y,1/2-z
1/2-x,1/2+y,1/2-z
1/2-x,1/2-y,-z
1/2+x,y,-z
1/2-x,y,1/2+z
1/2+x,1/2-y,1/2+z
loop_
_atom_site_type_symbol
_atom_site_label
_atom_site_fract_x
_atom_site_fract_y
_atom_site_fract_z
Si Si1 0.909610 0.908596 0.509891
Si Si2 0.500000 0.925281 0.750000
Si Si3 0.660080 0.310216 0.135733
Si Si4 0.500000 0.750000 0.406093
Si Si5 0.250000 0.000000 0.364644
O O1 0.823826 0.879802 0.432041
O O2 0.025771 0.831783 0.539047
O O3 0.774391 0.918814 0.578577
O O4 0.000000 0.000000 0.500000
O O5 0.641530 0.864608 0.787057
O O6 0.586655 0.984598 0.686672
O O7 0.500000 0.250000 0.123517
O O8 0.829043 0.252526 0.143302
#
# Coordination Sequence:
#
# PCOD8283729 Si02
#       5
#    16   8  16   8   8
#     4  12  25  50  82 119 161 218 280 347 406 495
#     4  12  29  50  78 117 178 214 274 359 436 505
#     4  12  27  53  80 121 168 215 279 357 418 502
#     4  12  28  46  87 117 156 220 284 332 422 501
#     4  12  28  50  80 120 164 222 282 344 426 502
#
# _framework density 25.515004999999999
#
# number of rings (size 3 to 8) (size 9 to 14) (size 15 to 20)
#    0.000    0.000    4.286    4.714    4.000    1.143 
#    0.000    5.714    0.000    0.000    0.000    0.000 
#    0.000    0.000    0.000    0.000    0.000    0.000 
#
# Total GULP energy -347039.532846 kJ/mol
# GULP energy per Si atom -12394.269030 kJ/mol
# Density = 2.545693 g / cm^3
# Si number density = 25.515005 Si / 1000 Ang^3
#
#
#
# Elastic Constant Matrix: (Units=GPa)
#
#
# Indices 1 2 3 4 5 6 
#
# 1 160.5201 43.3799 45.0554 0.0000 0.0000 0.0000
# 2 43.3799 129.4132 35.2932 0.0000 0.0000 0.0000
# 3 45.0554 35.2932 147.2242 0.0000 0.0000 0.0000
# 4 0.0000 0.0000 0.0000 23.3585 0.0000 0.0000
# 5 0.0000 0.0000 0.0000 0.0000 26.0853 0.0000
# 6 0.0000 0.0000 0.0000 0.0000 0.0000 41.8985
#
#
#
# Elastic Compliance Matrix: (Units=1/GPa)
#
#
# Indices 1 2 3 4 5 6 
#
# 1 0.007249 -0.001952 -0.001750 0.000000 0.000000 0.000000
# 2 -0.001952 0.008794 -0.001511 0.000000 0.000000 0.000000
# 3 -0.001750 -0.001511 0.007690 0.000000 0.000000 0.000000
# 4 0.000000 0.000000 0.000000 0.042811 0.000000 0.000000
# 5 0.000000 0.000000 0.000000 0.000000 0.038336 0.000000
# 6 0.000000 0.000000 0.000000 0.000000 0.000000 0.023867
#
#
# Mechanical properties :
#
#
# Convention : Reuss Voigt Hill
#
# Bulk Modulus (GPa) = 75.15480 76.06827 75.61153
# Shear Modulus (GPa) = 34.81700 39.16375 36.99038
#
# Velocity S-wave (km/s) = 3.69802 3.92207 3.81169
# Velocity P-wave (km/s) = 6.91034 7.09845 7.00503
#
# Compressibility (1/GPa) = 0.01330587
#
# Stress axis : x y z
#
# Youngs Moduli (GPa) = 137.95645 113.71900 130.03718
#
# Poissons Ratio (x) = 0.22203 0.22760
# Poissons Ratio (y) = 0.26935 0.19642
# Poissons Ratio (z) = 0.24146 0.17178
#
# Static dielectric constant tensor:
#      x y z
#    x 3.490430 0.000000 0.000000 
#    y 0.000000 6.030080 0.000000 
#    z 0.000000 0.000000 4.793350 
# 
# 
# High freq. dielectric constant tensor:
#      x y z
#    x 2.017350 0.000000 0.000000 
#    y 0.000000 2.027040 0.000000 
#    z 0.000000 0.000000 2.021660 
# 
# From -- ./inp_files/27738.got.cif
#   From: 2010.03.12/outbox.cif.g09.slc.cpg/sg68_14_cif.got.tgz:27738.got - 2010.04.10 23:14:56.
