data_PCOD8283873
_publ_section_title
;
Structure prediction by ZEFSAII (Michael W. Deem and Ramdas Pophale) SiO2 
 PCOD8283873
Probable space group: F M M M
;
_chemical_formula_sum "Si O2"
_cell_formula_units_Z 160
_cell_length_a 23.710896
_cell_length_b 18.072606
_cell_length_c 24.692636
_cell_angle_alpha 90.000000
_cell_angle_beta 90.000000
_cell_angle_gamma 90.000000
_cell_volume 10581.231124
_symmetry_space_group_name_H-M "F M M M"
_symmetry_group_IT_number 69
_symmetry_cell_setting 'orthorhombic'
loop_
_space_group_symop_operation_xyz
x,y,z
-x,-y,z
x,-y,-z
-x,y,-z
-x,-y,-z
x,y,-z
-x,y,z
x,-y,z
x,1/2+y,1/2+z
-x,1/2-y,1/2+z
x,1/2-y,1/2-z
-x,1/2+y,1/2-z
-x,1/2-y,1/2-z
x,1/2+y,1/2-z
-x,1/2+y,1/2+z
x,1/2-y,1/2+z
1/2+x,y,1/2+z
1/2-x,-y,1/2+z
1/2+x,-y,1/2-z
1/2-x,y,1/2-z
1/2-x,-y,1/2-z
1/2+x,y,1/2-z
1/2-x,y,1/2+z
1/2+x,-y,1/2+z
1/2+x,1/2+y,z
1/2-x,1/2-y,z
1/2+x,1/2-y,-z
1/2-x,1/2+y,-z
1/2-x,1/2-y,-z
1/2+x,1/2+y,-z
1/2-x,1/2+y,z
1/2+x,1/2-y,z
loop_
_atom_site_type_symbol
_atom_site_label
_atom_site_fract_x
_atom_site_fract_y
_atom_site_fract_z
Si Si1 0.500000 0.412068 0.745670
Si Si2 0.823167 0.585378 0.160317
Si Si3 0.113070 0.334720 0.257504
Si Si4 0.892157 0.086751 0.440252
Si Si5 0.000000 0.411826 0.878494
Si Si6 0.726784 0.674757 0.809832
O O1 0.500000 0.500000 0.751833
O O2 0.556841 0.380173 0.773768
O O3 0.500000 0.384326 0.683410
O O4 0.834040 0.500000 0.174860
O O5 0.860068 0.632929 0.202357
O O6 0.839526 0.603705 0.098464
O O7 0.756622 0.604244 0.162321
O O8 0.095359 0.250000 0.250000
O O9 0.159135 0.337278 0.306863
O O10 0.883319 0.122504 0.500000
O O11 0.946597 0.120781 0.410435
O O12 0.901575 0.000000 0.447153
O O13 0.000000 0.500000 0.877347
O O14 0.750000 0.679713 0.750000
O O15 0.750000 0.750000 0.839256
#
# Coordination Sequence:
#
# PCOD8283873 Si02
#       6
#    16  32  32  32  16  32
#     4  11  21  30  43  65  95 121 154 195 217 255
#     4  10  18  28  46  68  88 115 153 192 220 257
#     4  11  19  31  45  63  89 124 153 184 226 270
#     4   9  16  26  41  62  88 116 146 182 224 266
#     4   9  15  25  38  56  83 119 150 179 218 258
#     4   9  16  30  45  62  86 118 153 185 222 264
#
# _framework density 15.121114
#
# number of rings (size 3 to 8) (size 9 to 14) (size 15 to 20)
#    0.000    2.200    6.000    1.200    0.000    5.600 
#    0.000    0.000    0.000    0.600    0.000    0.000 
#    0.000    0.000    0.000    0.200    0.000   12.700 
#
# Total GULP energy -495540.809759 kJ/mol
# GULP energy per Si atom -12388.520244 kJ/mol
# Density = 1.508670 g / cm^3
# Si number density = 15.121114 Si / 1000 Ang^3
#
#
#
# Elastic Constant Matrix: (Units=GPa)
#
#
# Indices 1 2 3 4 5 6 
#
# 1 126.1001 39.3744 31.6895 0.0000 0.0000 0.0000
# 2 39.3744 72.3481 24.4203 0.0000 0.0000 0.0000
# 3 31.6895 24.4203 45.3662 0.0000 0.0000 0.0000
# 4 0.0000 0.0000 0.0000 4.2120 0.0000 0.0000
# 5 0.0000 0.0000 0.0000 0.0000 11.7114 0.0000
# 6 0.0000 0.0000 0.0000 0.0000 0.0000 24.8044
#
#
#
# Elastic Compliance Matrix: (Units=1/GPa)
#
#
# Indices 1 2 3 4 5 6 
#
# 1 0.010465 -0.003945 -0.005187 0.000000 0.000000 0.000000
# 2 -0.003945 0.018378 -0.007137 0.000000 0.000000 0.000000
# 3 -0.005187 -0.007137 0.029508 0.000000 0.000000 0.000000
# 4 0.000000 0.000000 0.000000 0.237418 0.000000 0.000000
# 5 0.000000 0.000000 0.000000 0.000000 0.085387 0.000000
# 6 0.000000 0.000000 0.000000 0.000000 0.000000 0.040315
#
#
# Mechanical properties :
#
#
# Convention : Reuss Voigt Hill
#
# Bulk Modulus (GPa) = 38.73938 48.30921 43.52430
# Shear Modulus (GPa) = 10.80814 18.03424 14.42119
#
# Velocity S-wave (km/s) = 2.67642 3.45723 3.09157
# Velocity P-wave (km/s) = 5.93515 6.92489 6.44903
#
# Compressibility (1/GPa) = 0.02581352
#
# Stress axis : x y z
#
# Youngs Moduli (GPa) = 95.55224 54.41255 33.88922
#
# Poissons Ratio (x) = 0.21465 0.17578
# Poissons Ratio (y) = 0.37695 0.24187
# Poissons Ratio (z) = 0.49562 0.38835
#
# Static dielectric constant tensor:
#      x y z
#    x 3.342170 0.000000 0.000000 
#    y 0.000000 2.921460 0.000000 
#    z 0.000000 0.000000 2.815300 
# 
# 
# High freq. dielectric constant tensor:
#      x y z
#    x 1.585840 0.000000 0.000000 
#    y 0.000000 1.557380 0.000000 
#    z 0.000000 0.000000 1.532190 
# 
# From -- ./inp_files/37201.got.cif
#   From: 2010.03.12/outbox.cif.g09.slc.cpg/sg69_19_cif.got.tgz:37201.got - 2010.04.10 23:52:46.
