data_PCOD8283715
_publ_section_title
;
Structure prediction by ZEFSAII (Michael W. Deem and Ramdas Pophale) SiO2 
 PCOD8283715
Probable space group: C C C A
;
_chemical_formula_sum "Si O2"
_cell_formula_units_Z 60
_cell_length_a 16.907292
_cell_length_b 9.857035
_cell_length_c 16.224797
_cell_angle_alpha 90.000000
_cell_angle_beta 90.000000
_cell_angle_gamma 90.000000
_cell_volume 2703.956021
_symmetry_space_group_name_H-M "C C C A"
_symmetry_group_IT_number 68
_space_group.IT_coordinate_system_code '2'
_symmetry_cell_setting 'orthorhombic'
loop_
_space_group_symop_operation_xyz
x,y,z
-x,1/2-y,z
x,1/2-y,1/2-z
-x,y,1/2-z
-x,-y,-z
x,1/2+y,-z
-x,1/2+y,1/2+z
x,-y,1/2+z
1/2+x,1/2+y,z
1/2-x,-y,z
1/2+x,-y,1/2-z
1/2-x,1/2+y,1/2-z
1/2-x,1/2-y,-z
1/2+x,y,-z
1/2-x,y,1/2+z
1/2+x,1/2-y,1/2+z
loop_
_atom_site_type_symbol
_atom_site_label
_atom_site_fract_x
_atom_site_fract_y
_atom_site_fract_z
Si Si1 0.877248 0.953149 0.329475
Si Si2 0.500000 0.250000 0.250000
Si Si3 0.195084 0.720796 0.075157
Si Si4 0.946582 0.621047 0.530534
Si Si5 0.750000 0.500000 0.302115
O O1 0.817802 0.866866 0.384884
O O2 0.830133 0.012928 0.251419
O O3 0.946991 0.849140 0.305383
O O4 0.907318 0.080453 0.382507
O O5 0.241982 0.631444 0.141161
O O6 0.250000 0.750000 0.000000
O O7 0.115373 0.649731 0.042736
O O8 0.000000 0.750000 0.549026
O O9 0.000000 0.500000 0.500000
#
# Coordination Sequence:
#
# PCOD8283715 Si02
#       5
#    16   4  16  16   8
#     4  12  25  46  73 110 151 205 253 320 394 459
#     4  12  24  48  74 100 164 198 244 320 412 444
#     4  12  25  47  75 105 152 198 257 321 379 457
#     4  12  26  48  78 110 152 203 261 311 387 470
#     4  12  26  44  74 112 152 196 258 324 382 460
#
# _framework density 22.189710999999999
#
# number of rings (size 3 to 8) (size 9 to 14) (size 15 to 20)
#    0.000    0.000    5.333    4.800    0.000    0.000 
#    0.000    3.333    0.000    0.000    0.000    0.000 
#    0.000    0.000    0.000    0.000    0.000    0.000 
#
# Total GULP energy -372156.461760 kJ/mol
# GULP energy per Si atom -12405.215392 kJ/mol
# Density = 2.213921 g / cm^3
# Si number density = 22.189711 Si / 1000 Ang^3
#
#
#
# Elastic Constant Matrix: (Units=GPa)
#
#
# Indices 1 2 3 4 5 6 
#
# 1 125.0879 71.1389 74.2940 0.0000 0.0000 0.0000
# 2 71.1389 157.4428 77.2465 0.0000 0.0000 0.0000
# 3 74.2940 77.2465 161.9633 0.0000 0.0000 0.0000
# 4 0.0000 0.0000 0.0000 44.5774 0.0000 0.0000
# 5 0.0000 0.0000 0.0000 0.0000 40.4341 0.0000
# 6 0.0000 0.0000 0.0000 0.0000 0.0000 35.0031
#
#
#
# Elastic Compliance Matrix: (Units=1/GPa)
#
#
# Indices 1 2 3 4 5 6 
#
# 1 0.012432 -0.003681 -0.003947 0.000000 0.000000 0.000000
# 2 -0.003681 0.009381 -0.002786 0.000000 0.000000 0.000000
# 3 -0.003947 -0.002786 0.009314 0.000000 0.000000 0.000000
# 4 0.000000 0.000000 0.000000 0.022433 0.000000 0.000000
# 5 0.000000 0.000000 0.000000 0.000000 0.024732 0.000000
# 6 0.000000 0.000000 0.000000 0.000000 0.000000 0.028569
#
#
# Mechanical properties :
#
#
# Convention : Reuss Voigt Hill
#
# Bulk Modulus (GPa) = 97.09398 98.87252 97.98325
# Shear Modulus (GPa) = 38.13259 38.79056 38.46157
#
# Velocity S-wave (km/s) = 4.14995 4.18560 4.16782
# Velocity P-wave (km/s) = 8.17399 8.24704 8.21059
#
# Compressibility (1/GPa) = 0.01029930
#
# Stress axis : x y z
#
# Youngs Moduli (GPa) = 80.43763 106.59279 107.36935
#
# Poissons Ratio (x) = 0.39233 0.42381
# Poissons Ratio (y) = 0.29606 0.29914
# Poissons Ratio (z) = 0.31751 0.29697
#
# Static dielectric constant tensor:
#      x y z
#    x 4.120540 0.000000 0.000000 
#    y 0.000000 3.043200 0.000000 
#    z 0.000000 0.000000 10.259260 
# 
# 
# High freq. dielectric constant tensor:
#      x y z
#    x 1.888590 0.000000 0.000000 
#    y 0.000000 1.879980 0.000000 
#    z 0.000000 0.000000 1.891890 
# 
# From -- ./inp_files/27716.got.cif
#   From: 2010.03.12/outbox.cif.g09.slc.cpg/sg68_14_cif.got.tgz:27716.got - 2010.04.10 23:14:56.
