data_PCOD8283639
_publ_section_title
;
Structure prediction by ZEFSAII (Michael W. Deem and Ramdas Pophale) SiO2 
 PCOD8283639
Probable space group: C C C A
;
_chemical_formula_sum "Si O2"
_cell_formula_units_Z 48
_cell_length_a 14.622601
_cell_length_b 15.004103
_cell_length_c 8.336562
_cell_angle_alpha 90.000000
_cell_angle_beta 90.000000
_cell_angle_gamma 90.000000
_cell_volume 1829.033462
_symmetry_space_group_name_H-M "C C C A"
_symmetry_group_IT_number 68
_space_group.IT_coordinate_system_code '2'
_symmetry_cell_setting 'orthorhombic'
loop_
_space_group_symop_operation_xyz
x,y,z
-x,1/2-y,z
x,1/2-y,1/2-z
-x,y,1/2-z
-x,-y,-z
x,1/2+y,-z
-x,1/2+y,1/2+z
x,-y,1/2+z
1/2+x,1/2+y,z
1/2-x,-y,z
1/2+x,-y,1/2-z
1/2-x,1/2+y,1/2-z
1/2-x,1/2-y,-z
1/2+x,y,-z
1/2-x,y,1/2+z
1/2+x,1/2-y,1/2+z
loop_
_atom_site_type_symbol
_atom_site_label
_atom_site_fract_x
_atom_site_fract_y
_atom_site_fract_z
Si Si1 0.865823 0.840524 0.851039
Si Si2 0.520701 0.145812 0.422368
Si Si3 0.285080 0.096664 0.955630
O O1 0.887514 0.750000 0.750000
O O2 0.811202 0.905717 0.731807
O O3 0.794974 0.830976 0.001239
O O4 0.957653 0.886491 0.926287
O O5 0.500000 0.250000 0.414745
O O6 0.500000 0.100786 0.250000
O O7 0.625240 0.124979 0.448993
O O8 0.250000 0.000000 0.006500
#
# Coordination Sequence:
#
# PCOD8283639 Si02
#       3
#    16  16  16
#     4  12  25  47  79 113 155 211 270 324 395 481
#     4  11  25  46  80 118 151 204 271 329 391 477
#     4  12  27  46  74 116 164 207 261 336 403 464
#
# _framework density 26.243366999999999
#
# number of rings (size 3 to 8) (size 9 to 14) (size 15 to 20)
#    0.000    0.333    3.333    5.000    4.667    1.333 
#    0.000    5.000    0.000    0.000    0.000    0.000 
#    0.000    0.000    0.000    0.000    0.000    0.000 
#
# Total GULP energy -297323.358059 kJ/mol
# GULP energy per Si atom -12388.473252 kJ/mol
# Density = 2.618364 g / cm^3
# Si number density = 26.243367 Si / 1000 Ang^3
#
#
#
# Elastic Constant Matrix: (Units=GPa)
#
#
# Indices 1 2 3 4 5 6 
#
# 1 143.9244 29.9957 19.8735 0.0000 0.0000 0.0000
# 2 29.9957 68.4480 10.9206 0.0000 0.0000 0.0000
# 3 19.8735 10.9206 134.9562 0.0000 0.0000 0.0000
# 4 0.0000 0.0000 0.0000 436.2840 0.0000 0.0000
# 5 0.0000 0.0000 0.0000 0.0000 88.5252 0.0000
# 6 0.0000 0.0000 0.0000 0.0000 0.0000 40.3493
#
#
#
# Elastic Compliance Matrix: (Units=1/GPa)
#
#
# Indices 1 2 3 4 5 6 
#
# 1 0.007748 -0.003255 -0.000878 0.000000 0.000000 0.000000
# 2 -0.003255 0.016168 -0.000829 0.000000 0.000000 0.000000
# 3 -0.000878 -0.000829 0.007606 0.000000 0.000000 0.000000
# 4 0.000000 0.000000 0.000000 0.002292 0.000000 0.000000
# 5 0.000000 0.000000 0.000000 0.000000 0.011296 0.000000
# 6 0.000000 0.000000 0.000000 0.000000 0.000000 0.024784
#
#
# Mechanical properties :
#
#
# Convention : Reuss Voigt Hill
#
# Bulk Modulus (GPa) = 46.29891 52.10092 49.19991
# Shear Modulus (GPa) = 57.45995 132.13428 94.79712
#
# Velocity S-wave (km/s) = 4.68429 7.10344 6.01670
# Velocity P-wave (km/s) = 6.85107 9.33673 8.18877
#
# Compressibility (1/GPa) = 0.02159878
#
# Stress axis : x y z
#
# Youngs Moduli (GPa) = 129.07066 61.84896 131.47321
#
# Poissons Ratio (x) = 0.20133 0.11537
# Poissons Ratio (y) = 0.42016 0.10899
# Poissons Ratio (z) = 0.11326 0.05127
#
# Static dielectric constant tensor:
#      x y z
#    x 5.125080 0.000000 0.000000 
#    y 0.000000 -2.074200 0.000000 
#    z 0.000000 0.000000 6.001590 
# 
# 
# High freq. dielectric constant tensor:
#      x y z
#    x 2.073030 0.000000 0.000000 
#    y 0.000000 2.011230 0.000000 
#    z 0.000000 0.000000 2.080660 
# 
# From -- ./inp_files/4427.got.cif
#   From: 2010.03.12/outbox.cif.g09.slc.cpg/sg68_3_cif.got.tgz:4427.got - 2010.04.10 23:14:56.
