data_PCOD8283314
_publ_section_title
;
Structure prediction by ZEFSAII (Michael W. Deem and Ramdas Pophale) SiO2 
 PCOD8283314
Probable space group: C C C A
;
_chemical_formula_sum "Si O2"
_cell_formula_units_Z 40
_cell_length_a 15.566827
_cell_length_b 9.551855
_cell_length_c 9.957423
_cell_angle_alpha 90.000000
_cell_angle_beta 90.000000
_cell_angle_gamma 90.000000
_cell_volume 1480.589881
_symmetry_space_group_name_H-M "C C C A"
_symmetry_group_IT_number 68
_space_group.IT_coordinate_system_code '2'
_symmetry_cell_setting 'orthorhombic'
loop_
_space_group_symop_operation_xyz
x,y,z
-x,1/2-y,z
x,1/2-y,1/2-z
-x,y,1/2-z
-x,-y,-z
x,1/2+y,-z
-x,1/2+y,1/2+z
x,-y,1/2+z
1/2+x,1/2+y,z
1/2-x,-y,z
1/2+x,-y,1/2-z
1/2-x,1/2+y,1/2-z
1/2-x,1/2-y,-z
1/2+x,y,-z
1/2-x,y,1/2+z
1/2+x,1/2-y,1/2+z
loop_
_atom_site_type_symbol
_atom_site_label
_atom_site_fract_x
_atom_site_fract_y
_atom_site_fract_z
Si Si1 0.272964 0.250000 0.250000
Si Si2 0.076783 0.359985 0.903909
Si Si3 0.890797 0.603232 0.797833
O O1 0.333777 0.223084 0.120816
O O2 0.213121 0.384553 0.215411
O O3 0.069900 0.482777 0.794562
O O4 0.000000 0.250000 0.885412
O O5 0.079409 0.430140 0.050526
O O6 0.932164 0.750000 0.750000
#
# Coordination Sequence:
#
# PCOD8283314 Si02
#       3
#     8  16  16
#     4  10  25  52  85 126 166 224 278 342 411 520
#     4  12  27  54  86 130 171 218 281 355 421 489
#     4  10  28  52  87 123 172 220 285 332 425 504
#
# _framework density 27.016257
#
# number of rings (size 3 to 8) (size 9 to 14) (size 15 to 20)
#    1.200    0.000    0.000    3.000    5.600    5.600 
#    7.200    2.000    0.000    0.000    0.000    0.000 
#    0.000    0.000    0.000    0.000    0.000    0.000 
#
# Total GULP energy -247901.278915 kJ/mol
# GULP energy per Si atom -12395.063946 kJ/mol
# Density = 2.695477 g / cm^3
# Si number density = 27.016257 Si / 1000 Ang^3
#
#
#
# Elastic Constant Matrix: (Units=GPa)
#
#
# Indices 1 2 3 4 5 6 
#
# 1 211.4132 76.7289 86.5240 0.0000 0.0000 0.0000
# 2 76.7289 184.7757 109.8739 0.0000 0.0000 0.0000
# 3 86.5240 109.8739 264.1421 0.0000 0.0000 0.0000
# 4 0.0000 0.0000 0.0000 64.6015 0.0000 0.0000
# 5 0.0000 0.0000 0.0000 0.0000 28.2855 0.0000
# 6 0.0000 0.0000 0.0000 0.0000 0.0000 21.4758
#
#
#
# Elastic Compliance Matrix: (Units=1/GPa)
#
#
# Indices 1 2 3 4 5 6 
#
# 1 0.005843 -0.001712 -0.001202 0.000000 0.000000 0.000000
# 2 -0.001712 0.007692 -0.002639 0.000000 0.000000 0.000000
# 3 -0.001202 -0.002639 0.005277 0.000000 0.000000 0.000000
# 4 0.000000 0.000000 0.000000 0.015480 0.000000 0.000000
# 5 0.000000 0.000000 0.000000 0.000000 0.035354 0.000000
# 6 0.000000 0.000000 0.000000 0.000000 0.000000 0.046564
#
#
# Mechanical properties :
#
#
# Convention : Reuss Voigt Hill
#
# Bulk Modulus (GPa) = 129.74812 134.06495 131.90654
# Shear Modulus (GPa) = 38.49588 48.68618 43.59103
#
# Velocity S-wave (km/s) = 3.77890 4.24973 4.02121
# Velocity P-wave (km/s) = 8.19575 8.59138 8.39590
#
# Compressibility (1/GPa) = 0.00770724
#
# Stress axis : x y z
#
# Youngs Moduli (GPa) = 171.13766 130.00677 189.49150
#
# Poissons Ratio (x) = 0.22253 0.22778
# Poissons Ratio (y) = 0.29293 0.50005
# Poissons Ratio (z) = 0.20572 0.34307
#
# Static dielectric constant tensor:
#      x y z
#    x 5.258480 0.000000 0.000000 
#    y 0.000000 4.917550 0.000000 
#    z 0.000000 0.000000 4.745680 
# 
# 
# High freq. dielectric constant tensor:
#      x y z
#    x 2.131730 0.000000 0.000000 
#    y 0.000000 2.090470 0.000000 
#    z 0.000000 0.000000 2.078430 
# 
# From -- ./inp_files/13720.got.cif
#   From: 2010.03.12/outbox.cif.g09.slc.cpg/sg68_7_cif.got.tgz:13720.got - 2010.04.10 23:14:56.
