data_PCOD8283891
_publ_section_title
;
Structure prediction by ZEFSAII (Michael W. Deem and Ramdas Pophale) SiO2 
 PCOD8283891
Probable space group: F M M M
;
_chemical_formula_sum "Si O2"
_cell_formula_units_Z 192
_cell_length_a 16.452800
_cell_length_b 28.486089
_cell_length_c 23.639645
_cell_angle_alpha 90.000000
_cell_angle_beta 90.000000
_cell_angle_gamma 90.000000
_cell_volume 11079.332489
_symmetry_space_group_name_H-M "F M M M"
_symmetry_group_IT_number 69
_symmetry_cell_setting 'orthorhombic'
loop_
_space_group_symop_operation_xyz
x,y,z
-x,-y,z
x,-y,-z
-x,y,-z
-x,-y,-z
x,y,-z
-x,y,z
x,-y,z
x,1/2+y,1/2+z
-x,1/2-y,1/2+z
x,1/2-y,1/2-z
-x,1/2+y,1/2-z
-x,1/2-y,1/2-z
x,1/2+y,1/2-z
-x,1/2+y,1/2+z
x,1/2-y,1/2+z
1/2+x,y,1/2+z
1/2-x,-y,1/2+z
1/2+x,-y,1/2-z
1/2-x,y,1/2-z
1/2-x,-y,1/2-z
1/2+x,y,1/2-z
1/2-x,y,1/2+z
1/2+x,-y,1/2+z
1/2+x,1/2+y,z
1/2-x,1/2-y,z
1/2+x,1/2-y,-z
1/2-x,1/2+y,-z
1/2-x,1/2-y,-z
1/2+x,1/2+y,-z
1/2-x,1/2+y,z
1/2+x,1/2-y,z
loop_
_atom_site_type_symbol
_atom_site_label
_atom_site_fract_x
_atom_site_fract_y
_atom_site_fract_z
Si Si1 0.211030 0.700115 0.875595
Si Si2 0.814082 0.638368 0.300047
Si Si3 0.404933 0.948353 0.854213
Si Si4 0.413554 0.200543 0.224295
Si Si5 0.594616 0.365686 0.435386
Si Si6 0.905526 0.446661 0.275731
O O1 0.250000 0.750000 0.894907
O O2 0.280846 0.662956 0.857192
O O3 0.156323 0.707392 0.820968
O O4 0.153097 0.679241 0.924737
O O5 0.750000 0.634604 0.250000
O O6 0.890055 0.667011 0.275851
O O7 0.849099 0.586520 0.314858
O O8 0.500000 0.952779 0.863932
O O9 0.371548 0.907806 0.895622
O O10 0.386228 0.933757 0.789789
O O11 0.366572 0.000000 0.867702
O O12 0.500000 0.181749 0.198279
O O13 0.431186 0.250000 0.250000
O O14 0.604439 0.381684 0.500000
O O15 0.500000 0.353238 0.422516
O O16 0.880401 0.500000 0.288375
O O17 0.000000 0.438982 0.289328
#
# Coordination Sequence:
#
# PCOD8283891 Si02
#       6
#    32  32  32  32  32  32
#     4  11  21  34  47  67  99 128 160 201 242 282
#     4  10  19  28  44  67  98 130 156 194 232 281
#     4   8  14  27  48  72  95 119 149 188 231 274
#     4  10  18  29  47  69  93 124 159 193 228 271
#     4  10  21  36  53  71  90 119 161 204 246 290
#     4   9  17  30  47  69 100 135 166 190 221 275
#
# _framework density 17.329564000000001
#
# number of rings (size 3 to 8) (size 9 to 14) (size 15 to 20)
#    0.000    2.333    1.667    4.000    0.000    2.333 
#    0.000    2.500    0.000    0.000    0.000    0.000 
#    0.000    0.000    0.000    1.833    0.000    0.000 
#
# Total GULP energy -594794.542681 kJ/mol
# GULP energy per Si atom -12391.552973 kJ/mol
# Density = 1.729012 g / cm^3
# Si number density = 17.329564 Si / 1000 Ang^3
#
#
#
# Elastic Constant Matrix: (Units=GPa)
#
#
# Indices 1 2 3 4 5 6 
#
# 1 65.8471 51.7186 17.3360 0.0000 0.0000 0.0000
# 2 51.7186 118.0215 26.5222 0.0000 0.0000 0.0000
# 3 17.3360 26.5222 34.0802 0.0000 0.0000 0.0000
# 4 0.0000 0.0000 0.0000 17.9916 0.0000 0.0000
# 5 0.0000 0.0000 0.0000 0.0000 -17.8841 0.0000
# 6 0.0000 0.0000 0.0000 0.0000 0.0000 34.4075
#
#
#
# Elastic Compliance Matrix: (Units=1/GPa)
#
#
# Indices 1 2 3 4 5 6 
#
# 1 0.023797 -0.009342 -0.004835 0.000000 0.000000 0.000000
# 2 -0.009342 0.013936 -0.006094 0.000000 0.000000 0.000000
# 3 -0.004835 -0.006094 0.036544 0.000000 0.000000 0.000000
# 4 0.000000 0.000000 0.000000 0.055582 0.000000 0.000000
# 5 0.000000 0.000000 0.000000 0.000000 -0.055916 0.000000
# 6 0.000000 0.000000 0.000000 0.000000 0.000000 0.029063
#
#
# Mechanical properties :
#
#
# Convention : Reuss Voigt Hill
#
# Bulk Modulus (GPa) = 29.64135 45.45581 37.54858
# Shear Modulus (GPa) = 32.30135 15.06113 23.68124
#
# Velocity S-wave (km/s) = 4.32203 2.95125 3.70066
# Velocity P-wave (km/s) = 6.48446 6.15632 6.32252
#
# Compressibility (1/GPa) = 0.03373666
#
# Stress axis : x y z
#
# Youngs Moduli (GPa) = 42.02233 71.75672 27.36409
#
# Poissons Ratio (x) = 0.67032 0.13231
# Poissons Ratio (y) = 0.39255 0.16674
# Poissons Ratio (z) = 0.20319 0.43725
#
# Static dielectric constant tensor:
#      x y z
#    x 3.368560 0.000000 0.000000 
#    y 0.000000 3.613100 0.000000 
#    z 0.000000 0.000000 2.674090 
# 
# 
# High freq. dielectric constant tensor:
#      x y z
#    x 1.665250 0.000000 0.000000 
#    y 0.000000 1.686050 0.000000 
#    z 0.000000 0.000000 1.608150 
# 
# From -- ./inp_files/45961.got.cif
#   From: 2010.03.12/outbox.cif.g09.slc.cpg/sg69_23_cif.got.tgz:45961.got - 2010.04.10 23:52:46.
