data_PCOD8283948
_publ_section_title
;
Structure prediction by ZEFSAII (Michael W. Deem and Ramdas Pophale) SiO2 
 PCOD8283948
Probable space group: F M M M
;
_chemical_formula_sum "Si O2"
_cell_formula_units_Z 120
_cell_length_a 17.904688
_cell_length_b 24.791793
_cell_length_c 15.333628
_cell_angle_alpha 90.000000
_cell_angle_beta 90.000000
_cell_angle_gamma 90.000000
_cell_volume 6806.433685
_symmetry_space_group_name_H-M "F M M M"
_symmetry_group_IT_number 69
_symmetry_cell_setting 'orthorhombic'
loop_
_space_group_symop_operation_xyz
x,y,z
-x,-y,z
x,-y,-z
-x,y,-z
-x,-y,-z
x,y,-z
-x,y,z
x,-y,z
x,1/2+y,1/2+z
-x,1/2-y,1/2+z
x,1/2-y,1/2-z
-x,1/2+y,1/2-z
-x,1/2-y,1/2-z
x,1/2+y,1/2-z
-x,1/2+y,1/2+z
x,1/2-y,1/2+z
1/2+x,y,1/2+z
1/2-x,-y,1/2+z
1/2+x,-y,1/2-z
1/2-x,y,1/2-z
1/2-x,-y,1/2-z
1/2+x,y,1/2-z
1/2-x,y,1/2+z
1/2+x,-y,1/2+z
1/2+x,1/2+y,z
1/2-x,1/2-y,z
1/2+x,1/2-y,-z
1/2-x,1/2+y,-z
1/2-x,1/2-y,-z
1/2+x,1/2+y,-z
1/2-x,1/2+y,z
1/2+x,1/2-y,z
loop_
_atom_site_type_symbol
_atom_site_label
_atom_site_fract_x
_atom_site_fract_y
_atom_site_fract_z
Si Si1 0.690958 0.500000 0.325600
Si Si2 0.717582 0.000000 0.500000
Si Si3 0.085509 0.784169 0.336749
Si Si4 0.688838 0.616392 0.324974
Si Si5 0.335215 0.231220 0.500000
Si Si6 0.717410 0.616904 0.000000
O O1 0.750000 0.500000 0.250000
O O2 0.730239 0.500000 0.417590
O O3 0.647838 0.557224 0.316979
O O4 0.673673 0.058062 0.500000
O O5 0.093609 0.750000 0.250000
O O6 0.122621 0.841427 0.317602
O O7 0.125261 0.752794 0.414257
O O8 0.000000 0.794052 0.362733
O O9 0.750000 0.626012 0.250000
O O10 0.729754 0.622727 0.416745
O O11 0.250000 0.250000 0.500000
O O12 0.341705 0.165865 0.500000
#
# Coordination Sequence:
#
# PCOD8283948 Si02
#       6
#    16   8  32  32  16  16
#     4   8  16  28  47  75 100 131 168 220 260 290
#     4   8  16  28  44  70 110 122 158 220 264 294
#     4  11  24  37  51  77 112 143 171 217 273 319
#     4  10  18  32  53  75 104 135 178 217 255 312
#     4  12  21  34  57  82 103 138 184 218 256 311
#     4  10  18  30  50  80  98 133 172 217 258 296
#
# _framework density 17.630378
#
# number of rings (size 3 to 8) (size 9 to 14) (size 15 to 20)
#    0.000    1.867    2.667    2.000    0.000    0.000 
#    0.000    0.667    0.000    0.000    0.000   11.200 
#    0.000    0.000    0.000    3.733    0.000    0.000 
#
# Total GULP energy -371647.849192 kJ/mol
# GULP energy per Si atom -12388.261640 kJ/mol
# Density = 1.759025 g / cm^3
# Si number density = 17.630378 Si / 1000 Ang^3
#
#
#
# Elastic Constant Matrix: (Units=GPa)
#
#
# Indices 1 2 3 4 5 6 
#
# 1 97.3254 75.9519 51.2300 0.0000 0.0000 0.0000
# 2 75.9519 205.7001 29.3615 0.0000 0.0000 0.0000
# 3 51.2300 29.3615 111.7259 0.0000 0.0000 0.0000
# 4 0.0000 0.0000 0.0000 24.2560 0.0000 0.0000
# 5 0.0000 0.0000 0.0000 0.0000 23.2183 0.0000
# 6 0.0000 0.0000 0.0000 0.0000 0.0000 6.6335
#
#
#
# Elastic Compliance Matrix: (Units=1/GPa)
#
#
# Indices 1 2 3 4 5 6 
#
# 1 0.018480 -0.005833 -0.006941 0.000000 0.000000 0.000000
# 2 -0.005833 0.006892 0.000863 0.000000 0.000000 0.000000
# 3 -0.006941 0.000863 0.011906 0.000000 0.000000 0.000000
# 4 0.000000 0.000000 0.000000 0.041227 0.000000 0.000000
# 5 0.000000 0.000000 0.000000 0.000000 0.043070 0.000000
# 6 0.000000 0.000000 0.000000 0.000000 0.000000 0.150750
#
#
# Mechanical properties :
#
#
# Convention : Reuss Voigt Hill
#
# Bulk Modulus (GPa) = 74.30763 80.87091 77.58927
# Shear Modulus (GPa) = 16.63168 28.03542 22.33355
#
# Velocity S-wave (km/s) = 3.07474 3.99203 3.56303
# Velocity P-wave (km/s) = 7.40570 8.19867 7.81225
#
# Compressibility (1/GPa) = 0.01345757
#
# Stress axis : x y z
#
# Youngs Moduli (GPa) = 54.11177 145.09776 83.98960
#
# Poissons Ratio (x) = 0.84633 0.58297
# Poissons Ratio (y) = 0.31563 -0.07251
# Poissons Ratio (z) = 0.37559 -0.12527
#
# Static dielectric constant tensor:
#      x y z
#    x 2.893330 0.000000 0.000000 
#    y 0.000000 4.299940 0.000000 
#    z 0.000000 0.000000 3.483910 
# 
# 
# High freq. dielectric constant tensor:
#      x y z
#    x 1.619330 0.000000 0.000000 
#    y 0.000000 1.716440 0.000000 
#    z 0.000000 0.000000 1.712790 
# 
# From -- ./inp_files/16499.got.cif
#   From: 2010.03.12/outbox.cif.g09.slc.cpg/sg69_9_cif.got.tgz:16499.got - 2010.04.10 23:52:46.
