data_PCOD8283352
_publ_section_title
;
Structure prediction by ZEFSAII (Michael W. Deem and Ramdas Pophale) SiO2 
 PCOD8283352
Probable space group: C C C A
;
_chemical_formula_sum "Si O2"
_cell_formula_units_Z 96
_cell_length_a 22.240102
_cell_length_b 15.173806
_cell_length_c 14.246254
_cell_angle_alpha 90.000000
_cell_angle_beta 90.000000
_cell_angle_gamma 90.000000
_cell_volume 4807.640501
_symmetry_space_group_name_H-M "C C C A"
_symmetry_group_IT_number 68
_space_group.IT_coordinate_system_code '2'
_symmetry_cell_setting 'orthorhombic'
loop_
_space_group_symop_operation_xyz
x,y,z
-x,1/2-y,z
x,1/2-y,1/2-z
-x,y,1/2-z
-x,-y,-z
x,1/2+y,-z
-x,1/2+y,1/2+z
x,-y,1/2+z
1/2+x,1/2+y,z
1/2-x,-y,z
1/2+x,-y,1/2-z
1/2-x,1/2+y,1/2-z
1/2-x,1/2-y,-z
1/2+x,y,-z
1/2-x,y,1/2+z
1/2+x,1/2-y,1/2+z
loop_
_atom_site_type_symbol
_atom_site_label
_atom_site_fract_x
_atom_site_fract_y
_atom_site_fract_z
Si Si1 0.428698 0.491075 0.774347
Si Si2 0.990622 0.342418 0.513473
Si Si3 0.100208 0.319124 0.831699
Si Si4 0.820316 0.736176 0.998220
Si Si5 0.389591 0.413123 0.969507
Si Si6 0.118345 0.575722 0.584862
O O1 0.500000 0.497540 0.750000
O O2 0.395401 0.584057 0.787842
O O3 0.417491 0.434508 0.867918
O O4 0.389639 0.445221 0.693516
O O5 0.962213 0.315404 0.612736
O O6 0.947649 0.406155 0.456198
O O7 0.000000 0.250000 0.456790
O O8 0.053436 0.389646 0.535511
O O9 0.099866 0.250000 0.750000
O O10 0.155732 0.295793 0.900531
O O11 0.846943 0.828818 0.963314
O O12 0.837713 0.659639 0.923975
O O13 0.750000 0.750000 0.000000
O O14 0.355934 0.494057 0.021999
#
# Coordination Sequence:
#
# PCOD8283352 Si02
#       6
#    16  16  16  16  16  16
#     4  12  24  35  69 108 138 174 209 269 350 430
#     4  11  20  38  64  96 137 174 206 269 336 415
#     4  11  24  40  65 103 134 171 229 274 337 401
#     4  11  26  49  70  87 129 187 235 287 333 387
#     4  12  22  43  66  97 141 175 221 275 338 418
#     4  11  23  42  65 100 134 173 223 272 348 401
#
# _framework density 19.968215000000001
#
# number of rings (size 3 to 8) (size 9 to 14) (size 15 to 20)
#    0.000    0.667    8.333    2.500    2.333    1.333 
#    3.000    1.667    0.000    0.000    0.000    0.000 
#    0.000    0.000    0.000    0.000    0.000    0.000 
#
# Total GULP energy -595047.107927 kJ/mol
# GULP energy per Si atom -12396.814748 kJ/mol
# Density = 1.992277 g / cm^3
# Si number density = 19.968215 Si / 1000 Ang^3
#
#
#
# Elastic Constant Matrix: (Units=GPa)
#
#
# Indices 1 2 3 4 5 6 
#
# 1 121.8083 60.9453 46.3557 0.0000 0.0000 0.0000
# 2 60.9453 164.1186 52.4967 0.0000 0.0000 0.0000
# 3 46.3557 52.4967 129.8956 0.0000 0.0000 0.0000
# 4 0.0000 0.0000 0.0000 39.8943 0.0000 0.0000
# 5 0.0000 0.0000 0.0000 0.0000 13.7721 0.0000
# 6 0.0000 0.0000 0.0000 0.0000 0.0000 15.0700
#
#
#
# Elastic Compliance Matrix: (Units=1/GPa)
#
#
# Indices 1 2 3 4 5 6 
#
# 1 0.010776 -0.003183 -0.002559 0.000000 0.000000 0.000000
# 2 -0.003183 0.007938 -0.002072 0.000000 0.000000 0.000000
# 3 -0.002559 -0.002072 0.009449 0.000000 0.000000 0.000000
# 4 0.000000 0.000000 0.000000 0.025066 0.000000 0.000000
# 5 0.000000 0.000000 0.000000 0.000000 0.072611 0.000000
# 6 0.000000 0.000000 0.000000 0.000000 0.000000 0.066357
#
#
# Mechanical properties :
#
#
# Convention : Reuss Voigt Hill
#
# Bulk Modulus (GPa) = 79.78016 81.71310 80.74663
# Shear Modulus (GPa) = 23.58436 30.81558 27.19997
#
# Velocity S-wave (km/s) = 3.44043 3.93266 3.69475
# Velocity P-wave (km/s) = 7.47144 7.85057 7.66335
#
# Compressibility (1/GPa) = 0.01253444
#
# Stress axis : x y z
#
# Youngs Moduli (GPa) = 92.79701 125.97592 105.82833
#
# Poissons Ratio (x) = 0.40099 0.27084
# Poissons Ratio (y) = 0.29538 0.21929
# Poissons Ratio (z) = 0.23749 0.26104
#
# Static dielectric constant tensor:
#      x y z
#    x 3.328650 0.000000 0.000000 
#    y 0.000000 4.142150 0.000000 
#    z 0.000000 0.000000 3.692540 
# 
# 
# High freq. dielectric constant tensor:
#      x y z
#    x 1.743880 0.000000 0.000000 
#    y 0.000000 1.810630 0.000000 
#    z 0.000000 0.000000 1.775560 
# 
# From -- ./inp_files/22376.got.cif
#   From: 2010.03.12/outbox.cif.g09.slc.cpg/sg68_12_cif.got.tgz:22376.got - 2010.04.10 23:14:56.
