data_PCOD8283275
_publ_section_title
;
Structure prediction by ZEFSAII (Michael W. Deem and Ramdas Pophale) SiO2 
 PCOD8283275
Probable space group: C C C A
;
_chemical_formula_sum "Si O2"
_cell_formula_units_Z 88
_cell_length_a 24.288014
_cell_length_b 13.034326
_cell_length_c 13.085680
_cell_angle_alpha 90.000000
_cell_angle_beta 90.000000
_cell_angle_gamma 90.000000
_cell_volume 4142.636995
_symmetry_space_group_name_H-M "C C C A"
_symmetry_group_IT_number 68
_space_group.IT_coordinate_system_code '2'
_symmetry_cell_setting 'orthorhombic'
loop_
_space_group_symop_operation_xyz
x,y,z
-x,1/2-y,z
x,1/2-y,1/2-z
-x,y,1/2-z
-x,-y,-z
x,1/2+y,-z
-x,1/2+y,1/2+z
x,-y,1/2+z
1/2+x,1/2+y,z
1/2-x,-y,z
1/2+x,-y,1/2-z
1/2-x,1/2+y,1/2-z
1/2-x,1/2-y,-z
1/2+x,y,-z
1/2-x,y,1/2+z
1/2+x,1/2-y,1/2+z
loop_
_atom_site_type_symbol
_atom_site_label
_atom_site_fract_x
_atom_site_fract_y
_atom_site_fract_z
Si Si1 0.082514 0.526594 0.472547
Si Si2 0.859959 0.803334 0.351339
Si Si3 0.999343 0.372324 0.371911
Si Si4 0.767076 0.343893 0.183376
Si Si5 0.250000 0.000000 0.328617
Si Si6 0.324892 0.619373 0.525291
O O1 0.096352 0.610908 0.386393
O O2 0.051405 0.430206 0.421395
O O3 0.139740 0.482782 0.513471
O O4 0.052911 0.577412 0.570692
O O5 0.884088 0.750000 0.250000
O O6 0.799157 0.848595 0.331102
O O7 0.859699 0.715974 0.437720
O O8 0.000000 0.250000 0.393750
O O9 0.000000 0.393173 0.250000
O O10 0.787408 0.250000 0.250000
O O11 0.789712 0.440071 0.249327
O O12 0.795422 0.342539 0.075376
O O13 0.278653 0.089358 0.392825
#
# Coordination Sequence:
#
# PCOD8283275 Si02
#       6
#    16  16  16  16   8  16
#     4  11  25  43  71 100 130 171 224 279 347 412
#     4  11  23  43  65 101 141 177 233 279 330 409
#     4  10  24  49  72  96 131 166 214 284 356 419
#     4  11  24  42  61  95 141 187 224 274 330 395
#     4  12  22  40  62  90 136 182 226 270 332 390
#     4  12  25  39  66  96 135 179 228 278 332 407
#
# _framework density 21.242508999999998
#
# number of rings (size 3 to 8) (size 9 to 14) (size 15 to 20)
#    0.000    0.909    3.636    4.364    5.091    0.000 
#    3.273    0.000    0.000    0.000    0.000    0.000 
#    0.000    0.000    0.000    0.000    0.000    0.000 
#
# Total GULP energy -545377.529823 kJ/mol
# GULP energy per Si atom -12394.943860 kJ/mol
# Density = 2.119416 g / cm^3
# Si number density = 21.242509 Si / 1000 Ang^3
#
#
#
# Elastic Constant Matrix: (Units=GPa)
#
#
# Indices 1 2 3 4 5 6 
#
# 1 46.0980 29.3591 32.5589 0.0000 0.0000 0.0000
# 2 29.3591 148.0805 76.8026 0.0000 0.0000 0.0000
# 3 32.5589 76.8026 166.7685 0.0000 0.0000 0.0000
# 4 0.0000 0.0000 0.0000 47.1267 0.0000 0.0000
# 5 0.0000 0.0000 0.0000 0.0000 33.3890 0.0000
# 6 0.0000 0.0000 0.0000 0.0000 0.0000 36.8961
#
#
#
# Elastic Compliance Matrix: (Units=1/GPa)
#
#
# Indices 1 2 3 4 5 6 
#
# 1 0.026378 -0.003362 -0.003602 0.000000 0.000000 0.000000
# 2 -0.003362 0.009301 -0.003627 0.000000 0.000000 0.000000
# 3 -0.003602 -0.003627 0.008370 0.000000 0.000000 0.000000
# 4 0.000000 0.000000 0.000000 0.021219 0.000000 0.000000
# 5 0.000000 0.000000 0.000000 0.000000 0.029950 0.000000
# 6 0.000000 0.000000 0.000000 0.000000 0.000000 0.027103
#
#
# Mechanical properties :
#
#
# Convention : Reuss Voigt Hill
#
# Bulk Modulus (GPa) = 43.72996 70.93203 57.33100
# Shear Modulus (GPa) = 33.08536 38.29745 35.69141
#
# Velocity S-wave (km/s) = 3.95081 4.25063 4.10346
# Velocity P-wave (km/s) = 6.43759 7.58647 7.03552
#
# Compressibility (1/GPa) = 0.02286762
#
# Stress axis : x y z
#
# Youngs Moduli (GPa) = 37.91065 107.51821 119.47642
#
# Poissons Ratio (x) = 0.36145 0.43031
# Poissons Ratio (y) = 0.12745 0.43334
# Poissons Ratio (z) = 0.13654 0.38997
#
# Static dielectric constant tensor:
#      x y z
#    x 3.618610 0.000000 0.000000 
#    y 0.000000 4.625130 0.000000 
#    z 0.000000 0.000000 4.054750 
# 
# 
# High freq. dielectric constant tensor:
#      x y z
#    x 1.798350 0.000000 0.000000 
#    y 0.000000 1.861060 0.000000 
#    z 0.000000 0.000000 1.856170 
# 
# From -- ./inp_files/16350.got.cif
#   From: 2010.03.12/outbox.cif.g09.slc.cpg/sg68_9_cif.got.tgz:16350.got - 2010.04.10 23:14:56.
