data_PCOD8283147
_publ_section_title
;
Structure prediction by ZEFSAII (Michael W. Deem and Ramdas Pophale) SiO2 
 PCOD8283147
Probable space group: C C C A
;
_chemical_formula_sum "Si O2"
_cell_formula_units_Z 112
_cell_length_a 25.104623
_cell_length_b 16.798033
_cell_length_c 13.878479
_cell_angle_alpha 90.000000
_cell_angle_beta 90.000000
_cell_angle_gamma 90.000000
_cell_volume 5852.669586
_symmetry_space_group_name_H-M "C C C A"
_symmetry_group_IT_number 68
_space_group.IT_coordinate_system_code '2'
_symmetry_cell_setting 'orthorhombic'
loop_
_space_group_symop_operation_xyz
x,y,z
-x,1/2-y,z
x,1/2-y,1/2-z
-x,y,1/2-z
-x,-y,-z
x,1/2+y,-z
-x,1/2+y,1/2+z
x,-y,1/2+z
1/2+x,1/2+y,z
1/2-x,-y,z
1/2+x,-y,1/2-z
1/2-x,1/2+y,1/2-z
1/2-x,1/2-y,-z
1/2+x,y,-z
1/2-x,y,1/2+z
1/2+x,1/2-y,1/2+z
loop_
_atom_site_type_symbol
_atom_site_label
_atom_site_fract_x
_atom_site_fract_y
_atom_site_fract_z
Si Si1 0.881267 0.214770 0.849249
Si Si2 0.700544 0.842647 0.249388
Si Si3 0.635259 0.955698 0.373101
Si Si4 0.061545 0.072725 0.735420
Si Si5 0.623077 0.380244 0.419190
Si Si6 0.289186 0.601926 0.886308
Si Si7 0.742603 0.409144 0.414200
O O1 0.857308 0.250000 0.750000
O O2 0.930735 0.157337 0.819907
O O3 0.897979 0.288177 0.919340
O O4 0.837275 0.162854 0.903706
O O5 0.689947 0.750000 0.250000
O O6 0.650449 0.884263 0.300842
O O7 0.756821 0.872232 0.292690
O O8 0.708343 0.864236 0.137426
O O9 0.617403 0.921528 0.476884
O O10 0.585142 0.002164 0.329754
O O11 0.687264 0.012568 0.380493
O O12 0.090084 0.070684 0.839627
O O13 0.000000 0.055646 0.750000
O O14 0.684285 0.378941 0.383887
O O15 0.247583 0.608027 0.972862
O O16 0.750000 0.500000 0.386393
#
# Coordination Sequence:
#
# PCOD8283147 Si02
#       7
#    16  16  16  16  16  16  16
#     4   9  20  36  59  91 125 155 202 264 305 357
#     4  12  24  35  55  86 127 171 209 247 303 366
#     4  11  23  40  60  91 127 161 210 259 306 377
#     4  10  23  44  69  90 116 160 215 270 326 376
#     4  11  21  37  61  92 127 158 204 262 311 361
#     4  11  20  37  57  86 125 170 207 235 287 369
#     4  12  21  34  57  84 123 174 201 239 286 365
#
# _framework density 19.136565000000001
#
# number of rings (size 3 to 8) (size 9 to 14) (size 15 to 20)
#    0.000    1.143    2.857    6.000    2.000    4.286 
#    0.000    0.000    0.000    2.143    0.000    0.000 
#    0.000    0.000    0.000    0.000    0.000    0.000 
#
# Total GULP energy -694349.168055 kJ/mol
# GULP energy per Si atom -12399.092287 kJ/mol
# Density = 1.909301 g / cm^3
# Si number density = 19.136565 Si / 1000 Ang^3
#
#
#
# Elastic Constant Matrix: (Units=GPa)
#
#
# Indices 1 2 3 4 5 6 
#
# 1 95.9868 36.4301 44.5661 0.0000 0.0000 0.0000
# 2 36.4301 138.5499 58.4140 0.0000 0.0000 0.0000
# 3 44.5661 58.4140 80.3004 0.0000 0.0000 0.0000
# 4 0.0000 0.0000 0.0000 31.2475 0.0000 0.0000
# 5 0.0000 0.0000 0.0000 0.0000 25.2759 0.0000
# 6 0.0000 0.0000 0.0000 0.0000 0.0000 14.4897
#
#
#
# Elastic Compliance Matrix: (Units=1/GPa)
#
#
# Indices 1 2 3 4 5 6 
#
# 1 0.014068 -0.000587 -0.007380 0.000000 0.000000 0.000000
# 2 -0.000587 0.010435 -0.007265 0.000000 0.000000 0.000000
# 3 -0.007380 -0.007265 0.021834 0.000000 0.000000 0.000000
# 4 0.000000 0.000000 0.000000 0.032003 0.000000 0.000000
# 5 0.000000 0.000000 0.000000 0.000000 0.039563 0.000000
# 6 0.000000 0.000000 0.000000 0.000000 0.000000 0.069014
#
#
# Mechanical properties :
#
#
# Convention : Reuss Voigt Hill
#
# Bulk Modulus (GPa) = 63.00496 65.96194 64.48345
# Shear Modulus (GPa) = 22.45453 25.89775 24.17614
#
# Velocity S-wave (km/s) = 3.42918 3.68273 3.55822
# Velocity P-wave (km/s) = 6.97670 7.25446 7.11694
#
# Compressibility (1/GPa) = 0.01587177
#
# Stress axis : x y z
#
# Youngs Moduli (GPa) = 71.08544 95.83125 45.80020
#
# Poissons Ratio (x) = 0.05629 0.33801
# Poissons Ratio (y) = 0.04175 0.33273
# Poissons Ratio (z) = 0.52462 0.69620
#
# Static dielectric constant tensor:
#      x y z
#    x 3.117730 0.000000 0.000000 
#    y 0.000000 3.690230 0.000000 
#    z 0.000000 0.000000 3.483870 
# 
# 
# High freq. dielectric constant tensor:
#      x y z
#    x 1.705410 0.000000 0.000000 
#    y 0.000000 1.756270 0.000000 
#    z 0.000000 0.000000 1.747890 
# 
# From -- ./inp_files/25469.got.cif
#   From: 2010.03.12/outbox.cif.g09.slc.cpg/sg68_13_cif.got.tgz:25469.got - 2010.04.10 23:14:56.
