data_PCOD8283271
_publ_section_title
;
Structure prediction by ZEFSAII (Michael W. Deem and Ramdas Pophale) SiO2 
 PCOD8283271
Probable space group: C C C A
;
_chemical_formula_sum "Si O2"
_cell_formula_units_Z 104
_cell_length_a 27.503804
_cell_length_b 19.390911
_cell_length_c 9.227140
_cell_angle_alpha 90.000000
_cell_angle_beta 90.000000
_cell_angle_gamma 90.000000
_cell_volume 4921.053511
_symmetry_space_group_name_H-M "C C C A"
_symmetry_group_IT_number 68
_space_group.IT_coordinate_system_code '2'
_symmetry_cell_setting 'orthorhombic'
loop_
_space_group_symop_operation_xyz
x,y,z
-x,1/2-y,z
x,1/2-y,1/2-z
-x,y,1/2-z
-x,-y,-z
x,1/2+y,-z
-x,1/2+y,1/2+z
x,-y,1/2+z
1/2+x,1/2+y,z
1/2-x,-y,z
1/2+x,-y,1/2-z
1/2-x,1/2+y,1/2-z
1/2-x,1/2-y,-z
1/2+x,y,-z
1/2-x,y,1/2+z
1/2+x,1/2-y,1/2+z
loop_
_atom_site_type_symbol
_atom_site_label
_atom_site_fract_x
_atom_site_fract_y
_atom_site_fract_z
Si Si1 0.750000 0.000000 0.578056
Si Si2 0.876650 0.319034 0.674008
Si Si3 0.185069 0.551531 0.328474
Si Si4 0.597513 0.442305 0.673727
Si Si5 0.500000 0.022858 0.250000
Si Si6 0.000000 0.750000 0.570117
Si Si7 0.945888 0.370352 0.912226
Si Si8 0.405396 0.190499 0.848166
O O1 0.783919 0.045403 0.681977
O O2 0.717005 0.046424 0.473463
O O3 0.858108 0.250000 0.750000
O O4 0.832148 0.370681 0.670942
O O5 0.921663 0.353874 0.757749
O O6 0.891760 0.298989 0.513313
O O7 0.140835 0.496995 0.331481
O O8 0.546147 0.477132 0.708363
O O9 0.594204 0.401811 0.521493
O O10 0.609313 0.385934 0.797279
O O11 0.512864 0.071768 0.113092
O O12 0.967556 0.700326 0.471198
O O13 0.964029 0.798163 0.666563
O O14 0.379626 0.250000 0.750000
#
# Coordination Sequence:
#
# PCOD8283271 Si02
#       8
#     8  16  16  16   8   8  16  16
#     4  10  24  48  78 104 132 168 220 298 362 426
#     4  12  24  44  68  99 135 178 232 283 339 414
#     4  11  24  46  76 106 134 173 228 285 362 417
#     4  12  25  42  67  99 145 183 234 286 340 409
#     4  12  26  37  61 104 142 186 236 284 330 396
#     4  12  23  41  60  86 144 200 250 274 326 390
#     4  12  25  40  61  94 140 195 239 279 326 394
#     4  12  25  41  60  91 136 194 237 282 328 394
#
# _framework density 21.133686999999998
#
# number of rings (size 3 to 8) (size 9 to 14) (size 15 to 20)
#    0.000    0.308    4.615    4.385    2.154    0.615 
#    0.000    0.769    0.000    3.692    0.000    0.000 
#    0.000    0.000    0.000    0.000    0.000    0.000 
#
# Total GULP energy -644889.587153 kJ/mol
# GULP energy per Si atom -12401.722830 kJ/mol
# Density = 2.108559 g / cm^3
# Si number density = 21.133687 Si / 1000 Ang^3
#
#
#
# Elastic Constant Matrix: (Units=GPa)
#
#
# Indices 1 2 3 4 5 6 
#
# 1 106.9250 60.2984 48.8764 0.0000 0.0000 0.0000
# 2 60.2984 148.7257 59.0658 0.0000 0.0000 0.0000
# 3 48.8764 59.0658 153.8659 0.0000 0.0000 0.0000
# 4 0.0000 0.0000 0.0000 11.5804 0.0000 0.0000
# 5 0.0000 0.0000 0.0000 0.0000 -9.5335 0.0000
# 6 0.0000 0.0000 0.0000 0.0000 0.0000 23.7726
#
#
#
# Elastic Compliance Matrix: (Units=1/GPa)
#
#
# Indices 1 2 3 4 5 6 
#
# 1 0.012868 -0.004240 -0.002460 0.000000 0.000000 0.000000
# 2 -0.004240 0.009330 -0.002235 0.000000 0.000000 0.000000
# 3 -0.002460 -0.002235 0.008138 0.000000 0.000000 0.000000
# 4 0.000000 0.000000 0.000000 0.086352 0.000000 0.000000
# 5 0.000000 0.000000 0.000000 0.000000 -0.104893 0.000000
# 6 0.000000 0.000000 0.000000 0.000000 0.000000 0.042065
#
#
# Mechanical properties :
#
#
# Convention : Reuss Voigt Hill
#
# Bulk Modulus (GPa) = 80.21112 82.88865 81.54989
# Shear Modulus (GPa) = 65.88737 21.24897 43.56817
#
# Velocity S-wave (km/s) = 5.58965 3.17433 4.54536
# Velocity P-wave (km/s) = 8.92723 7.26233 8.13747
#
# Compressibility (1/GPa) = 0.01246710
#
# Stress axis : x y z
#
# Youngs Moduli (GPa) = 77.71250 107.17590 122.87331
#
# Poissons Ratio (x) = 0.45444 0.30225
# Poissons Ratio (y) = 0.32951 0.27460
# Poissons Ratio (z) = 0.19116 0.23952
#
# Static dielectric constant tensor:
#      x y z
#    x 3.854310 0.000000 0.000000 
#    y 0.000000 4.006300 0.000000 
#    z 0.000000 0.000000 4.122350 
# 
# 
# High freq. dielectric constant tensor:
#      x y z
#    x 1.800680 0.000000 0.000000 
#    y 0.000000 1.841120 0.000000 
#    z 0.000000 0.000000 1.853940 
# 
# From -- ./inp_files/9627.got.cif
#   From: 2010.03.12/outbox.cif.g09.slc.cpg/sg68_5_cif.got.tgz:9627.got - 2010.04.10 23:14:56.
