data_PCOD8283547
_publ_section_title
;
Structure prediction by ZEFSAII (Michael W. Deem and Ramdas Pophale) SiO2 
 PCOD8283547
Probable space group: C C C A
;
_chemical_formula_sum "Si O2"
_cell_formula_units_Z 68
_cell_length_a 17.864859
_cell_length_b 16.356152
_cell_length_c 10.409060
_cell_angle_alpha 90.000000
_cell_angle_beta 90.000000
_cell_angle_gamma 90.000000
_cell_volume 3041.530967
_symmetry_space_group_name_H-M "C C C A"
_symmetry_group_IT_number 68
_space_group.IT_coordinate_system_code '2'
_symmetry_cell_setting 'orthorhombic'
loop_
_space_group_symop_operation_xyz
x,y,z
-x,1/2-y,z
x,1/2-y,1/2-z
-x,y,1/2-z
-x,-y,-z
x,1/2+y,-z
-x,1/2+y,1/2+z
x,-y,1/2+z
1/2+x,1/2+y,z
1/2-x,-y,z
1/2+x,-y,1/2-z
1/2-x,1/2+y,1/2-z
1/2-x,1/2-y,-z
1/2+x,y,-z
1/2-x,y,1/2+z
1/2+x,1/2-y,1/2+z
loop_
_atom_site_type_symbol
_atom_site_label
_atom_site_fract_x
_atom_site_fract_y
_atom_site_fract_z
Si Si1 0.786626 0.833860 0.538672
Si Si2 0.443275 0.626796 0.956451
Si Si3 0.000000 0.250000 0.750000
Si Si4 0.442352 0.946307 0.137055
Si Si5 0.221487 0.413608 0.296106
O O1 0.750000 0.750000 0.500000
O O2 0.877109 0.834746 0.542982
O O3 0.755407 0.852878 0.680730
O O4 0.762368 0.898042 0.430182
O O5 0.450860 0.689000 0.837327
O O6 0.420255 0.534561 0.919235
O O7 0.521061 0.617430 0.035170
O O8 0.500000 0.963196 0.250000
O O9 0.367420 0.905240 0.188010
O O10 0.250000 0.500000 0.244882
#
# Coordination Sequence:
#
# PCOD8283547 Si02
#       5
#    16  16   4  16  16
#     4  12  28  46  69 108 149 190 235 303 373 429
#     4  11  26  44  74 104 144 189 234 302 366 432
#     4  12  28  44  66 112 140 178 230 302 372 424
#     4  11  23  48  73 106 138 188 250 294 353 438
#     4  12  26  46  76 106 142 192 248 301 357 440
#
# _framework density 22.357161000000001
#
# number of rings (size 3 to 8) (size 9 to 14) (size 15 to 20)
#    0.000    0.471    5.882    1.412    6.588    0.000 
#    0.000    0.588    0.000    0.000    0.000    0.000 
#    0.000    0.000    0.000    0.000    0.000    0.000 
#
# Total GULP energy -421570.344629 kJ/mol
# GULP energy per Si atom -12399.127783 kJ/mol
# Density = 2.230627 g / cm^3
# Si number density = 22.357161 Si / 1000 Ang^3
#
#
#
# Elastic Constant Matrix: (Units=GPa)
#
#
# Indices 1 2 3 4 5 6 
#
# 1 115.0131 42.3322 39.6235 0.0000 0.0000 0.0000
# 2 42.3322 107.7181 34.0767 0.0000 0.0000 0.0000
# 3 39.6235 34.0767 121.3594 0.0000 0.0000 0.0000
# 4 0.0000 0.0000 0.0000 42.9694 0.0000 0.0000
# 5 0.0000 0.0000 0.0000 0.0000 28.1574 0.0000
# 6 0.0000 0.0000 0.0000 0.0000 0.0000 25.4977
#
#
#
# Elastic Compliance Matrix: (Units=1/GPa)
#
#
# Indices 1 2 3 4 5 6 
#
# 1 0.010851 -0.003450 -0.002574 0.000000 0.000000 0.000000
# 2 -0.003450 0.011285 -0.002042 0.000000 0.000000 0.000000
# 3 -0.002574 -0.002042 0.009654 0.000000 0.000000 0.000000
# 4 0.000000 0.000000 0.000000 0.023272 0.000000 0.000000
# 5 0.000000 0.000000 0.000000 0.000000 0.035515 0.000000
# 6 0.000000 0.000000 0.000000 0.000000 0.000000 0.039219
#
#
# Mechanical properties :
#
#
# Convention : Reuss Voigt Hill
#
# Bulk Modulus (GPa) = 63.86780 64.01729 63.94254
# Shear Modulus (GPa) = 33.07982 34.52878 33.80430
#
# Velocity S-wave (km/s) = 3.85074 3.93417 3.89268
# Velocity P-wave (km/s) = 6.95701 7.02375 6.99046
#
# Compressibility (1/GPa) = 0.01565734
#
# Stress axis : x y z
#
# Youngs Moduli (GPa) = 92.15416 88.60938 103.58469
#
# Poissons Ratio (x) = 0.30572 0.26665
# Poissons Ratio (y) = 0.31795 0.21156
# Poissons Ratio (z) = 0.23722 0.18098
#
# Static dielectric constant tensor:
#      x y z
#    x 4.104810 0.000000 0.000000 
#    y 0.000000 3.909580 0.000000 
#    z 0.000000 0.000000 4.471810 
# 
# 
# High freq. dielectric constant tensor:
#      x y z
#    x 1.885290 0.000000 0.000000 
#    y 0.000000 1.878560 0.000000 
#    z 0.000000 0.000000 1.891770 
# 
# From -- ./inp_files/6822.got.cif
#   From: 2010.03.12/outbox.cif.g09.slc.cpg/sg68_4_cif.got.tgz:6822.got - 2010.04.10 23:14:56.
