data_PCOD8283423
_publ_section_title
;
Structure prediction by ZEFSAII (Michael W. Deem and Ramdas Pophale) SiO2 
 PCOD8283423
Probable space group: C C C A
;
_chemical_formula_sum "Si O2"
_cell_formula_units_Z 88
_cell_length_a 10.550722
_cell_length_b 23.729665
_cell_length_c 17.412289
_cell_angle_alpha 90.000000
_cell_angle_beta 90.000000
_cell_angle_gamma 90.000000
_cell_volume 4359.429452
_symmetry_space_group_name_H-M "C C C A"
_symmetry_group_IT_number 68
_space_group.IT_coordinate_system_code '2'
_symmetry_cell_setting 'orthorhombic'
loop_
_space_group_symop_operation_xyz
x,y,z
-x,1/2-y,z
x,1/2-y,1/2-z
-x,y,1/2-z
-x,-y,-z
x,1/2+y,-z
-x,1/2+y,1/2+z
x,-y,1/2+z
1/2+x,1/2+y,z
1/2-x,-y,z
1/2+x,-y,1/2-z
1/2-x,1/2+y,1/2-z
1/2-x,1/2-y,-z
1/2+x,y,-z
1/2-x,y,1/2+z
1/2+x,1/2-y,1/2+z
loop_
_atom_site_type_symbol
_atom_site_label
_atom_site_fract_x
_atom_site_fract_y
_atom_site_fract_z
Si Si1 0.000000 0.049810 0.750000
Si Si2 0.680649 0.345358 0.932052
Si Si3 0.370997 0.535136 0.345928
Si Si4 0.852164 0.258903 0.165273
Si Si5 0.741632 0.934457 0.194250
Si Si6 0.393795 0.141203 0.559944
O O1 0.119925 0.087276 0.775931
O O2 0.022240 0.010803 0.674209
O O3 0.712712 0.286601 0.890668
O O4 0.683158 0.396564 0.871928
O O5 0.536701 0.340886 0.966764
O O6 0.791513 0.355564 0.992535
O O7 0.250000 0.500000 0.373405
O O8 0.348346 0.570963 0.268083
O O9 0.409536 0.576746 0.413781
O O10 0.790587 0.250000 0.250000
O O11 0.835219 0.320930 0.128863
O O12 0.000000 0.250000 0.172467
O O13 0.750000 0.000000 0.168899
#
# Coordination Sequence:
#
# PCOD8283423 Si02
#       6
#     8  16  16  16  16  16
#     4   8  16  32  54  80 112 142 186 234 272 314
#     4  11  23  37  56  83 116 149 182 223 275 331
#     4   9  18  33  55  81 107 143 188 230 272 323
#     4   9  19  37  62  85 104 137 186 233 276 326
#     4   9  18  33  55  81 109 146 188 232 274 321
#     4  11  22  37  57  82 114 147 181 226 276 331
#
# _framework density 20.186128
#
# number of rings (size 3 to 8) (size 9 to 14) (size 15 to 20)
#    0.000    2.727    0.000    3.818    0.000    6.545 
#    0.000    2.727    0.000    1.091    0.000    0.000 
#    0.000    0.000    0.000    0.000    0.000    0.000 
#
# Total GULP energy -545098.145870 kJ/mol
# GULP energy per Si atom -12388.594224 kJ/mol
# Density = 2.014018 g / cm^3
# Si number density = 20.186128 Si / 1000 Ang^3
#
#
#
# Elastic Constant Matrix: (Units=GPa)
#
#
# Indices 1 2 3 4 5 6 
#
# 1 104.3207 5.9098 37.2191 0.0000 0.0000 0.0000
# 2 5.9098 60.2530 17.0292 0.0000 0.0000 0.0000
# 3 37.2191 17.0292 79.4325 0.0000 0.0000 0.0000
# 4 0.0000 0.0000 0.0000 18.8984 0.0000 0.0000
# 5 0.0000 0.0000 0.0000 0.0000 7.8135 0.0000
# 6 0.0000 0.0000 0.0000 0.0000 0.0000 7.9713
#
#
#
# Elastic Compliance Matrix: (Units=1/GPa)
#
#
# Indices 1 2 3 4 5 6 
#
# 1 0.011520 0.000421 -0.005488 0.000000 0.000000 0.000000
# 2 0.000421 0.017683 -0.003988 0.000000 0.000000 0.000000
# 3 -0.005488 -0.003988 0.016016 0.000000 0.000000 0.000000
# 4 0.000000 0.000000 0.000000 0.052915 0.000000 0.000000
# 5 0.000000 0.000000 0.000000 0.000000 0.127984 0.000000
# 6 0.000000 0.000000 0.000000 0.000000 0.000000 0.125451
#
#
# Mechanical properties :
#
#
# Convention : Reuss Voigt Hill
#
# Bulk Modulus (GPa) = 36.88943 40.48027 38.68485
# Shear Modulus (GPa) = 13.20259 19.19317 16.19788
#
# Velocity S-wave (km/s) = 2.56020 3.08687 2.83579
# Velocity P-wave (km/s) = 5.20133 5.72731 5.47064
#
# Compressibility (1/GPa) = 0.02710804
#
# Stress axis : x y z
#
# Youngs Moduli (GPa) = 86.80553 56.55292 62.43814
#
# Poissons Ratio (x) = -0.02382 0.34267
# Poissons Ratio (y) = -0.03656 0.24902
# Poissons Ratio (z) = 0.47640 0.22555
#
# Static dielectric constant tensor:
#      x y z
#    x 4.124160 0.000000 0.000000 
#    y 0.000000 3.622360 0.000000 
#    z 0.000000 0.000000 3.524730 
# 
# 
# High freq. dielectric constant tensor:
#      x y z
#    x 1.789160 0.000000 0.000000 
#    y 0.000000 1.777280 0.000000 
#    z 0.000000 0.000000 1.763590 
# 
# From -- ./inp_files/21119.got.cif
#   From: 2010.03.12/outbox.cif.g09.slc.cpg/sg68_11_cif.got.tgz:21119.got - 2010.04.10 23:14:56.
