data_PCOD8283959
_publ_section_title
;
Structure prediction by ZEFSAII (Michael W. Deem and Ramdas Pophale) SiO2 
 PCOD8283959
Probable space group: F M M M
;
_chemical_formula_sum "Si O2"
_cell_formula_units_Z 176
_cell_length_a 18.446282
_cell_length_b 18.586482
_cell_length_c 27.287525
_cell_angle_alpha 90.000000
_cell_angle_beta 90.000000
_cell_angle_gamma 90.000000
_cell_volume 9355.568560
_symmetry_space_group_name_H-M "F M M M"
_symmetry_group_IT_number 69
_symmetry_cell_setting 'orthorhombic'
loop_
_space_group_symop_operation_xyz
x,y,z
-x,-y,z
x,-y,-z
-x,y,-z
-x,-y,-z
x,y,-z
-x,y,z
x,-y,z
x,1/2+y,1/2+z
-x,1/2-y,1/2+z
x,1/2-y,1/2-z
-x,1/2+y,1/2-z
-x,1/2-y,1/2-z
x,1/2+y,1/2-z
-x,1/2+y,1/2+z
x,1/2-y,1/2+z
1/2+x,y,1/2+z
1/2-x,-y,1/2+z
1/2+x,-y,1/2-z
1/2-x,y,1/2-z
1/2-x,-y,1/2-z
1/2+x,y,1/2-z
1/2-x,y,1/2+z
1/2+x,-y,1/2+z
1/2+x,1/2+y,z
1/2-x,1/2-y,z
1/2+x,1/2-y,-z
1/2-x,1/2+y,-z
1/2-x,1/2-y,-z
1/2+x,1/2+y,-z
1/2-x,1/2+y,z
1/2+x,1/2-y,z
loop_
_atom_site_type_symbol
_atom_site_label
_atom_site_fract_x
_atom_site_fract_y
_atom_site_fract_z
Si Si1 0.416262 0.415459 0.733356
Si Si2 0.825140 0.658933 0.682924
Si Si3 0.176550 0.084582 0.914535
Si Si4 0.800605 0.319269 0.055064
Si Si5 0.421561 0.585632 0.000000
Si Si6 0.342370 0.818554 0.161297
O O1 0.500000 0.401970 0.749145
O O2 0.401292 0.500000 0.726947
O O3 0.358104 0.382808 0.771062
O O4 0.400867 0.375221 0.681875
O O5 0.852626 0.617043 0.635606
O O6 0.737692 0.657386 0.679537
O O7 0.856240 0.739708 0.683733
O O8 0.254367 0.109430 0.934350
O O9 0.118194 0.114429 0.952433
O O10 0.179634 0.000000 0.909759
O O11 0.750000 0.250000 0.058339
O O12 0.854304 0.314793 0.101933
O O13 0.836474 0.323967 0.000000
O O14 0.424118 0.500000 0.000000
O O15 0.500000 0.621062 0.000000
#
# Coordination Sequence:
#
# PCOD8283959 Si02
#       6
#    32  32  32  32  16  32
#     4  11  25  41  57  80 114 154 196 242 287 336
#     4  10  20  37  58  87 113 145 188 237 288 346
#     4  10  18  30  51  79 110 143 184 230 276 333
#     4  10  18  33  57  84 115 146 177 229 283 335
#     4   9  18  30  43  68 110 152 181 220 276 333
#     4  10  20  37  59  89 114 148 186 236 292 345
#
# _framework density 18.812325999999999
#
# number of rings (size 3 to 8) (size 9 to 14) (size 15 to 20)
#    0.000    1.909    4.545    1.636    0.000    8.000 
#    0.000    1.818    0.000    0.545    0.000    1.273 
#    0.000    0.000    0.000    0.000    0.000    0.000 
#
# Total GULP energy -545229.488037 kJ/mol
# GULP energy per Si atom -12391.579274 kJ/mol
# Density = 1.876951 g / cm^3
# Si number density = 18.812326 Si / 1000 Ang^3
#
#
#
# Elastic Constant Matrix: (Units=GPa)
#
#
# Indices 1 2 3 4 5 6 
#
# 1 34.4840 30.8376 20.7659 0.0000 0.0000 0.0000
# 2 30.8376 108.6325 48.6762 0.0000 0.0000 0.0000
# 3 20.7659 48.6762 135.8194 0.0000 0.0000 0.0000
# 4 0.0000 0.0000 0.0000 32.7574 0.0000 0.0000
# 5 0.0000 0.0000 0.0000 0.0000 24.7224 0.0000
# 6 0.0000 0.0000 0.0000 0.0000 0.0000 22.0767
#
#
#
# Elastic Compliance Matrix: (Units=1/GPa)
#
#
# Indices 1 2 3 4 5 6 
#
# 1 0.039515 -0.010138 -0.002408 0.000000 0.000000 0.000000
# 2 -0.010138 0.013568 -0.003312 0.000000 0.000000 0.000000
# 3 -0.002408 -0.003312 0.008918 0.000000 0.000000 0.000000
# 4 0.000000 0.000000 0.000000 0.030527 0.000000 0.000000
# 5 0.000000 0.000000 0.000000 0.000000 0.040449 0.000000
# 6 0.000000 0.000000 0.000000 0.000000 0.000000 0.045297
#
#
# Mechanical properties :
#
#
# Convention : Reuss Voigt Hill
#
# Bulk Modulus (GPa) = 33.02155 53.27727 43.14941
# Shear Modulus (GPa) = 22.71840 27.82171 25.27006
#
# Velocity S-wave (km/s) = 3.47887 3.84983 3.66904
# Velocity P-wave (km/s) = 5.80758 6.93855 6.39810
#
# Compressibility (1/GPa) = 0.03028326
#
# Stress axis : x y z
#
# Youngs Moduli (GPa) = 25.30668 73.70554 112.13224
#
# Poissons Ratio (x) = 0.74724 0.27004
# Poissons Ratio (y) = 0.25656 0.37142
# Poissons Ratio (z) = 0.06094 0.24414
#
# Static dielectric constant tensor:
#      x y z
#    x 3.213680 0.000000 0.000000 
#    y 0.000000 3.511840 0.000000 
#    z 0.000000 0.000000 3.792630 
# 
# 
# High freq. dielectric constant tensor:
#      x y z
#    x 1.682900 0.000000 0.000000 
#    y 0.000000 1.738840 0.000000 
#    z 0.000000 0.000000 1.748200 
# 
# From -- ./inp_files/46388.got.cif
#   From: 2010.03.12/outbox.cif.g09.slc.cpg/sg69_24_cif.got.tgz:46388.got - 2010.04.10 23:52:46.
