data_PCOD8283232
_publ_section_title
;
Structure prediction by ZEFSAII (Michael W. Deem and Ramdas Pophale) SiO2 
 PCOD8283232
Probable space group: C C C A
;
_chemical_formula_sum "Si O2"
_cell_formula_units_Z 40
_cell_length_a 13.295694
_cell_length_b 5.000351
_cell_length_c 24.273309
_cell_angle_alpha 90.000000
_cell_angle_beta 90.000000
_cell_angle_gamma 90.000000
_cell_volume 1613.765723
_symmetry_space_group_name_H-M "C C C A"
_symmetry_group_IT_number 68
_space_group.IT_coordinate_system_code '2'
_symmetry_cell_setting 'orthorhombic'
loop_
_space_group_symop_operation_xyz
x,y,z
-x,1/2-y,z
x,1/2-y,1/2-z
-x,y,1/2-z
-x,-y,-z
x,1/2+y,-z
-x,1/2+y,1/2+z
x,-y,1/2+z
1/2+x,1/2+y,z
1/2-x,-y,z
1/2+x,-y,1/2-z
1/2-x,1/2+y,1/2-z
1/2-x,1/2-y,-z
1/2+x,y,-z
1/2-x,y,1/2+z
1/2+x,1/2-y,1/2+z
loop_
_atom_site_type_symbol
_atom_site_label
_atom_site_fract_x
_atom_site_fract_y
_atom_site_fract_z
Si Si1 0.865405 0.998026 0.787780
Si Si2 0.633286 0.013551 0.035302
Si Si3 0.500000 0.250000 0.875433
O O1 0.893621 0.250000 0.750000
O O2 0.888555 0.750000 0.750000
O O3 0.750000 0.000000 0.807955
O O4 0.935622 0.966410 0.840966
O O5 0.572944 0.939171 0.089599
O O6 0.750000 0.000000 0.050936
O O7 0.605569 0.811129 0.985280
#
# Coordination Sequence:
#
# PCOD8283232 Si02
#       3
#    16  16   8
#     4  10  25  47  68  99 142 181 228 289 345 406
#     4  10  24  45  68 102 143 179 226 287 346 412
#     4  12  25  44  78 104 132 190 239 280 348 416
#
# _framework density 24.786745
#
# number of rings (size 3 to 8) (size 9 to 14) (size 15 to 20)
#    0.000    1.600    0.000    1.800    0.000   19.200 
#    0.000    4.000    0.000    0.000    0.000    0.000 
#    0.000    0.000    0.000    0.000    0.000    0.000 
#
# Total GULP energy -248102.342907 kJ/mol
# GULP energy per Si atom -12405.117145 kJ/mol
# Density = 2.473033 g / cm^3
# Si number density = 24.786745 Si / 1000 Ang^3
#
#
#
# Elastic Constant Matrix: (Units=GPa)
#
#
# Indices 1 2 3 4 5 6 
#
# 1 143.2266 36.0576 100.1025 0.0000 0.0000 0.0000
# 2 36.0576 152.4468 54.2907 0.0000 0.0000 0.0000
# 3 100.1025 54.2907 156.6465 0.0000 0.0000 0.0000
# 4 0.0000 0.0000 0.0000 23.7043 0.0000 0.0000
# 5 0.0000 0.0000 0.0000 0.0000 18.4378 0.0000
# 6 0.0000 0.0000 0.0000 0.0000 0.0000 36.6765
#
#
#
# Elastic Compliance Matrix: (Units=1/GPa)
#
#
# Indices 1 2 3 4 5 6 
#
# 1 0.012619 -0.000129 -0.008020 0.000000 0.000000 0.000000
# 2 -0.000129 0.007485 -0.002512 0.000000 0.000000 0.000000
# 3 -0.008020 -0.002512 0.012379 0.000000 0.000000 0.000000
# 4 0.000000 0.000000 0.000000 0.042186 0.000000 0.000000
# 5 0.000000 0.000000 0.000000 0.000000 0.054236 0.000000
# 6 0.000000 0.000000 0.000000 0.000000 0.000000 0.027265
#
#
# Mechanical properties :
#
#
# Convention : Reuss Voigt Hill
#
# Bulk Modulus (GPa) = 89.58251 92.58017 91.08134
# Shear Modulus (GPa) = 27.59195 33.22166 30.40681
#
# Velocity S-wave (km/s) = 3.34005 3.66498 3.50628
# Velocity P-wave (km/s) = 7.14803 7.43917 7.29505
#
# Compressibility (1/GPa) = 0.01116289
#
# Stress axis : x y z
#
# Youngs Moduli (GPa) = 79.24375 133.60724 80.78154
#
# Poissons Ratio (x) = 0.01721 0.64783
# Poissons Ratio (y) = 0.01021 0.20290
# Poissons Ratio (z) = 0.63550 0.33558
#
# Static dielectric constant tensor:
#      x y z
#    x 4.746700 0.000000 0.000000 
#    y 0.000000 4.496400 0.000000 
#    z 0.000000 0.000000 4.259970 
# 
# 
# High freq. dielectric constant tensor:
#      x y z
#    x 2.020430 0.000000 0.000000 
#    y 0.000000 1.997240 0.000000 
#    z 0.000000 0.000000 1.978650 
# 
# From -- ./inp_files/44814.got.cif
#   From: 2010.03.12/outbox.cif.g09.slc.cpg/sg68_23_cif.got.tgz:44814.got - 2010.04.10 23:14:56.
