data_PCOD8283076
_publ_section_title
;
Structure prediction by ZEFSAII (Michael W. Deem and Ramdas Pophale) SiO2 
 PCOD8283076
Probable space group: C C C A
;
_chemical_formula_sum "Si O2"
_cell_formula_units_Z 84
_cell_length_a 30.720265
_cell_length_b 23.964752
_cell_length_c 5.019367
_cell_angle_alpha 90.000000
_cell_angle_beta 90.000000
_cell_angle_gamma 90.000000
_cell_volume 3695.275714
_symmetry_space_group_name_H-M "C C C A"
_symmetry_group_IT_number 68
_space_group.IT_coordinate_system_code '2'
_symmetry_cell_setting 'orthorhombic'
loop_
_space_group_symop_operation_xyz
x,y,z
-x,1/2-y,z
x,1/2-y,1/2-z
-x,y,1/2-z
-x,-y,-z
x,1/2+y,-z
-x,1/2+y,1/2+z
x,-y,1/2+z
1/2+x,1/2+y,z
1/2-x,-y,z
1/2+x,-y,1/2-z
1/2-x,1/2+y,1/2-z
1/2-x,1/2-y,-z
1/2+x,y,-z
1/2-x,y,1/2+z
1/2+x,1/2-y,1/2+z
loop_
_atom_site_type_symbol
_atom_site_label
_atom_site_fract_x
_atom_site_fract_y
_atom_site_fract_z
Si Si1 0.280585 0.250000 0.750000
Si Si2 0.333695 0.859397 0.164087
Si Si3 0.890988 0.858650 0.342291
Si Si4 0.202143 0.525211 0.763835
Si Si5 0.550563 0.463739 0.268266
Si Si6 0.000000 0.750000 0.750000
Si Si7 0.943647 0.250000 0.750000
O O1 0.250000 0.250000 0.500000
O O2 0.310852 0.303597 0.741316
O O3 0.372473 0.873315 0.367121
O O4 0.298041 0.909287 0.171248
O O5 0.351662 0.853175 0.866818
O O6 0.923949 0.906431 0.258585
O O7 0.915427 0.799824 0.368919
O O8 0.177014 0.510684 0.489823
O O9 0.250000 0.500000 0.695884
O O10 0.500000 0.447826 0.250000
O O11 0.563141 0.490538 0.549171
O O12 0.030946 0.777503 0.514265
#
# Coordination Sequence:
#
# PCOD8283076 Si02
#       7
#     8  16  16  16  16   4   8
#     4  12  28  46  76  97 137 176 235 280 337 436
#     4  12  26  44  69 104 135 185 224 281 351 404
#     4  12  25  44  72  99 147 179 225 284 344 406
#     4  10  23  40  66  93 134 168 220 285 334 398
#     4  10  23  43  66  99 139 185 232 273 328 400
#     4  10  24  40  68 102 132 180 228 280 324 412
#     4  11  24  45  66 105 138 173 230 283 345 390
#
# _framework density 22.731728
#
# number of rings (size 3 to 8) (size 9 to 14) (size 15 to 20)
#    0.000    0.952    0.000    5.714    8.000    4.571 
#    3.429    0.000    0.000    0.000    0.000    0.000 
#    0.000    0.000    0.000    0.000    0.000    0.000 
#
# Total GULP energy -520350.782858 kJ/mol
# GULP energy per Si atom -12389.304354 kJ/mol
# Density = 2.267999 g / cm^3
# Si number density = 22.731728 Si / 1000 Ang^3
#
#
#
# Elastic Constant Matrix: (Units=GPa)
#
#
# Indices 1 2 3 4 5 6 
#
# 1 68.9109 44.2161 15.1333 0.0000 0.0000 0.0000
# 2 44.2161 138.9571 -6.5895 0.0000 0.0000 0.0000
# 3 15.1333 -6.5895 129.7483 0.0000 0.0000 0.0000
# 4 0.0000 0.0000 0.0000 19.3291 0.0000 0.0000
# 5 0.0000 0.0000 0.0000 0.0000 28.1731 0.0000
# 6 0.0000 0.0000 0.0000 0.0000 0.0000 9.9698
#
#
#
# Elastic Compliance Matrix: (Units=1/GPa)
#
#
# Indices 1 2 3 4 5 6 
#
# 1 0.019030 -0.006176 -0.002533 0.000000 0.000000 0.000000
# 2 -0.006176 0.009218 0.001188 0.000000 0.000000 0.000000
# 3 -0.002533 0.001188 0.008063 0.000000 0.000000 0.000000
# 4 0.000000 0.000000 0.000000 0.051736 0.000000 0.000000
# 5 0.000000 0.000000 0.000000 0.000000 0.035495 0.000000
# 6 0.000000 0.000000 0.000000 0.000000 0.000000 0.100303
#
#
# Mechanical properties :
#
#
# Convention : Reuss Voigt Hill
#
# Bulk Modulus (GPa) = 47.01348 49.23733 48.12541
# Shear Modulus (GPa) = 20.32719 30.48481 25.40600
#
# Velocity S-wave (km/s) = 2.99360 3.66603 3.34675
# Velocity P-wave (km/s) = 5.71626 6.29499 6.01259
#
# Compressibility (1/GPa) = 0.02127049
#
# Stress axis : x y z
#
# Youngs Moduli (GPa) = 52.54771 108.48470 124.02239
#
# Poissons Ratio (x) = 0.66996 0.31418
# Poissons Ratio (y) = 0.32451 -0.14739
# Poissons Ratio (z) = 0.13312 -0.12893
#
# Static dielectric constant tensor:
#      x y z
#    x 1.660850 0.000000 0.000000 
#    y 0.000000 3.935060 0.000000 
#    z 0.000000 0.000000 4.847620 
# 
# 
# High freq. dielectric constant tensor:
#      x y z
#    x 1.893520 0.000000 0.000000 
#    y 0.000000 1.891270 0.000000 
#    z 0.000000 0.000000 1.930960 
# 
# From -- ./inp_files/2799.got.cif
#   From: 2010.03.12/outbox.cif.g09.slc.cpg/sg68_2_cif.got.tgz:2799.got - 2010.04.10 23:14:56.
