data_PCOD8283011
_publ_section_title
;
Structure prediction by ZEFSAII (Michael W. Deem and Ramdas Pophale) SiO2 
 PCOD8283011
Probable space group: C C C A
;
_chemical_formula_sum "Si O2"
_cell_formula_units_Z 60
_cell_length_a 16.946683
_cell_length_b 29.787633
_cell_length_c 5.362067
_cell_angle_alpha 90.000000
_cell_angle_beta 90.000000
_cell_angle_gamma 90.000000
_cell_volume 2706.779860
_symmetry_space_group_name_H-M "C C C A"
_symmetry_group_IT_number 68
_space_group.IT_coordinate_system_code '2'
_symmetry_cell_setting 'orthorhombic'
loop_
_space_group_symop_operation_xyz
x,y,z
-x,1/2-y,z
x,1/2-y,1/2-z
-x,y,1/2-z
-x,-y,-z
x,1/2+y,-z
-x,1/2+y,1/2+z
x,-y,1/2+z
1/2+x,1/2+y,z
1/2-x,-y,z
1/2+x,-y,1/2-z
1/2-x,1/2+y,1/2-z
1/2-x,1/2-y,-z
1/2+x,y,-z
1/2-x,y,1/2+z
1/2+x,1/2-y,1/2+z
loop_
_atom_site_type_symbol
_atom_site_label
_atom_site_fract_x
_atom_site_fract_y
_atom_site_fract_z
Si Si1 0.716911 0.449836 0.501551
Si Si2 0.300167 0.750000 0.750000
Si Si3 0.448714 0.914770 0.000595
Si Si4 0.421265 0.317401 0.098719
Si Si5 0.000000 0.250000 0.250000
O O1 0.750000 0.500000 0.500868
O O2 0.750213 0.425223 0.751257
O O3 0.621561 0.451080 0.501365
O O4 0.250000 0.750000 0.500000
O O5 0.351350 0.796198 0.736172
O O6 0.500000 0.921502 0.750000
O O7 0.402997 0.866552 0.012182
O O8 0.500000 0.921108 0.250000
O O9 0.500000 0.324945 0.250000
O O10 0.437943 0.280359 0.892960
#
# Coordination Sequence:
#
# PCOD8283011 Si02
#       5
#    16   8  16  16   4
#     4  10  22  44  68  94 133 176 206 259 352 410
#     4  12  26  38  57  93 130 168 220 270 324 384
#     4  11  24  41  67 102 128 167 232 282 317 388
#     4  11  23  39  65  88 127 180 220 272 324 382
#     4  12  16  40  68  84 124 174 226 258 330 370
#
# _framework density 22.166558999999999
#
# number of rings (size 3 to 8) (size 9 to 14) (size 15 to 20)
#    0.000    1.067    4.000    2.400    0.000    2.133 
#    0.000   16.000    0.000    0.000    0.000    0.000 
#    0.000    0.000    0.000    0.000    0.000    0.000 
#
# Total GULP energy -371816.005007 kJ/mol
# GULP energy per Si atom -12393.866834 kJ/mol
# Density = 2.211611 g / cm^3
# Si number density = 22.166559 Si / 1000 Ang^3
#
#
#
# Elastic Constant Matrix: (Units=GPa)
#
#
# Indices 1 2 3 4 5 6 
#
# 1 162.5505 56.1274 75.0873 0.0000 0.0000 0.0000
# 2 56.1274 89.8773 23.5508 0.0000 0.0000 0.0000
# 3 75.0873 23.5508 196.4205 0.0000 0.0000 0.0000
# 4 0.0000 0.0000 0.0000 16.2146 0.0000 0.0000
# 5 0.0000 0.0000 0.0000 0.0000 44.3667 0.0000
# 6 0.0000 0.0000 0.0000 0.0000 0.0000 -78.7566
#
#
#
# Elastic Compliance Matrix: (Units=1/GPa)
#
#
# Indices 1 2 3 4 5 6 
#
# 1 0.009231 -0.004997 -0.002930 0.000000 0.000000 0.000000
# 2 -0.004997 0.014192 0.000209 0.000000 0.000000 0.000000
# 3 -0.002930 0.000209 0.006186 0.000000 0.000000 0.000000
# 4 0.000000 0.000000 0.000000 0.061673 0.000000 0.000000
# 5 0.000000 0.000000 0.000000 0.000000 0.022539 0.000000
# 6 0.000000 0.000000 0.000000 0.000000 0.000000 -0.012697
#
#
# Mechanical properties :
#
#
# Convention : Reuss Voigt Hill
#
# Bulk Modulus (GPa) = 70.55616 84.26438 77.41027
# Shear Modulus (GPa) = 41.22581 15.97047 28.59814
#
# Velocity S-wave (km/s) = 4.31724 2.68708 3.59576
# Velocity P-wave (km/s) = 7.53329 6.90825 7.22753
#
# Compressibility (1/GPa) = 0.01417311
#
# Stress axis : x y z
#
# Youngs Moduli (GPa) = 108.33649 70.46204 161.65515
#
# Poissons Ratio (x) = 0.35208 0.47357
# Poissons Ratio (y) = 0.54133 -0.03371
# Poissons Ratio (z) = 0.31737 -0.01469
#
# Static dielectric constant tensor:
#      x y z
#    x 4.786200 0.000000 0.000000 
#    y 0.000000 -4.014660 0.000000 
#    z 0.000000 0.000000 5.920310 
# 
# 
# High freq. dielectric constant tensor:
#      x y z
#    x 1.874740 0.000000 0.000000 
#    y 0.000000 1.853660 0.000000 
#    z 0.000000 0.000000 1.893870 
# 
# From -- ./inp_files/1001.got.cif
#   From: 2010.03.12/outbox.cif.g09.slc.cpg/sg68_1_cif.got.tgz:1001.got - 2010.04.10 23:14:56.
