data_PCOD8283494
_publ_section_title
;
Structure prediction by ZEFSAII (Michael W. Deem and Ramdas Pophale) SiO2 
 PCOD8283494
Probable space group: C C C A
;
_chemical_formula_sum "Si O2"
_cell_formula_units_Z 72
_cell_length_a 10.471069
_cell_length_b 11.853841
_cell_length_c 27.083170
_cell_angle_alpha 90.000000
_cell_angle_beta 90.000000
_cell_angle_gamma 90.000000
_cell_volume 3361.627709
_symmetry_space_group_name_H-M "C C C A"
_symmetry_group_IT_number 68
_space_group.IT_coordinate_system_code '2'
_symmetry_cell_setting 'orthorhombic'
loop_
_space_group_symop_operation_xyz
x,y,z
-x,1/2-y,z
x,1/2-y,1/2-z
-x,y,1/2-z
-x,-y,-z
x,1/2+y,-z
-x,1/2+y,1/2+z
x,-y,1/2+z
1/2+x,1/2+y,z
1/2-x,-y,z
1/2+x,-y,1/2-z
1/2-x,1/2+y,1/2-z
1/2-x,1/2-y,-z
1/2+x,y,-z
1/2-x,y,1/2+z
1/2+x,1/2-y,1/2+z
loop_
_atom_site_type_symbol
_atom_site_label
_atom_site_fract_x
_atom_site_fract_y
_atom_site_fract_z
Si Si1 0.875970 0.423685 0.503547
Si Si2 0.327963 0.387595 0.390557
Si Si3 0.977946 0.118991 0.696411
Si Si4 0.250000 0.000000 0.848806
Si Si5 0.132699 0.696203 0.595879
O O1 0.750000 0.500000 0.498537
O O2 0.893363 0.363596 0.556669
O O3 0.869299 0.322565 0.463253
O O4 0.000000 0.500000 0.500000
O O5 0.250000 0.500000 0.398100
O O6 0.424856 0.416810 0.346578
O O7 0.241541 0.277541 0.381819
O O8 0.000000 0.250000 0.702540
O O9 0.000000 0.060491 0.750000
O O10 0.833270 0.086270 0.683439
O O11 0.151048 0.927887 0.881320
O O12 0.000000 0.750000 0.613483
#
# Coordination Sequence:
#
# PCOD8283494 Si02
#       5
#    16  16  16   8  16
#     4  11  23  41  66 103 143 187 235 285 353 425
#     4  11  24  43  68 101 142 183 233 291 346 420
#     4  11  25  46  71 100 136 185 235 293 353 413
#     4  12  24  48  72 102 144 180 234 292 358 416
#     4  12  24  43  71 104 141 187 233 280 355 428
#
# _framework density 21.418195999999998
#
# number of rings (size 3 to 8) (size 9 to 14) (size 15 to 20)
#    0.000    0.667    3.333    6.000    1.556    0.889 
#    0.000    0.000    0.000    0.000    0.000    0.000 
#    0.000    0.000    0.000    0.000    0.000    0.000 
#
# Total GULP energy -446193.359288 kJ/mol
# GULP energy per Si atom -12394.259980 kJ/mol
# Density = 2.136945 g / cm^3
# Si number density = 21.418196 Si / 1000 Ang^3
#
#
#
# Elastic Constant Matrix: (Units=GPa)
#
#
# Indices 1 2 3 4 5 6 
#
# 1 142.7431 40.7531 55.7058 0.0000 0.0000 0.0000
# 2 40.7531 92.0208 30.1137 0.0000 0.0000 0.0000
# 3 55.7058 30.1137 143.5925 0.0000 0.0000 0.0000
# 4 0.0000 0.0000 0.0000 40.1010 0.0000 0.0000
# 5 0.0000 0.0000 0.0000 0.0000 23.3882 0.0000
# 6 0.0000 0.0000 0.0000 0.0000 0.0000 42.7836
#
#
#
# Elastic Compliance Matrix: (Units=1/GPa)
#
#
# Indices 1 2 3 4 5 6 
#
# 1 0.008987 -0.003048 -0.002847 0.000000 0.000000 0.000000
# 2 -0.003048 0.012702 -0.001481 0.000000 0.000000 0.000000
# 3 -0.002847 -0.001481 0.008379 0.000000 0.000000 0.000000
# 4 0.000000 0.000000 0.000000 0.024937 0.000000 0.000000
# 5 0.000000 0.000000 0.000000 0.000000 0.042757 0.000000
# 6 0.000000 0.000000 0.000000 0.000000 0.000000 0.023373
#
#
# Mechanical properties :
#
#
# Convention : Reuss Voigt Hill
#
# Bulk Modulus (GPa) = 65.29647 70.16687 67.73167
# Shear Modulus (GPa) = 35.46262 38.04016 36.75139
#
# Velocity S-wave (km/s) = 4.07347 4.21891 4.14683
# Velocity P-wave (km/s) = 7.25788 7.52089 7.39056
#
# Compressibility (1/GPa) = 0.01531476
#
# Stress axis : x y z
#
# Youngs Moduli (GPa) = 111.27184 78.72880 119.34133
#
# Poissons Ratio (x) = 0.23999 0.33978
# Poissons Ratio (y) = 0.33919 0.17677
# Poissons Ratio (z) = 0.31681 0.11661
#
# Static dielectric constant tensor:
#      x y z
#    x 3.742060 0.000000 0.000000 
#    y 0.000000 3.740790 0.000000 
#    z 0.000000 0.000000 4.923930 
# 
# 
# High freq. dielectric constant tensor:
#      x y z
#    x 1.846040 0.000000 0.000000 
#    y 0.000000 1.842020 0.000000 
#    z 0.000000 0.000000 1.842460 
# 
# From -- ./inp_files/50006.got.cif
#   From: 2010.03.12/outbox.cif.g09.slc.cpg/sg68_26_cif.got.tgz:50006.got - 2010.04.10 23:14:56.
