data_PCOD8283623
_publ_section_title
;
Structure prediction by ZEFSAII (Michael W. Deem and Ramdas Pophale) SiO2 
 PCOD8283623
Probable space group: C C C A
;
_chemical_formula_sum "Si O2"
_cell_formula_units_Z 64
_cell_length_a 21.133125
_cell_length_b 13.419870
_cell_length_c 10.011277
_cell_angle_alpha 90.000000
_cell_angle_beta 90.000000
_cell_angle_gamma 90.000000
_cell_volume 2839.236102
_symmetry_space_group_name_H-M "C C C A"
_symmetry_group_IT_number 68
_space_group.IT_coordinate_system_code '2'
_symmetry_cell_setting 'orthorhombic'
loop_
_space_group_symop_operation_xyz
x,y,z
-x,1/2-y,z
x,1/2-y,1/2-z
-x,y,1/2-z
-x,-y,-z
x,1/2+y,-z
-x,1/2+y,1/2+z
x,-y,1/2+z
1/2+x,1/2+y,z
1/2-x,-y,z
1/2+x,-y,1/2-z
1/2-x,1/2+y,1/2-z
1/2-x,1/2-y,-z
1/2+x,y,-z
1/2-x,y,1/2+z
1/2+x,1/2-y,1/2+z
loop_
_atom_site_type_symbol
_atom_site_label
_atom_site_fract_x
_atom_site_fract_y
_atom_site_fract_z
Si Si1 0.210581 0.888537 0.535585
Si Si2 0.833277 0.489253 0.291163
Si Si3 0.072712 0.644576 0.290420
Si Si4 0.655642 0.682901 0.479213
O O1 0.196494 0.975514 0.643691
O O2 0.280134 0.842631 0.562517
O O3 0.157059 0.802009 0.545622
O O4 0.210245 0.943169 0.390217
O O5 0.898980 0.548819 0.282787
O O6 0.845333 0.377192 0.341163
O O7 0.104783 0.750000 0.250000
O O8 0.091758 0.643792 0.446919
O O9 0.000000 0.645389 0.250000
#
# Coordination Sequence:
#
# PCOD8283623 Si02
#       4
#    16  16  16  16
#     4  11  26  41  70 107 145 177 226 296 359 424
#     4  12  24  43  69 102 137 184 233 286 352 416
#     4  11  25  45  69  98 138 191 233 285 352 425
#     4  11  25  43  68 103 146 180 232 288 357 423
#
# _framework density 22.541273
#
# number of rings (size 3 to 8) (size 9 to 14) (size 15 to 20)
#    0.000    0.750    5.000    1.500    7.000    1.000 
#    0.000    0.000    0.000    1.500    0.000    0.000 
#    0.000    0.000    0.000    0.000    0.000    0.000 
#
# Total GULP energy -396498.601719 kJ/mol
# GULP energy per Si atom -12390.581304 kJ/mol
# Density = 2.248997 g / cm^3
# Si number density = 22.541273 Si / 1000 Ang^3
#
#
#
# Elastic Constant Matrix: (Units=GPa)
#
#
# Indices 1 2 3 4 5 6 
#
# 1 113.4701 39.2133 41.4844 0.0000 0.0000 0.0000
# 2 39.2133 168.0181 33.6188 0.0000 0.0000 0.0000
# 3 41.4844 33.6188 98.7313 0.0000 0.0000 0.0000
# 4 0.0000 0.0000 0.0000 42.5804 0.0000 0.0000
# 5 0.0000 0.0000 0.0000 0.0000 -25.4071 0.0000
# 6 0.0000 0.0000 0.0000 0.0000 0.0000 35.1662
#
#
#
# Elastic Compliance Matrix: (Units=1/GPa)
#
#
# Indices 1 2 3 4 5 6 
#
# 1 0.010867 -0.001741 -0.003973 0.000000 0.000000 0.000000
# 2 -0.001741 0.006666 -0.001538 0.000000 0.000000 0.000000
# 3 -0.003973 -0.001538 0.012322 0.000000 0.000000 0.000000
# 4 0.000000 0.000000 0.000000 0.023485 0.000000 0.000000
# 5 0.000000 0.000000 0.000000 0.000000 -0.039359 0.000000
# 6 0.000000 0.000000 0.000000 0.000000 0.000000 0.028436
#
#
# Mechanical properties :
#
#
# Convention : Reuss Voigt Hill
#
# Bulk Modulus (GPa) = 65.14850 67.65027 66.39939
# Shear Modulus (GPa) = 80.59454 28.19478 54.39466
#
# Velocity S-wave (km/s) = 5.98597 3.54051 4.91767
# Velocity P-wave (km/s) = 8.76016 6.84036 7.85910
#
# Compressibility (1/GPa) = 0.01534955
#
# Stress axis : x y z
#
# Youngs Moduli (GPa) = 92.01960 150.01728 81.15759
#
# Poissons Ratio (x) = 0.26122 0.32246
# Poissons Ratio (y) = 0.16023 0.12483
# Poissons Ratio (z) = 0.36562 0.23075
#
# Static dielectric constant tensor:
#      x y z
#    x 3.612380 0.000000 0.000000 
#    y 0.000000 4.549510 0.000000 
#    z 0.000000 0.000000 3.968170 
# 
# 
# High freq. dielectric constant tensor:
#      x y z
#    x 1.850100 0.000000 0.000000 
#    y 0.000000 1.924240 0.000000 
#    z 0.000000 0.000000 1.879640 
# 
# From -- ./inp_files/7733.got.cif
#   From: 2010.03.12/outbox.cif.g09.slc.cpg/sg68_4_cif.got.tgz:7733.got - 2010.04.10 23:14:56.
