data_PCOD8283043
_publ_section_title
;
Structure prediction by ZEFSAII (Michael W. Deem and Ramdas Pophale) SiO2 
 PCOD8283043
Probable space group: C C C A
;
_chemical_formula_sum "Si O2"
_cell_formula_units_Z 92
_cell_length_a 7.602424
_cell_length_b 21.228289
_cell_length_c 25.334285
_cell_angle_alpha 90.000000
_cell_angle_beta 90.000000
_cell_angle_gamma 90.000000
_cell_volume 4088.610415
_symmetry_space_group_name_H-M "C C C A"
_symmetry_group_IT_number 68
_space_group.IT_coordinate_system_code '2'
_symmetry_cell_setting 'orthorhombic'
loop_
_space_group_symop_operation_xyz
x,y,z
-x,1/2-y,z
x,1/2-y,1/2-z
-x,y,1/2-z
-x,-y,-z
x,1/2+y,-z
-x,1/2+y,1/2+z
x,-y,1/2+z
1/2+x,1/2+y,z
1/2-x,-y,z
1/2+x,-y,1/2-z
1/2-x,1/2+y,1/2-z
1/2-x,1/2-y,-z
1/2+x,y,-z
1/2-x,y,1/2+z
1/2+x,1/2-y,1/2+z
loop_
_atom_site_type_symbol
_atom_site_label
_atom_site_fract_x
_atom_site_fract_y
_atom_site_fract_z
Si Si1 0.750000 0.500000 0.625674
Si Si2 0.000000 0.750000 0.750000
Si Si3 0.144182 0.372779 0.427944
Si Si4 0.976814 0.822314 0.479455
Si Si5 0.419541 0.457362 0.193902
Si Si6 0.111447 0.664680 0.133454
Si Si7 0.228640 0.209187 0.161164
O O1 0.784831 0.558531 0.586795
O O2 0.576023 0.509452 0.660886
O O3 0.870042 0.795224 0.783096
O O4 0.988217 0.371471 0.470938
O O5 0.280775 0.329601 0.459716
O O6 0.100282 0.332107 0.376074
O O7 0.101583 0.840816 0.429873
O O8 0.000000 0.750000 0.496844
O O9 0.500000 0.435619 0.250000
O O10 0.250000 0.500000 0.204466
O O11 0.335057 0.400632 0.160139
O O12 0.257467 0.717264 0.145811
O O13 0.922990 0.680106 0.160526
#
# Coordination Sequence:
#
# PCOD8283043 Si02
#       7
#     8   4  16  16  16  16  16
#     4  12  26  52  66 108 144 186 246 300 348 442
#     4  12  28  34  64 116 136 170 232 300 380 406
#     4  11  25  43  70  98 146 179 239 292 350 441
#     4  11  21  42  73 101 135 188 222 292 366 422
#     4  12  27  49  77 101 141 198 245 296 365 433
#     4  10  22  47  72  94 138 186 235 284 367 426
#     4  10  23  44  64  99 140 179 225 303 350 430
#
# _framework density 22.501532999999998
#
# number of rings (size 3 to 8) (size 9 to 14) (size 15 to 20)
#    0.000    1.043    7.826    0.522    3.652    4.174 
#    4.696    0.000    0.000    0.000    0.000    0.000 
#    0.000    0.000    0.000    0.000    0.000    0.000 
#
# Total GULP energy -570025.359676 kJ/mol
# GULP energy per Si atom -12391.855645 kJ/mol
# Density = 2.245032 g / cm^3
# Si number density = 22.501533 Si / 1000 Ang^3
#
#
#
# Elastic Constant Matrix: (Units=GPa)
#
#
# Indices 1 2 3 4 5 6 
#
# 1 46.2037 23.6954 27.5640 0.0000 0.0000 0.0000
# 2 23.6954 120.3250 55.2892 0.0000 0.0000 0.0000
# 3 27.5640 55.2892 148.2675 0.0000 0.0000 0.0000
# 4 0.0000 0.0000 0.0000 23.9114 0.0000 0.0000
# 5 0.0000 0.0000 0.0000 0.0000 19.0368 0.0000
# 6 0.0000 0.0000 0.0000 0.0000 0.0000 20.5027
#
#
#
# Elastic Compliance Matrix: (Units=1/GPa)
#
#
# Indices 1 2 3 4 5 6 
#
# 1 0.025462 -0.003426 -0.003456 0.000000 0.000000 0.000000
# 2 -0.003426 0.010490 -0.003275 0.000000 0.000000 0.000000
# 3 -0.003456 -0.003275 0.008608 0.000000 0.000000 0.000000
# 4 0.000000 0.000000 0.000000 0.041821 0.000000 0.000000
# 5 0.000000 0.000000 0.000000 0.000000 0.052530 0.000000
# 6 0.000000 0.000000 0.000000 0.000000 0.000000 0.048774
#
#
# Mechanical properties :
#
#
# Convention : Reuss Voigt Hill
#
# Bulk Modulus (GPa) = 41.24289 58.65483 49.94886
# Shear Modulus (GPa) = 23.13935 26.57336 24.85635
#
# Velocity S-wave (km/s) = 3.21026 3.44023 3.32724
# Velocity P-wave (km/s) = 5.66655 6.47332 6.08332
#
# Compressibility (1/GPa) = 0.02424660
#
# Stress axis : x y z
#
# Youngs Moduli (GPa) = 39.27405 95.32556 116.16732
#
# Poissons Ratio (x) = 0.32660 0.40147
# Poissons Ratio (y) = 0.13456 0.38044
# Poissons Ratio (z) = 0.13573 0.31218
#
# Static dielectric constant tensor:
#      x y z
#    x 4.436880 0.000000 0.000000 
#    y 0.000000 3.982070 0.000000 
#    z 0.000000 0.000000 4.650840 
# 
# 
# High freq. dielectric constant tensor:
#      x y z
#    x 1.889070 0.000000 0.000000 
#    y 0.000000 1.872250 0.000000 
#    z 0.000000 0.000000 1.898860 
# 
# From -- ./inp_files/43177.got.cif
#   From: 2010.03.12/outbox.cif.g09.slc.cpg/sg68_22_cif.got.tgz:43177.got - 2010.04.10 23:14:56.
