data_PCOD8283427
_publ_section_title
;
Structure prediction by ZEFSAII (Michael W. Deem and Ramdas Pophale) SiO2 
 PCOD8283427
Probable space group: C C C A
;
_chemical_formula_sum "Si O2"
_cell_formula_units_Z 96
_cell_length_a 14.702488
_cell_length_b 14.683832
_cell_length_c 21.422548
_cell_angle_alpha 90.000000
_cell_angle_beta 90.000000
_cell_angle_gamma 90.000000
_cell_volume 4624.889547
_symmetry_space_group_name_H-M "C C C A"
_symmetry_group_IT_number 68
_space_group.IT_coordinate_system_code '2'
_symmetry_cell_setting 'orthorhombic'
loop_
_space_group_symop_operation_xyz
x,y,z
-x,1/2-y,z
x,1/2-y,1/2-z
-x,y,1/2-z
-x,-y,-z
x,1/2+y,-z
-x,1/2+y,1/2+z
x,-y,1/2+z
1/2+x,1/2+y,z
1/2-x,-y,z
1/2+x,-y,1/2-z
1/2-x,1/2+y,1/2-z
1/2-x,1/2-y,-z
1/2+x,y,-z
1/2-x,y,1/2+z
1/2+x,1/2-y,1/2+z
loop_
_atom_site_type_symbol
_atom_site_label
_atom_site_fract_x
_atom_site_fract_y
_atom_site_fract_z
Si Si1 0.226324 0.751120 0.854856
Si Si2 0.811695 0.414586 0.571589
Si Si3 0.641784 0.250000 0.250000
Si Si4 0.000000 0.604011 0.250000
Si Si5 0.007845 0.991319 0.124329
Si Si6 0.826819 0.431216 0.426281
Si Si7 0.947248 0.831775 0.814943
O O1 0.269476 0.679593 0.903526
O O2 0.303961 0.787843 0.809307
O O3 0.178065 0.836962 0.887960
O O4 0.156605 0.700401 0.807632
O O5 0.750000 0.500000 0.594019
O O6 0.810341 0.406035 0.497564
O O7 0.917483 0.425792 0.592541
O O8 0.583063 0.165196 0.273945
O O9 0.030048 0.545658 0.190282
O O10 0.922371 0.014738 0.080368
O O11 0.058999 0.084657 0.138684
O O12 0.750000 0.500000 0.401543
O O13 0.000000 0.750000 0.849763
O O14 0.000000 0.852761 0.750000
#
# Coordination Sequence:
#
# PCOD8283427 Si02
#       7
#    16  16   8   8  16  16  16
#     4  12  23  43  68  96 135 172 219 276 339 396
#     4  11  24  44  69  98 129 175 225 274 333 398
#     4  11  24  40  63  94 134 172 211 266 334 401
#     4  11  24  40  63  94 134 172 215 264 330 411
#     4  12  22  43  67  95 133 173 221 274 336 396
#     4  11  26  45  66  95 133 175 228 276 323 397
#     4  11  22  38  64 101 129 165 210 272 332 398
#
# _framework density 20.757252999999999
#
# number of rings (size 3 to 8) (size 9 to 14) (size 15 to 20)
#    0.000    0.667    5.833    3.000    0.000    0.000 
#    0.000    0.000    3.667    0.000    0.000    0.000 
#    0.000    0.000    0.000    0.000    0.000    0.000 
#
# Total GULP energy -594945.615901 kJ/mol
# GULP energy per Si atom -12394.700331 kJ/mol
# Density = 2.071001 g / cm^3
# Si number density = 20.757253 Si / 1000 Ang^3
#
#
#
# Elastic Constant Matrix: (Units=GPa)
#
#
# Indices 1 2 3 4 5 6 
#
# 1 123.5776 31.1903 29.5286 0.0000 0.0000 0.0000
# 2 31.1903 82.7280 20.3355 0.0000 0.0000 0.0000
# 3 29.5286 20.3355 76.1595 0.0000 0.0000 0.0000
# 4 0.0000 0.0000 0.0000 5.5416 0.0000 0.0000
# 5 0.0000 0.0000 0.0000 0.0000 34.1465 0.0000
# 6 0.0000 0.0000 0.0000 0.0000 0.0000 31.8694
#
#
#
# Elastic Compliance Matrix: (Units=1/GPa)
#
#
# Indices 1 2 3 4 5 6 
#
# 1 0.009515 -0.002869 -0.002923 0.000000 0.000000 0.000000
# 2 -0.002869 0.013802 -0.002573 0.000000 0.000000 0.000000
# 3 -0.002923 -0.002573 0.014951 0.000000 0.000000 0.000000
# 4 0.000000 0.000000 0.000000 0.180453 0.000000 0.000000
# 5 0.000000 0.000000 0.000000 0.000000 0.029286 0.000000
# 6 0.000000 0.000000 0.000000 0.000000 0.000000 0.031378
#
#
# Mechanical properties :
#
#
# Convention : Reuss Voigt Hill
#
# Bulk Modulus (GPa) = 46.43033 49.39712 47.91372
# Shear Modulus (GPa) = 16.48577 27.73888 22.11233
#
# Velocity S-wave (km/s) = 2.82124 3.65957 3.26741
# Velocity P-wave (km/s) = 5.74712 6.45800 6.11290
#
# Compressibility (1/GPa) = 0.02153765
#
# Stress axis : x y z
#
# Youngs Moduli (GPa) = 105.10191 72.45403 66.88654
#
# Poissons Ratio (x) = 0.20785 0.19551
# Poissons Ratio (y) = 0.30151 0.17210
# Poissons Ratio (z) = 0.30722 0.18643
#
# Static dielectric constant tensor:
#      x y z
#    x 2.708770 0.000000 0.000000 
#    y 0.000000 3.857900 0.000000 
#    z 0.000000 0.000000 3.460660 
# 
# 
# High freq. dielectric constant tensor:
#      x y z
#    x 1.824900 0.000000 0.000000 
#    y 0.000000 1.818550 0.000000 
#    z 0.000000 0.000000 1.803230 
# 
# From -- ./inp_files/38636.got.cif
#   From: 2010.03.12/outbox.cif.g09.slc.cpg/sg68_20_cif.got.tgz:38636.got - 2010.04.10 23:14:56.
