data_PCOD8283439
_publ_section_title
;
Structure prediction by ZEFSAII (Michael W. Deem and Ramdas Pophale) SiO2 
 PCOD8283439
Probable space group: C C C A
;
_chemical_formula_sum "Si O2"
_cell_formula_units_Z 96
_cell_length_a 27.018352
_cell_length_b 18.603882
_cell_length_c 8.167271
_cell_angle_alpha 90.000000
_cell_angle_beta 90.000000
_cell_angle_gamma 90.000000
_cell_volume 4105.247997
_symmetry_space_group_name_H-M "C C C A"
_symmetry_group_IT_number 68
_space_group.IT_coordinate_system_code '2'
_symmetry_cell_setting 'orthorhombic'
loop_
_space_group_symop_operation_xyz
x,y,z
-x,1/2-y,z
x,1/2-y,1/2-z
-x,y,1/2-z
-x,-y,-z
x,1/2+y,-z
-x,1/2+y,1/2+z
x,-y,1/2+z
1/2+x,1/2+y,z
1/2-x,-y,z
1/2+x,-y,1/2-z
1/2-x,1/2+y,1/2-z
1/2-x,1/2-y,-z
1/2+x,y,-z
1/2-x,y,1/2+z
1/2+x,1/2-y,1/2+z
loop_
_atom_site_type_symbol
_atom_site_label
_atom_site_fract_x
_atom_site_fract_y
_atom_site_fract_z
Si Si1 0.052044 0.403997 0.709980
Si Si2 0.844342 0.601212 0.687337
Si Si3 0.306438 0.226906 0.491527
Si Si4 0.306496 0.480415 0.504507
Si Si5 0.154417 0.851886 0.186484
Si Si6 0.550460 0.562622 0.168215
O O1 0.097070 0.352674 0.760275
O O2 0.051542 0.421243 0.520969
O O3 0.055342 0.477332 0.813269
O O4 0.000000 0.364630 0.750000
O O5 0.823336 0.681388 0.652364
O O6 0.839016 0.553570 0.518369
O O7 0.901687 0.603099 0.745513
O O8 0.812566 0.559971 0.823751
O O9 0.250000 0.250000 0.500000
O O10 0.311833 0.177649 0.331859
O O11 0.340349 0.298454 0.471218
O O12 0.250000 0.500000 0.477340
O O13 0.324353 0.429494 0.356620
O O14 0.500000 0.592309 0.250000
#
# Coordination Sequence:
#
# PCOD8283439 Si02
#       6
#    16  16  16  16  16  16
#     4  11  22  41  73 110 144 185 231 302 370 437
#     4  12  24  44  70 104 147 186 242 305 362 433
#     4  11  26  48  70  96 142 198 246 296 363 439
#     4  12  26  42  69 106 145 189 242 305 363 423
#     4  11  25  47  72 101 143 192 251 295 364 437
#     4  11  22  39  71 108 146 180 230 294 376 435
#
# _framework density 23.384702000000001
#
# number of rings (size 3 to 8) (size 9 to 14) (size 15 to 20)
#    0.000    0.667    3.333    5.500    2.333    7.333 
#    0.000    2.500    0.000    0.000    0.000    0.000 
#    0.000    0.000    0.000    0.000    0.000    0.000 
#
# Total GULP energy -595273.469513 kJ/mol
# GULP energy per Si atom -12401.530615 kJ/mol
# Density = 2.333148 g / cm^3
# Si number density = 23.384702 Si / 1000 Ang^3
#
#
#
# Elastic Constant Matrix: (Units=GPa)
#
#
# Indices 1 2 3 4 5 6 
#
# 1 231.8047 77.2817 60.3429 0.0000 0.0000 0.0000
# 2 77.2817 95.6144 13.9345 0.0000 0.0000 0.0000
# 3 60.3429 13.9345 58.1169 0.0000 0.0000 0.0000
# 4 0.0000 0.0000 0.0000 33.4282 0.0000 0.0000
# 5 0.0000 0.0000 0.0000 0.0000 34.6915 0.0000
# 6 0.0000 0.0000 0.0000 0.0000 0.0000 38.9697
#
#
#
# Elastic Compliance Matrix: (Units=1/GPa)
#
#
# Indices 1 2 3 4 5 6 
#
# 1 0.007912 -0.005386 -0.006924 0.000000 0.000000 0.000000
# 2 -0.005386 0.014504 0.002115 0.000000 0.000000 0.000000
# 3 -0.006924 0.002115 0.023888 0.000000 0.000000 0.000000
# 4 0.000000 0.000000 0.000000 0.029915 0.000000 0.000000
# 5 0.000000 0.000000 0.000000 0.000000 0.028825 0.000000
# 6 0.000000 0.000000 0.000000 0.000000 0.000000 0.025661
#
#
# Mechanical properties :
#
#
# Convention : Reuss Voigt Hill
#
# Bulk Modulus (GPa) = 38.58851 76.51714 57.55283
# Shear Modulus (GPa) = 31.30218 37.01633 34.15925
#
# Velocity S-wave (km/s) = 3.66262 3.98292 3.82613
# Velocity P-wave (km/s) = 5.86718 7.34463 6.64708
#
# Compressibility (1/GPa) = 0.02591445
#
# Stress axis : x y z
#
# Youngs Moduli (GPa) = 126.39135 68.94777 41.86119
#
# Poissons Ratio (x) = 0.37135 0.28983
# Poissons Ratio (y) = 0.68073 -0.08852
# Poissons Ratio (z) = 0.87508 -0.14580
#
# Static dielectric constant tensor:
#      x y z
#    x 4.888360 0.000000 0.000000 
#    y 0.000000 2.538040 0.000000 
#    z 0.000000 0.000000 4.342500 
# 
# 
# High freq. dielectric constant tensor:
#      x y z
#    x 1.936530 0.000000 0.000000 
#    y 0.000000 1.908140 0.000000 
#    z 0.000000 0.000000 1.937600 
# 
# From -- ./inp_files/8920.got.cif
#   From: 2010.03.12/outbox.cif.g09.slc.cpg/sg68_5_cif.got.tgz:8920.got - 2010.04.10 23:14:56.
