data_PCOD8283642
_publ_section_title
;
Structure prediction by ZEFSAII (Michael W. Deem and Ramdas Pophale) SiO2 
 PCOD8283642
Probable space group: C C C A
;
_chemical_formula_sum "Si O2"
_cell_formula_units_Z 64
_cell_length_a 14.701184
_cell_length_b 16.953543
_cell_length_c 10.236597
_cell_angle_alpha 90.000000
_cell_angle_beta 90.000000
_cell_angle_gamma 90.000000
_cell_volume 2551.340314
_symmetry_space_group_name_H-M "C C C A"
_symmetry_group_IT_number 68
_space_group.IT_coordinate_system_code '2'
_symmetry_cell_setting 'orthorhombic'
loop_
_space_group_symop_operation_xyz
x,y,z
-x,1/2-y,z
x,1/2-y,1/2-z
-x,y,1/2-z
-x,-y,-z
x,1/2+y,-z
-x,1/2+y,1/2+z
x,-y,1/2+z
1/2+x,1/2+y,z
1/2-x,-y,z
1/2+x,-y,1/2-z
1/2-x,1/2+y,1/2-z
1/2-x,1/2-y,-z
1/2+x,y,-z
1/2-x,y,1/2+z
1/2+x,1/2-y,1/2+z
loop_
_atom_site_type_symbol
_atom_site_label
_atom_site_fract_x
_atom_site_fract_y
_atom_site_fract_z
Si Si1 0.475127 0.840659 0.607454
Si Si2 0.625294 0.943679 0.497451
Si Si3 0.899097 0.075620 0.213854
Si Si4 0.793488 0.834261 0.529504
O O1 0.500000 0.750000 0.594719
O O2 0.500000 0.874618 0.750000
O O3 0.535525 0.888769 0.504359
O O4 0.367754 0.851954 0.583482
O O5 0.639942 0.966351 0.344714
O O6 0.715554 0.899071 0.539433
O O7 0.609840 0.018916 0.588151
O O8 0.845122 0.156085 0.170483
O O9 0.000000 0.101053 0.250000
O O10 0.750000 0.750000 0.500000
#
# Coordination Sequence:
#
# PCOD8283642 Si02
#       4
#    16  16  16  16
#     4  11  25  48  80 113 162 216 268 343 420 502
#     4  12  28  51  79 117 164 214 279 340 412 501
#     4  12  28  51  81 116 164 217 273 341 416 499
#     4  12  28  50  80 119 159 216 278 344 417 503
#
# _framework density 25.084855000000001
#
# number of rings (size 3 to 8) (size 9 to 14) (size 15 to 20)
#    0.000    0.250    5.000    2.250    7.000    3.000 
#    0.000    2.500    0.000    0.000    0.000    0.000 
#    0.000    0.000    0.000    0.000    0.000    0.000 
#
# Total GULP energy -396625.730779 kJ/mol
# GULP energy per Si atom -12394.554087 kJ/mol
# Density = 2.502776 g / cm^3
# Si number density = 25.084855 Si / 1000 Ang^3
#
#
#
# Elastic Constant Matrix: (Units=GPa)
#
#
# Indices 1 2 3 4 5 6 
#
# 1 208.7079 62.6857 52.4384 0.0000 0.0000 0.0000
# 2 62.6857 88.7676 65.3191 0.0000 0.0000 0.0000
# 3 52.4384 65.3191 205.4284 0.0000 0.0000 0.0000
# 4 0.0000 0.0000 0.0000 38.3700 0.0000 0.0000
# 5 0.0000 0.0000 0.0000 0.0000 50.2018 0.0000
# 6 0.0000 0.0000 0.0000 0.0000 0.0000 45.0241
#
#
#
# Elastic Compliance Matrix: (Units=1/GPa)
#
#
# Indices 1 2 3 4 5 6 
#
# 1 0.006091 -0.004121 -0.000244 0.000000 0.000000 0.000000
# 2 -0.004121 0.017495 -0.004511 0.000000 0.000000 0.000000
# 3 -0.000244 -0.004511 0.006365 0.000000 0.000000 0.000000
# 4 0.000000 0.000000 0.000000 0.026062 0.000000 0.000000
# 5 0.000000 0.000000 0.000000 0.000000 0.019920 0.000000
# 6 0.000000 0.000000 0.000000 0.000000 0.000000 0.022210
#
#
# Mechanical properties :
#
#
# Convention : Reuss Voigt Hill
#
# Bulk Modulus (GPa) = 81.98492 95.97671 88.98081
# Shear Modulus (GPa) = 41.68039 48.21657 44.94848
#
# Velocity S-wave (km/s) = 4.08067 4.38898 4.23763
# Velocity P-wave (km/s) = 7.41326 8.00175 7.71312
#
# Compressibility (1/GPa) = 0.01219737
#
# Stress axis : x y z
#
# Youngs Moduli (GPa) = 164.18756 57.15931 157.12150
#
# Poissons Ratio (x) = 0.23557 0.03838
# Poissons Ratio (y) = 0.67666 0.70874
# Poissons Ratio (z) = 0.04011 0.25783
#
# Static dielectric constant tensor:
#      x y z
#    x 4.988260 0.000000 0.000000 
#    y 0.000000 4.604100 0.000000 
#    z 0.000000 0.000000 5.194460 
# 
# 
# High freq. dielectric constant tensor:
#      x y z
#    x 2.026850 0.000000 0.000000 
#    y 0.000000 1.991440 0.000000 
#    z 0.000000 0.000000 2.009900 
# 
# From -- ./inp_files/12816.got.cif
#   From: 2010.03.12/outbox.cif.g09.slc.cpg/sg68_7_cif.got.tgz:12816.got - 2010.04.10 23:14:56.
