data_PCOD8283961
_publ_section_title
;
Structure prediction by ZEFSAII (Michael W. Deem and Ramdas Pophale) SiO2 
 PCOD8283961
Probable space group: F M M M
;
_chemical_formula_sum "Si O2"
_cell_formula_units_Z 144
_cell_length_a 12.838385
_cell_length_b 19.742210
_cell_length_c 29.566057
_cell_angle_alpha 90.000000
_cell_angle_beta 90.000000
_cell_angle_gamma 90.000000
_cell_volume 7493.756417
_symmetry_space_group_name_H-M "F M M M"
_symmetry_group_IT_number 69
_symmetry_cell_setting 'orthorhombic'
loop_
_space_group_symop_operation_xyz
x,y,z
-x,-y,z
x,-y,-z
-x,y,-z
-x,-y,-z
x,y,-z
-x,y,z
x,-y,z
x,1/2+y,1/2+z
-x,1/2-y,1/2+z
x,1/2-y,1/2-z
-x,1/2+y,1/2-z
-x,1/2-y,1/2-z
x,1/2+y,1/2-z
-x,1/2+y,1/2+z
x,1/2-y,1/2+z
1/2+x,y,1/2+z
1/2-x,-y,1/2+z
1/2+x,-y,1/2-z
1/2-x,y,1/2-z
1/2-x,-y,1/2-z
1/2+x,y,1/2-z
1/2-x,y,1/2+z
1/2+x,-y,1/2+z
1/2+x,1/2+y,z
1/2-x,1/2-y,z
1/2+x,1/2-y,-z
1/2-x,1/2+y,-z
1/2-x,1/2-y,-z
1/2+x,1/2+y,-z
1/2-x,1/2+y,z
1/2+x,1/2-y,z
loop_
_atom_site_type_symbol
_atom_site_label
_atom_site_fract_x
_atom_site_fract_y
_atom_site_fract_z
Si Si1 0.500000 0.921756 0.553329
Si Si2 0.376751 0.423498 0.200366
Si Si3 0.122200 0.183075 0.272525
Si Si4 0.329249 0.149943 0.610316
Si Si5 0.617270 0.197588 0.874940
O O1 0.500000 0.914008 0.500000
O O2 0.605359 0.886505 0.571122
O O3 0.500000 0.000000 0.568715
O O4 0.500000 0.417939 0.194810
O O5 0.340049 0.500000 0.208723
O O6 0.336352 0.380306 0.243266
O O7 0.327103 0.396791 0.154290
O O8 0.171152 0.250000 0.250000
O O9 0.154137 0.176777 0.324634
O O10 0.000000 0.187101 0.269752
O O11 0.383448 0.221497 0.621186
O O12 0.208103 0.162942 0.594302
O O13 0.500000 0.171190 0.886803
#
# Coordination Sequence:
#
# PCOD8283961 Si02
#       5
#    16  32  32  32  32
#     4  11  24  44  70  95 118 142 185 252 317 375
#     4  10  18  30  51  79 114 155 204 258 296 332
#     4   9  16  29  48  76 115 162 209 246 285 335
#     4  11  20  35  60  88 115 154 198 243 301 361
#     4  10  20  35  56  84 124 163 199 239 288 352
#
# _framework density 19.215996000000001
#
# number of rings (size 3 to 8) (size 9 to 14) (size 15 to 20)
#    0.000    1.889    4.444    0.667    0.000    0.889 
#    0.000    5.556    0.000    5.333    0.000    1.556 
#    0.000    0.000    0.000    0.000    0.000    0.000 
#
# Total GULP energy -446180.675343 kJ/mol
# GULP energy per Si atom -12393.907648 kJ/mol
# Density = 1.917226 g / cm^3
# Si number density = 19.215996 Si / 1000 Ang^3
#
#
#
# Elastic Constant Matrix: (Units=GPa)
#
#
# Indices 1 2 3 4 5 6 
#
# 1 139.7126 35.5670 33.6956 0.0000 0.0000 0.0000
# 2 35.5670 133.7138 41.6523 0.0000 0.0000 0.0000
# 3 33.6956 41.6523 63.4326 0.0000 0.0000 0.0000
# 4 0.0000 0.0000 0.0000 25.3890 0.0000 0.0000
# 5 0.0000 0.0000 0.0000 0.0000 7.8088 0.0000
# 6 0.0000 0.0000 0.0000 0.0000 0.0000 -70.6204
#
#
#
# Elastic Compliance Matrix: (Units=1/GPa)
#
#
# Indices 1 2 3 4 5 6 
#
# 1 0.008325 -0.001052 -0.003732 0.000000 0.000000 0.000000
# 2 -0.001052 0.009535 -0.005702 0.000000 0.000000 0.000000
# 3 -0.003732 -0.005702 0.021491 0.000000 0.000000 0.000000
# 4 0.000000 0.000000 0.000000 0.039387 0.000000 0.000000
# 5 0.000000 0.000000 0.000000 0.000000 0.128060 0.000000
# 6 0.000000 0.000000 0.000000 0.000000 0.000000 -0.014160
#
#
# Mechanical properties :
#
#
# Convention : Reuss Voigt Hill
#
# Bulk Modulus (GPa) = 54.40743 62.07653 58.24198
# Shear Modulus (GPa) = 22.75456 7.57843 15.16650
#
# Velocity S-wave (km/s) = 3.44488 1.98806 2.81243
# Velocity P-wave (km/s) = 6.64816 6.13552 6.39697
#
# Compressibility (1/GPa) = 0.01837984
#
# Stress axis : x y z
#
# Youngs Moduli (GPa) = 120.11486 104.88026 46.53084
#
# Poissons Ratio (x) = 0.11034 0.17364
# Poissons Ratio (y) = 0.12637 0.26532
# Poissons Ratio (z) = 0.44822 0.59802
#
# Static dielectric constant tensor:
#      x y z
#    x 3.720950 0.000000 0.000000 
#    y 0.000000 3.671540 0.000000 
#    z 0.000000 0.000000 5.088540 
# 
# 
# High freq. dielectric constant tensor:
#      x y z
#    x 1.776620 0.000000 0.000000 
#    y 0.000000 1.741150 0.000000 
#    z 0.000000 0.000000 1.696670 
# 
# From -- ./inp_files/45611.got.cif
#   From: 2010.03.12/outbox.cif.g09.slc.cpg/sg69_23_cif.got.tgz:45611.got - 2010.04.10 23:52:46.
