data_PCOD8283332
_publ_section_title
;
Structure prediction by ZEFSAII (Michael W. Deem and Ramdas Pophale) SiO2 
 PCOD8283332
Probable space group: C C C A
;
_chemical_formula_sum "Si O2"
_cell_formula_units_Z 60
_cell_length_a 10.784370
_cell_length_b 24.756782
_cell_length_c 9.747688
_cell_angle_alpha 90.000000
_cell_angle_beta 90.000000
_cell_angle_gamma 90.000000
_cell_volume 2602.499124
_symmetry_space_group_name_H-M "C C C A"
_symmetry_group_IT_number 68
_space_group.IT_coordinate_system_code '2'
_symmetry_cell_setting 'orthorhombic'
loop_
_space_group_symop_operation_xyz
x,y,z
-x,1/2-y,z
x,1/2-y,1/2-z
-x,y,1/2-z
-x,-y,-z
x,1/2+y,-z
-x,1/2+y,1/2+z
x,-y,1/2+z
1/2+x,1/2+y,z
1/2-x,-y,z
1/2+x,-y,1/2-z
1/2-x,1/2+y,1/2-z
1/2-x,1/2-y,-z
1/2+x,y,-z
1/2-x,y,1/2+z
1/2+x,1/2-y,1/2+z
loop_
_atom_site_type_symbol
_atom_site_label
_atom_site_fract_x
_atom_site_fract_y
_atom_site_fract_z
Si Si1 0.368838 0.631265 0.696994
Si Si2 0.000000 0.750000 0.750000
Si Si3 0.146871 0.659138 0.896873
Si Si4 0.000000 0.574276 0.750000
Si Si5 0.380779 0.010884 0.407427
O O1 0.500000 0.654286 0.750000
O O2 0.270171 0.644163 0.814481
O O3 0.325411 0.662458 0.558899
O O4 0.383829 0.568053 0.666795
O O5 0.089236 0.715170 0.846950
O O6 0.045970 0.611341 0.876008
O O7 0.884869 0.536444 0.792887
O O8 0.500000 0.000000 0.500000
O O9 0.250000 0.000000 0.486424
#
# Coordination Sequence:
#
# PCOD8283332 Si02
#       5
#    16   4  16   8  16
#     4  12  28  45  78 114 156 195 255 314 384 466
#     4  10  28  56  84  96 148 200 258 328 396 442
#     4  11  27  51  75 108 147 199 258 319 381 451
#     4  11  22  41  70 104 154 207 248 299 364 452
#     4  12  25  40  69 110 161 213 249 300 373 462
#
# _framework density 23.054760999999999
#
# number of rings (size 3 to 8) (size 9 to 14) (size 15 to 20)
#    0.000    0.533    6.667    0.000   11.200    2.133 
#    0.000    0.000    0.000    0.000    0.000    0.000 
#    0.000    0.000    0.000    0.000    0.000    0.000 
#
# Total GULP energy -371950.696029 kJ/mol
# GULP energy per Si atom -12398.356534 kJ/mol
# Density = 2.300229 g / cm^3
# Si number density = 23.054761 Si / 1000 Ang^3
#
#
#
# Elastic Constant Matrix: (Units=GPa)
#
#
# Indices 1 2 3 4 5 6 
#
# 1 184.5216 51.0068 74.6289 0.0000 0.0000 0.0000
# 2 51.0068 125.2129 41.3818 0.0000 0.0000 0.0000
# 3 74.6289 41.3818 150.5087 0.0000 0.0000 0.0000
# 4 0.0000 0.0000 0.0000 15.8921 0.0000 0.0000
# 5 0.0000 0.0000 0.0000 0.0000 49.9483 0.0000
# 6 0.0000 0.0000 0.0000 0.0000 0.0000 29.7008
#
#
#
# Elastic Compliance Matrix: (Units=1/GPa)
#
#
# Indices 1 2 3 4 5 6 
#
# 1 0.007176 -0.001922 -0.003030 0.000000 0.000000 0.000000
# 2 -0.001922 0.009299 -0.001604 0.000000 0.000000 0.000000
# 3 -0.003030 -0.001604 0.008587 0.000000 0.000000 0.000000
# 4 0.000000 0.000000 0.000000 0.062924 0.000000 0.000000
# 5 0.000000 0.000000 0.000000 0.000000 0.020021 0.000000
# 6 0.000000 0.000000 0.000000 0.000000 0.000000 0.033669
#
#
# Mechanical properties :
#
#
# Convention : Reuss Voigt Hill
#
# Bulk Modulus (GPa) = 83.66998 88.25316 85.96157
# Shear Modulus (GPa) = 31.49169 38.65662 35.07416
#
# Velocity S-wave (km/s) = 3.69989 4.09923 3.90467
# Velocity P-wave (km/s) = 7.39073 7.79537 7.59575
#
# Compressibility (1/GPa) = 0.01195172
#
# Stress axis : x y z
#
# Youngs Moduli (GPa) = 139.35183 107.53414 116.44951
#
# Poissons Ratio (x) = 0.20667 0.35282
# Poissons Ratio (y) = 0.26782 0.18677
# Poissons Ratio (z) = 0.42221 0.17247
#
# Static dielectric constant tensor:
#      x y z
#    x 4.513900 0.000000 0.000000 
#    y 0.000000 4.237040 0.000000 
#    z 0.000000 0.000000 4.416630 
# 
# 
# High freq. dielectric constant tensor:
#      x y z
#    x 1.926390 0.000000 0.000000 
#    y 0.000000 1.905390 0.000000 
#    z 0.000000 0.000000 1.907820 
# 
# From -- ./inp_files/10640.got.cif
#   From: 2010.03.12/outbox.cif.g09.slc.cpg/sg68_6_cif.got.tgz:10640.got - 2010.04.10 23:14:56.
