data_PCOD8283146
_publ_section_title
;
Structure prediction by ZEFSAII (Michael W. Deem and Ramdas Pophale) SiO2 
 PCOD8283146
Probable space group: C C C A
;
_chemical_formula_sum "Si O2"
_cell_formula_units_Z 112
_cell_length_a 12.040463
_cell_length_b 28.665746
_cell_length_c 14.660831
_cell_angle_alpha 90.000000
_cell_angle_beta 90.000000
_cell_angle_gamma 90.000000
_cell_volume 5060.169020
_symmetry_space_group_name_H-M "C C C A"
_symmetry_group_IT_number 68
_space_group.IT_coordinate_system_code '2'
_symmetry_cell_setting 'orthorhombic'
loop_
_space_group_symop_operation_xyz
x,y,z
-x,1/2-y,z
x,1/2-y,1/2-z
-x,y,1/2-z
-x,-y,-z
x,1/2+y,-z
-x,1/2+y,1/2+z
x,-y,1/2+z
1/2+x,1/2+y,z
1/2-x,-y,z
1/2+x,-y,1/2-z
1/2-x,1/2+y,1/2-z
1/2-x,1/2-y,-z
1/2+x,y,-z
1/2-x,y,1/2+z
1/2+x,1/2-y,1/2+z
loop_
_atom_site_type_symbol
_atom_site_label
_atom_site_fract_x
_atom_site_fract_y
_atom_site_fract_z
Si Si1 0.830640 0.961192 0.599558
Si Si2 0.038256 0.198060 0.656095
Si Si3 0.730085 0.666229 0.147522
Si Si4 0.480803 0.305378 0.957789
Si Si5 0.441213 0.989863 0.153488
Si Si6 0.274117 0.063785 0.100452
Si Si7 0.102839 0.367251 0.187894
O O1 0.771210 0.950452 0.504599
O O2 0.832548 0.913584 0.657219
O O3 0.956495 0.980556 0.583135
O O4 0.750000 0.000000 0.648368
O O5 0.170644 0.202617 0.650092
O O6 0.000000 0.250000 0.663521
O O7 0.000000 0.171180 0.750000
O O8 0.990481 0.176192 0.562022
O O9 0.642930 0.683673 0.073607
O O10 0.785941 0.618244 0.114820
O O11 0.682043 0.663910 0.249385
O O12 0.500000 0.250000 0.947852
O O13 0.567155 0.335012 0.896967
O O14 0.500000 0.984855 0.250000
O O15 0.343986 0.951480 0.143333
O O16 0.383495 0.040251 0.144716
O O17 0.000000 0.383834 0.250000
#
# Coordination Sequence:
#
# PCOD8283146 Si02
#       7
#    16  16  16  16  16  16  16
#     4  12  24  42  69  98 134 183 230 284 347 409
#     4  10  24  43  65 101 140 177 216 276 349 412
#     4  11  24  43  68 100 140 178 232 283 341 411
#     4  10  23  45  75 102 131 183 234 283 346 408
#     4  11  24  43  65  91 134 168 232 285 335 412
#     4  11  25  43  64  97 129 181 228 282 349 403
#     4  10  23  44  69 103 137 176 235 293 336 402
#
# _framework density 22.133645999999999
#
# number of rings (size 3 to 8) (size 9 to 14) (size 15 to 20)
#    0.000    1.286    1.429    4.286    4.000   10.000 
#    0.000    0.000    0.000    0.000    0.000    0.000 
#    0.000    0.000    0.000    0.000    0.000    0.000 
#
# Total GULP energy -694228.495985 kJ/mol
# GULP energy per Si atom -12396.937428 kJ/mol
# Density = 2.208327 g / cm^3
# Si number density = 22.133646 Si / 1000 Ang^3
#
#
#
# Elastic Constant Matrix: (Units=GPa)
#
#
# Indices 1 2 3 4 5 6 
#
# 1 163.4133 47.7731 67.8599 0.0000 0.0000 0.0000
# 2 47.7731 99.9725 45.4678 0.0000 0.0000 0.0000
# 3 67.8599 45.4678 177.1804 0.0000 0.0000 0.0000
# 4 0.0000 0.0000 0.0000 26.6597 0.0000 0.0000
# 5 0.0000 0.0000 0.0000 0.0000 28.9301 0.0000
# 6 0.0000 0.0000 0.0000 0.0000 0.0000 44.4832
#
#
#
# Elastic Compliance Matrix: (Units=1/GPa)
#
#
# Indices 1 2 3 4 5 6 
#
# 1 0.007875 -0.002707 -0.002321 0.000000 0.000000 0.000000
# 2 -0.002707 0.012255 -0.002108 0.000000 0.000000 0.000000
# 3 -0.002321 -0.002108 0.007074 0.000000 0.000000 0.000000
# 4 0.000000 0.000000 0.000000 0.037510 0.000000 0.000000
# 5 0.000000 0.000000 0.000000 0.000000 0.034566 0.000000
# 6 0.000000 0.000000 0.000000 0.000000 0.000000 0.022480
#
#
# Mechanical properties :
#
#
# Convention : Reuss Voigt Hill
#
# Bulk Modulus (GPa) = 77.33519 84.75199 81.04359
# Shear Modulus (GPa) = 35.62676 38.64564 37.13620
#
# Velocity S-wave (km/s) = 4.01636 4.18307 4.10056
# Velocity P-wave (km/s) = 7.51825 7.85524 7.68860
#
# Compressibility (1/GPa) = 0.01293072
#
# Stress axis : x y z
#
# Youngs Moduli (GPa) = 126.98572 81.59787 141.36320
#
# Poissons Ratio (x) = 0.22092 0.32815
# Poissons Ratio (y) = 0.34380 0.29799
# Poissons Ratio (z) = 0.29477 0.17201
#
# Static dielectric constant tensor:
#      x y z
#    x 4.435550 0.000000 0.000000 
#    y 0.000000 3.898890 0.000000 
#    z 0.000000 0.000000 4.823690 
# 
# 
# High freq. dielectric constant tensor:
#      x y z
#    x 1.878170 0.000000 0.000000 
#    y 0.000000 1.862430 0.000000 
#    z 0.000000 0.000000 1.887580 
# 
# From -- ./inp_files/21232.got.cif
#   From: 2010.03.12/outbox.cif.g09.slc.cpg/sg68_11_cif.got.tgz:21232.got - 2010.04.10 23:14:56.
