data_PCOD8283128
_publ_section_title
;
Structure prediction by ZEFSAII (Michael W. Deem and Ramdas Pophale) SiO2 
 PCOD8283128
Probable space group: C C C A
;
_chemical_formula_sum "Si O2"
_cell_formula_units_Z 88
_cell_length_a 20.933520
_cell_length_b 7.670799
_cell_length_c 25.218883
_cell_angle_alpha 90.000000
_cell_angle_beta 90.000000
_cell_angle_gamma 90.000000
_cell_volume 4049.568144
_symmetry_space_group_name_H-M "C C C A"
_symmetry_group_IT_number 68
_space_group.IT_coordinate_system_code '2'
_symmetry_cell_setting 'orthorhombic'
loop_
_space_group_symop_operation_xyz
x,y,z
-x,1/2-y,z
x,1/2-y,1/2-z
-x,y,1/2-z
-x,-y,-z
x,1/2+y,-z
-x,1/2+y,1/2+z
x,-y,1/2+z
1/2+x,1/2+y,z
1/2-x,-y,z
1/2+x,-y,1/2-z
1/2-x,1/2+y,1/2-z
1/2-x,1/2-y,-z
1/2+x,y,-z
1/2-x,y,1/2+z
1/2+x,1/2-y,1/2+z
loop_
_atom_site_type_symbol
_atom_site_label
_atom_site_fract_x
_atom_site_fract_y
_atom_site_fract_z
Si Si1 0.996405 0.052509 0.405512
Si Si2 0.609572 0.750000 0.750000
Si Si3 0.358732 0.611146 0.445037
Si Si4 0.370553 0.007027 0.439306
Si Si5 0.500000 0.250000 0.325753
Si Si6 0.250000 0.000000 0.128834
Si Si7 0.697209 0.645447 0.837875
O O1 0.052676 0.009488 0.447305
O O2 0.000000 0.250000 0.383344
O O3 0.928061 0.026518 0.432839
O O4 0.015638 0.920225 0.359257
O O5 0.560288 0.670882 0.707080
O O6 0.654491 0.620979 0.784495
O O7 0.346614 0.811137 0.429842
O O8 0.342434 0.588522 0.506992
O O9 0.311135 0.507369 0.408441
O O10 0.346889 0.125846 0.390376
O O11 0.265869 0.168333 0.164871
O O12 0.750000 0.500000 0.837662
#
# Coordination Sequence:
#
# PCOD8283128 Si02
#       7
#    16   8  16  16   8   8  16
#     4  10  23  43  68 103 137 174 225 278 330 398
#     4  11  26  46  72  98 122 175 232 284 356 391
#     4  11  24  39  68 105 142 188 220 265 337 410
#     4  11  23  43  67 101 143 180 227 276 328 405
#     4  11  22  46  74  94 130 174 222 292 343 396
#     4  12  26  44  68 100 140 184 226 268 342 414
#     4  12  26  48  68  98 137 176 230 291 338 410
#
# _framework density 21.730713000000002
#
# number of rings (size 3 to 8) (size 9 to 14) (size 15 to 20)
#    0.000    0.909    3.636    2.727    5.091    1.455 
#    0.000    3.636    0.000    0.000    0.000    0.000 
#    0.000    0.000    0.000    0.000    0.000    0.000 
#
# Total GULP energy -545144.563222 kJ/mol
# GULP energy per Si atom -12389.649164 kJ/mol
# Density = 2.168125 g / cm^3
# Si number density = 21.730713 Si / 1000 Ang^3
#
#
#
# Elastic Constant Matrix: (Units=GPa)
#
#
# Indices 1 2 3 4 5 6 
#
# 1 110.8053 39.0041 30.3329 0.0000 0.0000 0.0000
# 2 39.0041 101.1765 31.0590 0.0000 0.0000 0.0000
# 3 30.3329 31.0590 101.2728 0.0000 0.0000 0.0000
# 4 0.0000 0.0000 0.0000 24.4507 0.0000 0.0000
# 5 0.0000 0.0000 0.0000 0.0000 37.2862 0.0000
# 6 0.0000 0.0000 0.0000 0.0000 0.0000 27.2979
#
#
#
# Elastic Compliance Matrix: (Units=1/GPa)
#
#
# Indices 1 2 3 4 5 6 
#
# 1 0.010858 -0.003519 -0.002173 0.000000 0.000000 0.000000
# 2 -0.003519 0.012051 -0.002642 0.000000 0.000000 0.000000
# 3 -0.002173 -0.002642 0.011335 0.000000 0.000000 0.000000
# 4 0.000000 0.000000 0.000000 0.040899 0.000000 0.000000
# 5 0.000000 0.000000 0.000000 0.000000 0.026820 0.000000
# 6 0.000000 0.000000 0.000000 0.000000 0.000000 0.036633
#
#
# Mechanical properties :
#
#
# Convention : Reuss Voigt Hill
#
# Bulk Modulus (GPa) = 56.89182 57.11629 57.00406
# Shear Modulus (GPa) = 31.03216 31.99754 31.51485
#
# Velocity S-wave (km/s) = 3.78303 3.84142 3.81234
# Velocity P-wave (km/s) = 6.73194 6.78352 6.75778
#
# Compressibility (1/GPa) = 0.01757722
#
# Stress axis : x y z
#
# Youngs Moduli (GPa) = 92.09477 82.97856 88.21877
#
# Poissons Ratio (x) = 0.29199 0.19171
# Poissons Ratio (y) = 0.32407 0.23308
# Poissons Ratio (z) = 0.20013 0.21923
#
# Static dielectric constant tensor:
#      x y z
#    x 4.285010 0.000000 0.000000 
#    y 0.000000 3.766160 0.000000 
#    z 0.000000 0.000000 3.831360 
# 
# 
# High freq. dielectric constant tensor:
#      x y z
#    x 1.875200 0.000000 0.000000 
#    y 0.000000 1.843740 0.000000 
#    z 0.000000 0.000000 1.845870 
# 
# From -- ./inp_files/46518.got.cif
#   From: 2010.03.12/outbox.cif.g09.slc.cpg/sg68_24_cif.got.tgz:46518.got - 2010.04.10 23:14:56.
