data_PCOD8283911
_publ_section_title
;
Structure prediction by ZEFSAII (Michael W. Deem and Ramdas Pophale) SiO2 
 PCOD8283911
Probable space group: F M M M
;
_chemical_formula_sum "Si O2"
_cell_formula_units_Z 144
_cell_length_a 28.168764
_cell_length_b 16.652125
_cell_length_c 19.077064
_cell_angle_alpha 90.000000
_cell_angle_beta 90.000000
_cell_angle_gamma 90.000000
_cell_volume 8948.474199
_symmetry_space_group_name_H-M "F M M M"
_symmetry_group_IT_number 69
_symmetry_cell_setting 'orthorhombic'
loop_
_space_group_symop_operation_xyz
x,y,z
-x,-y,z
x,-y,-z
-x,y,-z
-x,-y,-z
x,y,-z
-x,y,z
x,-y,z
x,1/2+y,1/2+z
-x,1/2-y,1/2+z
x,1/2-y,1/2-z
-x,1/2+y,1/2-z
-x,1/2-y,1/2-z
x,1/2+y,1/2-z
-x,1/2+y,1/2+z
x,1/2-y,1/2+z
1/2+x,y,1/2+z
1/2-x,-y,1/2+z
1/2+x,-y,1/2-z
1/2-x,y,1/2-z
1/2-x,-y,1/2-z
1/2+x,y,1/2-z
1/2-x,y,1/2+z
1/2+x,-y,1/2+z
1/2+x,1/2+y,z
1/2-x,1/2-y,z
1/2+x,1/2-y,-z
1/2-x,1/2+y,-z
1/2-x,1/2-y,-z
1/2+x,1/2+y,-z
1/2-x,1/2+y,z
1/2+x,1/2-y,z
loop_
_atom_site_type_symbol
_atom_site_label
_atom_site_fract_x
_atom_site_fract_y
_atom_site_fract_z
Si Si1 0.735206 0.158347 0.853794
Si Si2 0.500000 0.095694 0.419133
Si Si3 0.819812 0.406858 0.269880
Si Si4 0.655575 0.904508 0.500000
Si Si5 0.263000 0.094791 0.000000
Si Si6 0.900295 0.595306 0.368318
O O1 0.750000 0.250000 0.854683
O O2 0.780664 0.104626 0.831495
O O3 0.692976 0.146792 0.797429
O O4 0.714353 0.130906 0.929059
O O5 0.500000 0.127278 0.500000
O O6 0.454272 0.127662 0.375333
O O7 0.500000 0.000000 0.421818
O O8 0.819657 0.500000 0.248325
O O9 0.872309 0.380046 0.297210
O O10 0.709097 0.874186 0.500000
O O11 0.629271 0.868218 0.432719
O O12 0.653833 0.000000 0.500000
O O13 0.269450 0.000000 0.000000
O O14 0.900517 0.500000 0.374319
#
# Coordination Sequence:
#
# PCOD8283911 Si02
#       6
#    32  16  32  16  16  32
#     4  11  21  31  43  64  89 117 149 191 226 257
#     4   9  14  20  34  60  93 117 139 181 233 268
#     4  10  18  30  45  61  85 122 159 180 212 264
#     4   9  14  22  37  60  84 113 142 171 207 257
#     4  11  19  31  48  65  87 114 151 184 219 272
#     4   9  15  23  38  60  87 117 148 180 218 268
#
# _framework density 16.092129
#
# number of rings (size 3 to 8) (size 9 to 14) (size 15 to 20)
#    0.000    2.111    3.333    4.333    0.000    0.000 
#    0.000    0.000    0.000    0.000    0.000    3.111 
#    0.000    0.889    0.000    8.333    0.000    0.000 
#
# Total GULP energy -446141.897543 kJ/mol
# GULP energy per Si atom -12392.830487 kJ/mol
# Density = 1.605550 g / cm^3
# Si number density = 16.092129 Si / 1000 Ang^3
#
#
#
# Elastic Constant Matrix: (Units=GPa)
#
#
# Indices 1 2 3 4 5 6 
#
# 1 95.7650 10.1772 46.3198 0.0000 0.0000 0.0000
# 2 10.1772 56.4609 34.5592 0.0000 0.0000 0.0000
# 3 46.3198 34.5592 126.0593 0.0000 0.0000 0.0000
# 4 0.0000 0.0000 0.0000 16.3724 0.0000 0.0000
# 5 0.0000 0.0000 0.0000 0.0000 27.4194 0.0000
# 6 0.0000 0.0000 0.0000 0.0000 0.0000 4.7251
#
#
#
# Elastic Compliance Matrix: (Units=1/GPa)
#
#
# Indices 1 2 3 4 5 6 
#
# 1 0.012721 0.000683 -0.004861 0.000000 0.000000 0.000000
# 2 0.000683 0.021319 -0.006096 0.000000 0.000000 0.000000
# 3 -0.004861 -0.006096 0.011390 0.000000 0.000000 0.000000
# 4 0.000000 0.000000 0.000000 0.061078 0.000000 0.000000
# 5 0.000000 0.000000 0.000000 0.000000 0.036470 0.000000
# 6 0.000000 0.000000 0.000000 0.000000 0.000000 0.211637
#
#
# Mechanical properties :
#
#
# Convention : Reuss Voigt Hill
#
# Bulk Modulus (GPa) = 40.18986 51.15531 45.67258
# Shear Modulus (GPa) = 13.03919 22.18532 17.61226
#
# Velocity S-wave (km/s) = 2.84964 3.71704 3.31186
# Velocity P-wave (km/s) = 5.98801 7.09083 6.56263
#
# Compressibility (1/GPa) = 0.02488190
#
# Stress axis : x y z
#
# Youngs Moduli (GPa) = 78.60978 46.90581 87.79501
#
# Poissons Ratio (x) = -0.03202 0.42681
# Poissons Ratio (y) = -0.05366 0.53516
# Poissons Ratio (z) = 0.38216 0.28592
#
# Static dielectric constant tensor:
#      x y z
#    x 3.170960 0.000000 0.000000 
#    y 0.000000 2.619150 0.000000 
#    z 0.000000 0.000000 3.196320 
# 
# 
# High freq. dielectric constant tensor:
#      x y z
#    x 1.591920 0.000000 0.000000 
#    y 0.000000 1.574480 0.000000 
#    z 0.000000 0.000000 1.619720 
# 
# From -- ./inp_files/27444.got.cif
#   From: 2010.03.12/outbox.cif.g09.slc.cpg/sg69_14_cif.got.tgz:27444.got - 2010.04.10 23:52:46.
