data_PCOD8283718
_publ_section_title
;
Structure prediction by ZEFSAII (Michael W. Deem and Ramdas Pophale) SiO2 
 PCOD8283718
Probable space group: C C C A
;
_chemical_formula_sum "Si O2"
_cell_formula_units_Z 40
_cell_length_a 13.529928
_cell_length_b 8.494862
_cell_length_c 11.816672
_cell_angle_alpha 90.000000
_cell_angle_beta 90.000000
_cell_angle_gamma 90.000000
_cell_volume 1358.147675
_symmetry_space_group_name_H-M "C C C A"
_symmetry_group_IT_number 68
_space_group.IT_coordinate_system_code '2'
_symmetry_cell_setting 'orthorhombic'
loop_
_space_group_symop_operation_xyz
x,y,z
-x,1/2-y,z
x,1/2-y,1/2-z
-x,y,1/2-z
-x,-y,-z
x,1/2+y,-z
-x,1/2+y,1/2+z
x,-y,1/2+z
1/2+x,1/2+y,z
1/2-x,-y,z
1/2+x,-y,1/2-z
1/2-x,1/2+y,1/2-z
1/2-x,1/2-y,-z
1/2+x,y,-z
1/2-x,y,1/2+z
1/2+x,1/2-y,1/2+z
loop_
_atom_site_type_symbol
_atom_site_label
_atom_site_fract_x
_atom_site_fract_y
_atom_site_fract_z
Si Si1 0.142946 0.274029 0.053194
Si Si2 0.750000 0.000000 0.709239
Si Si3 0.582198 0.944405 0.845816
O O1 0.161656 0.414065 0.142197
O O2 0.092038 0.127078 0.115155
O O3 0.250000 0.250000 0.000000
O O4 0.066663 0.337415 0.957222
O O5 0.813383 0.113666 0.791591
O O6 0.500000 0.917396 0.750000
#
# Coordination Sequence:
#
# PCOD8283718 Si02
#       3
#    16   8  16
#     4  12  24  54  86 121 175 230 292 361 438 527
#     4  12  24  48  90 120 174 228 282 362 438 514
#     4  12  29  53  88 131 172 232 296 365 438 528
#
# _framework density 29.451879999999999
#
# number of rings (size 3 to 8) (size 9 to 14) (size 15 to 20)
#    0.000    0.000    8.000    1.200    0.000    4.800 
#    7.200    4.000    0.000    0.000    0.000    0.000 
#    0.000    0.000    0.000    0.000    0.000    0.000 
#
# Total GULP energy -247800.143118 kJ/mol
# GULP energy per Si atom -12390.007156 kJ/mol
# Density = 2.938485 g / cm^3
# Si number density = 29.451880 Si / 1000 Ang^3
#
#
#
# Elastic Constant Matrix: (Units=GPa)
#
#
# Indices 1 2 3 4 5 6 
#
# 1 119.9267 22.1698 68.6916 0.0000 0.0000 0.0000
# 2 22.1698 122.2112 76.3362 0.0000 0.0000 0.0000
# 3 68.6916 76.3362 208.8351 0.0000 0.0000 0.0000
# 4 0.0000 0.0000 0.0000 89.7418 0.0000 0.0000
# 5 0.0000 0.0000 0.0000 0.0000 81.2106 0.0000
# 6 0.0000 0.0000 0.0000 0.0000 0.0000 40.1236
#
#
#
# Elastic Compliance Matrix: (Units=1/GPa)
#
#
# Indices 1 2 3 4 5 6 
#
# 1 0.010284 0.000321 -0.003500 0.000000 0.000000 0.000000
# 2 0.000321 0.010614 -0.003985 0.000000 0.000000 0.000000
# 3 -0.003500 -0.003985 0.007396 0.000000 0.000000 0.000000
# 4 0.000000 0.000000 0.000000 0.011143 0.000000 0.000000
# 5 0.000000 0.000000 0.000000 0.000000 0.012314 0.000000
# 6 0.000000 0.000000 0.000000 0.000000 0.000000 0.024923
#
#
# Mechanical properties :
#
#
# Convention : Reuss Voigt Hill
#
# Bulk Modulus (GPa) = 71.60734 87.26313 79.43523
# Shear Modulus (GPa) = 52.27011 61.13357 56.70184
#
# Velocity S-wave (km/s) = 4.21736 4.56094 4.39251
# Velocity P-wave (km/s) = 6.93405 7.57823 7.26328
#
# Compressibility (1/GPa) = 0.01396505
#
# Stress axis : x y z
#
# Youngs Moduli (GPa) = 97.24059 94.21901 135.20270
#
# Poissons Ratio (x) = -0.03020 0.47318
# Poissons Ratio (y) = -0.03117 0.53879
# Poissons Ratio (z) = 0.34032 0.37547
#
# Static dielectric constant tensor:
#      x y z
#    x 5.343210 0.000000 0.000000 
#    y 0.000000 4.260770 0.000000 
#    z 0.000000 0.000000 7.177480 
# 
# 
# High freq. dielectric constant tensor:
#      x y z
#    x 2.211200 0.000000 0.000000 
#    y 0.000000 2.192250 0.000000 
#    z 0.000000 0.000000 2.236110 
# 
# From -- ./inp_files/21385.got.cif
#   From: 2010.03.12/outbox.cif.g09.slc.cpg/sg68_11_cif.got.tgz:21385.got - 2010.04.10 23:14:56.
