data_PCOD8283742
_publ_section_title
;
Structure prediction by ZEFSAII (Michael W. Deem and Ramdas Pophale) SiO2 
 PCOD8283742
Probable space group: C C C A
;
_chemical_formula_sum "Si O2"
_cell_formula_units_Z 60
_cell_length_a 26.641449
_cell_length_b 9.022121
_cell_length_c 10.479185
_cell_angle_alpha 90.000000
_cell_angle_beta 90.000000
_cell_angle_gamma 90.000000
_cell_volume 2518.801810
_symmetry_space_group_name_H-M "C C C A"
_symmetry_group_IT_number 68
_space_group.IT_coordinate_system_code '2'
_symmetry_cell_setting 'orthorhombic'
loop_
_space_group_symop_operation_xyz
x,y,z
-x,1/2-y,z
x,1/2-y,1/2-z
-x,y,1/2-z
-x,-y,-z
x,1/2+y,-z
-x,1/2+y,1/2+z
x,-y,1/2+z
1/2+x,1/2+y,z
1/2-x,-y,z
1/2+x,-y,1/2-z
1/2-x,1/2+y,1/2-z
1/2-x,1/2-y,-z
1/2+x,y,-z
1/2-x,y,1/2+z
1/2+x,1/2-y,1/2+z
loop_
_atom_site_type_symbol
_atom_site_label
_atom_site_fract_x
_atom_site_fract_y
_atom_site_fract_z
Si Si1 0.088536 0.750000 0.750000
Si Si2 0.207259 0.720767 0.395172
Si Si3 0.500000 0.250000 0.250000
Si Si4 0.953726 0.998722 0.092980
Si Si5 0.855528 0.936718 0.955597
O O1 0.048902 0.637827 0.686842
O O2 0.127680 0.667880 0.841068
O O3 0.226458 0.750000 0.250000
O O4 0.250000 0.750000 0.500000
O O5 0.164344 0.839298 0.426411
O O6 0.186147 0.553483 0.406910
O O7 0.460201 0.346998 0.170554
O O8 0.904039 0.017698 0.009637
O O9 0.000000 0.000000 0.000000
#
# Coordination Sequence:
#
# PCOD8283742 Si02
#       5
#     8  16   4  16  16
#     4  12  26  49  80 111 166 211 268 330 405 480
#     4  12  30  52  84 117 160 207 271 336 408 485
#     4  12  28  42  76 108 160 204 272 324 394 478
#     4  12  27  48  73 115 157 214 263 329 397 482
#     4  12  27  51  80 116 158 210 269 328 410 476
#
# _framework density 23.82085
#
# number of rings (size 3 to 8) (size 9 to 14) (size 15 to 20)
#    0.000    0.000    2.667    5.600    7.467    5.867 
#    0.000    0.000    0.000    0.000    0.000    0.000 
#    0.000    0.000    0.000    0.000    0.000    0.000 
#
# Total GULP energy -372004.198163 kJ/mol
# GULP energy per Si atom -12400.139939 kJ/mol
# Density = 2.376663 g / cm^3
# Si number density = 23.820850 Si / 1000 Ang^3
#
#
#
# Elastic Constant Matrix: (Units=GPa)
#
#
# Indices 1 2 3 4 5 6 
#
# 1 126.2219 49.5356 69.6732 0.0000 0.0000 0.0000
# 2 49.5356 165.6973 77.6283 0.0000 0.0000 0.0000
# 3 69.6732 77.6283 186.4166 0.0000 0.0000 0.0000
# 4 0.0000 0.0000 0.0000 50.2071 0.0000 0.0000
# 5 0.0000 0.0000 0.0000 0.0000 35.1741 0.0000
# 6 0.0000 0.0000 0.0000 0.0000 0.0000 48.0482
#
#
#
# Elastic Compliance Matrix: (Units=1/GPa)
#
#
# Indices 1 2 3 4 5 6 
#
# 1 0.010307 -0.001586 -0.003192 0.000000 0.000000 0.000000
# 2 -0.001586 0.007742 -0.002631 0.000000 0.000000 0.000000
# 3 -0.003192 -0.002631 0.007653 0.000000 0.000000 0.000000
# 4 0.000000 0.000000 0.000000 0.019918 0.000000 0.000000
# 5 0.000000 0.000000 0.000000 0.000000 0.028430 0.000000
# 6 0.000000 0.000000 0.000000 0.000000 0.000000 0.020812
#
#
# Mechanical properties :
#
#
# Convention : Reuss Voigt Hill
#
# Bulk Modulus (GPa) = 91.87862 96.88999 94.38430
# Shear Modulus (GPa) = 44.12784 45.45246 44.79015
#
# Velocity S-wave (km/s) = 4.30872 4.37291 4.34094
# Velocity P-wave (km/s) = 7.96291 8.13998 8.05193
#
# Compressibility (1/GPa) = 0.01088393
#
# Stress axis : x y z
#
# Youngs Moduli (GPa) = 97.02380 129.16713 130.66900
#
# Poissons Ratio (x) = 0.20485 0.41706
# Poissons Ratio (y) = 0.15387 0.34381
# Poissons Ratio (z) = 0.30967 0.33986
#
# Static dielectric constant tensor:
#      x y z
#    x 4.150050 0.000000 0.000000 
#    y 0.000000 4.453170 0.000000 
#    z 0.000000 0.000000 4.462150 
# 
# 
# High freq. dielectric constant tensor:
#      x y z
#    x 1.952390 0.000000 0.000000 
#    y 0.000000 1.963250 0.000000 
#    z 0.000000 0.000000 1.959840 
# 
# From -- ./inp_files/16876.got.cif
#   From: 2010.03.12/outbox.cif.g09.slc.cpg/sg68_9_cif.got.tgz:16876.got - 2010.04.10 23:14:56.
