data_PCOD8283836
_publ_section_title
;
Structure prediction by ZEFSAII (Michael W. Deem and Ramdas Pophale) SiO2 
 PCOD8283836
Probable space group: F M M M
;
_chemical_formula_sum "Si O2"
_cell_formula_units_Z 160
_cell_length_a 16.215297
_cell_length_b 28.435926
_cell_length_c 19.993463
_cell_angle_alpha 90.000000
_cell_angle_beta 90.000000
_cell_angle_gamma 90.000000
_cell_volume 9218.925520
_symmetry_space_group_name_H-M "F M M M"
_symmetry_group_IT_number 69
_symmetry_cell_setting 'orthorhombic'
loop_
_space_group_symop_operation_xyz
x,y,z
-x,-y,z
x,-y,-z
-x,y,-z
-x,-y,-z
x,y,-z
-x,y,z
x,-y,z
x,1/2+y,1/2+z
-x,1/2-y,1/2+z
x,1/2-y,1/2-z
-x,1/2+y,1/2-z
-x,1/2-y,1/2-z
x,1/2+y,1/2-z
-x,1/2+y,1/2+z
x,1/2-y,1/2+z
1/2+x,y,1/2+z
1/2-x,-y,1/2+z
1/2+x,-y,1/2-z
1/2-x,y,1/2-z
1/2-x,-y,1/2-z
1/2+x,y,1/2-z
1/2-x,y,1/2+z
1/2+x,-y,1/2+z
1/2+x,1/2+y,z
1/2-x,1/2-y,z
1/2+x,1/2-y,-z
1/2-x,1/2+y,-z
1/2-x,1/2-y,-z
1/2+x,1/2+y,-z
1/2-x,1/2+y,z
1/2+x,1/2-y,z
loop_
_atom_site_type_symbol
_atom_site_label
_atom_site_fract_x
_atom_site_fract_y
_atom_site_fract_z
Si Si1 0.864626 0.208630 0.667299
Si Si2 0.000000 0.573560 0.079002
Si Si3 0.592796 0.310554 0.810678
Si Si4 0.681256 0.052503 0.077977
Si Si5 0.000000 0.677661 0.922100
Si Si6 0.262907 0.371487 0.826083
O O1 0.851130 0.264701 0.672399
O O2 0.915747 0.188604 0.730411
O O3 0.917641 0.203289 0.600551
O O4 0.782090 0.178238 0.661085
O O5 0.914184 0.550188 0.103460
O O6 0.000000 0.625604 0.108488
O O7 0.000000 0.571042 0.000000
O O8 0.500000 0.308986 0.841362
O O9 0.640625 0.357376 0.836580
O O10 0.735171 0.088452 0.122075
O O11 0.718008 0.000000 0.086663
O O12 0.685871 0.068439 0.000000
O O13 0.000000 0.675835 0.000000
O O14 0.250000 0.389642 0.750000
#
# Coordination Sequence:
#
# PCOD8283836 Si02
#       6
#    32  16  32  32  16  32
#     4  10  17  32  49  74 104 135 169 201 248 300
#     4   9  17  30  52  79 104 129 158 196 250 323
#     4  10  18  31  52  72  98 139 176 210 241 286
#     4  10  20  35  55  77 103 135 168 205 259 320
#     4  11  18  26  49  78 106 132 157 198 255 311
#     4  10  21  32  51  78 104 133 170 216 252 296
#
# _framework density 17.355602000000001
#
# number of rings (size 3 to 8) (size 9 to 14) (size 15 to 20)
#    0.000    2.000    4.000    1.500    0.000    4.000 
#    0.000    1.000    0.000    3.000    0.000    1.400 
#    0.000    0.000    0.000    0.000    0.000    0.000 
#
# Total GULP energy -495528.230408 kJ/mol
# GULP energy per Si atom -12388.205760 kJ/mol
# Density = 1.731610 g / cm^3
# Si number density = 17.355602 Si / 1000 Ang^3
#
#
#
# Elastic Constant Matrix: (Units=GPa)
#
#
# Indices 1 2 3 4 5 6 
#
# 1 75.6057 51.3033 30.7564 0.0000 0.0000 0.0000
# 2 51.3033 102.2996 48.3870 0.0000 0.0000 0.0000
# 3 30.7564 48.3870 61.8813 0.0000 0.0000 0.0000
# 4 0.0000 0.0000 0.0000 25.4035 0.0000 0.0000
# 5 0.0000 0.0000 0.0000 0.0000 7.5061 0.0000
# 6 0.0000 0.0000 0.0000 0.0000 0.0000 25.9853
#
#
#
# Elastic Compliance Matrix: (Units=1/GPa)
#
#
# Indices 1 2 3 4 5 6 
#
# 1 0.020493 -0.008664 -0.003411 0.000000 0.000000 0.000000
# 2 -0.008664 0.019175 -0.010688 0.000000 0.000000 0.000000
# 3 -0.003411 -0.010688 0.026212 0.000000 0.000000 0.000000
# 4 0.000000 0.000000 0.000000 0.039365 0.000000 0.000000
# 5 0.000000 0.000000 0.000000 0.000000 0.133224 0.000000
# 6 0.000000 0.000000 0.000000 0.000000 0.000000 0.038483
#
#
# Mechanical properties :
#
#
# Convention : Reuss Voigt Hill
#
# Bulk Modulus (GPa) = 49.12622 55.63113 52.37867
# Shear Modulus (GPa) = 15.18539 19.06831 17.12685
#
# Velocity S-wave (km/s) = 2.96118 3.31824 3.14478
# Velocity P-wave (km/s) = 6.32918 6.84136 6.59025
#
# Compressibility (1/GPa) = 0.02035573
#
# Stress axis : x y z
#
# Youngs Moduli (GPa) = 48.79678 52.15003 38.14995
#
# Poissons Ratio (x) = 0.45183 0.13013
# Poissons Ratio (y) = 0.42278 0.40774
# Poissons Ratio (z) = 0.16644 0.55736
#
# Static dielectric constant tensor:
#      x y z
#    x 3.218470 0.000000 0.000000 
#    y 0.000000 3.246020 0.000000 
#    z 0.000000 0.000000 3.000280 
# 
# 
# High freq. dielectric constant tensor:
#      x y z
#    x 1.663060 0.000000 0.000000 
#    y 0.000000 1.660610 0.000000 
#    z 0.000000 0.000000 1.637460 
# 
# From -- ./inp_files/31128.got.cif
#   From: 2010.03.12/outbox.cif.g09.slc.cpg/sg69_16_cif.got.tgz:31128.got - 2010.04.10 23:52:46.
