data_PCOD8283825
_publ_section_title
;
Structure prediction by ZEFSAII (Michael W. Deem and Ramdas Pophale) SiO2 
 PCOD8283825
Probable space group: F M M M
;
_chemical_formula_sum "Si O2"
_cell_formula_units_Z 208
_cell_length_a 17.869103
_cell_length_b 30.082727
_cell_length_c 21.212964
_cell_angle_alpha 90.000000
_cell_angle_beta 90.000000
_cell_angle_gamma 90.000000
_cell_volume 11403.057378
_symmetry_space_group_name_H-M "F M M M"
_symmetry_group_IT_number 69
_symmetry_cell_setting 'orthorhombic'
loop_
_space_group_symop_operation_xyz
x,y,z
-x,-y,z
x,-y,-z
-x,y,-z
-x,-y,-z
x,y,-z
-x,y,z
x,-y,z
x,1/2+y,1/2+z
-x,1/2-y,1/2+z
x,1/2-y,1/2-z
-x,1/2+y,1/2-z
-x,1/2-y,1/2-z
x,1/2+y,1/2-z
-x,1/2+y,1/2+z
x,1/2-y,1/2+z
1/2+x,y,1/2+z
1/2-x,-y,1/2+z
1/2+x,-y,1/2-z
1/2-x,y,1/2-z
1/2-x,-y,1/2-z
1/2+x,y,1/2-z
1/2-x,y,1/2+z
1/2+x,-y,1/2+z
1/2+x,1/2+y,z
1/2-x,1/2-y,z
1/2+x,1/2-y,-z
1/2-x,1/2+y,-z
1/2-x,1/2-y,-z
1/2+x,1/2+y,-z
1/2-x,1/2+y,z
1/2+x,1/2-y,z
loop_
_atom_site_type_symbol
_atom_site_label
_atom_site_fract_x
_atom_site_fract_y
_atom_site_fract_z
Si Si1 0.275403 0.116139 0.573319
Si Si2 0.666223 0.052481 0.125150
Si Si3 0.912700 0.383186 0.213305
Si Si4 0.417931 0.947436 0.000000
Si Si5 0.653518 0.774218 0.684212
Si Si6 0.417197 0.359662 0.852417
Si Si7 0.695996 0.185802 0.851300
O O1 0.273340 0.104052 0.500000
O O2 0.247854 0.074722 0.616705
O O3 0.360118 0.126093 0.593259
O O4 0.220954 0.158415 0.586723
O O5 0.620317 0.071202 0.184512
O O6 0.623676 0.068579 0.062324
O O7 0.674448 0.000000 0.132818
O O8 0.903169 0.387329 0.288357
O O9 0.864499 0.341456 0.189238
O O10 0.000000 0.377108 0.194607
O O11 0.500000 0.925720 0.000000
O O12 0.423464 0.000000 0.000000
O O13 0.636178 0.750000 0.750000
O O14 0.587324 0.806984 0.663610
O O15 0.661122 0.734343 0.632145
O O16 0.728989 0.804090 0.689617
O O17 0.500000 0.369205 0.878697
#
# Coordination Sequence:
#
# PCOD8283825 Si02
#       7
#    32  32  32  16  32  32  32
#     4  10  21  37  57  78 107 145 188 236 279 326
#     4  10  20  35  58  84 109 141 181 222 272 336
#     4  10  20  33  50  79 117 147 174 219 278 336
#     4   9  16  28  50  82 113 138 167 205 254 322
#     4  10  17  29  53  80 109 140 182 232 272 323
#     4  10  22  36  53  80 110 145 187 229 278 331
#     4   9  18  29  50  78 107 141 180 225 275 322
#
# _framework density 18.240722000000002
#
# number of rings (size 3 to 8) (size 9 to 14) (size 15 to 20)
#    0.000    2.231    2.308    1.385    2.154    4.000 
#    0.000    7.692    0.000    1.385    0.000    1.077 
#    0.000    0.000    0.000    0.000    0.000    0.000 
#
# Total GULP energy -644440.064067 kJ/mol
# GULP energy per Si atom -12393.078155 kJ/mol
# Density = 1.819921 g / cm^3
# Si number density = 18.240722 Si / 1000 Ang^3
#
#
#
# Elastic Constant Matrix: (Units=GPa)
#
#
# Indices 1 2 3 4 5 6 
#
# 1 94.7883 36.4261 26.5218 0.0000 0.0000 0.0000
# 2 36.4261 106.8952 28.2667 0.0000 0.0000 0.0000
# 3 26.5218 28.2667 52.9439 0.0000 0.0000 0.0000
# 4 0.0000 0.0000 0.0000 22.5394 0.0000 0.0000
# 5 0.0000 0.0000 0.0000 0.0000 23.3694 0.0000
# 6 0.0000 0.0000 0.0000 0.0000 0.0000 19.1944
#
#
#
# Elastic Compliance Matrix: (Units=1/GPa)
#
#
# Indices 1 2 3 4 5 6 
#
# 1 0.013140 -0.003187 -0.004881 0.000000 0.000000 0.000000
# 2 -0.003187 0.011666 -0.004632 0.000000 0.000000 0.000000
# 3 -0.004881 -0.004632 0.023806 0.000000 0.000000 0.000000
# 4 0.000000 0.000000 0.000000 0.044367 0.000000 0.000000
# 5 0.000000 0.000000 0.000000 0.000000 0.042791 0.000000
# 6 0.000000 0.000000 0.000000 0.000000 0.000000 0.052099
#
#
# Mechanical properties :
#
#
# Convention : Reuss Voigt Hill
#
# Bulk Modulus (GPa) = 43.08053 48.56182 45.82118
# Shear Modulus (GPa) = 22.62388 23.91482 23.26935
#
# Velocity S-wave (km/s) = 3.52560 3.62479 3.57554
# Velocity P-wave (km/s) = 6.34368 6.64826 6.49775
#
# Compressibility (1/GPa) = 0.02321234
#
# Stress axis : x y z
#
# Youngs Moduli (GPa) = 76.10195 85.72069 42.00635
#
# Poissons Ratio (x) = 0.27320 0.20503
# Poissons Ratio (y) = 0.24254 0.19457
# Poissons Ratio (z) = 0.37145 0.39704
#
# Static dielectric constant tensor:
#      x y z
#    x 3.447770 0.000000 0.000000 
#    y 0.000000 3.436480 0.000000 
#    z 0.000000 0.000000 3.129030 
# 
# 
# High freq. dielectric constant tensor:
#      x y z
#    x 1.707070 0.000000 0.000000 
#    y 0.000000 1.701360 0.000000 
#    z 0.000000 0.000000 1.679170 
# 
# From -- ./inp_files/36834.got.cif
#   From: 2010.03.12/outbox.cif.g09.slc.cpg/sg69_19_cif.got.tgz:36834.got - 2010.04.10 23:52:46.
