data_PCOD8283589
_publ_section_title
;
Structure prediction by ZEFSAII (Michael W. Deem and Ramdas Pophale) SiO2 
 PCOD8283589
Probable space group: C C C A
;
_chemical_formula_sum "Si O2"
_cell_formula_units_Z 112
_cell_length_a 13.656699
_cell_length_b 29.079237
_cell_length_c 11.799040
_cell_angle_alpha 90.000000
_cell_angle_beta 90.000000
_cell_angle_gamma 90.000000
_cell_volume 4685.710124
_symmetry_space_group_name_H-M "C C C A"
_symmetry_group_IT_number 68
_space_group.IT_coordinate_system_code '2'
_symmetry_cell_setting 'orthorhombic'
loop_
_space_group_symop_operation_xyz
x,y,z
-x,1/2-y,z
x,1/2-y,1/2-z
-x,y,1/2-z
-x,-y,-z
x,1/2+y,-z
-x,1/2+y,1/2+z
x,-y,1/2+z
1/2+x,1/2+y,z
1/2-x,-y,z
1/2+x,-y,1/2-z
1/2-x,1/2+y,1/2-z
1/2-x,1/2-y,-z
1/2+x,y,-z
1/2-x,y,1/2+z
1/2+x,1/2-y,1/2+z
loop_
_atom_site_type_symbol
_atom_site_label
_atom_site_fract_x
_atom_site_fract_y
_atom_site_fract_z
Si Si1 0.847016 0.474104 0.238194
Si Si2 0.557265 0.167095 0.863185
Si Si3 0.623279 0.195518 0.536415
Si Si4 0.367542 0.078903 0.518077
Si Si5 0.534284 0.444151 0.137302
Si Si6 0.340193 0.907418 0.438821
Si Si7 0.747703 0.224155 0.855371
O O1 0.750000 0.500000 0.280618
O O2 0.821371 0.443864 0.128937
O O3 0.930125 0.508580 0.195207
O O4 0.883778 0.441480 0.341877
O O5 0.500000 0.152939 0.750000
O O6 0.491916 0.204601 0.935979
O O7 0.570831 0.123769 0.946123
O O8 0.660971 0.188380 0.826690
O O9 0.636316 0.145102 0.592545
O O10 0.697420 0.234119 0.578108
O O11 0.659389 0.195813 0.405920
O O12 0.440478 0.046487 0.444812
O O13 0.277096 0.090252 0.437116
O O14 0.500000 0.414571 0.250000
O O15 0.618118 0.419829 0.063498
O O16 0.794855 0.250000 0.750000
#
# Coordination Sequence:
#
# PCOD8283589 Si02
#       7
#    16  16  16  16  16  16  16
#     4  12  28  46  75 105 144 195 255 308 377 451
#     4  12  23  44  77 114 146 197 258 309 378 462
#     4  11  24  44  72 110 145 190 250 304 374 444
#     4  12  27  47  75 110 148 198 245 322 376 452
#     4  12  29  48  72 103 145 196 249 307 373 448
#     4  12  27  50  71 106 151 193 252 311 379 457
#     4  11  24  44  75 108 148 194 247 308 373 455
#
# _framework density 23.902460999999999
#
# number of rings (size 3 to 8) (size 9 to 14) (size 15 to 20)
#    0.000    0.286    5.714    2.571    6.000    0.000 
#    0.000    0.000    0.000    0.857    0.000    0.000 
#    0.000    0.000    0.000    0.000    0.000    0.000 
#
# Total GULP energy -693810.398073 kJ/mol
# GULP energy per Si atom -12389.471394 kJ/mol
# Density = 2.384806 g / cm^3
# Si number density = 23.902461 Si / 1000 Ang^3
#
#
#
# Elastic Constant Matrix: (Units=GPa)
#
#
# Indices 1 2 3 4 5 6 
#
# 1 85.1806 0.3966 35.8328 0.0000 0.0000 0.0000
# 2 0.3966 91.5970 27.8593 0.0000 0.0000 0.0000
# 3 35.8328 27.8593 114.9337 0.0000 0.0000 0.0000
# 4 0.0000 0.0000 0.0000 12.2069 0.0000 0.0000
# 5 0.0000 0.0000 0.0000 0.0000 62.0068 0.0000
# 6 0.0000 0.0000 0.0000 0.0000 0.0000 8.0437
#
#
#
# Elastic Compliance Matrix: (Units=1/GPa)
#
#
# Indices 1 2 3 4 5 6 
#
# 1 0.013661 0.001335 -0.004583 0.000000 0.000000 0.000000
# 2 0.001335 0.011917 -0.003305 0.000000 0.000000 0.000000
# 3 -0.004583 -0.003305 0.010930 0.000000 0.000000 0.000000
# 4 0.000000 0.000000 0.000000 0.081921 0.000000 0.000000
# 5 0.000000 0.000000 0.000000 0.000000 0.016127 0.000000
# 6 0.000000 0.000000 0.000000 0.000000 0.000000 0.124320
#
#
# Mechanical properties :
#
#
# Convention : Reuss Voigt Hill
#
# Bulk Modulus (GPa) = 42.72931 46.65431 44.69181
# Shear Modulus (GPa) = 17.87095 31.62633 24.74864
#
# Velocity S-wave (km/s) = 2.73731 3.64145 3.22126
# Velocity P-wave (km/s) = 5.28259 6.10255 5.70732
#
# Compressibility (1/GPa) = 0.02340314
#
# Stress axis : x y z
#
# Youngs Moduli (GPa) = 73.19922 83.91570 91.48750
#
# Poissons Ratio (x) = -0.11200 0.41926
# Poissons Ratio (y) = -0.09770 0.30234
# Poissons Ratio (z) = 0.33545 0.27731
#
# Static dielectric constant tensor:
#      x y z
#    x 4.470680 0.000000 0.000000 
#    y 0.000000 4.232540 0.000000 
#    z 0.000000 0.000000 5.150420 
# 
# 
# High freq. dielectric constant tensor:
#      x y z
#    x 1.957570 0.000000 0.000000 
#    y 0.000000 1.938760 0.000000 
#    z 0.000000 0.000000 1.953210 
# 
# From -- ./inp_files/13601.got.cif
#   From: 2010.03.12/outbox.cif.g09.slc.cpg/sg68_7_cif.got.tgz:13601.got - 2010.04.10 23:14:56.
