data_PCOD8283730
_publ_section_title
;
Structure prediction by ZEFSAII (Michael W. Deem and Ramdas Pophale) SiO2 
 PCOD8283730
Probable space group: C C C A
;
_chemical_formula_sum "Si O2"
_cell_formula_units_Z 56
_cell_length_a 15.411165
_cell_length_b 15.832299
_cell_length_c 9.216848
_cell_angle_alpha 90.000000
_cell_angle_beta 90.000000
_cell_angle_gamma 90.000000
_cell_volume 2248.857198
_symmetry_space_group_name_H-M "C C C A"
_symmetry_group_IT_number 68
_space_group.IT_coordinate_system_code '2'
_symmetry_cell_setting 'orthorhombic'
loop_
_space_group_symop_operation_xyz
x,y,z
-x,1/2-y,z
x,1/2-y,1/2-z
-x,y,1/2-z
-x,-y,-z
x,1/2+y,-z
-x,1/2+y,1/2+z
x,-y,1/2+z
1/2+x,1/2+y,z
1/2-x,-y,z
1/2+x,-y,1/2-z
1/2-x,1/2+y,1/2-z
1/2-x,1/2-y,-z
1/2+x,y,-z
1/2-x,y,1/2+z
1/2+x,1/2-y,1/2+z
loop_
_atom_site_type_symbol
_atom_site_label
_atom_site_fract_x
_atom_site_fract_y
_atom_site_fract_z
Si Si1 0.210179 0.085114 0.236583
Si Si2 0.821230 0.184352 0.548224
Si Si3 0.458821 0.931330 0.394113
Si Si4 0.000000 0.250000 0.991095
O O1 0.163137 0.127680 0.097301
O O2 0.288897 0.138491 0.306332
O O3 0.145144 0.065019 0.370992
O O4 0.250000 0.000000 0.172791
O O5 0.750000 0.250000 0.500000
O O6 0.912075 0.228111 0.597676
O O7 0.500000 0.965699 0.250000
O O8 0.481036 0.833476 0.416886
O O9 0.500000 0.000000 0.500000
#
# Coordination Sequence:
#
# PCOD8283730 Si02
#       4
#    16  16  16   8
#     4  12  27  47  74 114 160 196 259 328 386 467
#     4  12  26  47  78 110 151 208 259 313 393 466
#     4  12  27  48  81 113 152 208 263 319 400 469
#     4  12  25  52  79 106 157 212 255 320 397 472
#
# _framework density 24.901534999999999
#
# number of rings (size 3 to 8) (size 9 to 14) (size 15 to 20)
#    0.000    0.000    5.714    3.857    4.000    0.000 
#    0.000    3.571    0.000    0.000    0.000    0.000 
#    0.000    0.000    0.000    0.000    0.000    0.000 
#
# Total GULP energy -346886.905957 kJ/mol
# GULP energy per Si atom -12388.818070 kJ/mol
# Density = 2.484486 g / cm^3
# Si number density = 24.901535 Si / 1000 Ang^3
#
#
#
# Elastic Constant Matrix: (Units=GPa)
#
#
# Indices 1 2 3 4 5 6 
#
# 1 184.6370 46.2735 17.3963 0.0000 0.0000 0.0000
# 2 46.2735 157.9005 39.2101 0.0000 0.0000 0.0000
# 3 17.3963 39.2101 100.8577 0.0000 0.0000 0.0000
# 4 0.0000 0.0000 0.0000 24.0761 0.0000 0.0000
# 5 0.0000 0.0000 0.0000 0.0000 34.7723 0.0000
# 6 0.0000 0.0000 0.0000 0.0000 0.0000 47.6871
#
#
#
# Elastic Compliance Matrix: (Units=1/GPa)
#
#
# Indices 1 2 3 4 5 6 
#
# 1 0.005858 -0.001623 -0.000380 0.000000 0.000000 0.000000
# 2 -0.001623 0.007459 -0.002620 0.000000 0.000000 0.000000
# 3 -0.000380 -0.002620 0.010999 0.000000 0.000000 0.000000
# 4 0.000000 0.000000 0.000000 0.041535 0.000000 0.000000
# 5 0.000000 0.000000 0.000000 0.000000 0.028758 0.000000
# 6 0.000000 0.000000 0.000000 0.000000 0.000000 0.020970
#
#
# Mechanical properties :
#
#
# Convention : Reuss Voigt Hill
#
# Bulk Modulus (GPa) = 66.34758 72.12832 69.23795
# Shear Modulus (GPa) = 38.50633 44.00812 41.25723
#
# Velocity S-wave (km/s) = 3.93662 4.20847 4.07481
# Velocity P-wave (km/s) = 6.88219 7.25557 7.07134
#
# Compressibility (1/GPa) = 0.01507214
#
# Stress axis : x y z
#
# Youngs Moduli (GPa) = 170.69357 134.06239 90.91709
#
# Poissons Ratio (x) = 0.21752 0.03452
# Poissons Ratio (y) = 0.27696 0.23821
# Poissons Ratio (z) = 0.06481 0.35125
#
# Static dielectric constant tensor:
#      x y z
#    x 4.515560 0.000000 0.000000 
#    y 0.000000 4.685750 0.000000 
#    z 0.000000 0.000000 4.408950 
# 
# 
# High freq. dielectric constant tensor:
#      x y z
#    x 2.019080 0.000000 0.000000 
#    y 0.000000 2.004330 0.000000 
#    z 0.000000 0.000000 1.974520 
# 
# From -- ./inp_files/12521.got.cif
#   From: 2010.03.12/outbox.cif.g09.slc.cpg/sg68_7_cif.got.tgz:12521.got - 2010.04.10 23:14:56.
