data_PCOD8283496
_publ_section_title
;
Structure prediction by ZEFSAII (Michael W. Deem and Ramdas Pophale) SiO2 
 PCOD8283496
Probable space group: C C C A
;
_chemical_formula_sum "Si O2"
_cell_formula_units_Z 64
_cell_length_a 24.645786
_cell_length_b 13.291303
_cell_length_c 8.647251
_cell_angle_alpha 90.000000
_cell_angle_beta 90.000000
_cell_angle_gamma 90.000000
_cell_volume 2832.619869
_symmetry_space_group_name_H-M "C C C A"
_symmetry_group_IT_number 68
_space_group.IT_coordinate_system_code '2'
_symmetry_cell_setting 'orthorhombic'
loop_
_space_group_symop_operation_xyz
x,y,z
-x,1/2-y,z
x,1/2-y,1/2-z
-x,y,1/2-z
-x,-y,-z
x,1/2+y,-z
-x,1/2+y,1/2+z
x,-y,1/2+z
1/2+x,1/2+y,z
1/2-x,-y,z
1/2+x,-y,1/2-z
1/2-x,1/2+y,1/2-z
1/2-x,1/2-y,-z
1/2+x,y,-z
1/2-x,y,1/2+z
1/2+x,1/2-y,1/2+z
loop_
_atom_site_type_symbol
_atom_site_label
_atom_site_fract_x
_atom_site_fract_y
_atom_site_fract_z
Si Si1 0.130071 0.205689 0.420769
Si Si2 0.308917 0.452055 0.408102
Si Si3 0.367925 0.401425 0.107805
Si Si4 0.959953 0.954430 0.621949
O O1 0.139551 0.250000 0.250000
O O2 0.182779 0.138015 0.466107
O O3 0.121847 0.287824 0.555114
O O4 0.076156 0.138791 0.434496
O O5 0.250000 0.500000 0.416841
O O6 0.320829 0.409796 0.236803
O O7 0.350855 0.540699 0.450815
O O8 0.421800 0.453072 0.178704
O O9 0.000000 0.910405 0.750000
O O10 0.000000 0.000000 0.500000
#
# Coordination Sequence:
#
# PCOD8283496 Si02
#       4
#    16  16  16  16
#     4  11  24  44  70 101 137 178 227 279 332 401
#     4  11  24  44  69  97 134 176 221 278 341 399
#     4  11  23  43  67  99 137 174 224 280 332 399
#     4  11  23  41  66  97 136 180 222 272 334 396
#
# _framework density 22.593924000000001
#
# number of rings (size 3 to 8) (size 9 to 14) (size 15 to 20)
#    0.000    1.000    0.000    9.000    0.000    4.500 
#    0.000    7.500    0.000    0.000    0.000    0.000 
#    0.000    0.000    0.000    0.000    0.000    0.000 
#
# Total GULP energy -396690.206242 kJ/mol
# GULP energy per Si atom -12396.568945 kJ/mol
# Density = 2.254250 g / cm^3
# Si number density = 22.593924 Si / 1000 Ang^3
#
#
#
# Elastic Constant Matrix: (Units=GPa)
#
#
# Indices 1 2 3 4 5 6 
#
# 1 144.9131 85.4486 61.0512 0.0000 0.0000 0.0000
# 2 85.4486 170.2483 65.0814 0.0000 0.0000 0.0000
# 3 61.0512 65.0814 132.9869 0.0000 0.0000 0.0000
# 4 0.0000 0.0000 0.0000 44.4670 0.0000 0.0000
# 5 0.0000 0.0000 0.0000 0.0000 38.4773 0.0000
# 6 0.0000 0.0000 0.0000 0.0000 0.0000 36.2682
#
#
#
# Elastic Compliance Matrix: (Units=1/GPa)
#
#
# Indices 1 2 3 4 5 6 
#
# 1 0.010574 -0.004246 -0.002776 0.000000 0.000000 0.000000
# 2 -0.004246 0.008930 -0.002421 0.000000 0.000000 0.000000
# 3 -0.002776 -0.002421 0.009979 0.000000 0.000000 0.000000
# 4 0.000000 0.000000 0.000000 0.022489 0.000000 0.000000
# 5 0.000000 0.000000 0.000000 0.000000 0.025989 0.000000
# 6 0.000000 0.000000 0.000000 0.000000 0.000000 0.027572
#
#
# Mechanical properties :
#
#
# Convention : Reuss Voigt Hill
#
# Bulk Modulus (GPa) = 94.37122 96.81231 95.59176
# Shear Modulus (GPa) = 39.07699 39.61363 39.34531
#
# Velocity S-wave (km/s) = 4.16328 4.19177 4.17755
# Velocity P-wave (km/s) = 8.06037 8.14676 8.10368
#
# Compressibility (1/GPa) = 0.01059645
#
# Stress axis : x y z
#
# Youngs Moduli (GPa) = 94.57239 111.97835 100.21005
#
# Poissons Ratio (x) = 0.47543 0.27823
# Poissons Ratio (y) = 0.40153 0.24263
# Poissons Ratio (z) = 0.26258 0.27112
#
# Static dielectric constant tensor:
#      x y z
#    x 4.182620 0.000000 0.000000 
#    y 0.000000 4.406240 0.000000 
#    z 0.000000 0.000000 4.045510 
# 
# 
# High freq. dielectric constant tensor:
#      x y z
#    x 1.885490 0.000000 0.000000 
#    y 0.000000 1.899920 0.000000 
#    z 0.000000 0.000000 1.899670 
# 
# From -- ./inp_files/4996.got.cif
#   From: 2010.03.12/outbox.cif.g09.slc.cpg/sg68_3_cif.got.tgz:4996.got - 2010.04.10 23:14:56.
