data_PCOD8283685
_publ_section_title
;
Structure prediction by ZEFSAII (Michael W. Deem and Ramdas Pophale) SiO2 
 PCOD8283685
Probable space group: C C C A
;
_chemical_formula_sum "Si O2"
_cell_formula_units_Z 64
_cell_length_a 13.765555
_cell_length_b 15.319770
_cell_length_c 13.577662
_cell_angle_alpha 90.000000
_cell_angle_beta 90.000000
_cell_angle_gamma 90.000000
_cell_volume 2863.327105
_symmetry_space_group_name_H-M "C C C A"
_symmetry_group_IT_number 68
_space_group.IT_coordinate_system_code '2'
_symmetry_cell_setting 'orthorhombic'
loop_
_space_group_symop_operation_xyz
x,y,z
-x,1/2-y,z
x,1/2-y,1/2-z
-x,y,1/2-z
-x,-y,-z
x,1/2+y,-z
-x,1/2+y,1/2+z
x,-y,1/2+z
1/2+x,1/2+y,z
1/2-x,-y,z
1/2+x,-y,1/2-z
1/2-x,1/2+y,1/2-z
1/2-x,1/2-y,-z
1/2+x,y,-z
1/2-x,y,1/2+z
1/2+x,1/2-y,1/2+z
loop_
_atom_site_type_symbol
_atom_site_label
_atom_site_fract_x
_atom_site_fract_y
_atom_site_fract_z
Si Si1 0.337581 0.366451 0.440753
Si Si2 0.612456 0.508618 0.736262
Si Si3 0.842462 0.177816 0.333121
Si Si4 0.500000 0.750000 0.036143
Si Si5 0.250000 0.000000 0.404468
O O1 0.376086 0.424613 0.351883
O O2 0.249996 0.304933 0.403351
O O3 0.427078 0.306151 0.470713
O O4 0.298730 0.424771 0.530382
O O5 0.500000 0.489630 0.750000
O O6 0.667423 0.418454 0.711470
O O7 0.664073 0.541940 0.836780
O O8 0.843439 0.250000 0.250000
O O9 0.940982 0.182722 0.395834
#
# Coordination Sequence:
#
# PCOD8283685 Si02
#       5
#    16  16  16   8   8
#     4  12  27  48  74 112 149 201 259 309 395 459
#     4  12  26  45  79 108 145 198 253 316 379 467
#     4  12  24  49  72 109 149 196 250 315 393 452
#     4  12  29  42  75 108 148 204 246 325 377 470
#     4  12  22  48  78 106 150 198 258 314 380 470
#
# _framework density 22.35162
#
# number of rings (size 3 to 8) (size 9 to 14) (size 15 to 20)
#    0.000    0.000    5.000    5.625    3.500    4.000 
#    0.000    0.000    0.000    0.000    0.000    0.000 
#    0.000    0.000    0.000    0.000    0.000    0.000 
#
# Total GULP energy -396964.081021 kJ/mol
# GULP energy per Si atom -12405.127532 kJ/mol
# Density = 2.230075 g / cm^3
# Si number density = 22.351620 Si / 1000 Ang^3
#
#
#
# Elastic Constant Matrix: (Units=GPa)
#
#
# Indices 1 2 3 4 5 6 
#
# 1 173.3295 43.3133 73.3643 0.0000 0.0000 0.0000
# 2 43.3133 80.6978 44.2814 0.0000 0.0000 0.0000
# 3 73.3643 44.2814 141.5066 0.0000 0.0000 0.0000
# 4 0.0000 0.0000 0.0000 -61.6098 0.0000 0.0000
# 5 0.0000 0.0000 0.0000 0.0000 43.1989 0.0000
# 6 0.0000 0.0000 0.0000 0.0000 0.0000 48.1206
#
#
#
# Elastic Compliance Matrix: (Units=1/GPa)
#
#
# Indices 1 2 3 4 5 6 
#
# 1 0.007746 -0.002359 -0.003278 0.000000 0.000000 0.000000
# 2 -0.002359 0.015679 -0.003683 0.000000 0.000000 0.000000
# 3 -0.003278 -0.003683 0.009919 0.000000 0.000000 0.000000
# 4 0.000000 0.000000 0.000000 -0.016231 0.000000 0.000000
# 5 0.000000 0.000000 0.000000 0.000000 0.023149 0.000000
# 6 0.000000 0.000000 0.000000 0.000000 0.000000 0.020781
#
#
# Mechanical properties :
#
#
# Convention : Reuss Voigt Hill
#
# Bulk Modulus (GPa) = 68.00978 79.71689 73.86334
# Shear Modulus (GPa) = 59.11214 21.58028 40.34621
#
# Velocity S-wave (km/s) = 5.14819 3.11061 4.25322
# Velocity P-wave (km/s) = 8.11368 6.97449 7.56556
#
# Compressibility (1/GPa) = 0.01470377
#
# Stress axis : x y z
#
# Youngs Moduli (GPa) = 129.09465 63.77838 100.81795
#
# Poissons Ratio (x) = 0.15045 0.33047
# Poissons Ratio (y) = 0.30454 0.37136
# Poissons Ratio (z) = 0.42315 0.23492
#
# Static dielectric constant tensor:
#      x y z
#    x 4.414240 0.000000 0.000000 
#    y 0.000000 4.103840 0.000000 
#    z 0.000000 0.000000 4.313990 
# 
# 
# High freq. dielectric constant tensor:
#      x y z
#    x 1.908010 0.000000 0.000000 
#    y 0.000000 1.871310 0.000000 
#    z 0.000000 0.000000 1.900060 
# 
# From -- ./inp_files/12879.got.cif
#   From: 2010.03.12/outbox.cif.g09.slc.cpg/sg68_7_cif.got.tgz:12879.got - 2010.04.10 23:14:56.
