data_PCOD8283681
_publ_section_title
;
Structure prediction by ZEFSAII (Michael W. Deem and Ramdas Pophale) SiO2 
 PCOD8283681
Probable space group: C C C A
;
_chemical_formula_sum "Si O2"
_cell_formula_units_Z 64
_cell_length_a 5.112795
_cell_length_b 18.703132
_cell_length_c 27.284844
_cell_angle_alpha 90.000000
_cell_angle_beta 90.000000
_cell_angle_gamma 90.000000
_cell_volume 2609.120841
_symmetry_space_group_name_H-M "C C C A"
_symmetry_group_IT_number 68
_space_group.IT_coordinate_system_code '2'
_symmetry_cell_setting 'orthorhombic'
loop_
_space_group_symop_operation_xyz
x,y,z
-x,1/2-y,z
x,1/2-y,1/2-z
-x,y,1/2-z
-x,-y,-z
x,1/2+y,-z
-x,1/2+y,1/2+z
x,-y,1/2+z
1/2+x,1/2+y,z
1/2-x,-y,z
1/2+x,-y,1/2-z
1/2-x,1/2+y,1/2-z
1/2-x,1/2-y,-z
1/2+x,y,-z
1/2-x,y,1/2+z
1/2+x,1/2-y,1/2+z
loop_
_atom_site_type_symbol
_atom_site_label
_atom_site_fract_x
_atom_site_fract_y
_atom_site_fract_z
Si Si1 0.750000 0.000000 0.561367
Si Si2 0.744585 0.703892 0.361045
Si Si3 0.826906 0.846648 0.528749
Si Si4 0.250000 0.000000 0.625775
Si Si5 0.907195 0.073851 0.196610
O O1 0.831686 0.933247 0.527920
O O2 0.500141 0.975132 0.593915
O O3 0.500000 0.750000 0.342734
O O4 0.704295 0.681145 0.416876
O O5 0.775556 0.634882 0.326306
O O6 0.000000 0.750000 0.354600
O O7 0.598667 0.817871 0.493305
O O8 0.342051 0.065477 0.660493
O O9 0.000000 0.097748 0.250000
O O10 0.750000 0.000000 0.199962
#
# Coordination Sequence:
#
# PCOD8283681 Si02
#       5
#     8  16  16   8  16
#     4  12  24  42  74 112 152 192 248 326 390 436
#     4  12  30  51  76 110 161 205 251 313 386 458
#     4  12  25  44  75 108 147 198 257 313 378 452
#     4  12  22  42  78 108 150 192 242 314 378 454
#     4  12  27  49  85 117 150 198 262 319 386 460
#
# _framework density 24.529333999999999
#
# number of rings (size 3 to 8) (size 9 to 14) (size 15 to 20)
#    0.000    0.000    5.000    3.750    7.000    3.500 
#    0.000    1.250    0.000    0.000    0.000    0.000 
#    0.000    0.000    0.000    0.000    0.000    0.000 
#
# Total GULP energy -397020.524531 kJ/mol
# GULP energy per Si atom -12406.891392 kJ/mol
# Density = 2.447350 g / cm^3
# Si number density = 24.529334 Si / 1000 Ang^3
#
#
#
# Elastic Constant Matrix: (Units=GPa)
#
#
# Indices 1 2 3 4 5 6 
#
# 1 176.7036 40.8543 55.1134 0.0000 0.0000 0.0000
# 2 40.8543 109.7589 41.2805 0.0000 0.0000 0.0000
# 3 55.1134 41.2805 143.5491 0.0000 0.0000 0.0000
# 4 0.0000 0.0000 0.0000 19.2080 0.0000 0.0000
# 5 0.0000 0.0000 0.0000 0.0000 25.4047 0.0000
# 6 0.0000 0.0000 0.0000 0.0000 0.0000 40.1239
#
#
#
# Elastic Compliance Matrix: (Units=1/GPa)
#
#
# Indices 1 2 3 4 5 6 
#
# 1 0.006704 -0.001713 -0.002082 0.000000 0.000000 0.000000
# 2 -0.001713 0.010653 -0.002406 0.000000 0.000000 0.000000
# 3 -0.002082 -0.002406 0.008457 0.000000 0.000000 0.000000
# 4 0.000000 0.000000 0.000000 0.052062 0.000000 0.000000
# 5 0.000000 0.000000 0.000000 0.000000 0.039363 0.000000
# 6 0.000000 0.000000 0.000000 0.000000 0.000000 0.024923
#
#
# Mechanical properties :
#
#
# Convention : Reuss Voigt Hill
#
# Bulk Modulus (GPa) = 74.54569 78.27865 76.41217
# Shear Modulus (GPa) = 31.43980 36.46489 33.95235
#
# Velocity S-wave (km/s) = 3.58400 3.85981 3.72446
# Velocity P-wave (km/s) = 6.89805 7.20039 7.05084
#
# Compressibility (1/GPa) = 0.01341459
#
# Stress axis : x y z
#
# Youngs Moduli (GPa) = 149.15614 93.86800 118.24052
#
# Poissons Ratio (x) = 0.16076 0.24612
# Poissons Ratio (y) = 0.25545 0.28449
# Poissons Ratio (z) = 0.31047 0.22585
#
# Static dielectric constant tensor:
#      x y z
#    x 4.668280 0.000000 0.000000 
#    y 0.000000 4.544700 0.000000 
#    z 0.000000 0.000000 4.485140 
# 
# 
# High freq. dielectric constant tensor:
#      x y z
#    x 1.988790 0.000000 0.000000 
#    y 0.000000 1.977760 0.000000 
#    z 0.000000 0.000000 1.977630 
# 
# From -- ./inp_files/52957.got.cif
#   From: 2010.03.12/outbox.cif.g09.slc.cpg/sg68_27_cif.got.tgz:52957.got - 2010.04.10 23:14:56.
