data_PCOD8283870
_publ_section_title
;
Structure prediction by ZEFSAII (Michael W. Deem and Ramdas Pophale) SiO2 
 PCOD8283870
Probable space group: F M M M
;
_chemical_formula_sum "Si O2"
_cell_formula_units_Z 144
_cell_length_a 27.256992
_cell_length_b 32.282204
_cell_length_c 9.537319
_cell_angle_alpha 90.000000
_cell_angle_beta 90.000000
_cell_angle_gamma 90.000000
_cell_volume 8392.037450
_symmetry_space_group_name_H-M "F M M M"
_symmetry_group_IT_number 69
_symmetry_cell_setting 'orthorhombic'
loop_
_space_group_symop_operation_xyz
x,y,z
-x,-y,z
x,-y,-z
-x,y,-z
-x,-y,-z
x,y,-z
-x,y,z
x,-y,z
x,1/2+y,1/2+z
-x,1/2-y,1/2+z
x,1/2-y,1/2-z
-x,1/2+y,1/2-z
-x,1/2-y,1/2-z
x,1/2+y,1/2-z
-x,1/2+y,1/2+z
x,1/2-y,1/2+z
1/2+x,y,1/2+z
1/2-x,-y,1/2+z
1/2+x,-y,1/2-z
1/2-x,y,1/2-z
1/2-x,-y,1/2-z
1/2+x,y,1/2-z
1/2-x,y,1/2+z
1/2+x,-y,1/2+z
1/2+x,1/2+y,z
1/2-x,1/2-y,z
1/2+x,1/2-y,-z
1/2-x,1/2+y,-z
1/2-x,1/2-y,-z
1/2+x,1/2+y,-z
1/2-x,1/2+y,z
1/2+x,1/2-y,z
loop_
_atom_site_type_symbol
_atom_site_label
_atom_site_fract_x
_atom_site_fract_y
_atom_site_fract_z
Si Si1 0.800472 0.500000 0.832751
Si Si2 0.796429 0.665175 0.161815
Si Si3 0.054109 0.373692 0.166917
Si Si4 0.396122 0.210079 0.838488
Si Si5 0.149471 0.915933 0.666246
O O1 0.750000 0.500000 0.750000
O O2 0.831578 0.460326 0.782212
O O3 0.790831 0.500000 0.000000
O O4 0.750000 0.680312 0.250000
O O5 0.839269 0.698521 0.183730
O O6 0.814005 0.620180 0.218547
O O7 0.780970 0.662354 0.000000
O O8 0.070055 0.327767 0.214436
O O9 0.094147 0.407106 0.223350
O O10 0.000000 0.384176 0.227760
O O11 0.053436 0.375059 0.000000
O O12 0.410543 0.250000 0.750000
O O13 0.406741 0.220081 0.000000
O O14 0.147818 0.913892 0.500000
#
# Coordination Sequence:
#
# PCOD8283870 Si02
#       5
#    16  32  32  32  32
#     4  10  18  28  45  69  95 119 144 176 211 246
#     4   9  17  29  43  59  83 115 146 174 210 255
#     4   8  14  27  46  64  85 115 144 171 213 263
#     4   9  18  30  43  62  86 110 140 179 217 254
#     4   8  15  27  42  63  90 115 141 176 213 250
#
# _framework density 17.159122
#
# number of rings (size 3 to 8) (size 9 to 14) (size 15 to 20)
#    0.000    3.333    0.000    3.333    0.000    1.778 
#    0.000    2.778    0.000    4.667    0.000    0.000 
#    0.000    0.889    0.000    0.000    0.000    0.000 
#
# Total GULP energy -446179.279633 kJ/mol
# GULP energy per Si atom -12393.868879 kJ/mol
# Density = 1.712007 g / cm^3
# Si number density = 17.159122 Si / 1000 Ang^3
#
#
#
# Elastic Constant Matrix: (Units=GPa)
#
#
# Indices 1 2 3 4 5 6 
#
# 1 131.5110 45.7006 28.3039 0.0031 -0.0023 -0.0067
# 2 45.7006 104.7741 23.1676 0.0014 -0.0019 -0.0061
# 3 28.3039 23.1676 26.8056 0.0091 -0.0109 -0.0157
# 4 0.0031 0.0014 0.0091 19.0287 -0.0007 -0.0043
# 5 -0.0023 -0.0019 -0.0109 -0.0007 16.2964 0.0039
# 6 -0.0067 -0.0061 -0.0157 -0.0043 0.0039 15.9981
#
#
#
# Elastic Compliance Matrix: (Units=1/GPa)
#
#
# Indices 1 2 3 4 5 6 
#
# 1 0.010384 -0.002602 -0.008715 0.000003 -0.000005 -0.000005
# 2 -0.002602 0.012451 -0.008014 0.000003 -0.000004 -0.000004
# 3 -0.008715 -0.008014 0.053435 -0.000024 0.000034 0.000046
# 4 0.000003 0.000003 -0.000024 0.052552 0.000002 0.000014
# 5 -0.000005 -0.000004 0.000034 0.000002 0.061363 -0.000015
# 6 -0.000005 -0.000004 0.000046 0.000014 -0.000015 0.062507
#
#
# Mechanical properties :
#
#
# Convention : Reuss Voigt Hill
#
# Bulk Modulus (GPa) = 26.59083 50.82611 38.70847
# Shear Modulus (GPa) = 16.45325 21.32587 18.88956
#
# Velocity S-wave (km/s) = 3.09991 3.52920 3.32150
# Velocity P-wave (km/s) = 5.32380 6.80381 6.10879
#
# Compressibility (1/GPa) = 0.03760695
#
# Stress axis : x y z
#
# Youngs Moduli (GPa) = 96.30279 80.31229 18.71449
#
# Poissons Ratio (x) = 0.20898 0.16310
# Poissons Ratio (y) = 0.25059 0.14998
# Poissons Ratio (z) = 0.83931 0.64362
#
# Static dielectric constant tensor:
#      x y z
#    x 3.518250 0.000010 0.000010 
#    y 0.000010 3.347360 -0.000010 
#    z 0.000010 -0.000010 2.707890 
# 
# 
# High freq. dielectric constant tensor:
#      x y z
#    x 1.668770 0.000000 0.000000 
#    y 0.000000 1.657700 0.000000 
#    z 0.000000 0.000000 1.610340 
# 
# From -- ./inp_files/5574.got.cif
#   From: 2010.03.12/outbox.cif.g09.slc.cpg/sg69_3_cif.got.tgz:5574.got - 2010.04.10 23:52:46.
