data_PCOD8283033
_publ_section_title
;
Structure prediction by ZEFSAII (Michael W. Deem and Ramdas Pophale) SiO2 
 PCOD8283033
Probable space group: C C C A
;
_chemical_formula_sum "Si O2"
_cell_formula_units_Z 72
_cell_length_a 12.321561
_cell_length_b 10.212398
_cell_length_c 26.887794
_cell_angle_alpha 90.000000
_cell_angle_beta 90.000000
_cell_angle_gamma 90.000000
_cell_volume 3383.363310
_symmetry_space_group_name_H-M "C C C A"
_symmetry_group_IT_number 68
_space_group.IT_coordinate_system_code '2'
_symmetry_cell_setting 'orthorhombic'
loop_
_space_group_symop_operation_xyz
x,y,z
-x,1/2-y,z
x,1/2-y,1/2-z
-x,y,1/2-z
-x,-y,-z
x,1/2+y,-z
-x,1/2+y,1/2+z
x,-y,1/2+z
1/2+x,1/2+y,z
1/2-x,-y,z
1/2+x,-y,1/2-z
1/2-x,1/2+y,1/2-z
1/2-x,1/2-y,-z
1/2+x,y,-z
1/2-x,y,1/2+z
1/2+x,1/2-y,1/2+z
loop_
_atom_site_type_symbol
_atom_site_label
_atom_site_fract_x
_atom_site_fract_y
_atom_site_fract_z
Si Si1 0.420497 0.871021 0.604624
Si Si2 0.440087 0.619947 0.096003
Si Si3 0.820383 0.120729 0.999894
Si Si4 0.371425 0.729312 0.695637
Si Si5 0.250000 0.000000 0.850382
O O1 0.500000 0.750000 0.592616
O O2 0.351780 0.906550 0.556598
O O3 0.340885 0.833330 0.651416
O O4 0.491389 0.998250 0.616212
O O5 0.500000 0.750000 0.115629
O O6 0.318180 0.606012 0.117713
O O7 0.425717 0.629472 0.035950
O O8 0.750000 0.000000 0.019894
O O9 0.750000 0.250000 0.000000
O O10 0.500000 0.750000 0.699421
O O11 0.317761 0.750000 0.750000
O O12 0.335591 0.582613 0.682025
#
# Coordination Sequence:
#
# PCOD8283033 Si02
#       5
#    16  16  16  16   8
#     4  11  21  42  65  93 135 181 220 281 340 394
#     4  12  24  42  67 101 141 181 226 278 336 411
#     4  12  23  38  61  99 137 181 226 271 336 410
#     4  10  22  45  73  97 135 181 225 289 347 398
#     4  12  22  48  70 100 138 180 230 280 348 404
#
# _framework density 21.280598000000001
#
# number of rings (size 3 to 8) (size 9 to 14) (size 15 to 20)
#    0.000    0.667    5.556    5.333    0.000    0.000 
#    6.000    0.000    0.000    0.000    0.000    0.000 
#    0.000    0.000    0.000    0.000    0.000    0.000 
#
# Total GULP energy -446146.738366 kJ/mol
# GULP energy per Si atom -12392.964955 kJ/mol
# Density = 2.123216 g / cm^3
# Si number density = 21.280598 Si / 1000 Ang^3
#
#
#
# Elastic Constant Matrix: (Units=GPa)
#
#
# Indices 1 2 3 4 5 6 
#
# 1 75.0240 55.2612 31.4326 0.0000 0.0000 0.0000
# 2 55.2612 162.6381 28.4523 0.0000 0.0000 0.0000
# 3 31.4326 28.4523 128.9217 0.0000 0.0000 0.0000
# 4 0.0000 0.0000 0.0000 72.3685 0.0000 0.0000
# 5 0.0000 0.0000 0.0000 0.0000 1.6864 0.0000
# 6 0.0000 0.0000 0.0000 0.0000 0.0000 48.3972
#
#
#
# Elastic Compliance Matrix: (Units=1/GPa)
#
#
# Indices 1 2 3 4 5 6 
#
# 1 0.019075 -0.005895 -0.003350 0.000000 0.000000 0.000000
# 2 -0.005895 0.008218 -0.000376 0.000000 0.000000 0.000000
# 3 -0.003350 -0.000376 0.008656 0.000000 0.000000 0.000000
# 4 0.000000 0.000000 0.000000 0.013818 0.000000 0.000000
# 5 0.000000 0.000000 0.000000 0.000000 0.592969 0.000000
# 6 0.000000 0.000000 0.000000 0.000000 0.000000 0.020662
#
#
# Mechanical properties :
#
#
# Convention : Reuss Voigt Hill
#
# Bulk Modulus (GPa) = 59.85697 66.31955 63.08826
# Shear Modulus (GPa) = 7.26524 41.25292 24.25908
#
# Velocity S-wave (km/s) = 1.84971 4.40764 3.38000
# Velocity P-wave (km/s) = 5.72280 7.55877 6.70394
#
# Compressibility (1/GPa) = 0.01670649
#
# Stress axis : x y z
#
# Youngs Moduli (GPa) = 52.42529 121.69110 115.52217
#
# Poissons Ratio (x) = 0.71740 0.38695
# Poissons Ratio (y) = 0.30906 0.04346
# Poissons Ratio (z) = 0.17560 0.04578
#
# Static dielectric constant tensor:
#      x y z
#    x 0.404110 0.000000 0.000000 
#    y 0.000000 3.905820 0.000000 
#    z 0.000000 0.000000 4.602580 
# 
# 
# High freq. dielectric constant tensor:
#      x y z
#    x 1.819480 0.000000 0.000000 
#    y 0.000000 1.837190 0.000000 
#    z 0.000000 0.000000 1.835570 
# 
# From -- ./inp_files/48944.got.cif
#   From: 2010.03.12/outbox.cif.g09.slc.cpg/sg68_25_cif.got.tgz:48944.got - 2010.04.10 23:14:56.
