data_PCOD8283294
_publ_section_title
;
Structure prediction by ZEFSAII (Michael W. Deem and Ramdas Pophale) SiO2 
 PCOD8283294
Probable space group: C C C A
;
_chemical_formula_sum "Si O2"
_cell_formula_units_Z 120
_cell_length_a 23.534243
_cell_length_b 19.492568
_cell_length_c 11.465511
_cell_angle_alpha 90.000000
_cell_angle_beta 90.000000
_cell_angle_gamma 90.000000
_cell_volume 5259.720987
_symmetry_space_group_name_H-M "C C C A"
_symmetry_group_IT_number 68
_space_group.IT_coordinate_system_code '2'
_symmetry_cell_setting 'orthorhombic'
loop_
_space_group_symop_operation_xyz
x,y,z
-x,1/2-y,z
x,1/2-y,1/2-z
-x,y,1/2-z
-x,-y,-z
x,1/2+y,-z
-x,1/2+y,1/2+z
x,-y,1/2+z
1/2+x,1/2+y,z
1/2-x,-y,z
1/2+x,-y,1/2-z
1/2-x,1/2+y,1/2-z
1/2-x,1/2-y,-z
1/2+x,y,-z
1/2-x,y,1/2+z
1/2+x,1/2-y,1/2+z
loop_
_atom_site_type_symbol
_atom_site_label
_atom_site_fract_x
_atom_site_fract_y
_atom_site_fract_z
Si Si1 0.378299 0.019355 0.616696
Si Si2 0.708808 0.555573 0.497167
Si Si3 0.941007 0.891373 0.307320
Si Si4 0.106966 0.626727 0.064969
Si Si5 0.013619 0.327050 0.021656
Si Si6 0.836999 0.750000 0.750000
Si Si7 0.111533 0.381865 0.164103
Si Si8 0.715459 0.814326 0.458691
O O1 0.379378 0.051497 0.485997
O O2 0.385789 0.079199 0.712180
O O3 0.317100 0.980213 0.614932
O O4 0.426076 0.961956 0.628536
O O5 0.750000 0.500000 0.432961
O O6 0.655804 0.580031 0.419449
O O7 0.746435 0.619000 0.535666
O O8 0.896069 0.872338 0.205942
O O9 0.948210 0.829590 0.401748
O O10 0.000000 0.908604 0.250000
O O11 0.047861 0.642673 0.002550
O O12 0.157060 0.679322 0.031803
O O13 0.000000 0.250000 0.063966
O O14 0.046806 0.375781 0.114799
O O15 0.874271 0.699165 0.828708
O O16 0.798584 0.698154 0.675886
O O17 0.750000 0.750000 0.500000
#
# Coordination Sequence:
#
# PCOD8283294 Si02
#       8
#    16  16  16  16  16   8  16  16
#     4  12  25  44  70 109 148 192 247 304 388 450
#     4  12  25  47  74 106 152 197 257 316 382 457
#     4  10  25  44  73 105 142 191 241 309 374 447
#     4  11  25  47  70 108 144 190 254 306 372 462
#     4  11  26  48  76 107 149 195 252 314 387 459
#     4  12  24  48  69 108 148 187 256 308 374 460
#     4  12  26  46  75 110 154 195 252 320 382 462
#     4  12  26  47  73 106 147 198 252 316 381 460
#
# _framework density 22.814897999999999
#
# number of rings (size 3 to 8) (size 9 to 14) (size 15 to 20)
#    0.000    0.533    5.333    1.600    1.867    6.133 
#    0.000    0.000    0.000    0.000    0.000    0.000 
#    0.000    0.000    0.000    0.000    0.000    0.000 
#
# Total GULP energy -743523.915318 kJ/mol
# GULP energy per Si atom -12392.065255 kJ/mol
# Density = 2.276297 g / cm^3
# Si number density = 22.814898 Si / 1000 Ang^3
#
#
#
# Elastic Constant Matrix: (Units=GPa)
#
#
# Indices 1 2 3 4 5 6 
#
# 1 110.7542 53.8976 46.0905 0.0000 0.0000 0.0000
# 2 53.8976 133.0427 33.1895 0.0000 0.0000 0.0000
# 3 46.0905 33.1895 90.5890 0.0000 0.0000 0.0000
# 4 0.0000 0.0000 0.0000 35.1941 0.0000 0.0000
# 5 0.0000 0.0000 0.0000 0.0000 26.3298 0.0000
# 6 0.0000 0.0000 0.0000 0.0000 0.0000 47.1795
#
#
#
# Elastic Compliance Matrix: (Units=1/GPa)
#
#
# Indices 1 2 3 4 5 6 
#
# 1 0.013163 -0.004030 -0.005220 0.000000 0.000000 0.000000
# 2 -0.004030 0.009506 -0.001432 0.000000 0.000000 0.000000
# 3 -0.005220 -0.001432 0.014220 0.000000 0.000000 0.000000
# 4 0.000000 0.000000 0.000000 0.028414 0.000000 0.000000
# 5 0.000000 0.000000 0.000000 0.000000 0.037980 0.000000
# 6 0.000000 0.000000 0.000000 0.000000 0.000000 0.021196
#
#
# Mechanical properties :
#
#
# Convention : Reuss Voigt Hill
#
# Bulk Modulus (GPa) = 64.42116 66.74901 65.58509
# Shear Modulus (GPa) = 33.10852 35.15456 34.13154
#
# Velocity S-wave (km/s) = 3.81357 3.92964 3.87204
# Velocity P-wave (km/s) = 6.90571 7.06468 6.98565
#
# Compressibility (1/GPa) = 0.01552285
#
# Stress axis : x y z
#
# Youngs Moduli (GPa) = 75.97212 105.19256 70.32449
#
# Poissons Ratio (x) = 0.42394 0.36713
# Poissons Ratio (y) = 0.30617 0.10074
# Poissons Ratio (z) = 0.39661 0.15068
#
# Static dielectric constant tensor:
#      x y z
#    x 4.470780 0.000000 0.000000 
#    y 0.000000 4.366740 0.000000 
#    z 0.000000 0.000000 4.303990 
# 
# 
# High freq. dielectric constant tensor:
#      x y z
#    x 1.914800 0.000000 0.000000 
#    y 0.000000 1.913590 0.000000 
#    z 0.000000 0.000000 1.889280 
# 
# From -- ./inp_files/16611.got.cif
#   From: 2010.03.12/outbox.cif.g09.slc.cpg/sg68_9_cif.got.tgz:16611.got - 2010.04.10 23:14:56.
