data_PCOD8283927
_publ_section_title
;
Structure prediction by ZEFSAII (Michael W. Deem and Ramdas Pophale) SiO2 
 PCOD8283927
Probable space group: F M M M
;
_chemical_formula_sum "Si O2"
_cell_formula_units_Z 128
_cell_length_a 30.412474
_cell_length_b 24.799283
_cell_length_c 9.070108
_cell_angle_alpha 90.000000
_cell_angle_beta 90.000000
_cell_angle_gamma 90.000000
_cell_volume 6840.743928
_symmetry_space_group_name_H-M "F M M M"
_symmetry_group_IT_number 69
_symmetry_cell_setting 'orthorhombic'
loop_
_space_group_symop_operation_xyz
x,y,z
-x,-y,z
x,-y,-z
-x,y,-z
-x,-y,-z
x,y,-z
-x,y,z
x,-y,z
x,1/2+y,1/2+z
-x,1/2-y,1/2+z
x,1/2-y,1/2-z
-x,1/2+y,1/2-z
-x,1/2-y,1/2-z
x,1/2+y,1/2-z
-x,1/2+y,1/2+z
x,1/2-y,1/2+z
1/2+x,y,1/2+z
1/2-x,-y,1/2+z
1/2+x,-y,1/2-z
1/2-x,y,1/2-z
1/2-x,-y,1/2-z
1/2+x,y,1/2-z
1/2-x,y,1/2+z
1/2+x,-y,1/2+z
1/2+x,1/2+y,z
1/2-x,1/2-y,z
1/2+x,1/2-y,-z
1/2-x,1/2+y,-z
1/2-x,1/2-y,-z
1/2+x,1/2+y,-z
1/2-x,1/2+y,z
1/2+x,1/2-y,z
loop_
_atom_site_type_symbol
_atom_site_label
_atom_site_fract_x
_atom_site_fract_y
_atom_site_fract_z
Si Si1 0.950167 0.000000 0.673567
Si Si2 0.415799 0.805152 0.169848
Si Si3 0.000000 0.691347 0.323685
Si Si4 0.377676 0.583477 0.667711
Si Si5 0.790050 0.938020 0.160428
O O1 0.922203 0.946911 0.723297
O O2 0.956639 0.000000 0.500000
O O3 0.000000 0.000000 0.744511
O O4 0.400089 0.750000 0.250000
O O5 0.456000 0.834435 0.256922
O O6 0.379261 0.851401 0.177854
O O7 0.428294 0.791465 0.000000
O O8 0.000000 0.750000 0.250000
O O9 0.000000 0.691013 0.500000
O O10 0.369178 0.565507 0.500000
O O11 0.336676 0.565421 0.761851
O O12 0.750000 0.909781 0.250000
O O13 0.777717 0.000000 0.139015
O O14 0.793105 0.909852 0.000000
#
# Coordination Sequence:
#
# PCOD8283927 Si02
#       5
#    16  32  16  32  32
#     4   9  18  32  52  77 106 143 182 219 258 309
#     4  10  20  33  51  75 103 139 181 225 267 314
#     4  10  18  30  48  69  96 133 177 227 269 305
#     4  10  20  34  56  80 107 141 182 222 263 319
#     4  10  20  34  55  81 110 139 173 217 268 320
#
# _framework density 18.711414999999999
#
# number of rings (size 3 to 8) (size 9 to 14) (size 15 to 20)
#    0.000    2.125    1.250    4.125    1.750    3.000 
#    0.000    0.000    0.000    1.500    0.000    5.250 
#    0.000    0.000    0.000    0.000    0.000    0.000 
#
# Total GULP energy -396427.455661 kJ/mol
# GULP energy per Si atom -12388.357989 kJ/mol
# Density = 1.866883 g / cm^3
# Si number density = 18.711415 Si / 1000 Ang^3
#
#
#
# Elastic Constant Matrix: (Units=GPa)
#
#
# Indices 1 2 3 4 5 6 
#
# 1 129.1720 23.2156 56.1768 0.0006 -0.0003 0.0002
# 2 23.2156 75.1052 28.4962 -0.0007 -0.0006 -0.0001
# 3 56.1768 28.4962 134.1478 0.0028 -0.0064 0.0014
# 4 0.0006 -0.0007 0.0028 16.6066 -0.0020 0.0005
# 5 -0.0003 -0.0006 -0.0064 -0.0020 26.0372 -0.0004
# 6 0.0002 -0.0001 0.0014 0.0005 -0.0004 14.0645
#
#
#
# Elastic Compliance Matrix: (Units=1/GPa)
#
#
# Indices 1 2 3 4 5 6 
#
# 1 0.009634 -0.001574 -0.003700 0.000000 -0.000001 0.000000
# 2 -0.001574 0.014739 -0.002472 0.000001 0.000000 0.000000
# 3 -0.003700 -0.002472 0.009529 -0.000002 0.000002 -0.000001
# 4 0.000000 0.000001 -0.000002 0.060217 0.000005 -0.000002
# 5 -0.000001 0.000000 0.000002 0.000005 0.038407 0.000001
# 6 0.000000 0.000000 -0.000001 -0.000002 0.000001 0.071101
#
#
# Mechanical properties :
#
#
# Convention : Reuss Voigt Hill
#
# Bulk Modulus (GPa) = 54.31773 61.57802 57.94787
# Shear Modulus (GPa) = 22.19714 26.71075 24.45394
#
# Velocity S-wave (km/s) = 3.44799 3.78234 3.61903
# Velocity P-wave (km/s) = 6.70401 7.21495 6.96417
#
# Compressibility (1/GPa) = 0.01841020
#
# Stress axis : x y z
#
# Youngs Moduli (GPa) = 103.80350 67.84706 104.94369
#
# Poissons Ratio (x) = 0.10679 0.38828
# Poissons Ratio (y) = 0.16339 0.25940
# Poissons Ratio (z) = 0.38406 0.16770
#
# Static dielectric constant tensor:
#      x y z
#    x 3.766000 0.000000 0.000000 
#    y 0.000000 3.238620 0.000000 
#    z 0.000000 0.000000 3.615340 
# 
# 
# High freq. dielectric constant tensor:
#      x y z
#    x 1.716060 0.000000 0.000000 
#    y 0.000000 1.698970 0.000000 
#    z 0.000000 0.000000 1.727010 
# 
# From -- ./inp_files/4852.got.cif
#   From: 2010.03.12/outbox.cif.g09.slc.cpg/sg69_3_cif.got.tgz:4852.got - 2010.04.10 23:52:46.
