data_PCOD8283901
_publ_section_title
;
Structure prediction by ZEFSAII (Michael W. Deem and Ramdas Pophale) SiO2 
 PCOD8283901
Probable space group: F M M M
;
_chemical_formula_sum "Si O2"
_cell_formula_units_Z 176
_cell_length_a 15.116818
_cell_length_b 25.826744
_cell_length_c 25.386238
_cell_angle_alpha 90.000000
_cell_angle_beta 90.000000
_cell_angle_gamma 90.000000
_cell_volume 9911.249055
_symmetry_space_group_name_H-M "F M M M"
_symmetry_group_IT_number 69
_symmetry_cell_setting 'orthorhombic'
loop_
_space_group_symop_operation_xyz
x,y,z
-x,-y,z
x,-y,-z
-x,y,-z
-x,-y,-z
x,y,-z
-x,y,z
x,-y,z
x,1/2+y,1/2+z
-x,1/2-y,1/2+z
x,1/2-y,1/2-z
-x,1/2+y,1/2-z
-x,1/2-y,1/2-z
x,1/2+y,1/2-z
-x,1/2+y,1/2+z
x,1/2-y,1/2+z
1/2+x,y,1/2+z
1/2-x,-y,1/2+z
1/2+x,-y,1/2-z
1/2-x,y,1/2-z
1/2-x,-y,1/2-z
1/2+x,y,1/2-z
1/2-x,y,1/2+z
1/2+x,-y,1/2+z
1/2+x,1/2+y,z
1/2-x,1/2-y,z
1/2+x,1/2-y,-z
1/2-x,1/2+y,-z
1/2-x,1/2-y,-z
1/2+x,1/2+y,-z
1/2-x,1/2+y,z
1/2+x,1/2-y,z
loop_
_atom_site_type_symbol
_atom_site_label
_atom_site_fract_x
_atom_site_fract_y
_atom_site_fract_z
Si Si1 0.232255 0.561254 0.593875
Si Si2 0.671475 0.788210 0.125583
Si Si3 0.401267 0.376662 0.438354
Si Si4 0.097796 0.216966 0.795481
Si Si5 0.602683 0.938555 0.500000
Si Si6 0.226452 0.129348 0.808346
O O1 0.234717 0.500000 0.595195
O O2 0.330669 0.580667 0.579962
O O3 0.157872 0.580622 0.551608
O O4 0.208389 0.581875 0.651997
O O5 0.750000 0.750000 0.106693
O O6 0.630010 0.818674 0.076682
O O7 0.598511 0.751055 0.151429
O O8 0.700537 0.831232 0.168634
O O9 0.407490 0.378601 0.500000
O O10 0.500000 0.388155 0.414695
O O11 0.149045 0.250000 0.750000
O O12 0.136226 0.160583 0.804047
O O13 0.000000 0.206141 0.775772
O O14 0.500000 0.917381 0.500000
O O15 0.599203 0.000000 0.500000
O O16 0.250000 0.108055 0.750000
#
# Coordination Sequence:
#
# PCOD8283901 Si02
#       6
#    32  32  32  32  16  32
#     4  10  21  37  56  79 108 143 185 230 280 334
#     4   9  18  31  51  75 105 144 176 217 264 322
#     4  10  20  34  54  80 110 143 179 223 272 324
#     4  10  18  29  50  76 102 135 178 221 260 314
#     4   9  18  36  61  81 100 133 183 240 288 329
#     4  10  19  33  51  76 108 140 178 219 267 324
#
# _framework density 17.7576
#
# number of rings (size 3 to 8) (size 9 to 14) (size 15 to 20)
#    0.000    2.273    2.727    0.545    0.000    1.818 
#    0.000    0.909    0.000    0.000    0.000    2.545 
#    0.000    0.000    0.000    0.000    0.000    0.000 
#
# Total GULP energy -545190.690349 kJ/mol
# GULP energy per Si atom -12390.697508 kJ/mol
# Density = 1.771718 g / cm^3
# Si number density = 17.757600 Si / 1000 Ang^3
#
#
#
# Elastic Constant Matrix: (Units=GPa)
#
#
# Indices 1 2 3 4 5 6 
#
# 1 114.0475 42.0476 42.7009 0.0000 0.0000 0.0000
# 2 42.0476 86.3147 50.3153 0.0000 0.0000 0.0000
# 3 42.7009 50.3153 93.8689 0.0000 0.0000 0.0000
# 4 0.0000 0.0000 0.0000 28.7823 0.0000 0.0000
# 5 0.0000 0.0000 0.0000 0.0000 18.5311 0.0000
# 6 0.0000 0.0000 0.0000 0.0000 0.0000 -40.3243
#
#
#
# Elastic Compliance Matrix: (Units=1/GPa)
#
#
# Indices 1 2 3 4 5 6 
#
# 1 0.011307 -0.003651 -0.003187 0.000000 0.000000 0.000000
# 2 -0.003651 0.018029 -0.008003 0.000000 0.000000 0.000000
# 3 -0.003187 -0.008003 0.016393 0.000000 0.000000 0.000000
# 4 0.000000 0.000000 0.000000 0.034744 0.000000 0.000000
# 5 0.000000 0.000000 0.000000 0.000000 0.053963 0.000000
# 6 0.000000 0.000000 0.000000 0.000000 0.000000 -0.024799
#
#
# Mechanical properties :
#
#
# Convention : Reuss Voigt Hill
#
# Bulk Modulus (GPa) = 62.31403 62.70652 62.51028
# Shear Modulus (GPa) = 34.56178 12.00898 23.28538
#
# Velocity S-wave (km/s) = 4.41649 2.60335 3.62510
# Velocity P-wave (km/s) = 7.82143 6.66526 7.26638
#
# Compressibility (1/GPa) = 0.01604775
#
# Stress axis : x y z
#
# Youngs Moduli (GPa) = 88.43751 55.46557 61.00231
#
# Poissons Ratio (x) = 0.20248 0.19441
# Poissons Ratio (y) = 0.32284 0.48822
# Poissons Ratio (z) = 0.28185 0.44391
#
# Static dielectric constant tensor:
#      x y z
#    x 3.604250 0.000000 0.000000 
#    y 0.000000 3.164200 0.000000 
#    z 0.000000 0.000000 3.512350 
# 
# 
# High freq. dielectric constant tensor:
#      x y z
#    x 1.688360 0.000000 0.000000 
#    y 0.000000 1.666870 0.000000 
#    z 0.000000 0.000000 1.684330 
# 
# From -- ./inp_files/18131.got.cif
#   From: 2010.03.12/outbox.cif.g09.slc.cpg/sg69_10_cif.got.tgz:18131.got - 2010.04.10 23:52:46.
