data_PCOD8283475
_publ_section_title
;
Structure prediction by ZEFSAII (Michael W. Deem and Ramdas Pophale) SiO2 
 PCOD8283475
Probable space group: C C C A
;
_chemical_formula_sum "Si O2"
_cell_formula_units_Z 68
_cell_length_a 13.338074
_cell_length_b 19.117753
_cell_length_c 11.467144
_cell_angle_alpha 90.000000
_cell_angle_beta 90.000000
_cell_angle_gamma 90.000000
_cell_volume 2924.052966
_symmetry_space_group_name_H-M "C C C A"
_symmetry_group_IT_number 68
_space_group.IT_coordinate_system_code '2'
_symmetry_cell_setting 'orthorhombic'
loop_
_space_group_symop_operation_xyz
x,y,z
-x,1/2-y,z
x,1/2-y,1/2-z
-x,y,1/2-z
-x,-y,-z
x,1/2+y,-z
-x,1/2+y,1/2+z
x,-y,1/2+z
1/2+x,1/2+y,z
1/2-x,-y,z
1/2+x,-y,1/2-z
1/2-x,1/2+y,1/2-z
1/2-x,1/2-y,-z
1/2+x,y,-z
1/2-x,y,1/2+z
1/2+x,1/2-y,1/2+z
loop_
_atom_site_type_symbol
_atom_site_label
_atom_site_fract_x
_atom_site_fract_y
_atom_site_fract_z
Si Si1 0.606650 0.137336 0.899814
Si Si2 0.994753 0.094157 0.628356
Si Si3 0.000000 0.250000 0.250000
Si Si4 0.856477 0.469278 0.287565
Si Si5 0.300317 0.075009 0.020040
O O1 0.575715 0.206143 0.830552
O O2 0.586259 0.069052 0.819219
O O3 0.724341 0.135730 0.936105
O O4 0.541727 0.137640 0.018132
O O5 0.000000 0.138727 0.750000
O O6 0.108018 0.067791 0.609266
O O7 0.924335 0.027824 0.651693
O O8 0.750000 0.500000 0.240051
O O9 0.837341 0.409377 0.387235
O O10 0.250000 0.000000 0.007094
#
# Coordination Sequence:
#
# PCOD8283475 Si02
#       5
#    16  16   4  16  16
#     4  12  26  50  68 106 149 194 259 287 371 453
#     4  12  25  40  71 112 149 184 229 316 389 430
#     4  12  32  52  78  92 150 224 248 304 344 452
#     4  11  23  40  73 116 150 182 229 315 390 437
#     4  11  23  38  67 109 144 183 232 309 377 430
#
# _framework density 23.255393999999999
#
# number of rings (size 3 to 8) (size 9 to 14) (size 15 to 20)
#    0.000    0.471    4.706    5.647    8.235    0.000 
#    0.000    5.294    0.000    0.000    0.000    0.000 
#    0.000    0.000    0.000    0.000    0.000    0.000 
#
# Total GULP energy -421457.594897 kJ/mol
# GULP energy per Si atom -12395.811615 kJ/mol
# Density = 2.320246 g / cm^3
# Si number density = 23.255394 Si / 1000 Ang^3
#
#
#
# Elastic Constant Matrix: (Units=GPa)
#
#
# Indices 1 2 3 4 5 6 
#
# 1 140.5999 37.5642 54.0015 0.0000 0.0000 0.0000
# 2 37.5642 78.2170 53.6118 0.0000 0.0000 0.0000
# 3 54.0015 53.6118 197.8684 0.0000 0.0000 0.0000
# 4 0.0000 0.0000 0.0000 24.0609 0.0000 0.0000
# 5 0.0000 0.0000 0.0000 0.0000 46.6127 0.0000
# 6 0.0000 0.0000 0.0000 0.0000 0.0000 24.9494
#
#
#
# Elastic Compliance Matrix: (Units=1/GPa)
#
#
# Indices 1 2 3 4 5 6 
#
# 1 0.008503 -0.003062 -0.001491 0.000000 0.000000 0.000000
# 2 -0.003062 0.016803 -0.003717 0.000000 0.000000 0.000000
# 3 -0.001491 -0.003717 0.006468 0.000000 0.000000 0.000000
# 4 0.000000 0.000000 0.000000 0.041561 0.000000 0.000000
# 5 0.000000 0.000000 0.000000 0.000000 0.021453 0.000000
# 6 0.000000 0.000000 0.000000 0.000000 0.000000 0.040081
#
#
# Mechanical properties :
#
#
# Convention : Reuss Voigt Hill
#
# Bulk Modulus (GPa) = 65.64101 78.56003 72.10052
# Shear Modulus (GPa) = 31.95137 37.22512 34.58825
#
# Velocity S-wave (km/s) = 3.71068 4.00523 3.86076
# Velocity P-wave (km/s) = 6.82981 7.43262 7.13758
#
# Compressibility (1/GPa) = 0.01523438
#
# Stress axis : x y z
#
# Youngs Moduli (GPa) = 117.60491 59.51264 154.60810
#
# Poissons Ratio (x) = 0.18220 0.23053
# Poissons Ratio (y) = 0.36006 0.57471
# Poissons Ratio (z) = 0.17536 0.22122
#
# Static dielectric constant tensor:
#      x y z
#    x 4.923790 0.000000 0.000000 
#    y 0.000000 3.344640 0.000000 
#    z 0.000000 0.000000 5.463130 
# 
# 
# High freq. dielectric constant tensor:
#      x y z
#    x 1.948480 0.000000 0.000000 
#    y 0.000000 1.824640 0.000000 
#    z 0.000000 0.000000 1.972960 
# 
# From -- ./inp_files/13005.got.cif
#   From: 2010.03.12/outbox.cif.g09.slc.cpg/sg68_7_cif.got.tgz:13005.got - 2010.04.10 23:14:56.
