data_PCOD8283048
_publ_section_title
;
Structure prediction by ZEFSAII (Michael W. Deem and Ramdas Pophale) SiO2 
 PCOD8283048
Probable space group: C C C A
;
_chemical_formula_sum "Si O2"
_cell_formula_units_Z 120
_cell_length_a 13.592356
_cell_length_b 26.338984
_cell_length_c 19.573984
_cell_angle_alpha 90.000000
_cell_angle_beta 90.000000
_cell_angle_gamma 90.000000
_cell_volume 7007.659447
_symmetry_space_group_name_H-M "C C C A"
_symmetry_group_IT_number 68
_space_group.IT_coordinate_system_code '2'
_symmetry_cell_setting 'orthorhombic'
loop_
_space_group_symop_operation_xyz
x,y,z
-x,1/2-y,z
x,1/2-y,1/2-z
-x,y,1/2-z
-x,-y,-z
x,1/2+y,-z
-x,1/2+y,1/2+z
x,-y,1/2+z
1/2+x,1/2+y,z
1/2-x,-y,z
1/2+x,-y,1/2-z
1/2-x,1/2+y,1/2-z
1/2-x,1/2-y,-z
1/2+x,y,-z
1/2-x,y,1/2+z
1/2+x,1/2-y,1/2+z
loop_
_atom_site_type_symbol
_atom_site_label
_atom_site_fract_x
_atom_site_fract_y
_atom_site_fract_z
Si Si1 0.897110 0.810330 0.167702
Si Si2 0.957109 0.970692 0.376531
Si Si3 0.843255 0.413180 0.899081
Si Si4 0.500000 0.032211 0.750000
Si Si5 0.332755 0.458080 0.955795
Si Si6 0.218947 0.399294 0.849736
Si Si7 0.379155 0.802270 0.672583
Si Si8 0.789809 0.054897 0.216334
O O1 0.849440 0.853994 0.121055
O O2 0.882902 0.818556 0.248066
O O3 0.846858 0.755205 0.154566
O O4 0.010647 0.809884 0.145342
O O5 0.879098 0.925833 0.377422
O O6 0.065393 0.947730 0.376718
O O7 0.933741 0.011265 0.437780
O O8 0.943592 0.998804 0.305250
O O9 0.746762 0.434119 0.860713
O O10 0.837429 0.420344 0.980148
O O11 0.408918 0.063016 0.784074
O O12 0.250000 0.500000 0.968428
O O13 0.310735 0.421146 0.891892
O O14 0.199597 0.339524 0.863421
O O15 0.240378 0.406295 0.769500
O O16 0.750000 0.000000 0.239044
#
# Coordination Sequence:
#
# PCOD8283048 Si02
#       8
#    16  16  16   8  16  16  16  16
#     4   9  18  30  52  83 107 124 170 224 280 324
#     4  11  20  32  54  75 112 144 180 216 266 315
#     4  12  21  34  53  78 106 147 183 219 264 328
#     4  12  22  34  50  80 106 142 184 230 256 300
#     4  10  23  36  46  75 118 150 182 212 262 325
#     4  11  18  35  53  76 104 145 173 217 271 321
#     4   9  17  31  52  82 107 127 161 230 285 319
#     4  12  21  32  52  77 107 137 185 223 251 320
#
# _framework density 17.124120000000001
#
# number of rings (size 3 to 8) (size 9 to 14) (size 15 to 20)
#    0.000    1.333    6.667    2.000    0.000    0.000 
#    0.000    0.667    0.000    0.000    0.000    1.867 
#    0.000    0.000    0.000    0.000    0.000    0.000 
#
# Total GULP energy -743471.926878 kJ/mol
# GULP energy per Si atom -12391.198781 kJ/mol
# Density = 1.708514 g / cm^3
# Si number density = 17.124120 Si / 1000 Ang^3
#
#
#
# Elastic Constant Matrix: (Units=GPa)
#
#
# Indices 1 2 3 4 5 6 
#
# 1 77.8608 35.9590 13.9676 0.0000 0.0000 0.0000
# 2 35.9590 120.1227 34.0034 0.0000 0.0000 0.0000
# 3 13.9676 34.0034 74.7932 0.0000 0.0000 0.0000
# 4 0.0000 0.0000 0.0000 22.1199 0.0000 0.0000
# 5 0.0000 0.0000 0.0000 0.0000 18.7609 0.0000
# 6 0.0000 0.0000 0.0000 0.0000 0.0000 15.0238
#
#
#
# Elastic Compliance Matrix: (Units=1/GPa)
#
#
# Indices 1 2 3 4 5 6 
#
# 1 0.014953 -0.004230 -0.000869 0.000000 0.000000 0.000000
# 2 -0.004230 0.010751 -0.004098 0.000000 0.000000 0.000000
# 3 -0.000869 -0.004098 0.015396 0.000000 0.000000 0.000000
# 4 0.000000 0.000000 0.000000 0.045208 0.000000 0.000000
# 5 0.000000 0.000000 0.000000 0.000000 0.053302 0.000000
# 6 0.000000 0.000000 0.000000 0.000000 0.000000 0.066561
#
#
# Mechanical properties :
#
#
# Convention : Reuss Voigt Hill
#
# Bulk Modulus (GPa) = 44.04295 48.95965 46.50130
# Shear Modulus (GPa) = 21.53929 23.77071 22.65500
#
# Velocity S-wave (km/s) = 3.55044 3.72982 3.64124
# Velocity P-wave (km/s) = 6.52558 6.87036 6.70019
#
# Compressibility (1/GPa) = 0.02270511
#
# Stress axis : x y z
#
# Youngs Moduli (GPa) = 66.87617 93.01370 64.95381
#
# Poissons Ratio (x) = 0.39346 0.05647
# Poissons Ratio (y) = 0.28290 0.26617
# Poissons Ratio (z) = 0.05814 0.38115
#
# Static dielectric constant tensor:
#      x y z
#    x 3.125090 0.000000 0.000000 
#    y 0.000000 3.186690 0.000000 
#    z 0.000000 0.000000 3.052920 
# 
# 
# High freq. dielectric constant tensor:
#      x y z
#    x 1.647640 0.000000 0.000000 
#    y 0.000000 1.647130 0.000000 
#    z 0.000000 0.000000 1.644410 
# 
# From -- ./inp_files/37993.got.cif
#   From: 2010.03.12/outbox.cif.g09.slc.cpg/sg68_19_cif.got.tgz:37993.got - 2010.04.10 23:14:56.
