data_PCOD8283368
_publ_section_title
;
Structure prediction by ZEFSAII (Michael W. Deem and Ramdas Pophale) SiO2 
 PCOD8283368
Probable space group: C C C A
;
_chemical_formula_sum "Si O2"
_cell_formula_units_Z 72
_cell_length_a 22.857551
_cell_length_b 28.338182
_cell_length_c 4.949492
_cell_angle_alpha 90.000000
_cell_angle_beta 90.000000
_cell_angle_gamma 90.000000
_cell_volume 3205.991077
_symmetry_space_group_name_H-M "C C C A"
_symmetry_group_IT_number 68
_space_group.IT_coordinate_system_code '2'
_symmetry_cell_setting 'orthorhombic'
loop_
_space_group_symop_operation_xyz
x,y,z
-x,1/2-y,z
x,1/2-y,1/2-z
-x,y,1/2-z
-x,-y,-z
x,1/2+y,-z
-x,1/2+y,1/2+z
x,-y,1/2+z
1/2+x,1/2+y,z
1/2-x,-y,z
1/2+x,-y,1/2-z
1/2-x,1/2+y,1/2-z
1/2-x,1/2-y,-z
1/2+x,y,-z
1/2-x,y,1/2+z
1/2+x,1/2-y,1/2+z
loop_
_atom_site_type_symbol
_atom_site_label
_atom_site_fract_x
_atom_site_fract_y
_atom_site_fract_z
Si Si1 0.292085 0.750000 0.250000
Si Si2 0.788629 0.933233 0.639190
Si Si3 0.362356 0.155882 0.750890
Si Si4 0.433756 0.630098 0.781814
Si Si5 0.408775 0.028346 0.992889
O O1 0.250000 0.750000 0.500000
O O2 0.332926 0.705399 0.305433
O O3 0.766712 0.941183 0.944117
O O4 0.813891 0.880136 0.632957
O O5 0.838439 0.969189 0.539617
O O6 0.395610 0.133706 0.491574
O O7 0.407883 0.164951 0.992767
O O8 0.500000 0.646851 0.750000
O O9 0.434515 0.577507 0.906414
O O10 0.430510 0.987010 0.195541
#
# Coordination Sequence:
#
# PCOD8283368 Si02
#       5
#     8  16  16  16  16
#     4  12  24  42  71 102 133 164 202 254 310 374
#     4  11  21  36  58  83 121 164 197 244 312 374
#     4  11  23  42  64  96 127 161 213 258 308 381
#     4  11  24  44  66  88 126 171 211 264 323 367
#     4  11  23  38  58  89 121 157 214 266 305 369
#
# _framework density 22.457954999999998
#
# number of rings (size 3 to 8) (size 9 to 14) (size 15 to 20)
#    0.000    0.889    0.000   10.000    0.000    3.556 
#    0.000    3.333    0.000    0.000    0.000    0.000 
#    0.000    0.000    0.000    0.000    0.000    0.000 
#
# Total GULP energy -446273.319481 kJ/mol
# GULP energy per Si atom -12396.481097 kJ/mol
# Density = 2.240684 g / cm^3
# Si number density = 22.457955 Si / 1000 Ang^3
#
#
#
# Elastic Constant Matrix: (Units=GPa)
#
#
# Indices 1 2 3 4 5 6 
#
# 1 79.1994 14.9390 34.6993 0.0000 0.0000 0.0000
# 2 14.9390 71.3599 22.2003 0.0000 0.0000 0.0000
# 3 34.6993 22.2003 145.5388 0.0000 0.0000 0.0000
# 4 0.0000 0.0000 0.0000 34.3798 0.0000 0.0000
# 5 0.0000 0.0000 0.0000 0.0000 28.5136 0.0000
# 6 0.0000 0.0000 0.0000 0.0000 0.0000 23.1603
#
#
#
# Elastic Compliance Matrix: (Units=1/GPa)
#
#
# Indices 1 2 3 4 5 6 
#
# 1 0.014377 -0.002040 -0.003116 0.000000 0.000000 0.000000
# 2 -0.002040 0.015001 -0.001802 0.000000 0.000000 0.000000
# 3 -0.003116 -0.001802 0.007889 0.000000 0.000000 0.000000
# 4 0.000000 0.000000 0.000000 0.029087 0.000000 0.000000
# 5 0.000000 0.000000 0.000000 0.000000 0.035071 0.000000
# 6 0.000000 0.000000 0.000000 0.000000 0.000000 0.043177
#
#
# Mechanical properties :
#
#
# Convention : Reuss Voigt Hill
#
# Bulk Modulus (GPa) = 42.82708 48.86390 45.84549
# Shear Modulus (GPa) = 30.06581 32.16138 31.11359
#
# Velocity S-wave (km/s) = 3.66288 3.78838 3.72615
# Velocity P-wave (km/s) = 6.08278 6.39851 6.24264
#
# Compressibility (1/GPa) = 0.02334971
#
# Stress axis : x y z
#
# Youngs Moduli (GPa) = 69.55757 66.66164 126.76050
#
# Poissons Ratio (x) = 0.13600 0.39504
# Poissons Ratio (y) = 0.14191 0.22840
# Poissons Ratio (z) = 0.21677 0.12011
#
# Static dielectric constant tensor:
#      x y z
#    x 4.154150 0.000000 0.000000 
#    y 0.000000 3.884090 0.000000 
#    z 0.000000 0.000000 4.314030 
# 
# 
# High freq. dielectric constant tensor:
#      x y z
#    x 1.888170 0.000000 0.000000 
#    y 0.000000 1.865680 0.000000 
#    z 0.000000 0.000000 1.909440 
# 
# From -- ./inp_files/1900.got.cif
#   From: 2010.03.12/outbox.cif.g09.slc.cpg/sg68_1_cif.got.tgz:1900.got - 2010.04.10 23:14:56.
