data_PCOD8283558
_publ_section_title
;
Structure prediction by ZEFSAII (Michael W. Deem and Ramdas Pophale) SiO2 
 PCOD8283558
Probable space group: C C C A
;
_chemical_formula_sum "Si O2"
_cell_formula_units_Z 80
_cell_length_a 25.806539
_cell_length_b 8.726229
_cell_length_c 15.341102
_cell_angle_alpha 90.000000
_cell_angle_beta 90.000000
_cell_angle_gamma 90.000000
_cell_volume 3454.720580
_symmetry_space_group_name_H-M "C C C A"
_symmetry_group_IT_number 68
_space_group.IT_coordinate_system_code '2'
_symmetry_cell_setting 'orthorhombic'
loop_
_space_group_symop_operation_xyz
x,y,z
-x,1/2-y,z
x,1/2-y,1/2-z
-x,y,1/2-z
-x,-y,-z
x,1/2+y,-z
-x,1/2+y,1/2+z
x,-y,1/2+z
1/2+x,1/2+y,z
1/2-x,-y,z
1/2+x,-y,1/2-z
1/2-x,1/2+y,1/2-z
1/2-x,1/2-y,-z
1/2+x,y,-z
1/2-x,y,1/2+z
1/2+x,1/2-y,1/2+z
loop_
_atom_site_type_symbol
_atom_site_label
_atom_site_fract_x
_atom_site_fract_y
_atom_site_fract_z
Si Si1 0.806148 0.538267 0.936679
Si Si2 0.874398 0.280355 0.997131
Si Si3 0.400830 0.120096 0.677717
Si Si4 0.803354 0.562007 0.241166
Si Si5 0.555846 0.820799 0.838364
O O1 0.750000 0.500000 0.976078
O O2 0.819733 0.701573 0.977831
O O3 0.805281 0.527369 0.832684
O O4 0.856561 0.443977 0.964420
O O5 0.906588 0.293592 0.085997
O O6 0.908009 0.201538 0.922139
O O7 0.403083 0.250000 0.750000
O O8 0.350385 0.006386 0.683730
O O9 0.449413 0.003020 0.681180
O O10 0.804833 0.750000 0.250000
O O11 0.750000 0.500000 0.196592
O O12 0.500000 0.750000 0.857519
O O13 0.580770 0.750000 0.750000
#
# Coordination Sequence:
#
# PCOD8283558 Si02
#       5
#    16  16  16  16  16
#     4  11  24  41  67 104 151 197 242 291 352 423
#     4  12  24  45  72 106 146 195 240 299 360 433
#     4  12  24  44  74 109 149 190 244 299 364 442
#     4  11  24  41  68 106 152 202 248 298 356 429
#     4  11  27  52  78 101 139 187 241 310 384 439
#
# _framework density 23.156721000000001
#
# number of rings (size 3 to 8) (size 9 to 14) (size 15 to 20)
#    0.000    0.600    4.000    4.200    2.800    1.600 
#    0.000    2.000    0.000    0.000    0.000    0.000 
#    0.000    0.000    0.000    0.000    0.000    0.000 
#
# Total GULP energy -495605.140460 kJ/mol
# GULP energy per Si atom -12390.128512 kJ/mol
# Density = 2.310402 g / cm^3
# Si number density = 23.156721 Si / 1000 Ang^3
#
#
#
# Elastic Constant Matrix: (Units=GPa)
#
#
# Indices 1 2 3 4 5 6 
#
# 1 94.7815 48.8294 41.9090 0.0000 0.0000 0.0000
# 2 48.8294 122.8456 40.8820 0.0000 0.0000 0.0000
# 3 41.9090 40.8820 146.6095 0.0000 0.0000 0.0000
# 4 0.0000 0.0000 0.0000 26.7346 0.0000 0.0000
# 5 0.0000 0.0000 0.0000 0.0000 21.6448 0.0000
# 6 0.0000 0.0000 0.0000 0.0000 0.0000 42.8017
#
#
#
# Elastic Compliance Matrix: (Units=1/GPa)
#
#
# Indices 1 2 3 4 5 6 
#
# 1 0.014200 -0.004733 -0.002739 0.000000 0.000000 0.000000
# 2 -0.004733 0.010550 -0.001589 0.000000 0.000000 0.000000
# 3 -0.002739 -0.001589 0.008047 0.000000 0.000000 0.000000
# 4 0.000000 0.000000 0.000000 0.037405 0.000000 0.000000
# 5 0.000000 0.000000 0.000000 0.000000 0.046200 0.000000
# 6 0.000000 0.000000 0.000000 0.000000 0.000000 0.023364
#
#
# Mechanical properties :
#
#
# Convention : Reuss Voigt Hill
#
# Bulk Modulus (GPa) = 68.14317 69.71971 68.93144
# Shear Modulus (GPa) = 30.71629 33.74398 32.23014
#
# Velocity S-wave (km/s) = 3.64600 3.82147 3.73477
# Velocity P-wave (km/s) = 6.87134 7.04590 6.95916
#
# Compressibility (1/GPa) = 0.01467499
#
# Stress axis : x y z
#
# Youngs Moduli (GPa) = 70.42240 94.78399 124.26921
#
# Poissons Ratio (x) = 0.44858 0.34043
# Poissons Ratio (y) = 0.33328 0.19748
# Poissons Ratio (z) = 0.19292 0.15062
#
# Static dielectric constant tensor:
#      x y z
#    x 4.050690 0.000000 0.000000 
#    y 0.000000 4.517590 0.000000 
#    z 0.000000 0.000000 4.348130 
# 
# 
# High freq. dielectric constant tensor:
#      x y z
#    x 1.898080 0.000000 0.000000 
#    y 0.000000 1.929740 0.000000 
#    z 0.000000 0.000000 1.924380 
# 
# From -- ./inp_files/33982.got.cif
#   From: 2010.03.12/outbox.cif.g09.slc.cpg/sg68_17_cif.got.tgz:33982.got - 2010.04.10 23:14:56.
