data_PCOD8283340
_publ_section_title
;
Structure prediction by ZEFSAII (Michael W. Deem and Ramdas Pophale) SiO2 
 PCOD8283340
Probable space group: C C C A
;
_chemical_formula_sum "Si O2"
_cell_formula_units_Z 104
_cell_length_a 17.998511
_cell_length_b 13.404904
_cell_length_c 22.387620
_cell_angle_alpha 90.000000
_cell_angle_beta 90.000000
_cell_angle_gamma 90.000000
_cell_volume 5401.423289
_symmetry_space_group_name_H-M "C C C A"
_symmetry_group_IT_number 68
_space_group.IT_coordinate_system_code '2'
_symmetry_cell_setting 'orthorhombic'
loop_
_space_group_symop_operation_xyz
x,y,z
-x,1/2-y,z
x,1/2-y,1/2-z
-x,y,1/2-z
-x,-y,-z
x,1/2+y,-z
-x,1/2+y,1/2+z
x,-y,1/2+z
1/2+x,1/2+y,z
1/2-x,-y,z
1/2+x,-y,1/2-z
1/2-x,1/2+y,1/2-z
1/2-x,1/2-y,-z
1/2+x,y,-z
1/2-x,y,1/2+z
1/2+x,1/2-y,1/2+z
loop_
_atom_site_type_symbol
_atom_site_label
_atom_site_fract_x
_atom_site_fract_y
_atom_site_fract_z
Si Si1 0.582142 0.087348 0.766896
Si Si2 0.836519 0.967621 0.363874
Si Si3 0.932886 0.058063 0.471644
Si Si4 0.000000 0.250000 0.076496
Si Si5 0.616676 0.223850 0.664551
Si Si6 0.209727 0.399434 0.524957
Si Si7 0.740773 0.209794 0.403847
O O1 0.500000 0.045775 0.750000
O O2 0.628132 0.130441 0.709505
O O3 0.569648 0.183400 0.808595
O O4 0.630586 0.000530 0.799337
O O5 0.828652 0.847180 0.371451
O O6 0.750000 0.000000 0.372316
O O7 0.893737 0.009348 0.413450
O O8 0.874679 0.065983 0.524661
O O9 0.956480 0.170995 0.462143
O O10 0.000000 0.000000 0.500000
O O11 0.063549 0.312991 0.111505
O O12 0.693086 0.274806 0.643416
O O13 0.250000 0.500000 0.543635
O O14 0.234746 0.355829 0.460935
O O15 0.217363 0.319607 0.577185
#
# Coordination Sequence:
#
# PCOD8283340 Si02
#       7
#    16  16  16   8  16  16  16
#     4  11  20  35  63  93 123 151 210 284 328 373
#     4  12  20  43  63  93 124 173 214 257 330 393
#     4  12  25  35  59  91 128 171 211 256 323 397
#     4  12  20  37  56  88 130 160 209 266 326 380
#     4  11  19  35  59  92 121 156 206 280 324 367
#     4  11  22  40  60  92 128 169 213 261 310 392
#     4  11  22  37  68  87 126 168 213 261 319 395
#
# _framework density 19.254185
#
# number of rings (size 3 to 8) (size 9 to 14) (size 15 to 20)
#    0.000    0.615    9.231    0.462    4.308    0.000 
#    0.000    0.769    0.000    0.000    4.000    0.000 
#    0.000    0.000    0.000    0.000    0.000    0.000 
#
# Total GULP energy -644238.630614 kJ/mol
# GULP energy per Si atom -12389.204435 kJ/mol
# Density = 1.921036 g / cm^3
# Si number density = 19.254185 Si / 1000 Ang^3
#
#
#
# Elastic Constant Matrix: (Units=GPa)
#
#
# Indices 1 2 3 4 5 6 
#
# 1 123.0662 65.5339 46.9315 0.0000 0.0000 0.0000
# 2 65.5339 135.3543 54.8343 0.0000 0.0000 0.0000
# 3 46.9315 54.8343 70.9229 0.0000 0.0000 0.0000
# 4 0.0000 0.0000 0.0000 37.9038 0.0000 0.0000
# 5 0.0000 0.0000 0.0000 0.0000 41.7741 0.0000
# 6 0.0000 0.0000 0.0000 0.0000 0.0000 36.4505
#
#
#
# Elastic Compliance Matrix: (Units=1/GPa)
#
#
# Indices 1 2 3 4 5 6 
#
# 1 0.012076 -0.003800 -0.005053 0.000000 0.000000 0.000000
# 2 -0.003800 0.011953 -0.006727 0.000000 0.000000 0.000000
# 3 -0.005053 -0.006727 0.022645 0.000000 0.000000 0.000000
# 4 0.000000 0.000000 0.000000 0.026383 0.000000 0.000000
# 5 0.000000 0.000000 0.000000 0.000000 0.023938 0.000000
# 6 0.000000 0.000000 0.000000 0.000000 0.000000 0.027434
#
#
# Mechanical properties :
#
#
# Convention : Reuss Voigt Hill
#
# Bulk Modulus (GPa) = 64.45941 73.77143 69.11542
# Shear Modulus (GPa) = 31.10206 34.02859 32.56532
#
# Velocity S-wave (km/s) = 4.02349 4.20853 4.11705
# Velocity P-wave (km/s) = 7.42532 7.87485 7.65339
#
# Compressibility (1/GPa) = 0.01551364
#
# Stress axis : x y z
#
# Youngs Moduli (GPa) = 82.80755 83.66120 44.16002
#
# Poissons Ratio (x) = 0.31788 0.22316
# Poissons Ratio (y) = 0.31464 0.29707
# Poissons Ratio (z) = 0.41846 0.56280
#
# Static dielectric constant tensor:
#      x y z
#    x 3.927750 0.000000 0.000000 
#    y 0.000000 3.614800 0.000000 
#    z 0.000000 0.000000 3.951730 
# 
# 
# High freq. dielectric constant tensor:
#      x y z
#    x 1.751250 0.000000 0.000000 
#    y 0.000000 1.736100 0.000000 
#    z 0.000000 0.000000 1.730720 
# 
# From -- ./inp_files/51458.got.cif
#   From: 2010.03.12/outbox.cif.g09.slc.cpg/sg68_26_cif.got.tgz:51458.got - 2010.04.10 23:14:56.
