data_PCOD8283290
_publ_section_title
;
Structure prediction by ZEFSAII (Michael W. Deem and Ramdas Pophale) SiO2 
 PCOD8283290
Probable space group: C C C A
;
_chemical_formula_sum "Si O2"
_cell_formula_units_Z 56
_cell_length_a 20.835389
_cell_length_b 4.875853
_cell_length_c 22.480505
_cell_angle_alpha 90.000000
_cell_angle_beta 90.000000
_cell_angle_gamma 90.000000
_cell_volume 2283.801111
_symmetry_space_group_name_H-M "C C C A"
_symmetry_group_IT_number 68
_space_group.IT_coordinate_system_code '2'
_symmetry_cell_setting 'orthorhombic'
loop_
_space_group_symop_operation_xyz
x,y,z
-x,1/2-y,z
x,1/2-y,1/2-z
-x,y,1/2-z
-x,-y,-z
x,1/2+y,-z
-x,1/2+y,1/2+z
x,-y,1/2+z
1/2+x,1/2+y,z
1/2-x,-y,z
1/2+x,-y,1/2-z
1/2-x,1/2+y,1/2-z
1/2-x,1/2-y,-z
1/2+x,y,-z
1/2-x,y,1/2+z
1/2+x,1/2-y,1/2+z
loop_
_atom_site_type_symbol
_atom_site_label
_atom_site_fract_x
_atom_site_fract_y
_atom_site_fract_z
Si Si1 0.587584 0.479860 0.290743
Si Si2 0.000000 0.250000 0.616077
Si Si3 0.383528 0.855229 0.540652
Si Si4 0.791986 0.747172 0.143176
O O1 0.591113 0.750000 0.250000
O O2 0.538920 0.486635 0.346882
O O3 0.658086 0.377212 0.310146
O O4 0.556149 0.250000 0.250000
O O5 0.050062 0.086830 0.575011
O O6 0.378770 0.547445 0.516376
O O7 0.326058 0.898791 0.587196
O O8 0.750000 0.500000 0.172996
O O9 0.750000 0.000000 0.119883
#
# Coordination Sequence:
#
# PCOD8283290 Si02
#       4
#    16   8  16  16
#     4  11  25  44  68  97 133 180 230 284 343 403
#     4  10  25  44  68 100 138 178 231 286 342 412
#     4  11  24  42  68 100 136 179 224 279 345 411
#     4  11  24  43  67  98 136 177 229 286 340 408
#
# _framework density 24.520526
#
# number of rings (size 3 to 8) (size 9 to 14) (size 15 to 20)
#    0.000    1.143    0.000    4.714    0.000   17.143 
#    0.000    0.000    0.000    0.000    0.000    0.000 
#    0.000    0.000    0.000    0.000    0.000    0.000 
#
# Total GULP energy -347098.352198 kJ/mol
# GULP energy per Si atom -12396.369721 kJ/mol
# Density = 2.446472 g / cm^3
# Si number density = 24.520526 Si / 1000 Ang^3
#
#
#
# Elastic Constant Matrix: (Units=GPa)
#
#
# Indices 1 2 3 4 5 6 
#
# 1 121.9752 44.7278 27.9705 0.0000 0.0000 0.0000
# 2 44.7278 140.6621 38.3481 0.0000 0.0000 0.0000
# 3 27.9705 38.3481 94.3194 0.0000 0.0000 0.0000
# 4 0.0000 0.0000 0.0000 51.5747 0.0000 0.0000
# 5 0.0000 0.0000 0.0000 0.0000 10.8988 0.0000
# 6 0.0000 0.0000 0.0000 0.0000 0.0000 34.4131
#
#
#
# Elastic Compliance Matrix: (Units=1/GPa)
#
#
# Indices 1 2 3 4 5 6 
#
# 1 0.009543 -0.002545 -0.001795 0.000000 0.000000 0.000000
# 2 -0.002545 0.008674 -0.002772 0.000000 0.000000 0.000000
# 3 -0.001795 -0.002772 0.012262 0.000000 0.000000 0.000000
# 4 0.000000 0.000000 0.000000 0.019389 0.000000 0.000000
# 5 0.000000 0.000000 0.000000 0.000000 0.091753 0.000000
# 6 0.000000 0.000000 0.000000 0.000000 0.000000 0.029059
#
#
# Mechanical properties :
#
#
# Convention : Reuss Voigt Hill
#
# Bulk Modulus (GPa) = 61.52160 64.33882 62.93021
# Shear Modulus (GPa) = 26.27105 35.77133 31.02119
#
# Velocity S-wave (km/s) = 3.27676 3.82361 3.56070
# Velocity P-wave (km/s) = 6.28176 6.76676 6.52877
#
# Compressibility (1/GPa) = 0.01625445
#
# Stress axis : x y z
#
# Youngs Moduli (GPa) = 104.78475 115.28360 81.55477
#
# Poissons Ratio (x) = 0.29342 0.14641
# Poissons Ratio (y) = 0.26669 0.22607
# Poissons Ratio (z) = 0.18812 0.31956
#
# Static dielectric constant tensor:
#      x y z
#    x 4.653500 0.000000 0.000000 
#    y 0.000000 4.034170 0.000000 
#    z 0.000000 0.000000 4.392930 
# 
# 
# High freq. dielectric constant tensor:
#      x y z
#    x 1.996410 0.000000 0.000000 
#    y 0.000000 1.965670 0.000000 
#    z 0.000000 0.000000 1.980040 
# 
# From -- ./inp_files/46266.got.cif
#   From: 2010.03.12/outbox.cif.g09.slc.cpg/sg68_24_cif.got.tgz:46266.got - 2010.04.10 23:14:56.
