data_PCOD8283432
_publ_section_title
;
Structure prediction by ZEFSAII (Michael W. Deem and Ramdas Pophale) SiO2 
 PCOD8283432
Probable space group: C C C A
;
_chemical_formula_sum "Si O2"
_cell_formula_units_Z 64
_cell_length_a 9.226984
_cell_length_b 34.073485
_cell_length_c 10.003014
_cell_angle_alpha 90.000000
_cell_angle_beta 90.000000
_cell_angle_gamma 90.000000
_cell_volume 3144.902597
_symmetry_space_group_name_H-M "C C C A"
_symmetry_group_IT_number 68
_space_group.IT_coordinate_system_code '2'
_symmetry_cell_setting 'orthorhombic'
loop_
_space_group_symop_operation_xyz
x,y,z
-x,1/2-y,z
x,1/2-y,1/2-z
-x,y,1/2-z
-x,-y,-z
x,1/2+y,-z
-x,1/2+y,1/2+z
x,-y,1/2+z
1/2+x,1/2+y,z
1/2-x,-y,z
1/2+x,-y,1/2-z
1/2-x,1/2+y,1/2-z
1/2-x,1/2-y,-z
1/2+x,y,-z
1/2-x,y,1/2+z
1/2+x,1/2-y,1/2+z
loop_
_atom_site_type_symbol
_atom_site_label
_atom_site_fract_x
_atom_site_fract_y
_atom_site_fract_z
Si Si1 0.117743 0.390102 0.575611
Si Si2 0.405084 0.480089 0.115869
Si Si3 0.186182 0.858986 0.144657
Si Si4 0.341069 0.233023 0.117494
O O1 0.139160 0.436402 0.574235
O O2 0.203758 0.369545 0.698738
O O3 0.171855 0.372029 0.435856
O O4 0.947459 0.382757 0.584097
O O5 0.500000 0.480954 0.250000
O O6 0.250000 0.500000 0.140377
O O7 0.500000 0.500000 0.000000
O O8 0.155129 0.813506 0.123734
O O9 0.500000 0.250000 0.102419
O O10 0.266170 0.250000 0.250000
O O11 0.250000 0.250000 0.000000
#
# Coordination Sequence:
#
# PCOD8283432 Si02
#       4
#    16  16  16  16
#     4  11  24  43  64  94 127 169 218 261 327 385
#     4  12  26  45  70 100 136 175 222 274 333 398
#     4  11  22  42  64  90 130 168 214 268 319 388
#     4  11  22  39  63  93 126 168 214 267 324 381
#
# _framework density 20.350393
#
# number of rings (size 3 to 8) (size 9 to 14) (size 15 to 20)
#    0.000    0.750    2.500    8.250    3.500    1.500 
#    0.000    5.000    0.000    0.000    0.000    0.000 
#    0.000    0.000    0.000    0.000    0.000    0.000 
#
# Total GULP energy -396863.456163 kJ/mol
# GULP energy per Si atom -12401.983005 kJ/mol
# Density = 2.030407 g / cm^3
# Si number density = 20.350393 Si / 1000 Ang^3
#
#
#
# Elastic Constant Matrix: (Units=GPa)
#
#
# Indices 1 2 3 4 5 6 
#
# 1 58.6478 20.1995 27.1355 0.0000 0.0000 0.0000
# 2 20.1995 172.7406 21.3031 0.0000 0.0000 0.0000
# 3 27.1355 21.3031 114.5899 0.0000 0.0000 0.0000
# 4 0.0000 0.0000 0.0000 36.7226 0.0000 0.0000
# 5 0.0000 0.0000 0.0000 0.0000 38.0314 0.0000
# 6 0.0000 0.0000 0.0000 0.0000 0.0000 35.4563
#
#
#
# Elastic Compliance Matrix: (Units=1/GPa)
#
#
# Indices 1 2 3 4 5 6 
#
# 1 0.019661 -0.001765 -0.004328 0.000000 0.000000 0.000000
# 2 -0.001765 0.006083 -0.000713 0.000000 0.000000 0.000000
# 3 -0.004328 -0.000713 0.009884 0.000000 0.000000 0.000000
# 4 0.000000 0.000000 0.000000 0.027231 0.000000 0.000000
# 5 0.000000 0.000000 0.000000 0.000000 0.026294 0.000000
# 6 0.000000 0.000000 0.000000 0.000000 0.000000 0.028204
#
#
# Mechanical properties :
#
#
# Convention : Reuss Voigt Hill
#
# Bulk Modulus (GPa) = 45.41973 53.69493 49.55733
# Shear Modulus (GPa) = 36.15099 40.53141 38.34120
#
# Velocity S-wave (km/s) = 4.21934 4.46766 4.34528
# Velocity P-wave (km/s) = 6.79002 7.28394 7.04132
#
# Compressibility (1/GPa) = 0.02201686
#
# Stress axis : x y z
#
# Youngs Moduli (GPa) = 50.86124 164.38231 101.17231
#
# Poissons Ratio (x) = 0.29020 0.43784
# Poissons Ratio (y) = 0.08979 0.07212
# Poissons Ratio (z) = 0.22011 0.11719
#
# Static dielectric constant tensor:
#      x y z
#    x 3.674030 0.000000 0.000000 
#    y 0.000000 3.908180 0.000000 
#    z 0.000000 0.000000 4.161220 
# 
# 
# High freq. dielectric constant tensor:
#      x y z
#    x 1.793080 0.000000 0.000000 
#    y 0.000000 1.820510 0.000000 
#    z 0.000000 0.000000 1.808510 
# 
# From -- ./inp_files/10752.got.cif
#   From: 2010.03.12/outbox.cif.g09.slc.cpg/sg68_6_cif.got.tgz:10752.got - 2010.04.10 23:14:56.
