data_PCOD8283769
_publ_section_title
;
Structure prediction by ZEFSAII (Michael W. Deem and Ramdas Pophale) SiO2 
 PCOD8283769
Probable space group: F M M M
;
_chemical_formula_sum "Si O2"
_cell_formula_units_Z 176
_cell_length_a 17.765927
_cell_length_b 17.232563
_cell_length_c 33.195326
_cell_angle_alpha 90.000000
_cell_angle_beta 90.000000
_cell_angle_gamma 90.000000
_cell_volume 10162.830592
_symmetry_space_group_name_H-M "F M M M"
_symmetry_group_IT_number 69
_symmetry_cell_setting 'orthorhombic'
loop_
_space_group_symop_operation_xyz
x,y,z
-x,-y,z
x,-y,-z
-x,y,-z
-x,-y,-z
x,y,-z
-x,y,z
x,-y,z
x,1/2+y,1/2+z
-x,1/2-y,1/2+z
x,1/2-y,1/2-z
-x,1/2+y,1/2-z
-x,1/2-y,1/2-z
x,1/2+y,1/2-z
-x,1/2+y,1/2+z
x,1/2-y,1/2+z
1/2+x,y,1/2+z
1/2-x,-y,1/2+z
1/2+x,-y,1/2-z
1/2-x,y,1/2-z
1/2-x,-y,1/2-z
1/2+x,y,1/2-z
1/2-x,y,1/2+z
1/2+x,-y,1/2+z
1/2+x,1/2+y,z
1/2-x,1/2-y,z
1/2+x,1/2-y,-z
1/2-x,1/2+y,-z
1/2-x,1/2-y,-z
1/2+x,1/2+y,-z
1/2-x,1/2+y,z
1/2+x,1/2-y,z
loop_
_atom_site_type_symbol
_atom_site_label
_atom_site_fract_x
_atom_site_fract_y
_atom_site_fract_z
Si Si1 0.308977 0.685115 0.844515
Si Si2 0.586904 0.282439 0.294538
Si Si3 0.333292 0.144366 0.435181
Si Si4 0.217642 0.088352 0.500000
Si Si5 0.711719 0.589863 0.292004
Si Si6 0.340130 0.759234 0.000000
Si Si7 0.413594 0.500000 0.955381
O O1 0.250000 0.750000 0.831347
O O2 0.388190 0.714100 0.825811
O O3 0.310744 0.676935 0.892297
O O4 0.276737 0.605688 0.825429
O O5 0.500000 0.302990 0.303538
O O6 0.597810 0.250000 0.250000
O O7 0.636058 0.360530 0.299736
O O8 0.263496 0.106260 0.459095
O O9 0.370926 0.215569 0.460241
O O10 0.393799 0.076122 0.429790
O O11 0.144981 0.147703 0.500000
O O12 0.188403 0.000000 0.500000
O O13 0.688364 0.500000 0.293834
O O14 0.750000 0.612878 0.250000
O O15 0.250000 0.750000 0.000000
O O16 0.500000 0.500000 0.964049
O O17 0.372358 0.500000 0.000000
#
# Coordination Sequence:
#
# PCOD8283769 Si02
#       7
#    32  32  32  16  32  16  16
#     4  10  20  32  55  76 101 135 175 216 260 306
#     4  10  20  36  55  73  99 135 173 210 259 313
#     4  10  17  32  45  71 101 132 171 208 254 299
#     4  10  16  28  47  71 100 133 162 204 256 306
#     4  10  20  34  53  77 102 130 166 215 266 312
#     4   8  16  27  46  66  99 129 163 206 249 294
#     4  11  20  32  50  70 103 148 177 201 250 319
#
# _framework density 17.318010000000001
#
# number of rings (size 3 to 8) (size 9 to 14) (size 15 to 20)
#    0.000    2.273    4.545    1.636    1.273    1.091 
#    0.000    0.000    0.000    0.000    0.000    0.000 
#    0.000    1.455    0.000    0.000    0.000   46.727 
#
# Total GULP energy -545274.694728 kJ/mol
# GULP energy per Si atom -12392.606698 kJ/mol
# Density = 1.727859 g / cm^3
# Si number density = 17.318010 Si / 1000 Ang^3
#
#
#
# Elastic Constant Matrix: (Units=GPa)
#
#
# Indices 1 2 3 4 5 6 
#
# 1 74.4779 43.1158 26.9467 0.0000 0.0000 0.0000
# 2 43.1158 124.3165 30.5960 0.0000 0.0000 0.0000
# 3 26.9467 30.5960 110.7611 0.0000 0.0000 0.0000
# 4 0.0000 0.0000 0.0000 27.6358 0.0000 0.0000
# 5 0.0000 0.0000 0.0000 0.0000 8.8424 0.0000
# 6 0.0000 0.0000 0.0000 0.0000 0.0000 15.2321
#
#
#
# Elastic Compliance Matrix: (Units=1/GPa)
#
#
# Indices 1 2 3 4 5 6 
#
# 1 0.017563 -0.005407 -0.002779 0.000000 0.000000 0.000000
# 2 -0.005407 0.010295 -0.001528 0.000000 0.000000 0.000000
# 3 -0.002779 -0.001528 0.010127 0.000000 0.000000 0.000000
# 4 0.000000 0.000000 0.000000 0.036185 0.000000 0.000000
# 5 0.000000 0.000000 0.000000 0.000000 0.113091 0.000000
# 6 0.000000 0.000000 0.000000 0.000000 0.000000 0.065651
#
#
# Mechanical properties :
#
#
# Convention : Reuss Voigt Hill
#
# Bulk Modulus (GPa) = 53.89270 56.76361 55.32815
# Shear Modulus (GPa) = 17.95165 24.26854 21.11010
#
# Velocity S-wave (km/s) = 3.22310 3.74752 3.49516
# Velocity P-wave (km/s) = 6.71105 7.18147 6.95024
#
# Compressibility (1/GPa) = 0.01855539
#
# Stress axis : x y z
#
# Youngs Moduli (GPa) = 56.93944 97.13008 98.74811
#
# Poissons Ratio (x) = 0.52519 0.27443
# Poissons Ratio (y) = 0.30788 0.15094
# Poissons Ratio (z) = 0.15824 0.14846
#
# Static dielectric constant tensor:
#      x y z
#    x 2.970410 0.000000 0.000000 
#    y 0.000000 3.839590 0.000000 
#    z 0.000000 0.000000 3.130380 
# 
# 
# High freq. dielectric constant tensor:
#      x y z
#    x 1.627870 0.000000 0.000000 
#    y 0.000000 1.677420 0.000000 
#    z 0.000000 0.000000 1.666120 
# 
# From -- ./inp_files/41913.got.cif
#   From: 2010.03.12/outbox.cif.g09.slc.cpg/sg69_21_cif.got.tgz:41913.got - 2010.04.10 23:52:46.
