data_PCOD8283028
_publ_section_title
;
Structure prediction by ZEFSAII (Michael W. Deem and Ramdas Pophale) SiO2 
 PCOD8283028
Probable space group: C C C A
;
_chemical_formula_sum "Si O2"
_cell_formula_units_Z 96
_cell_length_a 16.135493
_cell_length_b 18.169533
_cell_length_c 14.640442
_cell_angle_alpha 90.000000
_cell_angle_beta 90.000000
_cell_angle_gamma 90.000000
_cell_volume 4292.202397
_symmetry_space_group_name_H-M "C C C A"
_symmetry_group_IT_number 68
_space_group.IT_coordinate_system_code '2'
_symmetry_cell_setting 'orthorhombic'
loop_
_space_group_symop_operation_xyz
x,y,z
-x,1/2-y,z
x,1/2-y,1/2-z
-x,y,1/2-z
-x,-y,-z
x,1/2+y,-z
-x,1/2+y,1/2+z
x,-y,1/2+z
1/2+x,1/2+y,z
1/2-x,-y,z
1/2+x,-y,1/2-z
1/2-x,1/2+y,1/2-z
1/2-x,1/2-y,-z
1/2+x,y,-z
1/2-x,y,1/2+z
1/2+x,1/2-y,1/2+z
loop_
_atom_site_type_symbol
_atom_site_label
_atom_site_fract_x
_atom_site_fract_y
_atom_site_fract_z
Si Si1 0.556744 0.106904 0.329365
Si Si2 0.489576 0.965153 0.401628
Si Si3 0.030313 0.829283 0.504222
Si Si4 0.234605 0.167347 0.717070
Si Si5 0.283641 0.170056 0.516908
Si Si6 0.801936 0.571229 0.874905
O O1 0.500000 0.141110 0.250000
O O2 0.531337 0.145874 0.423732
O O3 0.650707 0.123139 0.303651
O O4 0.540891 0.018187 0.333454
O O5 0.525019 0.882348 0.407063
O O6 0.394352 0.959038 0.374821
O O7 0.500000 0.000000 0.500000
O O8 0.125378 0.832573 0.470625
O O9 0.000000 0.750000 0.537952
O O10 0.214300 0.250000 0.750000
O O11 0.289397 0.160687 0.625769
O O12 0.288559 0.130705 0.796121
O O13 0.250000 0.250000 0.500000
O O14 0.224794 0.108006 0.471559
O O15 0.750000 0.500000 0.852752
#
# Coordination Sequence:
#
# PCOD8283028 Si02
#       6
#    16  16  16  16  16  16
#     4  11  24  42  69 103 139 181 240 302 364 431
#     4  10  22  45  67  97 140 184 236 290 363 444
#     4  11  24  40  69 102 134 188 239 295 361 437
#     4  12  27  45  74 110 150 195 253 316 382 449
#     4  12  24  45  70 101 148 195 248 300 377 453
#     4  12  25  45  75 110 150 191 245 312 377 454
#
# _framework density 22.366140999999999
#
# number of rings (size 3 to 8) (size 9 to 14) (size 15 to 20)
#    0.000    0.667    1.667    8.000    2.333    3.333 
#    0.000    0.000    0.000    0.000    0.000    0.000 
#    0.000    0.000    0.000    0.000    0.000    0.000 
#
# Total GULP energy -595174.597560 kJ/mol
# GULP energy per Si atom -12399.470782 kJ/mol
# Density = 2.231523 g / cm^3
# Si number density = 22.366141 Si / 1000 Ang^3
#
#
#
# Elastic Constant Matrix: (Units=GPa)
#
#
# Indices 1 2 3 4 5 6 
#
# 1 119.9679 42.7228 25.2381 0.0000 0.0000 0.0000
# 2 42.7228 157.4612 34.7680 0.0000 0.0000 0.0000
# 3 25.2381 34.7680 104.5388 0.0000 0.0000 0.0000
# 4 0.0000 0.0000 0.0000 34.5558 0.0000 0.0000
# 5 0.0000 0.0000 0.0000 0.0000 20.6434 0.0000
# 6 0.0000 0.0000 0.0000 0.0000 0.0000 38.9722
#
#
#
# Elastic Compliance Matrix: (Units=1/GPa)
#
#
# Indices 1 2 3 4 5 6 
#
# 1 0.009452 -0.002224 -0.001542 0.000000 0.000000 0.000000
# 2 -0.002224 0.007377 -0.001917 0.000000 0.000000 0.000000
# 3 -0.001542 -0.001917 0.010576 0.000000 0.000000 0.000000
# 4 0.000000 0.000000 0.000000 0.028939 0.000000 0.000000
# 5 0.000000 0.000000 0.000000 0.000000 0.048442 0.000000
# 6 0.000000 0.000000 0.000000 0.000000 0.000000 0.025659
#
#
# Mechanical properties :
#
#
# Convention : Reuss Voigt Hill
#
# Bulk Modulus (GPa) = 62.34751 65.26952 63.80851
# Shear Modulus (GPa) = 33.97729 37.45021 35.71375
#
# Velocity S-wave (km/s) = 3.90184 4.09640 4.00030
# Velocity P-wave (km/s) = 6.94518 7.18468 7.06595
#
# Compressibility (1/GPa) = 0.01603913
#
# Stress axis : x y z
#
# Youngs Moduli (GPa) = 105.79746 135.54899 94.55705
#
# Poissons Ratio (x) = 0.30146 0.14583
# Poissons Ratio (y) = 0.23529 0.18124
# Poissons Ratio (z) = 0.16317 0.25981
#
# Static dielectric constant tensor:
#      x y z
#    x 4.306700 0.000000 0.000000 
#    y 0.000000 4.681790 0.000000 
#    z 0.000000 0.000000 4.320440 
# 
# 
# High freq. dielectric constant tensor:
#      x y z
#    x 1.884070 0.000000 0.000000 
#    y 0.000000 1.897320 0.000000 
#    z 0.000000 0.000000 1.878880 
# 
# From -- ./inp_files/22334.got.cif
#   From: 2010.03.12/outbox.cif.g09.slc.cpg/sg68_12_cif.got.tgz:22334.got - 2010.04.10 23:14:56.
