data_PCOD8283056
_publ_section_title
;
Structure prediction by ZEFSAII (Michael W. Deem and Ramdas Pophale) SiO2 
 PCOD8283056
Probable space group: C C C A
;
_chemical_formula_sum "Si O2"
_cell_formula_units_Z 104
_cell_length_a 20.655787
_cell_length_b 13.627294
_cell_length_c 19.521206
_cell_angle_alpha 90.000000
_cell_angle_beta 90.000000
_cell_angle_gamma 90.000000
_cell_volume 5494.877521
_symmetry_space_group_name_H-M "C C C A"
_symmetry_group_IT_number 68
_space_group.IT_coordinate_system_code '2'
_symmetry_cell_setting 'orthorhombic'
loop_
_space_group_symop_operation_xyz
x,y,z
-x,1/2-y,z
x,1/2-y,1/2-z
-x,y,1/2-z
-x,-y,-z
x,1/2+y,-z
-x,1/2+y,1/2+z
x,-y,1/2+z
1/2+x,1/2+y,z
1/2-x,-y,z
1/2+x,-y,1/2-z
1/2-x,1/2+y,1/2-z
1/2-x,1/2-y,-z
1/2+x,y,-z
1/2-x,y,1/2+z
1/2+x,1/2-y,1/2+z
loop_
_atom_site_type_symbol
_atom_site_label
_atom_site_fract_x
_atom_site_fract_y
_atom_site_fract_z
Si Si1 0.680258 0.037180 0.222844
Si Si2 0.853328 0.407865 0.395337
Si Si3 0.192532 0.076236 0.542323
Si Si4 0.219759 0.209456 0.120275
Si Si5 0.795523 0.250000 0.750000
Si Si6 0.120117 0.044047 0.147679
Si Si7 0.508848 0.638554 0.331354
O O1 0.665432 0.155104 0.221442
O O2 0.750000 0.000000 0.250333
O O3 0.673658 0.002797 0.144123
O O4 0.629258 0.981729 0.272096
O O5 0.854791 0.422967 0.476838
O O6 0.802299 0.320664 0.385899
O O7 0.922694 0.390530 0.362237
O O8 0.227627 0.179551 0.561524
O O9 0.250000 0.000000 0.530463
O O10 0.144984 0.049131 0.604821
O O11 0.252364 0.197571 0.193447
O O12 0.158110 0.139080 0.120763
O O13 0.044840 0.067708 0.134423
O O14 0.500000 0.750000 0.354321
O O15 0.500000 0.628924 0.250000
#
# Coordination Sequence:
#
# PCOD8283056 Si02
#       7
#    16  16  16  16   8  16  16
#     4  12  21  35  59  91 121 156 206 253 309 371
#     4  12  23  38  60  91 123 165 208 249 312 385
#     4  10  23  39  58  90 132 166 196 251 318 378
#     4  11  20  35  62  93 126 157 199 256 312 371
#     4  12  22  34  60  94 122 158 200 258 314 364
#     4  11  20  40  59  87 123 162 201 248 315 367
#     4  11  23  37  62  91 118 154 207 266 302 357
#
# _framework density 18.926718999999999
#
# number of rings (size 3 to 8) (size 9 to 14) (size 15 to 20)
#    0.000    0.769    7.692    1.385    0.000    0.615 
#    0.000    0.000    0.000    1.846    0.000    0.000 
#    0.000    0.000    0.000    0.000    0.000    0.000 
#
# Total GULP energy -644464.893342 kJ/mol
# GULP energy per Si atom -12393.555641 kJ/mol
# Density = 1.888364 g / cm^3
# Si number density = 18.926719 Si / 1000 Ang^3
#
#
#
# Elastic Constant Matrix: (Units=GPa)
#
#
# Indices 1 2 3 4 5 6 
#
# 1 101.2834 40.6534 38.0145 0.0000 0.0000 0.0000
# 2 40.6534 113.5314 26.0549 0.0000 0.0000 0.0000
# 3 38.0145 26.0549 106.6878 0.0000 0.0000 0.0000
# 4 0.0000 0.0000 0.0000 22.7370 0.0000 0.0000
# 5 0.0000 0.0000 0.0000 0.0000 35.3028 0.0000
# 6 0.0000 0.0000 0.0000 0.0000 0.0000 17.8371
#
#
#
# Elastic Compliance Matrix: (Units=1/GPa)
#
#
# Indices 1 2 3 4 5 6 
#
# 1 0.012730 -0.003726 -0.003626 0.000000 0.000000 0.000000
# 2 -0.003726 0.010422 -0.001217 0.000000 0.000000 0.000000
# 3 -0.003626 -0.001217 0.010962 0.000000 0.000000 0.000000
# 4 0.000000 0.000000 0.000000 0.043981 0.000000 0.000000
# 5 0.000000 0.000000 0.000000 0.000000 0.028326 0.000000
# 6 0.000000 0.000000 0.000000 0.000000 0.000000 0.056063
#
#
# Mechanical properties :
#
#
# Convention : Reuss Voigt Hill
#
# Bulk Modulus (GPa) = 58.91004 58.99425 58.95214
# Shear Modulus (GPa) = 26.98590 29.62735 28.30663
#
# Velocity S-wave (km/s) = 3.78009 3.96077 3.87148
# Velocity P-wave (km/s) = 7.08837 7.22180 7.15540
#
# Compressibility (1/GPa) = 0.01697504
#
# Stress axis : x y z
#
# Youngs Moduli (GPa) = 78.55588 95.95257 91.22087
#
# Poissons Ratio (x) = 0.35754 0.33075
# Poissons Ratio (y) = 0.29271 0.11106
# Poissons Ratio (z) = 0.28483 0.11682
#
# Static dielectric constant tensor:
#      x y z
#    x 3.350950 0.000000 0.000000 
#    y 0.000000 -0.653500 0.000000 
#    z 0.000000 0.000000 3.549420 
# 
# 
# High freq. dielectric constant tensor:
#      x y z
#    x 1.712670 0.000000 0.000000 
#    y 0.000000 1.738010 0.000000 
#    z 0.000000 0.000000 1.733850 
# 
# From -- ./inp_files/31122.got.cif
#   From: 2010.03.12/outbox.cif.g09.slc.cpg/sg68_16_cif.got.tgz:31122.got - 2010.04.10 23:14:56.
