data_PCOD8283163
_publ_section_title
;
Structure prediction by ZEFSAII (Michael W. Deem and Ramdas Pophale) SiO2 
 PCOD8283163
Probable space group: C C C A
;
_chemical_formula_sum "Si O2"
_cell_formula_units_Z 52
_cell_length_a 16.609713
_cell_length_b 14.185071
_cell_length_c 9.297726
_cell_angle_alpha 90.000000
_cell_angle_beta 90.000000
_cell_angle_gamma 90.000000
_cell_volume 2190.636834
_symmetry_space_group_name_H-M "C C C A"
_symmetry_group_IT_number 68
_space_group.IT_coordinate_system_code '2'
_symmetry_cell_setting 'orthorhombic'
loop_
_space_group_symop_operation_xyz
x,y,z
-x,1/2-y,z
x,1/2-y,1/2-z
-x,y,1/2-z
-x,-y,-z
x,1/2+y,-z
-x,1/2+y,1/2+z
x,-y,1/2+z
1/2+x,1/2+y,z
1/2-x,-y,z
1/2+x,-y,1/2-z
1/2-x,1/2+y,1/2-z
1/2-x,1/2-y,-z
1/2+x,y,-z
1/2-x,y,1/2+z
1/2+x,1/2-y,1/2+z
loop_
_atom_site_type_symbol
_atom_site_label
_atom_site_fract_x
_atom_site_fract_y
_atom_site_fract_z
Si Si1 0.000000 0.750000 0.750000
Si Si2 0.841683 0.517905 0.352453
Si Si3 0.582962 0.614456 0.577213
Si Si4 0.912200 0.323022 0.989751
O O1 0.059447 0.813136 0.654002
O O2 0.750000 0.500000 0.312642
O O3 0.888026 0.429490 0.424218
O O4 0.883885 0.551476 0.205879
O O5 0.839281 0.604322 0.469156
O O6 0.486341 0.622915 0.590379
O O7 0.613100 0.723333 0.580322
#
# Coordination Sequence:
#
# PCOD8283163 Si02
#       4
#     4  16  16  16
#     4   8  20  40  74 108 124 178 250 286 348 396
#     4  12  25  42  70 106 146 185 228 284 360 421
#     4  10  24  45  71 102 138 186 238 290 343 411
#     4  10  23  45  74 100 140 185 237 292 346 409
#
# _framework density 23.737390999999999
#
# number of rings (size 3 to 8) (size 9 to 14) (size 15 to 20)
#    0.000    1.846    0.000    3.692    8.615    6.154 
#    0.000    3.077    0.000    0.000    0.000    0.000 
#    0.000    0.000    0.000    0.000    0.000    0.000 
#
# Total GULP energy -322110.234164 kJ/mol
# GULP energy per Si atom -12388.855160 kJ/mol
# Density = 2.368336 g / cm^3
# Si number density = 23.737391 Si / 1000 Ang^3
#
#
#
# Elastic Constant Matrix: (Units=GPa)
#
#
# Indices 1 2 3 4 5 6 
#
# 1 83.1608 68.6240 55.2436 0.0000 0.0000 0.0000
# 2 68.6240 135.9344 52.9419 0.0000 0.0000 0.0000
# 3 55.2436 52.9419 158.4717 0.0000 0.0000 0.0000
# 4 0.0000 0.0000 0.0000 35.3072 0.0000 0.0000
# 5 0.0000 0.0000 0.0000 0.0000 31.8158 0.0000
# 6 0.0000 0.0000 0.0000 0.0000 0.0000 26.5473
#
#
#
# Elastic Compliance Matrix: (Units=1/GPa)
#
#
# Indices 1 2 3 4 5 6 
#
# 1 0.023464 -0.009955 -0.004854 0.000000 0.000000 0.000000
# 2 -0.009955 0.012680 -0.000766 0.000000 0.000000 0.000000
# 3 -0.004854 -0.000766 0.008258 0.000000 0.000000 0.000000
# 4 0.000000 0.000000 0.000000 0.028323 0.000000 0.000000
# 5 0.000000 0.000000 0.000000 0.000000 0.031431 0.000000
# 6 0.000000 0.000000 0.000000 0.000000 0.000000 0.037669
#
#
# Mechanical properties :
#
#
# Convention : Reuss Voigt Hill
#
# Bulk Modulus (GPa) = 75.45383 81.24290 78.34836
# Shear Modulus (GPa) = 28.18606 32.11788 30.15197
#
# Velocity S-wave (km/s) = 3.44962 3.68237 3.56790
# Velocity P-wave (km/s) = 6.90814 7.23739 7.07468
#
# Compressibility (1/GPa) = 0.01325314
#
# Stress axis : x y z
#
# Youngs Moduli (GPa) = 42.61806 78.86181 121.09134
#
# Poissons Ratio (x) = 0.78507 0.58777
# Poissons Ratio (y) = 0.42427 0.09274
# Poissons Ratio (z) = 0.20686 0.06040
#
# Static dielectric constant tensor:
#      x y z
#    x 3.962700 0.000000 0.000000 
#    y 0.000000 4.590200 0.000000 
#    z 0.000000 0.000000 4.345590 
# 
# 
# High freq. dielectric constant tensor:
#      x y z
#    x 1.905000 0.000000 0.000000 
#    y 0.000000 1.960080 0.000000 
#    z 0.000000 0.000000 1.955580 
# 
# From -- ./inp_files/6595.got.cif
#   From: 2010.03.12/outbox.cif.g09.slc.cpg/sg68_4_cif.got.tgz:6595.got - 2010.04.10 23:14:56.
