data_PCOD8283416
_publ_section_title
;
Structure prediction by ZEFSAII (Michael W. Deem and Ramdas Pophale) SiO2 
 PCOD8283416
Probable space group: C C C A
;
_chemical_formula_sum "Si O2"
_cell_formula_units_Z 64
_cell_length_a 19.531171
_cell_length_b 9.657865
_cell_length_c 16.462612
_cell_angle_alpha 90.000000
_cell_angle_beta 90.000000
_cell_angle_gamma 90.000000
_cell_volume 3105.332835
_symmetry_space_group_name_H-M "C C C A"
_symmetry_group_IT_number 68
_space_group.IT_coordinate_system_code '2'
_symmetry_cell_setting 'orthorhombic'
loop_
_space_group_symop_operation_xyz
x,y,z
-x,1/2-y,z
x,1/2-y,1/2-z
-x,y,1/2-z
-x,-y,-z
x,1/2+y,-z
-x,1/2+y,1/2+z
x,-y,1/2+z
1/2+x,1/2+y,z
1/2-x,-y,z
1/2+x,-y,1/2-z
1/2-x,1/2+y,1/2-z
1/2-x,1/2-y,-z
1/2+x,y,-z
1/2-x,y,1/2+z
1/2+x,1/2-y,1/2+z
loop_
_atom_site_type_symbol
_atom_site_label
_atom_site_fract_x
_atom_site_fract_y
_atom_site_fract_z
Si Si1 0.298089 0.701857 0.340616
Si Si2 0.828113 0.478634 0.405745
Si Si3 0.833413 0.068382 0.910106
Si Si4 0.079993 0.279194 0.660748
O O1 0.281249 0.750000 0.250000
O O2 0.344608 0.818878 0.384225
O O3 0.228547 0.674909 0.391271
O O4 0.338178 0.555376 0.343439
O O5 0.750000 0.500000 0.371432
O O6 0.827694 0.501922 0.502156
O O7 0.888278 0.573166 0.366906
O O8 0.899926 0.161642 0.903895
O O9 0.111026 0.250000 0.750000
O O10 0.000000 0.250000 0.663024
#
# Coordination Sequence:
#
# PCOD8283416 Si02
#       4
#    16  16  16  16
#     4  11  22  34  61  96 123 157 205 266 315 364
#     4  12  22  39  66  94 127 164 211 265 319 373
#     4  11  22  39  60  93 125 163 206 264 313 377
#     4  11  25  44  64  89 129 175 211 254 318 390
#
# _framework density 20.609708000000001
#
# number of rings (size 3 to 8) (size 9 to 14) (size 15 to 20)
#    0.000    0.750    5.000    4.500    3.500    1.000 
#    0.000    1.250    0.000    4.500    0.000    0.000 
#    0.000    0.000    0.000    0.000    0.000    0.000 
#
# Total GULP energy -396465.218552 kJ/mol
# GULP energy per Si atom -12389.538080 kJ/mol
# Density = 2.056280 g / cm^3
# Si number density = 20.609708 Si / 1000 Ang^3
#
#
#
# Elastic Constant Matrix: (Units=GPa)
#
#
# Indices 1 2 3 4 5 6 
#
# 1 75.5258 65.1199 27.7238 0.0000 0.0000 0.0000
# 2 65.1199 144.2900 49.4041 0.0000 0.0000 0.0000
# 3 27.7238 49.4041 114.7897 0.0000 0.0000 0.0000
# 4 0.0000 0.0000 0.0000 39.6284 0.0000 0.0000
# 5 0.0000 0.0000 0.0000 0.0000 18.9483 0.0000
# 6 0.0000 0.0000 0.0000 0.0000 0.0000 29.8428
#
#
#
# Elastic Compliance Matrix: (Units=1/GPa)
#
#
# Indices 1 2 3 4 5 6 
#
# 1 0.021817 -0.009432 -0.001210 0.000000 0.000000 0.000000
# 2 -0.009432 0.012206 -0.002975 0.000000 0.000000 0.000000
# 3 -0.001210 -0.002975 0.010284 0.000000 0.000000 0.000000
# 4 0.000000 0.000000 0.000000 0.025234 0.000000 0.000000
# 5 0.000000 0.000000 0.000000 0.000000 0.052775 0.000000
# 6 0.000000 0.000000 0.000000 0.000000 0.000000 0.033509
#
#
# Mechanical properties :
#
#
# Convention : Reuss Voigt Hill
#
# Bulk Modulus (GPa) = 58.57165 68.78898 63.68031
# Shear Modulus (GPa) = 26.48985 30.50775 28.49880
#
# Velocity S-wave (km/s) = 3.58901 3.85159 3.72262
# Velocity P-wave (km/s) = 6.75691 7.29583 7.03153
#
# Compressibility (1/GPa) = 0.01707311
#
# Stress axis : x y z
#
# Youngs Moduli (GPa) = 45.83548 81.92653 97.23562
#
# Poissons Ratio (x) = 0.77274 0.11763
# Poissons Ratio (y) = 0.43233 0.28931
# Poissons Ratio (z) = 0.05545 0.24376
#
# Static dielectric constant tensor:
#      x y z
#    x 3.416820 0.000000 0.000000 
#    y 0.000000 4.071040 0.000000 
#    z 0.000000 0.000000 4.056530 
# 
# 
# High freq. dielectric constant tensor:
#      x y z
#    x 1.763140 0.000000 0.000000 
#    y 0.000000 1.828220 0.000000 
#    z 0.000000 0.000000 1.814960 
# 
# From -- ./inp_files/32519.got.cif
#   From: 2010.03.12/outbox.cif.g09.slc.cpg/sg68_17_cif.got.tgz:32519.got - 2010.04.10 23:14:56.
