data_PCOD8283881
_publ_section_title
;
Structure prediction by ZEFSAII (Michael W. Deem and Ramdas Pophale) SiO2 
 PCOD8283881
Probable space group: F M M M
;
_chemical_formula_sum "Si O2"
_cell_formula_units_Z 144
_cell_length_a 27.546781
_cell_length_b 14.036030
_cell_length_c 20.513702
_cell_angle_alpha 90.000000
_cell_angle_beta 90.000000
_cell_angle_gamma 90.000000
_cell_volume 7931.570456
_symmetry_space_group_name_H-M "F M M M"
_symmetry_group_IT_number 69
_symmetry_cell_setting 'orthorhombic'
loop_
_space_group_symop_operation_xyz
x,y,z
-x,-y,z
x,-y,-z
-x,y,-z
-x,-y,-z
x,y,-z
-x,y,z
x,-y,z
x,1/2+y,1/2+z
-x,1/2-y,1/2+z
x,1/2-y,1/2-z
-x,1/2+y,1/2-z
-x,1/2-y,1/2-z
x,1/2+y,1/2-z
-x,1/2+y,1/2+z
x,1/2-y,1/2+z
1/2+x,y,1/2+z
1/2-x,-y,1/2+z
1/2+x,-y,1/2-z
1/2-x,y,1/2-z
1/2-x,-y,1/2-z
1/2+x,y,1/2-z
1/2-x,y,1/2+z
1/2+x,-y,1/2+z
1/2+x,1/2+y,z
1/2-x,1/2-y,z
1/2+x,1/2-y,-z
1/2-x,1/2+y,-z
1/2-x,1/2-y,-z
1/2+x,1/2+y,-z
1/2-x,1/2+y,z
1/2+x,1/2-y,z
loop_
_atom_site_type_symbol
_atom_site_label
_atom_site_fract_x
_atom_site_fract_y
_atom_site_fract_z
Si Si1 0.357765 0.197398 0.075328
Si Si2 0.792322 0.000000 0.851688
Si Si3 0.697732 0.705000 0.185874
Si Si4 0.108367 0.500000 0.422852
Si Si5 0.053502 0.814642 0.075986
Si Si6 0.810603 0.000000 0.576250
O O1 0.329683 0.273762 0.118938
O O2 0.415032 0.218034 0.087338
O O3 0.343380 0.090776 0.096053
O O4 0.343910 0.217665 0.000000
O O5 0.797248 0.091627 0.805114
O O6 0.835350 0.000000 0.903960
O O7 0.740416 0.000000 0.887277
O O8 0.671456 0.750000 0.250000
O O9 0.750000 0.750000 0.179084
O O10 0.106571 0.500000 0.500000
O O11 0.081040 0.593325 0.393915
O O12 0.000000 0.802064 0.108118
O O13 0.047075 0.833584 0.000000
O O14 0.799136 0.000000 0.500000
#
# Coordination Sequence:
#
# PCOD8283881 Si02
#       6
#    32  16  32  16  32  16
#     4  10  20  36  55  80 113 148 185 228 276 326
#     4  12  21  35  56  82 108 148 184 222 271 334
#     4  11  24  38  55  80 112 149 188 223 273 326
#     4  10  18  28  50  85 117 140 174 220 280 337
#     4   9  17  30  51  80 113 143 177 228 279 322
#     4  10  21  33  53  82 113 147 186 229 270 322
#
# _framework density 18.155294999999999
#
# number of rings (size 3 to 8) (size 9 to 14) (size 15 to 20)
#    0.000    1.778    4.444    0.667    0.000    5.333 
#    0.000    0.556    0.000    4.000    0.000    0.000 
#    0.000    0.000    0.000    0.000    0.000    0.000 
#
# Total GULP energy -446199.404901 kJ/mol
# GULP energy per Si atom -12394.427914 kJ/mol
# Density = 1.811397 g / cm^3
# Si number density = 18.155295 Si / 1000 Ang^3
#
#
#
# Elastic Constant Matrix: (Units=GPa)
#
#
# Indices 1 2 3 4 5 6 
#
# 1 134.9756 68.6491 30.8987 0.0000 0.0000 0.0000
# 2 68.6491 160.1600 39.2824 0.0000 0.0000 0.0000
# 3 30.8987 39.2824 52.4360 0.0000 0.0000 0.0000
# 4 0.0000 0.0000 0.0000 20.9621 0.0000 0.0000
# 5 0.0000 0.0000 0.0000 0.0000 6.7464 0.0000
# 6 0.0000 0.0000 0.0000 0.0000 0.0000 23.3039
#
#
#
# Elastic Compliance Matrix: (Units=1/GPa)
#
#
# Indices 1 2 3 4 5 6 
#
# 1 0.009908 -0.003448 -0.003255 0.000000 0.000000 0.000000
# 2 -0.003448 0.008849 -0.004598 0.000000 0.000000 0.000000
# 3 -0.003255 -0.004598 0.024433 0.000000 0.000000 0.000000
# 4 0.000000 0.000000 0.000000 0.047705 0.000000 0.000000
# 5 0.000000 0.000000 0.000000 0.000000 0.148227 0.000000
# 6 0.000000 0.000000 0.000000 0.000000 0.000000 0.042911
#
#
# Mechanical properties :
#
#
# Convention : Reuss Voigt Hill
#
# Bulk Modulus (GPa) = 48.57060 69.47023 59.02041
# Shear Modulus (GPa) = 16.05146 24.11858 20.08502
#
# Velocity S-wave (km/s) = 2.97664 3.64876 3.32970
# Velocity P-wave (km/s) = 6.21488 7.48991 6.88199
#
# Compressibility (1/GPa) = 0.02058859
#
# Stress axis : x y z
#
# Youngs Moduli (GPa) = 100.93132 113.00094 40.92806
#
# Poissons Ratio (x) = 0.38967 0.13322
# Poissons Ratio (y) = 0.34805 0.18817
# Poissons Ratio (z) = 0.32852 0.51953
#
# Static dielectric constant tensor:
#      x y z
#    x 3.526060 0.000000 0.000000 
#    y 0.000000 3.615000 0.000000 
#    z 0.000000 0.000000 3.396540 
# 
# 
# High freq. dielectric constant tensor:
#      x y z
#    x 1.697920 0.000000 0.000000 
#    y 0.000000 1.715010 0.000000 
#    z 0.000000 0.000000 1.665960 
# 
# From -- ./inp_files/27430.got.cif
#   From: 2010.03.12/outbox.cif.g09.slc.cpg/sg69_14_cif.got.tgz:27430.got - 2010.04.10 23:52:46.
