data_PCOD8283053
_publ_section_title
;
Structure prediction by ZEFSAII (Michael W. Deem and Ramdas Pophale) SiO2 
 PCOD8283053
Probable space group: C C C A
;
_chemical_formula_sum "Si O2"
_cell_formula_units_Z 64
_cell_length_a 4.712590
_cell_length_b 25.972963
_cell_length_c 22.751826
_cell_angle_alpha 90.000000
_cell_angle_beta 90.000000
_cell_angle_gamma 90.000000
_cell_volume 2784.821812
_symmetry_space_group_name_H-M "C C C A"
_symmetry_group_IT_number 68
_space_group.IT_coordinate_system_code '2'
_symmetry_cell_setting 'orthorhombic'
loop_
_space_group_symop_operation_xyz
x,y,z
-x,1/2-y,z
x,1/2-y,1/2-z
-x,y,1/2-z
-x,-y,-z
x,1/2+y,-z
-x,1/2+y,1/2+z
x,-y,1/2+z
1/2+x,1/2+y,z
1/2-x,-y,z
1/2+x,-y,1/2-z
1/2-x,1/2+y,1/2-z
1/2-x,1/2-y,-z
1/2+x,y,-z
1/2-x,y,1/2+z
1/2+x,1/2-y,1/2+z
loop_
_atom_site_type_symbol
_atom_site_label
_atom_site_fract_x
_atom_site_fract_y
_atom_site_fract_z
Si Si1 0.825684 0.336969 0.192742
Si Si2 0.316322 0.895582 0.848832
Si Si3 0.855879 0.669556 0.459153
Si Si4 0.250000 0.000000 0.291993
Si Si5 0.000000 0.750000 0.609991
O O1 0.501872 0.358183 0.195116
O O2 0.000000 0.318951 0.250000
O O3 0.988774 0.385646 0.165634
O O4 0.816827 0.288997 0.148920
O O5 0.349705 0.880946 0.917377
O O6 0.373719 0.955170 0.834270
O O7 0.683074 0.668429 0.520621
O O8 0.743116 0.720758 0.426921
O O9 0.500000 0.978926 0.250000
#
# Coordination Sequence:
#
# PCOD8283053 Si02
#       5
#    16  16  16   8   8
#     4  11  22  39  60  90 131 166 200 255 319 381
#     4  11  24  41  62  93 124 161 212 259 312 383
#     4  11  23  41  63  89 125 169 214 266 314 366
#     4  12  24  42  70  96 124 164 208 264 330 394
#     4  10  23  38  62  94 124 168 219 256 308 386
#
# _framework density 22.981718999999998
#
# number of rings (size 3 to 8) (size 9 to 14) (size 15 to 20)
#    0.000    1.000    0.000    8.625    0.000    8.000 
#    0.000    6.250    0.000    0.000    0.000    0.000 
#    0.000    0.000    0.000    0.000    0.000    0.000 
#
# Total GULP energy -396497.492291 kJ/mol
# GULP energy per Si atom -12390.546634 kJ/mol
# Density = 2.292941 g / cm^3
# Si number density = 22.981719 Si / 1000 Ang^3
#
#
#
# Elastic Constant Matrix: (Units=GPa)
#
#
# Indices 1 2 3 4 5 6 
#
# 1 77.8043 18.8443 8.7750 0.0000 0.0000 0.0000
# 2 18.8443 141.4140 54.5114 0.0000 0.0000 0.0000
# 3 8.7750 54.5114 114.6021 0.0000 0.0000 0.0000
# 4 0.0000 0.0000 0.0000 36.1131 0.0000 0.0000
# 5 0.0000 0.0000 0.0000 0.0000 33.2676 0.0000
# 6 0.0000 0.0000 0.0000 0.0000 0.0000 26.5948
#
#
#
# Elastic Compliance Matrix: (Units=1/GPa)
#
#
# Indices 1 2 3 4 5 6 
#
# 1 0.013286 -0.001688 -0.000215 0.000000 0.000000 0.000000
# 2 -0.001688 0.008874 -0.004092 0.000000 0.000000 0.000000
# 3 -0.000215 -0.004092 0.010688 0.000000 0.000000 0.000000
# 4 0.000000 0.000000 0.000000 0.027691 0.000000 0.000000
# 5 0.000000 0.000000 0.000000 0.000000 0.030059 0.000000
# 6 0.000000 0.000000 0.000000 0.000000 0.000000 0.037601
#
#
# Mechanical properties :
#
#
# Convention : Reuss Voigt Hill
#
# Bulk Modulus (GPa) = 47.93826 55.34242 51.64034
# Shear Modulus (GPa) = 33.98126 35.97442 34.97784
#
# Velocity S-wave (km/s) = 3.84946 3.96074 3.90550
# Velocity P-wave (km/s) = 6.37670 6.71193 6.54646
#
# Compressibility (1/GPa) = 0.02086016
#
# Stress axis : x y z
#
# Youngs Moduli (GPa) = 75.26882 112.69492 93.55907
#
# Poissons Ratio (x) = 0.19020 0.02007
# Poissons Ratio (y) = 0.12703 0.38280
# Poissons Ratio (z) = 0.01615 0.46109
#
# Static dielectric constant tensor:
#      x y z
#    x 4.209460 0.000000 0.000000 
#    y 0.000000 3.820830 0.000000 
#    z 0.000000 0.000000 4.221640 
# 
# 
# High freq. dielectric constant tensor:
#      x y z
#    x 1.929460 0.000000 0.000000 
#    y 0.000000 1.878930 0.000000 
#    z 0.000000 0.000000 1.912900 
# 
# From -- ./inp_files/42157.got.cif
#   From: 2010.03.12/outbox.cif.g09.slc.cpg/sg68_22_cif.got.tgz:42157.got - 2010.04.10 23:14:56.
