data_PCOD8283212
_publ_section_title
;
Structure prediction by ZEFSAII (Michael W. Deem and Ramdas Pophale) SiO2 
 PCOD8283212
Probable space group: C C C A
;
_chemical_formula_sum "Si O2"
_cell_formula_units_Z 96
_cell_length_a 22.094556
_cell_length_b 22.567773
_cell_length_c 8.873708
_cell_angle_alpha 90.000000
_cell_angle_beta 90.000000
_cell_angle_gamma 90.000000
_cell_volume 4424.651980
_symmetry_space_group_name_H-M "C C C A"
_symmetry_group_IT_number 68
_space_group.IT_coordinate_system_code '2'
_symmetry_cell_setting 'orthorhombic'
loop_
_space_group_symop_operation_xyz
x,y,z
-x,1/2-y,z
x,1/2-y,1/2-z
-x,y,1/2-z
-x,-y,-z
x,1/2+y,-z
-x,1/2+y,1/2+z
x,-y,1/2+z
1/2+x,1/2+y,z
1/2-x,-y,z
1/2+x,-y,1/2-z
1/2-x,1/2+y,1/2-z
1/2-x,1/2-y,-z
1/2+x,y,-z
1/2-x,y,1/2+z
1/2+x,1/2-y,1/2+z
loop_
_atom_site_type_symbol
_atom_site_label
_atom_site_fract_x
_atom_site_fract_y
_atom_site_fract_z
Si Si1 0.447445 0.797046 0.000000
Si Si2 0.199771 0.919325 0.500000
Si Si3 0.939533 0.076107 0.500000
Si Si4 0.634560 0.750000 0.250000
Si Si5 0.789835 0.193210 1.000000
Si Si6 0.000000 0.000000 0.750000
Si Si7 0.250000 0.500000 0.250000
Si Si8 0.134560 0.750000 0.250000
O O1 0.500000 0.750000 0.000000
O O2 0.477424 0.862489 1.000000
O O3 0.406373 0.790755 0.146371
O O4 0.406373 0.790755 0.853629
O O5 0.129845 0.900775 0.500000
O O6 0.248025 0.865156 0.500000
O O7 0.207955 0.958800 0.648081
O O8 0.207955 0.958800 0.351919
O O9 0.955543 0.039276 0.648533
O O10 0.955544 0.039275 0.351469
O O11 0.671501 0.700189 0.345974
O O12 0.828499 0.200189 0.845974
O O13 0.750000 0.250000 0.000000
#
# Coordination Sequence:
#
# PCOD8283212 Si02
#       8
#    16  16  16   8  16   8   8   8
#     4  11  25  43  71 102 134 173 228 284 341 399
#     4  11  24  45  70  98 142 175 231 276 338 411
#     4  11  25  46  73  96 134 179 227 290 335 405
#     4  10  24  44  64 104 138 177 217 272 358 402
#     4  11  24  40  68 100 135 177 219 269 341 412
#     4  10  26  50  70  96 132 182 242 276 342 398
#     4  10  26  42  66 104 136 182 226 276 324 408
#     4  10  24  44  64 104 138 177 217 272 358 402
#
# _framework density 21.696621
#
# number of rings (size 3 to 8) (size 9 to 14) (size 15 to 20)
#    0.000    1.333    0.000    4.000   14.000    0.000 
#    0.000    0.000    0.000    0.000    0.000    0.000 
#    0.000    0.000    0.000    0.000    0.000    0.000 
#
# Total GULP energy -595040.515797 kJ/mol
# GULP energy per Si atom -12396.677412 kJ/mol
# Density = 2.164724 g / cm^3
# Si number density = 21.696621 Si / 1000 Ang^3
#
#
#
# Elastic Constant Matrix: (Units=GPa)
#
#
# Indices 1 2 3 4 5 6 
#
# 1 125.6592 67.5321 64.4360 0.0000 0.0000 0.0000
# 2 67.5321 183.9198 75.6491 0.0000 0.0000 0.0000
# 3 64.4360 75.6491 169.4666 0.0000 0.0000 0.0000
# 4 0.0000 0.0000 0.0000 18.0358 0.0000 0.0000
# 5 0.0000 0.0000 0.0000 0.0000 71.7514 0.0000
# 6 0.0000 0.0000 0.0000 0.0000 0.0000 37.7852
#
#
#
# Elastic Compliance Matrix: (Units=1/GPa)
#
#
# Indices 1 2 3 4 5 6 
#
# 1 0.010971 -0.002833 -0.002907 0.000000 0.000000 0.000000
# 2 -0.002833 0.007391 -0.002222 0.000000 0.000000 0.000000
# 3 -0.002907 -0.002222 0.007998 0.000000 0.000000 0.000000
# 4 0.000000 0.000000 0.000000 0.055445 0.000000 0.000000
# 5 0.000000 0.000000 0.000000 0.000000 0.013937 0.000000
# 6 0.000000 0.000000 0.000000 0.000000 0.000000 0.026465
#
#
# Mechanical properties :
#
#
# Convention : Reuss Voigt Hill
#
# Bulk Modulus (GPa) = 95.81760 99.36443 97.59101
# Shear Modulus (GPa) = 35.30791 43.60971 39.45881
#
# Velocity S-wave (km/s) = 4.03841 4.48814 4.26920
# Velocity P-wave (km/s) = 8.12425 8.52962 8.32940
#
# Compressibility (1/GPa) = 0.01043650
#
# Stress axis : x y z
#
# Youngs Moduli (GPa) = 91.14902 135.29286 125.02701
#
# Poissons Ratio (x) = 0.38324 0.36346
# Poissons Ratio (y) = 0.25820 0.27786
# Poissons Ratio (z) = 0.26497 0.30068
#
# Static dielectric constant tensor:
#      x y z
#    x 3.290660 0.000000 0.000000 
#    y 0.000000 3.832410 0.000000 
#    z 0.000000 0.000000 4.190800 
# 
# 
# High freq. dielectric constant tensor:
#      x y z
#    x 1.849020 0.000000 0.000000 
#    y 0.000000 1.860240 0.000000 
#    z 0.000000 0.000000 1.877540 
# 
# From -- ./inp_files/8197.got.cif
#   From: 2010.03.12/outbox.cif.g09.slc.cpg/sg68_5_cif.got.tgz:8197.got - 2010.04.10 23:14:56.
