data_PCOD8283425
_publ_section_title
;
Structure prediction by ZEFSAII (Michael W. Deem and Ramdas Pophale) SiO2 
 PCOD8283425
Probable space group: C C C A
;
_chemical_formula_sum "Si O2"
_cell_formula_units_Z 88
_cell_length_a 11.570859
_cell_length_b 22.775488
_cell_length_c 18.390301
_cell_angle_alpha 90.000000
_cell_angle_beta 90.000000
_cell_angle_gamma 90.000000
_cell_volume 4846.432073
_symmetry_space_group_name_H-M "C C C A"
_symmetry_group_IT_number 68
_space_group.IT_coordinate_system_code '2'
_symmetry_cell_setting 'orthorhombic'
loop_
_space_group_symop_operation_xyz
x,y,z
-x,1/2-y,z
x,1/2-y,1/2-z
-x,y,1/2-z
-x,-y,-z
x,1/2+y,-z
-x,1/2+y,1/2+z
x,-y,1/2+z
1/2+x,1/2+y,z
1/2-x,-y,z
1/2+x,-y,1/2-z
1/2-x,1/2+y,1/2-z
1/2-x,1/2-y,-z
1/2+x,y,-z
1/2-x,y,1/2+z
1/2+x,1/2-y,1/2+z
loop_
_atom_site_type_symbol
_atom_site_label
_atom_site_fract_x
_atom_site_fract_y
_atom_site_fract_z
Si Si1 0.370145 0.583258 0.261594
Si Si2 0.626847 0.522207 0.085516
Si Si3 0.189814 0.815015 0.242866
Si Si4 0.499826 0.815295 0.867099
Si Si5 0.563593 0.432016 0.434978
Si Si6 0.250000 0.500000 0.152648
O O1 0.500000 0.604605 0.250000
O O2 0.352810 0.560268 0.342893
O O3 0.289920 0.638465 0.245916
O O4 0.342575 0.532447 0.203640
O O5 0.750000 0.500000 0.057127
O O6 0.541619 0.467952 0.101435
O O7 0.569447 0.560486 0.021651
O O8 0.244575 0.750000 0.250000
O O9 0.127899 0.826445 0.165304
O O10 0.092927 0.820909 0.303657
O O11 0.500000 0.750000 0.902371
O O12 0.464908 0.863336 0.926529
O O13 0.682510 0.452589 0.396735
#
# Coordination Sequence:
#
# PCOD8283425 Si02
#       6
#    16  16  16  16  16   8
#     4  12  23  35  57  86 114 151 194 233 292 354
#     4  11  23  36  55  85 118 151 186 233 301 349
#     4   9  19  35  58  85 110 144 191 247 287 329
#     4   9  18  35  62  85 106 145 198 242 279 328
#     4  11  22  38  58  83 118 153 186 239 294 348
#     4  12  22  36  60  86 114 148 190 242 294 344
#
# _framework density 18.157686999999999
#
# number of rings (size 3 to 8) (size 9 to 14) (size 15 to 20)
#    0.000    1.455    5.455    2.182    0.000    0.364 
#    0.000    0.000    4.000    3.273    0.000    0.000 
#    0.000    0.000    0.000    0.000    0.000    0.000 
#
# Total GULP energy -545600.922351 kJ/mol
# GULP energy per Si atom -12400.020963 kJ/mol
# Density = 1.811636 g / cm^3
# Si number density = 18.157687 Si / 1000 Ang^3
#
#
#
# Elastic Constant Matrix: (Units=GPa)
#
#
# Indices 1 2 3 4 5 6 
#
# 1 91.6404 40.4674 7.4487 0.0000 0.0000 0.0000
# 2 40.4674 129.7272 37.3465 0.0000 0.0000 0.0000
# 3 7.4487 37.3465 62.8987 0.0000 0.0000 0.0000
# 4 0.0000 0.0000 0.0000 19.1024 0.0000 0.0000
# 5 0.0000 0.0000 0.0000 0.0000 20.4293 0.0000
# 6 0.0000 0.0000 0.0000 0.0000 0.0000 32.0244
#
#
#
# Elastic Compliance Matrix: (Units=1/GPa)
#
#
# Indices 1 2 3 4 5 6 
#
# 1 0.012710 -0.004260 0.001024 0.000000 0.000000 0.000000
# 2 -0.004260 0.010725 -0.005864 0.000000 0.000000 0.000000
# 3 0.001024 -0.005864 0.019259 0.000000 0.000000 0.000000
# 4 0.000000 0.000000 0.000000 0.052349 0.000000 0.000000
# 5 0.000000 0.000000 0.000000 0.000000 0.048949 0.000000
# 6 0.000000 0.000000 0.000000 0.000000 0.000000 0.031226
#
#
# Mechanical properties :
#
#
# Convention : Reuss Voigt Hill
#
# Bulk Modulus (GPa) = 40.82379 50.53239 45.67809
# Shear Modulus (GPa) = 24.80366 27.57813 26.19090
#
# Velocity S-wave (km/s) = 3.69997 3.90142 3.80203
# Velocity P-wave (km/s) = 6.38630 6.94154 6.66970
#
# Compressibility (1/GPa) = 0.02449552
#
# Stress axis : x y z
#
# Youngs Moduli (GPa) = 78.67839 93.23733 51.92380
#
# Poissons Ratio (x) = 0.39715 -0.05317
# Poissons Ratio (y) = 0.33514 0.30447
# Poissons Ratio (z) = -0.08057 0.54672
#
# Static dielectric constant tensor:
#      x y z
#    x 3.532540 0.000000 0.000000 
#    y 0.000000 3.530780 0.000000 
#    z 0.000000 0.000000 3.182070 
# 
# 
# High freq. dielectric constant tensor:
#      x y z
#    x 1.709150 0.000000 0.000000 
#    y 0.000000 1.698990 0.000000 
#    z 0.000000 0.000000 1.690080 
# 
# From -- ./inp_files/29669.got.cif
#   From: 2010.03.12/outbox.cif.g09.slc.cpg/sg68_15_cif.got.tgz:29669.got - 2010.04.10 23:14:56.
