data_PCOD8283760
_publ_section_title
;
Structure prediction by ZEFSAII (Michael W. Deem and Ramdas Pophale) SiO2 
 PCOD8283760
Probable space group: F M M M
;
_chemical_formula_sum "Si O2"
_cell_formula_units_Z 128
_cell_length_a 25.332040
_cell_length_b 8.660911
_cell_length_c 35.785805
_cell_angle_alpha 90.000000
_cell_angle_beta 90.000000
_cell_angle_gamma 90.000000
_cell_volume 7851.353509
_symmetry_space_group_name_H-M "F M M M"
_symmetry_group_IT_number 69
_symmetry_cell_setting 'orthorhombic'
loop_
_space_group_symop_operation_xyz
x,y,z
-x,-y,z
x,-y,-z
-x,y,-z
-x,-y,-z
x,y,-z
-x,y,z
x,-y,z
x,1/2+y,1/2+z
-x,1/2-y,1/2+z
x,1/2-y,1/2-z
-x,1/2+y,1/2-z
-x,1/2-y,1/2-z
x,1/2+y,1/2-z
-x,1/2+y,1/2+z
x,1/2-y,1/2+z
1/2+x,y,1/2+z
1/2-x,-y,1/2+z
1/2+x,-y,1/2-z
1/2-x,y,1/2-z
1/2-x,-y,1/2-z
1/2+x,y,1/2-z
1/2-x,y,1/2+z
1/2+x,-y,1/2+z
1/2+x,1/2+y,z
1/2-x,1/2-y,z
1/2+x,1/2-y,-z
1/2-x,1/2+y,-z
1/2-x,1/2-y,-z
1/2+x,1/2+y,-z
1/2-x,1/2+y,z
1/2+x,1/2-y,z
loop_
_atom_site_type_symbol
_atom_site_label
_atom_site_fract_x
_atom_site_fract_y
_atom_site_fract_z
Si Si1 0.500000 0.183338 0.791443
Si Si2 0.809002 0.318676 0.500000
Si Si3 0.606653 0.682256 0.208948
Si Si4 0.807162 0.822103 0.427179
Si Si5 0.191834 0.319682 0.844627
O O1 0.500000 0.250000 0.750000
O O2 0.553678 0.246819 0.810372
O O3 0.500000 0.000000 0.791881
O O4 0.808073 0.500000 0.500000
O O5 0.750000 0.250000 0.500000
O O6 0.838115 0.259845 0.538147
O O7 0.600663 0.500000 0.211970
O O8 0.616022 0.750000 0.250000
O O9 0.656099 0.725903 0.183807
O O10 0.750000 0.750000 0.423945
O O11 0.833327 0.798233 0.386349
O O12 0.801845 0.000000 0.437485
O O13 0.193741 0.500000 0.833891
O O14 0.250000 0.250000 0.841945
#
# Coordination Sequence:
#
# PCOD8283760 Si02
#       5
#    16  16  32  32  32
#     4  10  18  32  52  72  92 113 144 187 232 274
#     4  10  16  22  36  56  80 109 146 183 218 260
#     4  11  21  34  51  70  92 119 152 190 230 273
#     4   9  16  26  40  57  82 113 147 183 221 263
#     4  10  20  33  47  66  92 124 157 190 228 272
#
# _framework density 16.302921000000001
#
# number of rings (size 3 to 8) (size 9 to 14) (size 15 to 20)
#    0.000    2.000    0.000    9.000    0.000    3.500 
#    0.000    2.500    0.000    0.000    0.000    0.000 
#    0.000    1.000    0.000   10.500    0.000    5.750 
#
# Total GULP energy -396502.870907 kJ/mol
# GULP energy per Si atom -12390.714716 kJ/mol
# Density = 1.626581 g / cm^3
# Si number density = 16.302921 Si / 1000 Ang^3
#
#
#
# Elastic Constant Matrix: (Units=GPa)
#
#
# Indices 1 2 3 4 5 6 
#
# 1 66.9585 35.2759 40.4137 0.0001 0.0008 0.0015
# 2 35.2759 160.1779 54.4421 -0.0001 0.0020 0.0001
# 3 40.4137 54.4421 98.2233 0.0000 0.0004 -0.0006
# 4 0.0001 -0.0001 0.0000 26.2525 0.0005 0.0000
# 5 0.0008 0.0020 0.0004 0.0005 6.1483 -0.0008
# 6 0.0015 0.0001 -0.0006 0.0000 -0.0008 22.5286
#
#
#
# Elastic Compliance Matrix: (Units=1/GPa)
#
#
# Indices 1 2 3 4 5 6 
#
# 1 0.020385 -0.002019 -0.007268 0.000000 -0.000001 -0.000002
# 2 -0.002019 0.007892 -0.003544 0.000000 -0.000002 0.000000
# 3 -0.007268 -0.003544 0.015136 0.000000 0.000001 0.000001
# 4 0.000000 0.000000 0.000000 0.038092 -0.000003 0.000000
# 5 -0.000001 -0.000002 0.000001 -0.000003 0.162647 0.000006
# 6 -0.000002 0.000000 0.000001 0.000000 0.000006 0.044388
#
#
# Mechanical properties :
#
#
# Convention : Reuss Voigt Hill
#
# Bulk Modulus (GPa) = 56.33526 65.06924 60.70225
# Shear Modulus (GPa) = 15.61922 24.00106 19.81014
#
# Velocity S-wave (km/s) = 3.09862 3.84108 3.48965
# Velocity P-wave (km/s) = 6.88711 7.72471 7.31790
#
# Compressibility (1/GPa) = 0.01775087
#
# Stress axis : x y z
#
# Youngs Moduli (GPa) = 49.05509 126.70836 66.06952
#
# Poissons Ratio (x) = 0.25583 0.48022
# Poissons Ratio (y) = 0.09904 0.23413
# Poissons Ratio (z) = 0.35655 0.44901
#
# Static dielectric constant tensor:
#      x y z
#    x 3.041900 0.000000 0.000000 
#    y 0.000000 3.260070 0.000000 
#    z 0.000000 0.000000 3.888760 
# 
# 
# High freq. dielectric constant tensor:
#      x y z
#    x 1.571320 0.000000 0.000000 
#    y 0.000000 1.655060 0.000000 
#    z 0.000000 0.000000 1.629840 
# 
# From -- ./inp_files/5343.got.cif
#   From: 2010.03.12/outbox.cif.g09.slc.cpg/sg69_3_cif.got.tgz:5343.got - 2010.04.10 23:52:46.
