data_PCOD8283739
_publ_section_title
;
Structure prediction by ZEFSAII (Michael W. Deem and Ramdas Pophale) SiO2 
 PCOD8283739
Probable space group: C C C A
;
_chemical_formula_sum "Si O2"
_cell_formula_units_Z 60
_cell_length_a 10.309286
_cell_length_b 24.733088
_cell_length_c 9.200402
_cell_angle_alpha 90.000000
_cell_angle_beta 90.000000
_cell_angle_gamma 90.000000
_cell_volume 2345.922898
_symmetry_space_group_name_H-M "C C C A"
_symmetry_group_IT_number 68
_space_group.IT_coordinate_system_code '2'
_symmetry_cell_setting 'orthorhombic'
loop_
_space_group_symop_operation_xyz
x,y,z
-x,1/2-y,z
x,1/2-y,1/2-z
-x,y,1/2-z
-x,-y,-z
x,1/2+y,-z
-x,1/2+y,1/2+z
x,-y,1/2+z
1/2+x,1/2+y,z
1/2-x,-y,z
1/2+x,-y,1/2-z
1/2-x,1/2+y,1/2-z
1/2-x,1/2-y,-z
1/2+x,y,-z
1/2-x,y,1/2+z
1/2+x,1/2-y,1/2+z
loop_
_atom_site_type_symbol
_atom_site_label
_atom_site_fract_x
_atom_site_fract_y
_atom_site_fract_z
Si Si1 0.500000 0.750000 0.250000
Si Si2 0.750000 0.000000 0.636161
Si Si3 0.852664 0.604579 0.489385
Si Si4 0.000000 0.336444 0.750000
Si Si5 0.157915 0.699943 0.503296
Si Si6 0.500000 0.938528 0.250000
O O1 0.418828 0.792968 0.345858
O O2 0.700758 0.955109 0.526073
O O3 0.872137 0.975928 0.727011
O O4 0.734459 0.644436 0.524726
O O5 0.903832 0.623749 0.333857
O O6 0.965424 0.601314 0.613404
O O7 0.937489 0.296231 0.632978
O O8 0.250000 0.750000 0.500000
#
# Coordination Sequence:
#
# PCOD8283739 Si02
#       6
#     4   8  16   8  16   8
#     4  12  28  52  78 114 154 202 268 338 404 482
#     4  12  26  48  80 118 160 210 270 338 404 478
#     4  12  27  49  77 113 156 207 264 328 400 476
#     4  12  27  49  74 110 150 196 255 323 390 468
#     4  12  28  50  78 113 154 206 261 327 401 477
#     4  12  27  51  79 117 159 213 271 335 404 486
#
# _framework density 25.576286
#
# number of rings (size 3 to 8) (size 9 to 14) (size 15 to 20)
#    0.000    0.000    0.000    8.800    0.000   11.200 
#    0.000    0.000    0.000    0.000    0.000    0.000 
#    0.000    0.000    0.000    0.000    0.000    0.000 
#
# Total GULP energy -371879.617360 kJ/mol
# GULP energy per Si atom -12395.987245 kJ/mol
# Density = 2.551807 g / cm^3
# Si number density = 25.576286 Si / 1000 Ang^3
#
#
#
# Elastic Constant Matrix: (Units=GPa)
#
#
# Indices 1 2 3 4 5 6 
#
# 1 148.3582 48.4310 80.3155 0.0000 0.0000 0.0000
# 2 48.4310 129.0712 68.1225 0.0000 0.0000 0.0000
# 3 80.3155 68.1225 188.2428 0.0000 0.0000 0.0000
# 4 0.0000 0.0000 0.0000 44.4379 0.0000 0.0000
# 5 0.0000 0.0000 0.0000 0.0000 37.8764 0.0000
# 6 0.0000 0.0000 0.0000 0.0000 0.0000 26.4758
#
#
#
# Elastic Compliance Matrix: (Units=1/GPa)
#
#
# Indices 1 2 3 4 5 6 
#
# 1 0.009050 -0.001678 -0.003254 0.000000 0.000000 0.000000
# 2 -0.001678 0.009888 -0.002862 0.000000 0.000000 0.000000
# 3 -0.003254 -0.002862 0.007736 0.000000 0.000000 0.000000
# 4 0.000000 0.000000 0.000000 0.022503 0.000000 0.000000
# 5 0.000000 0.000000 0.000000 0.000000 0.026402 0.000000
# 6 0.000000 0.000000 0.000000 0.000000 0.000000 0.037770
#
#
# Mechanical properties :
#
#
# Convention : Reuss Voigt Hill
#
# Bulk Modulus (GPa) = 90.20906 95.49003 92.84954
# Shear Modulus (GPa) = 37.69779 39.67823 38.68801
#
# Velocity S-wave (km/s) = 3.84335 3.94301 3.89350
# Velocity P-wave (km/s) = 7.41905 7.62537 7.52292
#
# Compressibility (1/GPa) = 0.01108536
#
# Stress axis : x y z
#
# Youngs Moduli (GPa) = 110.49917 101.13132 129.25963
#
# Poissons Ratio (x) = 0.16974 0.42058
# Poissons Ratio (y) = 0.18546 0.36998
# Poissons Ratio (z) = 0.35954 0.28946
#
# Static dielectric constant tensor:
#      x y z
#    x 4.913390 0.000000 0.000000 
#    y 0.000000 4.416010 0.000000 
#    z 0.000000 0.000000 4.828130 
# 
# 
# High freq. dielectric constant tensor:
#      x y z
#    x 2.038270 0.000000 0.000000 
#    y 0.000000 2.038930 0.000000 
#    z 0.000000 0.000000 2.034510 
# 
# From -- ./inp_files/3972.got.cif
#   From: 2010.03.12/outbox.cif.g09.slc.cpg/sg68_2_cif.got.tgz:3972.got - 2010.04.10 23:14:56.
