data_PCOD8283286
_publ_section_title
;
Structure prediction by ZEFSAII (Michael W. Deem and Ramdas Pophale) SiO2 
 PCOD8283286
Probable space group: C C C A
;
_chemical_formula_sum "Si O2"
_cell_formula_units_Z 44
_cell_length_a 19.524313
_cell_length_b 10.911075
_cell_length_c 9.692810
_cell_angle_alpha 90.000000
_cell_angle_beta 90.000000
_cell_angle_gamma 90.000000
_cell_volume 2064.871367
_symmetry_space_group_name_H-M "C C C A"
_symmetry_group_IT_number 68
_space_group.IT_coordinate_system_code '2'
_symmetry_cell_setting 'orthorhombic'
loop_
_space_group_symop_operation_xyz
x,y,z
-x,1/2-y,z
x,1/2-y,1/2-z
-x,y,1/2-z
-x,-y,-z
x,1/2+y,-z
-x,1/2+y,1/2+z
x,-y,1/2+z
1/2+x,1/2+y,z
1/2-x,-y,z
1/2+x,-y,1/2-z
1/2-x,1/2+y,1/2-z
1/2-x,1/2-y,-z
1/2+x,y,-z
1/2-x,y,1/2+z
1/2+x,1/2-y,1/2+z
loop_
_atom_site_type_symbol
_atom_site_label
_atom_site_fract_x
_atom_site_fract_y
_atom_site_fract_z
Si Si1 0.884614 0.104842 0.103325
Si Si2 0.774197 0.750000 0.750000
Si Si3 0.000000 0.750000 0.750000
Si Si4 0.856545 0.879326 0.296847
O O1 0.822264 0.199437 0.128066
O O2 0.955349 0.164463 0.150837
O O3 0.873065 0.978575 0.181944
O O4 0.887954 0.075606 0.941139
O O5 0.726123 0.640681 0.690362
O O6 0.890684 0.750000 0.250000
#
# Coordination Sequence:
#
# PCOD8283286 Si02
#       4
#    16   8   4  16
#     4  11  23  46  65  99 138 175 226 267 334 397
#     4   9  22  39  72  99 138 169 218 274 338 385
#     4  10  28  44  72  88 136 186 222 276 324 398
#     4  10  25  40  69 103 130 174 219 279 335 386
#
# _framework density 21.308833
#
# number of rings (size 3 to 8) (size 9 to 14) (size 15 to 20)
#    1.091    0.727    0.000    2.182   10.182    4.364 
#    0.000    0.000    0.000    0.000    0.000    0.000 
#    0.000    0.000    0.000    0.000    0.000    0.000 
#
# Total GULP energy -272772.847209 kJ/mol
# GULP energy per Si atom -12398.765782 kJ/mol
# Density = 2.126033 g / cm^3
# Si number density = 21.308833 Si / 1000 Ang^3
#
#
#
# Elastic Constant Matrix: (Units=GPa)
#
#
# Indices 1 2 3 4 5 6 
#
# 1 113.8653 54.4481 44.1324 0.0000 0.0000 0.0000
# 2 54.4481 151.4933 74.3031 0.0000 0.0000 0.0000
# 3 44.1324 74.3031 181.7615 0.0000 0.0000 0.0000
# 4 0.0000 0.0000 0.0000 41.1114 0.0000 0.0000
# 5 0.0000 0.0000 0.0000 0.0000 12.9607 0.0000
# 6 0.0000 0.0000 0.0000 0.0000 0.0000 20.4977
#
#
#
# Elastic Compliance Matrix: (Units=1/GPa)
#
#
# Indices 1 2 3 4 5 6 
#
# 1 0.010845 -0.003260 -0.001301 0.000000 0.000000 0.000000
# 2 -0.003260 0.009236 -0.002984 0.000000 0.000000 0.000000
# 3 -0.001301 -0.002984 0.007037 0.000000 0.000000 0.000000
# 4 0.000000 0.000000 0.000000 0.024324 0.000000 0.000000
# 5 0.000000 0.000000 0.000000 0.000000 0.077156 0.000000
# 6 0.000000 0.000000 0.000000 0.000000 0.000000 0.048786
#
#
# Mechanical properties :
#
#
# Convention : Reuss Voigt Hill
#
# Bulk Modulus (GPa) = 83.12971 88.09858 85.61414
# Shear Modulus (GPa) = 25.44730 33.19641 29.32185
#
# Velocity S-wave (km/s) = 3.45949 3.95127 3.71353
# Velocity P-wave (km/s) = 7.41984 7.88988 7.65846
#
# Compressibility (1/GPa) = 0.01202939
#
# Stress axis : x y z
#
# Youngs Moduli (GPa) = 92.20622 108.26864 142.09714
#
# Poissons Ratio (x) = 0.35295 0.18481
# Poissons Ratio (y) = 0.30059 0.42405
# Poissons Ratio (z) = 0.11992 0.32310
#
# Static dielectric constant tensor:
#      x y z
#    x 3.763100 0.000000 0.000000 
#    y 0.000000 3.791740 0.000000 
#    z 0.000000 0.000000 3.686770 
# 
# 
# High freq. dielectric constant tensor:
#      x y z
#    x 1.824480 0.000000 0.000000 
#    y 0.000000 1.843040 0.000000 
#    z 0.000000 0.000000 1.830100 
# 
# From -- ./inp_files/3664.got.cif
#   From: 2010.03.12/outbox.cif.g09.slc.cpg/sg68_2_cif.got.tgz:3664.got - 2010.04.10 23:14:56.
