data_PCOD8283127
_publ_section_title
;
Structure prediction by ZEFSAII (Michael W. Deem and Ramdas Pophale) SiO2 
 PCOD8283127
Probable space group: C C C A
;
_chemical_formula_sum "Si O2"
_cell_formula_units_Z 64
_cell_length_a 17.250045
_cell_length_b 7.011825
_cell_length_c 25.015571
_cell_angle_alpha 90.000000
_cell_angle_beta 90.000000
_cell_angle_gamma 90.000000
_cell_volume 3025.740799
_symmetry_space_group_name_H-M "C C C A"
_symmetry_group_IT_number 68
_space_group.IT_coordinate_system_code '2'
_symmetry_cell_setting 'orthorhombic'
loop_
_space_group_symop_operation_xyz
x,y,z
-x,1/2-y,z
x,1/2-y,1/2-z
-x,y,1/2-z
-x,-y,-z
x,1/2+y,-z
-x,1/2+y,1/2+z
x,-y,1/2+z
1/2+x,1/2+y,z
1/2-x,-y,z
1/2+x,-y,1/2-z
1/2-x,1/2+y,1/2-z
1/2-x,1/2-y,-z
1/2+x,y,-z
1/2-x,y,1/2+z
1/2+x,1/2-y,1/2+z
loop_
_atom_site_type_symbol
_atom_site_label
_atom_site_fract_x
_atom_site_fract_y
_atom_site_fract_z
Si Si1 0.180872 0.144866 0.694550
Si Si2 0.510458 0.965396 0.562003
Si Si3 0.335241 0.001271 0.382250
Si Si4 0.423876 0.659827 0.342932
O O1 0.196771 0.250000 0.750000
O O2 0.163983 0.305750 0.651375
O O3 0.250000 0.000000 0.679148
O O4 0.103541 0.014173 0.694389
O O5 0.500000 0.750000 0.579173
O O6 0.600520 0.009804 0.572188
O O7 0.500000 0.000000 0.500000
O O8 0.451100 0.091312 0.597348
O O9 0.250000 0.000000 0.408828
O O10 0.353570 0.815034 0.345449
O O11 0.500000 0.750000 0.314899
#
# Coordination Sequence:
#
# PCOD8283127 Si02
#       4
#    16  16  16  16
#     4  12  25  43  71  99 136 181 229 277 348 404
#     4  11  22  43  68  98 137 181 224 279 346 403
#     4  11  22  42  68  99 136 176 226 285 337 402
#     4  10  23  43  67  98 137 175 222 284 333 402
#
# _framework density 21.151845999999999
#
# number of rings (size 3 to 8) (size 9 to 14) (size 15 to 20)
#    0.000    1.000    5.000    3.000    0.000    0.000 
#    0.000   20.000    0.000    0.000    0.000    0.000 
#    0.000    0.000    0.000    0.000    0.000    0.000 
#
# Total GULP energy -396493.378950 kJ/mol
# GULP energy per Si atom -12390.418092 kJ/mol
# Density = 2.110370 g / cm^3
# Si number density = 21.151846 Si / 1000 Ang^3
#
#
#
# Elastic Constant Matrix: (Units=GPa)
#
#
# Indices 1 2 3 4 5 6 
#
# 1 128.8092 59.9798 22.5997 0.0000 0.0000 0.0000
# 2 59.9798 154.3232 31.6949 0.0000 0.0000 0.0000
# 3 22.5997 31.6949 54.8118 0.0000 0.0000 0.0000
# 4 0.0000 0.0000 0.0000 26.4309 0.0000 0.0000
# 5 0.0000 0.0000 0.0000 0.0000 16.7195 0.0000
# 6 0.0000 0.0000 0.0000 0.0000 0.0000 50.7452
#
#
#
# Elastic Compliance Matrix: (Units=1/GPa)
#
#
# Indices 1 2 3 4 5 6 
#
# 1 0.009680 -0.003339 -0.002060 0.000000 0.000000 0.000000
# 2 -0.003339 0.008505 -0.003541 0.000000 0.000000 0.000000
# 3 -0.002060 -0.003541 0.021141 0.000000 0.000000 0.000000
# 4 0.000000 0.000000 0.000000 0.037835 0.000000 0.000000
# 5 0.000000 0.000000 0.000000 0.000000 0.059810 0.000000
# 6 0.000000 0.000000 0.000000 0.000000 0.000000 0.019706
#
#
# Mechanical properties :
#
#
# Convention : Reuss Voigt Hill
#
# Bulk Modulus (GPa) = 46.63098 62.94368 54.78733
# Shear Modulus (GPa) = 27.51687 33.69044 30.60366
#
# Velocity S-wave (km/s) = 3.61074 3.99531 3.80788
# Velocity P-wave (km/s) = 6.28307 7.14884 6.72989
#
# Compressibility (1/GPa) = 0.02144497
#
# Stress axis : x y z
#
# Youngs Moduli (GPa) = 103.30890 117.57850 47.30043
#
# Poissons Ratio (x) = 0.39259 0.09745
# Poissons Ratio (y) = 0.34495 0.16750
# Poissons Ratio (z) = 0.21285 0.41638
#
# Static dielectric constant tensor:
#      x y z
#    x 4.207460 0.000000 0.000000 
#    y 0.000000 4.544540 0.000000 
#    z 0.000000 0.000000 3.336560 
# 
# 
# High freq. dielectric constant tensor:
#      x y z
#    x 1.839310 0.000000 0.000000 
#    y 0.000000 1.870610 0.000000 
#    z 0.000000 0.000000 1.786920 
# 
# From -- ./inp_files/55457.got.cif
#   From: 2010.03.12/outbox.cif.g09.slc.cpg/sg68_28_cif.got.tgz:55457.got - 2010.04.10 23:14:56.
