data_PCOD8283529
_publ_section_title
;
Structure prediction by ZEFSAII (Michael W. Deem and Ramdas Pophale) SiO2 
 PCOD8283529
Probable space group: C C C A
;
_chemical_formula_sum "Si O2"
_cell_formula_units_Z 64
_cell_length_a 17.103109
_cell_length_b 11.483097
_cell_length_c 14.262128
_cell_angle_alpha 90.000000
_cell_angle_beta 90.000000
_cell_angle_gamma 90.000000
_cell_volume 2801.034299
_symmetry_space_group_name_H-M "C C C A"
_symmetry_group_IT_number 68
_space_group.IT_coordinate_system_code '2'
_symmetry_cell_setting 'orthorhombic'
loop_
_space_group_symop_operation_xyz
x,y,z
-x,1/2-y,z
x,1/2-y,1/2-z
-x,y,1/2-z
-x,-y,-z
x,1/2+y,-z
-x,1/2+y,1/2+z
x,-y,1/2+z
1/2+x,1/2+y,z
1/2-x,-y,z
1/2+x,-y,1/2-z
1/2-x,1/2+y,1/2-z
1/2-x,1/2-y,-z
1/2+x,y,-z
1/2-x,y,1/2+z
1/2+x,1/2-y,1/2+z
loop_
_atom_site_type_symbol
_atom_site_label
_atom_site_fract_x
_atom_site_fract_y
_atom_site_fract_z
Si Si1 0.869544 0.212927 0.653643
Si Si2 0.912625 0.756742 0.549401
Si Si3 0.281942 0.873676 0.157189
Si Si4 0.170891 0.042549 0.357314
O O1 0.911731 0.250000 0.750000
O O2 0.918906 0.244113 0.562342
O O3 0.783522 0.273197 0.644867
O O4 0.871824 0.075042 0.670418
O O5 0.856503 0.657587 0.592637
O O6 0.880388 0.884609 0.570888
O O7 0.000000 0.750000 0.591708
O O8 0.309481 0.879589 0.265453
O O9 0.250000 0.000000 0.125495
O O10 0.250000 0.000000 0.409360
#
# Coordination Sequence:
#
# PCOD8283529 Si02
#       4
#    16  16  16  16
#     4  12  24  45  72 105 145 191 251 299 353 426
#     4  12  29  46  70 110 151 193 235 293 374 436
#     4  11  23  44  76 108 138 181 245 306 351 425
#     4  11  23  44  77 109 139 187 245 302 360 421
#
# _framework density 22.848704000000001
#
# number of rings (size 3 to 8) (size 9 to 14) (size 15 to 20)
#    0.000    0.500    7.500    1.500    3.500    3.500 
#    0.000    2.500    0.000    0.000    0.000    0.000 
#    0.000    0.000    0.000    0.000    0.000    0.000 
#
# Total GULP energy -396665.608004 kJ/mol
# GULP energy per Si atom -12395.800250 kJ/mol
# Density = 2.279670 g / cm^3
# Si number density = 22.848704 Si / 1000 Ang^3
#
#
#
# Elastic Constant Matrix: (Units=GPa)
#
#
# Indices 1 2 3 4 5 6 
#
# 1 113.4422 38.0251 34.2186 0.0000 0.0000 0.0000
# 2 38.0251 129.2659 28.8303 0.0000 0.0000 0.0000
# 3 34.2186 28.8303 90.2621 0.0000 0.0000 0.0000
# 4 0.0000 0.0000 0.0000 23.2876 0.0000 0.0000
# 5 0.0000 0.0000 0.0000 0.0000 52.5505 0.0000
# 6 0.0000 0.0000 0.0000 0.0000 0.0000 22.5642
#
#
#
# Elastic Compliance Matrix: (Units=1/GPa)
#
#
# Indices 1 2 3 4 5 6 
#
# 1 0.010598 -0.002392 -0.003254 0.000000 0.000000 0.000000
# 2 -0.002392 0.008869 -0.001926 0.000000 0.000000 0.000000
# 3 -0.003254 -0.001926 0.012928 0.000000 0.000000 0.000000
# 4 0.000000 0.000000 0.000000 0.042941 0.000000 0.000000
# 5 0.000000 0.000000 0.000000 0.000000 0.019029 0.000000
# 6 0.000000 0.000000 0.000000 0.000000 0.000000 0.044318
#
#
# Mechanical properties :
#
#
# Convention : Reuss Voigt Hill
#
# Bulk Modulus (GPa) = 57.96643 59.45759 58.71201
# Shear Modulus (GPa) = 31.33264 35.14019 33.23641
#
# Velocity S-wave (km/s) = 3.70714 3.92593 3.81810
# Velocity P-wave (km/s) = 6.61427 6.82857 6.72227
#
# Compressibility (1/GPa) = 0.01725137
#
# Stress axis : x y z
#
# Youngs Moduli (GPa) = 94.35468 112.74996 77.35387
#
# Poissons Ratio (x) = 0.26969 0.25170
# Poissons Ratio (y) = 0.22569 0.14899
# Poissons Ratio (z) = 0.30702 0.21717
#
# Static dielectric constant tensor:
#      x y z
#    x 3.828190 0.000000 0.000000 
#    y 0.000000 4.361700 0.000000 
#    z 0.000000 0.000000 4.146100 
# 
# 
# High freq. dielectric constant tensor:
#      x y z
#    x 1.869340 0.000000 0.000000 
#    y 0.000000 1.925960 0.000000 
#    z 0.000000 0.000000 1.904670 
# 
# From -- ./inp_files/20421.got.cif
#   From: 2010.03.12/outbox.cif.g09.slc.cpg/sg68_11_cif.got.tgz:20421.got - 2010.04.10 23:14:56.
