data_PCOD8283903
_publ_section_title
;
Structure prediction by ZEFSAII (Michael W. Deem and Ramdas Pophale) SiO2 
 PCOD8283903
Probable space group: F M M M
;
_chemical_formula_sum "Si O2"
_cell_formula_units_Z 176
_cell_length_a 20.354371
_cell_length_b 17.250526
_cell_length_c 28.121673
_cell_angle_alpha 90.000000
_cell_angle_beta 90.000000
_cell_angle_gamma 90.000000
_cell_volume 9874.183235
_symmetry_space_group_name_H-M "F M M M"
_symmetry_group_IT_number 69
_symmetry_cell_setting 'orthorhombic'
loop_
_space_group_symop_operation_xyz
x,y,z
-x,-y,z
x,-y,-z
-x,y,-z
-x,-y,-z
x,y,-z
-x,y,z
x,-y,z
x,1/2+y,1/2+z
-x,1/2-y,1/2+z
x,1/2-y,1/2-z
-x,1/2+y,1/2-z
-x,1/2-y,1/2-z
x,1/2+y,1/2-z
-x,1/2+y,1/2+z
x,1/2-y,1/2+z
1/2+x,y,1/2+z
1/2-x,-y,1/2+z
1/2+x,-y,1/2-z
1/2-x,y,1/2-z
1/2-x,-y,1/2-z
1/2+x,y,1/2-z
1/2-x,y,1/2+z
1/2+x,-y,1/2+z
1/2+x,1/2+y,z
1/2-x,1/2-y,z
1/2+x,1/2-y,-z
1/2-x,1/2+y,-z
1/2-x,1/2-y,-z
1/2+x,1/2+y,-z
1/2-x,1/2+y,z
1/2+x,1/2-y,z
loop_
_atom_site_type_symbol
_atom_site_label
_atom_site_fract_x
_atom_site_fract_y
_atom_site_fract_z
Si Si1 0.685054 0.408323 0.274640
Si Si2 0.323636 0.280285 0.446719
Si Si3 0.638481 0.136605 0.609194
Si Si4 0.424942 0.409353 0.796966
Si Si5 0.426723 0.500000 0.055924
Si Si6 0.287579 0.590658 0.620621
O O1 0.691296 0.500000 0.272643
O O2 0.750000 0.371729 0.250000
O O3 0.619858 0.380640 0.246943
O O4 0.680174 0.382477 0.329494
O O5 0.352967 0.288530 0.500000
O O6 0.250000 0.250000 0.449763
O O7 0.366119 0.220391 0.415626
O O8 0.324643 0.364059 0.421495
O O9 0.593742 0.138685 0.656148
O O10 0.611831 0.075933 0.571290
O O11 0.711425 0.112488 0.624093
O O12 0.500000 0.392912 0.782804
O O13 0.412736 0.500000 0.808347
O O14 0.500000 0.500000 0.078439
O O15 0.430723 0.500000 0.000000
O O16 0.296693 0.500000 0.610530
#
# Coordination Sequence:
#
# PCOD8283903 Si02
#       6
#    32  32  32  32  16  32
#     4   9  16  28  49  76 106 139 178 221 266 323
#     4   9  20  34  48  71 104 138 176 224 275 317
#     4  11  18  32  50  73 108 145 180 219 269 319
#     4  10  18  29  50  80 111 143 176 214 262 325
#     4  11  22  32  48  77 110 146 187 220 260 332
#     4  10  18  32  54  77 101 139 187 225 268 317
#
# _framework density 17.824259000000001
#
# number of rings (size 3 to 8) (size 9 to 14) (size 15 to 20)
#    0.000    2.091    3.636    1.091    0.000    1.091 
#    0.000    0.909    0.000    3.273    0.000    0.000 
#    0.000    0.000    0.000   16.000    0.000    0.000 
#
# Total GULP energy -545603.818153 kJ/mol
# GULP energy per Si atom -12400.086776 kJ/mol
# Density = 1.778369 g / cm^3
# Si number density = 17.824259 Si / 1000 Ang^3
#
#
#
# Elastic Constant Matrix: (Units=GPa)
#
#
# Indices 1 2 3 4 5 6 
#
# 1 94.3471 28.0347 54.6671 0.0000 0.0000 0.0000
# 2 28.0347 79.0849 52.3425 0.0000 0.0000 0.0000
# 3 54.6671 52.3425 144.9284 0.0000 0.0000 0.0000
# 4 0.0000 0.0000 0.0000 24.0593 0.0000 0.0000
# 5 0.0000 0.0000 0.0000 0.0000 18.6122 0.0000
# 6 0.0000 0.0000 0.0000 0.0000 0.0000 -89.3169
#
#
#
# Elastic Compliance Matrix: (Units=1/GPa)
#
#
# Indices 1 2 3 4 5 6 
#
# 1 0.013777 -0.001898 -0.004511 0.000000 0.000000 0.000000
# 2 -0.001898 0.016878 -0.005380 0.000000 0.000000 0.000000
# 3 -0.004511 -0.005380 0.010545 0.000000 0.000000 0.000000
# 4 0.000000 0.000000 0.000000 0.041564 0.000000 0.000000
# 5 0.000000 0.000000 0.000000 0.000000 0.053728 0.000000
# 6 0.000000 0.000000 0.000000 0.000000 0.000000 -0.011196
#
#
# Mechanical properties :
#
#
# Convention : Reuss Voigt Hill
#
# Bulk Modulus (GPa) = 56.74840 65.38322 61.06581
# Shear Modulus (GPa) = 32.31064 2.89199 17.60131
#
# Velocity S-wave (km/s) = 4.26224 1.27516 3.14585
# Velocity P-wave (km/s) = 7.49194 6.23938 6.89416
#
# Compressibility (1/GPa) = 0.01762164
#
# Stress axis : x y z
#
# Youngs Moduli (GPa) = 72.58440 59.24838 94.83567
#
# Poissons Ratio (x) = 0.11246 0.42782
# Poissons Ratio (y) = 0.13777 0.51019
# Poissons Ratio (z) = 0.32744 0.31874
#
# Static dielectric constant tensor:
#      x y z
#    x 3.239940 0.000000 0.000000 
#    y 0.000000 3.140150 0.000000 
#    z 0.000000 0.000000 3.514620 
# 
# 
# High freq. dielectric constant tensor:
#      x y z
#    x 1.663380 0.000000 0.000000 
#    y 0.000000 1.663010 0.000000 
#    z 0.000000 0.000000 1.703810 
# 
# From -- ./inp_files/27684.got.cif
#   From: 2010.03.12/outbox.cif.g09.slc.cpg/sg69_14_cif.got.tgz:27684.got - 2010.04.10 23:52:46.
