data_PCOD8283185
_publ_section_title
;
Structure prediction by ZEFSAII (Michael W. Deem and Ramdas Pophale) SiO2 
 PCOD8283185
Probable space group: C C C A
;
_chemical_formula_sum "Si O2"
_cell_formula_units_Z 56
_cell_length_a 9.398551
_cell_length_b 28.446247
_cell_length_c 9.322163
_cell_angle_alpha 90.000000
_cell_angle_beta 90.000000
_cell_angle_gamma 90.000000
_cell_volume 2492.312935
_symmetry_space_group_name_H-M "C C C A"
_symmetry_group_IT_number 68
_space_group.IT_coordinate_system_code '2'
_symmetry_cell_setting 'orthorhombic'
loop_
_space_group_symop_operation_xyz
x,y,z
-x,1/2-y,z
x,1/2-y,1/2-z
-x,y,1/2-z
-x,-y,-z
x,1/2+y,-z
-x,1/2+y,1/2+z
x,-y,1/2+z
1/2+x,1/2+y,z
1/2-x,-y,z
1/2+x,-y,1/2-z
1/2-x,1/2+y,1/2-z
1/2-x,1/2-y,-z
1/2+x,y,-z
1/2-x,y,1/2+z
1/2+x,1/2-y,1/2+z
loop_
_atom_site_type_symbol
_atom_site_label
_atom_site_fract_x
_atom_site_fract_y
_atom_site_fract_z
Si Si1 0.597923 0.474614 0.611902
Si Si2 0.768706 0.750000 0.250000
Si Si3 0.055917 0.870373 0.590254
Si Si4 0.679811 0.687620 0.506849
O O1 0.500000 0.474005 0.750000
O O2 0.500000 0.500000 0.500000
O O3 0.750000 0.500000 0.636428
O O4 0.623970 0.421355 0.557116
O O5 0.674254 0.715543 0.354294
O O6 0.867724 0.779213 0.360308
O O7 0.163071 0.829136 0.548984
O O8 0.000000 0.867420 0.750000
O O9 0.918459 0.858722 0.493202
#
# Coordination Sequence:
#
# PCOD8283185 Si02
#       4
#    16   8  16  16
#     4  11  24  45  72 103 138 182 228 287 358 426
#     4  10  24  40  68 100 132 190 230 276 334 402
#     4  11  24  44  66  98 139 172 220 286 340 397
#     4  11  23  43  67  97 138 180 228 277 335 394
#
# _framework density 22.469087999999999
#
# number of rings (size 3 to 8) (size 9 to 14) (size 15 to 20)
#    0.000    1.143    2.857    2.571    0.000   10.286 
#    5.143    0.000    0.000    0.000    0.000    0.000 
#    0.000    0.000    0.000    0.000    0.000    0.000 
#
# Total GULP energy -346914.652714 kJ/mol
# GULP energy per Si atom -12389.809025 kJ/mol
# Density = 2.241795 g / cm^3
# Si number density = 22.469088 Si / 1000 Ang^3
#
#
#
# Elastic Constant Matrix: (Units=GPa)
#
#
# Indices 1 2 3 4 5 6 
#
# 1 111.1268 58.9247 32.6889 0.0000 0.0000 0.0000
# 2 58.9247 164.1209 62.3161 0.0000 0.0000 0.0000
# 3 32.6889 62.3161 120.4987 0.0000 0.0000 0.0000
# 4 0.0000 0.0000 0.0000 18.4738 0.0000 0.0000
# 5 0.0000 0.0000 0.0000 0.0000 30.2383 0.0000
# 6 0.0000 0.0000 0.0000 0.0000 0.0000 54.3808
#
#
#
# Elastic Compliance Matrix: (Units=1/GPa)
#
#
# Indices 1 2 3 4 5 6 
#
# 1 0.011252 -0.003585 -0.001199 0.000000 0.000000 0.000000
# 2 -0.003585 0.008724 -0.003539 0.000000 0.000000 0.000000
# 3 -0.001199 -0.003539 0.010454 0.000000 0.000000 0.000000
# 4 0.000000 0.000000 0.000000 0.054131 0.000000 0.000000
# 5 0.000000 0.000000 0.000000 0.000000 0.033071 0.000000
# 6 0.000000 0.000000 0.000000 0.000000 0.000000 0.018389
#
#
# Mechanical properties :
#
#
# Convention : Reuss Voigt Hill
#
# Bulk Modulus (GPa) = 72.54095 78.17843 75.35969
# Shear Modulus (GPa) = 31.79437 36.73969 34.26703
#
# Velocity S-wave (km/s) = 3.76577 4.04805 3.90946
# Velocity P-wave (km/s) = 7.15981 7.53115 7.34783
#
# Compressibility (1/GPa) = 0.01378532
#
# Stress axis : x y z
#
# Youngs Moduli (GPa) = 88.87209 114.62759 95.65482
#
# Poissons Ratio (x) = 0.41091 0.11465
# Poissons Ratio (y) = 0.31859 0.33853
# Poissons Ratio (z) = 0.10652 0.40568
#
# Static dielectric constant tensor:
#      x y z
#    x 3.934830 0.000000 0.000000 
#    y 0.000000 4.824760 0.000000 
#    z 0.000000 0.000000 4.120090 
# 
# 
# High freq. dielectric constant tensor:
#      x y z
#    x 1.877520 0.000000 0.000000 
#    y 0.000000 1.901870 0.000000 
#    z 0.000000 0.000000 1.892390 
# 
# From -- ./inp_files/3915.got.cif
#   From: 2010.03.12/outbox.cif.g09.slc.cpg/sg68_2_cif.got.tgz:3915.got - 2010.04.10 23:14:56.
