data_PCOD8283086
_publ_section_title
;
Structure prediction by ZEFSAII (Michael W. Deem and Ramdas Pophale) SiO2 
 PCOD8283086
Probable space group: C C C A
;
_chemical_formula_sum "Si O2"
_cell_formula_units_Z 64
_cell_length_a 14.372456
_cell_length_b 15.846135
_cell_length_c 11.273224
_cell_angle_alpha 90.000000
_cell_angle_beta 90.000000
_cell_angle_gamma 90.000000
_cell_volume 2567.452845
_symmetry_space_group_name_H-M "C C C A"
_symmetry_group_IT_number 68
_space_group.IT_coordinate_system_code '2'
_symmetry_cell_setting 'orthorhombic'
loop_
_space_group_symop_operation_xyz
x,y,z
-x,1/2-y,z
x,1/2-y,1/2-z
-x,y,1/2-z
-x,-y,-z
x,1/2+y,-z
-x,1/2+y,1/2+z
x,-y,1/2+z
1/2+x,1/2+y,z
1/2-x,-y,z
1/2+x,-y,1/2-z
1/2-x,1/2+y,1/2-z
1/2-x,1/2-y,-z
1/2+x,y,-z
1/2-x,y,1/2+z
1/2+x,1/2-y,1/2+z
loop_
_atom_site_type_symbol
_atom_site_label
_atom_site_fract_x
_atom_site_fract_y
_atom_site_fract_z
Si Si1 0.467073 0.428731 0.911294
Si Si2 0.360420 0.844132 0.495707
Si Si3 0.841742 0.333499 0.921012
Si Si4 0.153773 0.457772 0.783892
O O1 0.428053 0.470172 0.787884
O O2 0.500000 0.500000 0.000000
O O3 0.554406 0.363792 0.904617
O O4 0.376714 0.380478 0.961565
O O5 0.270090 0.828222 0.415231
O O6 0.382600 0.761530 0.576034
O O7 0.338786 0.921591 0.583513
O O8 0.878238 0.384943 0.806796
O O9 0.250000 0.500000 0.741035
#
# Coordination Sequence:
#
# PCOD8283086 Si02
#       4
#    16  16  16  16
#     4  10  23  41  65 101 136 178 237 298 352 417
#     4  10  23  44  69  99 137 188 235 296 363 426
#     4  11  23  43  69  96 143 188 235 292 365 429
#     4  11  23  40  67 100 139 181 239 296 353 425
#
# _framework density 24.927429
#
# number of rings (size 3 to 8) (size 9 to 14) (size 15 to 20)
#    0.000    1.500    2.500    1.500    7.000    4.000 
#    0.000    5.000    0.000    0.000    0.000    0.000 
#    0.000    0.000    0.000    0.000    0.000    0.000 
#
# Total GULP energy -396651.817997 kJ/mol
# GULP energy per Si atom -12395.369312 kJ/mol
# Density = 2.487069 g / cm^3
# Si number density = 24.927429 Si / 1000 Ang^3
#
#
#
# Elastic Constant Matrix: (Units=GPa)
#
#
# Indices 1 2 3 4 5 6 
#
# 1 165.3526 67.2889 30.1429 0.0000 0.0000 0.0000
# 2 67.2889 140.6999 32.3664 0.0000 0.0000 0.0000
# 3 30.1429 32.3664 57.5369 0.0000 0.0000 0.0000
# 4 0.0000 0.0000 0.0000 61.6890 0.0000 0.0000
# 5 0.0000 0.0000 0.0000 0.0000 27.4380 0.0000
# 6 0.0000 0.0000 0.0000 0.0000 0.0000 44.8856
#
#
#
# Elastic Compliance Matrix: (Units=1/GPa)
#
#
# Indices 1 2 3 4 5 6 
#
# 1 0.007759 -0.003188 -0.002271 0.000000 0.000000 0.000000
# 2 -0.003188 0.009474 -0.003659 0.000000 0.000000 0.000000
# 3 -0.002271 -0.003659 0.020628 0.000000 0.000000 0.000000
# 4 0.000000 0.000000 0.000000 0.016210 0.000000 0.000000
# 5 0.000000 0.000000 0.000000 0.000000 0.036446 0.000000
# 6 0.000000 0.000000 0.000000 0.000000 0.000000 0.022279
#
#
# Mechanical properties :
#
#
# Convention : Reuss Voigt Hill
#
# Bulk Modulus (GPa) = 50.95806 69.24287 60.10046
# Shear Modulus (GPa) = 36.34372 42.38860 39.36616
#
# Velocity S-wave (km/s) = 3.82249 4.12816 3.97826
# Velocity P-wave (km/s) = 6.32210 7.11058 6.72790
#
# Compressibility (1/GPa) = 0.01962398
#
# Stress axis : x y z
#
# Youngs Moduli (GPa) = 128.87928 105.55410 48.47667
#
# Poissons Ratio (x) = 0.33654 0.11011
# Poissons Ratio (y) = 0.41090 0.17738
# Poissons Ratio (z) = 0.29274 0.38623
#
# Static dielectric constant tensor:
#      x y z
#    x 4.843270 0.000000 0.000000 
#    y 0.000000 4.992820 0.000000 
#    z 0.000000 0.000000 4.038800 
# 
# 
# High freq. dielectric constant tensor:
#      x y z
#    x 2.010330 0.000000 0.000000 
#    y 0.000000 2.003220 0.000000 
#    z 0.000000 0.000000 1.956590 
# 
# From -- ./inp_files/12784.got.cif
#   From: 2010.03.12/outbox.cif.g09.slc.cpg/sg68_7_cif.got.tgz:12784.got - 2010.04.10 23:14:56.
