data_PCOD8283450
_publ_section_title
;
Structure prediction by ZEFSAII (Michael W. Deem and Ramdas Pophale) SiO2 
 PCOD8283450
Probable space group: C C C A
;
_chemical_formula_sum "Si O2"
_cell_formula_units_Z 56
_cell_length_a 10.936912
_cell_length_b 15.290242
_cell_length_c 14.253798
_cell_angle_alpha 90.000000
_cell_angle_beta 90.000000
_cell_angle_gamma 90.000000
_cell_volume 2383.634577
_symmetry_space_group_name_H-M "C C C A"
_symmetry_group_IT_number 68
_space_group.IT_coordinate_system_code '2'
_symmetry_cell_setting 'orthorhombic'
loop_
_space_group_symop_operation_xyz
x,y,z
-x,1/2-y,z
x,1/2-y,1/2-z
-x,y,1/2-z
-x,-y,-z
x,1/2+y,-z
-x,1/2+y,1/2+z
x,-y,1/2+z
1/2+x,1/2+y,z
1/2-x,-y,z
1/2+x,-y,1/2-z
1/2-x,1/2+y,1/2-z
1/2-x,1/2-y,-z
1/2+x,y,-z
1/2-x,y,1/2+z
1/2+x,1/2-y,1/2+z
loop_
_atom_site_type_symbol
_atom_site_label
_atom_site_fract_x
_atom_site_fract_y
_atom_site_fract_z
Si Si1 0.361397 0.247766 0.359535
Si Si2 0.642072 0.066948 0.409608
Si Si3 0.500000 0.528981 0.250000
Si Si4 0.318542 0.911403 0.386928
O O1 0.500000 0.250000 0.403193
O O2 0.372519 0.250000 0.250000
O O3 0.299047 0.339160 0.386343
O O4 0.278012 0.168133 0.396990
O O5 0.598975 0.075665 0.518680
O O6 0.750000 0.000000 0.402839
O O7 0.539905 0.036810 0.334624
O O8 0.596313 0.597361 0.294872
O O9 0.250000 0.000000 0.364680
#
# Coordination Sequence:
#
# PCOD8283450 Si02
#       4
#    16  16   8  16
#     4  11  22  41  68  95 130 177 223 272 335 403
#     4  11  24  43  66  95 132 176 224 275 336 404
#     4  12  22  42  70  96 136 178 220 282 342 398
#     4  11  24  42  66  99 134 175 227 280 337 402
#
# _framework density 23.493535000000001
#
# number of rings (size 3 to 8) (size 9 to 14) (size 15 to 20)
#    0.000    0.857    0.000    9.429    0.000    2.286 
#    0.000    9.286    0.000    0.000    0.000    0.000 
#    0.000    0.000    0.000    0.000    0.000    0.000 
#
# Total GULP energy -346869.784334 kJ/mol
# GULP energy per Si atom -12388.206583 kJ/mol
# Density = 2.344006 g / cm^3
# Si number density = 23.493535 Si / 1000 Ang^3
#
#
#
# Elastic Constant Matrix: (Units=GPa)
#
#
# Indices 1 2 3 4 5 6 
#
# 1 96.3671 60.9837 74.8431 0.0000 0.0000 0.0000
# 2 60.9837 176.8073 37.5327 0.0000 0.0000 0.0000
# 3 74.8431 37.5327 152.7881 0.0000 0.0000 0.0000
# 4 0.0000 0.0000 0.0000 27.9200 0.0000 0.0000
# 5 0.0000 0.0000 0.0000 0.0000 70.1277 0.0000
# 6 0.0000 0.0000 0.0000 0.0000 0.0000 48.9738
#
#
#
# Elastic Compliance Matrix: (Units=1/GPa)
#
#
# Indices 1 2 3 4 5 6 
#
# 1 0.020459 -0.005200 -0.008744 0.000000 0.000000 0.000000
# 2 -0.005200 0.007289 0.000757 0.000000 0.000000 0.000000
# 3 -0.008744 0.000757 0.010643 0.000000 0.000000 0.000000
# 4 0.000000 0.000000 0.000000 0.035817 0.000000 0.000000
# 5 0.000000 0.000000 0.000000 0.000000 0.014260 0.000000
# 6 0.000000 0.000000 0.000000 0.000000 0.000000 0.020419
#
#
# Mechanical properties :
#
#
# Convention : Reuss Voigt Hill
#
# Bulk Modulus (GPa) = 83.23124 85.85353 84.54239
# Shear Modulus (GPa) = 35.90220 46.24449 41.07334
#
# Velocity S-wave (km/s) = 3.91343 4.44147 4.18578
# Velocity P-wave (km/s) = 7.47824 7.93253 7.70873
#
# Compressibility (1/GPa) = 0.01201472
#
# Stress axis : x y z
#
# Youngs Moduli (GPa) = 48.87739 137.19435 93.96242
#
# Poissons Ratio (x) = 0.71348 0.82165
# Poissons Ratio (y) = 0.25419 -0.07112
# Poissons Ratio (z) = 0.42741 -0.10384
#
# Static dielectric constant tensor:
#      x y z
#    x 4.070520 0.000000 0.000000 
#    y 0.000000 4.463980 0.000000 
#    z 0.000000 0.000000 4.942090 
# 
# 
# High freq. dielectric constant tensor:
#      x y z
#    x 1.908890 0.000000 0.000000 
#    y 0.000000 1.936850 0.000000 
#    z 0.000000 0.000000 1.949610 
# 
# From -- ./inp_files/20087.got.cif
#   From: 2010.03.12/outbox.cif.g09.slc.cpg/sg68_11_cif.got.tgz:20087.got - 2010.04.10 23:14:56.
