data_PCOD8283591
_publ_section_title
;
Structure prediction by ZEFSAII (Michael W. Deem and Ramdas Pophale) SiO2 
 PCOD8283591
Probable space group: C C C A
;
_chemical_formula_sum "Si O2"
_cell_formula_units_Z 88
_cell_length_a 10.912035
_cell_length_b 15.533717
_cell_length_c 23.132424
_cell_angle_alpha 90.000000
_cell_angle_beta 90.000000
_cell_angle_gamma 90.000000
_cell_volume 3921.049122
_symmetry_space_group_name_H-M "C C C A"
_symmetry_group_IT_number 68
_space_group.IT_coordinate_system_code '2'
_symmetry_cell_setting 'orthorhombic'
loop_
_space_group_symop_operation_xyz
x,y,z
-x,1/2-y,z
x,1/2-y,1/2-z
-x,y,1/2-z
-x,-y,-z
x,1/2+y,-z
-x,1/2+y,1/2+z
x,-y,1/2+z
1/2+x,1/2+y,z
1/2-x,-y,z
1/2+x,-y,1/2-z
1/2-x,1/2+y,1/2-z
1/2-x,1/2-y,-z
1/2+x,y,-z
1/2-x,y,1/2+z
1/2+x,1/2-y,1/2+z
loop_
_atom_site_type_symbol
_atom_site_label
_atom_site_fract_x
_atom_site_fract_y
_atom_site_fract_z
Si Si1 0.873362 0.396673 0.232667
Si Si2 0.373663 0.804378 0.014459
Si Si3 0.566722 0.412399 0.408365
Si Si4 0.250000 0.000000 0.827441
Si Si5 0.190200 0.750000 0.250000
Si Si6 0.000000 0.250000 0.654706
Si Si7 0.869663 0.051292 0.396836
O O1 0.853541 0.461570 0.285729
O O2 0.766164 0.329566 0.228123
O O3 0.878466 0.446477 0.172361
O O4 0.000000 0.349819 0.250000
O O5 0.500000 0.750000 0.012702
O O6 0.366260 0.851888 0.076810
O O7 0.250000 0.750000 0.000000
O O8 0.378213 0.881989 0.968945
O O9 0.683132 0.429311 0.367095
O O10 0.479453 0.335030 0.384172
O O11 0.488642 0.498740 0.418439
O O12 0.113404 0.776114 0.305644
O O13 0.750000 0.000000 0.417000
#
# Coordination Sequence:
#
# PCOD8283591 Si02
#       7
#    16  16  16   8   8   8  16
#     4  12  25  44  68 107 149 191 238 304 366 440
#     4  12  30  51  78 110 152 195 254 311 371 446
#     4  12  26  49  76 106 146 194 248 303 375 433
#     4  12  26  44  74 108 148 186 246 300 368 446
#     4  11  25  40  68 106 145 191 244 290 368 437
#     4  11  24  44  74 102 144 196 239 300 360 450
#     4  12  27  46  78 107 152 194 247 304 373 436
#
# _framework density 22.442972999999999
#
# number of rings (size 3 to 8) (size 9 to 14) (size 15 to 20)
#    0.000    0.182    5.455    3.000    6.364    1.455 
#    0.000    0.000    0.000    0.000    0.000    0.000 
#    0.000    0.000    0.000    0.000    0.000    0.000 
#
# Total GULP energy -545601.150952 kJ/mol
# GULP energy per Si atom -12400.026158 kJ/mol
# Density = 2.239189 g / cm^3
# Si number density = 22.442973 Si / 1000 Ang^3
#
#
#
# Elastic Constant Matrix: (Units=GPa)
#
#
# Indices 1 2 3 4 5 6 
#
# 1 136.9200 44.7368 37.4051 0.0000 0.0000 0.0000
# 2 44.7368 101.4067 29.4633 0.0000 0.0000 0.0000
# 3 37.4051 29.4633 100.7775 0.0000 0.0000 0.0000
# 4 0.0000 0.0000 0.0000 39.2359 0.0000 0.0000
# 5 0.0000 0.0000 0.0000 0.0000 94.3162 0.0000
# 6 0.0000 0.0000 0.0000 0.0000 0.0000 50.1208
#
#
#
# Elastic Compliance Matrix: (Units=1/GPa)
#
#
# Indices 1 2 3 4 5 6 
#
# 1 0.009031 -0.003290 -0.002390 0.000000 0.000000 0.000000
# 2 -0.003290 0.011975 -0.002280 0.000000 0.000000 0.000000
# 3 -0.002390 -0.002280 0.011477 0.000000 0.000000 0.000000
# 4 0.000000 0.000000 0.000000 0.025487 0.000000 0.000000
# 5 0.000000 0.000000 0.000000 0.000000 0.010603 0.000000
# 6 0.000000 0.000000 0.000000 0.000000 0.000000 0.019952
#
#
# Mechanical properties :
#
#
# Convention : Reuss Voigt Hill
#
# Bulk Modulus (GPa) = 60.37596 62.47939 61.42768
# Shear Modulus (GPa) = 45.46875 51.90120 48.68497
#
# Velocity S-wave (km/s) = 4.50596 4.81415 4.66260
# Velocity P-wave (km/s) = 7.35064 7.66818 7.51109
#
# Compressibility (1/GPa) = 0.01656288
#
# Stress axis : x y z
#
# Youngs Moduli (GPa) = 110.72406 83.50692 87.13355
#
# Poissons Ratio (x) = 0.27472 0.20828
# Poissons Ratio (y) = 0.36426 0.19866
# Poissons Ratio (z) = 0.26467 0.19039
#
# Static dielectric constant tensor:
#      x y z
#    x 4.133980 0.000000 0.000000 
#    y 0.000000 3.652250 0.000000 
#    z 0.000000 0.000000 4.351640 
# 
# 
# High freq. dielectric constant tensor:
#      x y z
#    x 1.894060 0.000000 0.000000 
#    y 0.000000 1.883130 0.000000 
#    z 0.000000 0.000000 1.896590 
# 
# From -- ./inp_files/44272.got.cif
#   From: 2010.03.12/outbox.cif.g09.slc.cpg/sg68_23_cif.got.tgz:44272.got - 2010.04.10 23:14:56.
