data_PCOD8283817
_publ_section_title
;
Structure prediction by ZEFSAII (Michael W. Deem and Ramdas Pophale) SiO2 
 PCOD8283817
Probable space group: F M M M
;
_chemical_formula_sum "Si O2"
_cell_formula_units_Z 176
_cell_length_a 13.392612
_cell_length_b 30.295415
_cell_length_c 21.454768
_cell_angle_alpha 90.000000
_cell_angle_beta 90.000000
_cell_angle_gamma 90.000000
_cell_volume 8704.944683
_symmetry_space_group_name_H-M "F M M M"
_symmetry_group_IT_number 69
_symmetry_cell_setting 'orthorhombic'
loop_
_space_group_symop_operation_xyz
x,y,z
-x,-y,z
x,-y,-z
-x,y,-z
-x,-y,-z
x,y,-z
-x,y,z
x,-y,z
x,1/2+y,1/2+z
-x,1/2-y,1/2+z
x,1/2-y,1/2-z
-x,1/2+y,1/2-z
-x,1/2-y,1/2-z
x,1/2+y,1/2-z
-x,1/2+y,1/2+z
x,1/2-y,1/2+z
1/2+x,y,1/2+z
1/2-x,-y,1/2+z
1/2+x,-y,1/2-z
1/2-x,y,1/2-z
1/2-x,-y,1/2-z
1/2+x,y,1/2-z
1/2-x,y,1/2+z
1/2+x,-y,1/2+z
1/2+x,1/2+y,z
1/2-x,1/2-y,z
1/2+x,1/2-y,-z
1/2-x,1/2+y,-z
1/2-x,1/2-y,-z
1/2+x,1/2+y,-z
1/2-x,1/2+y,z
1/2+x,1/2-y,z
loop_
_atom_site_type_symbol
_atom_site_label
_atom_site_fract_x
_atom_site_fract_y
_atom_site_fract_z
Si Si1 0.232523 0.949638 0.849515
Si Si2 0.250000 0.750000 0.342830
Si Si3 0.789248 0.370708 0.570300
Si Si4 0.114044 0.307177 0.929038
Si Si5 0.614795 0.674262 0.815347
Si Si6 0.112786 0.085817 0.744378
O O1 0.210132 0.922602 0.912368
O O2 0.140010 0.946824 0.801511
O O3 0.325353 0.925631 0.816678
O O4 0.255662 0.000000 0.867075
O O5 0.163448 0.770327 0.385823
O O6 0.308741 0.785715 0.300180
O O7 0.829320 0.365597 0.500000
O O8 0.676330 0.352503 0.576907
O O9 0.863714 0.343853 0.615150
O O10 0.000000 0.316171 0.907410
O O11 0.116519 0.289673 0.000000
O O12 0.500000 0.690199 0.812283
O O13 0.634531 0.636370 0.764164
O O14 0.000000 0.077737 0.726174
#
# Coordination Sequence:
#
# PCOD8283817 Si02
#       6
#    32  16  32  32  32  32
#     4  10  20  33  54  82 103 128 172 219 262 309
#     4  10  17  28  48  77 104 128 169 217 258 300
#     4   9  19  34  50  73 106 141 174 209 256 312
#     4   9  17  29  45  65  94 134 173 207 245 293
#     4   9  18  32  52  78 108 142 176 212 255 304
#     4   9  18  34  54  76 104 136 171 212 259 310
#
# _framework density 20.218394
#
# number of rings (size 3 to 8) (size 9 to 14) (size 15 to 20)
#    0.000    2.727    0.000    1.909    0.000    3.636 
#    0.000    0.000    0.000   20.727    0.000   62.364 
#    0.000    0.000    0.000    0.000    0.000    0.000 
#
# Total GULP energy -545493.401935 kJ/mol
# GULP energy per Si atom -12397.577317 kJ/mol
# Density = 2.017238 g / cm^3
# Si number density = 20.218394 Si / 1000 Ang^3
#
#
#
# Elastic Constant Matrix: (Units=GPa)
#
#
# Indices 1 2 3 4 5 6 
#
# 1 86.8111 38.2587 -6.5260 0.0000 0.0000 0.0000
# 2 38.2587 113.3621 18.3016 0.0000 0.0000 0.0000
# 3 -6.5260 18.3016 16.4136 0.0000 0.0000 0.0000
# 4 0.0000 0.0000 0.0000 19.3480 0.0000 0.0000
# 5 0.0000 0.0000 0.0000 0.0000 16.8963 0.0000
# 6 0.0000 0.0000 0.0000 0.0000 0.0000 21.6146
#
#
#
# Elastic Compliance Matrix: (Units=1/GPa)
#
#
# Indices 1 2 3 4 5 6 
#
# 1 0.016152 -0.007912 0.015245 0.000000 0.000000 0.000000
# 2 -0.007912 0.014634 -0.019463 0.000000 0.000000 0.000000
# 3 0.015245 -0.019463 0.088688 0.000000 0.000000 0.000000
# 4 0.000000 0.000000 0.000000 0.051685 0.000000 0.000000
# 5 0.000000 0.000000 0.000000 0.000000 0.059185 0.000000
# 6 0.000000 0.000000 0.000000 0.000000 0.000000 0.046265
#
#
# Mechanical properties :
#
#
# Convention : Reuss Voigt Hill
#
# Bulk Modulus (GPa) = 10.50282 35.18394 22.84338
# Shear Modulus (GPa) = 15.03272 22.67529 18.85400
#
# Velocity S-wave (km/s) = 2.72971 3.35254 3.05703
# Velocity P-wave (km/s) = 3.89115 5.69436 4.87682
#
# Compressibility (1/GPa) = 0.09521251
#
# Stress axis : x y z
#
# Youngs Moduli (GPa) = 61.91039 68.33467 11.27549
#
# Poissons Ratio (x) = 0.54069 -0.17189
# Poissons Ratio (y) = 0.48986 0.21946
# Poissons Ratio (z) = -0.94380 1.33000
#
# Static dielectric constant tensor:
#      x y z
#    x 3.729780 0.000000 0.000000 
#    y 0.000000 3.705640 0.000000 
#    z 0.000000 0.000000 3.466460 
# 
# 
# High freq. dielectric constant tensor:
#      x y z
#    x 1.791110 0.000000 0.000000 
#    y 0.000000 1.781490 0.000000 
#    z 0.000000 0.000000 1.773780 
# 
# From -- ./inp_files/35260.got.cif
#   From: 2010.03.12/outbox.cif.g09.slc.cpg/sg69_18_cif.got.tgz:35260.got - 2010.04.10 23:52:46.
