data_PCOD8283924
_publ_section_title
;
Structure prediction by ZEFSAII (Michael W. Deem and Ramdas Pophale) SiO2 
 PCOD8283924
Probable space group: F M M M
;
_chemical_formula_sum "Si O2"
_cell_formula_units_Z 136
_cell_length_a 14.081350
_cell_length_b 26.409473
_cell_length_c 21.918176
_cell_angle_alpha 90.000000
_cell_angle_beta 90.000000
_cell_angle_gamma 90.000000
_cell_volume 8150.953924
_symmetry_space_group_name_H-M "F M M M"
_symmetry_group_IT_number 69
_symmetry_cell_setting 'orthorhombic'
loop_
_space_group_symop_operation_xyz
x,y,z
-x,-y,z
x,-y,-z
-x,y,-z
-x,-y,-z
x,y,-z
-x,y,z
x,-y,z
x,1/2+y,1/2+z
-x,1/2-y,1/2+z
x,1/2-y,1/2-z
-x,1/2+y,1/2-z
-x,1/2-y,1/2-z
x,1/2+y,1/2-z
-x,1/2+y,1/2+z
x,1/2-y,1/2+z
1/2+x,y,1/2+z
1/2-x,-y,1/2+z
1/2+x,-y,1/2-z
1/2-x,y,1/2-z
1/2-x,-y,1/2-z
1/2+x,y,1/2-z
1/2-x,y,1/2+z
1/2+x,-y,1/2+z
1/2+x,1/2+y,z
1/2-x,1/2-y,z
1/2+x,1/2-y,-z
1/2-x,1/2+y,-z
1/2-x,1/2-y,-z
1/2+x,1/2+y,-z
1/2-x,1/2+y,z
1/2+x,1/2-y,z
loop_
_atom_site_type_symbol
_atom_site_label
_atom_site_fract_x
_atom_site_fract_y
_atom_site_fract_z
Si Si1 0.000000 0.593094 0.793238
Si Si2 0.710371 0.697720 0.680461
Si Si3 0.289199 0.000000 0.680628
Si Si4 0.500000 0.500000 0.793750
Si Si5 0.813630 0.905978 0.372982
Si Si6 0.387631 0.560020 0.500000
Si Si7 0.000000 0.798267 0.709041
O O1 0.000000 0.549936 0.745204
O O2 0.908679 0.587671 0.834831
O O3 0.000000 0.646956 0.757012
O O4 0.750000 0.691556 0.750000
O O5 0.750000 0.750000 0.652051
O O6 0.738281 0.647989 0.641320
O O7 0.597020 0.703393 0.671251
O O8 0.250000 0.000000 0.750000
O O9 0.402351 0.000000 0.669556
O O10 0.256821 0.050063 0.646502
O O11 0.839058 0.911915 0.443432
O O12 0.366066 0.500000 0.500000
O O13 0.500000 0.569630 0.500000
O O14 0.000000 0.750000 0.750000
#
# Coordination Sequence:
#
# PCOD8283924 Si02
#       7
#    16  32  16   8  32  16  16
#     4  10  20  31  53  80 112 138 174 220 269 332
#     4  10  20  33  53  80 112 145 175 215 272 330
#     4  12  22  33  53  79 115 143 174 217 271 328
#     4  12  24  32  46  82 118 148 168 208 280 344
#     4  11  21  36  54  82 109 143 178 231 268 324
#     4  11  22  36  59  82 108 140 187 227 280 317
#     4  10  18  30  47  74 109 141 176 210 254 315
#
# _framework density 16.685164
#
# number of rings (size 3 to 8) (size 9 to 14) (size 15 to 20)
#    0.000    1.294    7.059    0.706    3.294    0.000 
#    0.000    0.588    0.000    1.412    0.000    0.000 
#    0.000    0.000    0.000    0.000    0.000    0.000 
#
# Total GULP energy -421221.569545 kJ/mol
# GULP energy per Si atom -12388.869692 kJ/mol
# Density = 1.664719 g / cm^3
# Si number density = 16.685164 Si / 1000 Ang^3
#
#
#
# Elastic Constant Matrix: (Units=GPa)
#
#
# Indices 1 2 3 4 5 6 
#
# 1 114.4125 56.8959 30.6725 0.0000 0.0000 0.0000
# 2 56.8959 190.3257 58.6592 0.0000 0.0000 0.0000
# 3 30.6725 58.6592 83.6949 0.0000 0.0000 0.0000
# 4 0.0000 0.0000 0.0000 20.1389 0.0000 0.0000
# 5 0.0000 0.0000 0.0000 0.0000 20.3883 0.0000
# 6 0.0000 0.0000 0.0000 0.0000 0.0000 29.7293
#
#
#
# Elastic Compliance Matrix: (Units=1/GPa)
#
#
# Indices 1 2 3 4 5 6 
#
# 1 0.010551 -0.002503 -0.002113 0.000000 0.000000 0.000000
# 2 -0.002503 0.007296 -0.004196 0.000000 0.000000 0.000000
# 3 -0.002113 -0.004196 0.015663 0.000000 0.000000 0.000000
# 4 0.000000 0.000000 0.000000 0.049655 0.000000 0.000000
# 5 0.000000 0.000000 0.000000 0.000000 0.049048 0.000000
# 6 0.000000 0.000000 0.000000 0.000000 0.000000 0.033637
#
#
# Mechanical properties :
#
#
# Convention : Reuss Voigt Hill
#
# Bulk Modulus (GPa) = 62.94441 75.65425 69.29933
# Shear Modulus (GPa) = 26.48741 30.19834 28.34287
#
# Velocity S-wave (km/s) = 3.98865 4.25890 4.12598
# Velocity P-wave (km/s) = 7.68239 8.34416 8.02010
#
# Compressibility (1/GPa) = 0.01588703
#
# Stress axis : x y z
#
# Youngs Moduli (GPa) = 94.77395 137.06803 63.84410
#
# Poissons Ratio (x) = 0.34310 0.13487
# Poissons Ratio (y) = 0.23723 0.26789
# Poissons Ratio (z) = 0.20021 0.57513
#
# Static dielectric constant tensor:
#      x y z
#    x 3.136570 0.000000 0.000000 
#    y 0.000000 3.686200 0.000000 
#    z 0.000000 0.000000 2.832710 
# 
# 
# High freq. dielectric constant tensor:
#      x y z
#    x 1.649790 0.000000 0.000000 
#    y 0.000000 1.671920 0.000000 
#    z 0.000000 0.000000 1.589860 
# 
# From -- ./inp_files/16767.got.cif
#   From: 2010.03.12/outbox.cif.g09.slc.cpg/sg69_9_cif.got.tgz:16767.got - 2010.04.10 23:52:46.
