data_PCOD8283411
_publ_section_title
;
Structure prediction by ZEFSAII (Michael W. Deem and Ramdas Pophale) SiO2 
 PCOD8283411
Probable space group: C C C A
;
_chemical_formula_sum "Si O2"
_cell_formula_units_Z 72
_cell_length_a 12.687748
_cell_length_b 16.373937
_cell_length_c 16.334298
_cell_angle_alpha 90.000000
_cell_angle_beta 90.000000
_cell_angle_gamma 90.000000
_cell_volume 3393.424053
_symmetry_space_group_name_H-M "C C C A"
_symmetry_group_IT_number 68
_space_group.IT_coordinate_system_code '2'
_symmetry_cell_setting 'orthorhombic'
loop_
_space_group_symop_operation_xyz
x,y,z
-x,1/2-y,z
x,1/2-y,1/2-z
-x,y,1/2-z
-x,-y,-z
x,1/2+y,-z
-x,1/2+y,1/2+z
x,-y,1/2+z
1/2+x,1/2+y,z
1/2-x,-y,z
1/2+x,-y,1/2-z
1/2-x,1/2+y,1/2-z
1/2-x,1/2-y,-z
1/2+x,y,-z
1/2-x,y,1/2+z
1/2+x,1/2-y,1/2+z
loop_
_atom_site_type_symbol
_atom_site_label
_atom_site_fract_x
_atom_site_fract_y
_atom_site_fract_z
Si Si1 0.022402 0.900561 0.844747
Si Si2 0.750000 0.500000 0.183870
Si Si3 0.306432 0.350684 0.918196
Si Si4 0.410463 0.435291 0.198397
Si Si5 0.255083 0.168581 0.897684
O O1 0.129690 0.861543 0.876540
O O2 0.000000 0.877651 0.750000
O O3 0.930809 0.861400 0.901088
O O4 0.032953 0.999041 0.862282
O O5 0.757320 0.580278 0.129140
O O6 0.647571 0.500382 0.241212
O O7 0.257557 0.265709 0.886870
O O8 0.282868 0.360048 0.013686
O O9 0.500000 0.386924 0.250000
O O10 0.331336 0.369466 0.162824
#
# Coordination Sequence:
#
# PCOD8283411 Si02
#       5
#    16   8  16  16  16
#     4  11  21  44  73  98 129 184 242 278 326 422
#     4  12  22  42  66 100 134 176 226 286 332 412
#     4  11  26  42  67 101 137 177 229 278 352 411
#     4  11  22  42  68 101 134 176 236 281 346 409
#     4  11  25  44  67 103 140 177 223 296 346 408
#
# _framework density 21.217507000000001
#
# number of rings (size 3 to 8) (size 9 to 14) (size 15 to 20)
#    0.000    0.889    6.667    0.667    3.111    7.111 
#    0.000    4.444    0.000    0.000    0.000    0.000 
#    0.000    0.000    0.000    0.000    0.000    0.000 
#
# Total GULP energy -446219.206162 kJ/mol
# GULP energy per Si atom -12394.977949 kJ/mol
# Density = 2.116921 g / cm^3
# Si number density = 21.217507 Si / 1000 Ang^3
#
#
#
# Elastic Constant Matrix: (Units=GPa)
#
#
# Indices 1 2 3 4 5 6 
#
# 1 128.4123 41.8137 82.4732 0.0000 0.0000 0.0000
# 2 41.8137 117.1404 70.6989 0.0000 0.0000 0.0000
# 3 82.4732 70.6989 111.1692 0.0000 0.0000 0.0000
# 4 0.0000 0.0000 0.0000 25.2569 0.0000 0.0000
# 5 0.0000 0.0000 0.0000 0.0000 40.3312 0.0000
# 6 0.0000 0.0000 0.0000 0.0000 0.0000 20.2281
#
#
#
# Elastic Compliance Matrix: (Units=1/GPa)
#
#
# Indices 1 2 3 4 5 6 
#
# 1 0.015230 0.002244 -0.012726 0.000000 0.000000 0.000000
# 2 0.002244 0.014185 -0.010686 0.000000 0.000000 0.000000
# 3 -0.012726 -0.010686 0.025232 0.000000 0.000000 0.000000
# 4 0.000000 0.000000 0.000000 0.039593 0.000000 0.000000
# 5 0.000000 0.000000 0.000000 0.000000 0.024795 0.000000
# 6 0.000000 0.000000 0.000000 0.000000 0.000000 0.049436
#
#
# Mechanical properties :
#
#
# Convention : Reuss Voigt Hill
#
# Bulk Modulus (GPa) = 81.22323 82.96595 82.09459
# Shear Modulus (GPa) = 23.26554 27.94566 25.60560
#
# Velocity S-wave (km/s) = 3.31498 3.63313 3.47769
# Velocity P-wave (km/s) = 7.28124 7.53571 7.40957
#
# Compressibility (1/GPa) = 0.01231175
#
# Stress axis : x y z
#
# Youngs Moduli (GPa) = 65.66053 70.49629 39.63213
#
# Poissons Ratio (x) = -0.15820 0.50435
# Poissons Ratio (y) = -0.14735 0.42351
# Poissons Ratio (z) = 0.83558 0.75333
#
# Static dielectric constant tensor:
#      x y z
#    x 4.076840 0.000000 0.000000 
#    y 0.000000 3.807760 0.000000 
#    z 0.000000 0.000000 3.919910 
# 
# 
# High freq. dielectric constant tensor:
#      x y z
#    x 1.855770 0.000000 0.000000 
#    y 0.000000 1.832180 0.000000 
#    z 0.000000 0.000000 1.821740 
# 
# From -- ./inp_files/21988.got.cif
#   From: 2010.03.12/outbox.cif.g09.slc.cpg/sg68_11_cif.got.tgz:21988.got - 2010.04.10 23:14:56.
