data_PCOD8283180
_publ_section_title
;
Structure prediction by ZEFSAII (Michael W. Deem and Ramdas Pophale) SiO2 
 PCOD8283180
Probable space group: C C C A
;
_chemical_formula_sum "Si O2"
_cell_formula_units_Z 88
_cell_length_a 28.315700
_cell_length_b 30.011756
_cell_length_c 4.956331
_cell_angle_alpha 90.000000
_cell_angle_beta 90.000000
_cell_angle_gamma 90.000000
_cell_volume 4211.909311
_symmetry_space_group_name_H-M "C C C A"
_symmetry_group_IT_number 68
_space_group.IT_coordinate_system_code '2'
_symmetry_cell_setting 'orthorhombic'
loop_
_space_group_symop_operation_xyz
x,y,z
-x,1/2-y,z
x,1/2-y,1/2-z
-x,y,1/2-z
-x,-y,-z
x,1/2+y,-z
-x,1/2+y,1/2+z
x,-y,1/2+z
1/2+x,1/2+y,z
1/2-x,-y,z
1/2+x,-y,1/2-z
1/2-x,1/2+y,1/2-z
1/2-x,1/2-y,-z
1/2+x,y,-z
1/2-x,y,1/2+z
1/2+x,1/2-y,1/2+z
loop_
_atom_site_type_symbol
_atom_site_label
_atom_site_fract_x
_atom_site_fract_y
_atom_site_fract_z
Si Si1 0.098171 0.665008 0.823974
Si Si2 0.500000 0.867098 0.250000
Si Si3 0.153435 0.750000 0.750000
Si Si4 0.101214 0.528439 0.234765
Si Si5 0.359864 0.121347 0.171344
Si Si6 0.000000 0.928838 0.250000
Si Si7 0.218274 0.687625 0.416295
O O1 0.041891 0.664665 0.860136
O O2 0.119342 0.713553 0.882798
O O3 0.103894 0.646703 0.521972
O O4 0.126039 0.632490 0.023074
O O5 0.486417 0.898960 0.495065
O O6 0.183934 0.727845 0.508119
O O7 0.112768 0.487566 0.433569
O O8 0.135534 0.568130 0.338099
O O9 0.046048 0.540848 0.216145
O O10 0.308073 0.139615 0.079762
O O11 0.263957 0.691556 0.608818
#
# Coordination Sequence:
#
# PCOD8283180 Si02
#       7
#    16   8   8  16  16   8  16
#     4  11  22  39  60  87 124 174 205 249 302 360
#     4  12  20  38  62  80 129 174 211 244 290 368
#     4  10  24  39  64  96 128 156 212 265 310 372
#     4  12  23  38  62  92 124 160 203 258 308 360
#     4  11  23  42  61  88 126 162 202 250 319 381
#     4  12  22  39  58  93 121 162 215 253 302 353
#     4  11  23  41  67  94 122 157 201 261 324 377
#
# _framework density 20.893135999999998
#
# number of rings (size 3 to 8) (size 9 to 14) (size 15 to 20)
#    0.000    0.727    3.636    5.455    0.000    6.182 
#    0.000    0.000    0.000    8.727    0.000    0.000 
#    0.000    0.000    0.000    0.000    0.000    0.000 
#
# Total GULP energy -545378.308310 kJ/mol
# GULP energy per Si atom -12394.961553 kJ/mol
# Density = 2.084558 g / cm^3
# Si number density = 20.893136 Si / 1000 Ang^3
#
#
#
# Elastic Constant Matrix: (Units=GPa)
#
#
# Indices 1 2 3 4 5 6 
#
# 1 75.1337 50.8692 11.9896 0.0000 0.0000 0.0000
# 2 50.8692 118.8355 18.9796 0.0000 0.0000 0.0000
# 3 11.9896 18.9796 76.1946 0.0000 0.0000 0.0000
# 4 0.0000 0.0000 0.0000 35.4534 0.0000 0.0000
# 5 0.0000 0.0000 0.0000 0.0000 22.5564 0.0000
# 6 0.0000 0.0000 0.0000 0.0000 0.0000 49.7804
#
#
#
# Elastic Compliance Matrix: (Units=1/GPa)
#
#
# Indices 1 2 3 4 5 6 
#
# 1 0.018813 -0.007894 -0.000994 0.000000 0.000000 0.000000
# 2 -0.007894 0.012076 -0.001766 0.000000 0.000000 0.000000
# 3 -0.000994 -0.001766 0.013721 0.000000 0.000000 0.000000
# 4 0.000000 0.000000 0.000000 0.028206 0.000000 0.000000
# 5 0.000000 0.000000 0.000000 0.000000 0.044333 0.000000
# 6 0.000000 0.000000 0.000000 0.000000 0.000000 0.020088
#
#
# Mechanical properties :
#
#
# Convention : Reuss Voigt Hill
#
# Bulk Modulus (GPa) = 42.91566 48.20452 45.56009
# Shear Modulus (GPa) = 30.06371 34.11306 32.08838
#
# Velocity S-wave (km/s) = 3.79744 4.04510 3.92322
# Velocity P-wave (km/s) = 6.30971 6.70367 6.50967
#
# Compressibility (1/GPa) = 0.02330152
#
# Stress axis : x y z
#
# Youngs Moduli (GPa) = 53.15427 82.80632 72.88337
#
# Poissons Ratio (x) = 0.65371 0.07244
# Poissons Ratio (y) = 0.41963 0.12871
# Poissons Ratio (z) = 0.05283 0.14623
#
# Static dielectric constant tensor:
#      x y z
#    x 3.822410 0.000000 0.000000 
#    y 0.000000 3.872720 0.000000 
#    z 0.000000 0.000000 3.856690 
# 
# 
# High freq. dielectric constant tensor:
#      x y z
#    x 1.803670 0.000000 0.000000 
#    y 0.000000 1.809150 0.000000 
#    z 0.000000 0.000000 1.836540 
# 
# From -- ./inp_files/2791.got.cif
#   From: 2010.03.12/outbox.cif.g09.slc.cpg/sg68_2_cif.got.tgz:2791.got - 2010.04.10 23:14:56.
