data_PCOD8283090
_publ_section_title
;
Structure prediction by ZEFSAII (Michael W. Deem and Ramdas Pophale) SiO2 
 PCOD8283090
Probable space group: C C C A
;
_chemical_formula_sum "Si O2"
_cell_formula_units_Z 80
_cell_length_a 20.652366
_cell_length_b 12.865310
_cell_length_c 14.288540
_cell_angle_alpha 90.000000
_cell_angle_beta 90.000000
_cell_angle_gamma 90.000000
_cell_volume 3796.452087
_symmetry_space_group_name_H-M "C C C A"
_symmetry_group_IT_number 68
_space_group.IT_coordinate_system_code '2'
_symmetry_cell_setting 'orthorhombic'
loop_
_space_group_symop_operation_xyz
x,y,z
-x,1/2-y,z
x,1/2-y,1/2-z
-x,y,1/2-z
-x,-y,-z
x,1/2+y,-z
-x,1/2+y,1/2+z
x,-y,1/2+z
1/2+x,1/2+y,z
1/2-x,-y,z
1/2+x,-y,1/2-z
1/2-x,1/2+y,1/2-z
1/2-x,1/2-y,-z
1/2+x,y,-z
1/2-x,y,1/2+z
1/2+x,1/2-y,1/2+z
loop_
_atom_site_type_symbol
_atom_site_label
_atom_site_fract_x
_atom_site_fract_y
_atom_site_fract_z
Si Si1 0.500000 0.750000 0.487582
Si Si2 0.084708 0.877224 0.387338
Si Si3 0.350897 0.026982 0.554523
Si Si4 0.011603 0.560868 0.855823
Si Si5 0.267429 0.663806 0.924098
Si Si6 0.161093 0.750000 0.250000
O O1 0.438902 0.723909 0.554027
O O2 0.517146 0.650016 0.423630
O O3 0.138428 0.935411 0.448424
O O4 0.114931 0.842441 0.288409
O O5 0.024414 0.952537 0.371239
O O6 0.413584 0.038795 0.620520
O O7 0.295711 0.097196 0.601652
O O8 0.326557 0.909159 0.542308
O O9 0.000000 0.599176 0.750000
O O10 0.290700 0.716628 0.830212
O O11 0.250000 0.750000 0.000000
#
# Coordination Sequence:
#
# PCOD8283090 Si02
#       6
#     8  16  16  16  16   8
#     4  10  23  41  66  96 142 178 212 270 362 402
#     4  11  25  41  72 101 134 178 225 287 342 414
#     4  10  23  46  67  94 138 179 222 286 339 409
#     4  11  24  43  67 108 133 177 224 286 349 409
#     4  11  24  47  68  95 135 181 233 280 340 403
#     4  12  26  45  70 106 131 184 238 278 342 414
#
# _framework density 21.072306999999999
#
# number of rings (size 3 to 8) (size 9 to 14) (size 15 to 20)
#    0.000    1.200    2.000    3.900    8.400    0.000 
#   18.000    0.000    0.000    0.000    0.000    0.000 
#    0.000    0.000    0.000    0.000    0.000    0.000 
#
# Total GULP energy -496037.549284 kJ/mol
# GULP energy per Si atom -12400.938732 kJ/mol
# Density = 2.102435 g / cm^3
# Si number density = 21.072307 Si / 1000 Ang^3
#
#
#
# Elastic Constant Matrix: (Units=GPa)
#
#
# Indices 1 2 3 4 5 6 
#
# 1 117.4645 63.6173 55.8438 0.0000 0.0000 0.0000
# 2 63.6173 127.5247 64.1352 0.0000 0.0000 0.0000
# 3 55.8438 64.1352 149.5492 0.0000 0.0000 0.0000
# 4 0.0000 0.0000 0.0000 35.6239 0.0000 0.0000
# 5 0.0000 0.0000 0.0000 0.0000 37.7831 0.0000
# 6 0.0000 0.0000 0.0000 0.0000 0.0000 30.6436
#
#
#
# Elastic Compliance Matrix: (Units=1/GPa)
#
#
# Indices 1 2 3 4 5 6 
#
# 1 0.012364 -0.004904 -0.002514 0.000000 0.000000 0.000000
# 2 -0.004904 0.011943 -0.003291 0.000000 0.000000 0.000000
# 3 -0.002514 -0.003291 0.009037 0.000000 0.000000 0.000000
# 4 0.000000 0.000000 0.000000 0.028071 0.000000 0.000000
# 5 0.000000 0.000000 0.000000 0.000000 0.026467 0.000000
# 6 0.000000 0.000000 0.000000 0.000000 0.000000 0.032633
#
#
# Mechanical properties :
#
#
# Convention : Reuss Voigt Hill
#
# Bulk Modulus (GPa) = 83.84272 84.63678 84.23975
# Shear Modulus (GPa) = 34.26836 34.87293 34.57064
#
# Velocity S-wave (km/s) = 4.03703 4.07248 4.05479
# Velocity P-wave (km/s) = 7.84886 7.89719 7.87306
#
# Compressibility (1/GPa) = 0.01192709
#
# Stress axis : x y z
#
# Youngs Moduli (GPa) = 80.87904 83.73229 110.65939
#
# Poissons Ratio (x) = 0.41060 0.27820
# Poissons Ratio (y) = 0.39660 0.36414
# Poissons Ratio (z) = 0.20333 0.27553
#
# Static dielectric constant tensor:
#      x y z
#    x 3.866340 0.000000 0.000000 
#    y 0.000000 4.039580 0.000000 
#    z 0.000000 0.000000 -99.929590 
# 
# 
# High freq. dielectric constant tensor:
#      x y z
#    x 1.831970 0.000000 0.000000 
#    y 0.000000 1.839500 0.000000 
#    z 0.000000 0.000000 1.825680 
# 
# From -- ./inp_files/25215.got.cif
#   From: 2010.03.12/outbox.cif.g09.slc.cpg/sg68_13_cif.got.tgz:25215.got - 2010.04.10 23:14:56.
