data_PCOD8283299
_publ_section_title
;
Structure prediction by ZEFSAII (Michael W. Deem and Ramdas Pophale) SiO2 
 PCOD8283299
Probable space group: C C C A
;
_chemical_formula_sum "Si O2"
_cell_formula_units_Z 96
_cell_length_a 9.862836
_cell_length_b 18.898551
_cell_length_c 20.910974
_cell_angle_alpha 90.000000
_cell_angle_beta 90.000000
_cell_angle_gamma 90.000000
_cell_volume 3897.665641
_symmetry_space_group_name_H-M "C C C A"
_symmetry_group_IT_number 68
_space_group.IT_coordinate_system_code '2'
_symmetry_cell_setting 'orthorhombic'
loop_
_space_group_symop_operation_xyz
x,y,z
-x,1/2-y,z
x,1/2-y,1/2-z
-x,y,1/2-z
-x,-y,-z
x,1/2+y,-z
-x,1/2+y,1/2+z
x,-y,1/2+z
1/2+x,1/2+y,z
1/2-x,-y,z
1/2+x,-y,1/2-z
1/2-x,1/2+y,1/2-z
1/2-x,1/2-y,-z
1/2+x,y,-z
1/2-x,y,1/2+z
1/2+x,1/2-y,1/2+z
loop_
_atom_site_type_symbol
_atom_site_label
_atom_site_fract_x
_atom_site_fract_y
_atom_site_fract_z
Si Si1 0.869778 0.297701 0.581955
Si Si2 0.233079 0.707047 0.193043
Si Si3 0.000000 0.354232 0.250000
Si Si4 0.983317 0.561756 0.628893
Si Si5 0.070767 0.095645 0.874987
Si Si6 0.750000 0.000000 0.948526
Si Si7 0.308903 0.383193 0.534368
O O1 0.764299 0.254599 0.627437
O O2 0.809670 0.314088 0.511435
O O3 0.000000 0.250000 0.572609
O O4 0.920794 0.370677 0.615976
O O5 0.157679 0.750000 0.250000
O O6 0.385005 0.693392 0.217307
O O7 0.151761 0.633943 0.182765
O O8 0.062181 0.404684 0.304363
O O9 0.059772 0.487254 0.640412
O O10 0.083260 0.617336 0.592543
O O11 0.843340 0.552927 0.591586
O O12 0.156003 0.108932 0.939946
O O13 0.652219 0.951874 0.992202
#
# Coordination Sequence:
#
# PCOD8283299 Si02
#       7
#    16  16   8  16  16   8  16
#     4  10  25  45  73 111 150 205 253 310 380 460
#     4  11  27  51  70  99 151 202 259 307 374 464
#     4  12  29  50  72 104 153 204 254 322 386 446
#     4  12  26  46  75 114 149 197 250 328 390 463
#     4  11  23  47  76 110 148 195 253 322 389 450
#     4  12  24  40  76 112 154 188 246 314 398 460
#     4  12  22  46  77 113 157 193 252 320 393 455
#
# _framework density 24.630127000000002
#
# number of rings (size 3 to 8) (size 9 to 14) (size 15 to 20)
#    0.000    0.667    5.000    1.750    2.333    8.333 
#    3.000    0.000    0.000    0.000    0.000    0.000 
#    0.000    0.000    0.000    0.000    0.000    0.000 
#
# Total GULP energy -595176.151008 kJ/mol
# GULP energy per Si atom -12399.503146 kJ/mol
# Density = 2.457407 g / cm^3
# Si number density = 24.630127 Si / 1000 Ang^3
#
#
#
# Elastic Constant Matrix: (Units=GPa)
#
#
# Indices 1 2 3 4 5 6 
#
# 1 107.9327 33.4418 40.6677 0.0000 0.0000 0.0000
# 2 33.4418 109.1803 68.4037 0.0000 0.0000 0.0000
# 3 40.6677 68.4037 147.4423 0.0000 0.0000 0.0000
# 4 0.0000 0.0000 0.0000 56.6875 0.0000 0.0000
# 5 0.0000 0.0000 0.0000 0.0000 34.7376 0.0000
# 6 0.0000 0.0000 0.0000 0.0000 0.0000 21.0531
#
#
#
# Elastic Compliance Matrix: (Units=1/GPa)
#
#
# Indices 1 2 3 4 5 6 
#
# 1 0.010641 -0.002003 -0.002006 0.000000 0.000000 0.000000
# 2 -0.002003 0.013289 -0.005613 0.000000 0.000000 0.000000
# 3 -0.002006 -0.005613 0.009940 0.000000 0.000000 0.000000
# 4 0.000000 0.000000 0.000000 0.017641 0.000000 0.000000
# 5 0.000000 0.000000 0.000000 0.000000 0.028787 0.000000
# 6 0.000000 0.000000 0.000000 0.000000 0.000000 0.047499
#
#
# Mechanical properties :
#
#
# Convention : Reuss Voigt Hill
#
# Bulk Modulus (GPa) = 68.36665 72.17574 70.27119
# Shear Modulus (GPa) = 32.91296 37.29844 35.10570
#
# Velocity S-wave (km/s) = 3.65949 3.89568 3.77943
# Velocity P-wave (km/s) = 6.75821 7.04291 6.90203
#
# Compressibility (1/GPa) = 0.01462702
#
# Stress axis : x y z
#
# Youngs Moduli (GPa) = 93.97283 75.24908 100.60692
#
# Poissons Ratio (x) = 0.15070 0.20182
# Poissons Ratio (y) = 0.18819 0.56470
# Poissons Ratio (z) = 0.18851 0.42237
#
# Static dielectric constant tensor:
#      x y z
#    x 4.180960 0.000000 0.000000 
#    y 0.000000 4.866090 0.000000 
#    z 0.000000 0.000000 4.717720 
# 
# 
# High freq. dielectric constant tensor:
#      x y z
#    x 1.966590 0.000000 0.000000 
#    y 0.000000 1.994260 0.000000 
#    z 0.000000 0.000000 1.980320 
# 
# From -- ./inp_files/37697.got.cif
#   From: 2010.03.12/outbox.cif.g09.slc.cpg/sg68_19_cif.got.tgz:37697.got - 2010.04.10 23:14:56.
