data_PCOD8283478
_publ_section_title
;
Structure prediction by ZEFSAII (Michael W. Deem and Ramdas Pophale) SiO2 
 PCOD8283478
Probable space group: C C C A
;
_chemical_formula_sum "Si O2"
_cell_formula_units_Z 64
_cell_length_a 28.123391
_cell_length_b 12.309588
_cell_length_c 7.889072
_cell_angle_alpha 90.000000
_cell_angle_beta 90.000000
_cell_angle_gamma 90.000000
_cell_volume 2731.096980
_symmetry_space_group_name_H-M "C C C A"
_symmetry_group_IT_number 68
_space_group.IT_coordinate_system_code '2'
_symmetry_cell_setting 'orthorhombic'
loop_
_space_group_symop_operation_xyz
x,y,z
-x,1/2-y,z
x,1/2-y,1/2-z
-x,y,1/2-z
-x,-y,-z
x,1/2+y,-z
-x,1/2+y,1/2+z
x,-y,1/2+z
1/2+x,1/2+y,z
1/2-x,-y,z
1/2+x,-y,1/2-z
1/2-x,1/2+y,1/2-z
1/2-x,1/2-y,-z
1/2+x,y,-z
1/2-x,y,1/2+z
1/2+x,1/2-y,1/2+z
loop_
_atom_site_type_symbol
_atom_site_label
_atom_site_fract_x
_atom_site_fract_y
_atom_site_fract_z
Si Si1 0.208965 0.139254 0.832037
Si Si2 0.810433 0.908518 0.781714
Si Si3 0.463965 0.444049 0.375652
Si Si4 0.086613 0.862379 0.822042
O O1 0.189067 0.250000 0.750000
O O2 0.266431 0.137804 0.827555
O O3 0.188938 0.039509 0.721024
O O4 0.191676 0.130086 0.024513
O O5 0.856625 0.860594 0.691423
O O6 0.500000 0.378579 0.250000
O O7 0.500000 0.500000 0.500000
O O8 0.428147 0.366821 0.479286
O O9 0.433315 0.534848 0.279023
O O10 0.065404 0.750000 0.750000
#
# Coordination Sequence:
#
# PCOD8283478 Si02
#       4
#    16  16  16  16
#     4  11  23  40  62  89 134 186 225 276 333 383
#     4  11  23  39  61  96 131 175 233 276 320 396
#     4   9  21  42  65  95 127 159 211 268 328 409
#     4  11  23  42  68  96 131 172 215 276 335 390
#
# _framework density 23.433809
#
# number of rings (size 3 to 8) (size 9 to 14) (size 15 to 20)
#    0.000    1.500    0.000    6.000    0.000    8.500 
#    0.000    8.750    0.000    0.000    0.000    0.000 
#    0.000    0.000    0.000    0.000    0.000    0.000 
#
# Total GULP energy -396714.821137 kJ/mol
# GULP energy per Si atom -12397.338161 kJ/mol
# Density = 2.338047 g / cm^3
# Si number density = 23.433809 Si / 1000 Ang^3
#
#
#
# Elastic Constant Matrix: (Units=GPa)
#
#
# Indices 1 2 3 4 5 6 
#
# 1 115.8259 30.2032 80.9730 0.0000 0.0000 0.0000
# 2 30.2032 134.9856 54.6032 0.0000 0.0000 0.0000
# 3 80.9730 54.6032 161.4628 0.0000 0.0000 0.0000
# 4 0.0000 0.0000 0.0000 38.3868 0.0000 0.0000
# 5 0.0000 0.0000 0.0000 0.0000 44.8370 0.0000
# 6 0.0000 0.0000 0.0000 0.0000 0.0000 2.7067
#
#
#
# Elastic Compliance Matrix: (Units=1/GPa)
#
#
# Indices 1 2 3 4 5 6 
#
# 1 0.013307 -0.000322 -0.006564 0.000000 0.000000 0.000000
# 2 -0.000322 0.008590 -0.002743 0.000000 0.000000 0.000000
# 3 -0.006564 -0.002743 0.010413 0.000000 0.000000 0.000000
# 4 0.000000 0.000000 0.000000 0.026051 0.000000 0.000000
# 5 0.000000 0.000000 0.000000 0.000000 0.022303 0.000000
# 6 0.000000 0.000000 0.000000 0.000000 0.000000 0.369452
#
#
# Mechanical properties :
#
#
# Convention : Reuss Voigt Hill
#
# Bulk Modulus (GPa) = 76.62730 82.64812 79.63771
# Shear Modulus (GPa) = 10.55465 33.61910 22.08687
#
# Velocity S-wave (km/s) = 2.12457 3.79177 3.07338
# Velocity P-wave (km/s) = 6.22807 7.38345 6.83024
#
# Compressibility (1/GPa) = 0.01305018
#
# Stress axis : x y z
#
# Youngs Moduli (GPa) = 75.14995 116.41433 96.03237
#
# Poissons Ratio (x) = 0.03749 0.63039
# Poissons Ratio (y) = 0.02420 0.26346
# Poissons Ratio (z) = 0.49331 0.31938
#
# Static dielectric constant tensor:
#      x y z
#    x 4.936120 0.000000 0.000000 
#    y 0.000000 4.270200 0.000000 
#    z 0.000000 0.000000 4.950190 
# 
# 
# High freq. dielectric constant tensor:
#      x y z
#    x 1.926990 0.000000 0.000000 
#    y 0.000000 1.920530 0.000000 
#    z 0.000000 0.000000 1.936800 
# 
# From -- ./inp_files/9344.got.cif
#   From: 2010.03.12/outbox.cif.g09.slc.cpg/sg68_5_cif.got.tgz:9344.got - 2010.04.10 23:14:56.
