data_PCOD8283114
_publ_section_title
;
Structure prediction by ZEFSAII (Michael W. Deem and Ramdas Pophale) SiO2 
 PCOD8283114
Probable space group: C C C A
;
_chemical_formula_sum "Si O2"
_cell_formula_units_Z 112
_cell_length_a 13.564398
_cell_length_b 15.150078
_cell_length_c 23.177920
_cell_angle_alpha 90.000000
_cell_angle_beta 90.000000
_cell_angle_gamma 90.000000
_cell_volume 4763.101678
_symmetry_space_group_name_H-M "C C C A"
_symmetry_group_IT_number 68
_space_group.IT_coordinate_system_code '2'
_symmetry_cell_setting 'orthorhombic'
loop_
_space_group_symop_operation_xyz
x,y,z
-x,1/2-y,z
x,1/2-y,1/2-z
-x,y,1/2-z
-x,-y,-z
x,1/2+y,-z
-x,1/2+y,1/2+z
x,-y,1/2+z
1/2+x,1/2+y,z
1/2-x,-y,z
1/2+x,-y,1/2-z
1/2-x,1/2+y,1/2-z
1/2-x,1/2-y,-z
1/2+x,y,-z
1/2-x,y,1/2+z
1/2+x,1/2-y,1/2+z
loop_
_atom_site_type_symbol
_atom_site_label
_atom_site_fract_x
_atom_site_fract_y
_atom_site_fract_z
Si Si1 0.394647 0.706896 0.808157
Si Si2 0.403999 0.133157 0.780435
Si Si3 0.074507 0.177847 0.041056
Si Si4 0.358456 0.989627 0.685322
Si Si5 0.311199 0.916376 0.944167
Si Si6 0.287221 0.227031 0.868388
Si Si7 0.473654 0.533863 0.107640
O O1 0.500000 0.750000 0.826164
O O2 0.355705 0.750000 0.750000
O O3 0.396924 0.603960 0.791053
O O4 0.315814 0.721224 0.859685
O O5 0.500000 0.175691 0.750000
O O6 0.330222 0.209678 0.803206
O O7 0.423790 0.083229 0.839701
O O8 0.361484 0.062185 0.735962
O O9 0.132716 0.214378 0.097338
O O10 0.000000 0.250000 0.014440
O O11 0.998036 0.099424 0.055298
O O12 0.156534 0.148726 0.995201
O O13 0.250000 0.000000 0.660667
O O14 0.420253 0.002632 0.627931
O O15 0.237220 0.863898 0.901869
O O16 0.250000 0.000000 0.968401
O O17 0.408364 0.950445 0.911276
#
# Coordination Sequence:
#
# PCOD8283114 Si02
#       7
#    16  16  16  16  16  16  16
#     4  11  26  41  66 105 149 186 233 293 361 436
#     4  10  23  42  76 103 141 191 240 283 357 451
#     4  12  26  48  70 106 143 182 248 321 365 417
#     4  11  24  42  69 106 143 188 233 287 351 449
#     4  12  26  45  77 104 137 198 247 295 366 446
#     4  12  25  47  73 105 147 191 238 305 371 428
#     4  11  24  45  72  99 139 189 236 293 359 431
#
# _framework density 23.514088999999998
#
# number of rings (size 3 to 8) (size 9 to 14) (size 15 to 20)
#    0.000    0.714    2.857    3.429   10.000    4.571 
#    0.000    2.143    0.000    0.000    0.000    0.000 
#    0.000    0.000    0.000    0.000    0.000    0.000 
#
# Total GULP energy -694164.020664 kJ/mol
# GULP energy per Si atom -12395.786083 kJ/mol
# Density = 2.346057 g / cm^3
# Si number density = 23.514089 Si / 1000 Ang^3
#
#
#
# Elastic Constant Matrix: (Units=GPa)
#
#
# Indices 1 2 3 4 5 6 
#
# 1 142.7947 32.6673 40.7022 0.0000 0.0000 0.0000
# 2 32.6673 97.0005 32.6938 0.0000 0.0000 0.0000
# 3 40.7022 32.6938 85.7699 0.0000 0.0000 0.0000
# 4 0.0000 0.0000 0.0000 17.8837 0.0000 0.0000
# 5 0.0000 0.0000 0.0000 0.0000 49.0421 0.0000
# 6 0.0000 0.0000 0.0000 0.0000 0.0000 41.8634
#
#
#
# Elastic Compliance Matrix: (Units=1/GPa)
#
#
# Indices 1 2 3 4 5 6 
#
# 1 0.008333 -0.001691 -0.003310 0.000000 0.000000 0.000000
# 2 -0.001691 0.012172 -0.003837 0.000000 0.000000 0.000000
# 3 -0.003310 -0.003837 0.014693 0.000000 0.000000 0.000000
# 4 0.000000 0.000000 0.000000 0.055917 0.000000 0.000000
# 5 0.000000 0.000000 0.000000 0.000000 0.020391 0.000000
# 6 0.000000 0.000000 0.000000 0.000000 0.000000 0.023887
#
#
# Mechanical properties :
#
#
# Convention : Reuss Voigt Hill
#
# Bulk Modulus (GPa) = 57.07276 59.74351 58.40814
# Shear Modulus (GPa) = 31.46442 36.39131 33.92787
#
# Velocity S-wave (km/s) = 3.66199 3.93827 3.80264
# Velocity P-wave (km/s) = 6.49651 6.79284 6.64633
#
# Compressibility (1/GPa) = 0.01752149
#
# Stress axis : x y z
#
# Youngs Moduli (GPa) = 119.99928 82.15565 68.06127
#
# Poissons Ratio (x) = 0.13891 0.22529
# Poissons Ratio (y) = 0.20290 0.26118
# Poissons Ratio (z) = 0.39721 0.31526
#
# Static dielectric constant tensor:
#      x y z
#    x 4.457850 0.000000 0.000000 
#    y 0.000000 4.697620 0.000000 
#    z 0.000000 0.000000 4.243150 
# 
# 
# High freq. dielectric constant tensor:
#      x y z
#    x 1.952740 0.000000 0.000000 
#    y 0.000000 1.942640 0.000000 
#    z 0.000000 0.000000 1.913760 
# 
# From -- ./inp_files/45527.got.cif
#   From: 2010.03.12/outbox.cif.g09.slc.cpg/sg68_23_cif.got.tgz:45527.got - 2010.04.10 23:14:56.
