data_PCOD8283433
_publ_section_title
;
Structure prediction by ZEFSAII (Michael W. Deem and Ramdas Pophale) SiO2 
 PCOD8283433
Probable space group: C C C A
;
_chemical_formula_sum "Si O2"
_cell_formula_units_Z 40
_cell_length_a 4.872124
_cell_length_b 14.163576
_cell_length_c 23.174997
_cell_angle_alpha 90.000000
_cell_angle_beta 90.000000
_cell_angle_gamma 90.000000
_cell_volume 1599.230032
_symmetry_space_group_name_H-M "C C C A"
_symmetry_group_IT_number 68
_space_group.IT_coordinate_system_code '2'
_symmetry_cell_setting 'orthorhombic'
loop_
_space_group_symop_operation_xyz
x,y,z
-x,1/2-y,z
x,1/2-y,1/2-z
-x,y,1/2-z
-x,-y,-z
x,1/2+y,-z
-x,1/2+y,1/2+z
x,-y,1/2+z
1/2+x,1/2+y,z
1/2-x,-y,z
1/2+x,-y,1/2-z
1/2-x,1/2+y,1/2-z
1/2-x,1/2-y,-z
1/2+x,y,-z
1/2-x,y,1/2+z
1/2+x,1/2-y,1/2+z
loop_
_atom_site_type_symbol
_atom_site_label
_atom_site_fract_x
_atom_site_fract_y
_atom_site_fract_z
Si Si1 0.532996 0.137956 0.033169
Si Si2 0.500000 0.437790 0.750000
Si Si3 0.751534 0.314306 0.351507
O O1 0.500000 0.250000 0.029942
O O2 0.639043 0.115760 0.098027
O O3 0.240161 0.095269 0.015155
O O4 0.250000 0.500000 0.775788
O O5 0.371684 0.374525 0.700271
O O6 0.500000 0.250000 0.328280
O O7 0.000000 0.250000 0.376769
#
# Coordination Sequence:
#
# PCOD8283433 Si02
#       3
#    16   8  16
#     4   9  16  29  54  90 122 146 186 252 314 358
#     4  12  27  44  61  86 128 172 210 260 319 368
#     4  11  22  39  65  92 119 158 212 259 300 368
#
# _framework density 25.012039999999999
#
# number of rings (size 3 to 8) (size 9 to 14) (size 15 to 20)
#    0.000    1.600    0.000    9.000    0.000    1.600 
#    0.000    0.000    0.000    7.200    0.000    0.000 
#    0.000    0.000    0.000    0.000    0.000    0.000 
#
# Total GULP energy -247833.989452 kJ/mol
# GULP energy per Si atom -12391.699473 kJ/mol
# Density = 2.495511 g / cm^3
# Si number density = 25.012040 Si / 1000 Ang^3
#
#
#
# Elastic Constant Matrix: (Units=GPa)
#
#
# Indices 1 2 3 4 5 6 
#
# 1 147.3545 20.3751 45.6219 0.0000 0.0000 0.0000
# 2 20.3751 46.6007 35.4748 0.0000 0.0000 0.0000
# 3 45.6219 35.4748 176.9321 0.0000 0.0000 0.0000
# 4 0.0000 0.0000 0.0000 -352.6392 0.0000 0.0000
# 5 0.0000 0.0000 0.0000 0.0000 44.7646 0.0000
# 6 0.0000 0.0000 0.0000 0.0000 0.0000 28.7302
#
#
#
# Elastic Compliance Matrix: (Units=1/GPa)
#
#
# Indices 1 2 3 4 5 6 
#
# 1 0.007553 -0.002148 -0.001517 0.000000 0.000000 0.000000
# 2 -0.002148 0.025935 -0.004646 0.000000 0.000000 0.000000
# 3 -0.001517 -0.004646 0.006975 0.000000 0.000000 0.000000
# 4 0.000000 0.000000 0.000000 -0.002836 0.000000 0.000000
# 5 0.000000 0.000000 0.000000 0.000000 0.022339 0.000000
# 6 0.000000 0.000000 0.000000 0.000000 0.000000 0.034807
#
#
# Mechanical properties :
#
#
# Convention : Reuss Voigt Hill
#
# Bulk Modulus (GPa) = 41.94461 63.75900 52.85181
# Shear Modulus (GPa) = 41.89689 -37.86783 2.01453
#
# Velocity S-wave (km/s) = 4.09720 -3.89522 0.89843
# Velocity P-wave (km/s) = 6.26010 2.30573 4.71727
#
# Compressibility (1/GPa) = 0.02384097
#
# Stress axis : x y z
#
# Youngs Moduli (GPa) = 132.39838 38.55820 143.37770
#
# Poissons Ratio (x) = 0.08281 0.21750
# Poissons Ratio (y) = 0.28434 0.66616
# Poissons Ratio (z) = 0.20084 0.17915
#
# Static dielectric constant tensor:
#      x y z
#    x 5.665940 0.000000 0.000000 
#    y 0.000000 4.130390 0.000000 
#    z 0.000000 0.000000 4.627610 
# 
# 
# High freq. dielectric constant tensor:
#      x y z
#    x 2.034290 0.000000 0.000000 
#    y 0.000000 1.952480 0.000000 
#    z 0.000000 0.000000 1.992150 
# 
# From -- ./inp_files/34668.got.cif
#   From: 2010.03.12/outbox.cif.g09.slc.cpg/sg68_18_cif.got.tgz:34668.got - 2010.04.10 23:14:56.
