data_PCOD8283371
_publ_section_title
;
Structure prediction by ZEFSAII (Michael W. Deem and Ramdas Pophale) SiO2 
 PCOD8283371
Probable space group: C C C A
;
_chemical_formula_sum "Si O2"
_cell_formula_units_Z 112
_cell_length_a 22.625748
_cell_length_b 14.098707
_cell_length_c 16.456094
_cell_angle_alpha 90.000000
_cell_angle_beta 90.000000
_cell_angle_gamma 90.000000
_cell_volume 5249.391822
_symmetry_space_group_name_H-M "C C C A"
_symmetry_group_IT_number 68
_space_group.IT_coordinate_system_code '2'
_symmetry_cell_setting 'orthorhombic'
loop_
_space_group_symop_operation_xyz
x,y,z
-x,1/2-y,z
x,1/2-y,1/2-z
-x,y,1/2-z
-x,-y,-z
x,1/2+y,-z
-x,1/2+y,1/2+z
x,-y,1/2+z
1/2+x,1/2+y,z
1/2-x,-y,z
1/2+x,-y,1/2-z
1/2-x,1/2+y,1/2-z
1/2-x,1/2-y,-z
1/2+x,y,-z
1/2-x,y,1/2+z
1/2+x,1/2-y,1/2+z
loop_
_atom_site_type_symbol
_atom_site_label
_atom_site_fract_x
_atom_site_fract_y
_atom_site_fract_z
Si Si1 0.011214 0.352144 0.156402
Si Si2 0.580483 0.003113 0.402853
Si Si3 0.120393 0.423099 0.563206
Si Si4 0.007598 0.639763 0.160146
Si Si5 0.307355 0.281619 0.953424
Si Si6 0.193092 0.565298 0.815519
Si Si7 0.146202 0.102428 0.357325
O O1 0.075542 0.395565 0.145004
O O2 0.000000 0.250000 0.113836
O O3 0.000000 0.339840 0.250000
O O4 0.962679 0.418486 0.118421
O O5 0.593533 0.994374 0.497295
O O6 0.639321 0.999671 0.347703
O O7 0.546814 0.102265 0.393434
O O8 0.071366 0.384355 0.624567
O O9 0.151805 0.334057 0.520179
O O10 0.164174 0.495662 0.611884
O O11 0.000000 0.750000 0.165520
O O12 0.000000 0.593599 0.250000
O O13 0.292187 0.352904 0.880369
O O14 0.335563 0.186321 0.917806
O O15 0.250000 0.250000 0.000000
O O16 0.250000 0.500000 0.803038
O O17 0.175501 0.616415 0.731104
#
# Coordination Sequence:
#
# PCOD8283371 Si02
#       7
#    16  16  16  16  16  16  16
#     4  11  21  36  70 104 141 175 222 296 364 425
#     4  11  22  44  66 103 140 177 234 287 357 426
#     4  11  26  42  71 104 137 191 231 295 367 420
#     4  11  24  41  65  99 143 187 231 283 349 430
#     4  11  29  47  72 103 145 185 245 304 358 427
#     4  11  26  46  76 100 140 189 240 296 362 433
#     4  12  25  46  73 105 141 187 244 299 364 445
#
# _framework density 21.335805000000001
#
# number of rings (size 3 to 8) (size 9 to 14) (size 15 to 20)
#    0.000    0.857    2.857    3.857   10.000    0.571 
#    0.000    0.000    0.000    0.000    0.000    0.000 
#    0.000    0.000    0.000    0.000    0.000    0.000 
#
# Total GULP energy -694334.019254 kJ/mol
# GULP energy per Si atom -12398.821772 kJ/mol
# Density = 2.128724 g / cm^3
# Si number density = 21.335805 Si / 1000 Ang^3
#
#
#
# Elastic Constant Matrix: (Units=GPa)
#
#
# Indices 1 2 3 4 5 6 
#
# 1 113.1469 46.1360 50.2657 0.0000 0.0000 0.0000
# 2 46.1360 109.5293 45.6229 0.0000 0.0000 0.0000
# 3 50.2657 45.6229 127.7808 0.0000 0.0000 0.0000
# 4 0.0000 0.0000 0.0000********** 0.0000 0.0000
# 5 0.0000 0.0000 0.0000 0.0000 32.5812 0.0000
# 6 0.0000 0.0000 0.0000 0.0000 0.0000 35.1417
#
#
#
# Elastic Compliance Matrix: (Units=1/GPa)
#
#
# Indices 1 2 3 4 5 6 
#
# 1 0.011785 -0.003563 -0.003364 0.000000 0.000000 0.000000
# 2 -0.003563 0.011802 -0.002812 0.000000 0.000000 0.000000
# 3 -0.003364 -0.002812 0.010153 0.000000 0.000000 0.000000
# 4 0.000000 0.000000 0.000000 -0.000070 0.000000 0.000000
# 5 0.000000 0.000000 0.000000 0.000000 0.030693 0.000000
# 6 0.000000 0.000000 0.000000 0.000000 0.000000 0.028456
#
#
# Mechanical properties :
#
#
# Convention : Reuss Voigt Hill
#
# Bulk Modulus (GPa) = 70.11435 70.50067 70.30751
# Shear Modulus (GPa) = 42.71618 -2811.33636 -1384.31009
#
# Velocity S-wave (km/s) = 4.47933 -36.33898 -25.49958
# Velocity P-wave (km/s) = 7.72568 41.56417 28.87814
#
# Compressibility (1/GPa) = 0.01426242
#
# Stress axis : x y z
#
# Youngs Moduli (GPa) = 84.85123 84.72989 98.49049
#
# Poissons Ratio (x) = 0.30190 0.33131
# Poissons Ratio (y) = 0.30233 0.27698
# Poissons Ratio (z) = 0.28543 0.23828
#
# Static dielectric constant tensor:
#      x y z
#    x 1.472000 0.000000 0.000000 
#    y 0.000000 4.442630 0.000000 
#    z 0.000000 0.000000 4.215690 
# 
# 
# High freq. dielectric constant tensor:
#      x y z
#    x 1.831720 0.000000 0.000000 
#    y 0.000000 1.850410 0.000000 
#    z 0.000000 0.000000 1.853190 
# 
# From -- ./inp_files/25487.got.cif
#   From: 2010.03.12/outbox.cif.g09.slc.cpg/sg68_13_cif.got.tgz:25487.got - 2010.04.10 23:14:56.
