data_PCOD8283795
_publ_section_title
;
Structure prediction by ZEFSAII (Michael W. Deem and Ramdas Pophale) SiO2 
 PCOD8283795
Probable space group: F M M M
;
_chemical_formula_sum "Si O2"
_cell_formula_units_Z 152
_cell_length_a 13.628481
_cell_length_b 21.793007
_cell_length_c 35.056748
_cell_angle_alpha 90.000000
_cell_angle_beta 90.000000
_cell_angle_gamma 90.000000
_cell_volume 10412.049837
_symmetry_space_group_name_H-M "F M M M"
_symmetry_group_IT_number 69
_symmetry_cell_setting 'orthorhombic'
loop_
_space_group_symop_operation_xyz
x,y,z
-x,-y,z
x,-y,-z
-x,y,-z
-x,-y,-z
x,y,-z
-x,y,z
x,-y,z
x,1/2+y,1/2+z
-x,1/2-y,1/2+z
x,1/2-y,1/2-z
-x,1/2+y,1/2-z
-x,1/2-y,1/2-z
x,1/2+y,1/2-z
-x,1/2+y,1/2+z
x,1/2-y,1/2+z
1/2+x,y,1/2+z
1/2-x,-y,1/2+z
1/2+x,-y,1/2-z
1/2-x,y,1/2-z
1/2-x,-y,1/2-z
1/2+x,y,1/2-z
1/2-x,y,1/2+z
1/2+x,-y,1/2+z
1/2+x,1/2+y,z
1/2-x,1/2-y,z
1/2+x,1/2-y,-z
1/2-x,1/2+y,-z
1/2-x,1/2-y,-z
1/2+x,1/2+y,-z
1/2-x,1/2+y,z
1/2+x,1/2-y,z
loop_
_atom_site_type_symbol
_atom_site_label
_atom_site_fract_x
_atom_site_fract_y
_atom_site_fract_z
Si Si1 0.612921 0.149597 0.276720
Si Si2 0.201898 0.428553 0.658483
Si Si3 0.883268 0.432621 0.500000
Si Si4 0.610072 0.926893 0.418567
Si Si5 0.750000 0.750000 0.750000
Si Si6 0.889966 0.570284 0.796733
O O1 0.500000 0.170179 0.276084
O O2 0.630631 0.108234 0.313589
O O3 0.681019 0.209717 0.277696
O O4 0.640944 0.111432 0.238979
O O5 0.174390 0.500000 0.662627
O O6 0.182763 0.405599 0.615250
O O7 0.315862 0.416163 0.668498
O O8 0.834606 0.500000 0.500000
O O9 0.853109 0.399375 0.540160
O O10 0.000000 0.438851 0.500000
O O11 0.500000 0.903609 0.409035
O O12 0.609183 0.000000 0.422445
O O13 0.881694 0.500000 0.783144
O O14 0.000000 0.585428 0.810976
#
# Coordination Sequence:
#
# PCOD8283795 Si02
#       6
#    32  32  16  32   8  32
#     4  11  21  32  45  59  78 106 138 172 203 238
#     4  10  17  27  43  64  84 103 132 171 206 238
#     4   7  10  18  30  48  79 112 131 143 174 236
#     4   8  13  20  33  55  82 108 129 151 187 237
#     4  12  22  36  42  54  76 114 146 166 200 242
#     4   9  17  29  44  60  78 103 133 168 210 246
#
# _framework density 14.598470000000001
#
# number of rings (size 3 to 8) (size 9 to 14) (size 15 to 20)
#    0.000    2.632    2.105    2.842    0.000    3.789 
#    0.000    0.000    0.000    0.000    0.000    0.737 
#    0.000    6.737    0.000    0.105    0.000    0.105 
#
# Total GULP energy -470880.411155 kJ/mol
# GULP energy per Si atom -12391.589767 kJ/mol
# Density = 1.456524 g / cm^3
# Si number density = 14.598470 Si / 1000 Ang^3
#
#
#
# Elastic Constant Matrix: (Units=GPa)
#
#
# Indices 1 2 3 4 5 6 
#
# 1 79.6562 29.9180 56.9850 0.0000 0.0000 0.0000
# 2 29.9180 38.4053 29.1500 0.0000 0.0000 0.0000
# 3 56.9850 29.1500 144.3052 0.0000 0.0000 0.0000
# 4 0.0000 0.0000 0.0000 1.8759 0.0000 0.0000
# 5 0.0000 0.0000 0.0000 0.0000 19.8668 0.0000
# 6 0.0000 0.0000 0.0000 0.0000 0.0000 18.5451
#
#
#
# Elastic Compliance Matrix: (Units=1/GPa)
#
#
# Indices 1 2 3 4 5 6 
#
# 1 0.021398 -0.012113 -0.006003 0.000000 0.000000 0.000000
# 2 -0.012113 0.037610 -0.002814 0.000000 0.000000 0.000000
# 3 -0.006003 -0.002814 0.009869 0.000000 0.000000 0.000000
# 4 0.000000 0.000000 0.000000 0.533083 0.000000 0.000000
# 5 0.000000 0.000000 0.000000 0.000000 0.050335 0.000000
# 6 0.000000 0.000000 0.000000 0.000000 0.000000 0.053923
#
#
# Mechanical properties :
#
#
# Convention : Reuss Voigt Hill
#
# Bulk Modulus (GPa) = 37.01400 54.94141 45.97770
# Shear Modulus (GPa) = 6.60430 17.81180 12.20805
#
# Velocity S-wave (km/s) = 2.12927 3.49680 2.89495
# Velocity P-wave (km/s) = 5.60846 7.34985 6.53739
#
# Compressibility (1/GPa) = 0.02701681
#
# Stress axis : x y z
#
# Youngs Moduli (GPa) = 46.73372 26.58883 101.32991
#
# Poissons Ratio (x) = 0.32206 0.60829
# Poissons Ratio (y) = 0.56607 0.28515
# Poissons Ratio (z) = 0.28054 0.07482
#
# Static dielectric constant tensor:
#      x y z
#    x 2.848200 0.000000 0.000000 
#    y 0.000000 2.527660 0.000000 
#    z 0.000000 0.000000 3.102740 
# 
# 
# High freq. dielectric constant tensor:
#      x y z
#    x 1.552980 0.000000 0.000000 
#    y 0.000000 1.512990 0.000000 
#    z 0.000000 0.000000 1.549550 
# 
# From -- ./inp_files/45748.got.cif
#   From: 2010.03.12/outbox.cif.g09.slc.cpg/sg69_23_cif.got.tgz:45748.got - 2010.04.10 23:52:46.
