data_PCOD8283421
_publ_section_title
;
Structure prediction by ZEFSAII (Michael W. Deem and Ramdas Pophale) SiO2 
 PCOD8283421
Probable space group: C C C A
;
_chemical_formula_sum "Si O2"
_cell_formula_units_Z 96
_cell_length_a 9.467404
_cell_length_b 20.931388
_cell_length_c 24.043043
_cell_angle_alpha 90.000000
_cell_angle_beta 90.000000
_cell_angle_gamma 90.000000
_cell_volume 4764.511411
_symmetry_space_group_name_H-M "C C C A"
_symmetry_group_IT_number 68
_space_group.IT_coordinate_system_code '2'
_symmetry_cell_setting 'orthorhombic'
loop_
_space_group_symop_operation_xyz
x,y,z
-x,1/2-y,z
x,1/2-y,1/2-z
-x,y,1/2-z
-x,-y,-z
x,1/2+y,-z
-x,1/2+y,1/2+z
x,-y,1/2+z
1/2+x,1/2+y,z
1/2-x,-y,z
1/2+x,-y,1/2-z
1/2-x,1/2+y,1/2-z
1/2-x,1/2-y,-z
1/2+x,y,-z
1/2-x,y,1/2+z
1/2+x,1/2-y,1/2+z
loop_
_atom_site_type_symbol
_atom_site_label
_atom_site_fract_x
_atom_site_fract_y
_atom_site_fract_z
Si Si1 0.882025 0.454971 0.703439
Si Si2 0.984921 0.130706 0.075223
Si Si3 0.036111 0.111469 0.950037
Si Si4 0.258911 0.724461 0.563564
Si Si5 0.101628 0.504571 0.620915
Si Si6 0.782535 0.645931 0.119477
O O1 0.750000 0.500000 0.722820
O O2 0.834226 0.385660 0.678250
O O3 0.000000 0.440482 0.750000
O O4 0.962116 0.496382 0.657154
O O5 0.117251 0.132387 0.116198
O O6 0.896107 0.195981 0.076238
O O7 0.047199 0.114120 0.015528
O O8 0.886107 0.074099 0.094740
O O9 0.120400 0.172382 0.926609
O O10 0.105702 0.046285 0.929166
O O11 0.873550 0.113976 0.929914
O O12 0.250000 0.750000 0.500000
O O13 0.296578 0.777692 0.610146
O O14 0.250000 0.500000 0.655315
#
# Coordination Sequence:
#
# PCOD8283421 Si02
#       6
#    16  16  16  16  16  16
#     4  11  24  47  73  95 121 159 219 297 354 396
#     4  12  21  38  59  91 140 182 218 261 311 391
#     4  11  22  36  58  89 139 187 215 261 308 386
#     4  12  22  37  60  90 141 193 223 245 307 403
#     4  11  23  40  60  97 127 167 222 275 334 384
#     4  11  24  37  62  98 129 170 229 263 321 392
#
# _framework density 20.148969999999998
#
# number of rings (size 3 to 8) (size 9 to 14) (size 15 to 20)
#    0.000    0.667    6.667    2.000    0.000    0.000 
#    0.000    0.000    0.000    8.000    0.000    1.167 
#    0.000    0.000    0.000    0.000    0.000    0.000 
#
# Total GULP energy -594719.350950 kJ/mol
# GULP energy per Si atom -12389.986478 kJ/mol
# Density = 2.010311 g / cm^3
# Si number density = 20.148970 Si / 1000 Ang^3
#
#
#
# Elastic Constant Matrix: (Units=GPa)
#
#
# Indices 1 2 3 4 5 6 
#
# 1 136.2485 40.6338 30.3203 0.0000 0.0000 0.0000
# 2 40.6338 104.0913 44.3331 0.0000 0.0000 0.0000
# 3 30.3203 44.3331 76.8785 0.0000 0.0000 0.0000
# 4 0.0000 0.0000 0.0000 25.0059 0.0000 0.0000
# 5 0.0000 0.0000 0.0000 0.0000 32.2079 0.0000
# 6 0.0000 0.0000 0.0000 0.0000 0.0000 35.2238
#
#
#
# Elastic Compliance Matrix: (Units=1/GPa)
#
#
# Indices 1 2 3 4 5 6 
#
# 1 0.008513 -0.002510 -0.001910 0.000000 0.000000 0.000000
# 2 -0.002510 0.013474 -0.006780 0.000000 0.000000 0.000000
# 3 -0.001910 -0.006780 0.017671 0.000000 0.000000 0.000000
# 4 0.000000 0.000000 0.000000 0.039991 0.000000 0.000000
# 5 0.000000 0.000000 0.000000 0.000000 0.031048 0.000000
# 6 0.000000 0.000000 0.000000 0.000000 0.000000 0.028390
#
#
# Mechanical properties :
#
#
# Convention : Reuss Voigt Hill
#
# Bulk Modulus (GPa) = 57.94485 60.86586 59.40535
# Shear Modulus (GPa) = 29.89703 31.94959 30.92331
#
# Velocity S-wave (km/s) = 3.85619 3.98637 3.92182
# Velocity P-wave (km/s) = 6.97478 7.17368 7.07493
#
# Compressibility (1/GPa) = 0.01725779
#
# Stress axis : x y z
#
# Youngs Moduli (GPa) = 117.46613 74.21433 56.58988
#
# Poissons Ratio (x) = 0.18625 0.10810
# Poissons Ratio (y) = 0.29480 0.38371
# Poissons Ratio (z) = 0.22439 0.50321
#
# Static dielectric constant tensor:
#      x y z
#    x 3.915680 0.000000 0.000000 
#    y 0.000000 3.842350 0.000000 
#    z 0.000000 0.000000 3.306300 
# 
# 
# High freq. dielectric constant tensor:
#      x y z
#    x 1.818880 0.000000 0.000000 
#    y 0.000000 1.795290 0.000000 
#    z 0.000000 0.000000 1.736370 
# 
# From -- ./inp_files/43303.got.cif
#   From: 2010.03.12/outbox.cif.g09.slc.cpg/sg68_22_cif.got.tgz:43303.got - 2010.04.10 23:14:56.
