data_PCOD8283139
_publ_section_title
;
Structure prediction by ZEFSAII (Michael W. Deem and Ramdas Pophale) SiO2 
 PCOD8283139
Probable space group: C C C A
;
_chemical_formula_sum "Si O2"
_cell_formula_units_Z 88
_cell_length_a 11.806151
_cell_length_b 25.574299
_cell_length_c 13.641870
_cell_angle_alpha 90.000000
_cell_angle_beta 90.000000
_cell_angle_gamma 90.000000
_cell_volume 4118.944864
_symmetry_space_group_name_H-M "C C C A"
_symmetry_group_IT_number 68
_space_group.IT_coordinate_system_code '2'
_symmetry_cell_setting 'orthorhombic'
loop_
_space_group_symop_operation_xyz
x,y,z
-x,1/2-y,z
x,1/2-y,1/2-z
-x,y,1/2-z
-x,-y,-z
x,1/2+y,-z
-x,1/2+y,1/2+z
x,-y,1/2+z
1/2+x,1/2+y,z
1/2-x,-y,z
1/2+x,-y,1/2-z
1/2-x,1/2+y,1/2-z
1/2-x,1/2-y,-z
1/2+x,y,-z
1/2-x,y,1/2+z
1/2+x,1/2-y,1/2+z
loop_
_atom_site_type_symbol
_atom_site_label
_atom_site_fract_x
_atom_site_fract_y
_atom_site_fract_z
Si Si1 0.628411 0.027191 0.397944
Si Si2 0.813522 0.791396 0.676433
Si Si3 0.500000 0.359749 0.750000
Si Si4 0.500000 0.407888 0.250000
Si Si5 0.500000 0.250000 0.531293
Si Si6 0.505910 0.924218 0.442670
Si Si7 0.893293 0.845402 0.078161
O O1 0.600596 0.056329 0.295823
O O2 0.605297 0.068575 0.487012
O O3 0.750000 0.000000 0.397865
O O4 0.538844 0.981355 0.408666
O O5 0.751135 0.750000 0.750000
O O6 0.886805 0.824978 0.754807
O O7 0.893728 0.762779 0.599059
O O8 0.729844 0.825043 0.608935
O O9 0.475554 0.392984 0.653885
O O10 0.447511 0.368716 0.173918
O O11 0.471038 0.201084 0.462657
O O12 0.607409 0.892760 0.498351
#
# Coordination Sequence:
#
# PCOD8283139 Si02
#       7
#    16  16   8   8   8  16  16
#     4  10  23  44  70  94 140 175 222 290 350 408
#     4  12  24  43  66  99 134 186 235 283 346 407
#     4  12  22  42  70  97 137 172 232 290 328 426
#     4  10  25  47  60 111 135 173 238 283 338 430
#     4  12  23  47  62  98 142 178 232 298 326 420
#     4  10  23  44  65 103 131 177 229 282 346 421
#     4  11  26  41  71  95 140 180 227 282 354 406
#
# _framework density 21.364695999999999
#
# number of rings (size 3 to 8) (size 9 to 14) (size 15 to 20)
#    0.000    1.091    3.636    1.091    7.636    0.000 
#    0.000    2.727    0.000    0.000    0.000    0.000 
#    0.000    0.000    0.000    0.000    0.000    0.000 
#
# Total GULP energy -545237.397865 kJ/mol
# GULP energy per Si atom -12391.759042 kJ/mol
# Density = 2.131607 g / cm^3
# Si number density = 21.364696 Si / 1000 Ang^3
#
#
#
# Elastic Constant Matrix: (Units=GPa)
#
#
# Indices 1 2 3 4 5 6 
#
# 1 95.5116 34.4373 49.3031 0.0000 0.0000 0.0000
# 2 34.4373 116.2634 69.0776 0.0000 0.0000 0.0000
# 3 49.3031 69.0776 135.5902 0.0000 0.0000 0.0000
# 4 0.0000 0.0000 0.0000 56.8917 0.0000 0.0000
# 5 0.0000 0.0000 0.0000 0.0000 13.9604 0.0000
# 6 0.0000 0.0000 0.0000 0.0000 0.0000 126.2670
#
#
#
# Elastic Compliance Matrix: (Units=1/GPa)
#
#
# Indices 1 2 3 4 5 6 
#
# 1 0.013070 -0.001502 -0.003987 0.000000 0.000000 0.000000
# 2 -0.001502 0.012508 -0.005826 0.000000 0.000000 0.000000
# 3 -0.003987 -0.005826 0.011793 0.000000 0.000000 0.000000
# 4 0.000000 0.000000 0.000000 0.017577 0.000000 0.000000
# 5 0.000000 0.000000 0.000000 0.000000 0.071631 0.000000
# 6 0.000000 0.000000 0.000000 0.000000 0.000000 0.007920
#
#
# Mechanical properties :
#
#
# Convention : Reuss Voigt Hill
#
# Bulk Modulus (GPa) = 67.84336 72.55568 70.19952
# Shear Modulus (GPa) = 30.85626 52.39366 41.62496
#
# Velocity S-wave (km/s) = 3.80447 4.95749 4.41875
# Velocity P-wave (km/s) = 7.15000 8.17332 7.67873
#
# Compressibility (1/GPa) = 0.01473984
#
# Stress axis : x y z
#
# Youngs Moduli (GPa) = 76.51280 79.95181 84.79684
#
# Poissons Ratio (x) = 0.12012 0.33808
# Poissons Ratio (y) = 0.11495 0.49401
# Poissons Ratio (z) = 0.30505 0.46578
#
# Static dielectric constant tensor:
#      x y z
#    x 3.165580 0.000000 0.000000 
#    y 0.000000 4.377010 0.000000 
#    z 0.000000 0.000000 4.318360 
# 
# 
# High freq. dielectric constant tensor:
#      x y z
#    x 1.807750 0.000000 0.000000 
#    y 0.000000 1.864350 0.000000 
#    z 0.000000 0.000000 1.855970 
# 
# From -- ./inp_files/21159.got.cif
#   From: 2010.03.12/outbox.cif.g09.slc.cpg/sg68_11_cif.got.tgz:21159.got - 2010.04.10 23:14:56.
