data_PCOD8283169
_publ_section_title
;
Structure prediction by ZEFSAII (Michael W. Deem and Ramdas Pophale) SiO2 
 PCOD8283169
Probable space group: C C C A
;
_chemical_formula_sum "Si O2"
_cell_formula_units_Z 96
_cell_length_a 22.747708
_cell_length_b 17.901309
_cell_length_c 10.513206
_cell_angle_alpha 90.000000
_cell_angle_beta 90.000000
_cell_angle_gamma 90.000000
_cell_volume 4281.122039
_symmetry_space_group_name_H-M "C C C A"
_symmetry_group_IT_number 68
_space_group.IT_coordinate_system_code '2'
_symmetry_cell_setting 'orthorhombic'
loop_
_space_group_symop_operation_xyz
x,y,z
-x,1/2-y,z
x,1/2-y,1/2-z
-x,y,1/2-z
-x,-y,-z
x,1/2+y,-z
-x,1/2+y,1/2+z
x,-y,1/2+z
1/2+x,1/2+y,z
1/2-x,-y,z
1/2+x,-y,1/2-z
1/2-x,1/2+y,1/2-z
1/2-x,1/2-y,-z
1/2+x,y,-z
1/2-x,y,1/2+z
1/2+x,1/2-y,1/2+z
loop_
_atom_site_type_symbol
_atom_site_label
_atom_site_fract_x
_atom_site_fract_y
_atom_site_fract_z
Si Si1 0.952817 0.811155 0.945630
Si Si2 0.135107 0.750000 0.750000
Si Si3 0.616584 0.480824 0.286709
Si Si4 0.787349 0.931484 0.047966
Si Si5 0.931801 0.831719 0.219354
Si Si6 0.794869 0.392409 0.223491
Si Si7 0.000000 0.429473 0.250000
O O1 0.904383 0.765048 0.871317
O O2 0.980377 0.877734 0.865442
O O3 0.000000 0.750000 0.991156
O O4 0.923302 0.846591 0.069351
O O5 0.173187 0.678077 0.714800
O O6 0.646210 0.459408 0.422856
O O7 0.603566 0.400800 0.214364
O O8 0.662882 0.534534 0.215538
O O9 0.553721 0.521083 0.303189
O O10 0.761301 0.902733 0.184295
O O11 0.750000 0.000000 0.995919
O O12 0.782190 0.874791 0.926827
O O13 0.904645 0.750000 0.250000
O O14 0.000000 0.835909 0.250000
#
# Coordination Sequence:
#
# PCOD8283169 Si02
#       7
#    16   8  16  16  16  16   8
#     4  12  21  40  65  94 142 181 225 279 338 414
#     4  12  23  42  70 100 138 173 234 286 348 414
#     4  11  23  42  68 101 138 177 230 282 343 422
#     4  10  23  46  72  98 136 182 232 295 348 406
#     4  11  24  43  60  92 140 185 222 273 339 407
#     4  11  24  47  72 101 136 183 232 294 352 408
#     4  12  23  38  69 108 132 186 224 276 347 421
#
# _framework density 22.424028
#
# number of rings (size 3 to 8) (size 9 to 14) (size 15 to 20)
#    0.000    0.833    5.833    2.500    0.000    2.667 
#   10.500    0.000    0.000    0.000    0.000    0.000 
#    0.000    0.000    0.000    0.000    0.000    0.000 
#
# Total GULP energy -594702.819437 kJ/mol
# GULP energy per Si atom -12389.642072 kJ/mol
# Density = 2.237299 g / cm^3
# Si number density = 22.424028 Si / 1000 Ang^3
#
#
#
# Elastic Constant Matrix: (Units=GPa)
#
#
# Indices 1 2 3 4 5 6 
#
# 1 105.5152 50.7497 42.8023 0.0000 0.0000 0.0000
# 2 50.7497 155.6943 23.6488 0.0000 0.0000 0.0000
# 3 42.8023 23.6488 132.3735 0.0000 0.0000 0.0000
# 4 0.0000 0.0000 0.0000 77.6857 0.0000 0.0000
# 5 0.0000 0.0000 0.0000 0.0000 -163.6044 0.0000
# 6 0.0000 0.0000 0.0000 0.0000 0.0000 19.0938
#
#
#
# Elastic Compliance Matrix: (Units=1/GPa)
#
#
# Indices 1 2 3 4 5 6 
#
# 1 0.012593 -0.003584 -0.003432 0.000000 0.000000 0.000000
# 2 -0.003584 0.007622 -0.000203 0.000000 0.000000 0.000000
# 3 -0.003432 -0.000203 0.008700 0.000000 0.000000 0.000000
# 4 0.000000 0.000000 0.000000 0.012872 0.000000 0.000000
# 5 0.000000 0.000000 0.000000 0.000000 -0.006112 0.000000
# 6 0.000000 0.000000 0.000000 0.000000 0.000000 0.052373
#
#
# Mechanical properties :
#
#
# Convention : Reuss Voigt Hill
#
# Bulk Modulus (GPa) = 69.06691 69.77605 69.42148
# Shear Modulus (GPa) = 46.59376 5.06049 25.82713
#
# Velocity S-wave (km/s) = 4.56329 1.50387 3.39744
# Velocity P-wave (km/s) = 7.65716 5.84805 6.81292
#
# Compressibility (1/GPa) = 0.01447871
#
# Stress axis : x y z
#
# Youngs Moduli (GPa) = 79.40966 131.20367 114.93932
#
# Poissons Ratio (x) = 0.47017 0.39443
# Poissons Ratio (y) = 0.28457 0.02332
# Poissons Ratio (z) = 0.27251 0.02662
#
# Static dielectric constant tensor:
#      x y z
#    x 4.204750 0.000000 0.000000 
#    y 0.000000 4.692500 0.000000 
#    z 0.000000 0.000000 3.801730 
# 
# 
# High freq. dielectric constant tensor:
#      x y z
#    x 1.886600 0.000000 0.000000 
#    y 0.000000 1.892010 0.000000 
#    z 0.000000 0.000000 1.870980 
# 
# From -- ./inp_files/16451.got.cif
#   From: 2010.03.12/outbox.cif.g09.slc.cpg/sg68_9_cif.got.tgz:16451.got - 2010.04.10 23:14:56.
