data_PCOD8283400
_publ_section_title
;
Structure prediction by ZEFSAII (Michael W. Deem and Ramdas Pophale) SiO2 
 PCOD8283400
Probable space group: C C C A
;
_chemical_formula_sum "Si O2"
_cell_formula_units_Z 116
_cell_length_a 22.058666
_cell_length_b 9.440495
_cell_length_c 27.473614
_cell_angle_alpha 90.000000
_cell_angle_beta 90.000000
_cell_angle_gamma 90.000000
_cell_volume 5721.235222
_symmetry_space_group_name_H-M "C C C A"
_symmetry_group_IT_number 68
_space_group.IT_coordinate_system_code '2'
_symmetry_cell_setting 'orthorhombic'
loop_
_space_group_symop_operation_xyz
x,y,z
-x,1/2-y,z
x,1/2-y,1/2-z
-x,y,1/2-z
-x,-y,-z
x,1/2+y,-z
-x,1/2+y,1/2+z
x,-y,1/2+z
1/2+x,1/2+y,z
1/2-x,-y,z
1/2+x,-y,1/2-z
1/2-x,1/2+y,1/2-z
1/2-x,1/2-y,-z
1/2+x,y,-z
1/2-x,y,1/2+z
1/2+x,1/2-y,1/2+z
loop_
_atom_site_type_symbol
_atom_site_label
_atom_site_fract_x
_atom_site_fract_y
_atom_site_fract_z
Si Si1 0.083039 0.986570 0.603893
Si Si2 0.400322 0.239789 0.681308
Si Si3 0.000000 0.750000 0.750000
Si Si4 0.869630 0.769122 0.072837
Si Si5 0.772877 0.160798 0.205665
Si Si6 0.557537 0.041304 0.604594
Si Si7 0.883002 0.247213 0.460706
Si Si8 0.240016 0.834356 0.905604
O O1 0.115280 0.886622 0.644255
O O2 0.101313 0.915107 0.552539
O O3 0.011317 0.007066 0.608379
O O4 0.110143 0.142206 0.607816
O O5 0.452302 0.167025 0.715428
O O6 0.344650 0.307746 0.711185
O O7 0.426730 0.377369 0.654045
O O8 0.797352 0.763632 0.069224
O O9 0.896675 0.910465 0.096891
O O10 0.890322 0.742333 0.018096
O O11 0.741364 0.250000 0.250000
O O12 0.759543 0.215448 0.150927
O O13 0.750000 0.000000 0.212411
O O14 0.565034 0.149960 0.559991
O O15 0.818944 0.291824 0.436389
O O16 0.250000 0.000000 0.907936
#
# Coordination Sequence:
#
# PCOD8283400 Si02
#       8
#    16  16   4  16  16  16  16  16
#     4  11  24  38  62  97 130 162 213 271 318 368
#     4  11  21  43  70  97 124 171 217 260 312 398
#     4  12  20  40  84  98 112 172 236 248 312 400
#     4  12  25  38  63  93 129 170 213 264 325 379
#     4  11  23  41  67  95 125 168 211 266 330 386
#     4  11  21  42  63  87 137 167 206 262 330 378
#     4  11  22  41  64  89 122 176 223 256 310 390
#     4  11  22  44  64  84 127 173 211 266 325 379
#
# _framework density 20.275341999999998
#
# number of rings (size 3 to 8) (size 9 to 14) (size 15 to 20)
#    0.000    0.828    6.207    3.724    0.000    4.966 
#    0.000    0.000    0.000    0.828    0.000    0.000 
#    0.000    0.000    0.000    0.000    0.000    0.000 
#
# Total GULP energy -718543.900219 kJ/mol
# GULP energy per Si atom -12388.687935 kJ/mol
# Density = 2.022919 g / cm^3
# Si number density = 20.275342 Si / 1000 Ang^3
#
#
#
# Elastic Constant Matrix: (Units=GPa)
#
#
# Indices 1 2 3 4 5 6 
#
# 1 80.5013 26.6990 13.8432 0.0000 0.0000 0.0000
# 2 26.6990 89.7693 32.8571 0.0000 0.0000 0.0000
# 3 13.8432 32.8571 84.6567 0.0000 0.0000 0.0000
# 4 0.0000 0.0000 0.0000 11.5619 0.0000 0.0000
# 5 0.0000 0.0000 0.0000 0.0000 19.1174 0.0000
# 6 0.0000 0.0000 0.0000 0.0000 0.0000 31.4802
#
#
#
# Elastic Compliance Matrix: (Units=1/GPa)
#
#
# Indices 1 2 3 4 5 6 
#
# 1 0.013825 -0.003828 -0.000775 0.000000 0.000000 0.000000
# 2 -0.003828 0.014044 -0.004825 0.000000 0.000000 0.000000
# 3 -0.000775 -0.004825 0.013812 0.000000 0.000000 0.000000
# 4 0.000000 0.000000 0.000000 0.086491 0.000000 0.000000
# 5 0.000000 0.000000 0.000000 0.000000 0.052308 0.000000
# 6 0.000000 0.000000 0.000000 0.000000 0.000000 0.031766
#
#
# Mechanical properties :
#
#
# Convention : Reuss Voigt Hill
#
# Bulk Modulus (GPa) = 43.81136 44.63622 44.22379
# Shear Modulus (GPa) = 20.94585 24.53377 22.73981
#
# Velocity S-wave (km/s) = 3.21763 3.48232 3.35259
# Velocity P-wave (km/s) = 5.95477 6.18317 6.07004
#
# Compressibility (1/GPa) = 0.02282513
#
# Stress axis : x y z
#
# Youngs Moduli (GPa) = 72.33241 71.20362 72.40199
#
# Poissons Ratio (x) = 0.27258 0.05610
# Poissons Ratio (y) = 0.27690 0.34933
# Poissons Ratio (z) = 0.05605 0.34355
#
# Static dielectric constant tensor:
#      x y z
#    x 3.907420 0.000000 0.000000 
#    y 0.000000 3.675880 0.000000 
#    z 0.000000 0.000000 3.861540 
# 
# 
# High freq. dielectric constant tensor:
#      x y z
#    x 1.801960 0.000000 0.000000 
#    y 0.000000 1.775790 0.000000 
#    z 0.000000 0.000000 1.799200 
# 
# From -- ./inp_files/49637.got.cif
#   From: 2010.03.12/outbox.cif.g09.slc.cpg/sg68_25_cif.got.tgz:49637.got - 2010.04.10 23:14:56.
