data_PCOD8283565
_publ_section_title
;
Structure prediction by ZEFSAII (Michael W. Deem and Ramdas Pophale) SiO2 
 PCOD8283565
Probable space group: C C C A
;
_chemical_formula_sum "Si O2"
_cell_formula_units_Z 104
_cell_length_a 9.657360
_cell_length_b 27.437329
_cell_length_c 17.264995
_cell_angle_alpha 90.000000
_cell_angle_beta 90.000000
_cell_angle_gamma 90.000000
_cell_volume 4574.743080
_symmetry_space_group_name_H-M "C C C A"
_symmetry_group_IT_number 68
_space_group.IT_coordinate_system_code '2'
_symmetry_cell_setting 'orthorhombic'
loop_
_space_group_symop_operation_xyz
x,y,z
-x,1/2-y,z
x,1/2-y,1/2-z
-x,y,1/2-z
-x,-y,-z
x,1/2+y,-z
-x,1/2+y,1/2+z
x,-y,1/2+z
1/2+x,1/2+y,z
1/2-x,-y,z
1/2+x,-y,1/2-z
1/2-x,1/2+y,1/2-z
1/2-x,1/2-y,-z
1/2+x,y,-z
1/2-x,y,1/2+z
1/2+x,1/2-y,1/2+z
loop_
_atom_site_type_symbol
_atom_site_label
_atom_site_fract_x
_atom_site_fract_y
_atom_site_fract_z
Si Si1 0.267188 0.250000 0.750000
Si Si2 0.422418 0.298134 0.370098
Si Si3 0.646750 0.371141 0.383215
Si Si4 0.859812 0.462759 0.080395
Si Si5 0.171488 0.146804 0.063134
Si Si6 0.613256 0.478019 0.398119
Si Si7 0.928622 0.332145 0.327653
O O1 0.169354 0.212911 0.704714
O O2 0.363792 0.279141 0.690011
O O3 0.500000 0.250000 0.405027
O O4 0.544873 0.333534 0.340784
O O5 0.317982 0.324541 0.430570
O O6 0.635036 0.357548 0.473586
O O7 0.586258 0.424533 0.362879
O O8 0.805999 0.367855 0.355727
O O9 0.750000 0.500000 0.115968
O O10 0.819556 0.407314 0.101260
O O11 0.001170 0.480486 0.120237
O O12 0.869024 0.469120 0.988962
O O13 0.045971 0.174623 0.106459
O O14 0.750000 0.500000 0.360234
O O15 0.000000 0.353632 0.250000
#
# Coordination Sequence:
#
# PCOD8283565 Si02
#       7
#     8  16  16  16  16  16  16
#     4  12  26  48  66  88 120 180 250 270 326 430
#     4  12  25  42  65  90 130 175 228 285 333 398
#     4  11  24  42  67 107 140 170 226 290 344 395
#     4   9  17  33  61  94 134 173 213 261 330 404
#     4  11  24  42  67 105 139 173 225 289 348 400
#     4   9  17  33  61  96 133 173 212 265 325 403
#     4  12  25  44  71  94 131 183 232 275 335 421
#
# _framework density 22.733519000000001
#
# number of rings (size 3 to 8) (size 9 to 14) (size 15 to 20)
#    0.000    1.231    3.077    3.231    0.000    5.538 
#    2.769    0.000    0.000    2.769    8.000    0.000 
#    0.000    0.000    0.000    0.000    0.000    0.000 
#
# Total GULP energy -644567.410255 kJ/mol
# GULP energy per Si atom -12395.527120 kJ/mol
# Density = 2.268178 g / cm^3
# Si number density = 22.733519 Si / 1000 Ang^3
#
#
#
# Elastic Constant Matrix: (Units=GPa)
#
#
# Indices 1 2 3 4 5 6 
#
# 1 156.5504 74.4303 26.8294 0.0000 0.0000 0.0000
# 2 74.4303 167.7919 20.9596 0.0000 0.0000 0.0000
# 3 26.8294 20.9596 64.0373 0.0000 0.0000 0.0000
# 4 0.0000 0.0000 0.0000 11.7740 0.0000 0.0000
# 5 0.0000 0.0000 0.0000 0.0000 33.7912 0.0000
# 6 0.0000 0.0000 0.0000 0.0000 0.0000 48.1710
#
#
#
# Elastic Compliance Matrix: (Units=1/GPa)
#
#
# Indices 1 2 3 4 5 6 
#
# 1 0.008437 -0.003442 -0.002408 0.000000 0.000000 0.000000
# 2 -0.003442 0.007618 -0.001051 0.000000 0.000000 0.000000
# 3 -0.002408 -0.001051 0.016969 0.000000 0.000000 0.000000
# 4 0.000000 0.000000 0.000000 0.084933 0.000000 0.000000
# 5 0.000000 0.000000 0.000000 0.000000 0.029593 0.000000
# 6 0.000000 0.000000 0.000000 0.000000 0.000000 0.020759
#
#
# Mechanical properties :
#
#
# Convention : Reuss Voigt Hill
#
# Bulk Modulus (GPa) = 52.02649 70.31311 61.16980
# Shear Modulus (GPa) = 26.52258 36.49128 31.50693
#
# Velocity S-wave (km/s) = 3.41936 4.01081 3.72684
# Velocity P-wave (km/s) = 6.20681 7.24191 6.74424
#
# Compressibility (1/GPa) = 0.01922098
#
# Stress axis : x y z
#
# Youngs Moduli (GPa) = 118.52963 131.27248 58.93101
#
# Poissons Ratio (x) = 0.45179 0.14192
# Poissons Ratio (y) = 0.40793 0.06196
# Poissons Ratio (z) = 0.28545 0.13802
#
# Static dielectric constant tensor:
#      x y z
#    x 4.442480 0.000000 0.000000 
#    y 0.000000 4.351300 0.000000 
#    z 0.000000 0.000000 3.632330 
# 
# 
# High freq. dielectric constant tensor:
#      x y z
#    x 1.920400 0.000000 0.000000 
#    y 0.000000 1.904210 0.000000 
#    z 0.000000 0.000000 1.850470 
# 
# From -- ./inp_files/36564.got.cif
#   From: 2010.03.12/outbox.cif.g09.slc.cpg/sg68_19_cif.got.tgz:36564.got - 2010.04.10 23:14:56.
