data_PCOD8283376
_publ_section_title
;
Structure prediction by ZEFSAII (Michael W. Deem and Ramdas Pophale) SiO2 
 PCOD8283376
Probable space group: C C C A
;
_chemical_formula_sum "Si O2"
_cell_formula_units_Z 112
_cell_length_a 13.709072
_cell_length_b 17.668484
_cell_length_c 24.235923
_cell_angle_alpha 90.000000
_cell_angle_beta 90.000000
_cell_angle_gamma 90.000000
_cell_volume 5870.389383
_symmetry_space_group_name_H-M "C C C A"
_symmetry_group_IT_number 68
_space_group.IT_coordinate_system_code '2'
_symmetry_cell_setting 'orthorhombic'
loop_
_space_group_symop_operation_xyz
x,y,z
-x,1/2-y,z
x,1/2-y,1/2-z
-x,y,1/2-z
-x,-y,-z
x,1/2+y,-z
-x,1/2+y,1/2+z
x,-y,1/2+z
1/2+x,1/2+y,z
1/2-x,-y,z
1/2+x,-y,1/2-z
1/2-x,1/2+y,1/2-z
1/2-x,1/2-y,-z
1/2+x,y,-z
1/2-x,y,1/2+z
1/2+x,1/2-y,1/2+z
loop_
_atom_site_type_symbol
_atom_site_label
_atom_site_fract_x
_atom_site_fract_y
_atom_site_fract_z
Si Si1 0.886249 0.660551 0.755425
Si Si2 0.509267 0.613446 0.529760
Si Si3 0.487360 0.955687 0.083167
Si Si4 0.318401 0.065843 0.856581
Si Si5 0.294076 0.153490 0.449044
Si Si6 0.795726 0.325056 0.561481
Si Si7 0.200281 0.079853 0.152488
O O1 0.872251 0.750000 0.750000
O O2 0.843158 0.632056 0.813496
O O3 0.820952 0.620318 0.709787
O O4 0.000000 0.638230 0.750000
O O5 0.506181 0.608576 0.463183
O O6 0.543538 0.532948 0.553655
O O7 0.408752 0.640058 0.556449
O O8 0.589575 0.674596 0.547399
O O9 0.581142 0.969626 0.121361
O O10 0.400328 0.927109 0.120588
O O11 0.260820 0.097521 0.908737
O O12 0.250000 0.000000 0.829987
O O13 0.262808 0.134546 0.511715
O O14 0.263289 0.238312 0.432641
O O15 0.774922 0.368682 0.617967
O O16 0.250000 0.000000 0.164948
#
# Coordination Sequence:
#
# PCOD8283376 Si02
#       7
#    16  16  16  16  16  16  16
#     4  11  25  44  66  91 121 157 203 263 319 370
#     4  11  21  38  58  90 131 167 201 253 290 373
#     4  11  22  35  63  94 122 157 211 247 300 355
#     4  12  23  42  65  90 121 162 207 259 304 371
#     4  11  23  37  58  90 127 167 205 248 308 365
#     4  11  23  37  58  90 127 167 205 248 308 365
#     4  12  23  42  65  90 121 162 207 259 304 371
#
# _framework density 19.078800999999999
#
# number of rings (size 3 to 8) (size 9 to 14) (size 15 to 20)
#    0.000    0.714    7.143    1.714    0.000    0.571 
#    0.000    0.000    0.000    0.000    0.000    4.000 
#    0.000    0.000    0.000    0.000    0.000    0.000 
#
# Total GULP energy -694700.718206 kJ/mol
# GULP energy per Si atom -12405.369968 kJ/mol
# Density = 1.903538 g / cm^3
# Si number density = 19.078801 Si / 1000 Ang^3
#
#
#
# Elastic Constant Matrix: (Units=GPa)
#
#
# Indices 1 2 3 4 5 6 
#
# 1 92.7157 12.1821 15.0765 0.0000 0.0000 0.0000
# 2 12.1821 72.9941 26.3275 0.0000 0.0000 0.0000
# 3 15.0765 26.3275 76.3453 0.0000 0.0000 0.0000
# 4 0.0000 0.0000 0.0000 26.0030 0.0000 0.0000
# 5 0.0000 0.0000 0.0000 0.0000 30.6026 0.0000
# 6 0.0000 0.0000 0.0000 0.0000 0.0000 28.6491
#
#
#
# Elastic Compliance Matrix: (Units=1/GPa)
#
#
# Indices 1 2 3 4 5 6 
#
# 1 0.011239 -0.001228 -0.001796 0.000000 0.000000 0.000000
# 2 -0.001228 0.015780 -0.005199 0.000000 0.000000 0.000000
# 3 -0.001796 -0.005199 0.015246 0.000000 0.000000 0.000000
# 4 0.000000 0.000000 0.000000 0.038457 0.000000 0.000000
# 5 0.000000 0.000000 0.000000 0.000000 0.032677 0.000000
# 6 0.000000 0.000000 0.000000 0.000000 0.000000 0.034905
#
#
# Mechanical properties :
#
#
# Convention : Reuss Voigt Hill
#
# Bulk Modulus (GPa) = 38.73160 38.80303 38.76731
# Shear Modulus (GPa) = 28.84229 29.61554 29.22892
#
# Velocity S-wave (km/s) = 3.89234 3.94417 3.91834
# Velocity P-wave (km/s) = 6.36752 6.41283 6.39021
#
# Compressibility (1/GPa) = 0.02581871
#
# Stress axis : x y z
#
# Youngs Moduli (GPa) = 88.97546 63.37172 65.59102
#
# Poissons Ratio (x) = 0.07782 0.11780
# Poissons Ratio (y) = 0.10925 0.34102
# Poissons Ratio (z) = 0.15980 0.32948
#
# Static dielectric constant tensor:
#      x y z
#    x 3.550880 0.000000 0.000000 
#    y 0.000000 3.418290 0.000000 
#    z 0.000000 0.000000 3.431220 
# 
# 
# High freq. dielectric constant tensor:
#      x y z
#    x 1.753160 0.000000 0.000000 
#    y 0.000000 1.743110 0.000000 
#    z 0.000000 0.000000 1.734280 
# 
# From -- ./inp_files/22611.got.cif
#   From: 2010.03.12/outbox.cif.g09.slc.cpg/sg68_12_cif.got.tgz:22611.got - 2010.04.10 23:14:56.
