data_PCOD8283318
_publ_section_title
;
Structure prediction by ZEFSAII (Michael W. Deem and Ramdas Pophale) SiO2 
 PCOD8283318
Probable space group: C C C A
;
_chemical_formula_sum "Si O2"
_cell_formula_units_Z 60
_cell_length_a 27.238541
_cell_length_b 18.055545
_cell_length_c 4.903843
_cell_angle_alpha 90.000000
_cell_angle_beta 90.000000
_cell_angle_gamma 90.000000
_cell_volume 2411.742857
_symmetry_space_group_name_H-M "C C C A"
_symmetry_group_IT_number 68
_space_group.IT_coordinate_system_code '2'
_symmetry_cell_setting 'orthorhombic'
loop_
_space_group_symop_operation_xyz
x,y,z
-x,1/2-y,z
x,1/2-y,1/2-z
-x,y,1/2-z
-x,-y,-z
x,1/2+y,-z
-x,1/2+y,1/2+z
x,-y,1/2+z
1/2+x,1/2+y,z
1/2-x,-y,z
1/2+x,-y,1/2-z
1/2-x,1/2+y,1/2-z
1/2-x,1/2-y,-z
1/2+x,y,-z
1/2-x,y,1/2+z
1/2+x,1/2-y,1/2+z
loop_
_atom_site_type_symbol
_atom_site_label
_atom_site_fract_x
_atom_site_fract_y
_atom_site_fract_z
Si Si1 0.717197 0.631540 0.515807
Si Si2 0.879500 0.952428 0.391477
Si Si3 0.500000 0.250000 0.750000
Si Si4 0.662342 0.750000 0.250000
Si Si5 0.084334 0.680260 0.073238
O O1 0.764283 0.620089 0.706239
O O2 0.676821 0.573724 0.623186
O O3 0.694570 0.715184 0.498072
O O4 0.916540 0.890338 0.273381
O O5 0.889777 0.974780 0.704261
O O6 0.531665 0.306355 0.566128
O O7 0.628248 0.820017 0.348008
O O8 0.098811 0.750000 0.250000
#
# Coordination Sequence:
#
# PCOD8283318 Si02
#       5
#    16  16   4   8  16
#     4  12  25  41  68 104 148 198 256 313 359 422
#     4  12  27  47  71 105 153 203 247 300 377 450
#     4  10  26  44  84 114 144 176 264 316 390 462
#     4  11  22  41  70 110 148 196 256 319 388 437
#     4  11  23  47  78 107 146 195 248 314 386 468
#
# _framework density 24.878274999999999
#
# number of rings (size 3 to 8) (size 9 to 14) (size 15 to 20)
#    0.000    0.533    2.667    6.000    3.733    3.200 
#    0.000    1.333    0.000    0.000    0.000    0.000 
#    0.000    0.000    0.000    0.000    0.000    0.000 
#
# Total GULP energy -371828.701838 kJ/mol
# GULP energy per Si atom -12394.290061 kJ/mol
# Density = 2.482165 g / cm^3
# Si number density = 24.878275 Si / 1000 Ang^3
#
#
#
# Elastic Constant Matrix: (Units=GPa)
#
#
# Indices 1 2 3 4 5 6 
#
# 1 104.9094 22.5215 33.6704 0.0000 0.0000 0.0000
# 2 22.5215 89.6629 18.6774 0.0000 0.0000 0.0000
# 3 33.6704 18.6774 102.9642 0.0000 0.0000 0.0000
# 4 0.0000 0.0000 0.0000 53.8548 0.0000 0.0000
# 5 0.0000 0.0000 0.0000 0.0000 280.1528 0.0000
# 6 0.0000 0.0000 0.0000 0.0000 0.0000 -812.8394
#
#
#
# Elastic Compliance Matrix: (Units=1/GPa)
#
#
# Indices 1 2 3 4 5 6 
#
# 1 0.011016 -0.002096 -0.003222 0.000000 0.000000 0.000000
# 2 -0.002096 0.011990 -0.001490 0.000000 0.000000 0.000000
# 3 -0.003222 -0.001490 0.011036 0.000000 0.000000 0.000000
# 4 0.000000 0.000000 0.000000 0.018568 0.000000 0.000000
# 5 0.000000 0.000000 0.000000 0.000000 0.003569 0.000000
# 6 0.000000 0.000000 0.000000 0.000000 0.000000 -0.001230
#
#
# Mechanical properties :
#
#
# Convention : Reuss Voigt Hill
#
# Bulk Modulus (GPa) = 48.95575 49.69724 49.32649
# Shear Modulus (GPa) = 66.33646 -80.92187 -7.29271
#
# Velocity S-wave (km/s) = 5.16936 -5.70944 -1.71398
# Velocity P-wave (km/s) = 7.43980 4.84191 3.99415
#
# Compressibility (1/GPa) = 0.02042661
#
# Stress axis : x y z
#
# Youngs Moduli (GPa) = 90.77613 83.40572 90.61252
#
# Poissons Ratio (x) = 0.17480 0.29197
# Poissons Ratio (y) = 0.19025 0.13497
# Poissons Ratio (z) = 0.29250 0.12423
#
# Static dielectric constant tensor:
#      x y z
#    x 4.271110 0.000000 0.000000 
#    y 0.000000 4.455480 0.000000 
#    z 0.000000 0.000000 5.696760 
# 
# 
# High freq. dielectric constant tensor:
#      x y z
#    x 1.974590 0.000000 0.000000 
#    y 0.000000 1.972960 0.000000 
#    z 0.000000 0.000000 2.011820 
# 
# From -- ./inp_files/2227.got.cif
#   From: 2010.03.12/outbox.cif.g09.slc.cpg/sg68_2_cif.got.tgz:2227.got - 2010.04.10 23:14:56.
