data_PCOD8283509
_publ_section_title
;
Structure prediction by ZEFSAII (Michael W. Deem and Ramdas Pophale) SiO2 
 PCOD8283509
Probable space group: C C C A
;
_chemical_formula_sum "Si O2"
_cell_formula_units_Z 96
_cell_length_a 23.673479
_cell_length_b 14.621008
_cell_length_c 13.204326
_cell_angle_alpha 90.000000
_cell_angle_beta 90.000000
_cell_angle_gamma 90.000000
_cell_volume 4570.415020
_symmetry_space_group_name_H-M "C C C A"
_symmetry_group_IT_number 68
_space_group.IT_coordinate_system_code '2'
_symmetry_cell_setting 'orthorhombic'
loop_
_space_group_symop_operation_xyz
x,y,z
-x,1/2-y,z
x,1/2-y,1/2-z
-x,y,1/2-z
-x,-y,-z
x,1/2+y,-z
-x,1/2+y,1/2+z
x,-y,1/2+z
1/2+x,1/2+y,z
1/2-x,-y,z
1/2+x,-y,1/2-z
1/2-x,1/2+y,1/2-z
1/2-x,1/2-y,-z
1/2+x,y,-z
1/2-x,y,1/2+z
1/2+x,1/2-y,1/2+z
loop_
_atom_site_type_symbol
_atom_site_label
_atom_site_fract_x
_atom_site_fract_y
_atom_site_fract_z
Si Si1 0.000000 0.750000 0.572931
Si Si2 0.318382 0.250000 0.250000
Si Si3 0.250000 0.500000 0.546681
Si Si4 0.049651 0.571062 0.006312
Si Si5 0.861064 0.580522 0.663311
Si Si6 0.914626 0.250000 0.250000
Si Si7 0.644668 0.930876 0.669119
Si Si8 0.249549 0.663219 0.426617
O O1 0.979887 0.670384 0.497072
O O2 0.949181 0.775357 0.648843
O O3 0.357567 0.177692 0.307937
O O4 0.278983 0.310114 0.322439
O O5 0.297430 0.550871 0.610778
O O6 0.217276 0.578763 0.481465
O O7 0.086501 0.556745 0.906842
O O8 0.087434 0.551835 0.106008
O O9 0.000000 0.500000 0.000000
O O10 0.875137 0.662410 0.739165
O O11 0.850313 0.490279 0.729131
O O12 0.810368 0.616636 0.593237
O O13 0.250000 0.750000 0.500000
#
# Coordination Sequence:
#
# PCOD8283509 Si02
#       8
#     8   8   8  16  16   8  16  16
#     4   9  20  40  62  93 128 166 228 285 330 395
#     4  12  25  44  67 103 144 180 227 282 348 412
#     4  12  24  46  66 100 144 178 232 276 346 414
#     4  11  24  45  67  99 133 180 229 285 341 407
#     4  11  23  42  67  99 131 180 222 279 341 403
#     4   9  19  36  67  94 124 171 227 278 333 400
#     4  12  26  44  68 104 140 184 229 280 346 415
#     4  12  24  44  67 100 139 178 227 280 340 413
#
# _framework density 21.004656000000001
#
# number of rings (size 3 to 8) (size 9 to 14) (size 15 to 20)
#    0.000    0.833    3.333    3.500    2.333    3.333 
#    0.000    0.000    0.000    0.000    0.000    0.000 
#    0.000    0.000    0.000    0.000    0.000    0.000 
#
# Total GULP energy -595098.079610 kJ/mol
# GULP energy per Si atom -12397.876659 kJ/mol
# Density = 2.095685 g / cm^3
# Si number density = 21.004656 Si / 1000 Ang^3
#
#
#
# Elastic Constant Matrix: (Units=GPa)
#
#
# Indices 1 2 3 4 5 6 
#
# 1 98.9091 52.0713 38.3097 0.0000 0.0000 0.0000
# 2 52.0713 156.2020 64.0927 0.0000 0.0000 0.0000
# 3 38.3097 64.0927 93.9963 0.0000 0.0000 0.0000
# 4 0.0000 0.0000 0.0000 52.5826 0.0000 0.0000
# 5 0.0000 0.0000 0.0000 0.0000 17.6714 0.0000
# 6 0.0000 0.0000 0.0000 0.0000 0.0000 36.8376
#
#
#
# Elastic Compliance Matrix: (Units=1/GPa)
#
#
# Indices 1 2 3 4 5 6 
#
# 1 0.012935 -0.002984 -0.003237 0.000000 0.000000 0.000000
# 2 -0.002984 0.009577 -0.005314 0.000000 0.000000 0.000000
# 3 -0.003237 -0.005314 0.015582 0.000000 0.000000 0.000000
# 4 0.000000 0.000000 0.000000 0.019018 0.000000 0.000000
# 5 0.000000 0.000000 0.000000 0.000000 0.056589 0.000000
# 6 0.000000 0.000000 0.000000 0.000000 0.000000 0.027146
#
#
# Mechanical properties :
#
#
# Convention : Reuss Voigt Hill
#
# Bulk Modulus (GPa) = 66.56351 73.11720 69.84035
# Shear Modulus (GPa) = 29.59895 34.39389 31.99642
#
# Velocity S-wave (km/s) = 3.75795 4.05092 3.90718
# Velocity P-wave (km/s) = 7.11254 7.53429 7.32645
#
# Compressibility (1/GPa) = 0.01502325
#
# Stress axis : x y z
#
# Youngs Moduli (GPa) = 77.30990 104.41542 64.17744
#
# Poissons Ratio (x) = 0.31153 0.20777
# Poissons Ratio (y) = 0.23066 0.34106
# Poissons Ratio (z) = 0.25029 0.55489
#
# Static dielectric constant tensor:
#      x y z
#    x 3.781150 0.000000 0.000000 
#    y 0.000000 3.998910 0.000000 
#    z 0.000000 0.000000 3.822710 
# 
# 
# High freq. dielectric constant tensor:
#      x y z
#    x 1.813770 0.000000 0.000000 
#    y 0.000000 1.842350 0.000000 
#    z 0.000000 0.000000 1.831530 
# 
# From -- ./inp_files/24519.got.cif
#   From: 2010.03.12/outbox.cif.g09.slc.cpg/sg68_13_cif.got.tgz:24519.got - 2010.04.10 23:14:56.
