data_PCOD8283560
_publ_section_title
;
Structure prediction by ZEFSAII (Michael W. Deem and Ramdas Pophale) SiO2 
 PCOD8283560
Probable space group: C C C A
;
_chemical_formula_sum "Si O2"
_cell_formula_units_Z 88
_cell_length_a 12.673999
_cell_length_b 12.377739
_cell_length_c 26.845720
_cell_angle_alpha 90.000000
_cell_angle_beta 90.000000
_cell_angle_gamma 90.000000
_cell_volume 4211.434451
_symmetry_space_group_name_H-M "C C C A"
_symmetry_group_IT_number 68
_space_group.IT_coordinate_system_code '2'
_symmetry_cell_setting 'orthorhombic'
loop_
_space_group_symop_operation_xyz
x,y,z
-x,1/2-y,z
x,1/2-y,1/2-z
-x,y,1/2-z
-x,-y,-z
x,1/2+y,-z
-x,1/2+y,1/2+z
x,-y,1/2+z
1/2+x,1/2+y,z
1/2-x,-y,z
1/2+x,-y,1/2-z
1/2-x,1/2+y,1/2-z
1/2-x,1/2-y,-z
1/2+x,y,-z
1/2-x,y,1/2+z
1/2+x,1/2-y,1/2+z
loop_
_atom_site_type_symbol
_atom_site_label
_atom_site_fract_x
_atom_site_fract_y
_atom_site_fract_z
Si Si1 0.319256 0.098142 0.362711
Si Si2 0.124268 0.627320 0.246916
Si Si3 0.933628 0.850280 0.965692
Si Si4 0.238381 0.825020 0.096720
Si Si5 0.750000 0.500000 0.673782
Si Si6 0.989359 0.083313 0.930153
O O1 0.328341 0.080959 0.303802
O O2 0.261473 0.207797 0.378516
O O3 0.438904 0.097673 0.381943
O O4 0.250000 0.000000 0.385004
O O5 0.166868 0.750000 0.250000
O O6 0.158864 0.550852 0.292372
O O7 0.000000 0.626453 0.250000
O O8 0.810934 0.829637 0.952674
O O9 0.000000 0.750000 0.944267
O O10 0.947758 0.858483 0.025059
O O11 0.976502 0.957519 0.940139
O O12 0.291428 0.904922 0.137475
O O13 0.121961 0.860318 0.080106
#
# Coordination Sequence:
#
# PCOD8283560 Si02
#       6
#    16  16  16  16   8  16
#     4  12  25  42  67 100 132 172 225 280 330 392
#     4  11  24  41  68  96 131 173 221 274 327 396
#     4  11  24  43  66  98 136 172 217 279 338 395
#     4  12  24  44  70  95 134 181 222 272 337 408
#     4  12  22  44  68  96 130 170 222 268 334 390
#     4  11  25  43  68  98 131 177 227 267 334 406
#
# _framework density 20.895492000000001
#
# number of rings (size 3 to 8) (size 9 to 14) (size 15 to 20)
#    0.000    0.545    4.545    3.818    2.545    5.818 
#    0.000    0.000    0.000    1.091    0.000    0.000 
#    0.000    0.000    0.000    0.000    0.000    0.000 
#
# Total GULP energy -545678.039705 kJ/mol
# GULP energy per Si atom -12401.773630 kJ/mol
# Density = 2.084793 g / cm^3
# Si number density = 20.895492 Si / 1000 Ang^3
#
#
#
# Elastic Constant Matrix: (Units=GPa)
#
#
# Indices 1 2 3 4 5 6 
#
# 1 130.3245 52.5521 58.9315 0.0000 0.0000 0.0000
# 2 52.5521 158.6108 45.4268 0.0000 0.0000 0.0000
# 3 58.9315 45.4268 116.5849 0.0000 0.0000 0.0000
# 4 0.0000 0.0000 0.0000 24.2230 0.0000 0.0000
# 5 0.0000 0.0000 0.0000 0.0000 31.3379 0.0000
# 6 0.0000 0.0000 0.0000 0.0000 0.0000 27.8538
#
#
#
# Elastic Compliance Matrix: (Units=1/GPa)
#
#
# Indices 1 2 3 4 5 6 
#
# 1 0.010602 -0.002226 -0.004492 0.000000 0.000000 0.000000
# 2 -0.002226 0.007564 -0.001822 0.000000 0.000000 0.000000
# 3 -0.004492 -0.001822 0.011558 0.000000 0.000000 0.000000
# 4 0.000000 0.000000 0.000000 0.041283 0.000000 0.000000
# 5 0.000000 0.000000 0.000000 0.000000 0.031910 0.000000
# 6 0.000000 0.000000 0.000000 0.000000 0.000000 0.035902
#
#
# Mechanical properties :
#
#
# Convention : Reuss Voigt Hill
#
# Bulk Modulus (GPa) = 79.08821 79.92678 79.50749
# Shear Modulus (GPa) = 31.22780 33.25691 32.24235
#
# Velocity S-wave (km/s) = 3.87004 3.99379 3.93240
# Velocity P-wave (km/s) = 7.60928 7.72016 7.66492
#
# Compressibility (1/GPa) = 0.01264411
#
# Stress axis : x y z
#
# Youngs Moduli (GPa) = 94.32216 132.20156 86.52163
#
# Poissons Ratio (x) = 0.29432 0.38862
# Poissons Ratio (y) = 0.20999 0.15764
# Poissons Ratio (z) = 0.42366 0.24087
#
# Static dielectric constant tensor:
#      x y z
#    x 3.604300 0.000000 0.000000 
#    y 0.000000 4.125240 0.000000 
#    z 0.000000 0.000000 3.912620 
# 
# 
# High freq. dielectric constant tensor:
#      x y z
#    x 1.809830 0.000000 0.000000 
#    y 0.000000 1.840980 0.000000 
#    z 0.000000 0.000000 1.825450 
# 
# From -- ./inp_files/54619.got.cif
#   From: 2010.03.12/outbox.cif.g09.slc.cpg/sg68_28_cif.got.tgz:54619.got - 2010.04.10 23:14:56.
