data_PCOD8283122
_publ_section_title
;
Structure prediction by ZEFSAII (Michael W. Deem and Ramdas Pophale) SiO2 
 PCOD8283122
Probable space group: C C C A
;
_chemical_formula_sum "Si O2"
_cell_formula_units_Z 112
_cell_length_a 11.619611
_cell_length_b 14.598919
_cell_length_c 30.604860
_cell_angle_alpha 90.000000
_cell_angle_beta 90.000000
_cell_angle_gamma 90.000000
_cell_volume 5191.617470
_symmetry_space_group_name_H-M "C C C A"
_symmetry_group_IT_number 68
_space_group.IT_coordinate_system_code '2'
_symmetry_cell_setting 'orthorhombic'
loop_
_space_group_symop_operation_xyz
x,y,z
-x,1/2-y,z
x,1/2-y,1/2-z
-x,y,1/2-z
-x,-y,-z
x,1/2+y,-z
-x,1/2+y,1/2+z
x,-y,1/2+z
1/2+x,1/2+y,z
1/2-x,-y,z
1/2+x,-y,1/2-z
1/2-x,1/2+y,1/2-z
1/2-x,1/2-y,-z
1/2+x,y,-z
1/2-x,y,1/2+z
1/2+x,1/2-y,1/2+z
loop_
_atom_site_type_symbol
_atom_site_label
_atom_site_fract_x
_atom_site_fract_y
_atom_site_fract_z
Si Si1 0.703273 0.103204 0.527230
Si Si2 0.366857 0.648127 0.253598
Si Si3 0.374683 0.757187 0.643616
Si Si4 0.023889 0.647450 0.599056
Si Si5 0.691766 0.406864 0.653873
Si Si6 0.783197 0.098629 0.163396
Si Si7 0.125069 0.735132 0.455203
O O1 0.588924 0.097973 0.558287
O O2 0.799094 0.171801 0.546819
O O3 0.679530 0.148191 0.479992
O O4 0.750000 0.000000 0.521239
O O5 0.309369 0.750000 0.250000
O O6 0.500000 0.663338 0.250000
O O7 0.360496 0.588771 0.297904
O O8 0.308478 0.590104 0.214821
O O9 0.500000 0.750000 0.666499
O O10 0.286082 0.828761 0.663546
O O11 0.326959 0.656255 0.650039
O O12 0.391208 0.793863 0.594491
O O13 0.105461 0.643972 0.641129
O O14 0.000000 0.750000 0.583435
O O15 0.900321 0.608762 0.614685
O O16 0.750000 0.500000 0.639576
O O17 0.750000 0.000000 0.144074
O O18 0.000000 0.750000 0.477181
#
# Coordination Sequence:
#
# PCOD8283122 Si02
#       7
#    16  16  16  16  16  16  16
#     4  11  24  42  70 103 136 180 236 283 349 418
#     4  11  21  41  69  99 137 181 234 286 339 408
#     4  11  25  44  65  94 138 181 220 289 356 408
#     4  12  22  43  71 101 136 179 232 282 341 411
#     4  12  26  43  67 104 138 180 232 287 348 411
#     4  12  24  41  69 101 131 181 234 286 337 409
#     4  10  23  43  66  96 138 180 228 294 351 412
#
# _framework density 21.573238
#
# number of rings (size 3 to 8) (size 9 to 14) (size 15 to 20)
#    0.000    0.714    5.714    1.286    2.000    3.429 
#    0.000    1.429    0.000    0.000    0.000    0.000 
#    0.000    0.000    0.000    0.000    0.000    0.000 
#
# Total GULP energy -693910.858730 kJ/mol
# GULP energy per Si atom -12391.265334 kJ/mol
# Density = 2.152414 g / cm^3
# Si number density = 21.573238 Si / 1000 Ang^3
#
#
#
# Elastic Constant Matrix: (Units=GPa)
#
#
# Indices 1 2 3 4 5 6 
#
# 1 127.6678 52.4931 16.8174 0.0000 0.0000 0.0000
# 2 52.4931 140.7248 22.3553 0.0000 0.0000 0.0000
# 3 16.8174 22.3553 78.2848 0.0000 0.0000 0.0000
# 4 0.0000 0.0000 0.0000 20.1076 0.0000 0.0000
# 5 0.0000 0.0000 0.0000 0.0000 34.1737 0.0000
# 6 0.0000 0.0000 0.0000 0.0000 0.0000 41.5910
#
#
#
# Elastic Compliance Matrix: (Units=1/GPa)
#
#
# Indices 1 2 3 4 5 6 
#
# 1 0.009335 -0.003314 -0.001059 0.000000 0.000000 0.000000
# 2 -0.003314 0.008620 -0.001750 0.000000 0.000000 0.000000
# 3 -0.001059 -0.001750 0.013501 0.000000 0.000000 0.000000
# 4 0.000000 0.000000 0.000000 0.049732 0.000000 0.000000
# 5 0.000000 0.000000 0.000000 0.000000 0.029262 0.000000
# 6 0.000000 0.000000 0.000000 0.000000 0.000000 0.024044
#
#
# Mechanical properties :
#
#
# Convention : Reuss Voigt Hill
#
# Bulk Modulus (GPa) = 52.05386 58.88989 55.47188
# Shear Modulus (GPa) = 32.64915 36.17523 34.41219
#
# Velocity S-wave (km/s) = 3.89448 4.09939 3.99824
# Velocity P-wave (km/s) = 6.66362 7.05433 6.86176
#
# Compressibility (1/GPa) = 0.01921087
#
# Stress axis : x y z
#
# Youngs Moduli (GPa) = 107.12495 116.00711 74.06838
#
# Poissons Ratio (x) = 0.38443 0.07844
# Poissons Ratio (y) = 0.35500 0.12960
# Poissons Ratio (z) = 0.11345 0.20298
#
# Static dielectric constant tensor:
#      x y z
#    x 4.239250 0.000000 0.000000 
#    y 0.000000 3.724080 0.000000 
#    z 0.000000 0.000000 4.133700 
# 
# 
# High freq. dielectric constant tensor:
#      x y z
#    x 1.856800 0.000000 0.000000 
#    y 0.000000 1.838330 0.000000 
#    z 0.000000 0.000000 1.846920 
# 
# From -- ./inp_files/54846.got.cif
#   From: 2010.03.12/outbox.cif.g09.slc.cpg/sg68_28_cif.got.tgz:54846.got - 2010.04.10 23:14:56.
