data_PCOD8283791
_publ_section_title
;
Structure prediction by ZEFSAII (Michael W. Deem and Ramdas Pophale) SiO2 
 PCOD8283791
Probable space group: F M M M
;
_chemical_formula_sum "Si O2"
_cell_formula_units_Z 160
_cell_length_a 26.981805
_cell_length_b 26.773236
_cell_length_c 14.681277
_cell_angle_alpha 90.000000
_cell_angle_beta 90.000000
_cell_angle_gamma 90.000000
_cell_volume 10605.611112
_symmetry_space_group_name_H-M "F M M M"
_symmetry_group_IT_number 69
_symmetry_cell_setting 'orthorhombic'
loop_
_space_group_symop_operation_xyz
x,y,z
-x,-y,z
x,-y,-z
-x,y,-z
-x,-y,-z
x,y,-z
-x,y,z
x,-y,z
x,1/2+y,1/2+z
-x,1/2-y,1/2+z
x,1/2-y,1/2-z
-x,1/2+y,1/2-z
-x,1/2-y,1/2-z
x,1/2+y,1/2-z
-x,1/2+y,1/2+z
x,1/2-y,1/2+z
1/2+x,y,1/2+z
1/2-x,-y,1/2+z
1/2+x,-y,1/2-z
1/2-x,y,1/2-z
1/2-x,-y,1/2-z
1/2+x,y,1/2-z
1/2-x,y,1/2+z
1/2+x,-y,1/2+z
1/2+x,1/2+y,z
1/2-x,1/2-y,z
1/2+x,1/2-y,-z
1/2-x,1/2+y,-z
1/2-x,1/2-y,-z
1/2+x,1/2+y,-z
1/2-x,1/2+y,z
1/2+x,1/2-y,z
loop_
_atom_site_type_symbol
_atom_site_label
_atom_site_fract_x
_atom_site_fract_y
_atom_site_fract_z
Si Si1 0.943903 0.055905 0.892331
Si Si2 0.204983 0.191433 0.500000
Si Si3 0.855436 0.376789 0.647755
Si Si4 0.793919 0.140034 0.311882
Si Si5 0.322579 0.696962 0.000000
Si Si6 0.264872 0.056109 0.603507
O O1 0.909968 0.099561 0.850966
O O2 0.000000 0.067196 0.861155
O O3 0.928462 0.000000 0.859136
O O4 0.939282 0.058182 0.000000
O O5 0.189612 0.166710 0.595301
O O6 0.264136 0.186607 0.500000
O O7 0.175322 0.243335 0.500000
O O8 0.843310 0.363071 0.751884
O O9 0.849962 0.326316 0.587990
O O10 0.818220 0.417786 0.607267
O O11 0.750000 0.166511 0.250000
O O12 0.774902 0.084383 0.334262
O O13 0.245793 0.057443 0.500000
O O14 0.269855 0.000000 0.639991
#
# Coordination Sequence:
#
# PCOD8283791 Si02
#       6
#    32  16  32  32  16  32
#     4   9  17  29  48  73 101 127 149 185 238 289
#     4  11  20  36  42  62  96 123 160 204 226 277
#     4  11  18  30  45  71  91 122 158 188 231 287
#     4  10  19  31  45  64  91 126 161 190 227 271
#     4  11  20  30  49  63  92 126 157 197 246 263
#     4  10  17  27  42  60  91 128 154 180 215 265
#
# _framework density 15.086354
#
# number of rings (size 3 to 8) (size 9 to 14) (size 15 to 20)
#    0.000    1.800    7.000    1.200    0.000    6.800 
#    0.000    0.000    0.000    0.000    0.000    4.900 
#    0.000    1.600    0.000    0.000    0.000    0.000 
#
# Total GULP energy -495663.998800 kJ/mol
# GULP energy per Si atom -12391.599970 kJ/mol
# Density = 1.505202 g / cm^3
# Si number density = 15.086354 Si / 1000 Ang^3
#
#
#
# Elastic Constant Matrix: (Units=GPa)
#
#
# Indices 1 2 3 4 5 6 
#
# 1 70.5056 40.9670 33.3917 0.0000 0.0000 0.0000
# 2 40.9670 99.4358 47.4527 0.0000 0.0000 0.0000
# 3 33.3917 47.4527 104.9542 0.0000 0.0000 0.0000
# 4 0.0000 0.0000 0.0000 9.1843 0.0000 0.0000
# 5 0.0000 0.0000 0.0000 0.0000 15.9842 0.0000
# 6 0.0000 0.0000 0.0000 0.0000 0.0000 22.9408
#
#
#
# Elastic Compliance Matrix: (Units=1/GPa)
#
#
# Indices 1 2 3 4 5 6 
#
# 1 0.019493 -0.006467 -0.003278 0.000000 0.000000 0.000000
# 2 -0.006467 0.014969 -0.004710 0.000000 0.000000 0.000000
# 3 -0.003278 -0.004710 0.012701 0.000000 0.000000 0.000000
# 4 0.000000 0.000000 0.000000 0.108882 0.000000 0.000000
# 5 0.000000 0.000000 0.000000 0.000000 0.062562 0.000000
# 6 0.000000 0.000000 0.000000 0.000000 0.000000 0.043590
#
#
# Mechanical properties :
#
#
# Convention : Reuss Voigt Hill
#
# Bulk Modulus (GPa) = 54.78772 57.61317 56.20044
# Shear Modulus (GPa) = 16.82417 19.82747 18.32582
#
# Velocity S-wave (km/s) = 3.34307 3.62921 3.48908
# Velocity P-wave (km/s) = 7.16215 7.47218 7.31881
#
# Compressibility (1/GPa) = 0.01825226
#
# Stress axis : x y z
#
# Youngs Moduli (GPa) = 51.29977 66.80512 78.73640
#
# Poissons Ratio (x) = 0.43201 0.25810
# Poissons Ratio (y) = 0.33174 0.37088
# Poissons Ratio (z) = 0.16816 0.31468
#
# Static dielectric constant tensor:
#      x y z
#    x 2.667800 0.000000 0.000000 
#    y 0.000000 3.006270 0.000000 
#    z 0.000000 0.000000 3.004870 
# 
# 
# High freq. dielectric constant tensor:
#      x y z
#    x 1.530900 0.000000 0.000000 
#    y 0.000000 1.573460 0.000000 
#    z 0.000000 0.000000 1.578970 
# 
# From -- ./inp_files/18051.got.cif
#   From: 2010.03.12/outbox.cif.g09.slc.cpg/sg69_10_cif.got.tgz:18051.got - 2010.04.10 23:52:46.
