data_PCOD8283221
_publ_section_title
;
Structure prediction by ZEFSAII (Michael W. Deem and Ramdas Pophale) SiO2 
 PCOD8283221
Probable space group: C C C A
;
_chemical_formula_sum "Si O2"
_cell_formula_units_Z 64
_cell_length_a 30.058977
_cell_length_b 10.534646
_cell_length_c 9.008471
_cell_angle_alpha 90.000000
_cell_angle_beta 90.000000
_cell_angle_gamma 90.000000
_cell_volume 2852.628569
_symmetry_space_group_name_H-M "C C C A"
_symmetry_group_IT_number 68
_space_group.IT_coordinate_system_code '2'
_symmetry_cell_setting 'orthorhombic'
loop_
_space_group_symop_operation_xyz
x,y,z
-x,1/2-y,z
x,1/2-y,1/2-z
-x,y,1/2-z
-x,-y,-z
x,1/2+y,-z
-x,1/2+y,1/2+z
x,-y,1/2+z
1/2+x,1/2+y,z
1/2-x,-y,z
1/2+x,-y,1/2-z
1/2-x,1/2+y,1/2-z
1/2-x,1/2-y,-z
1/2+x,y,-z
1/2-x,y,1/2+z
1/2+x,1/2-y,1/2+z
loop_
_atom_site_type_symbol
_atom_site_label
_atom_site_fract_x
_atom_site_fract_y
_atom_site_fract_z
Si Si1 0.212081 0.345879 0.048897
Si Si2 0.000000 0.007389 0.750000
Si Si3 0.250000 0.000000 0.690479
Si Si4 0.889212 0.707616 0.916146
Si Si5 0.062304 0.940865 0.496474
O O1 0.210963 0.450535 0.918412
O O2 0.250000 0.250000 0.000000
O O3 0.225658 0.395485 0.210728
O O4 0.163270 0.291637 0.059797
O O5 0.974160 0.090144 0.628958
O O6 0.037305 0.929493 0.656264
O O7 0.900946 0.750000 0.750000
O O8 0.912960 0.576005 0.966096
O O9 0.904200 0.823917 0.020227
#
# Coordination Sequence:
#
# PCOD8283221 Si02
#       5
#    16   8   8  16  16
#     4  11  25  46  71 103 146 196 236 296 358 428
#     4  10  24  50  74 108 142 192 244 290 388 438
#     4  10  24  44  72 102 136 204 240 286 358 426
#     4  12  27  47  73 114 149 184 248 302 361 420
#     4  11  26  47  78 106 145 192 237 308 361 443
#
# _framework density 22.435445999999999
#
# number of rings (size 3 to 8) (size 9 to 14) (size 15 to 20)
#    0.000    1.000    2.500    2.250   10.500    7.000 
#    4.500    0.000    0.000    0.000    0.000    0.000 
#    0.000    0.000    0.000    0.000    0.000    0.000 
#
# Total GULP energy -396494.654703 kJ/mol
# GULP energy per Si atom -12390.457959 kJ/mol
# Density = 2.238438 g / cm^3
# Si number density = 22.435446 Si / 1000 Ang^3
#
#
#
# Elastic Constant Matrix: (Units=GPa)
#
#
# Indices 1 2 3 4 5 6 
#
# 1 146.3337 59.7078 34.8629 0.0000 0.0000 0.0000
# 2 59.7078 138.9693 33.2160 0.0000 0.0000 0.0000
# 3 34.8629 33.2160 119.1227 0.0000 0.0000 0.0000
# 4 0.0000 0.0000 0.0000 2.2803 0.0000 0.0000
# 5 0.0000 0.0000 0.0000 0.0000 27.2994 0.0000
# 6 0.0000 0.0000 0.0000 0.0000 0.0000 35.2091
#
#
#
# Elastic Compliance Matrix: (Units=1/GPa)
#
#
# Indices 1 2 3 4 5 6 
#
# 1 0.008557 -0.003298 -0.001585 0.000000 0.000000 0.000000
# 2 -0.003298 0.008980 -0.001539 0.000000 0.000000 0.000000
# 3 -0.001585 -0.001539 0.009288 0.000000 0.000000 0.000000
# 4 0.000000 0.000000 0.000000 0.438545 0.000000 0.000000
# 5 0.000000 0.000000 0.000000 0.000000 0.036631 0.000000
# 6 0.000000 0.000000 0.000000 0.000000 0.000000 0.028402
#
#
# Mechanical properties :
#
#
# Convention : Reuss Voigt Hill
#
# Bulk Modulus (GPa) = 71.51982 73.33324 72.42653
# Shear Modulus (GPa) = 9.12566 31.40035 20.26300
#
# Velocity S-wave (km/s) = 2.01900 3.74516 3.00854
# Velocity P-wave (km/s) = 6.11411 7.17349 6.66488
#
# Compressibility (1/GPa) = 0.01398214
#
# Stress axis : x y z
#
# Youngs Moduli (GPa) = 116.86670 111.35247 107.66992
#
# Poissons Ratio (x) = 0.36720 0.17063
# Poissons Ratio (y) = 0.38538 0.16571
# Poissons Ratio (z) = 0.18520 0.17137
#
# Static dielectric constant tensor:
#      x y z
#    x 4.126610 0.000000 0.000000 
#    y 0.000000 3.986010 0.000000 
#    z 0.000000 0.000000 4.616570 
# 
# 
# High freq. dielectric constant tensor:
#      x y z
#    x 1.894390 0.000000 0.000000 
#    y 0.000000 1.876450 0.000000 
#    z 0.000000 0.000000 1.906660 
# 
# From -- ./inp_files/9384.got.cif
#   From: 2010.03.12/outbox.cif.g09.slc.cpg/sg68_5_cif.got.tgz:9384.got - 2010.04.10 23:14:56.
