data_PCOD8283663
_publ_section_title
;
Structure prediction by ZEFSAII (Michael W. Deem and Ramdas Pophale) SiO2 
 PCOD8283663
Probable space group: C C C A
;
_chemical_formula_sum "Si O2"
_cell_formula_units_Z 56
_cell_length_a 9.740366
_cell_length_b 18.564230
_cell_length_c 13.393947
_cell_angle_alpha 90.000000
_cell_angle_beta 90.000000
_cell_angle_gamma 90.000000
_cell_volume 2421.925571
_symmetry_space_group_name_H-M "C C C A"
_symmetry_group_IT_number 68
_space_group.IT_coordinate_system_code '2'
_symmetry_cell_setting 'orthorhombic'
loop_
_space_group_symop_operation_xyz
x,y,z
-x,1/2-y,z
x,1/2-y,1/2-z
-x,y,1/2-z
-x,-y,-z
x,1/2+y,-z
-x,1/2+y,1/2+z
x,-y,1/2+z
1/2+x,1/2+y,z
1/2-x,-y,z
1/2+x,-y,1/2-z
1/2-x,1/2+y,1/2-z
1/2-x,1/2-y,-z
1/2+x,y,-z
1/2-x,y,1/2+z
1/2+x,1/2-y,1/2+z
loop_
_atom_site_type_symbol
_atom_site_label
_atom_site_fract_x
_atom_site_fract_y
_atom_site_fract_z
Si Si1 0.250000 0.500000 0.674771
Si Si2 0.922008 0.174087 0.339222
Si Si3 0.563703 0.424847 0.977847
Si Si4 0.366948 0.623425 0.804196
O O1 0.320348 0.439050 0.605295
O O2 0.346845 0.547207 0.746919
O O3 0.762762 0.178442 0.304352
O O4 0.000000 0.250000 0.353663
O O5 0.000000 0.132167 0.250000
O O6 0.942790 0.127554 0.438564
O O7 0.500000 0.500000 0.000000
O O8 0.617179 0.390138 0.078726
O O9 0.500000 0.659849 0.750000
#
# Coordination Sequence:
#
# PCOD8283663 Si02
#       4
#     8  16  16  16
#     4  12  22  42  68 112 156 192 246 312 382 454
#     4  11  26  50  75 103 151 210 248 309 383 449
#     4  12  24  43  75 113 153 197 249 312 380 446
#     4  12  26  43  72 112 151 199 252 313 373 458
#
# _framework density 23.122098999999999
#
# number of rings (size 3 to 8) (size 9 to 14) (size 15 to 20)
#    0.000    0.286    5.714    4.286    0.000    1.143 
#    0.000    5.714    0.000    0.000    0.000    0.000 
#    0.000    0.000    0.000    0.000    0.000    0.000 
#
# Total GULP energy -346880.671035 kJ/mol
# GULP energy per Si atom -12388.595394 kJ/mol
# Density = 2.306947 g / cm^3
# Si number density = 23.122099 Si / 1000 Ang^3
#
#
#
# Elastic Constant Matrix: (Units=GPa)
#
#
# Indices 1 2 3 4 5 6 
#
# 1 186.3413 60.5208 63.2943 0.0000 0.0000 0.0000
# 2 60.5208 95.3578 42.0440 0.0000 0.0000 0.0000
# 3 63.2943 42.0440 145.4472 0.0000 0.0000 0.0000
# 4 0.0000 0.0000 0.0000 30.1268 0.0000 0.0000
# 5 0.0000 0.0000 0.0000 0.0000 45.2331 0.0000
# 6 0.0000 0.0000 0.0000 0.0000 0.0000 36.7053
#
#
#
# Elastic Compliance Matrix: (Units=1/GPa)
#
#
# Indices 1 2 3 4 5 6 
#
# 1 0.007280 -0.003694 -0.002100 0.000000 0.000000 0.000000
# 2 -0.003694 0.013893 -0.002408 0.000000 0.000000 0.000000
# 3 -0.002100 -0.002408 0.008485 0.000000 0.000000 0.000000
# 4 0.000000 0.000000 0.000000 0.033193 0.000000 0.000000
# 5 0.000000 0.000000 0.000000 0.000000 0.022108 0.000000
# 6 0.000000 0.000000 0.000000 0.000000 0.000000 0.027244
#
#
# Mechanical properties :
#
#
# Convention : Reuss Voigt Hill
#
# Bulk Modulus (GPa) = 75.45494 84.31829 79.88661
# Shear Modulus (GPa) = 37.58653 39.83217 38.70935
#
# Velocity S-wave (km/s) = 4.03621 4.15503 4.09605
# Velocity P-wave (km/s) = 7.37736 7.71782 7.54951
#
# Compressibility (1/GPa) = 0.01325294
#
# Stress axis : x y z
#
# Youngs Moduli (GPa) = 137.36942 71.97673 117.84920
#
# Poissons Ratio (x) = 0.26590 0.24748
# Poissons Ratio (y) = 0.50748 0.28384
# Poissons Ratio (z) = 0.28847 0.17336
#
# Static dielectric constant tensor:
#      x y z
#    x 2.783700 0.000000 0.000000 
#    y 0.000000 3.375290 0.000000 
#    z 0.000000 0.000000 4.435240 
# 
# 
# High freq. dielectric constant tensor:
#      x y z
#    x 1.922330 0.000000 0.000000 
#    y 0.000000 1.886350 0.000000 
#    z 0.000000 0.000000 1.938350 
# 
# From -- ./inp_files/19041.got.cif
#   From: 2010.03.12/outbox.cif.g09.slc.cpg/sg68_10_cif.got.tgz:19041.got - 2010.04.10 23:14:56.
