data_PCOD8283291
_publ_section_title
;
Structure prediction by ZEFSAII (Michael W. Deem and Ramdas Pophale) SiO2 
 PCOD8283291
Probable space group: C C C A
;
_chemical_formula_sum "Si O2"
_cell_formula_units_Z 72
_cell_length_a 23.683221
_cell_length_b 9.144560
_cell_length_c 15.331565
_cell_angle_alpha 90.000000
_cell_angle_beta 90.000000
_cell_angle_gamma 90.000000
_cell_volume 3320.397437
_symmetry_space_group_name_H-M "C C C A"
_symmetry_group_IT_number 68
_space_group.IT_coordinate_system_code '2'
_symmetry_cell_setting 'orthorhombic'
loop_
_space_group_symop_operation_xyz
x,y,z
-x,1/2-y,z
x,1/2-y,1/2-z
-x,y,1/2-z
-x,-y,-z
x,1/2+y,-z
-x,1/2+y,1/2+z
x,-y,1/2+z
1/2+x,1/2+y,z
1/2-x,-y,z
1/2+x,-y,1/2-z
1/2-x,1/2+y,1/2-z
1/2-x,1/2-y,-z
1/2+x,y,-z
1/2-x,y,1/2+z
1/2+x,1/2-y,1/2+z
loop_
_atom_site_type_symbol
_atom_site_label
_atom_site_fract_x
_atom_site_fract_y
_atom_site_fract_z
Si Si1 0.691120 0.920077 0.908579
Si Si2 0.150943 0.750000 0.250000
Si Si3 0.629122 0.803841 0.477264
Si Si4 0.552855 0.353265 0.367723
Si Si5 0.054055 0.677680 0.656713
O O1 0.688247 0.865704 0.807189
O O2 0.750000 0.000000 0.926767
O O3 0.644999 0.041980 0.932933
O O4 0.680028 0.777875 0.970626
O O5 0.110910 0.830845 0.316805
O O6 0.572330 0.834288 0.532680
O O7 0.610675 0.694673 0.400026
O O8 0.500000 0.250000 0.344194
O O9 0.533883 0.511646 0.338293
O O10 0.065495 0.750000 0.750000
O O11 0.000000 0.750000 0.610766
#
# Coordination Sequence:
#
# PCOD8283291 Si02
#       5
#    16   8  16  16  16
#     4  11  24  47  71 102 133 183 236 294 347 403
#     4  10  25  44  68 100 140 182 227 284 350 404
#     4  11  23  44  71  97 140 176 235 284 346 407
#     4  11  24  41  68 100 141 184 223 275 343 421
#     4  11  25  39  63 101 137 185 227 276 343 414
#
# _framework density 21.684152000000001
#
# number of rings (size 3 to 8) (size 9 to 14) (size 15 to 20)
#    0.000    1.111    2.222    3.000   12.444    1.778 
#    6.000    2.222    0.000    0.000    0.000    0.000 
#    0.000    0.000    0.000    0.000    0.000    0.000 
#
# Total GULP energy -446084.250467 kJ/mol
# GULP energy per Si atom -12391.229180 kJ/mol
# Density = 2.163480 g / cm^3
# Si number density = 21.684152 Si / 1000 Ang^3
#
#
#
# Elastic Constant Matrix: (Units=GPa)
#
#
# Indices 1 2 3 4 5 6 
#
# 1 81.6928 33.2415 41.8901 0.0000 0.0000 0.0000
# 2 33.2415 153.9895 52.3623 0.0000 0.0000 0.0000
# 3 41.8901 52.3623 117.4925 0.0000 0.0000 0.0000
# 4 0.0000 0.0000 0.0000 29.5196 0.0000 0.0000
# 5 0.0000 0.0000 0.0000 0.0000 26.4515 0.0000
# 6 0.0000 0.0000 0.0000 0.0000 0.0000 36.7397
#
#
#
# Elastic Compliance Matrix: (Units=1/GPa)
#
#
# Indices 1 2 3 4 5 6 
#
# 1 0.015353 -0.001712 -0.004711 0.000000 0.000000 0.000000
# 2 -0.001712 0.007845 -0.002886 0.000000 0.000000 0.000000
# 3 -0.004711 -0.002886 0.011477 0.000000 0.000000 0.000000
# 4 0.000000 0.000000 0.000000 0.033876 0.000000 0.000000
# 5 0.000000 0.000000 0.000000 0.000000 0.037805 0.000000
# 6 0.000000 0.000000 0.000000 0.000000 0.000000 0.027219
#
#
# Mechanical properties :
#
#
# Convention : Reuss Voigt Hill
#
# Bulk Modulus (GPa) = 62.27737 67.57362 64.92549
# Shear Modulus (GPa) = 31.73705 33.58755 32.66230
#
# Velocity S-wave (km/s) = 3.82986 3.93993 3.88529
# Velocity P-wave (km/s) = 6.95267 7.20609 7.08052
#
# Compressibility (1/GPa) = 0.01605720
#
# Stress axis : x y z
#
# Youngs Moduli (GPa) = 65.13217 127.47242 87.13253
#
# Poissons Ratio (x) = 0.21829 0.41047
# Poissons Ratio (y) = 0.11154 0.25143
# Poissons Ratio (z) = 0.30683 0.36784
#
# Static dielectric constant tensor:
#      x y z
#    x 3.976580 0.000000 0.000000 
#    y 0.000000 4.010740 0.000000 
#    z 0.000000 0.000000 4.154860 
# 
# 
# High freq. dielectric constant tensor:
#      x y z
#    x 1.836170 0.000000 0.000000 
#    y 0.000000 1.862930 0.000000 
#    z 0.000000 0.000000 1.862040 
# 
# From -- ./inp_files/19473.got.cif
#   From: 2010.03.12/outbox.cif.g09.slc.cpg/sg68_10_cif.got.tgz:19473.got - 2010.04.10 23:14:56.
