data_PCOD8283554
_publ_section_title
;
Structure prediction by ZEFSAII (Michael W. Deem and Ramdas Pophale) SiO2 
 PCOD8283554
Probable space group: C C C A
;
_chemical_formula_sum "Si O2"
_cell_formula_units_Z 64
_cell_length_a 4.868233
_cell_length_b 23.917085
_cell_length_c 23.836167
_cell_angle_alpha 90.000000
_cell_angle_beta 90.000000
_cell_angle_gamma 90.000000
_cell_volume 2775.338897
_symmetry_space_group_name_H-M "C C C A"
_symmetry_group_IT_number 68
_space_group.IT_coordinate_system_code '2'
_symmetry_cell_setting 'orthorhombic'
loop_
_space_group_symop_operation_xyz
x,y,z
-x,1/2-y,z
x,1/2-y,1/2-z
-x,y,1/2-z
-x,-y,-z
x,1/2+y,-z
-x,1/2+y,1/2+z
x,-y,1/2+z
1/2+x,1/2+y,z
1/2-x,-y,z
1/2+x,-y,1/2-z
1/2-x,1/2+y,1/2-z
1/2-x,1/2-y,-z
1/2+x,y,-z
1/2-x,y,1/2+z
1/2+x,1/2-y,1/2+z
loop_
_atom_site_type_symbol
_atom_site_label
_atom_site_fract_x
_atom_site_fract_y
_atom_site_fract_z
Si Si1 0.448570 0.385763 0.537866
Si Si2 0.766960 0.637233 0.785396
Si Si3 0.747211 0.287602 0.886816
Si Si4 0.985898 0.539609 0.856055
O O1 0.760574 0.391808 0.517081
O O2 0.373520 0.325650 0.563572
O O3 0.419323 0.435284 0.582661
O O4 0.500000 0.617122 0.750000
O O5 0.643417 0.675069 0.835173
O O6 0.968360 0.588539 0.810014
O O7 0.000000 0.670948 0.750000
O O8 0.500000 0.250000 0.864420
O O9 0.000000 0.250000 0.909276
O O10 0.750000 0.500000 0.836415
O O11 0.250000 0.500000 0.855100
#
# Coordination Sequence:
#
# PCOD8283554 Si02
#       4
#    16  16  16  16
#     4  11  24  41  63  93 127 165 211 261 315 378
#     4  11  24  42  64  92 126 164 210 263 318 379
#     4  11  24  41  63  93 127 165 211 261 316 381
#     4  11  24  42  64  92 126 164 210 262 317 379
#
# _framework density 23.060244000000001
#
# number of rings (size 3 to 8) (size 9 to 14) (size 15 to 20)
#    0.000    1.000    0.000    6.000    0.000   19.000 
#    0.000    0.000    0.000    0.000    0.000    0.000 
#    0.000    0.000    0.000    0.000    0.000    0.000 
#
# Total GULP energy -396588.125842 kJ/mol
# GULP energy per Si atom -12393.378933 kJ/mol
# Density = 2.300776 g / cm^3
# Si number density = 23.060244 Si / 1000 Ang^3
#
#
#
# Elastic Constant Matrix: (Units=GPa)
#
#
# Indices 1 2 3 4 5 6 
#
# 1 134.2078 27.4098 17.0211 0.0000 0.0000 0.0000
# 2 27.4098 55.7940 -2.1551 0.0000 0.0000 0.0000
# 3 17.0211 -2.1551 77.6561 0.0000 0.0000 0.0000
# 4 0.0000 0.0000 0.0000 14.5002 0.0000 0.0000
# 5 0.0000 0.0000 0.0000 0.0000 43.0464 0.0000
# 6 0.0000 0.0000 0.0000 0.0000 0.0000 45.5992
#
#
#
# Elastic Compliance Matrix: (Units=1/GPa)
#
#
# Indices 1 2 3 4 5 6 
#
# 1 0.008582 -0.004293 -0.002000 0.000000 0.000000 0.000000
# 2 -0.004293 0.020090 0.001499 0.000000 0.000000 0.000000
# 3 -0.002000 0.001499 0.013357 0.000000 0.000000 0.000000
# 4 0.000000 0.000000 0.000000 0.068964 0.000000 0.000000
# 5 0.000000 0.000000 0.000000 0.000000 0.023231 0.000000
# 6 0.000000 0.000000 0.000000 0.000000 0.000000 0.021930
#
#
# Mechanical properties :
#
#
# Convention : Reuss Voigt Hill
#
# Bulk Modulus (GPa) = 30.82662 39.13438 34.98050
# Shear Modulus (GPa) = 28.31951 35.65464 31.98707
#
# Velocity S-wave (km/s) = 3.50818 3.93638 3.72843
# Velocity P-wave (km/s) = 5.45955 6.13738 5.80836
#
# Compressibility (1/GPa) = 0.03243950
#
# Stress axis : x y z
#
# Youngs Moduli (GPa) = 116.52838 49.77598 74.86558
#
# Poissons Ratio (x) = 0.21369 0.14974
# Poissons Ratio (y) = 0.50027 -0.11219
# Poissons Ratio (z) = 0.23307 -0.07459
#
# Static dielectric constant tensor:
#      x y z
#    x 4.047210 0.000000 0.000000 
#    y 0.000000 4.217720 0.000000 
#    z 0.000000 0.000000 4.107070 
# 
# 
# High freq. dielectric constant tensor:
#      x y z
#    x 1.924250 0.000000 0.000000 
#    y 0.000000 1.909390 0.000000 
#    z 0.000000 0.000000 1.920690 
# 
# From -- ./inp_files/34949.got.cif
#   From: 2010.03.12/outbox.cif.g09.slc.cpg/sg68_18_cif.got.tgz:34949.got - 2010.04.10 23:14:56.
