data_PCOD8283868
_publ_section_title
;
Structure prediction by ZEFSAII (Michael W. Deem and Ramdas Pophale) SiO2 
 PCOD8283868
Probable space group: F M M M
;
_chemical_formula_sum "Si O2"
_cell_formula_units_Z 176
_cell_length_a 13.902704
_cell_length_b 27.491507
_cell_length_c 25.030432
_cell_angle_alpha 90.000000
_cell_angle_beta 90.000000
_cell_angle_gamma 90.000000
_cell_volume 9566.788410
_symmetry_space_group_name_H-M "F M M M"
_symmetry_group_IT_number 69
_symmetry_cell_setting 'orthorhombic'
loop_
_space_group_symop_operation_xyz
x,y,z
-x,-y,z
x,-y,-z
-x,y,-z
-x,-y,-z
x,y,-z
-x,y,z
x,-y,z
x,1/2+y,1/2+z
-x,1/2-y,1/2+z
x,1/2-y,1/2-z
-x,1/2+y,1/2-z
-x,1/2-y,1/2-z
x,1/2+y,1/2-z
-x,1/2+y,1/2+z
x,1/2-y,1/2+z
1/2+x,y,1/2+z
1/2-x,-y,1/2+z
1/2+x,-y,1/2-z
1/2-x,y,1/2-z
1/2-x,-y,1/2-z
1/2+x,y,1/2-z
1/2-x,y,1/2+z
1/2+x,-y,1/2+z
1/2+x,1/2+y,z
1/2-x,1/2-y,z
1/2+x,1/2-y,-z
1/2-x,1/2+y,-z
1/2-x,1/2-y,-z
1/2+x,1/2+y,-z
1/2-x,1/2+y,z
1/2+x,1/2-y,z
loop_
_atom_site_type_symbol
_atom_site_label
_atom_site_fract_x
_atom_site_fract_y
_atom_site_fract_z
Si Si1 0.267336 0.695772 0.373280
Si Si2 0.395243 0.196611 0.772856
Si Si3 0.247962 0.444000 0.186314
Si Si4 0.109084 0.865230 0.168656
Si Si5 0.614134 0.446127 0.500000
Si Si6 0.885561 0.608987 0.895102
O O1 0.250000 0.750000 0.396537
O O2 0.306469 0.695601 0.312839
O O3 0.163961 0.669635 0.373227
O O4 0.345653 0.663850 0.405668
O O5 0.500000 0.186345 0.800602
O O6 0.398695 0.250000 0.750000
O O7 0.379581 0.156190 0.727887
O O8 0.243691 0.500000 0.167816
O O9 0.250000 0.439929 0.250000
O O10 0.346383 0.419295 0.166032
O O11 0.158535 0.414704 0.159247
O O12 0.000000 0.868136 0.149393
O O13 0.657524 0.500000 0.500000
O O14 0.500000 0.446772 0.500000
O O15 0.651150 0.420448 0.446438
O O16 0.000000 0.609072 0.889369
#
# Coordination Sequence:
#
# PCOD8283868 Si02
#       6
#    32  32  32  32  16  32
#     4  11  20  30  47  71 106 142 178 222 267 324
#     4  10  18  28  45  68  98 142 188 227 267 314
#     4  10  21  35  51  74 107 144 177 215 273 342
#     4  10  20  31  44  65  97 139 184 223 257 305
#     4   9  18  36  63  88 107 133 176 233 290 342
#     4  10  21  37  58  85 113 141 182 232 285 337
#
# _framework density 18.396979000000002
#
# number of rings (size 3 to 8) (size 9 to 14) (size 15 to 20)
#    0.000    1.909    1.818    3.818    0.000    4.364 
#    0.000    2.273    0.000    0.000    0.000   10.182 
#    0.000   17.455    0.000    0.000    0.000    0.000 
#
# Total GULP energy -545288.920323 kJ/mol
# GULP energy per Si atom -12392.930007 kJ/mol
# Density = 1.835511 g / cm^3
# Si number density = 18.396979 Si / 1000 Ang^3
#
#
#
# Elastic Constant Matrix: (Units=GPa)
#
#
# Indices 1 2 3 4 5 6 
#
# 1 125.8375 50.5104 18.1425 0.0000 0.0000 0.0000
# 2 50.5104 151.4793 29.8956 0.0000 0.0000 0.0000
# 3 18.1425 29.8956 65.1006 0.0000 0.0000 0.0000
# 4 0.0000 0.0000 0.0000 21.7878 0.0000 0.0000
# 5 0.0000 0.0000 0.0000 0.0000 14.7246 0.0000
# 6 0.0000 0.0000 0.0000 0.0000 0.0000 25.4220
#
#
#
# Elastic Compliance Matrix: (Units=1/GPa)
#
#
# Indices 1 2 3 4 5 6 
#
# 1 0.009271 -0.002839 -0.001280 0.000000 0.000000 0.000000
# 2 -0.002839 0.008129 -0.002942 0.000000 0.000000 0.000000
# 3 -0.001280 -0.002942 0.017068 0.000000 0.000000 0.000000
# 4 0.000000 0.000000 0.000000 0.045897 0.000000 0.000000
# 5 0.000000 0.000000 0.000000 0.000000 0.067914 0.000000
# 6 0.000000 0.000000 0.000000 0.000000 0.000000 0.039336
#
#
# Mechanical properties :
#
#
# Convention : Reuss Voigt Hill
#
# Bulk Modulus (GPa) = 49.14739 59.94604 54.54671
# Shear Modulus (GPa) = 23.97877 28.64483 26.31180
#
# Velocity S-wave (km/s) = 3.61419 3.95022 3.78593
# Velocity P-wave (km/s) = 6.64751 7.31171 6.98751
#
# Compressibility (1/GPa) = 0.02034696
#
# Stress axis : x y z
#
# Youngs Moduli (GPa) = 107.86643 123.02103 58.58751
#
# Poissons Ratio (x) = 0.34922 0.07499
# Poissons Ratio (y) = 0.30620 0.17235
# Poissons Ratio (z) = 0.13807 0.36190
#
# Static dielectric constant tensor:
#      x y z
#    x 3.597650 0.000000 0.000000 
#    y 0.000000 3.716720 0.000000 
#    z 0.000000 0.000000 2.493730 
# 
# 
# High freq. dielectric constant tensor:
#      x y z
#    x 1.715870 0.000000 0.000000 
#    y 0.000000 1.730940 0.000000 
#    z 0.000000 0.000000 1.659200 
# 
# From -- ./inp_files/41227.got.cif
#   From: 2010.03.12/outbox.cif.g09.slc.cpg/sg69_21_cif.got.tgz:41227.got - 2010.04.10 23:52:46.
