data_PCOD8283255
_publ_section_title
;
Structure prediction by ZEFSAII (Michael W. Deem and Ramdas Pophale) SiO2 
 PCOD8283255
Probable space group: C C C A
;
_chemical_formula_sum "Si O2"
_cell_formula_units_Z 108
_cell_length_a 14.147697
_cell_length_b 32.853093
_cell_length_c 10.152616
_cell_angle_alpha 90.000000
_cell_angle_beta 90.000000
_cell_angle_gamma 90.000000
_cell_volume 4718.891299
_symmetry_space_group_name_H-M "C C C A"
_symmetry_group_IT_number 68
_space_group.IT_coordinate_system_code '2'
_symmetry_cell_setting 'orthorhombic'
loop_
_space_group_symop_operation_xyz
x,y,z
-x,1/2-y,z
x,1/2-y,1/2-z
-x,y,1/2-z
-x,-y,-z
x,1/2+y,-z
-x,1/2+y,1/2+z
x,-y,1/2+z
1/2+x,1/2+y,z
1/2-x,-y,z
1/2+x,-y,1/2-z
1/2-x,1/2+y,1/2-z
1/2-x,1/2-y,-z
1/2+x,y,-z
1/2-x,y,1/2+z
1/2+x,1/2-y,1/2+z
loop_
_atom_site_type_symbol
_atom_site_label
_atom_site_fract_x
_atom_site_fract_y
_atom_site_fract_z
Si Si1 0.000000 0.750000 0.750000
Si Si2 0.765927 0.277195 0.876334
Si Si3 0.000000 0.903655 0.250000
Si Si4 0.822703 0.098936 0.439771
Si Si5 0.504052 0.452024 0.996463
Si Si6 0.921797 0.336534 0.914388
Si Si7 0.089281 0.821293 0.912682
Si Si8 0.152843 0.595266 0.645783
O O1 0.062121 0.780398 0.835628
O O2 0.740446 0.250000 0.750000
O O3 0.870996 0.295812 0.861884
O O4 0.702221 0.316283 0.914872
O O5 0.750000 0.250000 0.000000
O O6 0.958372 0.932003 0.366128
O O7 0.919781 0.872588 0.194335
O O8 0.869348 0.144129 0.457723
O O9 0.795121 0.092027 0.286639
O O10 0.729805 0.095128 0.529361
O O11 0.898278 0.064055 0.474403
O O12 0.500000 0.500000 0.000000
O O13 0.578818 0.441177 0.881470
O O14 0.029147 0.322942 0.951857
O O15 0.081431 0.865773 0.848766
#
# Coordination Sequence:
#
# PCOD8283255 Si02
#       8
#     4  16   8  16  16  16  16  16
#     4  12  24  40  66 102 144 190 260 322 374 440
#     4  12  29  47  69 108 149 195 251 316 382 433
#     4  10  24  46  76 110 140 202 250 300 382 460
#     4  11  26  45  74 113 141 199 249 298 376 451
#     4  11  27  49  78 113 152 190 245 318 386 459
#     4  11  25  46  75 103 152 194 261 305 376 458
#     4  12  24  44  70 102 144 194 250 310 373 440
#     4  12  26  46  78 105 152 197 248 307 375 460
#
# _framework density 22.886731000000001
#
# number of rings (size 3 to 8) (size 9 to 14) (size 15 to 20)
#    0.000    0.593    5.185    2.222   10.370    0.593 
#    0.000    1.481    0.000    0.000    0.000    0.000 
#    0.000    0.000    0.000    0.000    0.000    0.000 
#
# Total GULP energy -668959.262638 kJ/mol
# GULP energy per Si atom -12388.134493 kJ/mol
# Density = 2.283464 g / cm^3
# Si number density = 22.886731 Si / 1000 Ang^3
#
#
#
# Elastic Constant Matrix: (Units=GPa)
#
#
# Indices 1 2 3 4 5 6 
#
# 1 102.1249 51.3354 49.2604 0.0000 0.0000 0.0000
# 2 51.3354 157.6790 55.8054 0.0000 0.0000 0.0000
# 3 49.2604 55.8054 142.9524 0.0000 0.0000 0.0000
# 4 0.0000 0.0000 0.0000 27.5486 0.0000 0.0000
# 5 0.0000 0.0000 0.0000 0.0000 36.5731 0.0000
# 6 0.0000 0.0000 0.0000 0.0000 0.0000 33.6907
#
#
#
# Elastic Compliance Matrix: (Units=1/GPa)
#
#
# Indices 1 2 3 4 5 6 
#
# 1 0.012892 -0.003046 -0.003254 0.000000 0.000000 0.000000
# 2 -0.003046 0.008078 -0.002104 0.000000 0.000000 0.000000
# 3 -0.003254 -0.002104 0.008938 0.000000 0.000000 0.000000
# 4 0.000000 0.000000 0.000000 0.036300 0.000000 0.000000
# 5 0.000000 0.000000 0.000000 0.000000 0.027343 0.000000
# 6 0.000000 0.000000 0.000000 0.000000 0.000000 0.029682
#
#
# Mechanical properties :
#
#
# Convention : Reuss Voigt Hill
#
# Bulk Modulus (GPa) = 76.32643 79.50654 77.91648
# Shear Modulus (GPa) = 34.62449 35.98614 35.30532
#
# Velocity S-wave (km/s) = 3.89377 3.96960 3.93187
# Velocity P-wave (km/s) = 7.32375 7.47160 7.39805
#
# Compressibility (1/GPa) = 0.01310162
#
# Stress axis : x y z
#
# Youngs Moduli (GPa) = 77.56513 123.78878 111.88369
#
# Poissons Ratio (x) = 0.37704 0.36402
# Poissons Ratio (y) = 0.23625 0.23540
# Poissons Ratio (z) = 0.25237 0.26045
#
# Static dielectric constant tensor:
#      x y z
#    x 4.353190 0.000000 0.000000 
#    y 0.000000 4.116850 0.000000 
#    z 0.000000 0.000000 4.190980 
# 
# 
# High freq. dielectric constant tensor:
#      x y z
#    x 1.906660 0.000000 0.000000 
#    y 0.000000 1.902890 0.000000 
#    z 0.000000 0.000000 1.899630 
# 
# From -- ./inp_files/13644.got.cif
#   From: 2010.03.12/outbox.cif.g09.slc.cpg/sg68_7_cif.got.tgz:13644.got - 2010.04.10 23:14:56.
