data_PCOD8283629
_publ_section_title
;
Structure prediction by ZEFSAII (Michael W. Deem and Ramdas Pophale) SiO2 
 PCOD8283629
Probable space group: C C C A
;
_chemical_formula_sum "Si O2"
_cell_formula_units_Z 104
_cell_length_a 28.381080
_cell_length_b 8.655021
_cell_length_c 18.962643
_cell_angle_alpha 90.000000
_cell_angle_beta 90.000000
_cell_angle_gamma 90.000000
_cell_volume 4657.961694
_symmetry_space_group_name_H-M "C C C A"
_symmetry_group_IT_number 68
_space_group.IT_coordinate_system_code '2'
_symmetry_cell_setting 'orthorhombic'
loop_
_space_group_symop_operation_xyz
x,y,z
-x,1/2-y,z
x,1/2-y,1/2-z
-x,y,1/2-z
-x,-y,-z
x,1/2+y,-z
-x,1/2+y,1/2+z
x,-y,1/2+z
1/2+x,1/2+y,z
1/2-x,-y,z
1/2+x,-y,1/2-z
1/2-x,1/2+y,1/2-z
1/2-x,1/2-y,-z
1/2+x,y,-z
1/2-x,y,1/2+z
1/2+x,1/2-y,1/2+z
loop_
_atom_site_type_symbol
_atom_site_label
_atom_site_fract_x
_atom_site_fract_y
_atom_site_fract_z
Si Si1 0.093001 0.430753 0.880156
Si Si2 0.497971 0.067239 0.832041
Si Si3 0.250000 0.500000 0.823493
Si Si4 0.149459 0.054946 0.483080
Si Si5 0.844667 0.429156 0.232284
Si Si6 0.212815 0.679431 0.947840
Si Si7 0.901245 0.084269 0.643836
O O1 0.108210 0.408005 0.961207
O O2 0.128581 0.551237 0.842439
O O3 0.093288 0.265576 0.841177
O O4 0.040630 0.496723 0.876479
O O5 0.500000 0.250000 0.840203
O O6 0.500000 0.018360 0.750000
O O7 0.451103 0.999434 0.867148
O O8 0.204852 0.477836 0.772935
O O9 0.237344 0.650240 0.871793
O O10 0.167320 0.208216 0.442256
O O11 0.194967 0.984567 0.522578
O O12 0.129925 0.935628 0.425953
O O13 0.836834 0.250000 0.250000
O O14 0.876253 0.508078 0.290273
O O15 0.250000 0.750000 0.000000
#
# Coordination Sequence:
#
# PCOD8283629 Si02
#       7
#    16  16   8  16  16  16  16
#     4  12  25  47  75 106 146 190 245 299 364 448
#     4  11  25  45  74 105 143 195 243 295 368 442
#     4  12  26  46  72 104 144 194 246 296 356 434
#     4  12  26  46  74 105 146 189 239 308 365 432
#     4  12  26  47  71 103 147 191 242 301 361 431
#     4  12  22  46  72 100 141 192 241 289 361 427
#     4  12  27  45  74 108 144 188 240 301 370 428
#
# _framework density 22.327362999999998
#
# number of rings (size 3 to 8) (size 9 to 14) (size 15 to 20)
#    0.000    0.154    6.154    2.769    2.154    2.462 
#    2.769    0.000    0.000    0.000    0.000    0.000 
#    0.000    0.000    0.000    0.000    0.000    0.000 
#
# Total GULP energy -645056.190953 kJ/mol
# GULP energy per Si atom -12404.926749 kJ/mol
# Density = 2.227655 g / cm^3
# Si number density = 22.327363 Si / 1000 Ang^3
#
#
#
# Elastic Constant Matrix: (Units=GPa)
#
#
# Indices 1 2 3 4 5 6 
#
# 1 149.3527 44.5662 26.3089 0.0000 0.0000 0.0000
# 2 44.5662 120.7356 30.8249 0.0000 0.0000 0.0000
# 3 26.3089 30.8249 51.6111 0.0000 0.0000 0.0000
# 4 0.0000 0.0000 0.0000 28.3881 0.0000 0.0000
# 5 0.0000 0.0000 0.0000 0.0000 22.4667 0.0000
# 6 0.0000 0.0000 0.0000 0.0000 0.0000 42.1156
#
#
#
# Elastic Compliance Matrix: (Units=1/GPa)
#
#
# Indices 1 2 3 4 5 6 
#
# 1 0.007824 -0.002206 -0.002671 0.000000 0.000000 0.000000
# 2 -0.002206 0.010395 -0.005084 0.000000 0.000000 0.000000
# 3 -0.002671 -0.005084 0.023773 0.000000 0.000000 0.000000
# 4 0.000000 0.000000 0.000000 0.035226 0.000000 0.000000
# 5 0.000000 0.000000 0.000000 0.000000 0.044510 0.000000
# 6 0.000000 0.000000 0.000000 0.000000 0.000000 0.023744
#
#
# Mechanical properties :
#
#
# Convention : Reuss Voigt Hill
#
# Bulk Modulus (GPa) = 45.30819 58.34438 51.82629
# Shear Modulus (GPa) = 28.94325 33.26068 31.10197
#
# Velocity S-wave (km/s) = 3.60434 3.86383 3.73634
# Velocity P-wave (km/s) = 6.13665 6.78923 6.47117
#
# Compressibility (1/GPa) = 0.02207106
#
# Stress axis : x y z
#
# Youngs Moduli (GPa) = 127.80576 96.20131 42.06381
#
# Poissons Ratio (x) = 0.21225 0.11234
# Poissons Ratio (y) = 0.28197 0.21384
# Poissons Ratio (z) = 0.34134 0.48906
#
# Static dielectric constant tensor:
#      x y z
#    x 4.243060 0.000000 0.000000 
#    y 0.000000 4.497420 0.000000 
#    z 0.000000 0.000000 4.052240 
# 
# 
# High freq. dielectric constant tensor:
#      x y z
#    x 1.893460 0.000000 0.000000 
#    y 0.000000 1.885870 0.000000 
#    z 0.000000 0.000000 1.874220 
# 
# From -- ./inp_files/41584.got.cif
#   From: 2010.03.12/outbox.cif.g09.slc.cpg/sg68_21_cif.got.tgz:41584.got - 2010.04.10 23:14:56.
