data_PCOD8283382
_publ_section_title
;
Structure prediction by ZEFSAII (Michael W. Deem and Ramdas Pophale) SiO2 
 PCOD8283382
Probable space group: C C C A
;
_chemical_formula_sum "Si O2"
_cell_formula_units_Z 116
_cell_length_a 23.637862
_cell_length_b 27.521099
_cell_length_c 8.968442
_cell_angle_alpha 90.000000
_cell_angle_beta 90.000000
_cell_angle_gamma 90.000000
_cell_volume 5834.329723
_symmetry_space_group_name_H-M "C C C A"
_symmetry_group_IT_number 68
_space_group.IT_coordinate_system_code '2'
_symmetry_cell_setting 'orthorhombic'
loop_
_space_group_symop_operation_xyz
x,y,z
-x,1/2-y,z
x,1/2-y,1/2-z
-x,y,1/2-z
-x,-y,-z
x,1/2+y,-z
-x,1/2+y,1/2+z
x,-y,1/2+z
1/2+x,1/2+y,z
1/2-x,-y,z
1/2+x,-y,1/2-z
1/2-x,1/2+y,1/2-z
1/2-x,1/2-y,-z
1/2+x,y,-z
1/2-x,y,1/2+z
1/2+x,1/2-y,1/2+z
loop_
_atom_site_type_symbol
_atom_site_label
_atom_site_fract_x
_atom_site_fract_y
_atom_site_fract_z
Si Si1 0.228326 0.553307 0.846621
Si Si2 0.910214 0.196034 0.782094
Si Si3 0.656868 0.106283 0.342726
Si Si4 0.127488 0.461675 0.578595
Si Si5 0.000000 0.250000 0.250000
Si Si6 0.014365 0.321078 0.504438
Si Si7 0.866019 0.428763 0.351019
Si Si8 0.457368 0.080497 0.634269
O O1 0.250000 0.500000 0.800890
O O2 0.278762 0.591129 0.880291
O O3 0.198720 0.577414 0.702610
O O4 0.184420 0.545829 0.981780
O O5 0.888087 0.250000 0.750000
O O6 0.854529 0.163616 0.817670
O O7 0.937924 0.176831 0.630148
O O8 0.955207 0.195910 0.919315
O O9 0.629586 0.078257 0.206126
O O10 0.620956 0.092068 0.487595
O O11 0.122782 0.513566 0.655422
O O12 0.069098 0.455799 0.487070
O O13 0.966942 0.214370 0.366346
O O14 0.008759 0.375332 0.440771
O O15 0.905026 0.400046 0.233752
O O16 0.500000 0.053235 0.750000
#
# Coordination Sequence:
#
# PCOD8283382 Si02
#       8
#    16  16  16  16   4  16  16  16
#     4  11  21  38  64  90 124 158 216 271 309 369
#     4  11  23  42  62  92 128 165 212 261 315 385
#     4  12  22  35  63  94 122 164 206 272 322 363
#     4  11  22  39  59  90 125 168 211 257 312 378
#     4  12  20  34  72  92 108 154 208 268 324 342
#     4  11  21  39  64  92 122 161 209 264 310 372
#     4  11  23  38  61  93 127 165 214 260 317 376
#     4  11  23  39  56  87 132 165 202 254 315 379
#
# _framework density 19.882317
#
# number of rings (size 3 to 8) (size 9 to 14) (size 15 to 20)
#    0.000    0.828    6.207    2.897    0.000    0.552 
#    0.000    1.379    0.000    3.310    3.586    0.000 
#    0.000    0.000    0.000    0.000    0.000    0.000 
#
# Total GULP energy -718665.123131 kJ/mol
# GULP energy per Si atom -12390.777985 kJ/mol
# Density = 1.983706 g / cm^3
# Si number density = 19.882317 Si / 1000 Ang^3
#
#
#
# Elastic Constant Matrix: (Units=GPa)
#
#
# Indices 1 2 3 4 5 6 
#
# 1 55.9856 34.6840 18.4397 0.0000 0.0000 0.0000
# 2 34.6840 94.1826 17.3834 0.0000 0.0000 0.0000
# 3 18.4397 17.3834 104.5896 0.0000 0.0000 0.0000
# 4 0.0000 0.0000 0.0000 30.4903 0.0000 0.0000
# 5 0.0000 0.0000 0.0000 0.0000 9.0263 0.0000
# 6 0.0000 0.0000 0.0000 0.0000 0.0000 30.4190
#
#
#
# Elastic Compliance Matrix: (Units=1/GPa)
#
#
# Indices 1 2 3 4 5 6 
#
# 1 0.023933 -0.008289 -0.002842 0.000000 0.000000 0.000000
# 2 -0.008289 0.013825 -0.000836 0.000000 0.000000 0.000000
# 3 -0.002842 -0.000836 0.010201 0.000000 0.000000 0.000000
# 4 0.000000 0.000000 0.000000 0.032797 0.000000 0.000000
# 5 0.000000 0.000000 0.000000 0.000000 0.110788 0.000000
# 6 0.000000 0.000000 0.000000 0.000000 0.000000 0.032874
#
#
# Mechanical properties :
#
#
# Convention : Reuss Voigt Hill
#
# Bulk Modulus (GPa) = 41.62456 43.97471 42.79963
# Shear Modulus (GPa) = 19.50377 26.27049 22.88713
#
# Velocity S-wave (km/s) = 3.13543 3.63891 3.39651
# Velocity P-wave (km/s) = 5.83856 6.31039 6.07906
#
# Compressibility (1/GPa) = 0.02402428
#
# Stress axis : x y z
#
# Youngs Moduli (GPa) = 41.78334 72.33473 98.02762
#
# Poissons Ratio (x) = 0.59959 0.27858
# Poissons Ratio (y) = 0.34635 0.08198
# Poissons Ratio (z) = 0.11874 0.06049
#
# Static dielectric constant tensor:
#      x y z
#    x 3.600290 0.000000 0.000000 
#    y 0.000000 3.449390 0.000000 
#    z 0.000000 0.000000 4.009210 
# 
# 
# High freq. dielectric constant tensor:
#      x y z
#    x 1.753800 0.000000 0.000000 
#    y 0.000000 1.750470 0.000000 
#    z 0.000000 0.000000 1.806420 
# 
# From -- ./inp_files/8332.got.cif
#   From: 2010.03.12/outbox.cif.g09.slc.cpg/sg68_5_cif.got.tgz:8332.got - 2010.04.10 23:14:56.
