data_PCOD8283906
_publ_section_title
;
Structure prediction by ZEFSAII (Michael W. Deem and Ramdas Pophale) SiO2 
 PCOD8283906
Probable space group: F M M M
;
_chemical_formula_sum "Si O2"
_cell_formula_units_Z 208
_cell_length_a 22.886987
_cell_length_b 17.492927
_cell_length_c 27.941821
_cell_angle_alpha 90.000000
_cell_angle_beta 90.000000
_cell_angle_gamma 90.000000
_cell_volume 11186.798432
_symmetry_space_group_name_H-M "F M M M"
_symmetry_group_IT_number 69
_symmetry_cell_setting 'orthorhombic'
loop_
_space_group_symop_operation_xyz
x,y,z
-x,-y,z
x,-y,-z
-x,y,-z
-x,-y,-z
x,y,-z
-x,y,z
x,-y,z
x,1/2+y,1/2+z
-x,1/2-y,1/2+z
x,1/2-y,1/2-z
-x,1/2+y,1/2-z
-x,1/2-y,1/2-z
x,1/2+y,1/2-z
-x,1/2+y,1/2+z
x,1/2-y,1/2+z
1/2+x,y,1/2+z
1/2-x,-y,1/2+z
1/2+x,-y,1/2-z
1/2-x,y,1/2-z
1/2-x,-y,1/2-z
1/2+x,y,1/2-z
1/2-x,y,1/2+z
1/2+x,-y,1/2+z
1/2+x,1/2+y,z
1/2-x,1/2-y,z
1/2+x,1/2-y,-z
1/2-x,1/2+y,-z
1/2-x,1/2-y,-z
1/2+x,1/2+y,-z
1/2-x,1/2+y,z
1/2+x,1/2-y,z
loop_
_atom_site_type_symbol
_atom_site_label
_atom_site_fract_x
_atom_site_fract_y
_atom_site_fract_z
Si Si1 0.932167 0.219189 0.055514
Si Si2 0.684061 0.090860 0.806175
Si Si3 0.630427 0.089103 0.395715
Si Si4 0.569215 0.500000 0.554540
Si Si5 0.133698 0.141444 0.401084
Si Si6 0.815577 0.589931 0.299746
Si Si7 0.748735 0.412730 0.444531
O O1 0.920545 0.135733 0.078058
O O2 0.895344 0.278207 0.086878
O O3 0.000000 0.238794 0.060365
O O4 0.912924 0.221701 0.000000
O O5 0.642519 0.133763 0.844006
O O6 0.750803 0.119867 0.813544
O O7 0.663815 0.117211 0.752907
O O8 0.678124 0.000000 0.814083
O O9 0.636240 0.112386 0.339561
O O10 0.691965 0.111170 0.419021
O O11 0.615458 0.000000 0.402345
O O12 0.500000 0.500000 0.556126
O O13 0.592498 0.500000 0.500000
O O14 0.591663 0.424773 0.580380
O O15 0.196340 0.139973 0.426758
O O16 0.807855 0.500000 0.297513
O O17 0.759173 0.400423 0.500000
O O18 0.731864 0.500000 0.431765
#
# Coordination Sequence:
#
# PCOD8283906 Si02
#       7
#    32  32  32  16  32  32  32
#     4  11  26  44  58  77 109 151 201 248 286 336
#     4   9  15  29  54  88 121 154 185 219 274 339
#     4  10  20  38  62  86 111 142 186 242 303 353
#     4  11  22  34  52  77 110 162 211 230 258 326
#     4  12  20  34  56  82 119 155 188 232 278 332
#     4   8  15  29  55  88 120 146 182 230 281 342
#     4  10  18  29  51  85 118 143 175 225 284 346
#
# _framework density 18.593344999999999
#
# number of rings (size 3 to 8) (size 9 to 14) (size 15 to 20)
#    0.000    1.923    3.077    3.231    0.000    3.077 
#    0.000    3.077    0.000    4.615    0.000    0.000 
#    0.000    0.000    0.000    0.000    0.000    0.000 
#
# Total GULP energy -644737.063930 kJ/mol
# GULP energy per Si atom -12398.789691 kJ/mol
# Density = 1.855103 g / cm^3
# Si number density = 18.593345 Si / 1000 Ang^3
#
#
#
# Elastic Constant Matrix: (Units=GPa)
#
#
# Indices 1 2 3 4 5 6 
#
# 1 47.7822 27.8199 53.9952 0.0000 0.0000 0.0000
# 2 27.8199 67.7895 40.1962 0.0000 0.0000 0.0000
# 3 53.9952 40.1962 139.1165 0.0000 0.0000 0.0000
# 4 0.0000 0.0000 0.0000 24.2422 0.0000 0.0000
# 5 0.0000 0.0000 0.0000 0.0000 21.1563 0.0000
# 6 0.0000 0.0000 0.0000 0.0000 0.0000 16.2999
#
#
#
# Elastic Compliance Matrix: (Units=1/GPa)
#
#
# Indices 1 2 3 4 5 6 
#
# 1 0.041378 -0.009000 -0.013460 0.000000 0.000000 0.000000
# 2 -0.009000 0.019759 -0.002216 0.000000 0.000000 0.000000
# 3 -0.013460 -0.002216 0.013053 0.000000 0.000000 0.000000
# 4 0.000000 0.000000 0.000000 0.041250 0.000000 0.000000
# 5 0.000000 0.000000 0.000000 0.000000 0.047267 0.000000
# 6 0.000000 0.000000 0.000000 0.000000 0.000000 0.061350
#
#
# Mechanical properties :
#
#
# Convention : Reuss Voigt Hill
#
# Bulk Modulus (GPa) = 40.26021 55.41230 47.83625
# Shear Modulus (GPa) = 17.75014 21.18481 19.46747
#
# Velocity S-wave (km/s) = 3.09309 3.37913 3.23927
# Velocity P-wave (km/s) = 5.86995 6.71503 6.30666
#
# Compressibility (1/GPa) = 0.02483842
#
# Stress axis : x y z
#
# Youngs Moduli (GPa) = 24.16738 50.60973 76.61334
#
# Poissons Ratio (x) = 0.45549 1.03118
# Poissons Ratio (y) = 0.21751 0.16977
# Poissons Ratio (z) = 0.32528 0.11215
#
# Static dielectric constant tensor:
#      x y z
#    x 3.230420 0.000000 0.000000 
#    y 0.000000 3.329170 0.000000 
#    z 0.000000 0.000000 3.897160 
# 
# 
# High freq. dielectric constant tensor:
#      x y z
#    x 1.695990 0.000000 0.000000 
#    y 0.000000 1.694670 0.000000 
#    z 0.000000 0.000000 1.739460 
# 
# From -- ./inp_files/43290.got.cif
#   From: 2010.03.12/outbox.cif.g09.slc.cpg/sg69_22_cif.got.tgz:43290.got - 2010.04.10 23:52:46.
