data_PCOD8283687
_publ_section_title
;
Structure prediction by ZEFSAII (Michael W. Deem and Ramdas Pophale) SiO2 
 PCOD8283687
Probable space group: C C C A
;
_chemical_formula_sum "Si O2"
_cell_formula_units_Z 88
_cell_length_a 23.928169
_cell_length_b 5.166061
_cell_length_c 30.889092
_cell_angle_alpha 90.000000
_cell_angle_beta 90.000000
_cell_angle_gamma 90.000000
_cell_volume 3818.335977
_symmetry_space_group_name_H-M "C C C A"
_symmetry_group_IT_number 68
_space_group.IT_coordinate_system_code '2'
_symmetry_cell_setting 'orthorhombic'
loop_
_space_group_symop_operation_xyz
x,y,z
-x,1/2-y,z
x,1/2-y,1/2-z
-x,y,1/2-z
-x,-y,-z
x,1/2+y,-z
-x,1/2+y,1/2+z
x,-y,1/2+z
1/2+x,1/2+y,z
1/2-x,-y,z
1/2+x,-y,1/2-z
1/2-x,1/2+y,1/2-z
1/2-x,1/2-y,-z
1/2+x,y,-z
1/2-x,y,1/2+z
1/2+x,1/2-y,1/2+z
loop_
_atom_site_type_symbol
_atom_site_label
_atom_site_fract_x
_atom_site_fract_y
_atom_site_fract_z
Si Si1 0.189177 0.024884 0.114626
Si Si2 0.849864 0.020487 0.654915
Si Si3 0.708348 0.816009 0.538657
Si Si4 0.250000 0.500000 0.721047
Si Si5 0.463178 0.504136 0.621783
Si Si6 0.414168 0.459420 0.025670
O O1 0.151576 0.816843 0.139610
O O2 0.191076 0.943823 0.064236
O O3 0.250000 0.000000 0.136751
O O4 0.166003 0.314591 0.117262
O O5 0.808135 0.966443 0.694620
O O6 0.916456 0.973476 0.660317
O O7 0.750000 0.750000 0.500000
O O8 0.653443 0.970646 0.523455
O O9 0.750000 0.000000 0.568482
O O10 0.257597 0.750000 0.750000
O O11 0.500000 0.250000 0.620864
O O12 0.434395 0.546392 0.575075
O O13 0.500000 0.750000 0.633907
O O14 0.437265 0.706747 0.999466
#
# Coordination Sequence:
#
# PCOD8283687 Si02
#       6
#    16  16  16   8  16  16
#     4  12  23  38  67 101 147 187 234 291 365 433
#     4  12  25  48  76 111 146 188 232 294 356 446
#     4  12  24  37  60  97 146 188 247 309 380 448
#     4  12  26  50  82 124 162 184 206 270 382 482
#     4  12  28  49  74  98 138 200 266 313 353 410
#     4  12  27  43  64  93 134 192 256 326 379 416
#
# _framework density 23.046689000000001
#
# number of rings (size 3 to 8) (size 9 to 14) (size 15 to 20)
#    0.000    0.000    5.455    4.909    2.545    2.182 
#    0.000    0.000    0.000    3.273    0.000    0.000 
#    0.000    0.000    0.000    0.000    0.000    0.000 
#
# Total GULP energy -545282.286267 kJ/mol
# GULP energy per Si atom -12392.779233 kJ/mol
# Density = 2.299423 g / cm^3
# Si number density = 23.046689 Si / 1000 Ang^3
#
#
#
# Elastic Constant Matrix: (Units=GPa)
#
#
# Indices 1 2 3 4 5 6 
#
# 1 152.6317 42.1365 43.8471 0.0000 0.0000 0.0000
# 2 42.1365 132.0940 29.5519 0.0000 0.0000 0.0000
# 3 43.8471 29.5519 81.9263 0.0000 0.0000 0.0000
# 4 0.0000 0.0000 0.0000 24.4477 0.0000 0.0000
# 5 0.0000 0.0000 0.0000 0.0000 26.6028 0.0000
# 6 0.0000 0.0000 0.0000 0.0000 0.0000 35.8165
#
#
#
# Elastic Compliance Matrix: (Units=1/GPa)
#
#
# Indices 1 2 3 4 5 6 
#
# 1 0.008100 -0.001756 -0.003702 0.000000 0.000000 0.000000
# 2 -0.001756 0.008615 -0.002168 0.000000 0.000000 0.000000
# 3 -0.003702 -0.002168 0.014969 0.000000 0.000000 0.000000
# 4 0.000000 0.000000 0.000000 0.040904 0.000000 0.000000
# 5 0.000000 0.000000 0.000000 0.000000 0.037590 0.000000
# 6 0.000000 0.000000 0.000000 0.000000 0.000000 0.027920
#
#
# Mechanical properties :
#
#
# Convention : Reuss Voigt Hill
#
# Bulk Modulus (GPa) = 60.85071 66.41366 63.63218
# Shear Modulus (GPa) = 31.48077 34.11450 32.79764
#
# Velocity S-wave (km/s) = 3.69989 3.85156 3.77649
# Velocity P-wave (km/s) = 6.68677 6.97559 6.83270
#
# Compressibility (1/GPa) = 0.01643366
#
# Stress axis : x y z
#
# Youngs Moduli (GPa) = 123.45983 116.07085 66.80319
#
# Poissons Ratio (x) = 0.20377 0.24729
# Poissons Ratio (y) = 0.21675 0.14484
# Poissons Ratio (z) = 0.45702 0.25165
#
# Static dielectric constant tensor:
#      x y z
#    x 4.368100 0.000000 0.000000 
#    y 0.000000 3.108440 0.000000 
#    z 0.000000 0.000000 3.736340 
# 
# 
# High freq. dielectric constant tensor:
#      x y z
#    x 1.921290 0.000000 0.000000 
#    y 0.000000 1.947450 0.000000 
#    z 0.000000 0.000000 1.853160 
# 
# From -- ./inp_files/55955.got.cif
#   From: 2010.03.12/outbox.cif.g09.slc.cpg/sg68_28_cif.got.tgz:55955.got - 2010.04.10 23:14:56.
