data_PCOD8283776
_publ_section_title
;
Structure prediction by ZEFSAII (Michael W. Deem and Ramdas Pophale) SiO2 
 PCOD8283776
Probable space group: F M M M
;
_chemical_formula_sum "Si O2"
_cell_formula_units_Z 104
_cell_length_a 5.225005
_cell_length_b 31.568358
_cell_length_c 33.984411
_cell_angle_alpha 90.000000
_cell_angle_beta 90.000000
_cell_angle_gamma 90.000000
_cell_volume 5605.552840
_symmetry_space_group_name_H-M "F M M M"
_symmetry_group_IT_number 69
_symmetry_cell_setting 'orthorhombic'
loop_
_space_group_symop_operation_xyz
x,y,z
-x,-y,z
x,-y,-z
-x,y,-z
-x,-y,-z
x,y,-z
-x,y,z
x,-y,z
x,1/2+y,1/2+z
-x,1/2-y,1/2+z
x,1/2-y,1/2-z
-x,1/2+y,1/2-z
-x,1/2-y,1/2-z
x,1/2+y,1/2-z
-x,1/2+y,1/2+z
x,1/2-y,1/2+z
1/2+x,y,1/2+z
1/2-x,-y,1/2+z
1/2+x,-y,1/2-z
1/2-x,y,1/2-z
1/2-x,-y,1/2-z
1/2+x,y,1/2-z
1/2-x,y,1/2+z
1/2+x,-y,1/2+z
1/2+x,1/2+y,z
1/2-x,1/2-y,z
1/2+x,1/2-y,-z
1/2-x,1/2+y,-z
1/2-x,1/2-y,-z
1/2+x,1/2+y,-z
1/2-x,1/2+y,z
1/2+x,1/2-y,z
loop_
_atom_site_type_symbol
_atom_site_label
_atom_site_fract_x
_atom_site_fract_y
_atom_site_fract_z
Si Si1 0.500000 0.720157 0.500000
Si Si2 0.000000 0.135794 0.275504
Si Si3 0.000000 0.232256 0.293850
Si Si4 0.500000 0.855079 0.939184
Si Si5 0.500000 0.407445 0.957605
Si Si6 0.000000 0.099537 0.639615
Si Si7 0.500000 0.048681 0.618849
O O1 0.750000 0.750000 0.500000
O O2 0.500000 0.691713 0.459445
O O3 0.750000 0.125735 0.250000
O O4 0.000000 0.109286 0.314689
O O5 0.000000 0.182692 0.292004
O O6 0.000000 0.250000 0.250000
O O7 0.250000 0.250000 0.316566
O O8 0.752700 0.878093 0.953825
O O9 0.500000 0.859630 0.890663
O O10 0.500000 0.446947 0.928233
O O11 0.500000 0.429118 0.000000
O O12 0.249327 0.071310 0.634595
O O13 0.500000 0.000000 0.631647
#
# Coordination Sequence:
#
# PCOD8283776 Si02
#       7
#     8  16  16  16  16  16  16
#     4  12  22  34  58  80 113 160 207 236 270 316
#     4  12  21  35  60  84 112 147 194 236 283 353
#     4  10  16  30  49  77 107 135 166 214 284 334
#     4  10  20  37  54  79 116 154 194 231 277 326
#     4  10  17  32  59  85 109 148 182 228 284 340
#     4  10  23  39  59  85 113 151 192 228 286 352
#     4  10  21  38  60  84 116 148 180 231 292 343
#
# _framework density 18.553031000000001
#
# number of rings (size 3 to 8) (size 9 to 14) (size 15 to 20)
#    0.000    1.538    4.615    2.308    0.000    0.308 
#    0.000    1.538    0.000   14.769    0.000    0.000 
#    0.000    0.000    0.000    0.000    0.000    0.000 
#
# Total GULP energy -322101.409614 kJ/mol
# GULP energy per Si atom -12388.515754 kJ/mol
# Density = 1.851080 g / cm^3
# Si number density = 18.553031 Si / 1000 Ang^3
#
#
#
# Elastic Constant Matrix: (Units=GPa)
#
#
# Indices 1 2 3 4 5 6 
#
# 1 191.4808 53.8825 60.6646 0.0000 0.0000 0.0000
# 2 53.8825 107.8631 57.4769 0.0000 0.0000 0.0000
# 3 60.6646 57.4769 136.7404 0.0000 0.0000 0.0000
# 4 0.0000 0.0000 0.0000 19.3815 0.0000 0.0000
# 5 0.0000 0.0000 0.0000 0.0000 23.5852 0.0000
# 6 0.0000 0.0000 0.0000 0.0000 0.0000 16.9083
#
#
#
# Elastic Compliance Matrix: (Units=1/GPa)
#
#
# Indices 1 2 3 4 5 6 
#
# 1 0.006454 -0.002188 -0.001943 0.000000 0.000000 0.000000
# 2 -0.002188 0.012689 -0.004363 0.000000 0.000000 0.000000
# 3 -0.001943 -0.004363 0.010009 0.000000 0.000000 0.000000
# 4 0.000000 0.000000 0.000000 0.051596 0.000000 0.000000
# 5 0.000000 0.000000 0.000000 0.000000 0.042399 0.000000
# 6 0.000000 0.000000 0.000000 0.000000 0.000000 0.059143
#
#
# Mechanical properties :
#
#
# Convention : Reuss Voigt Hill
#
# Bulk Modulus (GPa) = 82.21723 86.68138 84.44931
# Shear Modulus (GPa) = 24.59015 29.57901 27.08458
#
# Velocity S-wave (km/s) = 3.64455 3.99719 3.82494
# Velocity P-wave (km/s) = 7.88170 8.25383 8.06991
#
# Compressibility (1/GPa) = 0.01216290
#
# Stress axis : x y z
#
# Youngs Moduli (GPa) = 154.94266 78.80827 99.90876
#
# Poissons Ratio (x) = 0.17247 0.19416
# Poissons Ratio (y) = 0.33909 0.43588
# Poissons Ratio (z) = 0.30112 0.34382
#
# Static dielectric constant tensor:
#      x y z
#    x 3.562460 0.000000 0.000000 
#    y 0.000000 3.159930 0.000000 
#    z 0.000000 0.000000 3.415840 
# 
# 
# High freq. dielectric constant tensor:
#      x y z
#    x 1.757080 0.000000 0.000000 
#    y 0.000000 1.695020 0.000000 
#    z 0.000000 0.000000 1.706500 
# 
# From -- ./inp_files/896.got.cif
#   From: 2010.03.12/outbox.cif.g09.slc.cpg/sg69_1_cif.got.tgz:896.got - 2010.04.10 23:52:46.
