data_PCOD8283750
_publ_section_title
;
Structure prediction by ZEFSAII (Michael W. Deem and Ramdas Pophale) SiO2 
 PCOD8283750
Probable space group: C C C A
;
_chemical_formula_sum "Si O2"
_cell_formula_units_Z 128
_cell_length_a 18.101981
_cell_length_b 22.315985
_cell_length_c 16.834848
_cell_angle_alpha 90.000000
_cell_angle_beta 90.000000
_cell_angle_gamma 90.000000
_cell_volume 6800.664734
_symmetry_space_group_name_H-M "C C C A"
_symmetry_group_IT_number 68
_space_group.IT_coordinate_system_code '2'
_symmetry_cell_setting 'orthorhombic'
loop_
_space_group_symop_operation_xyz
x,y,z
-x,1/2-y,z
x,1/2-y,1/2-z
-x,y,1/2-z
-x,-y,-z
x,1/2+y,-z
-x,1/2+y,1/2+z
x,-y,1/2+z
1/2+x,1/2+y,z
1/2-x,-y,z
1/2+x,-y,1/2-z
1/2-x,1/2+y,1/2-z
1/2-x,1/2-y,-z
1/2+x,y,-z
1/2-x,y,1/2+z
1/2+x,1/2-y,1/2+z
loop_
_atom_site_type_symbol
_atom_site_label
_atom_site_fract_x
_atom_site_fract_y
_atom_site_fract_z
Si Si1 0.087652 0.628359 0.925430
Si Si2 0.332114 0.009377 0.593436
Si Si3 0.411806 0.816046 0.750000
Si Si4 0.167886 0.009377 0.406564
Si Si5 0.086617 0.607094 0.105485
Si Si6 0.587560 0.250000 0.660046
Si Si7 0.086617 0.392906 0.894515
Si Si8 0.912348 0.628359 0.925430
O O1 0.133040 0.574033 0.884330
O O2 0.114611 0.690333 0.885664
O O3 1.000000 0.617496 0.913868
O O4 0.109468 0.630637 0.018341
O O5 0.250000 0.000000 0.628690
O O6 0.331213 1.000000 0.500000
O O7 0.383205 0.957890 0.629411
O O8 0.378238 0.750000 0.750000
O O9 0.500000 0.815142 0.750000
O O10 0.381471 0.847202 0.829587
O O11 0.381471 0.847202 0.670413
O O12 0.133040 0.074033 0.384330
O O13 0.250000 0.000000 0.371310
O O14 0.116795 0.957890 0.370589
O O15 1.000000 0.601924 0.111616
O O16 0.500000 0.250000 0.661301
O O17 0.618850 0.250000 0.750000
O O18 0.614611 0.190333 0.614336
O O19 0.109468 0.369363 0.981659
#
# Coordination Sequence:
#
# PCOD8283750 Si02
#       8
#    16  16  16  16  16  16  16  16
#     4   9  17  30  53  77  99 130 165 202 245 295
#     4   9  17  31  52  73 100 129 165 204 246 292
#     4   9  18  30  47  72 102 129 159 206 250 286
#     4   9  17  31  52  73 100 129 165 204 246 292
#     4   9  17  30  50  75  99 126 165 204 244 291
#     4   9  18  32  50  76 103 127 162 206 249 292
#     4   9  17  30  50  75  99 126 165 204 244 291
#     4   9  17  30  53  77  99 130 165 202 245 295
#
# _framework density 18.82169
#
# number of rings (size 3 to 8) (size 9 to 14) (size 15 to 20)
#    0.000    3.000    0.000    0.750    1.750    3.000 
#    2.250    0.625    2.750    3.000    0.000    0.000 
#    0.000    0.000    0.000    0.000    0.000    0.000 
#
# Total GULP energy -793304.493662 kJ/mol
# GULP energy per Si atom -12395.382713 kJ/mol
# Density = 1.877885 g / cm^3
# Si number density = 18.821690 Si / 1000 Ang^3
#
#
#
# Elastic Constant Matrix: (Units=GPa)
#
#
# Indices 1 2 3 4 5 6 
#
# 1 33.5657 44.9340 27.3895 0.0000 0.0000 0.0000
# 2 44.9340 211.0838 82.0376 0.0000 0.0000 0.0000
# 3 27.3895 82.0376 95.9512 0.0000 0.0000 0.0000
# 4 0.0000 0.0000 0.0000 28.6215 0.0000 0.0000
# 5 0.0000 0.0000 0.0000 0.0000 8.4082 0.0000
# 6 0.0000 0.0000 0.0000 0.0000 0.0000 9.3993
#
#
#
# Elastic Compliance Matrix: (Units=1/GPa)
#
#
# Indices 1 2 3 4 5 6 
#
# 1 0.044518 -0.006796 -0.006897 0.000000 0.000000 0.000000
# 2 -0.006796 0.008133 -0.005013 0.000000 0.000000 0.000000
# 3 -0.006897 -0.005013 0.016677 0.000000 0.000000 0.000000
# 4 0.000000 0.000000 0.000000 0.034939 0.000000 0.000000
# 5 0.000000 0.000000 0.000000 0.000000 0.118932 0.000000
# 6 0.000000 0.000000 0.000000 0.000000 0.000000 0.106391
#
#
# Mechanical properties :
#
#
# Convention : Reuss Voigt Hill
#
# Bulk Modulus (GPa) = 31.33355 72.14698 51.74026
# Shear Modulus (GPa) = 13.24009 21.70179 17.47094
#
# Velocity S-wave (km/s) = 2.65514 3.39930 3.05000
# Velocity P-wave (km/s) = 5.10719 7.33635 6.32082
#
# Compressibility (1/GPa) = 0.03191467
#
# Stress axis : x y z
#
# Youngs Moduli (GPa) = 22.46272 122.96194 59.96230
#
# Poissons Ratio (x) = 0.83566 0.41357
# Poissons Ratio (y) = 0.15266 0.30061
# Poissons Ratio (z) = 0.15493 0.61645
#
# Static dielectric constant tensor:
#      x y z
#    x 3.218330 0.000000 0.000000 
#    y 0.000000 3.717730 0.000000 
#    z 0.000000 0.000000 3.462420 
# 
# 
# High freq. dielectric constant tensor:
#      x y z
#    x 1.695060 0.000000 0.000000 
#    y 0.000000 1.742070 0.000000 
#    z 0.000000 0.000000 1.714900 
# 
# From -- ./inp_files/33258.got.cif
#   From: 2010.03.12/outbox.cif.g09.slc.cpg/sg68_17_cif.got.tgz:33258.got - 2010.04.10 23:14:56.
