data_PCOD8283723
_publ_section_title
;
Structure prediction by ZEFSAII (Michael W. Deem and Ramdas Pophale) SiO2 
 PCOD8283723
Probable space group: C C C A
;
_chemical_formula_sum "Si O2"
_cell_formula_units_Z 48
_cell_length_a 15.817060
_cell_length_b 14.650483
_cell_length_c 8.075528
_cell_angle_alpha 90.000000
_cell_angle_beta 90.000000
_cell_angle_gamma 90.000000
_cell_volume 1871.322469
_symmetry_space_group_name_H-M "C C C A"
_symmetry_group_IT_number 68
_space_group.IT_coordinate_system_code '2'
_symmetry_cell_setting 'orthorhombic'
loop_
_space_group_symop_operation_xyz
x,y,z
-x,1/2-y,z
x,1/2-y,1/2-z
-x,y,1/2-z
-x,-y,-z
x,1/2+y,-z
-x,1/2+y,1/2+z
x,-y,1/2+z
1/2+x,1/2+y,z
1/2-x,-y,z
1/2+x,-y,1/2-z
1/2-x,1/2+y,1/2-z
1/2-x,1/2-y,-z
1/2+x,y,-z
1/2-x,y,1/2+z
1/2+x,1/2-y,1/2+z
loop_
_atom_site_type_symbol
_atom_site_label
_atom_site_fract_x
_atom_site_fract_y
_atom_site_fract_z
Si Si1 0.342508 0.537255 0.067388
Si Si2 0.344039 0.730265 0.940729
Si Si3 0.580089 0.108708 0.871577
O O1 0.250000 0.500000 0.028187
O O2 0.342772 0.571316 0.257799
O O3 0.366882 0.624658 0.956945
O O4 0.415052 0.461112 0.028049
O O5 0.358128 0.750000 0.750000
O O6 0.250000 0.750000 0.000000
O O7 0.406521 0.789426 0.057978
O O8 0.500000 0.104452 0.750000
#
# Coordination Sequence:
#
# PCOD8283723 Si02
#       3
#    16  16  16
#     4  12  25  45  77 112 155 209 267 329 400 489
#     4  12  26  47  78 115 155 211 273 330 398 483
#     4  12  27  49  77 117 163 206 267 334 408 474
#
# _framework density 25.650309
#
# number of rings (size 3 to 8) (size 9 to 14) (size 15 to 20)
#    0.000    0.000    3.333    7.000    0.000    2.667 
#    0.000    1.667    0.000    0.000    0.000    0.000 
#    0.000    0.000    0.000    0.000    0.000    0.000 
#
# Total GULP energy -297523.855925 kJ/mol
# GULP energy per Si atom -12396.827330 kJ/mol
# Density = 2.559193 g / cm^3
# Si number density = 25.650309 Si / 1000 Ang^3
#
#
#
# Elastic Constant Matrix: (Units=GPa)
#
#
# Indices 1 2 3 4 5 6 
#
# 1 96.9089 50.2700 33.8250 0.0000 0.0000 0.0000
# 2 50.2700 181.2935 40.1201 0.0000 0.0000 0.0000
# 3 33.8250 40.1201 149.3219 0.0000 0.0000 0.0000
# 4 0.0000 0.0000 0.0000 46.7583 0.0000 0.0000
# 5 0.0000 0.0000 0.0000 0.0000 29.4616 0.0000
# 6 0.0000 0.0000 0.0000 0.0000 0.0000 33.2721
#
#
#
# Elastic Compliance Matrix: (Units=1/GPa)
#
#
# Indices 1 2 3 4 5 6 
#
# 1 0.012610 -0.003046 -0.002038 0.000000 0.000000 0.000000
# 2 -0.003046 0.006600 -0.001083 0.000000 0.000000 0.000000
# 3 -0.002038 -0.001083 0.007450 0.000000 0.000000 0.000000
# 4 0.000000 0.000000 0.000000 0.021387 0.000000 0.000000
# 5 0.000000 0.000000 0.000000 0.000000 0.033943 0.000000
# 6 0.000000 0.000000 0.000000 0.000000 0.000000 0.030055
#
#
# Mechanical properties :
#
#
# Convention : Reuss Voigt Hill
#
# Bulk Modulus (GPa) = 69.80485 75.10606 72.45545
# Shear Modulus (GPa) = 38.71341 42.11902 40.41622
#
# Velocity S-wave (km/s) = 3.88916 4.05661 3.97377
# Velocity P-wave (km/s) = 6.88771 7.16141 7.02589
#
# Compressibility (1/GPa) = 0.01432565
#
# Stress axis : x y z
#
# Youngs Moduli (GPa) = 79.30068 151.51111 134.23265
#
# Poissons Ratio (x) = 0.46144 0.27360
# Poissons Ratio (y) = 0.24152 0.14543
# Poissons Ratio (z) = 0.16163 0.16415
#
# Static dielectric constant tensor:
#      x y z
#    x 4.405750 0.000000 0.000000 
#    y 0.000000 5.301780 0.000000 
#    z 0.000000 0.000000 5.214930 
# 
# 
# High freq. dielectric constant tensor:
#      x y z
#    x 2.007970 0.000000 0.000000 
#    y 0.000000 2.047380 0.000000 
#    z 0.000000 0.000000 2.044190 
# 
# From -- ./inp_files/4418.got.cif
#   From: 2010.03.12/outbox.cif.g09.slc.cpg/sg68_3_cif.got.tgz:4418.got - 2010.04.10 23:14:56.
