data_PCOD8283196
_publ_section_title
;
Structure prediction by ZEFSAII (Michael W. Deem and Ramdas Pophale) SiO2 
 PCOD8283196
Probable space group: C C C A
;
_chemical_formula_sum "Si O2"
_cell_formula_units_Z 56
_cell_length_a 21.412511
_cell_length_b 4.964079
_cell_length_c 23.706619
_cell_angle_alpha 90.000000
_cell_angle_beta 90.000000
_cell_angle_gamma 90.000000
_cell_volume 2519.857046
_symmetry_space_group_name_H-M "C C C A"
_symmetry_group_IT_number 68
_space_group.IT_coordinate_system_code '2'
_symmetry_cell_setting 'orthorhombic'
loop_
_space_group_symop_operation_xyz
x,y,z
-x,1/2-y,z
x,1/2-y,1/2-z
-x,y,1/2-z
-x,-y,-z
x,1/2+y,-z
-x,1/2+y,1/2+z
x,-y,1/2+z
1/2+x,1/2+y,z
1/2-x,-y,z
1/2+x,-y,1/2-z
1/2-x,1/2+y,1/2-z
1/2-x,1/2-y,-z
1/2+x,y,-z
1/2-x,y,1/2+z
1/2+x,1/2-y,1/2+z
loop_
_atom_site_type_symbol
_atom_site_label
_atom_site_fract_x
_atom_site_fract_y
_atom_site_fract_z
Si Si1 0.927269 0.793934 0.856032
Si Si2 0.642013 0.692371 0.813672
Si Si3 0.250000 0.000000 0.888709
Si Si4 0.350235 0.732901 0.461984
O O1 0.891758 0.595176 0.813661
O O2 0.909259 0.725143 0.920720
O O3 0.000000 0.750000 0.847808
O O4 0.906389 0.094121 0.839855
O O5 0.662008 0.750000 0.750000
O O6 0.704731 0.684009 0.850772
O O7 0.286961 0.212365 0.927419
O O8 0.352852 0.428294 0.484157
#
# Coordination Sequence:
#
# PCOD8283196 Si02
#       4
#    16  16   8  16
#     4  11  25  44  65  95 130 166 217 267 313 382
#     4  11  25  43  67  96 128 170 212 263 326 381
#     4  10  24  42  64  94 130 162 212 264 314 386
#     4  11  23  40  64  92 126 168 209 259 319 377
#
# _framework density 22.223482000000001
#
# number of rings (size 3 to 8) (size 9 to 14) (size 15 to 20)
#    0.000    1.143    0.000    6.000    0.000   18.286 
#    0.000    0.000    0.000    0.000    0.000    0.000 
#    0.000    0.000    0.000    0.000    0.000    0.000 
#
# Total GULP energy -347374.759681 kJ/mol
# GULP energy per Si atom -12406.241417 kJ/mol
# Density = 2.217290 g / cm^3
# Si number density = 22.223482 Si / 1000 Ang^3
#
#
#
# Elastic Constant Matrix: (Units=GPa)
#
#
# Indices 1 2 3 4 5 6 
#
# 1 88.0074 20.0270 25.1567 0.0000 0.0000 0.0000
# 2 20.0270 70.4651 14.0331 0.0000 0.0000 0.0000
# 3 25.1567 14.0331 118.9815 0.0000 0.0000 0.0000
# 4 0.0000 0.0000 0.0000 41.5484 0.0000 0.0000
# 5 0.0000 0.0000 0.0000 0.0000 11.8704 0.0000
# 6 0.0000 0.0000 0.0000 0.0000 0.0000 36.1322
#
#
#
# Elastic Compliance Matrix: (Units=1/GPa)
#
#
# Indices 1 2 3 4 5 6 
#
# 1 0.012746 -0.003160 -0.002322 0.000000 0.000000 0.000000
# 2 -0.003160 0.015316 -0.001138 0.000000 0.000000 0.000000
# 3 -0.002322 -0.001138 0.009030 0.000000 0.000000 0.000000
# 4 0.000000 0.000000 0.000000 0.024068 0.000000 0.000000
# 5 0.000000 0.000000 0.000000 0.000000 0.084243 0.000000
# 6 0.000000 0.000000 0.000000 0.000000 0.000000 0.027676
#
#
# Mechanical properties :
#
#
# Convention : Reuss Voigt Hill
#
# Bulk Modulus (GPa) = 41.92734 43.98751 42.95743
# Shear Modulus (GPa) = 25.73734 32.45935 29.09835
#
# Velocity S-wave (km/s) = 3.40680 3.82591 3.62242
# Velocity P-wave (km/s) = 5.86364 6.27320 6.07187
#
# Compressibility (1/GPa) = 0.02385079
#
# Stress axis : x y z
#
# Youngs Moduli (GPa) = 78.45875 65.29027 110.74308
#
# Poissons Ratio (x) = 0.20632 0.25716
# Poissons Ratio (y) = 0.24793 0.12606
# Poissons Ratio (z) = 0.18219 0.07432
#
# Static dielectric constant tensor:
#      x y z
#    x 3.939930 0.000000 0.000000 
#    y 0.000000 4.119170 0.000000 
#    z 0.000000 0.000000 4.074520 
# 
# 
# High freq. dielectric constant tensor:
#      x y z
#    x 1.867470 0.000000 0.000000 
#    y 0.000000 1.886830 0.000000 
#    z 0.000000 0.000000 1.888090 
# 
# From -- ./inp_files/34901.got.cif
#   From: 2010.03.12/outbox.cif.g09.slc.cpg/sg68_18_cif.got.tgz:34901.got - 2010.04.10 23:14:56.
