data_PCOD8283404
_publ_section_title
;
Structure prediction by ZEFSAII (Michael W. Deem and Ramdas Pophale) SiO2 
 PCOD8283404
Probable space group: C C C A
;
_chemical_formula_sum "Si O2"
_cell_formula_units_Z 96
_cell_length_a 16.826548
_cell_length_b 19.590724
_cell_length_c 15.038214
_cell_angle_alpha 90.000000
_cell_angle_beta 90.000000
_cell_angle_gamma 90.000000
_cell_volume 4957.260892
_symmetry_space_group_name_H-M "C C C A"
_symmetry_group_IT_number 68
_space_group.IT_coordinate_system_code '2'
_symmetry_cell_setting 'orthorhombic'
loop_
_space_group_symop_operation_xyz
x,y,z
-x,1/2-y,z
x,1/2-y,1/2-z
-x,y,1/2-z
-x,-y,-z
x,1/2+y,-z
-x,1/2+y,1/2+z
x,-y,1/2+z
1/2+x,1/2+y,z
1/2-x,-y,z
1/2+x,-y,1/2-z
1/2-x,1/2+y,1/2-z
1/2-x,1/2-y,-z
1/2+x,y,-z
1/2-x,y,1/2+z
1/2+x,1/2-y,1/2+z
loop_
_atom_site_type_symbol
_atom_site_label
_atom_site_fract_x
_atom_site_fract_y
_atom_site_fract_z
Si Si1 0.531284 0.446117 0.429925
Si Si2 0.299529 0.931106 0.005156
Si Si3 0.099981 0.874595 0.660567
Si Si4 0.029429 0.323031 0.024606
Si Si5 0.318858 0.250000 0.750000
Si Si6 0.287415 0.804210 0.432925
Si Si7 0.000000 0.018543 0.250000
O O1 0.500000 0.500000 0.500000
O O2 0.625045 0.441240 0.442806
O O3 0.482034 0.375589 0.442873
O O4 0.518464 0.469120 0.330566
O O5 0.326962 0.899864 0.099523
O O6 0.250000 0.000000 0.021862
O O7 0.245871 0.878696 0.950857
O O8 0.124695 0.810004 0.717044
O O9 0.076505 0.935121 0.727542
O O10 0.022430 0.854151 0.604508
O O11 0.118552 0.311380 0.056543
O O12 0.000000 0.250000 0.990901
O O13 0.266470 0.278514 0.667395
O O14 0.250000 0.750000 0.500000
#
# Coordination Sequence:
#
# PCOD8283404 Si02
#       7
#    16  16  16  16   8  16   8
#     4  11  23  45  66  98 129 175 224 270 328 395
#     4  11  24  44  66  94 136 177 212 269 341 392
#     4  11  24  41  70 103 124 164 233 278 321 383
#     4  11  21  42  73  93 128 172 220 275 330 384
#     4  12  24  43  68 104 129 174 220 276 333 388
#     4  12  24  43  65  98 138 170 210 276 335 393
#     4  12  24  41  71  98 128 168 232 278 314 388
#
# _framework density 19.365532999999999
#
# number of rings (size 3 to 8) (size 9 to 14) (size 15 to 20)
#    0.000    0.667    6.667    3.000    2.333    0.667 
#    6.000    0.417    0.000    0.000    0.000    0.000 
#    0.000    0.000    0.000    0.000    0.000    0.000 
#
# Total GULP energy -595214.970894 kJ/mol
# GULP energy per Si atom -12400.311894 kJ/mol
# Density = 1.932146 g / cm^3
# Si number density = 19.365533 Si / 1000 Ang^3
#
#
#
# Elastic Constant Matrix: (Units=GPa)
#
#
# Indices 1 2 3 4 5 6 
#
# 1 93.9356 51.4686 41.2475 0.0000 0.0000 0.0000
# 2 51.4686 154.6275 76.5824 0.0000 0.0000 0.0000
# 3 41.2475 76.5824 155.2266 0.0000 0.0000 0.0000
# 4 0.0000 0.0000 0.0000 40.4465 0.0000 0.0000
# 5 0.0000 0.0000 0.0000 0.0000 15.0827 0.0000
# 6 0.0000 0.0000 0.0000 0.0000 0.0000 35.8346
#
#
#
# Elastic Compliance Matrix: (Units=1/GPa)
#
#
# Indices 1 2 3 4 5 6 
#
# 1 0.013389 -0.003566 -0.001799 0.000000 0.000000 0.000000
# 2 -0.003566 0.009508 -0.003743 0.000000 0.000000 0.000000
# 3 -0.001799 -0.003743 0.008767 0.000000 0.000000 0.000000
# 4 0.000000 0.000000 0.000000 0.024724 0.000000 0.000000
# 5 0.000000 0.000000 0.000000 0.000000 0.066301 0.000000
# 6 0.000000 0.000000 0.000000 0.000000 0.000000 0.027906
#
#
# Mechanical properties :
#
#
# Convention : Reuss Voigt Hill
#
# Bulk Modulus (GPa) = 74.35745 82.48742 78.42244
# Shear Modulus (GPa) = 28.85275 33.90550 31.37912
#
# Velocity S-wave (km/s) = 3.86411 4.18882 4.02974
# Velocity P-wave (km/s) = 7.64125 8.12910 7.88895
#
# Compressibility (1/GPa) = 0.01344855
#
# Stress axis : x y z
#
# Youngs Moduli (GPa) = 74.68745 105.17414 114.06504
#
# Poissons Ratio (x) = 0.37504 0.20515
# Poissons Ratio (y) = 0.26633 0.42698
# Poissons Ratio (z) = 0.13433 0.39370
#
# Static dielectric constant tensor:
#      x y z
#    x 3.508490 0.000000 0.000000 
#    y 0.000000 3.871710 0.000000 
#    z 0.000000 0.000000 3.831760 
# 
# 
# High freq. dielectric constant tensor:
#      x y z
#    x 1.748800 0.000000 0.000000 
#    y 0.000000 1.779050 0.000000 
#    z 0.000000 0.000000 1.749400 
# 
# From -- ./inp_files/22420.got.cif
#   From: 2010.03.12/outbox.cif.g09.slc.cpg/sg68_12_cif.got.tgz:22420.got - 2010.04.10 23:14:56.
