data_PCOD8283792
_publ_section_title
;
Structure prediction by ZEFSAII (Michael W. Deem and Ramdas Pophale) SiO2 
 PCOD8283792
Probable space group: F M M M
;
_chemical_formula_sum "Si O2"
_cell_formula_units_Z 112
_cell_length_a 26.113050
_cell_length_b 10.415853
_cell_length_c 28.331778
_cell_angle_alpha 90.000000
_cell_angle_beta 90.000000
_cell_angle_gamma 90.000000
_cell_volume 7705.951521
_symmetry_space_group_name_H-M "F M M M"
_symmetry_group_IT_number 69
_symmetry_cell_setting 'orthorhombic'
loop_
_space_group_symop_operation_xyz
x,y,z
-x,-y,z
x,-y,-z
-x,y,-z
-x,-y,-z
x,y,-z
-x,y,z
x,-y,z
x,1/2+y,1/2+z
-x,1/2-y,1/2+z
x,1/2-y,1/2-z
-x,1/2+y,1/2-z
-x,1/2-y,1/2-z
x,1/2+y,1/2-z
-x,1/2+y,1/2+z
x,1/2-y,1/2+z
1/2+x,y,1/2+z
1/2-x,-y,1/2+z
1/2+x,-y,1/2-z
1/2-x,y,1/2-z
1/2-x,-y,1/2-z
1/2+x,y,1/2-z
1/2-x,y,1/2+z
1/2+x,-y,1/2+z
1/2+x,1/2+y,z
1/2-x,1/2-y,z
1/2+x,1/2-y,-z
1/2-x,1/2+y,-z
1/2-x,1/2-y,-z
1/2+x,1/2+y,-z
1/2-x,1/2+y,z
1/2+x,1/2-y,z
loop_
_atom_site_type_symbol
_atom_site_label
_atom_site_fract_x
_atom_site_fract_y
_atom_site_fract_z
Si Si1 0.560818 0.000000 0.300482
Si Si2 0.293221 0.856489 0.500000
Si Si3 0.439167 0.500000 0.694570
Si Si4 0.391607 0.645163 0.948223
Si Si5 0.939209 0.253780 0.641765
O O1 0.583523 0.000000 0.247509
O O2 0.580400 0.873430 0.327250
O O3 0.500000 0.000000 0.298213
O O4 0.250000 0.750000 0.500000
O O5 0.329731 0.840777 0.546343
O O6 0.268784 0.000000 0.500000
O O7 0.500000 0.500000 0.697133
O O8 0.419609 0.625453 0.667197
O O9 0.405739 0.500000 0.932687
O O10 0.413554 0.743120 0.909831
O O11 0.416589 0.673679 0.000000
O O12 0.000000 0.255821 0.635536
#
# Coordination Sequence:
#
# PCOD8283792 Si02
#       5
#    16  16  16  32  32
#     4   9  16  26  43  59  77 118 161 181 206 243
#     4   8  16  32  49  65  86 106 133 179 219 250
#     4   9  18  28  37  57  89 118 149 191 214 231
#     4   8  16  29  44  64  88 112 140 181 203 249
#     4  10  17  27  42  61  89 121 149 175 210 249
#
# _framework density 14.534219999999999
#
# number of rings (size 3 to 8) (size 9 to 14) (size 15 to 20)
#    0.857    2.286    1.429    0.857    0.000    4.000 
#    2.571    2.143    0.000    2.571    0.000    0.000 
#    0.000    6.857    0.000    0.000    0.000    0.000 
#
# Total GULP energy -346924.805121 kJ/mol
# GULP energy per Si atom -12390.171611 kJ/mol
# Density = 1.450114 g / cm^3
# Si number density = 14.534220 Si / 1000 Ang^3
#
#
#
# Elastic Constant Matrix: (Units=GPa)
#
#
# Indices 1 2 3 4 5 6 
#
# 1 27.6304 26.4253 26.1752 0.0000 0.0000 0.0000
# 2 26.4253 120.6081 62.9735 0.0000 0.0000 0.0000
# 3 26.1752 62.9735 115.5305 0.0000 0.0000 0.0000
# 4 0.0000 0.0000 0.0000 20.4408 0.0000 0.0000
# 5 0.0000 0.0000 0.0000 0.0000 1.3459 0.0000
# 6 0.0000 0.0000 0.0000 0.0000 0.0000 17.4568
#
#
#
# Elastic Compliance Matrix: (Units=1/GPa)
#
#
# Indices 1 2 3 4 5 6 
#
# 1 0.050033 -0.007050 -0.007493 0.000000 0.000000 0.000000
# 2 -0.007050 0.012583 -0.005262 0.000000 0.000000 0.000000
# 3 -0.007493 -0.005262 0.013221 0.000000 0.000000 0.000000
# 4 0.000000 0.000000 0.000000 0.048922 0.000000 0.000000
# 5 0.000000 0.000000 0.000000 0.000000 0.743016 0.000000
# 6 0.000000 0.000000 0.000000 0.000000 0.000000 0.057284
#
#
# Mechanical properties :
#
#
# Convention : Reuss Voigt Hill
#
# Bulk Modulus (GPa) = 27.60264 54.99076 41.29670
# Shear Modulus (GPa) = 5.11905 17.72838 11.42371
#
# Velocity S-wave (km/s) = 1.87875 3.49631 2.80659
# Velocity P-wave (km/s) = 4.87227 7.36318 6.24321
#
# Compressibility (1/GPa) = 0.03622842
#
# Stress axis : x y z
#
# Youngs Moduli (GPa) = 19.98697 79.47100 75.63522
#
# Poissons Ratio (x) = 0.56026 0.56673
# Poissons Ratio (y) = 0.14091 0.39796
# Poissons Ratio (z) = 0.14976 0.41815
#
# Static dielectric constant tensor:
#      x y z
#    x 2.302600 0.000000 0.000000 
#    y 0.000000 2.844290 0.000000 
#    z 0.000000 0.000000 2.834030 
# 
# 
# High freq. dielectric constant tensor:
#      x y z
#    x 1.493410 0.000000 0.000000 
#    y 0.000000 1.559010 0.000000 
#    z 0.000000 0.000000 1.559180 
# 
# From -- ./inp_files/38134.got.cif
#   From: 2010.03.12/outbox.cif.g09.slc.cpg/sg69_20_cif.got.tgz:38134.got - 2010.04.10 23:52:46.
