data_PCOD8283848
_publ_section_title
;
Structure prediction by ZEFSAII (Michael W. Deem and Ramdas Pophale) SiO2 
 PCOD8283848
Probable space group: F M M M
;
_chemical_formula_sum "Si O2"
_cell_formula_units_Z 208
_cell_length_a 26.118557
_cell_length_b 28.400498
_cell_length_c 17.562439
_cell_angle_alpha 90.000000
_cell_angle_beta 90.000000
_cell_angle_gamma 90.000000
_cell_volume 13027.466455
_symmetry_space_group_name_H-M "F M M M"
_symmetry_group_IT_number 69
_symmetry_cell_setting 'orthorhombic'
loop_
_space_group_symop_operation_xyz
x,y,z
-x,-y,z
x,-y,-z
-x,y,-z
-x,-y,-z
x,y,-z
-x,y,z
x,-y,z
x,1/2+y,1/2+z
-x,1/2-y,1/2+z
x,1/2-y,1/2-z
-x,1/2+y,1/2-z
-x,1/2-y,1/2-z
x,1/2+y,1/2-z
-x,1/2+y,1/2+z
x,1/2-y,1/2+z
1/2+x,y,1/2+z
1/2-x,-y,1/2+z
1/2+x,-y,1/2-z
1/2-x,y,1/2-z
1/2-x,-y,1/2-z
1/2+x,y,1/2-z
1/2-x,y,1/2+z
1/2+x,-y,1/2+z
1/2+x,1/2+y,z
1/2-x,1/2-y,z
1/2+x,1/2-y,-z
1/2-x,1/2+y,-z
1/2-x,1/2-y,-z
1/2+x,1/2+y,-z
1/2-x,1/2+y,z
1/2+x,1/2-y,z
loop_
_atom_site_type_symbol
_atom_site_label
_atom_site_fract_x
_atom_site_fract_y
_atom_site_fract_z
Si Si1 0.057423 0.500000 0.910162
Si Si2 0.889967 0.758277 0.916068
Si Si3 0.875088 0.911969 0.411792
Si Si4 0.795174 0.372043 0.802262
Si Si5 0.626013 0.303667 0.230378
Si Si6 0.715346 0.292032 0.587381
Si Si7 0.557920 0.673325 0.635884
O O1 0.088688 0.545803 0.883576
O O2 0.000000 0.500000 0.874080
O O3 0.052009 0.500000 0.000000
O O4 0.888791 0.802844 0.859196
O O5 0.843545 0.721717 0.900248
O O6 0.939099 0.724488 0.905154
O O7 0.887588 0.780272 0.000000
O O8 0.856328 0.918834 0.500000
O O9 0.827793 0.910271 0.351240
O O10 0.907078 0.863898 0.408758
O O11 0.750000 0.395351 0.750000
O O12 0.829235 0.340939 0.744747
O O13 0.770034 0.337755 0.864626
O O14 0.642761 0.250000 0.250000
O O15 0.576141 0.319902 0.277174
O O16 0.728114 0.303376 0.500000
O O17 0.750000 0.250000 0.618423
O O18 0.500000 0.655060 0.634578
#
# Coordination Sequence:
#
# PCOD8283848 Si02
#       7
#    16  32  32  32  32  32  32
#     4   9  18  32  55  80  96 116 144 181 238 295
#     4  10  18  28  39  58  85 117 160 200 232 266
#     4  10  19  34  50  70  97 117 148 193 233 287
#     4  11  20  28  45  63  89 124 161 188 236 270
#     4   9  17  29  40  57  84 118 157 200 231 264
#     4  10  18  27  41  60  83 115 158 205 239 260
#     4  10  19  29  45  64  88 120 150 188 237 286
#
# _framework density 15.966265999999999
#
# number of rings (size 3 to 8) (size 9 to 14) (size 15 to 20)
#    0.000    2.077    4.615    2.308    0.000    4.615 
#    0.000    1.154    0.000    0.000    0.000    0.000 
#    0.000    0.000    0.000    7.154    0.000   46.154 
#
# Total GULP energy -644454.646967 kJ/mol
# GULP energy per Si atom -12393.358596 kJ/mol
# Density = 1.592993 g / cm^3
# Si number density = 15.966266 Si / 1000 Ang^3
#
#
#
# Elastic Constant Matrix: (Units=GPa)
#
#
# Indices 1 2 3 4 5 6 
#
# 1 84.3080 22.0379 29.7661 0.0000 0.0000 0.0000
# 2 22.0379 54.9129 23.7821 0.0000 0.0000 0.0000
# 3 29.7661 23.7821 94.8299 0.0000 0.0000 0.0000
# 4 0.0000 0.0000 0.0000 11.9914 0.0000 0.0000
# 5 0.0000 0.0000 0.0000 0.0000 19.2699 0.0000
# 6 0.0000 0.0000 0.0000 0.0000 0.0000 19.0206
#
#
#
# Elastic Compliance Matrix: (Units=1/GPa)
#
#
# Indices 1 2 3 4 5 6 
#
# 1 0.014159 -0.004215 -0.003387 0.000000 0.000000 0.000000
# 2 -0.004215 0.021685 -0.004115 0.000000 0.000000 0.000000
# 3 -0.003387 -0.004115 0.012640 0.000000 0.000000 0.000000
# 4 0.000000 0.000000 0.000000 0.083393 0.000000 0.000000
# 5 0.000000 0.000000 0.000000 0.000000 0.051894 0.000000
# 6 0.000000 0.000000 0.000000 0.000000 0.000000 0.052575
#
#
# Mechanical properties :
#
#
# Convention : Reuss Voigt Hill
#
# Bulk Modulus (GPa) = 39.92223 42.80258 41.36240
# Shear Modulus (GPa) = 18.64760 20.62069 19.63415
#
# Velocity S-wave (km/s) = 3.42122 3.59767 3.51055
# Velocity P-wave (km/s) = 6.37689 6.64258 6.51109
#
# Compressibility (1/GPa) = 0.02504870
#
# Stress axis : x y z
#
# Youngs Moduli (GPa) = 70.62606 46.11574 79.11142
#
# Poissons Ratio (x) = 0.19440 0.26797
# Poissons Ratio (y) = 0.29772 0.32555
# Poissons Ratio (z) = 0.23923 0.18977
#
# Static dielectric constant tensor:
#      x y z
#    x 3.047060 0.000000 0.000000 
#    y 0.000000 2.743960 0.000000 
#    z 0.000000 0.000000 3.266490 
# 
# 
# High freq. dielectric constant tensor:
#      x y z
#    x 1.606480 0.000000 0.000000 
#    y 0.000000 1.563040 0.000000 
#    z 0.000000 0.000000 1.615100 
# 
# From -- ./inp_files/27093.got.cif
#   From: 2010.03.12/outbox.cif.g09.slc.cpg/sg69_14_cif.got.tgz:27093.got - 2010.04.10 23:52:46.
