data_PCOD8283798
_publ_section_title
;
Structure prediction by ZEFSAII (Michael W. Deem and Ramdas Pophale) SiO2 
 PCOD8283798
Probable space group: F M M M
;
_chemical_formula_sum "Si O2"
_cell_formula_units_Z 128
_cell_length_a 23.323374
_cell_length_b 18.049938
_cell_length_c 16.551039
_cell_angle_alpha 90.000000
_cell_angle_beta 90.000000
_cell_angle_gamma 90.000000
_cell_volume 6967.746678
_symmetry_space_group_name_H-M "F M M M"
_symmetry_group_IT_number 69
_symmetry_cell_setting 'orthorhombic'
loop_
_space_group_symop_operation_xyz
x,y,z
-x,-y,z
x,-y,-z
-x,y,-z
-x,-y,-z
x,y,-z
-x,y,z
x,-y,z
x,1/2+y,1/2+z
-x,1/2-y,1/2+z
x,1/2-y,1/2-z
-x,1/2+y,1/2-z
-x,1/2-y,1/2-z
x,1/2+y,1/2-z
-x,1/2+y,1/2+z
x,1/2-y,1/2+z
1/2+x,y,1/2+z
1/2-x,-y,1/2+z
1/2+x,-y,1/2-z
1/2-x,y,1/2-z
1/2-x,-y,1/2-z
1/2+x,y,1/2-z
1/2-x,y,1/2+z
1/2+x,-y,1/2+z
1/2+x,1/2+y,z
1/2-x,1/2-y,z
1/2+x,1/2-y,-z
1/2-x,1/2+y,-z
1/2-x,1/2-y,-z
1/2+x,1/2+y,-z
1/2-x,1/2+y,z
1/2+x,1/2-y,z
loop_
_atom_site_type_symbol
_atom_site_label
_atom_site_fract_x
_atom_site_fract_y
_atom_site_fract_z
Si Si1 0.326874 0.220475 0.408547
Si Si2 0.878077 0.917449 0.593901
Si Si3 0.935461 0.273482 0.842360
Si Si4 0.267876 0.639806 0.659613
O O1 0.316090 0.245881 0.500000
O O2 0.394942 0.215910 0.391581
O O3 0.301596 0.281997 0.347320
O O4 0.292284 0.144459 0.390669
O O5 0.880492 0.894172 0.500000
O O6 0.915106 0.858633 0.645136
O O7 0.811524 0.920438 0.623111
O O8 0.903531 0.000000 0.606624
O O9 0.932158 0.250000 0.750000
O O10 0.000000 0.265520 0.875528
O O11 0.250000 0.619424 0.750000
#
# Coordination Sequence:
#
# PCOD8283798 Si02
#       4
#    32  32  32  32
#     4  10  17  27  46  70  96 128 168 211 252 295
#     4  10  21  36  53  76 108 141 173 213 261 313
#     4  10  20  34  51  72 100 134 173 215 258 307
#     4  10  17  28  46  68  98 131 166 204 249 302
#
# _framework density 18.370358
#
# number of rings (size 3 to 8) (size 9 to 14) (size 15 to 20)
#    0.000    2.000    0.000    9.750    0.000    3.000 
#    0.000    1.250    0.000    0.000    0.000    0.000 
#    0.000    3.000    0.000   36.750    0.000    0.000 
#
# Total GULP energy -396443.715687 kJ/mol
# GULP energy per Si atom -12388.866115 kJ/mol
# Density = 1.832855 g / cm^3
# Si number density = 18.370358 Si / 1000 Ang^3
#
#
#
# Elastic Constant Matrix: (Units=GPa)
#
#
# Indices 1 2 3 4 5 6 
#
# 1 148.7643 34.6682 37.7124 0.0000 0.0000 0.0000
# 2 34.6682 54.0450 33.3573 0.0000 0.0000 0.0000
# 3 37.7124 33.3573 90.2347 0.0000 0.0000 0.0000
# 4 0.0000 0.0000 0.0000 19.2457 0.0000 0.0000
# 5 0.0000 0.0000 0.0000 0.0000 16.7080 0.0000
# 6 0.0000 0.0000 0.0000 0.0000 0.0000 17.3238
#
#
#
# Elastic Compliance Matrix: (Units=1/GPa)
#
#
# Indices 1 2 3 4 5 6 
#
# 1 0.008150 -0.004049 -0.001909 0.000000 0.000000 0.000000
# 2 -0.004049 0.025985 -0.007914 0.000000 0.000000 0.000000
# 3 -0.001909 -0.007914 0.014806 0.000000 0.000000 0.000000
# 4 0.000000 0.000000 0.000000 0.051960 0.000000 0.000000
# 5 0.000000 0.000000 0.000000 0.000000 0.059851 0.000000
# 6 0.000000 0.000000 0.000000 0.000000 0.000000 0.057724
#
#
# Mechanical properties :
#
#
# Convention : Reuss Voigt Hill
#
# Bulk Modulus (GPa) = 47.17858 56.05778 51.61818
# Shear Modulus (GPa) = 19.74060 23.14256 21.44158
#
# Velocity S-wave (km/s) = 3.28165 3.55319 3.42011
# Velocity P-wave (km/s) = 6.33219 6.88586 6.61482
#
# Compressibility (1/GPa) = 0.02119606
#
# Stress axis : x y z
#
# Youngs Moduli (GPa) = 122.70394 38.48367 67.54242
#
# Poissons Ratio (x) = 0.15584 0.12894
# Poissons Ratio (y) = 0.49689 0.53450
# Poissons Ratio (z) = 0.23425 0.30454
#
# Static dielectric constant tensor:
#      x y z
#    x 3.928150 0.000000 0.000000 
#    y 0.000000 3.105010 0.000000 
#    z 0.000000 0.000000 3.313500 
# 
# 
# High freq. dielectric constant tensor:
#      x y z
#    x 1.720430 0.000000 0.000000 
#    y 0.000000 1.661800 0.000000 
#    z 0.000000 0.000000 1.715850 
# 
# From -- ./inp_files/22729.got.cif
#   From: 2010.03.12/outbox.cif.g09.slc.cpg/sg69_12_cif.got.tgz:22729.got - 2010.04.10 23:52:46.
