data_PCOD8283700
_publ_section_title
;
Structure prediction by ZEFSAII (Michael W. Deem and Ramdas Pophale) SiO2 
 PCOD8283700
Probable space group: C C C A
;
_chemical_formula_sum "Si O2"
_cell_formula_units_Z 84
_cell_length_a 9.576253
_cell_length_b 12.018330
_cell_length_c 30.304200
_cell_angle_alpha 90.000000
_cell_angle_beta 90.000000
_cell_angle_gamma 90.000000
_cell_volume 3487.727613
_symmetry_space_group_name_H-M "C C C A"
_symmetry_group_IT_number 68
_space_group.IT_coordinate_system_code '2'
_symmetry_cell_setting 'orthorhombic'
loop_
_space_group_symop_operation_xyz
x,y,z
-x,1/2-y,z
x,1/2-y,1/2-z
-x,y,1/2-z
-x,-y,-z
x,1/2+y,-z
-x,1/2+y,1/2+z
x,-y,1/2+z
1/2+x,1/2+y,z
1/2-x,-y,z
1/2+x,-y,1/2-z
1/2-x,1/2+y,1/2-z
1/2-x,1/2-y,-z
1/2+x,y,-z
1/2-x,y,1/2+z
1/2+x,1/2-y,1/2+z
loop_
_atom_site_type_symbol
_atom_site_label
_atom_site_fract_x
_atom_site_fract_y
_atom_site_fract_z
Si Si1 0.303851 0.346643 0.030925
Si Si2 0.750000 0.000000 0.961687
Si Si3 0.000000 0.750000 0.174682
Si Si4 0.589824 0.137430 0.603695
Si Si5 0.963442 0.901121 0.403721
Si Si6 0.000000 0.250000 0.250000
Si Si7 0.268069 0.127764 0.805500
O O1 0.166767 0.382461 0.057759
O O2 0.424752 0.329295 0.067447
O O3 0.250000 0.250000 0.000000
O O4 0.357022 0.438830 0.995433
O O5 0.822353 0.095886 0.932409
O O6 0.934926 0.654947 0.143277
O O7 0.874657 0.802136 0.204477
O O8 0.500000 0.250000 0.604784
O O9 0.705491 0.138214 0.642325
O O10 0.494538 0.029006 0.608404
O O11 0.901861 0.173867 0.220016
O O12 0.250000 0.000000 0.790837
#
# Coordination Sequence:
#
# PCOD8283700 Si02
#       7
#    16   8   8  16  16   4  16
#     4  12  24  41  63  97 148 204 263 334 387 439
#     4  12  26  36  58  98 148 202 270 328 376 434
#     4  12  26  47  84 111 154 206 263 314 390 473
#     4  12  24  46  74 103 151 209 260 320 391 465
#     4  12  25  45  65 106 147 206 272 323 387 459
#     4  12  32  54  92 124 156 202 246 308 430 482
#     4  12  27  56  83 123 161 200 252 326 390 492
#
# _framework density 24.084451000000001
#
# number of rings (size 3 to 8) (size 9 to 14) (size 15 to 20)
#    0.000    0.000    6.667    2.857    5.333    1.905 
#    0.000    0.000    0.000    0.000    0.000    0.000 
#    0.000    0.000    0.000    0.000    0.000    0.000 
#
# Total GULP energy -520522.439874 kJ/mol
# GULP energy per Si atom -12393.391426 kJ/mol
# Density = 2.402963 g / cm^3
# Si number density = 24.084451 Si / 1000 Ang^3
#
#
#
# Elastic Constant Matrix: (Units=GPa)
#
#
# Indices 1 2 3 4 5 6 
#
# 1 122.6713 58.5568 37.3510 0.0000 0.0000 0.0000
# 2 58.5568 143.0469 38.4139 0.0000 0.0000 0.0000
# 3 37.3510 38.4139 76.8311 0.0000 0.0000 0.0000
# 4 0.0000 0.0000 0.0000 8.5815 0.0000 0.0000
# 5 0.0000 0.0000 0.0000 0.0000 22.8006 0.0000
# 6 0.0000 0.0000 0.0000 0.0000 0.0000 49.1661
#
#
#
# Elastic Compliance Matrix: (Units=1/GPa)
#
#
# Indices 1 2 3 4 5 6 
#
# 1 0.010909 -0.003513 -0.003547 0.000000 0.000000 0.000000
# 2 -0.003513 0.009206 -0.002895 0.000000 0.000000 0.000000
# 3 -0.003547 -0.002895 0.016187 0.000000 0.000000 0.000000
# 4 0.000000 0.000000 0.000000 0.116529 0.000000 0.000000
# 5 0.000000 0.000000 0.000000 0.000000 0.043859 0.000000
# 6 0.000000 0.000000 0.000000 0.000000 0.000000 0.020339
#
#
# Mechanical properties :
#
#
# Convention : Reuss Voigt Hill
#
# Bulk Modulus (GPa) = 61.00367 67.91029 64.45698
# Shear Modulus (GPa) = 20.62677 29.99147 25.30912
#
# Velocity S-wave (km/s) = 2.92967 3.53266 3.24520
# Velocity P-wave (km/s) = 6.06861 6.70056 6.39240
#
# Compressibility (1/GPa) = 0.01639246
#
# Stress axis : x y z
#
# Youngs Moduli (GPa) = 91.66957 108.62183 61.77691
#
# Poissons Ratio (x) = 0.38160 0.21911
# Poissons Ratio (y) = 0.32204 0.17885
# Poissons Ratio (z) = 0.32513 0.31447
#
# Static dielectric constant tensor:
#      x y z
#    x 4.192750 0.000000 0.000000 
#    y 0.000000 4.655940 0.000000 
#    z 0.000000 0.000000 4.118790 
# 
# 
# High freq. dielectric constant tensor:
#      x y z
#    x 1.946590 0.000000 0.000000 
#    y 0.000000 1.980780 0.000000 
#    z 0.000000 0.000000 1.946400 
# 
# From -- ./inp_files/54695.got.cif
#   From: 2010.03.12/outbox.cif.g09.slc.cpg/sg68_28_cif.got.tgz:54695.got - 2010.04.10 23:14:56.
