data_PCOD8283583
_publ_section_title
;
Structure prediction by ZEFSAII (Michael W. Deem and Ramdas Pophale) SiO2 
 PCOD8283583
Probable space group: C C C A
;
_chemical_formula_sum "Si O2"
_cell_formula_units_Z 64
_cell_length_a 8.471494
_cell_length_b 31.690073
_cell_length_c 10.621769
_cell_angle_alpha 90.000000
_cell_angle_beta 90.000000
_cell_angle_gamma 90.000000
_cell_volume 2851.544146
_symmetry_space_group_name_H-M "C C C A"
_symmetry_group_IT_number 68
_space_group.IT_coordinate_system_code '2'
_symmetry_cell_setting 'orthorhombic'
loop_
_space_group_symop_operation_xyz
x,y,z
-x,1/2-y,z
x,1/2-y,1/2-z
-x,y,1/2-z
-x,-y,-z
x,1/2+y,-z
-x,1/2+y,1/2+z
x,-y,1/2+z
1/2+x,1/2+y,z
1/2-x,-y,z
1/2+x,-y,1/2-z
1/2-x,1/2+y,1/2-z
1/2-x,1/2-y,-z
1/2+x,y,-z
1/2-x,y,1/2+z
1/2+x,1/2-y,1/2+z
loop_
_atom_site_type_symbol
_atom_site_label
_atom_site_fract_x
_atom_site_fract_y
_atom_site_fract_z
Si Si1 0.551770 0.609586 0.621065
Si Si2 0.607098 0.364070 0.628343
Si Si3 0.674346 0.232436 0.875061
Si Si4 0.425040 0.016445 0.375021
O O1 0.500000 0.634112 0.750000
O O2 0.501763 0.634080 0.495418
O O3 0.742985 0.603857 0.620854
O O4 0.451778 0.566436 0.625663
O O5 0.500000 0.374573 0.750000
O O6 0.681491 0.317828 0.633241
O O7 0.500000 0.250000 0.872836
O O8 0.763254 0.250000 0.750000
O O9 0.750000 0.250000 0.000000
O O10 0.500000 0.995863 0.250000
O O11 0.500000 0.000000 0.500000
O O12 0.250000 0.000000 0.375923
#
# Coordination Sequence:
#
# PCOD8283583 Si02
#       4
#    16  16  16  16
#     4  11  26  43  69 105 139 188 236 288 368 420
#     4  12  24  45  70  99 145 186 239 304 350 430
#     4  11  24  44  66 100 138 184 245 287 357 415
#     4  11  24  45  71 105 143 182 237 289 353 435
#
# _framework density 22.44398
#
# number of rings (size 3 to 8) (size 9 to 14) (size 15 to 20)
#    0.000    0.750    2.500    5.250    3.500    5.500 
#    0.000    0.000    0.000    0.000    0.000    0.000 
#    0.000    0.000    0.000    0.000    0.000    0.000 
#
# Total GULP energy -396654.549868 kJ/mol
# GULP energy per Si atom -12395.454683 kJ/mol
# Density = 2.239290 g / cm^3
# Si number density = 22.443980 Si / 1000 Ang^3
#
#
#
# Elastic Constant Matrix: (Units=GPa)
#
#
# Indices 1 2 3 4 5 6 
#
# 1 160.1924 42.7163 82.9756 0.0000 0.0000 0.0000
# 2 42.7163 94.6646 36.7348 0.0000 0.0000 0.0000
# 3 82.9756 36.7348 271.2764 0.0000 0.0000 0.0000
# 4 0.0000 0.0000 0.0000 28.9888 0.0000 0.0000
# 5 0.0000 0.0000 0.0000 0.0000 49.8182 0.0000
# 6 0.0000 0.0000 0.0000 0.0000 0.0000 32.7271
#
#
#
# Elastic Compliance Matrix: (Units=1/GPa)
#
#
# Indices 1 2 3 4 5 6 
#
# 1 0.008080 -0.002836 -0.002087 0.000000 0.000000 0.000000
# 2 -0.002836 0.012145 -0.000777 0.000000 0.000000 0.000000
# 3 -0.002087 -0.000777 0.004430 0.000000 0.000000 0.000000
# 4 0.000000 0.000000 0.000000 0.034496 0.000000 0.000000
# 5 0.000000 0.000000 0.000000 0.000000 0.020073 0.000000
# 6 0.000000 0.000000 0.000000 0.000000 0.000000 0.030556
#
#
# Mechanical properties :
#
#
# Convention : Reuss Voigt Hill
#
# Bulk Modulus (GPa) = 75.45012 94.55410 85.00211
# Shear Modulus (GPa) = 39.80941 46.55395 43.18168
#
# Velocity S-wave (km/s) = 4.21613 4.55931 4.39107
# Velocity P-wave (km/s) = 7.57569 8.36282 7.97897
#
# Compressibility (1/GPa) = 0.01325379
#
# Stress axis : x y z
#
# Youngs Moduli (GPa) = 123.76342 82.33924 225.73434
#
# Poissons Ratio (x) = 0.23351 0.47119
# Poissons Ratio (y) = 0.35099 0.17543
# Poissons Ratio (z) = 0.25834 0.06399
#
# Static dielectric constant tensor:
#      x y z
#    x 3.966570 0.000000 0.000000 
#    y 0.000000 4.031060 0.000000 
#    z 0.000000 0.000000 4.874970 
# 
# 
# High freq. dielectric constant tensor:
#      x y z
#    x 1.886280 0.000000 0.000000 
#    y 0.000000 1.869770 0.000000 
#    z 0.000000 0.000000 1.926460 
# 
# From -- ./inp_files/10743.got.cif
#   From: 2010.03.12/outbox.cif.g09.slc.cpg/sg68_6_cif.got.tgz:10743.got - 2010.04.10 23:14:56.
