data_PCOD8283190
_publ_section_title
;
Structure prediction by ZEFSAII (Michael W. Deem and Ramdas Pophale) SiO2 
 PCOD8283190
Probable space group: C C C A
;
_chemical_formula_sum "Si O2"
_cell_formula_units_Z 116
_cell_length_a 23.648187
_cell_length_b 9.171574
_cell_length_c 26.501802
_cell_angle_alpha 90.000000
_cell_angle_beta 90.000000
_cell_angle_gamma 90.000000
_cell_volume 5748.004909
_symmetry_space_group_name_H-M "C C C A"
_symmetry_group_IT_number 68
_space_group.IT_coordinate_system_code '2'
_symmetry_cell_setting 'orthorhombic'
loop_
_space_group_symop_operation_xyz
x,y,z
-x,1/2-y,z
x,1/2-y,1/2-z
-x,y,1/2-z
-x,-y,-z
x,1/2+y,-z
-x,1/2+y,1/2+z
x,-y,1/2+z
1/2+x,1/2+y,z
1/2-x,-y,z
1/2+x,-y,1/2-z
1/2-x,1/2+y,1/2-z
1/2-x,1/2-y,-z
1/2+x,y,-z
1/2-x,y,1/2+z
1/2+x,1/2-y,1/2+z
loop_
_atom_site_type_symbol
_atom_site_label
_atom_site_fract_x
_atom_site_fract_y
_atom_site_fract_z
Si Si1 0.298690 0.760142 0.959295
Si Si2 0.872071 0.981709 0.503737
Si Si3 0.675009 0.081014 0.691974
Si Si4 0.912591 0.190348 0.330191
Si Si5 0.062768 0.726844 0.944776
Si Si6 0.500000 0.250000 0.750000
Si Si7 0.716062 0.203301 0.153001
Si Si8 0.685599 0.517892 0.694655
O O1 0.271082 0.751408 0.904303
O O2 0.330663 0.913856 0.964946
O O3 0.250000 0.750000 0.000000
O O4 0.339219 0.620448 0.964231
O O5 0.902232 0.873496 0.543403
O O6 0.914426 0.082470 0.472073
O O7 0.613884 0.153388 0.686000
O O8 0.723959 0.202099 0.683107
O O9 0.684899 0.952975 0.651782
O O10 0.682197 0.012370 0.746564
O O11 0.939858 0.200754 0.384967
O O12 0.960369 0.152815 0.287756
O O13 0.862314 0.073711 0.333708
O O14 0.000000 0.750000 0.965549
O O15 0.673295 0.313088 0.181600
O O16 0.750000 0.500000 0.673458
#
# Coordination Sequence:
#
# PCOD8283190 Si02
#       8
#    16  16  16  16  16   4  16  16
#     4  11  24  40  60  90 133 169 202 252 321 398
#     4  10  24  41  63  92 128 159 217 265 316 380
#     4  11  23  36  62  88 127 165 212 254 316 386
#     4  12  24  42  67  93 128 169 221 264 324 381
#     4  11  23  43  68  92 120 168 217 276 322 371
#     4  12  24  44  64  98 124 176 220 276 300 390
#     4  11  24  36  61  92 128 169 202 251 329 385
#     4  12  22  38  60  94 129 160 206 270 318 383
#
# _framework density 20.180914999999999
#
# number of rings (size 3 to 8) (size 9 to 14) (size 15 to 20)
#    0.000    0.828    4.828    2.897    7.724    1.103 
#    0.000    0.000    0.000    1.655    0.000    0.000 
#    0.000    0.000    0.000    0.000    0.000    0.000 
#
# Total GULP energy -719143.702272 kJ/mol
# GULP energy per Si atom -12399.029350 kJ/mol
# Density = 2.013498 g / cm^3
# Si number density = 20.180915 Si / 1000 Ang^3
#
#
#
# Elastic Constant Matrix: (Units=GPa)
#
#
# Indices 1 2 3 4 5 6 
#
# 1 96.5527 40.3873 29.0126 0.0000 0.0000 0.0000
# 2 40.3873 102.6828 35.3901 0.0000 0.0000 0.0000
# 3 29.0126 35.3901 129.9299 0.0000 0.0000 0.0000
# 4 0.0000 0.0000 0.0000 23.8611 0.0000 0.0000
# 5 0.0000 0.0000 0.0000 0.0000 31.7927 0.0000
# 6 0.0000 0.0000 0.0000 0.0000 0.0000 19.1436
#
#
#
# Elastic Compliance Matrix: (Units=1/GPa)
#
#
# Indices 1 2 3 4 5 6 
#
# 1 0.012701 -0.004434 -0.001628 0.000000 0.000000 0.000000
# 2 -0.004434 0.012296 -0.002359 0.000000 0.000000 0.000000
# 3 -0.001628 -0.002359 0.008703 0.000000 0.000000 0.000000
# 4 0.000000 0.000000 0.000000 0.041909 0.000000 0.000000
# 5 0.000000 0.000000 0.000000 0.000000 0.031454 0.000000
# 6 0.000000 0.000000 0.000000 0.000000 0.000000 0.052237
#
#
# Mechanical properties :
#
#
# Convention : Reuss Voigt Hill
#
# Bulk Modulus (GPa) = 59.32484 59.86061 59.59273
# Shear Modulus (GPa) = 27.50855 29.91784 28.71319
#
# Velocity S-wave (km/s) = 3.69602 3.85448 3.77608
# Velocity P-wave (km/s) = 6.90467 7.03816 6.97173
#
# Compressibility (1/GPa) = 0.01685635
#
# Stress axis : x y z
#
# Youngs Moduli (GPa) = 78.73267 81.32772 114.90864
#
# Poissons Ratio (x) = 0.36065 0.18710
# Poissons Ratio (y) = 0.34914 0.27106
# Poissons Ratio (z) = 0.12820 0.19185
#
# Static dielectric constant tensor:
#      x y z
#    x 3.771920 0.000000 0.000000 
#    y 0.000000 3.895910 0.000000 
#    z 0.000000 0.000000 3.554320 
# 
# 
# High freq. dielectric constant tensor:
#      x y z
#    x 1.775330 0.000000 0.000000 
#    y 0.000000 1.794850 0.000000 
#    z 0.000000 0.000000 1.795850 
# 
# From -- ./inp_files/52200.got.cif
#   From: 2010.03.12/outbox.cif.g09.slc.cpg/sg68_27_cif.got.tgz:52200.got - 2010.04.10 23:14:56.
