data_PCOD8283176
_publ_section_title
;
Structure prediction by ZEFSAII (Michael W. Deem and Ramdas Pophale) SiO2 
 PCOD8283176
Probable space group: C C C A
;
_chemical_formula_sum "Si O2"
_cell_formula_units_Z 56
_cell_length_a 9.674238
_cell_length_b 28.604649
_cell_length_c 8.820563
_cell_angle_alpha 90.000000
_cell_angle_beta 90.000000
_cell_angle_gamma 90.000000
_cell_volume 2440.898366
_symmetry_space_group_name_H-M "C C C A"
_symmetry_group_IT_number 68
_space_group.IT_coordinate_system_code '2'
_symmetry_cell_setting 'orthorhombic'
loop_
_space_group_symop_operation_xyz
x,y,z
-x,1/2-y,z
x,1/2-y,1/2-z
-x,y,1/2-z
-x,-y,-z
x,1/2+y,-z
-x,1/2+y,1/2+z
x,-y,1/2+z
1/2+x,1/2+y,z
1/2-x,-y,z
1/2+x,-y,1/2-z
1/2-x,1/2+y,1/2-z
1/2-x,1/2-y,-z
1/2+x,y,-z
1/2-x,y,1/2+z
1/2+x,1/2-y,1/2+z
loop_
_atom_site_type_symbol
_atom_site_label
_atom_site_fract_x
_atom_site_fract_y
_atom_site_fract_z
Si Si1 0.750000 0.000000 0.511764
Si Si2 0.056756 0.197888 0.960933
Si Si3 0.208696 0.163828 0.667818
Si Si4 0.350844 0.435059 0.268459
O O1 0.642724 0.026394 0.401496
O O2 0.818687 0.040033 0.610658
O O3 0.157914 0.191339 0.816765
O O4 0.000000 0.250000 0.967724
O O5 0.919043 0.165466 0.953151
O O6 0.149389 0.186821 0.108362
O O7 0.247896 0.109331 0.700630
O O8 0.500000 0.411845 0.250000
#
# Coordination Sequence:
#
# PCOD8283176 Si02
#       4
#     8  16  16  16
#     4  10  24  38  64  96 132 178 222 280 332 404
#     4  11  24  44  68  99 133 173 225 280 345 399
#     4  11  23  43  69  97 137 177 222 288 331 409
#     4  11  21  41  64  95 135 174 227 273 343 394
#
# _framework density 22.942371000000001
#
# number of rings (size 3 to 8) (size 9 to 14) (size 15 to 20)
#    0.000    1.143    2.857    5.143    0.000    1.143 
#    0.000    2.857    0.000    0.000    0.000    0.000 
#    0.000    0.000    0.000    0.000    0.000    0.000 
#
# Total GULP energy -347061.671773 kJ/mol
# GULP energy per Si atom -12395.059706 kJ/mol
# Density = 2.289015 g / cm^3
# Si number density = 22.942371 Si / 1000 Ang^3
#
#
#
# Elastic Constant Matrix: (Units=GPa)
#
#
# Indices 1 2 3 4 5 6 
#
# 1 76.5076 42.1184 32.4557 0.0000 0.0000 0.0000
# 2 42.1184 175.6778 63.3680 0.0000 0.0000 0.0000
# 3 32.4557 63.3680 97.3465 0.0000 0.0000 0.0000
# 4 0.0000 0.0000 0.0000 -143.7467 0.0000 0.0000
# 5 0.0000 0.0000 0.0000 0.0000 35.0372 0.0000
# 6 0.0000 0.0000 0.0000 0.0000 0.0000 33.6431
#
#
#
# Elastic Compliance Matrix: (Units=1/GPa)
#
#
# Indices 1 2 3 4 5 6 
#
# 1 0.016023 -0.002502 -0.003714 0.000000 0.000000 0.000000
# 2 -0.002502 0.007830 -0.004263 0.000000 0.000000 0.000000
# 3 -0.003714 -0.004263 0.014285 0.000000 0.000000 0.000000
# 4 0.000000 0.000000 0.000000 -0.006957 0.000000 0.000000
# 5 0.000000 0.000000 0.000000 0.000000 0.028541 0.000000
# 6 0.000000 0.000000 0.000000 0.000000 0.000000 0.029724
#
#
# Mechanical properties :
#
#
# Convention : Reuss Voigt Hill
#
# Bulk Modulus (GPa) = 58.19998 69.49069 63.84533
# Shear Modulus (GPa) = 43.05515 -0.90730 21.07393
#
# Velocity S-wave (km/s) = 4.33675 -0.62955 3.03406
# Velocity P-wave (km/s) = 7.10630 5.46137 6.33743
#
# Compressibility (1/GPa) = 0.01718214
#
# Stress axis : x y z
#
# Youngs Moduli (GPa) = 62.40896 127.72003 70.00168
#
# Poissons Ratio (x) = 0.31957 0.25995
# Poissons Ratio (y) = 0.15615 0.29838
# Poissons Ratio (z) = 0.23176 0.54441
#
# Static dielectric constant tensor:
#      x y z
#    x 4.118280 0.000000 0.000000 
#    y 0.000000 4.125360 0.000000 
#    z 0.000000 0.000000 4.160050 
# 
# 
# High freq. dielectric constant tensor:
#      x y z
#    x 1.891060 0.000000 0.000000 
#    y 0.000000 1.922850 0.000000 
#    z 0.000000 0.000000 1.903610 
# 
# From -- ./inp_files/4009.got.cif
#   From: 2010.03.12/outbox.cif.g09.slc.cpg/sg68_3_cif.got.tgz:4009.got - 2010.04.10 23:14:56.
