data_PCOD8283009
_publ_section_title
;
Structure prediction by ZEFSAII (Michael W. Deem and Ramdas Pophale) SiO2 
 PCOD8283009
Probable space group: C C C A
;
_chemical_formula_sum "Si O2"
_cell_formula_units_Z 84
_cell_length_a 20.927699
_cell_length_b 13.511667
_cell_length_c 14.505155
_cell_angle_alpha 90.000000
_cell_angle_beta 90.000000
_cell_angle_gamma 90.000000
_cell_volume 4101.595119
_symmetry_space_group_name_H-M "C C C A"
_symmetry_group_IT_number 68
_space_group.IT_coordinate_system_code '2'
_symmetry_cell_setting 'orthorhombic'
loop_
_space_group_symop_operation_xyz
x,y,z
-x,1/2-y,z
x,1/2-y,1/2-z
-x,y,1/2-z
-x,-y,-z
x,1/2+y,-z
-x,1/2+y,1/2+z
x,-y,1/2+z
1/2+x,1/2+y,z
1/2-x,-y,z
1/2+x,-y,1/2-z
1/2-x,1/2+y,1/2-z
1/2-x,1/2-y,-z
1/2+x,y,-z
1/2-x,y,1/2+z
1/2+x,1/2-y,1/2+z
loop_
_atom_site_type_symbol
_atom_site_label
_atom_site_fract_x
_atom_site_fract_y
_atom_site_fract_z
Si Si1 0.629375 0.553722 0.626557
Si Si2 0.321460 0.235434 0.030658
Si Si3 0.493030 0.366422 0.079311
Si Si4 0.500000 0.250000 0.750000
Si Si5 0.879374 0.844774 0.195512
Si Si6 0.083188 0.348930 0.405878
O O1 0.670228 0.618981 0.554710
O O2 0.555276 0.577616 0.611223
O O3 0.652175 0.580269 0.730637
O O4 0.635282 0.436018 0.612789
O O5 0.329126 0.305978 0.119786
O O6 0.250000 0.250000 0.000000
O O7 0.375134 0.261597 0.953623
O O8 0.500000 0.250000 0.091118
O O9 0.436512 0.403399 0.146135
O O10 0.472883 0.388341 0.973653
O O11 0.452299 0.184923 0.687074
O O12 0.907231 0.750000 0.250000
#
# Coordination Sequence:
#
# PCOD8283009 Si02
#       6
#    16  16  16   4  16  16
#     4  11  21  36  65  96 122 158 214 254 320 384
#     4  10  22  44  66  83 124 167 218 272 315 362
#     4  11  17  34  60  91 126 156 199 253 321 371
#     4  12  24  44  56  96 148 160 204 246 352 388
#     4   9  18  32  60  94 117 149 204 263 308 364
#     4  11  24  40  60  93 130 172 198 258 321 405
#
# _framework density 20.479837
#
# number of rings (size 3 to 8) (size 9 to 14) (size 15 to 20)
#    0.000    1.524    6.667    1.143    2.667    0.762 
#    8.571    0.000    0.000    0.000    0.000    0.000 
#    0.000    0.000    0.000    0.000    0.000    0.000 
#
# Total GULP energy -520567.347519 kJ/mol
# GULP energy per Si atom -12394.460655 kJ/mol
# Density = 2.043322 g / cm^3
# Si number density = 20.479837 Si / 1000 Ang^3
#
#
#
# Elastic Constant Matrix: (Units=GPa)
#
#
# Indices 1 2 3 4 5 6 
#
# 1 101.3439 14.9432 45.5912 0.0000 0.0000 0.0000
# 2 14.9432 86.7058 39.8009 0.0000 0.0000 0.0000
# 3 45.5912 39.8009 137.2093 0.0000 0.0000 0.0000
# 4 0.0000 0.0000 0.0000 17.2372 0.0000 0.0000
# 5 0.0000 0.0000 0.0000 0.0000 15.8093 0.0000
# 6 0.0000 0.0000 0.0000 0.0000 0.0000 15.6769
#
#
#
# Elastic Compliance Matrix: (Units=1/GPa)
#
#
# Indices 1 2 3 4 5 6 
#
# 1 0.011607 -0.000265 -0.003780 0.000000 0.000000 0.000000
# 2 -0.000265 0.013311 -0.003773 0.000000 0.000000 0.000000
# 3 -0.003780 -0.003773 0.009638 0.000000 0.000000 0.000000
# 4 0.000000 0.000000 0.000000 0.058014 0.000000 0.000000
# 5 0.000000 0.000000 0.000000 0.000000 0.063254 0.000000
# 6 0.000000 0.000000 0.000000 0.000000 0.000000 0.063788
#
#
# Mechanical properties :
#
#
# Convention : Reuss Voigt Hill
#
# Bulk Modulus (GPa) = 52.85359 58.43662 55.64511
# Shear Modulus (GPa) = 20.69922 24.73960 22.71941
#
# Velocity S-wave (km/s) = 3.18262 3.47940 3.33431
# Velocity P-wave (km/s) = 6.27448 6.68859 6.48484
#
# Compressibility (1/GPa) = 0.01892019
#
# Stress axis : x y z
#
# Youngs Moduli (GPa) = 86.15581 75.12630 103.75079
#
# Poissons Ratio (x) = 0.01994 0.39215
# Poissons Ratio (y) = 0.02286 0.39145
# Poissons Ratio (z) = 0.32564 0.28345
#
# Static dielectric constant tensor:
#      x y z
#    x 3.552030 0.000000 0.000000 
#    y 0.000000 4.266010 0.000000 
#    z 0.000000 0.000000 4.291710 
# 
# 
# High freq. dielectric constant tensor:
#      x y z
#    x 1.768900 0.000000 0.000000 
#    y 0.000000 1.783540 0.000000 
#    z 0.000000 0.000000 1.814270 
# 
# From -- ./inp_files/24379.got.cif
#   From: 2010.03.12/outbox.cif.g09.slc.cpg/sg68_13_cif.got.tgz:24379.got - 2010.04.10 23:14:56.
