data_PCOD8283945
_publ_section_title
;
Structure prediction by ZEFSAII (Michael W. Deem and Ramdas Pophale) SiO2 
 PCOD8283945
Probable space group: F M M M
;
_chemical_formula_sum "Si O2"
_cell_formula_units_Z 176
_cell_length_a 14.091855
_cell_length_b 23.272534
_cell_length_c 28.103441
_cell_angle_alpha 90.000000
_cell_angle_beta 90.000000
_cell_angle_gamma 90.000000
_cell_volume 9216.612693
_symmetry_space_group_name_H-M "F M M M"
_symmetry_group_IT_number 69
_symmetry_cell_setting 'orthorhombic'
loop_
_space_group_symop_operation_xyz
x,y,z
-x,-y,z
x,-y,-z
-x,y,-z
-x,-y,-z
x,y,-z
-x,y,z
x,-y,z
x,1/2+y,1/2+z
-x,1/2-y,1/2+z
x,1/2-y,1/2-z
-x,1/2+y,1/2-z
-x,1/2-y,1/2-z
x,1/2+y,1/2-z
-x,1/2+y,1/2+z
x,1/2-y,1/2+z
1/2+x,y,1/2+z
1/2-x,-y,1/2+z
1/2+x,-y,1/2-z
1/2-x,y,1/2-z
1/2-x,-y,1/2-z
1/2+x,y,1/2-z
1/2-x,y,1/2+z
1/2+x,-y,1/2+z
1/2+x,1/2+y,z
1/2-x,1/2-y,z
1/2+x,1/2-y,-z
1/2-x,1/2+y,-z
1/2-x,1/2-y,-z
1/2+x,1/2+y,-z
1/2-x,1/2+y,z
1/2+x,1/2-y,z
loop_
_atom_site_type_symbol
_atom_site_label
_atom_site_fract_x
_atom_site_fract_y
_atom_site_fract_z
Si Si1 0.113041 0.341386 0.946986
Si Si2 0.112940 0.786010 0.053413
Si Si3 0.108540 0.436099 0.876042
Si Si4 0.734179 0.434512 0.802485
Si Si5 0.887346 0.500000 0.553804
Si Si6 0.887062 0.391541 0.615369
O O1 0.149983 0.277722 0.932014
O O2 0.154582 0.390033 0.912202
O O3 0.000000 0.342817 0.945375
O O4 0.148546 0.355549 0.000000
O O5 0.151306 0.833297 0.090426
O O6 0.000000 0.786515 0.053726
O O7 0.148254 0.801230 0.000000
O O8 0.118352 0.500000 0.898522
O O9 0.163161 0.432124 0.826648
O O10 0.000000 0.421229 0.864605
O O11 0.696054 0.500000 0.799048
O O12 0.750000 0.408112 0.750000
O O13 0.658348 0.397080 0.832245
O O14 0.845850 0.500000 0.500000
O O15 0.851616 0.444325 0.582601
O O16 0.000000 0.500000 0.550979
O O17 0.000000 0.391135 0.621028
#
# Coordination Sequence:
#
# PCOD8283945 Si02
#       6
#    32  32  32  32  16  32
#     4   8  14  27  49  75 102 133 167 200 238 290
#     4   8  14  26  47  75 105 137 166 192 233 295
#     4   9  18  33  53  74  96 126 165 208 255 296
#     4  10  21  36  52  71  98 127 164 216 259 294
#     4   9  16  26  43  70 103 133 156 185 228 282
#     4  10  18  30  50  75 103 133 164 196 241 299
#
# _framework density 19.095953999999999
#
# number of rings (size 3 to 8) (size 9 to 14) (size 15 to 20)
#    0.000    3.000    0.909    1.636    0.000    3.273 
#    0.000    6.364    0.000    4.364    0.000    5.091 
#    0.000    0.000    0.000    0.000    0.000    0.000 
#
# Total GULP energy -545461.398796 kJ/mol
# GULP energy per Si atom -12396.849973 kJ/mol
# Density = 1.905249 g / cm^3
# Si number density = 19.095954 Si / 1000 Ang^3
#
#
#
# Elastic Constant Matrix: (Units=GPa)
#
#
# Indices 1 2 3 4 5 6 
#
# 1 27.8395 30.0672 28.8742 0.0000 0.0000 0.0000
# 2 30.0672 133.1994 89.4396 0.0000 0.0000 0.0000
# 3 28.8742 89.4396 155.7337 0.0000 0.0000 0.0000
# 4 0.0000 0.0000 0.0000 24.6447 0.0000 0.0000
# 5 0.0000 0.0000 0.0000 0.0000 21.7078 0.0000
# 6 0.0000 0.0000 0.0000 0.0000 0.0000 13.8982
#
#
#
# Elastic Compliance Matrix: (Units=1/GPa)
#
#
# Indices 1 2 3 4 5 6 
#
# 1 0.049348 -0.008132 -0.004480 0.000000 0.000000 0.000000
# 2 -0.008132 0.013560 -0.006280 0.000000 0.000000 0.000000
# 3 -0.004480 -0.006280 0.010858 0.000000 0.000000 0.000000
# 4 0.000000 0.000000 0.000000 0.040577 0.000000 0.000000
# 5 0.000000 0.000000 0.000000 0.000000 0.046066 0.000000
# 6 0.000000 0.000000 0.000000 0.000000 0.000000 0.071952
#
#
# Mechanical properties :
#
#
# Convention : Reuss Voigt Hill
#
# Bulk Modulus (GPa) = 27.78966 68.17052 47.98009
# Shear Modulus (GPa) = 17.72182 23.27627 20.49904
#
# Velocity S-wave (km/s) = 3.04968 3.49508 3.27995
# Velocity P-wave (km/s) = 5.19471 7.21553 6.28684
#
# Compressibility (1/GPa) = 0.03598461
#
# Stress axis : x y z
#
# Youngs Moduli (GPa) = 20.26409 73.74698 92.09477
#
# Poissons Ratio (x) = 0.59968 0.41254
# Poissons Ratio (y) = 0.16478 0.57835
# Poissons Ratio (z) = 0.09077 0.46313
#
# Static dielectric constant tensor:
#      x y z
#    x 3.270780 0.000000 0.000000 
#    y 0.000000 3.797970 0.000000 
#    z 0.000000 0.000000 3.403470 
# 
# 
# High freq. dielectric constant tensor:
#      x y z
#    x 1.741610 0.000000 0.000000 
#    y 0.000000 1.738110 0.000000 
#    z 0.000000 0.000000 1.715120 
# 
# From -- ./inp_files/18061.got.cif
#   From: 2010.03.12/outbox.cif.g09.slc.cpg/sg69_10_cif.got.tgz:18061.got - 2010.04.10 23:52:46.
