data_PCOD8283533
_publ_section_title
;
Structure prediction by ZEFSAII (Michael W. Deem and Ramdas Pophale) SiO2 
 PCOD8283533
Probable space group: C C C A
;
_chemical_formula_sum "Si O2"
_cell_formula_units_Z 92
_cell_length_a 20.686596
_cell_length_b 23.340930
_cell_length_c 8.432388
_cell_angle_alpha 90.000000
_cell_angle_beta 90.000000
_cell_angle_gamma 90.000000
_cell_volume 4071.531233
_symmetry_space_group_name_H-M "C C C A"
_symmetry_group_IT_number 68
_space_group.IT_coordinate_system_code '2'
_symmetry_cell_setting 'orthorhombic'
loop_
_space_group_symop_operation_xyz
x,y,z
-x,1/2-y,z
x,1/2-y,1/2-z
-x,y,1/2-z
-x,-y,-z
x,1/2+y,-z
-x,1/2+y,1/2+z
x,-y,1/2+z
1/2+x,1/2+y,z
1/2-x,-y,z
1/2+x,-y,1/2-z
1/2-x,1/2+y,1/2-z
1/2-x,1/2-y,-z
1/2+x,y,-z
1/2-x,y,1/2+z
1/2+x,1/2-y,1/2+z
loop_
_atom_site_type_symbol
_atom_site_label
_atom_site_fract_x
_atom_site_fract_y
_atom_site_fract_z
Si Si1 0.231544 0.123605 0.115775
Si Si2 0.131071 0.432499 0.827287
Si Si3 0.500000 0.750000 0.750000
Si Si4 0.500000 0.882898 0.250000
Si Si5 0.108357 0.055293 0.031354
Si Si6 0.077708 0.323525 0.992124
Si Si7 0.293564 0.702002 0.125744
O O1 0.293482 0.085643 0.165345
O O2 0.177333 0.086104 0.035566
O O3 0.198838 0.142582 0.279793
O O4 0.243715 0.183412 0.014397
O O5 0.095442 0.439641 0.656888
O O6 0.120399 0.490078 0.924810
O O7 0.094244 0.384576 0.922074
O O8 0.544053 0.788728 0.856721
O O9 0.449561 0.920159 0.142600
O O10 0.465545 0.836501 0.358161
O O11 0.137815 0.283805 0.047034
O O12 0.268092 0.750000 0.250000
#
# Coordination Sequence:
#
# PCOD8283533 Si02
#       7
#    16  16   4   8  16  16  16
#     4  11  23  45  69 105 143 185 236 298 358 438
#     4  11  26  45  72 106 147 184 245 298 363 427
#     4  12  28  48  76 100 152 204 236 298 350 422
#     4  12  26  46  76 102 148 182 244 292 352 442
#     4  12  25  43  75 104 145 193 232 299 364 429
#     4  11  27  47  71 107 142 193 246 294 355 430
#     4  11  24  44  71 104 143 185 243 300 363 416
#
# _framework density 22.595922999999999
#
# number of rings (size 3 to 8) (size 9 to 14) (size 15 to 20)
#    0.000    0.696    3.478    3.130    4.870    6.261 
#    6.261    0.000    0.000    0.000    0.000    0.000 
#    0.000    0.000    0.000    0.000    0.000    0.000 
#
# Total GULP energy -569878.227254 kJ/mol
# GULP energy per Si atom -12388.657114 kJ/mol
# Density = 2.254449 g / cm^3
# Si number density = 22.595923 Si / 1000 Ang^3
#
#
#
# Elastic Constant Matrix: (Units=GPa)
#
#
# Indices 1 2 3 4 5 6 
#
# 1 108.3190 53.9905 47.7212 0.0000 0.0000 0.0000
# 2 53.9905 68.1815 43.2187 0.0000 0.0000 0.0000
# 3 47.7212 43.2187 136.8300 0.0000 0.0000 0.0000
# 4 0.0000 0.0000 0.0000 46.3433 0.0000 0.0000
# 5 0.0000 0.0000 0.0000 0.0000 83.4657 0.0000
# 6 0.0000 0.0000 0.0000 0.0000 0.0000 6.7804
#
#
#
# Elastic Compliance Matrix: (Units=1/GPa)
#
#
# Indices 1 2 3 4 5 6 
#
# 1 0.015649 -0.011169 -0.001930 0.000000 0.000000 0.000000
# 2 -0.011169 0.026309 -0.004415 0.000000 0.000000 0.000000
# 3 -0.001930 -0.004415 0.009376 0.000000 0.000000 0.000000
# 4 0.000000 0.000000 0.000000 0.021578 0.000000 0.000000
# 5 0.000000 0.000000 0.000000 0.000000 0.011981 0.000000
# 6 0.000000 0.000000 0.000000 0.000000 0.000000 0.147483
#
#
# Mechanical properties :
#
#
# Convention : Reuss Voigt Hill
#
# Bulk Modulus (GPa) = 61.32223 67.02127 64.17175
# Shear Modulus (GPa) = 18.32582 38.54454 28.43518
#
# Velocity S-wave (km/s) = 2.85094 4.13464 3.55127
# Velocity P-wave (km/s) = 6.16722 7.24698 6.72880
#
# Compressibility (1/GPa) = 0.01630730
#
# Stress axis : x y z
#
# Youngs Moduli (GPa) = 63.90098 38.00960 106.65584
#
# Poissons Ratio (x) = 0.42451 0.20587
# Poissons Ratio (y) = 0.71368 0.47086
# Poissons Ratio (z) = 0.12334 0.16780
#
# Static dielectric constant tensor:
#      x y z
#    x 4.154700 0.000000 0.000000 
#    y 0.000000 4.557270 0.000000 
#    z 0.000000 0.000000 4.535290 
# 
# 
# High freq. dielectric constant tensor:
#      x y z
#    x 1.890430 0.000000 0.000000 
#    y 0.000000 1.897420 0.000000 
#    z 0.000000 0.000000 1.924290 
# 
# From -- ./inp_files/7180.got.cif
#   From: 2010.03.12/outbox.cif.g09.slc.cpg/sg68_4_cif.got.tgz:7180.got - 2010.04.10 23:14:56.
