data_PCOD8283837
_publ_section_title
;
Structure prediction by ZEFSAII (Michael W. Deem and Ramdas Pophale) SiO2 
 PCOD8283837
Probable space group: F M M M
;
_chemical_formula_sum "Si O2"
_cell_formula_units_Z 144
_cell_length_a 17.858537
_cell_length_b 17.032866
_cell_length_c 25.479909
_cell_angle_alpha 90.000000
_cell_angle_beta 90.000000
_cell_angle_gamma 90.000000
_cell_volume 7750.531404
_symmetry_space_group_name_H-M "F M M M"
_symmetry_group_IT_number 69
_symmetry_cell_setting 'orthorhombic'
loop_
_space_group_symop_operation_xyz
x,y,z
-x,-y,z
x,-y,-z
-x,y,-z
-x,-y,-z
x,y,-z
-x,y,z
x,-y,z
x,1/2+y,1/2+z
-x,1/2-y,1/2+z
x,1/2-y,1/2-z
-x,1/2+y,1/2-z
-x,1/2-y,1/2-z
x,1/2+y,1/2-z
-x,1/2+y,1/2+z
x,1/2-y,1/2+z
1/2+x,y,1/2+z
1/2-x,-y,1/2+z
1/2+x,-y,1/2-z
1/2-x,y,1/2-z
1/2-x,-y,1/2-z
1/2+x,y,1/2-z
1/2-x,y,1/2+z
1/2+x,-y,1/2+z
1/2+x,1/2+y,z
1/2-x,1/2-y,z
1/2+x,1/2-y,-z
1/2-x,1/2+y,-z
1/2-x,1/2-y,-z
1/2+x,1/2+y,-z
1/2-x,1/2+y,z
1/2+x,1/2-y,z
loop_
_atom_site_type_symbol
_atom_site_label
_atom_site_fract_x
_atom_site_fract_y
_atom_site_fract_z
Si Si1 0.913808 0.914940 0.000000
Si Si2 0.587009 0.911185 0.855428
Si Si3 0.661194 0.736925 0.691938
Si Si4 0.184423 0.645252 0.941370
Si Si5 0.342860 0.816936 0.588295
O O1 0.897000 0.871235 0.945333
O O2 0.000000 0.929700 0.000000
O O3 0.872772 0.000000 0.000000
O O4 0.500000 0.885698 0.855559
O O5 0.637087 0.852024 0.821019
O O6 0.620053 0.907201 0.914423
O O7 0.595511 0.000000 0.833819
O O8 0.628100 0.750000 0.750000
O O9 0.750000 0.750000 0.691122
O O10 0.628235 0.797592 0.647927
O O11 0.261968 0.640459 0.908878
O O12 0.160400 0.735822 0.943486
O O13 0.197166 0.613347 0.000000
#
# Coordination Sequence:
#
# PCOD8283837 Si02
#       5
#    16  32  32  32  32
#     4  11  24  37  52  82 122 161 200 245 296 344
#     4  10  22  38  55  83 122 153 185 239 300 351
#     4  10  20  39  64  87 112 149 200 249 291 353
#     4  10  17  32  57  83 109 146 189 226 280 355
#     4  10  17  36  57  81 112 148 189 243 288 343
#
# _framework density 18.579371999999999
#
# number of rings (size 3 to 8) (size 9 to 14) (size 15 to 20)
#    0.000    1.889    6.667    0.667    0.000    5.778 
#    0.000    4.444    0.000    2.667    0.000    0.000 
#    0.000    0.000    0.000    0.000    0.000    0.000 
#
# Total GULP energy -445996.584019 kJ/mol
# GULP energy per Si atom -12388.794001 kJ/mol
# Density = 1.853708 g / cm^3
# Si number density = 18.579372 Si / 1000 Ang^3
#
#
#
# Elastic Constant Matrix: (Units=GPa)
#
#
# Indices 1 2 3 4 5 6 
#
# 1 78.6731 50.1914 24.3179 0.0000 0.0000 0.0000
# 2 50.1914 90.9755 48.7666 0.0000 0.0000 0.0000
# 3 24.3179 48.7666 166.0499 0.0000 0.0000 0.0000
# 4 0.0000 0.0000 0.0000 -22.9577 0.0000 0.0000
# 5 0.0000 0.0000 0.0000 0.0000 12.4300 0.0000
# 6 0.0000 0.0000 0.0000 0.0000 0.0000 26.9805
#
#
#
# Elastic Compliance Matrix: (Units=1/GPa)
#
#
# Indices 1 2 3 4 5 6 
#
# 1 0.019633 -0.011026 0.000363 0.000000 0.000000 0.000000
# 2 -0.011026 0.019238 -0.004035 0.000000 0.000000 0.000000
# 3 0.000363 -0.004035 0.007154 0.000000 0.000000 0.000000
# 4 0.000000 0.000000 0.000000 -0.043558 0.000000 0.000000
# 5 0.000000 0.000000 0.000000 0.000000 0.080451 0.000000
# 6 0.000000 0.000000 0.000000 0.000000 0.000000 0.037064
#
#
# Mechanical properties :
#
#
# Convention : Reuss Voigt Hill
#
# Bulk Modulus (GPa) = 60.13722 64.69447 62.41585
# Shear Modulus (GPa) = 32.27449 17.45207 24.86328
#
# Velocity S-wave (km/s) = 4.17239 3.06817 3.66214
# Velocity P-wave (km/s) = 7.45988 6.88823 7.17975
#
# Compressibility (1/GPa) = 0.01662864
#
# Stress axis : x y z
#
# Youngs Moduli (GPa) = 50.93463 51.98005 139.77778
#
# Poissons Ratio (x) = 0.57314 -0.05074
# Poissons Ratio (y) = 0.56161 0.56403
# Poissons Ratio (z) = -0.01849 0.20975
#
# Static dielectric constant tensor:
#      x y z
#    x 3.290700 0.000000 0.000000 
#    y 0.000000 3.410460 0.000000 
#    z 0.000000 0.000000 4.005040 
# 
# 
# High freq. dielectric constant tensor:
#      x y z
#    x 1.707690 0.000000 0.000000 
#    y 0.000000 1.706440 0.000000 
#    z 0.000000 0.000000 1.716390 
# 
# From -- ./inp_files/26582.got.cif
#   From: 2010.03.12/outbox.cif.g09.slc.cpg/sg69_14_cif.got.tgz:26582.got - 2010.04.10 23:52:46.
