data_PCOD8283722
_publ_section_title
;
Structure prediction by ZEFSAII (Michael W. Deem and Ramdas Pophale) SiO2 
 PCOD8283722
Probable space group: C C C A
;
_chemical_formula_sum "Si O2"
_cell_formula_units_Z 48
_cell_length_a 17.256466
_cell_length_b 15.464063
_cell_length_c 7.371004
_cell_angle_alpha 90.000000
_cell_angle_beta 90.000000
_cell_angle_gamma 90.000000
_cell_volume 1966.989843
_symmetry_space_group_name_H-M "C C C A"
_symmetry_group_IT_number 68
_space_group.IT_coordinate_system_code '2'
_symmetry_cell_setting 'orthorhombic'
loop_
_space_group_symop_operation_xyz
x,y,z
-x,1/2-y,z
x,1/2-y,1/2-z
-x,y,1/2-z
-x,-y,-z
x,1/2+y,-z
-x,1/2+y,1/2+z
x,-y,1/2+z
1/2+x,1/2+y,z
1/2-x,-y,z
1/2+x,-y,1/2-z
1/2-x,1/2+y,1/2-z
1/2-x,1/2-y,-z
1/2+x,y,-z
1/2-x,y,1/2+z
1/2+x,1/2-y,1/2+z
loop_
_atom_site_type_symbol
_atom_site_label
_atom_site_fract_x
_atom_site_fract_y
_atom_site_fract_z
Si Si1 0.410041 0.599748 0.789367
Si Si2 0.158218 0.080968 0.341195
Si Si3 0.801212 0.164785 0.517988
O O1 0.500000 0.597951 0.750000
O O2 0.368400 0.511719 0.727994
O O3 0.366909 0.674784 0.673765
O O4 0.400787 0.614989 0.004145
O O5 0.156179 0.146309 0.171521
O O6 0.244509 0.084278 0.429483
O O7 0.750000 0.250000 0.500000
#
# Coordination Sequence:
#
# PCOD8283722 Si02
#       3
#    16  16  16
#     4  12  27  46  78 115 153 199 262 327 387 456
#     4  12  25  44  76 109 149 203 260 315 375 465
#     4  12  27  46  75 112 151 205 260 312 387 465
#
# _framework density 24.402768999999999
#
# number of rings (size 3 to 8) (size 9 to 14) (size 15 to 20)
#    0.000    0.000    6.667    3.000    0.000    0.000 
#    0.000    3.333    7.333    0.000    0.000    0.000 
#    0.000    0.000    0.000    0.000    0.000    0.000 
#
# Total GULP energy -297533.145363 kJ/mol
# GULP energy per Si atom -12397.214390 kJ/mol
# Density = 2.434723 g / cm^3
# Si number density = 24.402769 Si / 1000 Ang^3
#
#
#
# Elastic Constant Matrix: (Units=GPa)
#
#
# Indices 1 2 3 4 5 6 
#
# 1 161.3182 69.2106 44.3256 0.0000 0.0000 0.0000
# 2 69.2106 102.4212 54.4062 0.0000 0.0000 0.0000
# 3 44.3256 54.4062 185.4970 0.0000 0.0000 0.0000
# 4 0.0000 0.0000 0.0000 20.5369 0.0000 0.0000
# 5 0.0000 0.0000 0.0000 0.0000 46.8936 0.0000
# 6 0.0000 0.0000 0.0000 0.0000 0.0000 19.2038
#
#
#
# Elastic Compliance Matrix: (Units=1/GPa)
#
#
# Indices 1 2 3 4 5 6 
#
# 1 0.008758 -0.005693 -0.000423 0.000000 0.000000 0.000000
# 2 -0.005693 0.015267 -0.003117 0.000000 0.000000 0.000000
# 3 -0.000423 -0.003117 0.006406 0.000000 0.000000 0.000000
# 4 0.000000 0.000000 0.000000 0.048693 0.000000 0.000000
# 5 0.000000 0.000000 0.000000 0.000000 0.021325 0.000000
# 6 0.000000 0.000000 0.000000 0.000000 0.000000 0.052073
#
#
# Mechanical properties :
#
#
# Convention : Reuss Voigt Hill
#
# Bulk Modulus (GPa) = 83.58566 87.23568 85.41067
# Shear Modulus (GPa) = 28.57530 36.07982 32.32756
#
# Velocity S-wave (km/s) = 3.42568 3.84932 3.64366
# Velocity P-wave (km/s) = 7.06922 7.45535 7.26485
#
# Compressibility (1/GPa) = 0.01196378
#
# Stress axis : x y z
#
# Youngs Moduli (GPa) = 114.18446 65.50170 156.09740
#
# Poissons Ratio (x) = 0.37293 0.06601
# Poissons Ratio (y) = 0.65010 0.48660
# Poissons Ratio (z) = 0.04828 0.20419
#
# Static dielectric constant tensor:
#      x y z
#    x 4.370290 0.000000 0.000000 
#    y 0.000000 4.311350 0.000000 
#    z 0.000000 0.000000 5.348290 
# 
# 
# High freq. dielectric constant tensor:
#      x y z
#    x 1.952070 0.000000 0.000000 
#    y 0.000000 1.962110 0.000000 
#    z 0.000000 0.000000 2.000870 
# 
# From -- ./inp_files/4494.got.cif
#   From: 2010.03.12/outbox.cif.g09.slc.cpg/sg68_3_cif.got.tgz:4494.got - 2010.04.10 23:14:56.
