data_PCOD8283949
_publ_section_title
;
Structure prediction by ZEFSAII (Michael W. Deem and Ramdas Pophale) SiO2 
 PCOD8283949
Probable space group: F M M M
;
_chemical_formula_sum "Si O2"
_cell_formula_units_Z 176
_cell_length_a 25.810773
_cell_length_b 24.748535
_cell_length_c 13.699528
_cell_angle_alpha 90.000000
_cell_angle_beta 90.000000
_cell_angle_gamma 90.000000
_cell_volume 8750.968316
_symmetry_space_group_name_H-M "F M M M"
_symmetry_group_IT_number 69
_symmetry_cell_setting 'orthorhombic'
loop_
_space_group_symop_operation_xyz
x,y,z
-x,-y,z
x,-y,-z
-x,y,-z
-x,-y,-z
x,y,-z
-x,y,z
x,-y,z
x,1/2+y,1/2+z
-x,1/2-y,1/2+z
x,1/2-y,1/2-z
-x,1/2+y,1/2-z
-x,1/2-y,1/2-z
x,1/2+y,1/2-z
-x,1/2+y,1/2+z
x,1/2-y,1/2+z
1/2+x,y,1/2+z
1/2-x,-y,1/2+z
1/2+x,-y,1/2-z
1/2-x,y,1/2-z
1/2-x,-y,1/2-z
1/2+x,y,1/2-z
1/2-x,y,1/2+z
1/2+x,-y,1/2+z
1/2+x,1/2+y,z
1/2-x,1/2-y,z
1/2+x,1/2-y,-z
1/2-x,1/2+y,-z
1/2-x,1/2-y,-z
1/2+x,1/2+y,-z
1/2-x,1/2+y,z
1/2+x,1/2-y,z
loop_
_atom_site_type_symbol
_atom_site_label
_atom_site_fract_x
_atom_site_fract_y
_atom_site_fract_z
Si Si1 0.599222 0.709952 0.333575
Si Si2 0.698428 0.937226 0.807534
Si Si3 0.228908 0.378959 0.000000
Si Si4 0.000000 0.236208 0.863059
Si Si5 0.500000 0.607657 0.889302
Si Si6 0.160241 0.347698 0.500000
Si Si7 0.605051 0.385830 0.805284
Si Si8 0.325844 0.777257 0.000000
O O1 0.618578 0.750000 0.250000
O O2 0.552180 0.734454 0.400194
O O3 0.585155 0.654945 0.277958
O O4 0.646287 0.700158 0.404476
O O5 0.750000 0.920614 0.750000
O O6 0.699475 0.904023 0.907390
O O7 0.648126 0.924975 0.740788
O O8 0.698002 0.000000 0.834030
O O9 0.290969 0.389409 0.000000
O O10 0.226289 0.313072 0.000000
O O11 0.000000 0.250000 0.750000
O O12 0.000000 0.173360 0.888482
O O13 0.448167 0.583983 0.837384
O O14 0.500000 0.587124 0.000000
O O15 0.126734 0.356440 0.402506
O O16 0.181262 0.286549 0.500000
#
# Coordination Sequence:
#
# PCOD8283949 Si02
#       8
#    32  32  16  16  16  16  32  16
#     4  11  20  33  54  82 128 174 215 252 297 369
#     4  11  25  46  71  92 117 162 221 282 326 365
#     4  12  24  42  64  96 125 164 221 266 318 381
#     4  10  18  30  50  84 117 171 224 244 279 363
#     4  12  22  34  61  96 129 170 208 258 321 391
#     4  12  23  36  61  95 134 170 208 251 310 399
#     4  12  22  40  62  92 132 169 212 263 322 380
#     4  12  23  34  55  91 131 174 203 249 316 387
#
# _framework density 20.11206
#
# number of rings (size 3 to 8) (size 9 to 14) (size 15 to 20)
#    0.000    0.545   10.000    0.545    1.273    0.000 
#    0.000    0.909    0.000    1.091    0.000    1.273 
#    0.000    0.000    0.000    0.000    0.000    0.000 
#
# Total GULP energy -545234.698547 kJ/mol
# GULP energy per Si atom -12391.697694 kJ/mol
# Density = 2.006628 g / cm^3
# Si number density = 20.112060 Si / 1000 Ang^3
#
#
#
# Elastic Constant Matrix: (Units=GPa)
#
#
# Indices 1 2 3 4 5 6 
#
# 1 141.8281 19.8737 45.1022 0.0000 0.0000 0.0000
# 2 19.8737 50.8621 20.5081 0.0000 0.0000 0.0000
# 3 45.1022 20.5081 109.6109 0.0000 0.0000 0.0000
# 4 0.0000 0.0000 0.0000 19.7837 0.0000 0.0000
# 5 0.0000 0.0000 0.0000 0.0000 27.0573 0.0000
# 6 0.0000 0.0000 0.0000 0.0000 0.0000 23.7659
#
#
#
# Elastic Compliance Matrix: (Units=1/GPa)
#
#
# Indices 1 2 3 4 5 6 
#
# 1 0.008300 -0.002018 -0.003037 0.000000 0.000000 0.000000
# 2 -0.002018 0.021756 -0.003240 0.000000 0.000000 0.000000
# 3 -0.003037 -0.003240 0.010979 0.000000 0.000000 0.000000
# 4 0.000000 0.000000 0.000000 0.050547 0.000000 0.000000
# 5 0.000000 0.000000 0.000000 0.000000 0.036959 0.000000
# 6 0.000000 0.000000 0.000000 0.000000 0.000000 0.042077
#
#
# Mechanical properties :
#
#
# Convention : Reuss Voigt Hill
#
# Bulk Modulus (GPa) = 40.91098 52.58545 46.74822
# Shear Modulus (GPa) = 25.59426 28.57585 27.08506
#
# Velocity S-wave (km/s) = 3.57120 3.77348 3.67373
# Velocity P-wave (km/s) = 6.11476 6.72224 6.42568
#
# Compressibility (1/GPa) = 0.02444331
#
# Stress axis : x y z
#
# Youngs Moduli (GPa) = 120.48889 45.96426 91.08101
#
# Poissons Ratio (x) = 0.09277 0.27665
# Poissons Ratio (y) = 0.24317 0.29511
# Poissons Ratio (z) = 0.36598 0.14893
#
# Static dielectric constant tensor:
#      x y z
#    x 4.415090 0.000000 0.000000 
#    y 0.000000 3.319110 0.000000 
#    z 0.000000 0.000000 3.714320 
# 
# 
# High freq. dielectric constant tensor:
#      x y z
#    x 1.798620 0.000000 0.000000 
#    y 0.000000 1.748580 0.000000 
#    z 0.000000 0.000000 1.796320 
# 
# From -- ./inp_files/18182.got.cif
#   From: 2010.03.12/outbox.cif.g09.slc.cpg/sg69_10_cif.got.tgz:18182.got - 2010.04.10 23:52:46.
