data_PCOD8283464
_publ_section_title
;
Structure prediction by ZEFSAII (Michael W. Deem and Ramdas Pophale) SiO2 
 PCOD8283464
Probable space group: C C C A
;
_chemical_formula_sum "Si O2"
_cell_formula_units_Z 112
_cell_length_a 21.184292
_cell_length_b 16.375176
_cell_length_c 15.114456
_cell_angle_alpha 90.000000
_cell_angle_beta 90.000000
_cell_angle_gamma 90.000000
_cell_volume 5243.152036
_symmetry_space_group_name_H-M "C C C A"
_symmetry_group_IT_number 68
_space_group.IT_coordinate_system_code '2'
_symmetry_cell_setting 'orthorhombic'
loop_
_space_group_symop_operation_xyz
x,y,z
-x,1/2-y,z
x,1/2-y,1/2-z
-x,y,1/2-z
-x,-y,-z
x,1/2+y,-z
-x,1/2+y,1/2+z
x,-y,1/2+z
1/2+x,1/2+y,z
1/2-x,-y,z
1/2+x,-y,1/2-z
1/2-x,1/2+y,1/2-z
1/2-x,1/2-y,-z
1/2+x,y,-z
1/2-x,y,1/2+z
1/2+x,1/2-y,1/2+z
loop_
_atom_site_type_symbol
_atom_site_label
_atom_site_fract_x
_atom_site_fract_y
_atom_site_fract_z
Si Si1 0.911353 0.285541 0.652663
Si Si2 0.686023 0.845465 0.252596
Si Si3 0.622310 0.953025 0.379666
Si Si4 0.006638 0.063681 0.650935
Si Si5 0.609916 0.374175 0.437532
Si Si6 0.292979 0.605363 0.890593
Si Si7 0.747978 0.404244 0.416444
O O1 0.901153 0.250000 0.750000
O O2 0.973888 0.340931 0.650339
O O3 0.918138 0.215418 0.579022
O O4 0.853976 0.342155 0.627223
O O5 0.669342 0.750000 0.250000
O O6 0.626534 0.898972 0.289529
O O7 0.743451 0.868672 0.316587
O O8 0.701537 0.869464 0.152466
O O9 0.622865 0.889111 0.459757
O O10 0.558654 0.004841 0.391901
O O11 0.685430 0.009821 0.385997
O O12 0.000000 0.031739 0.750000
O O13 0.939233 0.058145 0.600996
O O14 0.677319 0.378016 0.387411
O O15 0.266039 0.628649 0.986673
O O16 0.750000 0.500000 0.414518
#
# Coordination Sequence:
#
# PCOD8283464 Si02
#       7
#    16  16  16  16  16  16  16
#     4  11  23  40  70 106 136 173 223 296 351 400
#     4  12  26  41  66 101 143 178 223 278 345 409
#     4  11  25  45  67  97 141 184 227 285 340 419
#     4  11  25  43  72  98 133 179 238 288 344 411
#     4  12  23  41  68 100 137 174 227 284 352 397
#     4  11  22  44  66 101 142 181 223 277 341 417
#     4  12  24  40  70 100 135 181 226 271 339 418
#
# _framework density 21.361196
#
# number of rings (size 3 to 8) (size 9 to 14) (size 15 to 20)
#    0.000    0.571    4.286    4.286    6.000    1.143 
#    0.000    0.000    3.143    0.000    0.000    0.000 
#    0.000    0.000    0.000    0.000    0.000    0.000 
#
# Total GULP energy -694435.922679 kJ/mol
# GULP energy per Si atom -12400.641476 kJ/mol
# Density = 2.131258 g / cm^3
# Si number density = 21.361196 Si / 1000 Ang^3
#
#
#
# Elastic Constant Matrix: (Units=GPa)
#
#
# Indices 1 2 3 4 5 6 
#
# 1 67.3677 14.2135 24.3704 0.0000 0.0000 0.0000
# 2 14.2135 91.6108 44.9468 0.0000 0.0000 0.0000
# 3 24.3704 44.9468 97.3929 0.0000 0.0000 0.0000
# 4 0.0000 0.0000 0.0000 5.6093 0.0000 0.0000
# 5 0.0000 0.0000 0.0000 0.0000 30.4089 0.0000
# 6 0.0000 0.0000 0.0000 0.0000 0.0000 -7.4683
#
#
#
# Elastic Compliance Matrix: (Units=1/GPa)
#
#
# Indices 1 2 3 4 5 6 
#
# 1 0.016354 -0.000685 -0.003776 0.000000 0.000000 0.000000
# 2 -0.000685 0.014139 -0.006354 0.000000 0.000000 0.000000
# 3 -0.003776 -0.006354 0.014145 0.000000 0.000000 0.000000
# 4 0.000000 0.000000 0.000000 0.178274 0.000000 0.000000
# 5 0.000000 0.000000 0.000000 0.000000 0.032885 0.000000
# 6 0.000000 0.000000 0.000000 0.000000 0.000000 -0.133899
#
#
# Mechanical properties :
#
#
# Convention : Reuss Voigt Hill
#
# Bulk Modulus (GPa) = 43.46151 47.04808 45.25479
# Shear Modulus (GPa) = 33.06912 17.23270 25.15091
#
# Velocity S-wave (km/s) = 3.93885 2.84338 3.43507
# Velocity P-wave (km/s) = 6.40907 5.73172 6.07984
#
# Compressibility (1/GPa) = 0.02300886
#
# Stress axis : x y z
#
# Youngs Moduli (GPa) = 61.14535 70.72422 70.69620
#
# Poissons Ratio (x) = 0.04842 0.26698
# Poissons Ratio (y) = 0.04186 0.44921
# Poissons Ratio (z) = 0.23091 0.44938
#
# Static dielectric constant tensor:
#      x y z
#    x 4.368820 0.000000 0.000000 
#    y 0.000000 3.995700 0.000000 
#    z 0.000000 0.000000 5.281500 
# 
# 
# High freq. dielectric constant tensor:
#      x y z
#    x 1.844110 0.000000 0.000000 
#    y 0.000000 1.839420 0.000000 
#    z 0.000000 0.000000 1.836850 
# 
# From -- ./inp_files/25468.got.cif
#   From: 2010.03.12/outbox.cif.g09.slc.cpg/sg68_13_cif.got.tgz:25468.got - 2010.04.10 23:14:56.
