data_PCOD8283329
_publ_section_title
;
Structure prediction by ZEFSAII (Michael W. Deem and Ramdas Pophale) SiO2 
 PCOD8283329
Probable space group: C C C A
;
_chemical_formula_sum "Si O2"
_cell_formula_units_Z 88
_cell_length_a 18.993175
_cell_length_b 9.240593
_cell_length_c 23.387798
_cell_angle_alpha 90.000000
_cell_angle_beta 90.000000
_cell_angle_gamma 90.000000
_cell_volume 4104.750328
_symmetry_space_group_name_H-M "C C C A"
_symmetry_group_IT_number 68
_space_group.IT_coordinate_system_code '2'
_symmetry_cell_setting 'orthorhombic'
loop_
_space_group_symop_operation_xyz
x,y,z
-x,1/2-y,z
x,1/2-y,1/2-z
-x,y,1/2-z
-x,-y,-z
x,1/2+y,-z
-x,1/2+y,1/2+z
x,-y,1/2+z
1/2+x,1/2+y,z
1/2-x,-y,z
1/2+x,-y,1/2-z
1/2-x,1/2+y,1/2-z
1/2-x,1/2-y,-z
1/2+x,y,-z
1/2-x,y,1/2+z
1/2+x,1/2-y,1/2+z
loop_
_atom_site_type_symbol
_atom_site_label
_atom_site_fract_x
_atom_site_fract_y
_atom_site_fract_z
Si Si1 0.875069 0.807678 0.605717
Si Si2 0.750000 0.500000 0.374231
Si Si3 0.610249 0.483394 0.118244
Si Si4 0.450168 0.130770 0.010622
Si Si5 0.349478 0.216812 0.312471
Si Si6 0.530893 0.508432 0.313344
O O1 0.806903 0.906438 0.590033
O O2 0.853370 0.641668 0.619231
O O3 0.921186 0.806836 0.548700
O O4 0.916994 0.867019 0.661755
O O5 0.709141 0.387409 0.336064
O O6 0.610894 0.417136 0.054181
O O7 0.653238 0.370344 0.155764
O O8 0.530986 0.495585 0.141138
O O9 0.500000 0.250000 0.040280
O O10 0.500000 0.000000 0.000000
O O11 0.323410 0.250000 0.250000
O O12 0.426927 0.143340 0.311838
O O13 0.500000 0.546967 0.250000
#
# Coordination Sequence:
#
# PCOD8283329 Si02
#       6
#    16   8  16  16  16  16
#     4  11  25  45  64 101 134 183 226 270 334 399
#     4  10  28  48  64  88 138 184 236 268 314 404
#     4  12  24  39  71 103 135 170 220 281 346 392
#     4  12  22  41  70 103 138 167 216 279 346 403
#     4  11  24  44  67  94 133 180 221 273 329 400
#     4  11  21  40  66 104 139 167 214 278 347 400
#
# _framework density 21.438573999999999
#
# number of rings (size 3 to 8) (size 9 to 14) (size 15 to 20)
#    0.000    0.727    5.455    2.182    2.545    3.636 
#    0.000    3.636    0.000    0.000    0.000    0.000 
#    0.000    0.000    0.000    0.000    0.000    0.000 
#
# Total GULP energy -545461.403026 kJ/mol
# GULP energy per Si atom -12396.850069 kJ/mol
# Density = 2.138978 g / cm^3
# Si number density = 21.438574 Si / 1000 Ang^3
#
#
#
# Elastic Constant Matrix: (Units=GPa)
#
#
# Indices 1 2 3 4 5 6 
#
# 1 72.9096 38.3458 12.8327 0.0000 0.0000 0.0000
# 2 38.3458 179.3314 45.8344 0.0000 0.0000 0.0000
# 3 12.8327 45.8344 110.9197 0.0000 0.0000 0.0000
# 4 0.0000 0.0000 0.0000 17.5220 0.0000 0.0000
# 5 0.0000 0.0000 0.0000 0.0000 7.8478 0.0000
# 6 0.0000 0.0000 0.0000 0.0000 0.0000 -23.9375
#
#
#
# Elastic Compliance Matrix: (Units=1/GPa)
#
#
# Indices 1 2 3 4 5 6 
#
# 1 0.015476 -0.003188 -0.000473 0.000000 0.000000 0.000000
# 2 -0.003188 0.006892 -0.002479 0.000000 0.000000 0.000000
# 3 -0.000473 -0.002479 0.010095 0.000000 0.000000 0.000000
# 4 0.000000 0.000000 0.000000 0.057071 0.000000 0.000000
# 5 0.000000 0.000000 0.000000 0.000000 0.127425 0.000000
# 6 0.000000 0.000000 0.000000 0.000000 0.000000 -0.041776
#
#
# Mechanical properties :
#
#
# Convention : Reuss Voigt Hill
#
# Bulk Modulus (GPa) = 49.55007 61.90962 55.72984
# Shear Modulus (GPa) = 25.74806 18.02966 21.88886
#
# Velocity S-wave (km/s) = 3.46933 2.90313 3.19878
# Velocity P-wave (km/s) = 6.26187 6.33861 6.30036
#
# Compressibility (1/GPa) = 0.02018161
#
# Stress axis : x y z
#
# Youngs Moduli (GPa) = 64.61757 145.10509 99.06303
#
# Poissons Ratio (x) = 0.46263 0.04686
# Poissons Ratio (y) = 0.20601 0.24557
# Poissons Ratio (z) = 0.03056 0.35970
#
# Static dielectric constant tensor:
#      x y z
#    x 3.746330 0.000000 0.000000 
#    y 0.000000 3.807200 0.000000 
#    z 0.000000 0.000000 5.502600 
# 
# 
# High freq. dielectric constant tensor:
#      x y z
#    x 1.818410 0.000000 0.000000 
#    y 0.000000 1.865580 0.000000 
#    z 0.000000 0.000000 1.840870 
# 
# From -- ./inp_files/46479.got.cif
#   From: 2010.03.12/outbox.cif.g09.slc.cpg/sg68_24_cif.got.tgz:46479.got - 2010.04.10 23:14:56.
