data_PCOD8283970
_publ_section_title
;
Structure prediction by ZEFSAII (Michael W. Deem and Ramdas Pophale) SiO2 
 PCOD8283970
Probable space group: F M M M
;
_chemical_formula_sum "Si O2"
_cell_formula_units_Z 160
_cell_length_a 11.055204
_cell_length_b 30.076663
_cell_length_c 28.699951
_cell_angle_alpha 90.000000
_cell_angle_beta 90.000000
_cell_angle_gamma 90.000000
_cell_volume 9542.838322
_symmetry_space_group_name_H-M "F M M M"
_symmetry_group_IT_number 69
_symmetry_cell_setting 'orthorhombic'
loop_
_space_group_symop_operation_xyz
x,y,z
-x,-y,z
x,-y,-z
-x,y,-z
-x,-y,-z
x,y,-z
-x,y,z
x,-y,z
x,1/2+y,1/2+z
-x,1/2-y,1/2+z
x,1/2-y,1/2-z
-x,1/2+y,1/2-z
-x,1/2-y,1/2-z
x,1/2+y,1/2-z
-x,1/2+y,1/2+z
x,1/2-y,1/2+z
1/2+x,y,1/2+z
1/2-x,-y,1/2+z
1/2+x,-y,1/2-z
1/2-x,y,1/2-z
1/2-x,-y,1/2-z
1/2+x,y,1/2-z
1/2-x,y,1/2+z
1/2+x,-y,1/2+z
1/2+x,1/2+y,z
1/2-x,1/2-y,z
1/2+x,1/2-y,-z
1/2-x,1/2+y,-z
1/2-x,1/2-y,-z
1/2+x,1/2+y,-z
1/2-x,1/2+y,z
1/2+x,1/2-y,z
loop_
_atom_site_type_symbol
_atom_site_label
_atom_site_fract_x
_atom_site_fract_y
_atom_site_fract_z
Si Si1 0.862100 0.550227 0.611058
Si Si2 0.500000 0.892251 0.051864
Si Si3 0.637053 0.779260 0.555478
Si Si4 0.738462 0.871386 0.552882
Si Si5 0.000000 0.552900 0.856446
Si Si6 0.227787 0.051248 0.699665
O O1 0.820266 0.500000 0.598295
O O2 0.782871 0.584051 0.581765
O O3 0.844565 0.557588 0.666584
O O4 0.000000 0.558125 0.598122
O O5 0.381907 0.860706 0.056492
O O6 0.500000 0.930230 0.090749
O O7 0.500000 0.914616 0.000000
O O8 0.641126 0.776831 0.500000
O O9 0.500000 0.765511 0.572646
O O10 0.750000 0.750000 0.575540
O O11 0.662719 0.829693 0.572535
O O12 0.698772 0.880850 0.500000
O O13 0.114780 0.572096 0.828155
O O14 0.000000 0.500000 0.859651
O O15 0.250000 0.074704 0.750000
O O16 0.197157 0.000000 0.709290
#
# Coordination Sequence:
#
# PCOD8283970 Si02
#       6
#    32  16  32  32  16  32
#     4  10  20  32  46  65  91 125 165 202 238 284
#     4  10  20  31  46  68  94 131 165 198 239 289
#     4   9  18  31  49  71  94 122 158 201 248 295
#     4  10  20  33  48  67  96 129 163 200 242 285
#     4  10  18  31  48  66  90 123 166 209 249 291
#     4   9  18  30  45  64  87 117 155 202 251 293
#
# _framework density 16.766500000000001
#
# number of rings (size 3 to 8) (size 9 to 14) (size 15 to 20)
#    0.000    2.400    2.000    0.600    2.800    1.800 
#    0.000    3.000    0.000    0.000    0.000    0.000 
#    0.000    0.800    0.000    5.600    0.000    1.000 
#
# Total GULP energy -495607.177858 kJ/mol
# GULP energy per Si atom -12390.179446 kJ/mol
# Density = 1.672834 g / cm^3
# Si number density = 16.766500 Si / 1000 Ang^3
#
#
#
# Elastic Constant Matrix: (Units=GPa)
#
#
# Indices 1 2 3 4 5 6 
#
# 1 113.5856 37.6557 28.5807 0.0000 0.0000 0.0000
# 2 37.6557 60.3211 25.5114 0.0000 0.0000 0.0000
# 3 28.5807 25.5114 78.3719 0.0000 0.0000 0.0000
# 4 0.0000 0.0000 0.0000 0.7753 0.0000 0.0000
# 5 0.0000 0.0000 0.0000 0.0000 20.8783 0.0000
# 6 0.0000 0.0000 0.0000 0.0000 0.0000 22.5389
#
#
#
# Elastic Compliance Matrix: (Units=1/GPa)
#
#
# Indices 1 2 3 4 5 6 
#
# 1 0.011401 -0.006214 -0.002135 0.000000 0.000000 0.000000
# 2 -0.006214 0.022612 -0.005094 0.000000 0.000000 0.000000
# 3 -0.002135 -0.005094 0.015197 0.000000 0.000000 0.000000
# 4 0.000000 0.000000 0.000000 1.289789 0.000000 0.000000
# 5 0.000000 0.000000 0.000000 0.000000 0.047897 0.000000
# 6 0.000000 0.000000 0.000000 0.000000 0.000000 0.044368
#
#
# Mechanical properties :
#
#
# Convention : Reuss Voigt Hill
#
# Bulk Modulus (GPa) = 44.79795 48.41933 46.60864
# Shear Modulus (GPa) = 3.41159 19.54056 11.47608
#
# Velocity S-wave (km/s) = 1.42800 3.41758 2.61907
# Velocity P-wave (km/s) = 5.43099 6.67191 6.08318
#
# Compressibility (1/GPa) = 0.02232245
#
# Stress axis : x y z
#
# Youngs Moduli (GPa) = 87.70917 44.22473 65.80453
#
# Poissons Ratio (x) = 0.27483 0.14049
# Poissons Ratio (y) = 0.54506 0.33522
# Poissons Ratio (z) = 0.18726 0.22529
#
# Static dielectric constant tensor:
#      x y z
#    x 3.522490 0.000000 0.000000 
#    y 0.000000 2.835680 0.000000 
#    z 0.000000 0.000000 3.032810 
# 
# 
# High freq. dielectric constant tensor:
#      x y z
#    x 1.670480 0.000000 0.000000 
#    y 0.000000 1.601400 0.000000 
#    z 0.000000 0.000000 1.614820 
# 
# From -- ./inp_files/40272.got.cif
#   From: 2010.03.12/outbox.cif.g09.slc.cpg/sg69_21_cif.got.tgz:40272.got - 2010.04.10 23:52:46.
