data_PCOD8283283
_publ_section_title
;
Structure prediction by ZEFSAII (Michael W. Deem and Ramdas Pophale) SiO2 
 PCOD8283283
Probable space group: C C C A
;
_chemical_formula_sum "Si O2"
_cell_formula_units_Z 72
_cell_length_a 12.553364
_cell_length_b 26.815345
_cell_length_c 8.937829
_cell_angle_alpha 90.000000
_cell_angle_beta 90.000000
_cell_angle_gamma 90.000000
_cell_volume 3008.676904
_symmetry_space_group_name_H-M "C C C A"
_symmetry_group_IT_number 68
_space_group.IT_coordinate_system_code '2'
_symmetry_cell_setting 'orthorhombic'
loop_
_space_group_symop_operation_xyz
x,y,z
-x,1/2-y,z
x,1/2-y,1/2-z
-x,y,1/2-z
-x,-y,-z
x,1/2+y,-z
-x,1/2+y,1/2+z
x,-y,1/2+z
1/2+x,1/2+y,z
1/2-x,-y,z
1/2+x,-y,1/2-z
1/2-x,1/2+y,1/2-z
1/2-x,1/2-y,-z
1/2+x,y,-z
1/2-x,y,1/2+z
1/2+x,1/2-y,1/2+z
loop_
_atom_site_type_symbol
_atom_site_label
_atom_site_fract_x
_atom_site_fract_y
_atom_site_fract_z
Si Si1 0.653709 0.687360 0.475561
Si Si2 0.294106 0.250000 0.250000
Si Si3 0.250000 0.500000 0.276195
Si Si4 0.500000 0.147136 0.750000
Si Si5 0.435711 0.533855 0.613084
Si Si6 0.807628 0.400024 0.084518
O O1 0.635128 0.721143 0.624589
O O2 0.719642 0.712861 0.342828
O O3 0.536849 0.676996 0.400709
O O4 0.721163 0.639726 0.531115
O O5 0.352310 0.506480 0.173259
O O6 0.258637 0.449390 0.371329
O O7 0.609539 0.117636 0.787061
O O8 0.500000 0.556125 0.750000
O O9 0.500000 0.500000 0.500000
O O10 0.383300 0.583940 0.551229
#
# Coordination Sequence:
#
# PCOD8283283 Si02
#       6
#    16   8   8   8  16  16
#     4  11  25  51  80 117 155 200 256 333 393 488
#     4  10  24  53  83 110 156 192 258 330 414 466
#     4  12  26  48  72 104 158 200 248 324 376 450
#     4  12  26  47  82 114 160 204 264 321 402 464
#     4  12  26  44  68 103 152 204 260 309 381 463
#     4  12  26  46  76 116 153 205 261 321 383 473
#
# _framework density 23.930785
#
# number of rings (size 3 to 8) (size 9 to 14) (size 15 to 20)
#    0.000    0.444    4.444    3.333    3.111    0.444 
#    0.000    1.111    0.000    0.000    0.000    0.000 
#    0.000    0.000    0.000    0.000    0.000    0.000 
#
# Total GULP energy -446004.505743 kJ/mol
# GULP energy per Si atom -12389.014048 kJ/mol
# Density = 2.387632 g / cm^3
# Si number density = 23.930785 Si / 1000 Ang^3
#
#
#
# Elastic Constant Matrix: (Units=GPa)
#
#
# Indices 1 2 3 4 5 6 
#
# 1 112.6077 48.6865 62.2642 0.0000 0.0000 0.0000
# 2 48.6865 137.0890 62.3227 0.0000 0.0000 0.0000
# 3 62.2642 62.3227 162.8165 0.0000 0.0000 0.0000
# 4 0.0000 0.0000 0.0000 56.2590 0.0000 0.0000
# 5 0.0000 0.0000 0.0000 0.0000 42.5747 0.0000
# 6 0.0000 0.0000 0.0000 0.0000 0.0000 23.8198
#
#
#
# Elastic Compliance Matrix: (Units=1/GPa)
#
#
# Indices 1 2 3 4 5 6 
#
# 1 0.011999 -0.002634 -0.003581 0.000000 0.000000 0.000000
# 2 -0.002634 0.009409 -0.002595 0.000000 0.000000 0.000000
# 3 -0.003581 -0.002595 0.008504 0.000000 0.000000 0.000000
# 4 0.000000 0.000000 0.000000 0.017775 0.000000 0.000000
# 5 0.000000 0.000000 0.000000 0.000000 0.023488 0.000000
# 6 0.000000 0.000000 0.000000 0.000000 0.000000 0.041982
#
#
# Mechanical properties :
#
#
# Convention : Reuss Voigt Hill
#
# Bulk Modulus (GPa) = 81.33285 84.34002 82.83644
# Shear Modulus (GPa) = 37.07189 40.48001 38.77595
#
# Velocity S-wave (km/s) = 3.94017 4.11730 4.02971
# Velocity P-wave (km/s) = 7.40003 7.61070 7.50610
#
# Compressibility (1/GPa) = 0.01229515
#
# Stress axis : x y z
#
# Youngs Moduli (GPa) = 83.34170 106.27718 117.58780
#
# Poissons Ratio (x) = 0.27989 0.42102
# Poissons Ratio (y) = 0.21949 0.30509
# Poissons Ratio (z) = 0.29841 0.27574
#
# Static dielectric constant tensor:
#      x y z
#    x 4.431290 0.000000 0.000000 
#    y 0.000000 4.383620 0.000000 
#    z 0.000000 0.000000 4.809350 
# 
# 
# High freq. dielectric constant tensor:
#      x y z
#    x 1.944550 0.000000 0.000000 
#    y 0.000000 1.944550 0.000000 
#    z 0.000000 0.000000 1.976730 
# 
# From -- ./inp_files/5256.got.cif
#   From: 2010.03.12/outbox.cif.g09.slc.cpg/sg68_3_cif.got.tgz:5256.got - 2010.04.10 23:14:56.
