data_PCOD8283259
_publ_section_title
;
Structure prediction by ZEFSAII (Michael W. Deem and Ramdas Pophale) SiO2 
 PCOD8283259
Probable space group: C C C A
;
_chemical_formula_sum "Si O2"
_cell_formula_units_Z 92
_cell_length_a 17.174721
_cell_length_b 22.323913
_cell_length_c 11.732093
_cell_angle_alpha 90.000000
_cell_angle_beta 90.000000
_cell_angle_gamma 90.000000
_cell_volume 4498.166316
_symmetry_space_group_name_H-M "C C C A"
_symmetry_group_IT_number 68
_space_group.IT_coordinate_system_code '2'
_symmetry_cell_setting 'orthorhombic'
loop_
_space_group_symop_operation_xyz
x,y,z
-x,1/2-y,z
x,1/2-y,1/2-z
-x,y,1/2-z
-x,-y,-z
x,1/2+y,-z
-x,1/2+y,1/2+z
x,-y,1/2+z
1/2+x,1/2+y,z
1/2-x,-y,z
1/2+x,-y,1/2-z
1/2-x,1/2+y,1/2-z
1/2-x,1/2-y,-z
1/2+x,y,-z
1/2-x,y,1/2+z
1/2+x,1/2-y,1/2+z
loop_
_atom_site_type_symbol
_atom_site_label
_atom_site_fract_x
_atom_site_fract_y
_atom_site_fract_z
Si Si1 0.757032 0.750000 0.750000
Si Si2 0.802396 0.060024 0.968336
Si Si3 0.911104 0.069258 0.765780
Si Si4 0.000000 0.750000 0.250000
Si Si5 0.172611 0.460656 0.218173
Si Si6 0.321729 0.143547 0.613903
Si Si7 0.130405 0.321937 0.627997
O O1 0.813270 0.701874 0.691741
O O2 0.703650 0.778837 0.650956
O O3 0.882610 0.057130 0.895842
O O4 0.761469 0.121220 0.930352
O O5 0.750000 0.000000 0.955324
O O6 0.818427 0.073093 0.099760
O O7 0.857141 0.119318 0.706265
O O8 0.000000 0.088958 0.750000
O O9 0.898015 0.007022 0.699859
O O10 0.050833 0.790037 0.335254
O O11 0.250000 0.500000 0.254541
O O12 0.145897 0.412217 0.312149
O O13 0.375936 0.159459 0.505098
#
# Coordination Sequence:
#
# PCOD8283259 Si02
#       7
#     8  16  16   4  16  16  16
#     4  11  22  39  64  97 120 161 224 280 330 371
#     4  11  21  39  65  92 132 168 213 277 327 384
#     4  12  23  40  63  97 129 173 218 262 328 403
#     4  10  24  48  60  90 128 186 212 264 322 402
#     4  11  22  40  64  95 134 169 210 267 339 385
#     4  12  21  39  67  97 124 163 218 279 327 384
#     4  11  23  41  67  91 129 169 223 266 324 390
#
# _framework density 20.452777999999999
#
# number of rings (size 3 to 8) (size 9 to 14) (size 15 to 20)
#    0.000    0.696    6.087    3.652    0.000    0.696 
#    0.000    0.000    0.000    0.000    0.000    0.000 
#    0.000    0.000    0.000    0.000    0.000    0.000 
#
# Total GULP energy -570196.518537 kJ/mol
# GULP energy per Si atom -12395.576490 kJ/mol
# Density = 2.040623 g / cm^3
# Si number density = 20.452778 Si / 1000 Ang^3
#
#
#
# Elastic Constant Matrix: (Units=GPa)
#
#
# Indices 1 2 3 4 5 6 
#
# 1 60.6841 22.7132 31.7211 0.0000 0.0000 0.0000
# 2 22.7132 132.0771 53.2912 0.0000 0.0000 0.0000
# 3 31.7211 53.2912 141.5231 0.0000 0.0000 0.0000
# 4 0.0000 0.0000 0.0000 40.6092 0.0000 0.0000
# 5 0.0000 0.0000 0.0000 0.0000 20.7365 0.0000
# 6 0.0000 0.0000 0.0000 0.0000 0.0000 23.7681
#
#
#
# Elastic Compliance Matrix: (Units=1/GPa)
#
#
# Indices 1 2 3 4 5 6 
#
# 1 0.019034 -0.001830 -0.003577 0.000000 0.000000 0.000000
# 2 -0.001830 0.009104 -0.003018 0.000000 0.000000 0.000000
# 3 -0.003577 -0.003018 0.009004 0.000000 0.000000 0.000000
# 4 0.000000 0.000000 0.000000 0.024625 0.000000 0.000000
# 5 0.000000 0.000000 0.000000 0.000000 0.048224 0.000000
# 6 0.000000 0.000000 0.000000 0.000000 0.000000 0.042073
#
#
# Mechanical properties :
#
#
# Convention : Reuss Voigt Hill
#
# Bulk Modulus (GPa) = 49.28149 61.08170 55.18160
# Shear Modulus (GPa) = 28.46125 32.12667 30.29396
#
# Velocity S-wave (km/s) = 3.73441 3.96760 3.85277
# Velocity P-wave (km/s) = 6.53773 7.13573 6.84327
#
# Compressibility (1/GPa) = 0.02029159
#
# Stress axis : x y z
#
# Youngs Moduli (GPa) = 52.53886 109.84558 111.05964
#
# Poissons Ratio (x) = 0.20100 0.39728
# Poissons Ratio (y) = 0.09614 0.33517
# Poissons Ratio (z) = 0.18794 0.33150
#
# Static dielectric constant tensor:
#      x y z
#    x 3.285670 0.000000 0.000000 
#    y 0.000000 3.887650 0.000000 
#    z 0.000000 0.000000 3.883410 
# 
# 
# High freq. dielectric constant tensor:
#      x y z
#    x 1.750060 0.000000 0.000000 
#    y 0.000000 1.817200 0.000000 
#    z 0.000000 0.000000 1.811370 
# 
# From -- ./inp_files/14511.got.cif
#   From: 2010.03.12/outbox.cif.g09.slc.cpg/sg68_8_cif.got.tgz:14511.got - 2010.04.10 23:14:56.
