data_PCOD8283896
_publ_section_title
;
Structure prediction by ZEFSAII (Michael W. Deem and Ramdas Pophale) SiO2 
 PCOD8283896
Probable space group: F M M M
;
_chemical_formula_sum "Si O2"
_cell_formula_units_Z 160
_cell_length_a 15.925966
_cell_length_b 18.056239
_cell_length_c 30.862293
_cell_angle_alpha 90.000000
_cell_angle_beta 90.000000
_cell_angle_gamma 90.000000
_cell_volume 8874.855056
_symmetry_space_group_name_H-M "F M M M"
_symmetry_group_IT_number 69
_symmetry_cell_setting 'orthorhombic'
loop_
_space_group_symop_operation_xyz
x,y,z
-x,-y,z
x,-y,-z
-x,y,-z
-x,-y,-z
x,y,-z
-x,y,z
x,-y,z
x,1/2+y,1/2+z
-x,1/2-y,1/2+z
x,1/2-y,1/2-z
-x,1/2+y,1/2-z
-x,1/2-y,1/2-z
x,1/2+y,1/2-z
-x,1/2+y,1/2+z
x,1/2-y,1/2+z
1/2+x,y,1/2+z
1/2-x,-y,1/2+z
1/2+x,-y,1/2-z
1/2-x,y,1/2-z
1/2-x,-y,1/2-z
1/2+x,y,1/2-z
1/2-x,y,1/2+z
1/2+x,-y,1/2+z
1/2+x,1/2+y,z
1/2-x,1/2-y,z
1/2+x,1/2-y,-z
1/2-x,1/2+y,-z
1/2-x,1/2-y,-z
1/2+x,1/2+y,-z
1/2-x,1/2+y,z
1/2+x,1/2-y,z
loop_
_atom_site_type_symbol
_atom_site_label
_atom_site_fract_x
_atom_site_fract_y
_atom_site_fract_z
Si Si1 0.359374 0.138469 0.835906
Si Si2 0.000000 0.082054 0.396907
Si Si3 0.349306 0.082943 0.748065
Si Si4 0.842499 0.771484 0.895665
Si Si5 0.000000 0.777929 0.449346
Si Si6 0.674489 0.415043 0.153746
O O1 0.419833 0.094086 0.867226
O O2 0.389070 0.136500 0.785251
O O3 0.353997 0.223471 0.851660
O O4 0.272965 0.094351 0.838647
O O5 0.000000 0.135214 0.438556
O O6 0.000000 0.000000 0.416217
O O7 0.250000 0.088405 0.750000
O O8 0.375512 0.103587 0.698668
O O9 0.380169 0.000000 0.758612
O O10 0.750000 0.750000 0.915001
O O11 0.915008 0.757328 0.930366
O O12 0.852993 0.857911 0.883588
O O13 0.000000 0.764119 0.500000
O O14 0.656080 0.500000 0.139345
#
# Coordination Sequence:
#
# PCOD8283896 Si02
#       6
#    32  16  32  32  16  32
#     4   9  16  27  44  70 102 132 164 197 233 283
#     4  10  18  29  49  74 100 127 151 188 246 301
#     4   8  13  22  39  64  95 131 167 201 234 267
#     4   9  19  34  53  75  97 128 164 197 244 296
#     4  10  22  39  56  75  99 122 152 200 250 303
#     4   9  16  28  47  69  96 132 172 207 233 267
#
# _framework density 18.028462999999999
#
# number of rings (size 3 to 8) (size 9 to 14) (size 15 to 20)
#    0.000    3.000    0.000    3.000    0.000    1.400 
#    0.000    5.500    0.000    7.200    0.000    0.000 
#    0.000    0.000    0.000    0.000    0.000    0.000 
#
# Total GULP energy -495564.518207 kJ/mol
# GULP energy per Si atom -12389.112955 kJ/mol
# Density = 1.798743 g / cm^3
# Si number density = 18.028463 Si / 1000 Ang^3
#
#
#
# Elastic Constant Matrix: (Units=GPa)
#
#
# Indices 1 2 3 4 5 6 
#
# 1 70.2105 34.7873 50.0806 0.0000 0.0000 0.0000
# 2 34.7873 122.6011 58.2499 0.0000 0.0000 0.0000
# 3 50.0806 58.2499 115.7935 0.0000 0.0000 0.0000
# 4 0.0000 0.0000 0.0000 14.5142 0.0000 0.0000
# 5 0.0000 0.0000 0.0000 0.0000 111.0695 0.0000
# 6 0.0000 0.0000 0.0000 0.0000 0.0000 13.2683
#
#
#
# Elastic Compliance Matrix: (Units=1/GPa)
#
#
# Indices 1 2 3 4 5 6 
#
# 1 0.021024 -0.002162 -0.008005 0.000000 0.000000 0.000000
# 2 -0.002162 0.010941 -0.004569 0.000000 0.000000 0.000000
# 3 -0.008005 -0.004569 0.014397 0.000000 0.000000 0.000000
# 4 0.000000 0.000000 0.000000 0.068898 0.000000 0.000000
# 5 0.000000 0.000000 0.000000 0.000000 0.009003 0.000000
# 6 0.000000 0.000000 0.000000 0.000000 0.000000 0.075368
#
#
# Mechanical properties :
#
#
# Convention : Reuss Voigt Hill
#
# Bulk Modulus (GPa) = 59.20835 66.09340 62.65088
# Shear Modulus (GPa) = 21.30087 38.80291 30.05189
#
# Velocity S-wave (km/s) = 3.44104 4.64434 4.08721
# Velocity P-wave (km/s) = 6.97858 8.09321 7.55647
#
# Compressibility (1/GPa) = 0.01688951
#
# Stress axis : x y z
#
# Youngs Moduli (GPa) = 47.56414 91.40260 69.46082
#
# Poissons Ratio (x) = 0.19761 0.55606
# Poissons Ratio (y) = 0.10283 0.31734
# Poissons Ratio (z) = 0.38077 0.41758
#
# Static dielectric constant tensor:
#      x y z
#    x 3.254280 0.000000 0.000000 
#    y 0.000000 3.339280 0.000000 
#    z 0.000000 0.000000 3.151030 
# 
# 
# High freq. dielectric constant tensor:
#      x y z
#    x 1.682220 0.000000 0.000000 
#    y 0.000000 1.693370 0.000000 
#    z 0.000000 0.000000 1.666160 
# 
# From -- ./inp_files/41794.got.cif
#   From: 2010.03.12/outbox.cif.g09.slc.cpg/sg69_21_cif.got.tgz:41794.got - 2010.04.10 23:52:46.
