data_PCOD8283399
_publ_section_title
;
Structure prediction by ZEFSAII (Michael W. Deem and Ramdas Pophale) SiO2 
 PCOD8283399
Probable space group: C C C A
;
_chemical_formula_sum "Si O2"
_cell_formula_units_Z 112
_cell_length_a 13.447281
_cell_length_b 15.310160
_cell_length_c 23.775815
_cell_angle_alpha 90.000000
_cell_angle_beta 90.000000
_cell_angle_gamma 90.000000
_cell_volume 4894.965355
_symmetry_space_group_name_H-M "C C C A"
_symmetry_group_IT_number 68
_space_group.IT_coordinate_system_code '2'
_symmetry_cell_setting 'orthorhombic'
loop_
_space_group_symop_operation_xyz
x,y,z
-x,1/2-y,z
x,1/2-y,1/2-z
-x,y,1/2-z
-x,-y,-z
x,1/2+y,-z
-x,1/2+y,1/2+z
x,-y,1/2+z
1/2+x,1/2+y,z
1/2-x,-y,z
1/2+x,-y,1/2-z
1/2-x,1/2+y,1/2-z
1/2-x,1/2-y,-z
1/2+x,y,-z
1/2-x,y,1/2+z
1/2+x,1/2-y,1/2+z
loop_
_atom_site_type_symbol
_atom_site_label
_atom_site_fract_x
_atom_site_fract_y
_atom_site_fract_z
Si Si1 0.392154 0.711296 0.808101
Si Si2 0.155704 0.936271 0.793991
Si Si3 0.074202 0.181765 0.052820
Si Si4 0.137690 0.014367 0.681515
Si Si5 0.314756 0.917455 0.959656
Si Si6 0.281943 0.209997 0.871157
Si Si7 0.476058 0.520758 0.103214
O O1 0.500000 0.750000 0.824639
O O2 0.353302 0.750000 0.750000
O O3 0.392226 0.608896 0.795215
O O4 0.315864 0.733376 0.858207
O O5 0.181967 0.837648 0.813613
O O6 0.078003 0.974642 0.837375
O O7 0.250000 0.000000 0.794435
O O8 0.111165 0.941973 0.730334
O O9 0.131997 0.226416 0.105303
O O10 0.000000 0.250000 0.022127
O O11 0.991136 0.112114 0.072228
O O12 0.158466 0.145298 0.011321
O O13 0.250000 0.000000 0.664369
O O14 0.086432 0.006844 0.620673
O O15 0.246187 0.866221 0.915341
O O16 0.250000 0.000000 0.980203
O O17 0.420293 0.950045 0.935110
#
# Coordination Sequence:
#
# PCOD8283399 Si02
#       7
#    16  16  16  16  16  16  16
#     4  11  25  39  66 103 142 175 227 289 353 417
#     4  11  21  41  75  95 135 186 237 263 350 434
#     4  12  27  45  68 103 142 175 236 308 349 409
#     4  11  25  41  67 105 140 184 225 280 336 433
#     4  12  25  46  75 100 132 192 242 282 359 430
#     4  12  23  46  71  98 138 185 227 296 355 417
#     4  12  23  44  71  98 135 183 231 278 353 416
#
# _framework density 22.880652000000001
#
# number of rings (size 3 to 8) (size 9 to 14) (size 15 to 20)
#    0.000    0.429    4.286    4.714    4.000    3.429 
#    0.000    0.000    0.000    0.000    0.000    0.000 
#    0.000    0.000    0.000    0.000    0.000    0.000 
#
# Total GULP energy -694185.621058 kJ/mol
# GULP energy per Si atom -12396.171805 kJ/mol
# Density = 2.282857 g / cm^3
# Si number density = 22.880652 Si / 1000 Ang^3
#
#
#
# Elastic Constant Matrix: (Units=GPa)
#
#
# Indices 1 2 3 4 5 6 
#
# 1 91.5968 29.1995 27.3797 0.0000 0.0000 0.0000
# 2 29.1995 98.4409 40.5312 0.0000 0.0000 0.0000
# 3 27.3797 40.5312 66.4534 0.0000 0.0000 0.0000
# 4 0.0000 0.0000 0.0000 63.5812 0.0000 0.0000
# 5 0.0000 0.0000 0.0000 0.0000 10.2568 0.0000
# 6 0.0000 0.0000 0.0000 0.0000 0.0000 46.7412
#
#
#
# Elastic Compliance Matrix: (Units=1/GPa)
#
#
# Indices 1 2 3 4 5 6 
#
# 1 0.012788 -0.002168 -0.003946 0.000000 0.000000 0.000000
# 2 -0.002168 0.013932 -0.007604 0.000000 0.000000 0.000000
# 3 -0.003946 -0.007604 0.021312 0.000000 0.000000 0.000000
# 4 0.000000 0.000000 0.000000 0.015728 0.000000 0.000000
# 5 0.000000 0.000000 0.000000 0.000000 0.097496 0.000000
# 6 0.000000 0.000000 0.000000 0.000000 0.000000 0.021394
#
#
# Mechanical properties :
#
#
# Convention : Reuss Voigt Hill
#
# Bulk Modulus (GPa) = 48.55611 50.07909 49.31760
# Shear Modulus (GPa) = 23.04633 34.74123 28.89378
#
# Velocity S-wave (km/s) = 3.17715 3.90085 3.55745
# Velocity P-wave (km/s) = 5.89293 6.49796 6.20282
#
# Compressibility (1/GPa) = 0.02059473
#
# Stress axis : x y z
#
# Youngs Moduli (GPa) = 78.19642 71.77475 46.92164
#
# Poissons Ratio (x) = 0.15564 0.18517
# Poissons Ratio (y) = 0.16956 0.35681
# Poissons Ratio (z) = 0.30860 0.54579
#
# Static dielectric constant tensor:
#      x y z
#    x 4.480750 0.000000 0.000000 
#    y 0.000000 4.281860 0.000000 
#    z 0.000000 0.000000 4.079980 
# 
# 
# High freq. dielectric constant tensor:
#      x y z
#    x 1.920800 0.000000 0.000000 
#    y 0.000000 1.905790 0.000000 
#    z 0.000000 0.000000 1.888740 
# 
# From -- ./inp_files/45526.got.cif
#   From: 2010.03.12/outbox.cif.g09.slc.cpg/sg68_23_cif.got.tgz:45526.got - 2010.04.10 23:14:56.
