data_PCOD8283485
_publ_section_title
;
Structure prediction by ZEFSAII (Michael W. Deem and Ramdas Pophale) SiO2 
 PCOD8283485
Probable space group: C C C A
;
_chemical_formula_sum "Si O2"
_cell_formula_units_Z 64
_cell_length_a 4.913042
_cell_length_b 30.686039
_cell_length_c 18.129595
_cell_angle_alpha 90.000000
_cell_angle_beta 90.000000
_cell_angle_gamma 90.000000
_cell_volume 2733.250347
_symmetry_space_group_name_H-M "C C C A"
_symmetry_group_IT_number 68
_space_group.IT_coordinate_system_code '2'
_symmetry_cell_setting 'orthorhombic'
loop_
_space_group_symop_operation_xyz
x,y,z
-x,1/2-y,z
x,1/2-y,1/2-z
-x,y,1/2-z
-x,-y,-z
x,1/2+y,-z
-x,1/2+y,1/2+z
x,-y,1/2+z
1/2+x,1/2+y,z
1/2-x,-y,z
1/2+x,-y,1/2-z
1/2-x,1/2+y,1/2-z
1/2-x,1/2-y,-z
1/2+x,y,-z
1/2-x,y,1/2+z
1/2+x,1/2-y,1/2+z
loop_
_atom_site_type_symbol
_atom_site_label
_atom_site_fract_x
_atom_site_fract_y
_atom_site_fract_z
Si Si1 0.000000 0.470756 0.250000
Si Si2 0.247308 0.279835 0.382513
Si Si3 0.677286 0.401736 0.319697
Si Si4 0.848351 0.369602 0.545899
Si Si5 0.500000 0.672851 0.250000
O O1 0.250000 0.500000 0.279320
O O2 0.097601 0.440622 0.179677
O O3 0.500000 0.250000 0.369362
O O4 0.341061 0.318189 0.437246
O O5 0.000000 0.250000 0.414440
O O6 0.187036 0.297938 0.301212
O O7 0.500000 0.414488 0.250000
O O8 0.470556 0.398629 0.388258
O O9 0.824250 0.355541 0.307727
O O10 0.535294 0.380829 0.525934
#
# Coordination Sequence:
#
# PCOD8283485 Si02
#       5
#     8  16  16  16   8
#     4  11  24  42  75 118 143 162 211 286 347 402
#     4  12  26  41  63  93 135 184 238 305 363 403
#     4  11  23  44  77 102 133 181 232 278 331 418
#     4  12  27  45  66  97 139 187 237 287 343 408
#     4  11  23  40  67 100 132 172 244 300 345 402
#
# _framework density 23.415346
#
# number of rings (size 3 to 8) (size 9 to 14) (size 15 to 20)
#    0.000    0.500    3.750    4.875    3.500    6.000 
#    0.000    0.000    0.000    4.500    0.000    0.000 
#    0.000    0.000    0.000    0.000    0.000    0.000 
#
# Total GULP energy -396647.579522 kJ/mol
# GULP energy per Si atom -12395.236860 kJ/mol
# Density = 2.336205 g / cm^3
# Si number density = 23.415346 Si / 1000 Ang^3
#
#
#
# Elastic Constant Matrix: (Units=GPa)
#
#
# Indices 1 2 3 4 5 6 
#
# 1 142.0183 46.7514 22.2782 0.0000 0.0000 0.0000
# 2 46.7514 96.4441 16.7387 0.0000 0.0000 0.0000
# 3 22.2782 16.7387 74.6128 0.0000 0.0000 0.0000
# 4 0.0000 0.0000 0.0000 12.9873 0.0000 0.0000
# 5 0.0000 0.0000 0.0000 0.0000 50.9418 0.0000
# 6 0.0000 0.0000 0.0000 0.0000 0.0000 142.0878
#
#
#
# Elastic Compliance Matrix: (Units=1/GPa)
#
#
# Indices 1 2 3 4 5 6 
#
# 1 0.008579 -0.003865 -0.001695 0.000000 0.000000 0.000000
# 2 -0.003865 0.012530 -0.001657 0.000000 0.000000 0.000000
# 3 -0.001695 -0.001657 0.014280 0.000000 0.000000 0.000000
# 4 0.000000 0.000000 0.000000 0.076998 0.000000 0.000000
# 5 0.000000 0.000000 0.000000 0.000000 0.019630 0.000000
# 6 0.000000 0.000000 0.000000 0.000000 0.000000 0.007038
#
#
# Mechanical properties :
#
#
# Convention : Reuss Voigt Hill
#
# Bulk Modulus (GPa) = 47.71762 53.84576 50.78169
# Shear Modulus (GPa) = 31.15770 56.35716 43.75743
#
# Velocity S-wave (km/s) = 3.65177 4.91129 4.32759
# Velocity P-wave (km/s) = 6.18090 7.43013 6.83412
#
# Compressibility (1/GPa) = 0.02095662
#
# Stress axis : x y z
#
# Youngs Moduli (GPa) = 116.55768 79.81015 70.02679
#
# Poissons Ratio (x) = 0.30845 0.11867
# Poissons Ratio (y) = 0.45047 0.11603
# Poissons Ratio (z) = 0.19753 0.13224
#
# Static dielectric constant tensor:
#      x y z
#    x 4.787770 0.000000 0.000000 
#    y 0.000000 4.249800 0.000000 
#    z 0.000000 0.000000 4.156710 
# 
# 
# High freq. dielectric constant tensor:
#      x y z
#    x 1.960360 0.000000 0.000000 
#    y 0.000000 1.911430 0.000000 
#    z 0.000000 0.000000 1.898520 
# 
# From -- ./inp_files/27144.got.cif
#   From: 2010.03.12/outbox.cif.g09.slc.cpg/sg68_14_cif.got.tgz:27144.got - 2010.04.10 23:14:56.
