data_PCOD8283731
_publ_section_title
;
Structure prediction by ZEFSAII (Michael W. Deem and Ramdas Pophale) SiO2 
 PCOD8283731
Probable space group: C C C A
;
_chemical_formula_sum "Si O2"
_cell_formula_units_Z 88
_cell_length_a 11.863775
_cell_length_b 27.064306
_cell_length_c 13.677715
_cell_angle_alpha 90.000000
_cell_angle_beta 90.000000
_cell_angle_gamma 90.000000
_cell_volume 4391.706890
_symmetry_space_group_name_H-M "C C C A"
_symmetry_group_IT_number 68
_space_group.IT_coordinate_system_code '2'
_symmetry_cell_setting 'orthorhombic'
loop_
_space_group_symop_operation_xyz
x,y,z
-x,1/2-y,z
x,1/2-y,1/2-z
-x,y,1/2-z
-x,-y,-z
x,1/2+y,-z
-x,1/2+y,1/2+z
x,-y,1/2+z
1/2+x,1/2+y,z
1/2-x,-y,z
1/2+x,-y,1/2-z
1/2-x,1/2+y,1/2-z
1/2-x,1/2-y,-z
1/2+x,y,-z
1/2-x,y,1/2+z
1/2+x,1/2-y,1/2+z
loop_
_atom_site_type_symbol
_atom_site_label
_atom_site_fract_x
_atom_site_fract_y
_atom_site_fract_z
Si Si1 0.997789 0.142403 0.412338
Si Si2 0.624224 0.065435 0.227477
Si Si3 0.682782 0.250000 0.750000
Si Si4 0.583202 0.953766 0.509332
Si Si5 0.313926 0.144520 0.757213
Si Si6 0.250000 0.500000 0.869610
Si Si7 0.500000 0.250000 0.587465
O O1 0.982615 0.097771 0.489068
O O2 0.899032 0.139540 0.332787
O O3 0.994240 0.196535 0.468957
O O4 0.117743 0.136253 0.358025
O O5 0.500000 0.085867 0.250000
O O6 0.714645 0.106506 0.251359
O O7 0.650175 0.020907 0.301674
O O8 0.634706 0.046775 0.117209
O O9 0.749642 0.301794 0.750942
O O10 0.608832 0.246674 0.653647
O O11 0.500000 0.000000 0.500000
O O12 0.689210 0.958881 0.436398
#
# Coordination Sequence:
#
# PCOD8283731 Si02
#       7
#    16  16   8  16  16   8   8
#     4   9  18  35  64  94 116 154 209 261 314 351
#     4  12  26  41  61  88 125 164 208 247 310 378
#     4   7  12  28  57  92 112 150 203 251 310 352
#     4  12  26  41  62  90 124 162 206 257 319 375
#     4   9  18  35  64  89 120 157 204 261 304 362
#     4  12  26  46  62  86 120 166 210 266 306 374
#     4   7  12  28  58  92 117 140 202 272 297 352
#
# _framework density 20.037766999999999
#
# number of rings (size 3 to 8) (size 9 to 14) (size 15 to 20)
#    0.000    2.000    3.636    2.727    5.091    0.000 
#    0.000    0.455    4.000    3.273    0.000    0.000 
#    0.000    0.000    0.000    0.000    0.000    0.000 
#
# Total GULP energy -545082.745364 kJ/mol
# GULP energy per Si atom -12388.244213 kJ/mol
# Density = 1.999216 g / cm^3
# Si number density = 20.037767 Si / 1000 Ang^3
#
#
#
# Elastic Constant Matrix: (Units=GPa)
#
#
# Indices 1 2 3 4 5 6 
#
# 1 83.4468 33.0762 21.8562 0.0000 0.0000 0.0000
# 2 33.0762 145.0095 37.2686 0.0000 0.0000 0.0000
# 3 21.8562 37.2686 88.6650 0.0000 0.0000 0.0000
# 4 0.0000 0.0000 0.0000 24.9440 0.0000 0.0000
# 5 0.0000 0.0000 0.0000 0.0000 22.6526 0.0000
# 6 0.0000 0.0000 0.0000 0.0000 0.0000 22.8689
#
#
#
# Elastic Compliance Matrix: (Units=1/GPa)
#
#
# Indices 1 2 3 4 5 6 
#
# 1 0.013578 -0.002508 -0.002293 0.000000 0.000000 0.000000
# 2 -0.002508 0.008194 -0.002826 0.000000 0.000000 0.000000
# 3 -0.002293 -0.002826 0.013032 0.000000 0.000000 0.000000
# 4 0.000000 0.000000 0.000000 0.040090 0.000000 0.000000
# 5 0.000000 0.000000 0.000000 0.000000 0.044145 0.000000
# 6 0.000000 0.000000 0.000000 0.000000 0.000000 0.043727
#
#
# Mechanical properties :
#
#
# Convention : Reuss Voigt Hill
#
# Bulk Modulus (GPa) = 51.15007 55.72481 53.43744
# Shear Modulus (GPa) = 27.09475 29.08778 28.09127
#
# Velocity S-wave (km/s) = 3.68120 3.81418 3.74828
# Velocity P-wave (km/s) = 6.60685 6.87514 6.74233
#
# Compressibility (1/GPa) = 0.01955031
#
# Stress axis : x y z
#
# Youngs Moduli (GPa) = 73.64686 122.03329 76.73675
#
# Poissons Ratio (x) = 0.30604 0.17596
# Poissons Ratio (y) = 0.18470 0.21687
# Poissons Ratio (z) = 0.16887 0.34489
#
# Static dielectric constant tensor:
#      x y z
#    x 3.513990 0.000000 0.000000 
#    y 0.000000 4.247290 0.000000 
#    z 0.000000 0.000000 3.454280 
# 
# 
# High freq. dielectric constant tensor:
#      x y z
#    x 1.758380 0.000000 0.000000 
#    y 0.000000 1.802610 0.000000 
#    z 0.000000 0.000000 1.753600 
# 
# From -- ./inp_files/12114.got.cif
#   From: 2010.03.12/outbox.cif.g09.slc.cpg/sg68_7_cif.got.tgz:12114.got - 2010.04.10 23:14:56.
