data_PCOD8283596
_publ_section_title
;
Structure prediction by ZEFSAII (Michael W. Deem and Ramdas Pophale) SiO2 
 PCOD8283596
Probable space group: C C C A
;
_chemical_formula_sum "Si O2"
_cell_formula_units_Z 64
_cell_length_a 9.661692
_cell_length_b 31.538877
_cell_length_c 9.885816
_cell_angle_alpha 90.000000
_cell_angle_beta 90.000000
_cell_angle_gamma 90.000000
_cell_volume 3012.395131
_symmetry_space_group_name_H-M "C C C A"
_symmetry_group_IT_number 68
_space_group.IT_coordinate_system_code '2'
_symmetry_cell_setting 'orthorhombic'
loop_
_space_group_symop_operation_xyz
x,y,z
-x,1/2-y,z
x,1/2-y,1/2-z
-x,y,1/2-z
-x,-y,-z
x,1/2+y,-z
-x,1/2+y,1/2+z
x,-y,1/2+z
1/2+x,1/2+y,z
1/2-x,-y,z
1/2+x,-y,1/2-z
1/2-x,1/2+y,1/2-z
1/2-x,1/2-y,-z
1/2+x,y,-z
1/2-x,y,1/2+z
1/2+x,1/2-y,1/2+z
loop_
_atom_site_type_symbol
_atom_site_label
_atom_site_fract_x
_atom_site_fract_y
_atom_site_fract_z
Si Si1 0.360639 0.231927 0.601574
Si Si2 0.732898 0.406574 0.964273
Si Si3 0.973605 0.138230 0.399361
Si Si4 0.161148 0.542089 0.283501
O O1 0.500000 0.250000 0.541163
O O2 0.326504 0.250000 0.750000
O O3 0.250000 0.250000 0.500000
O O4 0.388295 0.182001 0.603263
O O5 0.628392 0.365376 0.964238
O O6 0.765244 0.423548 0.814135
O O7 0.881395 0.394517 0.020851
O O8 0.668137 0.442370 0.061237
O O9 0.000000 0.121523 0.250000
O O10 0.250000 0.500000 0.267299
O O11 0.000000 0.533757 0.250000
#
# Coordination Sequence:
#
# PCOD8283596 Si02
#       4
#    16  16  16  16
#     4  11  24  45  69 104 142 184 232 282 349 412
#     4  12  26  45  71 104 139 180 239 286 352 424
#     4  12  24  44  73 101 141 184 231 297 343 413
#     4  12  28  46  70 103 140 185 234 292 359 424
#
# _framework density 21.245553000000001
#
# number of rings (size 3 to 8) (size 9 to 14) (size 15 to 20)
#    0.000    0.250    7.500    2.250    3.500    2.500 
#    0.000    0.000    0.000    0.000    0.000    0.000 
#    0.000    0.000    0.000    0.000    0.000    0.000 
#
# Total GULP energy -396454.954880 kJ/mol
# GULP energy per Si atom -12389.217340 kJ/mol
# Density = 2.119720 g / cm^3
# Si number density = 21.245553 Si / 1000 Ang^3
#
#
#
# Elastic Constant Matrix: (Units=GPa)
#
#
# Indices 1 2 3 4 5 6 
#
# 1 159.3249 39.5758 58.2822 0.0000 0.0000 0.0000
# 2 39.5758 90.2219 27.8036 0.0000 0.0000 0.0000
# 3 58.2822 27.8036 101.1884 0.0000 0.0000 0.0000
# 4 0.0000 0.0000 0.0000 41.8876 0.0000 0.0000
# 5 0.0000 0.0000 0.0000 0.0000 35.9128 0.0000
# 6 0.0000 0.0000 0.0000 0.0000 0.0000 48.4270
#
#
#
# Elastic Compliance Matrix: (Units=1/GPa)
#
#
# Indices 1 2 3 4 5 6 
#
# 1 0.008401 -0.002397 -0.004180 0.000000 0.000000 0.000000
# 2 -0.002397 0.012793 -0.002135 0.000000 0.000000 0.000000
# 3 -0.004180 -0.002135 0.012877 0.000000 0.000000 0.000000
# 4 0.000000 0.000000 0.000000 0.023873 0.000000 0.000000
# 5 0.000000 0.000000 0.000000 0.000000 0.027845 0.000000
# 6 0.000000 0.000000 0.000000 0.000000 0.000000 0.020650
#
#
# Mechanical properties :
#
#
# Convention : Reuss Voigt Hill
#
# Bulk Modulus (GPa) = 60.06931 66.89538 63.48235
# Shear Modulus (GPa) = 38.63643 40.25039 39.44341
#
# Velocity S-wave (km/s) = 4.26909 4.35734 4.31344
# Velocity P-wave (km/s) = 7.25502 7.54125 7.39952
#
# Compressibility (1/GPa) = 0.01664744
#
# Stress axis : x y z
#
# Youngs Moduli (GPa) = 119.03333 78.16780 77.65920
#
# Poissons Ratio (x) = 0.18736 0.32463
# Poissons Ratio (y) = 0.28531 0.16577
# Poissons Ratio (z) = 0.49758 0.16686
#
# Static dielectric constant tensor:
#      x y z
#    x 4.133970 0.000000 0.000000 
#    y 0.000000 3.679770 0.000000 
#    z 0.000000 0.000000 3.978090 
# 
# 
# High freq. dielectric constant tensor:
#      x y z
#    x 1.857740 0.000000 0.000000 
#    y 0.000000 1.827370 0.000000 
#    z 0.000000 0.000000 1.840870 
# 
# From -- ./inp_files/10769.got.cif
#   From: 2010.03.12/outbox.cif.g09.slc.cpg/sg68_6_cif.got.tgz:10769.got - 2010.04.10 23:14:56.
