data_PCOD8283928
_publ_section_title
;
Structure prediction by ZEFSAII (Michael W. Deem and Ramdas Pophale) SiO2 
 PCOD8283928
Probable space group: F M M M
;
_chemical_formula_sum "Si O2"
_cell_formula_units_Z 208
_cell_length_a 21.815607
_cell_length_b 18.677928
_cell_length_c 28.612483
_cell_angle_alpha 90.000000
_cell_angle_beta 90.000000
_cell_angle_gamma 90.000000
_cell_volume 11658.738085
_symmetry_space_group_name_H-M "F M M M"
_symmetry_group_IT_number 69
_symmetry_cell_setting 'orthorhombic'
loop_
_space_group_symop_operation_xyz
x,y,z
-x,-y,z
x,-y,-z
-x,y,-z
-x,-y,-z
x,y,-z
-x,y,z
x,-y,z
x,1/2+y,1/2+z
-x,1/2-y,1/2+z
x,1/2-y,1/2-z
-x,1/2+y,1/2-z
-x,1/2-y,1/2-z
x,1/2+y,1/2-z
-x,1/2+y,1/2+z
x,1/2-y,1/2+z
1/2+x,y,1/2+z
1/2-x,-y,1/2+z
1/2+x,-y,1/2-z
1/2-x,y,1/2-z
1/2-x,-y,1/2-z
1/2+x,y,1/2-z
1/2-x,y,1/2+z
1/2+x,-y,1/2+z
1/2+x,1/2+y,z
1/2-x,1/2-y,z
1/2+x,1/2-y,-z
1/2-x,1/2+y,-z
1/2-x,1/2-y,-z
1/2+x,1/2+y,-z
1/2-x,1/2+y,z
1/2+x,1/2-y,z
loop_
_atom_site_type_symbol
_atom_site_label
_atom_site_fract_x
_atom_site_fract_y
_atom_site_fract_z
Si Si1 0.343688 0.796373 0.053425
Si Si2 0.071126 0.812649 0.642226
Si Si3 0.115260 0.918941 0.108634
Si Si4 0.500000 0.414648 0.051599
Si Si5 0.927592 0.419290 0.781537
Si Si6 0.716555 0.142225 0.447733
Si Si7 0.071257 0.334788 0.690605
O O1 0.395344 0.806244 0.092514
O O2 0.317724 0.717207 0.057206
O O3 0.288107 0.850898 0.065263
O O4 0.367800 0.810206 0.000000
O O5 0.092748 0.885072 0.668759
O O6 0.083175 0.748776 0.679799
O O7 0.000000 0.815397 0.629223
O O8 0.182267 0.913894 0.085514
O O9 0.116080 0.877697 0.156857
O O10 0.061342 0.885352 0.076400
O O11 0.098880 0.000000 0.119582
O O12 0.500000 0.500000 0.049371
O O13 0.500000 0.381323 0.000000
O O14 0.899390 0.500000 0.775641
O O15 0.907742 0.362173 0.741626
O O16 0.000000 0.426001 0.780330
O O17 0.710432 0.112569 0.500000
O O18 0.000000 0.354260 0.681801
#
# Coordination Sequence:
#
# PCOD8283928 Si02
#       7
#    32  32  32  16  32  32  32
#     4   9  18  34  54  73  98 133 174 217 258 304
#     4  10  19  32  53  82 108 131 169 218 264 309
#     4  11  19  28  45  72 106 141 175 211 251 303
#     4   9  18  28  38  62 105 148 173 199 247 302
#     4   9  18  32  51  74 104 140 172 210 263 315
#     4   9  18  33  50  68  95 138 183 214 245 297
#     4  10  18  30  48  76 109 139 171 208 250 308
#
# _framework density 17.840696000000001
#
# number of rings (size 3 to 8) (size 9 to 14) (size 15 to 20)
#    0.000    2.385    2.308    2.308    0.000    3.692 
#    0.000    0.769    0.000    2.308    0.000    4.308 
#    0.000    0.000    0.000    0.000    0.000    0.000 
#
# Total GULP energy -644380.129824 kJ/mol
# GULP energy per Si atom -12391.925574 kJ/mol
# Density = 1.780009 g / cm^3
# Si number density = 17.840696 Si / 1000 Ang^3
#
#
#
# Elastic Constant Matrix: (Units=GPa)
#
#
# Indices 1 2 3 4 5 6 
#
# 1 56.7076 24.8318 44.0226 0.0000 0.0000 0.0000
# 2 24.8318 66.4924 42.3297 0.0000 0.0000 0.0000
# 3 44.0226 42.3297 118.9855 0.0000 0.0000 0.0000
# 4 0.0000 0.0000 0.0000 18.6155 0.0000 0.0000
# 5 0.0000 0.0000 0.0000 0.0000 17.6267 0.0000
# 6 0.0000 0.0000 0.0000 0.0000 0.0000 18.1228
#
#
#
# Elastic Compliance Matrix: (Units=1/GPa)
#
#
# Indices 1 2 3 4 5 6 
#
# 1 0.025783 -0.004597 -0.007904 0.000000 0.000000 0.000000
# 2 -0.004597 0.020262 -0.005508 0.000000 0.000000 0.000000
# 3 -0.007904 -0.005508 0.013288 0.000000 0.000000 0.000000
# 4 0.000000 0.000000 0.000000 0.053719 0.000000 0.000000
# 5 0.000000 0.000000 0.000000 0.000000 0.056732 0.000000
# 6 0.000000 0.000000 0.000000 0.000000 0.000000 0.055179
#
#
# Mechanical properties :
#
#
# Convention : Reuss Voigt Hill
#
# Bulk Modulus (GPa) = 42.88833 51.61711 47.25272
# Shear Modulus (GPa) = 18.60446 19.60642 19.10544
#
# Velocity S-wave (km/s) = 3.23276 3.31867 3.27600
# Velocity P-wave (km/s) = 6.16653 6.60907 6.39163
#
# Compressibility (1/GPa) = 0.02331636
#
# Stress axis : x y z
#
# Youngs Moduli (GPa) = 38.78489 49.35275 75.25568
#
# Poissons Ratio (x) = 0.22688 0.59481
# Poissons Ratio (y) = 0.17830 0.41447
# Poissons Ratio (z) = 0.30655 0.27181
#
# Static dielectric constant tensor:
#      x y z
#    x 3.121380 0.000000 0.000000 
#    y 0.000000 3.313150 0.000000 
#    z 0.000000 0.000000 3.375090 
# 
# 
# High freq. dielectric constant tensor:
#      x y z
#    x 1.650630 0.000000 0.000000 
#    y 0.000000 1.677750 0.000000 
#    z 0.000000 0.000000 1.693360 
# 
# From -- ./inp_files/43289.got.cif
#   From: 2010.03.12/outbox.cif.g09.slc.cpg/sg69_22_cif.got.tgz:43289.got - 2010.04.10 23:52:46.
