data_PCOD8283997
_publ_section_title
;
Structure prediction by ZEFSAII (Michael W. Deem and Ramdas Pophale) SiO2 
 PCOD8283997
Probable space group: F M M M
;
_chemical_formula_sum "Si O2"
_cell_formula_units_Z 160
_cell_length_a 21.945294
_cell_length_b 13.948667
_cell_length_c 25.863307
_cell_angle_alpha 90.000000
_cell_angle_beta 90.000000
_cell_angle_gamma 90.000000
_cell_volume 7916.954788
_symmetry_space_group_name_H-M "F M M M"
_symmetry_group_IT_number 69
_symmetry_cell_setting 'orthorhombic'
loop_
_space_group_symop_operation_xyz
x,y,z
-x,-y,z
x,-y,-z
-x,y,-z
-x,-y,-z
x,y,-z
-x,y,z
x,-y,z
x,1/2+y,1/2+z
-x,1/2-y,1/2+z
x,1/2-y,1/2-z
-x,1/2+y,1/2-z
-x,1/2-y,1/2-z
x,1/2+y,1/2-z
-x,1/2+y,1/2+z
x,1/2-y,1/2+z
1/2+x,y,1/2+z
1/2-x,-y,1/2+z
1/2+x,-y,1/2-z
1/2-x,y,1/2-z
1/2-x,-y,1/2-z
1/2+x,y,1/2-z
1/2-x,y,1/2+z
1/2+x,-y,1/2+z
1/2+x,1/2+y,z
1/2-x,1/2-y,z
1/2+x,1/2-y,-z
1/2-x,1/2+y,-z
1/2-x,1/2-y,-z
1/2+x,1/2+y,-z
1/2-x,1/2+y,z
1/2+x,1/2-y,z
loop_
_atom_site_type_symbol
_atom_site_label
_atom_site_fract_x
_atom_site_fract_y
_atom_site_fract_z
Si Si1 0.566800 0.856652 0.769156
Si Si2 0.189937 0.856118 0.225911
Si Si3 0.069903 0.392470 0.113038
Si Si4 0.830175 0.790913 0.559184
Si Si5 0.217707 0.612913 0.392549
O O1 0.500000 0.908084 0.759817
O O2 0.560033 0.750000 0.750000
O O3 0.624933 0.907033 0.740526
O O4 0.581954 0.854826 0.829509
O O5 0.186950 0.750000 0.250000
O O6 0.250000 0.908524 0.250000
O O7 0.197654 0.858484 0.164841
O O8 0.095694 0.500000 0.108154
O O9 0.101774 0.323102 0.071874
O O10 0.000000 0.389118 0.097922
O O11 0.813609 0.812859 0.500000
O O12 0.824189 0.676773 0.569317
O O13 0.786905 0.853900 0.596870
O O14 0.208906 0.500000 0.403345
#
# Coordination Sequence:
#
# PCOD8283997 Si02
#       5
#    32  32  32  32  32
#     4   9  17  31  52  78 113 154 190 227 275 337
#     4  10  18  31  53  80 115 152 187 230 279 336
#     4  10  21  37  59  88 119 150 189 240 295 350
#     4  11  23  40  62  84 112 151 192 245 306 353
#     4  11  23  38  58  86 117 151 194 240 288 345
#
# _framework density 20.209792
#
# number of rings (size 3 to 8) (size 9 to 14) (size 15 to 20)
#    0.000    1.800    0.000    7.800    0.000    4.400 
#    0.000    1.000    0.000    1.800    0.000    1.400 
#    0.000    0.000    0.000    0.000    0.000    0.000 
#
# Total GULP energy -495582.358919 kJ/mol
# GULP energy per Si atom -12389.558973 kJ/mol
# Density = 2.016379 g / cm^3
# Si number density = 20.209792 Si / 1000 Ang^3
#
#
#
# Elastic Constant Matrix: (Units=GPa)
#
#
# Indices 1 2 3 4 5 6 
#
# 1 150.1296 25.9063 62.1070 0.0000 0.0000 0.0000
# 2 25.9063 140.4307 32.5183 0.0000 0.0000 0.0000
# 3 62.1070 32.5183 110.0311 0.0000 0.0000 0.0000
# 4 0.0000 0.0000 0.0000 -4.9761 0.0000 0.0000
# 5 0.0000 0.0000 0.0000 0.0000 23.5276 0.0000
# 6 0.0000 0.0000 0.0000 0.0000 0.0000 6.9008
#
#
#
# Elastic Compliance Matrix: (Units=1/GPa)
#
#
# Indices 1 2 3 4 5 6 
#
# 1 0.008723 -0.000504 -0.004775 0.000000 0.000000 0.000000
# 2 -0.000504 0.007673 -0.001983 0.000000 0.000000 0.000000
# 3 -0.004775 -0.001983 0.012370 0.000000 0.000000 0.000000
# 4 0.000000 0.000000 0.000000 -0.200960 0.000000 0.000000
# 5 0.000000 0.000000 0.000000 0.000000 0.042503 0.000000
# 6 0.000000 0.000000 0.000000 0.000000 0.000000 0.144911
#
#
# Mechanical properties :
#
#
# Convention : Reuss Voigt Hill
#
# Bulk Modulus (GPa) = 70.21437 71.29493 70.75465
# Shear Modulus (GPa) = 144.96397 23.76111 84.36254
#
# Velocity S-wave (km/s) = 8.47852 3.43260 6.46792
# Velocity P-wave (km/s) = 11.43089 7.14593 9.53230
#
# Compressibility (1/GPa) = 0.01424210
#
# Stress axis : x y z
#
# Youngs Moduli (GPa) = 114.63752 130.32484 80.84234
#
# Poissons Ratio (x) = 0.06562 0.38602
# Poissons Ratio (y) = 0.05772 0.16035
# Poissons Ratio (z) = 0.54739 0.25850
#
# Static dielectric constant tensor:
#      x y z
#    x 4.875210 0.000000 0.000000 
#    y 0.000000 3.582190 0.000000 
#    z 0.000000 0.000000 3.424590 
# 
# 
# High freq. dielectric constant tensor:
#      x y z
#    x 1.801200 0.000000 0.000000 
#    y 0.000000 1.779570 0.000000 
#    z 0.000000 0.000000 1.779550 
# 
# From -- ./inp_files/17727.got.cif
#   From: 2010.03.12/outbox.cif.g09.slc.cpg/sg69_9_cif.got.tgz:17727.got - 2010.04.10 23:52:46.
