data_PCOD8283735
_publ_section_title
;
Structure prediction by ZEFSAII (Michael W. Deem and Ramdas Pophale) SiO2 
 PCOD8283735
Probable space group: C C C A
;
_chemical_formula_sum "Si O2"
_cell_formula_units_Z 60
_cell_length_a 9.658673
_cell_length_b 24.934955
_cell_length_c 10.133651
_cell_angle_alpha 90.000000
_cell_angle_beta 90.000000
_cell_angle_gamma 90.000000
_cell_volume 2440.574083
_symmetry_space_group_name_H-M "C C C A"
_symmetry_group_IT_number 68
_space_group.IT_coordinate_system_code '2'
_symmetry_cell_setting 'orthorhombic'
loop_
_space_group_symop_operation_xyz
x,y,z
-x,1/2-y,z
x,1/2-y,1/2-z
-x,y,1/2-z
-x,-y,-z
x,1/2+y,-z
-x,1/2+y,1/2+z
x,-y,1/2+z
1/2+x,1/2+y,z
1/2-x,-y,z
1/2+x,-y,1/2-z
1/2-x,1/2+y,1/2-z
1/2-x,1/2-y,-z
1/2+x,y,-z
1/2-x,y,1/2+z
1/2+x,1/2-y,1/2+z
loop_
_atom_site_type_symbol
_atom_site_label
_atom_site_fract_x
_atom_site_fract_y
_atom_site_fract_z
Si Si1 0.755748 0.298132 0.601739
Si Si2 0.750000 0.500000 0.866117
Si Si3 0.000000 0.336774 0.250000
Si Si4 0.000000 0.750000 0.250000
Si Si5 0.500000 0.940809 0.750000
Si Si6 0.878309 0.602183 0.993856
O O1 0.750000 0.250000 0.500000
O O2 0.628145 0.298522 0.705579
O O3 0.903652 0.290858 0.670404
O O4 0.757522 0.355207 0.527921
O O5 0.633165 0.522098 0.769227
O O6 0.809072 0.545807 0.960828
O O7 0.963117 0.375423 0.370394
O O8 0.521319 0.904667 0.880130
#
# Coordination Sequence:
#
# PCOD8283735 Si02
#       6
#    16   8   8   4   8  16
#     4  12  27  49  77 111 152 198 251 311 380 455
#     4  12  26  48  76 112 154 202 260 322 384 458
#     4  12  27  51  79 115 153 203 259 319 384 462
#     4  12  26  46  72 108 148 192 238 306 376 448
#     4  12  26  48  75 111 151 203 256 318 388 462
#     4  12  26  48  78 114 153 202 257 321 386 459
#
# _framework density 24.584378999999998
#
# number of rings (size 3 to 8) (size 9 to 14) (size 15 to 20)
#    0.000    0.000    0.000    9.600    0.000    3.733 
#    0.000    0.000    0.000    0.000    0.000    0.000 
#    0.000    0.000    0.000    0.000    0.000    0.000 
#
# Total GULP energy -372087.079551 kJ/mol
# GULP energy per Si atom -12402.902652 kJ/mol
# Density = 2.452842 g / cm^3
# Si number density = 24.584379 Si / 1000 Ang^3
#
#
#
# Elastic Constant Matrix: (Units=GPa)
#
#
# Indices 1 2 3 4 5 6 
#
# 1 174.6274 62.4210 89.4166 0.0000 0.0000 0.0000
# 2 62.4210 154.2827 83.3452 0.0000 0.0000 0.0000
# 3 89.4166 83.3452 194.8375 0.0000 0.0000 0.0000
# 4 0.0000 0.0000 0.0000 14.9698 0.0000 0.0000
# 5 0.0000 0.0000 0.0000 0.0000 40.6004 0.0000
# 6 0.0000 0.0000 0.0000 0.0000 0.0000 43.9889
#
#
#
# Elastic Compliance Matrix: (Units=1/GPa)
#
#
# Indices 1 2 3 4 5 6 
#
# 1 0.007772 -0.001584 -0.002889 0.000000 0.000000 0.000000
# 2 -0.001584 0.008752 -0.003017 0.000000 0.000000 0.000000
# 3 -0.002889 -0.003017 0.007749 0.000000 0.000000 0.000000
# 4 0.000000 0.000000 0.000000 0.066801 0.000000 0.000000
# 5 0.000000 0.000000 0.000000 0.000000 0.024630 0.000000
# 6 0.000000 0.000000 0.000000 0.000000 0.000000 0.022733
#
#
# Mechanical properties :
#
#
# Convention : Reuss Voigt Hill
#
# Bulk Modulus (GPa) = 107.60674 110.45704 109.03189
# Shear Modulus (GPa) = 31.94567 39.14948 35.54758
#
# Velocity S-wave (km/s) = 3.60867 3.99489 3.80668
# Velocity P-wave (km/s) = 7.82488 8.14286 7.98545
#
# Compressibility (1/GPa) = 0.00929310
#
# Stress axis : x y z
#
# Youngs Moduli (GPa) = 128.66652 114.25682 129.04625
#
# Poissons Ratio (x) = 0.18094 0.37287
# Poissons Ratio (y) = 0.20375 0.38935
# Poissons Ratio (z) = 0.37177 0.34473
#
# Static dielectric constant tensor:
#      x y z
#    x 4.512220 0.000000 0.000000 
#    y 0.000000 4.493120 0.000000 
#    z 0.000000 0.000000 4.926970 
# 
# 
# High freq. dielectric constant tensor:
#      x y z
#    x 1.985110 0.000000 0.000000 
#    y 0.000000 1.995970 0.000000 
#    z 0.000000 0.000000 1.993200 
# 
# From -- ./inp_files/8556.got.cif
#   From: 2010.03.12/outbox.cif.g09.slc.cpg/sg68_5_cif.got.tgz:8556.got - 2010.04.10 23:14:56.
