data_PCOD8283264
_publ_section_title
;
Structure prediction by ZEFSAII (Michael W. Deem and Ramdas Pophale) SiO2 
 PCOD8283264
Probable space group: C C C A
;
_chemical_formula_sum "Si O2"
_cell_formula_units_Z 52
_cell_length_a 11.799472
_cell_length_b 21.632539
_cell_length_c 8.676237
_cell_angle_alpha 90.000000
_cell_angle_beta 90.000000
_cell_angle_gamma 90.000000
_cell_volume 2214.631516
_symmetry_space_group_name_H-M "C C C A"
_symmetry_group_IT_number 68
_space_group.IT_coordinate_system_code '2'
_symmetry_cell_setting 'orthorhombic'
loop_
_space_group_symop_operation_xyz
x,y,z
-x,1/2-y,z
x,1/2-y,1/2-z
-x,y,1/2-z
-x,-y,-z
x,1/2+y,-z
-x,1/2+y,1/2+z
x,-y,1/2+z
1/2+x,1/2+y,z
1/2-x,-y,z
1/2+x,-y,1/2-z
1/2-x,1/2+y,1/2-z
1/2-x,1/2-y,-z
1/2+x,y,-z
1/2-x,y,1/2+z
1/2+x,1/2-y,1/2+z
loop_
_atom_site_type_symbol
_atom_site_label
_atom_site_fract_x
_atom_site_fract_y
_atom_site_fract_z
Si Si1 0.000000 0.250000 0.750000
Si Si2 0.671237 0.586056 0.079479
Si Si3 0.161494 0.304836 0.994343
Si Si4 0.000000 0.839475 0.750000
Si Si5 0.250000 0.500000 0.660505
O O1 0.924184 0.204820 0.853494
O O2 0.775375 0.630301 0.031432
O O3 0.555064 0.622566 0.107570
O O4 0.691901 0.553198 0.242028
O O5 0.656483 0.533687 0.948594
O O6 0.250000 0.250000 0.000000
O O7 0.096538 0.300956 0.159806
#
# Coordination Sequence:
#
# PCOD8283264 Si02
#       5
#     4  16  16   8   8
#     4  12  28  42  74 106 138 190 232 296 382 436
#     4  11  24  48  71 110 146 195 243 309 356 441
#     4  12  27  49  74 109 149 184 244 308 364 443
#     4  12  26  47  79 106 143 202 241 294 390 438
#     4  10  24  48  72 102 158 190 244 312 356 420
#
# _framework density 23.480202999999999
#
# number of rings (size 3 to 8) (size 9 to 14) (size 15 to 20)
#    0.000    0.615    3.077    3.692    4.308    5.538 
#    0.000    0.000    0.000    0.000    0.000    0.000 
#    0.000    0.000    0.000    0.000    0.000    0.000 
#
# Total GULP energy -322400.761266 kJ/mol
# GULP energy per Si atom -12400.029279 kJ/mol
# Density = 2.342676 g / cm^3
# Si number density = 23.480203 Si / 1000 Ang^3
#
#
#
# Elastic Constant Matrix: (Units=GPa)
#
#
# Indices 1 2 3 4 5 6 
#
# 1 117.7980 52.6497 55.9741 0.0000 0.0000 0.0000
# 2 52.6497 119.8473 68.3752 0.0000 0.0000 0.0000
# 3 55.9741 68.3752 149.7353 0.0000 0.0000 0.0000
# 4 0.0000 0.0000 0.0000 37.3767 0.0000 0.0000
# 5 0.0000 0.0000 0.0000 0.0000 47.8688 0.0000
# 6 0.0000 0.0000 0.0000 0.0000 0.0000 11.9497
#
#
#
# Elastic Compliance Matrix: (Units=1/GPa)
#
#
# Indices 1 2 3 4 5 6 
#
# 1 0.011288 -0.003450 -0.002644 0.000000 0.000000 0.000000
# 2 -0.003450 0.012338 -0.004344 0.000000 0.000000 0.000000
# 3 -0.002644 -0.004344 0.009651 0.000000 0.000000 0.000000
# 4 0.000000 0.000000 0.000000 0.026755 0.000000 0.000000
# 5 0.000000 0.000000 0.000000 0.000000 0.020890 0.000000
# 6 0.000000 0.000000 0.000000 0.000000 0.000000 0.083684
#
#
# Mechanical properties :
#
#
# Convention : Reuss Voigt Hill
#
# Bulk Modulus (GPa) = 80.65031 82.37538 81.51285
# Shear Modulus (GPa) = 26.36908 33.46447 29.91678
#
# Velocity S-wave (km/s) = 3.35481 3.77931 3.57337
# Velocity P-wave (km/s) = 7.03058 7.36229 7.19835
#
# Compressibility (1/GPa) = 0.01239921
#
# Stress axis : x y z
#
# Youngs Moduli (GPa) = 88.59330 81.04907 103.62016
#
# Poissons Ratio (x) = 0.27964 0.27397
# Poissons Ratio (y) = 0.30567 0.45016
# Poissons Ratio (z) = 0.23424 0.35211
#
# Static dielectric constant tensor:
#      x y z
#    x 4.413510 0.000000 0.000000 
#    y 0.000000 4.422340 0.000000 
#    z 0.000000 0.000000 4.476660 
# 
# 
# High freq. dielectric constant tensor:
#      x y z
#    x 1.914980 0.000000 0.000000 
#    y 0.000000 1.944320 0.000000 
#    z 0.000000 0.000000 1.952020 
# 
# From -- ./inp_files/3847.got.cif
#   From: 2010.03.12/outbox.cif.g09.slc.cpg/sg68_2_cif.got.tgz:3847.got - 2010.04.10 23:14:56.
