data_PCOD8283516
_publ_section_title
;
Structure prediction by ZEFSAII (Michael W. Deem and Ramdas Pophale) SiO2 
 PCOD8283516
Probable space group: C C C A
;
_chemical_formula_sum "Si O2"
_cell_formula_units_Z 100
_cell_length_a 18.462584
_cell_length_b 13.381242
_cell_length_c 18.574698
_cell_angle_alpha 90.000000
_cell_angle_beta 90.000000
_cell_angle_gamma 90.000000
_cell_volume 4588.921945
_symmetry_space_group_name_H-M "C C C A"
_symmetry_group_IT_number 68
_space_group.IT_coordinate_system_code '2'
_symmetry_cell_setting 'orthorhombic'
loop_
_space_group_symop_operation_xyz
x,y,z
-x,1/2-y,z
x,1/2-y,1/2-z
-x,y,1/2-z
-x,-y,-z
x,1/2+y,-z
-x,1/2+y,1/2+z
x,-y,1/2+z
1/2+x,1/2+y,z
1/2-x,-y,z
1/2+x,-y,1/2-z
1/2-x,1/2+y,1/2-z
1/2-x,1/2-y,-z
1/2+x,y,-z
1/2-x,y,1/2+z
1/2+x,1/2-y,1/2+z
loop_
_atom_site_type_symbol
_atom_site_label
_atom_site_fract_x
_atom_site_fract_y
_atom_site_fract_z
Si Si1 0.504045 0.419137 0.062632
Si Si2 0.558387 0.534165 0.193742
Si Si3 0.190826 0.584807 0.255512
Si Si4 0.611137 0.239007 0.862717
Si Si5 0.223166 0.743463 0.141143
Si Si6 0.000000 0.250000 0.250000
Si Si7 0.106655 0.746882 0.030737
O O1 0.508617 0.476116 0.137665
O O2 0.575651 0.351633 0.058125
O O3 0.433785 0.349090 0.063140
O O4 0.500000 0.500000 0.000000
O O5 0.500000 0.583194 0.250000
O O6 0.611246 0.460126 0.235249
O O7 0.604972 0.622211 0.158308
O O8 0.250000 0.500000 0.240906
O O9 0.184241 0.658667 0.187883
O O10 0.211352 0.646179 0.327044
O O11 0.691977 0.280834 0.855451
O O12 0.557059 0.300740 0.809202
O O13 0.592430 0.248512 0.946031
O O14 0.189555 0.740439 0.060025
#
# Coordination Sequence:
#
# PCOD8283516 Si02
#       7
#    16  16  16  16  16   4  16
#     4  11  23  43  67  99 140 183 230 288 347 423
#     4  12  24  42  68 100 132 178 234 290 348 412
#     4  11  23  44  69  97 138 183 231 291 345 418
#     4  12  25  42  72  99 139 183 236 300 358 425
#     4  11  24  45  68 102 141 186 237 287 358 432
#     4  12  24  44  64 108 132 182 244 304 372 416
#     4  11  24  45  68 100 145 187 232 289 359 430
#
# _framework density 21.791609999999999
#
# number of rings (size 3 to 8) (size 9 to 14) (size 15 to 20)
#    0.000    0.640    5.600    3.360    0.000    0.000 
#    2.880    0.000    0.000    0.000    0.000    0.000 
#    0.000    0.000    0.000    0.000    0.000    0.000 
#
# Total GULP energy -619634.793971 kJ/mol
# GULP energy per Si atom -12392.695879 kJ/mol
# Density = 2.174201 g / cm^3
# Si number density = 21.791610 Si / 1000 Ang^3
#
#
#
# Elastic Constant Matrix: (Units=GPa)
#
#
# Indices 1 2 3 4 5 6 
#
# 1 138.6113 25.7912 64.9960 0.0000 0.0000 0.0000
# 2 25.7912 110.7567 30.9937 0.0000 0.0000 0.0000
# 3 64.9960 30.9937 141.4266 0.0000 0.0000 0.0000
# 4 0.0000 0.0000 0.0000 33.7246 0.0000 0.0000
# 5 0.0000 0.0000 0.0000 0.0000 43.4223 0.0000
# 6 0.0000 0.0000 0.0000 0.0000 0.0000 25.4733
#
#
#
# Elastic Compliance Matrix: (Units=1/GPa)
#
#
# Indices 1 2 3 4 5 6 
#
# 1 0.009306 -0.001034 -0.004050 0.000000 0.000000 0.000000
# 2 -0.001034 0.009733 -0.001658 0.000000 0.000000 0.000000
# 3 -0.004050 -0.001658 0.009296 0.000000 0.000000 0.000000
# 4 0.000000 0.000000 0.000000 0.029652 0.000000 0.000000
# 5 0.000000 0.000000 0.000000 0.000000 0.023030 0.000000
# 6 0.000000 0.000000 0.000000 0.000000 0.000000 0.039257
#
#
# Mechanical properties :
#
#
# Convention : Reuss Voigt Hill
#
# Bulk Modulus (GPa) = 67.33503 70.48403 68.90953
# Shear Modulus (GPa) = 36.04704 38.45828 37.25266
#
# Velocity S-wave (km/s) = 4.07156 4.20553 4.13909
# Velocity P-wave (km/s) = 7.28492 7.48310 7.38468
#
# Compressibility (1/GPa) = 0.01485111
#
# Stress axis : x y z
#
# Youngs Moduli (GPa) = 107.45824 102.73821 107.57812
#
# Poissons Ratio (x) = 0.10619 0.43572
# Poissons Ratio (y) = 0.11107 0.17837
# Poissons Ratio (z) = 0.43523 0.17035
#
# Static dielectric constant tensor:
#      x y z
#    x 3.996100 0.000000 0.000000 
#    y 0.000000 2.394220 0.000000 
#    z 0.000000 0.000000 4.051630 
# 
# 
# High freq. dielectric constant tensor:
#      x y z
#    x 1.862050 0.000000 0.000000 
#    y 0.000000 1.867250 0.000000 
#    z 0.000000 0.000000 1.864150 
# 
# From -- ./inp_files/32998.got.cif
#   From: 2010.03.12/outbox.cif.g09.slc.cpg/sg68_17_cif.got.tgz:32998.got - 2010.04.10 23:14:56.
