data_PCOD8283373
_publ_section_title
;
Structure prediction by ZEFSAII (Michael W. Deem and Ramdas Pophale) SiO2 
 PCOD8283373
Probable space group: C C C A
;
_chemical_formula_sum "Si O2"
_cell_formula_units_Z 56
_cell_length_a 11.301349
_cell_length_b 18.963442
_cell_length_c 13.165965
_cell_angle_alpha 90.000000
_cell_angle_beta 90.000000
_cell_angle_gamma 90.000000
_cell_volume 2821.630562
_symmetry_space_group_name_H-M "C C C A"
_symmetry_group_IT_number 68
_space_group.IT_coordinate_system_code '2'
_symmetry_cell_setting 'orthorhombic'
loop_
_space_group_symop_operation_xyz
x,y,z
-x,1/2-y,z
x,1/2-y,1/2-z
-x,y,1/2-z
-x,-y,-z
x,1/2+y,-z
-x,1/2+y,1/2+z
x,-y,1/2+z
1/2+x,1/2+y,z
1/2-x,-y,z
1/2+x,-y,1/2-z
1/2-x,1/2+y,1/2-z
1/2-x,1/2-y,-z
1/2+x,y,-z
1/2-x,y,1/2+z
1/2+x,1/2-y,1/2+z
loop_
_atom_site_type_symbol
_atom_site_label
_atom_site_fract_x
_atom_site_fract_y
_atom_site_fract_z
Si Si1 0.650198 0.441991 0.101967
Si Si2 0.697007 0.077073 0.620305
Si Si3 0.641570 0.330129 0.258454
Si Si4 0.500000 0.029038 0.750000
O O1 0.750000 0.500000 0.099036
O O2 0.694383 0.374539 0.165051
O O3 0.536350 0.477619 0.155803
O O4 0.630109 0.413381 0.987580
O O5 0.801277 0.135149 0.639138
O O6 0.600803 0.081797 0.710164
O O7 0.750000 0.000000 0.630361
O O8 0.685294 0.250000 0.250000
O O9 0.500000 0.334428 0.250000
#
# Coordination Sequence:
#
# PCOD8283373 Si02
#       4
#    16  16  16   8
#     4  11  21  37  64  91 115 154 200 250 297 352
#     4  11  22  37  62  92 119 153 202 252 298 350
#     4  11  22  41  62  83 123 163 199 241 295 362
#     4  12  18  38  64  90 120 152 192 256 304 346
#
# _framework density 19.846681
#
# number of rings (size 3 to 8) (size 9 to 14) (size 15 to 20)
#    0.000    0.857    7.143    0.857    0.000    3.429 
#    0.000    0.714    0.000    0.000    0.000    0.000 
#    0.000    0.000    0.000    0.000    0.000    0.000 
#
# Total GULP energy -346970.055020 kJ/mol
# GULP energy per Si atom -12391.787679 kJ/mol
# Density = 1.980151 g / cm^3
# Si number density = 19.846681 Si / 1000 Ang^3
#
#
#
# Elastic Constant Matrix: (Units=GPa)
#
#
# Indices 1 2 3 4 5 6 
#
# 1 76.8753 24.0792 48.7172 0.0000 0.0000 0.0000
# 2 24.0792 120.4050 34.7345 0.0000 0.0000 0.0000
# 3 48.7172 34.7345 134.9980 0.0000 0.0000 0.0000
# 4 0.0000 0.0000 0.0000 -0.0050 0.0000 0.0000
# 5 0.0000 0.0000 0.0000 0.0000 38.4074 0.0000
# 6 0.0000 0.0000 0.0000 0.0000 0.0000 25.7999
#
#
#
# Elastic Compliance Matrix: (Units=1/GPa)
#
#
# Indices 1 2 3 4 5 6 
#
# 1 0.017212 -0.001783 -0.005753 0.000000 0.000000 0.000000
# 2 -0.001783 0.009156 -0.001712 0.000000 0.000000 0.000000
# 3 -0.005753 -0.001712 0.009924 0.000000 0.000000 0.000000
# 4 0.000000 0.000000 0.000000********** 0.000000 0.000000
# 5 0.000000 0.000000 0.000000 0.000000 0.026037 0.000000
# 6 0.000000 0.000000 0.000000 0.000000 0.000000 0.038760
#
#
# Mechanical properties :
#
#
# Convention : Reuss Voigt Hill
#
# Bulk Modulus (GPa) = 56.19110 60.81558 58.50334
# Shear Modulus (GPa) = -0.02505 27.82362 13.89928
#
# Velocity S-wave (km/s) = -0.11247 3.74829 2.64925
# Velocity P-wave (km/s) = 5.32515 7.03151 6.23696
#
# Compressibility (1/GPa) = 0.01779641
#
# Stress axis : x y z
#
# Youngs Moduli (GPa) = 58.09894 109.22026 100.76455
#
# Poissons Ratio (x) = 0.19470 0.57967
# Poissons Ratio (y) = 0.10357 0.17256
# Poissons Ratio (z) = 0.33423 0.18704
#
# Static dielectric constant tensor:
#      x y z
#    x 3.617860 0.000000 0.000000 
#    y 0.000000 3.583510 0.000000 
#    z 0.000000 0.000000 4.283900 
# 
# 
# High freq. dielectric constant tensor:
#      x y z
#    x 1.771670 0.000000 0.000000 
#    y 0.000000 1.749220 0.000000 
#    z 0.000000 0.000000 1.777270 
# 
# From -- ./inp_files/11436.got.cif
#   From: 2010.03.12/outbox.cif.g09.slc.cpg/sg68_6_cif.got.tgz:11436.got - 2010.04.10 23:14:56.
