data_PCOD8283943
_publ_section_title
;
Structure prediction by ZEFSAII (Michael W. Deem and Ramdas Pophale) SiO2 
 PCOD8283943
Probable space group: F M M M
;
_chemical_formula_sum "Si O2"
_cell_formula_units_Z 192
_cell_length_a 24.689634
_cell_length_b 17.058882
_cell_length_c 22.858572
_cell_angle_alpha 90.000000
_cell_angle_beta 90.000000
_cell_angle_gamma 90.000000
_cell_volume 9627.517421
_symmetry_space_group_name_H-M "F M M M"
_symmetry_group_IT_number 69
_symmetry_cell_setting 'orthorhombic'
loop_
_space_group_symop_operation_xyz
x,y,z
-x,-y,z
x,-y,-z
-x,y,-z
-x,-y,-z
x,y,-z
-x,y,z
x,-y,z
x,1/2+y,1/2+z
-x,1/2-y,1/2+z
x,1/2-y,1/2-z
-x,1/2+y,1/2-z
-x,1/2-y,1/2-z
x,1/2+y,1/2-z
-x,1/2+y,1/2+z
x,1/2-y,1/2+z
1/2+x,y,1/2+z
1/2-x,-y,1/2+z
1/2+x,-y,1/2-z
1/2-x,y,1/2-z
1/2-x,-y,1/2-z
1/2+x,y,1/2-z
1/2-x,y,1/2+z
1/2+x,-y,1/2+z
1/2+x,1/2+y,z
1/2-x,1/2-y,z
1/2+x,1/2-y,-z
1/2-x,1/2+y,-z
1/2-x,1/2-y,-z
1/2+x,1/2+y,-z
1/2-x,1/2+y,z
1/2+x,1/2-y,z
loop_
_atom_site_type_symbol
_atom_site_label
_atom_site_fract_x
_atom_site_fract_y
_atom_site_fract_z
Si Si1 0.000000 0.093925 0.714467
Si Si2 0.687509 0.406499 0.434383
Si Si3 0.311453 0.339881 0.237573
Si Si4 0.112734 0.908371 0.667668
Si Si5 0.698229 0.409273 0.115856
Si Si6 0.586682 0.591062 0.063135
Si Si7 0.000000 0.593432 0.347017
O O1 0.052861 0.126576 0.680000
O O2 0.000000 0.127633 0.780989
O O3 0.000000 0.000000 0.716210
O O4 0.677448 0.373997 0.500000
O O5 0.687919 0.500000 0.435140
O O6 0.640324 0.373237 0.391417
O O7 0.745644 0.376731 0.410776
O O8 0.324828 0.250000 0.250000
O O9 0.250000 0.362808 0.250000
O O10 0.349490 0.393929 0.276718
O O11 0.321686 0.357853 0.170180
O O12 0.106995 0.000000 0.658609
O O13 0.704259 0.500000 0.134751
O O14 0.651056 0.397128 0.068790
O O15 0.572239 0.500000 0.061899
O O16 0.552433 0.626237 0.117441
O O17 0.569862 0.627906 0.000000
O O18 0.000000 0.500000 0.341771
#
# Coordination Sequence:
#
# PCOD8283943 Si02
#       7
#    16  32  32  32  32  32  16
#     4   9  18  31  50  78 105 131 170 219 256 294
#     4   9  17  29  48  75 103 130 165 212 259 303
#     4  11  22  34  50  75 107 137 167 214 260 301
#     4  10  19  34  55  77 103 134 171 210 255 309
#     4  10  18  30  50  74 101 135 172 208 254 308
#     4   9  16  25  41  68 100 133 168 204 241 291
#     4   9  15  24  37  60 100 138 163 197 249 295
#
# _framework density 19.942834999999999
#
# number of rings (size 3 to 8) (size 9 to 14) (size 15 to 20)
#    0.000    2.333    1.667    2.250    0.000    6.333 
#    0.000    0.833    0.000    5.500    0.000    0.000 
#    0.000    0.000    0.000    0.000    0.000    0.000 
#
# Total GULP energy -594941.358551 kJ/mol
# GULP energy per Si atom -12394.611636 kJ/mol
# Density = 1.989744 g / cm^3
# Si number density = 19.942835 Si / 1000 Ang^3
#
#
#
# Elastic Constant Matrix: (Units=GPa)
#
#
# Indices 1 2 3 4 5 6 
#
# 1 151.9593 9.1863 80.5288 0.0000 0.0000 0.0000
# 2 9.1863 12.5034 13.5797 0.0000 0.0000 0.0000
# 3 80.5288 13.5797 177.1158 0.0000 0.0000 0.0000
# 4 0.0000 0.0000 0.0000 6.8015 0.0000 0.0000
# 5 0.0000 0.0000 0.0000 0.0000 11.8757 0.0000
# 6 0.0000 0.0000 0.0000 0.0000 0.0000 7.4397
#
#
#
# Elastic Compliance Matrix: (Units=1/GPa)
#
#
# Indices 1 2 3 4 5 6 
#
# 1 0.008730 -0.002294 -0.003793 0.000000 0.000000 0.000000
# 2 -0.002294 0.087846 -0.005692 0.000000 0.000000 0.000000
# 3 -0.003793 -0.005692 0.007807 0.000000 0.000000 0.000000
# 4 0.000000 0.000000 0.000000 0.147026 0.000000 0.000000
# 5 0.000000 0.000000 0.000000 0.000000 0.084205 0.000000
# 6 0.000000 0.000000 0.000000 0.000000 0.000000 0.134415
#
#
# Mechanical properties :
#
#
# Convention : Reuss Voigt Hill
#
# Bulk Modulus (GPa) = 12.37261 60.90756 36.64008
# Shear Modulus (GPa) = 9.60562 21.10897 15.35729
#
# Velocity S-wave (km/s) = 2.19705 3.25695 2.77802
# Velocity P-wave (km/s) = 3.55718 6.68962 5.35745
#
# Compressibility (1/GPa) = 0.08082370
#
# Stress axis : x y z
#
# Youngs Moduli (GPa) = 114.55401 11.38358 128.08901
#
# Poissons Ratio (x) = 0.02611 0.48586
# Poissons Ratio (y) = 0.26278 0.72911
# Poissons Ratio (z) = 0.43452 0.06480
#
# Static dielectric constant tensor:
#      x y z
#    x 3.868570 0.000000 0.000000 
#    y 0.000000 2.913540 0.000000 
#    z 0.000000 0.000000 3.924020 
# 
# 
# High freq. dielectric constant tensor:
#      x y z
#    x 1.787060 0.000000 0.000000 
#    y 0.000000 1.703090 0.000000 
#    z 0.000000 0.000000 1.788620 
# 
# From -- ./inp_files/38377.got.cif
#   From: 2010.03.12/outbox.cif.g09.slc.cpg/sg69_20_cif.got.tgz:38377.got - 2010.04.10 23:52:46.
