data_PCOD8283467
_publ_section_title
;
Structure prediction by ZEFSAII (Michael W. Deem and Ramdas Pophale) SiO2 
 PCOD8283467
Probable space group: C C C A
;
_chemical_formula_sum "Si O2"
_cell_formula_units_Z 68
_cell_length_a 17.826078
_cell_length_b 9.746836
_cell_length_c 17.194184
_cell_angle_alpha 90.000000
_cell_angle_beta 90.000000
_cell_angle_gamma 90.000000
_cell_volume 2987.452654
_symmetry_space_group_name_H-M "C C C A"
_symmetry_group_IT_number 68
_space_group.IT_coordinate_system_code '2'
_symmetry_cell_setting 'orthorhombic'
loop_
_space_group_symop_operation_xyz
x,y,z
-x,1/2-y,z
x,1/2-y,1/2-z
-x,y,1/2-z
-x,-y,-z
x,1/2+y,-z
-x,1/2+y,1/2+z
x,-y,1/2+z
1/2+x,1/2+y,z
1/2-x,-y,z
1/2+x,-y,1/2-z
1/2-x,1/2+y,1/2-z
1/2-x,1/2-y,-z
1/2+x,y,-z
1/2-x,y,1/2+z
1/2+x,1/2-y,1/2+z
loop_
_atom_site_type_symbol
_atom_site_label
_atom_site_fract_x
_atom_site_fract_y
_atom_site_fract_z
Si Si1 0.334230 0.504222 0.157782
Si Si2 0.088108 0.233069 0.617776
Si Si3 0.500000 0.250000 0.750000
Si Si4 0.381020 0.063974 0.678022
Si Si5 0.589878 0.731580 0.439882
O O1 0.250000 0.500000 0.124681
O O2 0.369305 0.353164 0.163721
O O3 0.330481 0.574730 0.244053
O O4 0.388810 0.588329 0.100857
O O5 0.115654 0.229496 0.529023
O O6 0.000000 0.250000 0.625623
O O7 0.109525 0.093527 0.659615
O O8 0.456884 0.147552 0.693844
O O9 0.357452 0.148793 0.600474
O O10 0.500000 0.750000 0.437272
#
# Coordination Sequence:
#
# PCOD8283467 Si02
#       5
#    16  16   4  16  16
#     4  12  27  45  67 103 144 183 230 284 346 411
#     4  11  25  42  71 106 137 174 234 295 341 406
#     4  12  20  40  70 104 124 188 230 288 344 420
#     4  12  22  40  68  95 138 176 229 275 344 407
#     4  11  22  44  72 102 136 183 231 284 350 417
#
# _framework density 22.761866999999999
#
# number of rings (size 3 to 8) (size 9 to 14) (size 15 to 20)
#    0.000    0.471    3.529    4.941    0.000    9.412 
#    0.000    2.353    0.000    0.000    0.000    0.000 
#    0.000    0.000    0.000    0.000    0.000    0.000 
#
# Total GULP energy -421346.459590 kJ/mol
# GULP energy per Si atom -12392.542929 kJ/mol
# Density = 2.271006 g / cm^3
# Si number density = 22.761867 Si / 1000 Ang^3
#
#
#
# Elastic Constant Matrix: (Units=GPa)
#
#
# Indices 1 2 3 4 5 6 
#
# 1 91.2891 36.9743 21.2262 0.0000 0.0000 0.0000
# 2 36.9743 150.8815 16.1574 0.0000 0.0000 0.0000
# 3 21.2262 16.1574 113.3732 0.0000 0.0000 0.0000
# 4 0.0000 0.0000 0.0000 59.6637 0.0000 0.0000
# 5 0.0000 0.0000 0.0000 0.0000 1.7023 0.0000
# 6 0.0000 0.0000 0.0000 0.0000 0.0000 24.2743
#
#
#
# Elastic Compliance Matrix: (Units=1/GPa)
#
#
# Indices 1 2 3 4 5 6 
#
# 1 0.012569 -0.002872 -0.001944 0.000000 0.000000 0.000000
# 2 -0.002872 0.007387 -0.000515 0.000000 0.000000 0.000000
# 3 -0.001944 -0.000515 0.009258 0.000000 0.000000 0.000000
# 4 0.000000 0.000000 0.000000 0.016761 0.000000 0.000000
# 5 0.000000 0.000000 0.000000 0.000000 0.587457 0.000000
# 6 0.000000 0.000000 0.000000 0.000000 0.000000 0.041196
#
#
# Mechanical properties :
#
#
# Convention : Reuss Voigt Hill
#
# Bulk Modulus (GPa) = 53.90297 56.02886 54.96592
# Shear Modulus (GPa) = 7.23094 35.87378 21.55236
#
# Velocity S-wave (km/s) = 1.78429 3.97425 3.08045
# Velocity P-wave (km/s) = 5.28938 6.76227 6.07066
#
# Compressibility (1/GPa) = 0.01855185
#
# Stress axis : x y z
#
# Youngs Moduli (GPa) = 79.55785 135.37885 108.01723
#
# Poissons Ratio (x) = 0.38881 0.20999
# Poissons Ratio (y) = 0.22849 0.05563
# Poissons Ratio (z) = 0.15466 0.06972
#
# Static dielectric constant tensor:
#      x y z
#    x 3.696200 0.000000 0.000000 
#    y 0.000000 4.739280 0.000000 
#    z 0.000000 0.000000 5.288780 
# 
# 
# High freq. dielectric constant tensor:
#      x y z
#    x 1.857590 0.000000 0.000000 
#    y 0.000000 1.914600 0.000000 
#    z 0.000000 0.000000 1.925150 
# 
# From -- ./inp_files/28002.got.cif
#   From: 2010.03.12/outbox.cif.g09.slc.cpg/sg68_15_cif.got.tgz:28002.got - 2010.04.10 23:14:56.
