data_PCOD8283309
_publ_section_title
;
Structure prediction by ZEFSAII (Michael W. Deem and Ramdas Pophale) SiO2 
 PCOD8283309
Probable space group: C C C A
;
_chemical_formula_sum "Si O2"
_cell_formula_units_Z 112
_cell_length_a 12.915820
_cell_length_b 14.108956
_cell_length_c 27.911959
_cell_angle_alpha 90.000000
_cell_angle_beta 90.000000
_cell_angle_gamma 90.000000
_cell_volume 5086.361010
_symmetry_space_group_name_H-M "C C C A"
_symmetry_group_IT_number 68
_space_group.IT_coordinate_system_code '2'
_symmetry_cell_setting 'orthorhombic'
loop_
_space_group_symop_operation_xyz
x,y,z
-x,1/2-y,z
x,1/2-y,1/2-z
-x,y,1/2-z
-x,-y,-z
x,1/2+y,-z
-x,1/2+y,1/2+z
x,-y,1/2+z
1/2+x,1/2+y,z
1/2-x,-y,z
1/2+x,-y,1/2-z
1/2-x,1/2+y,1/2-z
1/2-x,1/2-y,-z
1/2+x,y,-z
1/2-x,y,1/2+z
1/2+x,1/2-y,1/2+z
loop_
_atom_site_type_symbol
_atom_site_label
_atom_site_fract_x
_atom_site_fract_y
_atom_site_fract_z
Si Si1 0.092340 0.043418 0.861176
Si Si2 0.450344 0.150308 0.200620
Si Si3 0.527073 0.858068 0.459840
Si Si4 0.093811 0.314137 0.354691
Si Si5 0.869146 0.520702 0.465425
Si Si6 0.701127 0.860703 0.169199
Si Si7 0.724181 0.108070 0.775256
O O1 0.085965 0.066806 0.917203
O O2 0.182959 0.103637 0.837009
O O3 0.981996 0.072742 0.839132
O O4 0.114126 0.932421 0.851689
O O5 0.500000 0.250000 0.185586
O O6 0.500000 0.114210 0.250000
O O7 0.326704 0.160326 0.204544
O O8 0.500000 0.750000 0.473261
O O9 0.565100 0.865549 0.404621
O O10 0.618417 0.902730 0.492082
O O11 0.426735 0.920550 0.473077
O O12 0.186795 0.237000 0.360310
O O13 0.132529 0.389360 0.314978
O O14 0.000000 0.250000 0.334425
O O15 0.750000 0.500000 0.457841
O O16 0.685130 0.842987 0.226137
O O17 0.750000 0.000000 0.762978
#
# Coordination Sequence:
#
# PCOD8283309 Si02
#       7
#    16  16  16  16  16  16  16
#     4  11  21  40  66  95 129 184 226 272 338 414
#     4  11  23  39  62  90 137 180 224 281 335 391
#     4  10  25  49  69 105 136 175 230 292 362 420
#     4  11  26  44  69  95 139 180 226 287 344 409
#     4  11  24  45  76  99 137 178 229 294 355 428
#     4  11  21  41  64  98 135 179 235 268 334 417
#     4  12  25  41  65 101 138 181 231 279 334 404
#
# _framework density 22.019673000000001
#
# number of rings (size 3 to 8) (size 9 to 14) (size 15 to 20)
#    0.000    1.000    4.286    3.000    6.000    2.857 
#    2.571    0.000    0.000    0.000    0.000    0.000 
#    0.000    0.000    0.000    0.000    0.000    0.000 
#
# Total GULP energy -694418.346042 kJ/mol
# GULP energy per Si atom -12400.327608 kJ/mol
# Density = 2.196956 g / cm^3
# Si number density = 22.019673 Si / 1000 Ang^3
#
#
#
# Elastic Constant Matrix: (Units=GPa)
#
#
# Indices 1 2 3 4 5 6 
#
# 1 68.6934 11.7212 41.6179 0.0000 0.0000 0.0000
# 2 11.7212 65.7997 27.8504 0.0000 0.0000 0.0000
# 3 41.6179 27.8504 122.2350 0.0000 0.0000 0.0000
# 4 0.0000 0.0000 0.0000 34.9279 0.0000 0.0000
# 5 0.0000 0.0000 0.0000 0.0000 31.7801 0.0000
# 6 0.0000 0.0000 0.0000 0.0000 0.0000 23.3270
#
#
#
# Elastic Compliance Matrix: (Units=1/GPa)
#
#
# Indices 1 2 3 4 5 6 
#
# 1 0.018369 -0.000692 -0.006097 0.000000 0.000000 0.000000
# 2 -0.000692 0.016846 -0.003603 0.000000 0.000000 0.000000
# 3 -0.006097 -0.003603 0.011078 0.000000 0.000000 0.000000
# 4 0.000000 0.000000 0.000000 0.028630 0.000000 0.000000
# 5 0.000000 0.000000 0.000000 0.000000 0.031466 0.000000
# 6 0.000000 0.000000 0.000000 0.000000 0.000000 0.042869
#
#
# Mechanical properties :
#
#
# Convention : Reuss Voigt Hill
#
# Bulk Modulus (GPa) = 39.19974 46.56748 42.88361
# Shear Modulus (GPa) = 28.00441 29.70957 28.85699
#
# Velocity S-wave (km/s) = 3.57009 3.67717 3.62402
# Velocity P-wave (km/s) = 5.90210 6.26281 6.08513
#
# Compressibility (1/GPa) = 0.02551038
#
# Stress axis : x y z
#
# Youngs Moduli (GPa) = 54.43929 59.36221 90.27267
#
# Poissons Ratio (x) = 0.04106 0.55036
# Poissons Ratio (y) = 0.03766 0.32522
# Poissons Ratio (z) = 0.33190 0.21386
#
# Static dielectric constant tensor:
#      x y z
#    x 3.999820 0.000000 0.000000 
#    y 0.000000 4.036010 0.000000 
#    z 0.000000 0.000000 3.926920 
# 
# 
# High freq. dielectric constant tensor:
#      x y z
#    x 1.864670 0.000000 0.000000 
#    y 0.000000 1.872990 0.000000 
#    z 0.000000 0.000000 1.856510 
# 
# From -- ./inp_files/45546.got.cif
#   From: 2010.03.12/outbox.cif.g09.slc.cpg/sg68_23_cif.got.tgz:45546.got - 2010.04.10 23:14:56.
