data_PCOD8283999
_publ_section_title
;
Structure prediction by ZEFSAII (Michael W. Deem and Ramdas Pophale) SiO2 
 PCOD8283999
Probable space group: F M M M
;
_chemical_formula_sum "Si O2"
_cell_formula_units_Z 192
_cell_length_a 27.301748
_cell_length_b 14.670804
_cell_length_c 24.137172
_cell_angle_alpha 90.000000
_cell_angle_beta 90.000000
_cell_angle_gamma 90.000000
_cell_volume 9667.868930
_symmetry_space_group_name_H-M "F M M M"
_symmetry_group_IT_number 69
_symmetry_cell_setting 'orthorhombic'
loop_
_space_group_symop_operation_xyz
x,y,z
-x,-y,z
x,-y,-z
-x,y,-z
-x,-y,-z
x,y,-z
-x,y,z
x,-y,z
x,1/2+y,1/2+z
-x,1/2-y,1/2+z
x,1/2-y,1/2-z
-x,1/2+y,1/2-z
-x,1/2-y,1/2-z
x,1/2+y,1/2-z
-x,1/2+y,1/2+z
x,1/2-y,1/2+z
1/2+x,y,1/2+z
1/2-x,-y,1/2+z
1/2+x,-y,1/2-z
1/2-x,y,1/2-z
1/2-x,-y,1/2-z
1/2+x,y,1/2-z
1/2-x,y,1/2+z
1/2+x,-y,1/2+z
1/2+x,1/2+y,z
1/2-x,1/2-y,z
1/2+x,1/2-y,-z
1/2-x,1/2+y,-z
1/2-x,1/2-y,-z
1/2+x,1/2+y,-z
1/2-x,1/2+y,z
1/2+x,1/2-y,z
loop_
_atom_site_type_symbol
_atom_site_label
_atom_site_fract_x
_atom_site_fract_y
_atom_site_fract_z
Si Si1 0.944765 0.162645 0.936028
Si Si2 0.187995 0.500000 0.167651
Si Si3 0.374435 0.500000 0.561064
Si Si4 0.055176 0.856101 0.604563
Si Si5 0.053532 0.104479 0.268017
Si Si6 0.196241 0.500000 0.663741
Si Si7 0.842926 0.352972 0.745625
Si Si8 0.626599 0.000000 0.564561
O O1 0.932001 0.249390 0.898362
O O2 0.000000 0.127052 0.924278
O O3 0.906116 0.086321 0.919479
O O4 0.939444 0.190549 0.000000
O O5 0.168964 0.500000 0.105302
O O6 0.245880 0.500000 0.163870
O O7 0.169198 0.409126 0.198631
O O8 0.350450 0.500000 0.500000
O O9 0.407884 0.589275 0.566035
O O10 0.061042 0.891075 0.666552
O O11 0.000000 0.872643 0.582806
O O12 0.098042 0.155631 0.237442
O O13 0.000000 0.145655 0.251064
O O14 0.056085 0.000000 0.249416
O O15 0.179461 0.592716 0.693993
O O16 0.175623 0.500000 0.601321
O O17 0.821389 0.250000 0.750000
O O18 0.641767 0.000000 0.500000
#
# Coordination Sequence:
#
# PCOD8283999 Si02
#       8
#    32  16  16  32  32  16  32  16
#     4   9  18  33  54  80 114 156 197 235 274 328
#     4  11  24  46  59  85 122 143 193 268 300 346
#     4  12  22  34  59  90 120 160 193 229 294 358
#     4  10  18  31  53  84 124 163 193 227 274 340
#     4  10  18  34  58  86 129 166 184 225 290 343
#     4  11  26  42  64  88 109 146 205 250 307 362
#     4  11  22  41  68  90 114 153 198 243 295 346
#     4  10  22  40  60  83 115 151 192 245 297 346
#
# _framework density 19.859597999999998
#
# number of rings (size 3 to 8) (size 9 to 14) (size 15 to 20)
#    0.000    1.667    4.167    2.000    2.333    4.333 
#    0.000    1.667    0.000    0.000    0.000    5.833 
#    0.000    0.000    0.000    0.000    0.000    0.000 
#
# Total GULP energy -595157.484179 kJ/mol
# GULP energy per Si atom -12399.114254 kJ/mol
# Density = 1.981440 g / cm^3
# Si number density = 19.859598 Si / 1000 Ang^3
#
#
#
# Elastic Constant Matrix: (Units=GPa)
#
#
# Indices 1 2 3 4 5 6 
#
# 1 140.0146 44.3006 45.1768 0.0000 0.0000 0.0000
# 2 44.3006 122.1974 32.9269 0.0000 0.0000 0.0000
# 3 45.1768 32.9269 78.6416 0.0000 0.0000 0.0000
# 4 0.0000 0.0000 0.0000 12.3868 0.0000 0.0000
# 5 0.0000 0.0000 0.0000 0.0000 23.0563 0.0000
# 6 0.0000 0.0000 0.0000 0.0000 0.0000 6.9139
#
#
#
# Elastic Compliance Matrix: (Units=1/GPa)
#
#
# Indices 1 2 3 4 5 6 
#
# 1 0.009249 -0.002166 -0.004407 0.000000 0.000000 0.000000
# 2 -0.002166 0.009731 -0.002830 0.000000 0.000000 0.000000
# 3 -0.004407 -0.002830 0.016432 0.000000 0.000000 0.000000
# 4 0.000000 0.000000 0.000000 0.080731 0.000000 0.000000
# 5 0.000000 0.000000 0.000000 0.000000 0.043372 0.000000
# 6 0.000000 0.000000 0.000000 0.000000 0.000000 0.144635
#
#
# Mechanical properties :
#
#
# Convention : Reuss Voigt Hill
#
# Bulk Modulus (GPa) = 60.21325 65.07355 62.64340
# Shear Modulus (GPa) = 15.22105 23.03469 19.12787
#
# Velocity S-wave (km/s) = 2.77146 3.40939 3.10684
# Velocity P-wave (km/s) = 6.37390 6.95245 6.66945
#
# Compressibility (1/GPa) = 0.01660764
#
# Stress axis : x y z
#
# Youngs Moduli (GPa) = 108.11804 102.76136 60.85561
#
# Poissons Ratio (x) = 0.22256 0.26816
# Poissons Ratio (y) = 0.23416 0.17224
# Poissons Ratio (z) = 0.47642 0.29085
#
# Static dielectric constant tensor:
#      x y z
#    x 3.631290 0.000000 0.000000 
#    y 0.000000 3.622400 0.000000 
#    z 0.000000 0.000000 3.388990 
# 
# 
# High freq. dielectric constant tensor:
#      x y z
#    x 1.763750 0.000000 0.000000 
#    y 0.000000 1.779150 0.000000 
#    z 0.000000 0.000000 1.758050 
# 
# From -- ./inp_files/38423.got.cif
#   From: 2010.03.12/outbox.cif.g09.slc.cpg/sg69_20_cif.got.tgz:38423.got - 2010.04.10 23:52:46.
