data_PCOD8283301
_publ_section_title
;
Structure prediction by ZEFSAII (Michael W. Deem and Ramdas Pophale) SiO2 
 PCOD8283301
Probable space group: C C C A
;
_chemical_formula_sum "Si O2"
_cell_formula_units_Z 88
_cell_length_a 13.297393
_cell_length_b 24.866005
_cell_length_c 11.917622
_cell_angle_alpha 90.000000
_cell_angle_beta 90.000000
_cell_angle_gamma 90.000000
_cell_volume 3940.597954
_symmetry_space_group_name_H-M "C C C A"
_symmetry_group_IT_number 68
_space_group.IT_coordinate_system_code '2'
_symmetry_cell_setting 'orthorhombic'
loop_
_space_group_symop_operation_xyz
x,y,z
-x,1/2-y,z
x,1/2-y,1/2-z
-x,y,1/2-z
-x,-y,-z
x,1/2+y,-z
-x,1/2+y,1/2+z
x,-y,1/2+z
1/2+x,1/2+y,z
1/2-x,-y,z
1/2+x,-y,1/2-z
1/2-x,1/2+y,1/2-z
1/2-x,1/2-y,-z
1/2+x,y,-z
1/2-x,y,1/2+z
1/2+x,1/2-y,1/2+z
loop_
_atom_site_type_symbol
_atom_site_label
_atom_site_fract_x
_atom_site_fract_y
_atom_site_fract_z
Si Si1 0.372525 0.250000 0.250000
Si Si2 0.945586 0.800897 0.033405
Si Si3 0.184750 0.577602 0.747724
Si Si4 0.900637 0.894226 0.511322
Si Si5 0.106033 0.532958 0.306100
Si Si6 0.737002 0.172371 0.895697
O O1 0.438432 0.289669 0.168707
O O2 0.304150 0.213552 0.172282
O O3 0.000000 0.750000 0.976948
O O4 0.000248 0.857235 0.004944
O O5 0.837672 0.796943 0.977080
O O6 0.119792 0.583362 0.635015
O O7 0.130065 0.530234 0.816806
O O8 0.304182 0.562906 0.735614
O O9 0.174754 0.633596 0.812899
O O10 0.904603 0.946185 0.432421
O O11 0.804183 0.860316 0.480823
O O12 0.000000 0.545466 0.250000
#
# Coordination Sequence:
#
# PCOD8283301 Si02
#       6
#     8  16  16  16  16  16
#     4  12  25  48  71 102 148 192 249 298 347 444
#     4  12  27  44  73 106 141 191 242 294 362 434
#     4  10  25  48  67 106 150 181 243 304 359 427
#     4  11  26  45  73 107 141 191 241 299 364 434
#     4  10  25  45  76 100 139 195 242 294 358 433
#     4  11  26  44  72 102 148 188 237 300 366 423
#
# _framework density 22.331634999999999
#
# number of rings (size 3 to 8) (size 9 to 14) (size 15 to 20)
#    0.000    1.091    1.818    1.909   12.727    6.545 
#    0.000    0.000    0.000    0.000    0.000    0.000 
#    0.000    0.000    0.000    0.000    0.000    0.000 
#
# Total GULP energy -545492.369214 kJ/mol
# GULP energy per Si atom -12397.553846 kJ/mol
# Density = 2.228081 g / cm^3
# Si number density = 22.331635 Si / 1000 Ang^3
#
#
#
# Elastic Constant Matrix: (Units=GPa)
#
#
# Indices 1 2 3 4 5 6 
#
# 1 103.3254 25.4818 33.8031 0.0000 0.0000 0.0000
# 2 25.4818 106.9641 37.2517 0.0000 0.0000 0.0000
# 3 33.8031 37.2517 77.1009 0.0000 0.0000 0.0000
# 4 0.0000 0.0000 0.0000 23.3537 0.0000 0.0000
# 5 0.0000 0.0000 0.0000 0.0000 50.5976 0.0000
# 6 0.0000 0.0000 0.0000 0.0000 0.0000 34.4634
#
#
#
# Elastic Compliance Matrix: (Units=1/GPa)
#
#
# Indices 1 2 3 4 5 6 
#
# 1 0.011420 -0.001174 -0.004439 0.000000 0.000000 0.000000
# 2 -0.001174 0.011361 -0.004974 0.000000 0.000000 0.000000
# 3 -0.004439 -0.004974 0.017320 0.000000 0.000000 0.000000
# 4 0.000000 0.000000 0.000000 0.042820 0.000000 0.000000
# 5 0.000000 0.000000 0.000000 0.000000 0.019764 0.000000
# 6 0.000000 0.000000 0.000000 0.000000 0.000000 0.029016
#
#
# Mechanical properties :
#
#
# Convention : Reuss Voigt Hill
#
# Bulk Modulus (GPa) = 52.84123 53.38484 53.11304
# Shear Modulus (GPa) = 31.40993 34.40653 32.90823
#
# Velocity S-wave (km/s) = 3.75443 3.92944 3.84293
# Velocity P-wave (km/s) = 6.51980 6.67418 6.59744
#
# Compressibility (1/GPa) = 0.01892462
#
# Stress axis : x y z
#
# Youngs Moduli (GPa) = 87.56423 88.01989 57.73768
#
# Poissons Ratio (x) = 0.10338 0.25632
# Poissons Ratio (y) = 0.10284 0.28720
# Poissons Ratio (z) = 0.38874 0.43783
#
# Static dielectric constant tensor:
#      x y z
#    x 4.224920 0.000000 0.000000 
#    y 0.000000 4.030780 0.000000 
#    z 0.000000 0.000000 3.915500 
# 
# 
# High freq. dielectric constant tensor:
#      x y z
#    x 1.896840 0.000000 0.000000 
#    y 0.000000 1.891120 0.000000 
#    z 0.000000 0.000000 1.870780 
# 
# From -- ./inp_files/13340.got.cif
#   From: 2010.03.12/outbox.cif.g09.slc.cpg/sg68_7_cif.got.tgz:13340.got - 2010.04.10 23:14:56.
