data_PCOD8283918
_publ_section_title
;
Structure prediction by ZEFSAII (Michael W. Deem and Ramdas Pophale) SiO2 
 PCOD8283918
Probable space group: F M M M
;
_chemical_formula_sum "Si O2"
_cell_formula_units_Z 112
_cell_length_a 8.706650
_cell_length_b 28.958421
_cell_length_c 24.420165
_cell_angle_alpha 90.000000
_cell_angle_beta 90.000000
_cell_angle_gamma 90.000000
_cell_volume 6157.076622
_symmetry_space_group_name_H-M "F M M M"
_symmetry_group_IT_number 69
_symmetry_cell_setting 'orthorhombic'
loop_
_space_group_symop_operation_xyz
x,y,z
-x,-y,z
x,-y,-z
-x,y,-z
-x,-y,-z
x,y,-z
-x,y,z
x,-y,z
x,1/2+y,1/2+z
-x,1/2-y,1/2+z
x,1/2-y,1/2-z
-x,1/2+y,1/2-z
-x,1/2-y,1/2-z
x,1/2+y,1/2-z
-x,1/2+y,1/2+z
x,1/2-y,1/2+z
1/2+x,y,1/2+z
1/2-x,-y,1/2+z
1/2+x,-y,1/2-z
1/2-x,y,1/2-z
1/2-x,-y,1/2-z
1/2+x,y,1/2-z
1/2-x,y,1/2+z
1/2+x,-y,1/2+z
1/2+x,1/2+y,z
1/2-x,1/2-y,z
1/2+x,1/2-y,-z
1/2-x,1/2+y,-z
1/2-x,1/2-y,-z
1/2+x,1/2+y,-z
1/2-x,1/2+y,z
1/2+x,1/2-y,z
loop_
_atom_site_type_symbol
_atom_site_label
_atom_site_fract_x
_atom_site_fract_y
_atom_site_fract_z
Si Si1 0.317856 0.447789 0.500000
Si Si2 0.680732 0.906701 0.690590
Si Si3 0.320028 0.199857 0.000000
Si Si4 0.182690 0.500000 0.810250
Si Si5 0.818549 0.626331 0.087562
O O1 0.247837 0.500000 0.500000
O O2 0.500000 0.450827 0.500000
O O3 0.265945 0.419415 0.446103
O O4 0.500000 0.911181 0.697726
O O5 0.750000 0.894550 0.750000
O O6 0.752272 0.953320 0.663346
O O7 0.728510 0.868936 0.645399
O O8 0.250000 0.250000 0.000000
O O9 0.268969 0.171655 0.946182
O O10 0.500000 0.205076 0.000000
O O11 0.250000 0.500000 0.750000
O O12 0.000000 0.500000 0.811938
O O13 0.000000 0.625197 0.098503
#
# Coordination Sequence:
#
# PCOD8283918 Si02
#       5
#    16  32  16  16  32
#     4   8  15  28  48  73  99 134 173 207 253 308
#     4  11  21  33  49  73 105 141 180 220 261 308
#     4   9  19  36  59  83 108 135 171 216 265 322
#     4  10  18  30  46  65  94 137 182 220 252 292
#     4   9  18  33  52  78 106 135 175 216 259 313
#
# _framework density 18.190450999999999
#
# number of rings (size 3 to 8) (size 9 to 14) (size 15 to 20)
#    0.000    2.429    0.000    7.286    2.000    1.143 
#    0.000    2.143    0.000    1.714    0.000    6.000 
#    0.000    0.000    0.000    0.000    0.000    0.000 
#
# Total GULP energy -346987.371361 kJ/mol
# GULP energy per Si atom -12392.406120 kJ/mol
# Density = 1.814905 g / cm^3
# Si number density = 18.190451 Si / 1000 Ang^3
#
#
#
# Elastic Constant Matrix: (Units=GPa)
#
#
# Indices 1 2 3 4 5 6 
#
# 1 108.3216 35.6442 51.8962 0.0000 0.0000 0.0000
# 2 35.6442 122.1734 59.5763 0.0000 0.0000 0.0000
# 3 51.8962 59.5763 138.4977 0.0000 0.0000 0.0000
# 4 0.0000 0.0000 0.0000 16.2422 0.0000 0.0000
# 5 0.0000 0.0000 0.0000 0.0000 28.0186 0.0000
# 6 0.0000 0.0000 0.0000 0.0000 0.0000 26.4286
#
#
#
# Elastic Compliance Matrix: (Units=1/GPa)
#
#
# Indices 1 2 3 4 5 6 
#
# 1 0.011489 -0.001585 -0.003623 0.000000 0.000000 0.000000
# 2 -0.001585 0.010576 -0.003956 0.000000 0.000000 0.000000
# 3 -0.003623 -0.003956 0.010280 0.000000 0.000000 0.000000
# 4 0.000000 0.000000 0.000000 0.061568 0.000000 0.000000
# 5 0.000000 0.000000 0.000000 0.000000 0.035691 0.000000
# 6 0.000000 0.000000 0.000000 0.000000 0.000000 0.037838
#
#
# Mechanical properties :
#
#
# Convention : Reuss Voigt Hill
#
# Bulk Modulus (GPa) = 71.34077 73.69177 72.51627
# Shear Modulus (GPa) = 26.25471 28.92962 27.59217
#
# Velocity S-wave (km/s) = 3.80323 3.99228 3.89890
# Velocity P-wave (km/s) = 7.65441 7.86449 7.76016
#
# Compressibility (1/GPa) = 0.01401723
#
# Stress axis : x y z
#
# Youngs Moduli (GPa) = 87.03781 94.54955 97.28061
#
# Poissons Ratio (x) = 0.14988 0.35247
# Poissons Ratio (y) = 0.13797 0.38480
# Poissons Ratio (z) = 0.31536 0.37400
#
# Static dielectric constant tensor:
#      x y z
#    x 3.121780 0.000000 0.000000 
#    y 0.000000 3.325470 0.000000 
#    z 0.000000 0.000000 3.398500 
# 
# 
# High freq. dielectric constant tensor:
#      x y z
#    x 1.692120 0.000000 0.000000 
#    y 0.000000 1.673510 0.000000 
#    z 0.000000 0.000000 1.710940 
# 
# From -- ./inp_files/4025.got.cif
#   From: 2010.03.12/outbox.cif.g09.slc.cpg/sg69_3_cif.got.tgz:4025.got - 2010.04.10 23:52:46.
