data_PCOD8283304
_publ_section_title
;
Structure prediction by ZEFSAII (Michael W. Deem and Ramdas Pophale) SiO2 
 PCOD8283304
Probable space group: C C C A
;
_chemical_formula_sum "Si O2"
_cell_formula_units_Z 40
_cell_length_a 15.334599
_cell_length_b 11.773321
_cell_length_c 8.778804
_cell_angle_alpha 90.000000
_cell_angle_beta 90.000000
_cell_angle_gamma 90.000000
_cell_volume 1584.917869
_symmetry_space_group_name_H-M "C C C A"
_symmetry_group_IT_number 68
_space_group.IT_coordinate_system_code '2'
_symmetry_cell_setting 'orthorhombic'
loop_
_space_group_symop_operation_xyz
x,y,z
-x,1/2-y,z
x,1/2-y,1/2-z
-x,y,1/2-z
-x,-y,-z
x,1/2+y,-z
-x,1/2+y,1/2+z
x,-y,1/2+z
1/2+x,1/2+y,z
1/2-x,-y,z
1/2+x,-y,1/2-z
1/2-x,1/2+y,1/2-z
1/2-x,1/2-y,-z
1/2+x,y,-z
1/2-x,y,1/2+z
1/2+x,1/2-y,1/2+z
loop_
_atom_site_type_symbol
_atom_site_label
_atom_site_fract_x
_atom_site_fract_y
_atom_site_fract_z
Si Si1 0.219520 0.250000 0.750000
Si Si2 0.079532 0.582849 0.357212
Si Si3 0.884864 0.362946 0.318298
O O1 0.158613 0.171516 0.648146
O O2 0.282882 0.331492 0.646816
O O3 0.111289 0.458008 0.312587
O O4 0.059385 0.586631 0.539064
O O5 0.000000 0.624308 0.250000
O O6 0.931099 0.250000 0.250000
#
# Coordination Sequence:
#
# PCOD8283304 Si02
#       3
#     8  16  16
#     4  10  25  46  79 106 158 198 258 302 385 454
#     4  12  25  48  77 113 154 199 254 321 379 445
#     4  10  27  47  78 109 156 199 261 301 384 458
#
# _framework density 25.237901999999998
#
# number of rings (size 3 to 8) (size 9 to 14) (size 15 to 20)
#    1.200    0.000    0.000    4.200    5.600    4.000 
#    7.200    0.000    0.000    0.000    0.000    0.000 
#    0.000    0.000    0.000    0.000    0.000    0.000 
#
# Total GULP energy -247781.685507 kJ/mol
# GULP energy per Si atom -12389.084275 kJ/mol
# Density = 2.518046 g / cm^3
# Si number density = 25.237902 Si / 1000 Ang^3
#
#
#
# Elastic Constant Matrix: (Units=GPa)
#
#
# Indices 1 2 3 4 5 6 
#
# 1 133.0537 37.8271 27.2011 0.0000 0.0000 0.0000
# 2 37.8271 181.7979 89.5532 0.0000 0.0000 0.0000
# 3 27.2011 89.5532 153.4503 0.0000 0.0000 0.0000
# 4 0.0000 0.0000 0.0000 27.7734 0.0000 0.0000
# 5 0.0000 0.0000 0.0000 0.0000 14.2678 0.0000
# 6 0.0000 0.0000 0.0000 0.0000 0.0000 63.9372
#
#
#
# Elastic Compliance Matrix: (Units=1/GPa)
#
#
# Indices 1 2 3 4 5 6 
#
# 1 0.008031 -0.001361 -0.000629 0.000000 0.000000 0.000000
# 2 -0.001361 0.007951 -0.004399 0.000000 0.000000 0.000000
# 3 -0.000629 -0.004399 0.009195 0.000000 0.000000 0.000000
# 4 0.000000 0.000000 0.000000 0.036006 0.000000 0.000000
# 5 0.000000 0.000000 0.000000 0.000000 0.070088 0.000000
# 6 0.000000 0.000000 0.000000 0.000000 0.000000 0.015640
#
#
# Mechanical properties :
#
#
# Convention : Reuss Voigt Hill
#
# Bulk Modulus (GPa) = 80.65073 86.38496 83.51784
# Shear Modulus (GPa) = 30.52084 42.11038 36.31561
#
# Velocity S-wave (km/s) = 3.48131 4.08920 3.79744
# Velocity P-wave (km/s) = 6.94154 7.52317 7.23820
#
# Compressibility (1/GPa) = 0.01239914
#
# Stress axis : x y z
#
# Youngs Moduli (GPa) = 124.51154 125.77678 108.75028
#
# Poissons Ratio (x) = 0.17119 0.06844
# Poissons Ratio (y) = 0.16947 0.47836
# Poissons Ratio (z) = 0.07836 0.55325
#
# Static dielectric constant tensor:
#      x y z
#    x 4.566360 0.000000 0.000000 
#    y 0.000000 4.497470 0.000000 
#    z 0.000000 0.000000 4.148890 
# 
# 
# High freq. dielectric constant tensor:
#      x y z
#    x 2.020210 0.000000 0.000000 
#    y 0.000000 2.019570 0.000000 
#    z 0.000000 0.000000 1.988450 
# 
# From -- ./inp_files/4306.got.cif
#   From: 2010.03.12/outbox.cif.g09.slc.cpg/sg68_3_cif.got.tgz:4306.got - 2010.04.10 23:14:56.
