data_PCOD8283208
_publ_section_title
;
Structure prediction by ZEFSAII (Michael W. Deem and Ramdas Pophale) SiO2 
 PCOD8283208
Probable space group: C C C A
;
_chemical_formula_sum "Si O2"
_cell_formula_units_Z 52
_cell_length_a 9.716125
_cell_length_b 18.559792
_cell_length_c 11.947987
_cell_angle_alpha 90.000000
_cell_angle_beta 90.000000
_cell_angle_gamma 90.000000
_cell_volume 2154.571643
_symmetry_space_group_name_H-M "C C C A"
_symmetry_group_IT_number 68
_space_group.IT_coordinate_system_code '2'
_symmetry_cell_setting 'orthorhombic'
loop_
_space_group_symop_operation_xyz
x,y,z
-x,1/2-y,z
x,1/2-y,1/2-z
-x,y,1/2-z
-x,-y,-z
x,1/2+y,-z
-x,1/2+y,1/2+z
x,-y,1/2+z
1/2+x,1/2+y,z
1/2-x,-y,z
1/2+x,-y,1/2-z
1/2-x,1/2+y,1/2-z
1/2-x,1/2-y,-z
1/2+x,y,-z
1/2-x,y,1/2+z
1/2+x,1/2-y,1/2+z
loop_
_atom_site_type_symbol
_atom_site_label
_atom_site_fract_x
_atom_site_fract_y
_atom_site_fract_z
Si Si1 0.102584 0.486400 0.660018
Si Si2 0.500000 0.250000 0.250000
Si Si3 0.340277 0.339477 0.068576
Si Si4 0.533359 0.354001 0.878127
O O1 0.250000 0.500000 0.720017
O O2 0.128985 0.425191 0.568267
O O3 0.038590 0.559339 0.609063
O O4 0.000000 0.452747 0.750000
O O5 0.405017 0.300106 0.174260
O O6 0.177443 0.322922 0.072759
O O7 0.411320 0.317086 0.950914
O O8 0.500000 0.332226 0.750000
#
# Coordination Sequence:
#
# PCOD8283208 Si02
#       4
#    16   4  16  16
#     4   9  18  36  66 101 135 171 222 287 343 404
#     4  12  28  44  72  96 136 200 230 264 336 412
#     4  11  24  44  67  99 141 181 230 278 338 408
#     4  10  24  43  71 105 133 175 229 291 348 395
#
# _framework density 24.134727999999999
#
# number of rings (size 3 to 8) (size 9 to 14) (size 15 to 20)
#    0.000    1.846    1.538    0.923    4.308    3.692 
#    0.000    4.615    0.000    0.000    0.000    0.000 
#    0.000    0.000    0.000    0.000    0.000    0.000 
#
# Total GULP energy -322211.819697 kJ/mol
# GULP energy per Si atom -12392.762296 kJ/mol
# Density = 2.407980 g / cm^3
# Si number density = 24.134728 Si / 1000 Ang^3
#
#
#
# Elastic Constant Matrix: (Units=GPa)
#
#
# Indices 1 2 3 4 5 6 
#
# 1 180.5045 28.6130 103.0817 0.0000 0.0000 0.0000
# 2 28.6130 68.5850 17.9260 0.0000 0.0000 0.0000
# 3 103.0817 17.9260 167.5665 0.0000 0.0000 0.0000
# 4 0.0000 0.0000 0.0000 -4.1589 0.0000 0.0000
# 5 0.0000 0.0000 0.0000 0.0000 48.4577 0.0000
# 6 0.0000 0.0000 0.0000 0.0000 0.0000 18.5619
#
#
#
# Elastic Compliance Matrix: (Units=1/GPa)
#
#
# Indices 1 2 3 4 5 6 
#
# 1 0.008893 -0.002346 -0.005220 0.000000 0.000000 0.000000
# 2 -0.002346 0.015619 -0.000228 0.000000 0.000000 0.000000
# 3 -0.005220 -0.000228 0.009203 0.000000 0.000000 0.000000
# 4 0.000000 0.000000 0.000000 -0.240451 0.000000 0.000000
# 5 0.000000 0.000000 0.000000 0.000000 0.020637 0.000000
# 6 0.000000 0.000000 0.000000 0.000000 0.000000 0.053874
#
#
# Mechanical properties :
#
#
# Convention : Reuss Voigt Hill
#
# Bulk Modulus (GPa) = 55.16289 79.54415 67.35352
# Shear Modulus (GPa) = -45.20906 30.37449 -7.41728
#
# Velocity S-wave (km/s) = -4.33274 3.55144 -1.75498
# Velocity P-wave (km/s) = 1.45750 7.06023 4.88480
#
# Compressibility (1/GPa) = 0.01812813
#
# Stress axis : x y z
#
# Youngs Moduli (GPa) = 112.45321 64.02617 108.65987
#
# Poissons Ratio (x) = 0.15019 0.56715
# Poissons Ratio (y) = 0.26378 0.02476
# Poissons Ratio (z) = 0.58695 0.01459
#
# Static dielectric constant tensor:
#      x y z
#    x 4.555530 0.000000 0.000000 
#    y 0.000000 4.314130 0.000000 
#    z 0.000000 0.000000 3.941470 
# 
# 
# High freq. dielectric constant tensor:
#      x y z
#    x 1.969790 0.000000 0.000000 
#    y 0.000000 1.972310 0.000000 
#    z 0.000000 0.000000 1.934390 
# 
# From -- ./inp_files/18952.got.cif
#   From: 2010.03.12/outbox.cif.g09.slc.cpg/sg68_10_cif.got.tgz:18952.got - 2010.04.10 23:14:56.
