data_PCOD8283110
_publ_section_title
;
Structure prediction by ZEFSAII (Michael W. Deem and Ramdas Pophale) SiO2 
 PCOD8283110
Probable space group: C C C A
;
_chemical_formula_sum "Si O2"
_cell_formula_units_Z 84
_cell_length_a 8.683222
_cell_length_b 22.323167
_cell_length_c 21.000707
_cell_angle_alpha 90.000000
_cell_angle_beta 90.000000
_cell_angle_gamma 90.000000
_cell_volume 4070.714354
_symmetry_space_group_name_H-M "C C C A"
_symmetry_group_IT_number 68
_space_group.IT_coordinate_system_code '2'
_symmetry_cell_setting 'orthorhombic'
loop_
_space_group_symop_operation_xyz
x,y,z
-x,1/2-y,z
x,1/2-y,1/2-z
-x,y,1/2-z
-x,-y,-z
x,1/2+y,-z
-x,1/2+y,1/2+z
x,-y,1/2+z
1/2+x,1/2+y,z
1/2-x,-y,z
1/2+x,-y,1/2-z
1/2-x,1/2+y,1/2-z
1/2-x,1/2-y,-z
1/2+x,y,-z
1/2-x,y,1/2+z
1/2+x,1/2-y,1/2+z
loop_
_atom_site_type_symbol
_atom_site_label
_atom_site_fract_x
_atom_site_fract_y
_atom_site_fract_z
Si Si1 0.119410 0.955231 0.297415
Si Si2 0.531300 0.947475 0.924944
Si Si3 0.000000 0.250000 0.750000
Si Si4 0.744614 0.336434 0.764123
Si Si5 0.383002 0.579184 0.447151
Si Si6 0.033534 0.183367 0.146672
O O1 0.191270 0.902927 0.254118
O O2 0.000000 0.989178 0.250000
O O3 0.034131 0.925650 0.357657
O O4 0.250000 0.000000 0.321576
O O5 0.701435 0.923866 0.937293
O O6 0.529516 0.020079 0.921506
O O7 0.418847 0.918796 0.977721
O O8 0.883595 0.293422 0.788894
O O9 0.615551 0.340598 0.817427
O O10 0.676474 0.313700 0.696346
O O11 0.440191 0.638992 0.412256
O O12 0.000000 0.250000 0.120089
#
# Coordination Sequence:
#
# PCOD8283110 Si02
#       6
#    16  16   4  16  16  16
#     4  12  27  39  64 101 134 167 218 280 338 388
#     4  10  24  43  66  95 128 173 220 266 338 396
#     4  12  20  42  60  96 128 182 220 258 322 398
#     4  11  23  39  66  93 139 172 218 270 333 395
#     4  10  23  42  69  88 130 175 219 264 326 400
#     4  11  22  42  65  97 129 176 219 269 330 395
#
# _framework density 20.635199
#
# number of rings (size 3 to 8) (size 9 to 14) (size 15 to 20)
#    0.000    1.143    2.857    2.857   16.000    0.000 
#    0.000    0.952    2.095    0.000    0.000    0.000 
#    0.000    0.000    0.000    0.000    0.000    0.000 
#
# Total GULP energy -520688.363440 kJ/mol
# GULP energy per Si atom -12397.341987 kJ/mol
# Density = 2.058823 g / cm^3
# Si number density = 20.635199 Si / 1000 Ang^3
#
#
#
# Elastic Constant Matrix: (Units=GPa)
#
#
# Indices 1 2 3 4 5 6 
#
# 1 132.4310 47.1253 63.3678 0.0000 0.0000 0.0000
# 2 47.1253 121.5959 50.6398 0.0000 0.0000 0.0000
# 3 63.3678 50.6398 124.8645 0.0000 0.0000 0.0000
# 4 0.0000 0.0000 0.0000 28.6247 0.0000 0.0000
# 5 0.0000 0.0000 0.0000 0.0000 23.8248 0.0000
# 6 0.0000 0.0000 0.0000 0.0000 0.0000 31.2994
#
#
#
# Elastic Compliance Matrix: (Units=1/GPa)
#
#
# Indices 1 2 3 4 5 6 
#
# 1 0.010446 -0.002215 -0.004403 0.000000 0.000000 0.000000
# 2 -0.002215 0.010365 -0.003080 0.000000 0.000000 0.000000
# 3 -0.004403 -0.003080 0.011492 0.000000 0.000000 0.000000
# 4 0.000000 0.000000 0.000000 0.034935 0.000000 0.000000
# 5 0.000000 0.000000 0.000000 0.000000 0.041973 0.000000
# 6 0.000000 0.000000 0.000000 0.000000 0.000000 0.031949
#
#
# Mechanical properties :
#
#
# Convention : Reuss Voigt Hill
#
# Bulk Modulus (GPa) = 77.46985 77.90633 77.68809
# Shear Modulus (GPa) = 30.32912 31.26702 30.79807
#
# Velocity S-wave (km/s) = 3.83793 3.89681 3.86748
# Velocity P-wave (km/s) = 7.56727 7.62122 7.59429
#
# Compressibility (1/GPa) = 0.01290825
#
# Stress axis : x y z
#
# Youngs Moduli (GPa) = 95.72966 96.48026 87.01580
#
# Poissons Ratio (x) = 0.21368 0.38314
# Poissons Ratio (y) = 0.21202 0.26797
# Poissons Ratio (z) = 0.42151 0.29712
#
# Static dielectric constant tensor:
#      x y z
#    x 4.025740 0.000000 0.000000 
#    y 0.000000 3.714820 0.000000 
#    z 0.000000 0.000000 3.454120 
# 
# 
# High freq. dielectric constant tensor:
#      x y z
#    x 1.830670 0.000000 0.000000 
#    y 0.000000 1.801520 0.000000 
#    z 0.000000 0.000000 1.781140 
# 
# From -- ./inp_files/36189.got.cif
#   From: 2010.03.12/outbox.cif.g09.slc.cpg/sg68_19_cif.got.tgz:36189.got - 2010.04.10 23:14:56.
