data_PCOD8283650
_publ_section_title
;
Structure prediction by ZEFSAII (Michael W. Deem and Ramdas Pophale) SiO2 
 PCOD8283650
Probable space group: C C C A
;
_chemical_formula_sum "Si O2"
_cell_formula_units_Z 56
_cell_length_a 19.521890
_cell_length_b 21.412056
_cell_length_c 4.990330
_cell_angle_alpha 90.000000
_cell_angle_beta 90.000000
_cell_angle_gamma 90.000000
_cell_volume 2085.976913
_symmetry_space_group_name_H-M "C C C A"
_symmetry_group_IT_number 68
_space_group.IT_coordinate_system_code '2'
_symmetry_cell_setting 'orthorhombic'
loop_
_space_group_symop_operation_xyz
x,y,z
-x,1/2-y,z
x,1/2-y,1/2-z
-x,y,1/2-z
-x,-y,-z
x,1/2+y,-z
-x,1/2+y,1/2+z
x,-y,1/2+z
1/2+x,1/2+y,z
1/2-x,-y,z
1/2+x,-y,1/2-z
1/2-x,1/2+y,1/2-z
1/2-x,1/2-y,-z
1/2+x,y,-z
1/2-x,y,1/2+z
1/2+x,1/2-y,1/2+z
loop_
_atom_site_type_symbol
_atom_site_label
_atom_site_fract_x
_atom_site_fract_y
_atom_site_fract_z
Si Si1 0.000000 0.430432 0.250000
Si Si2 0.295746 0.168664 0.602939
Si Si3 0.500000 0.846713 0.750000
Si Si4 0.648385 0.034689 0.790427
Si Si5 0.887706 0.250000 0.750000
O O1 0.019613 0.388222 0.500920
O O2 0.932840 0.473221 0.278709
O O3 0.229411 0.174339 0.409215
O O4 0.333797 0.102342 0.590689
O O5 0.344559 0.225154 0.506003
O O6 0.435390 0.806145 0.646984
O O7 0.678936 0.016571 0.499744
#
# Coordination Sequence:
#
# PCOD8283650 Si02
#       5
#     8  16   8  16   8
#     4  12  24  48  73 112 149 190 246 312 388 446
#     4  12  28  48  75 106 149 200 249 305 368 449
#     4  11  26  43  81 106 153 189 240 321 382 457
#     4  12  26  47  76 107 147 193 250 310 373 446
#     4  11  26  50  74 114 146 195 250 312 386 447
#
# _framework density 26.845932999999999
#
# number of rings (size 3 to 8) (size 9 to 14) (size 15 to 20)
#    0.000    0.286    2.857    5.143    4.000    8.000 
#    0.000    0.000    0.000    0.000    0.000    0.000 
#    0.000    0.000    0.000    0.000    0.000    0.000 
#
# Total GULP energy -347053.843211 kJ/mol
# GULP energy per Si atom -12394.780115 kJ/mol
# Density = 2.678483 g / cm^3
# Si number density = 26.845933 Si / 1000 Ang^3
#
#
#
# Elastic Constant Matrix: (Units=GPa)
#
#
# Indices 1 2 3 4 5 6 
#
# 1 91.2175 27.6583 3.5194 0.0000 0.0000 0.0000
# 2 27.6583 116.6356 50.8474 0.0000 0.0000 0.0000
# 3 3.5194 50.8474 123.7740 0.0000 0.0000 0.0000
# 4 0.0000 0.0000 0.0000 46.1115 0.0000 0.0000
# 5 0.0000 0.0000 0.0000 0.0000 27.9959 0.0000
# 6 0.0000 0.0000 0.0000 0.0000 0.0000 53.7905
#
#
#
# Elastic Compliance Matrix: (Units=1/GPa)
#
#
# Indices 1 2 3 4 5 6 
#
# 1 0.011913 -0.003261 0.001001 0.000000 0.000000 0.000000
# 2 -0.003261 0.011337 -0.004565 0.000000 0.000000 0.000000
# 3 0.001001 -0.004565 0.009926 0.000000 0.000000 0.000000
# 4 0.000000 0.000000 0.000000 0.021687 0.000000 0.000000
# 5 0.000000 0.000000 0.000000 0.000000 0.035720 0.000000
# 6 0.000000 0.000000 0.000000 0.000000 0.000000 0.018591
#
#
# Mechanical properties :
#
#
# Convention : Reuss Voigt Hill
#
# Bulk Modulus (GPa) = 51.21328 55.07524 53.14426
# Shear Modulus (GPa) = 38.66034 42.21971 40.44003
#
# Velocity S-wave (km/s) = 3.79896 3.96999 3.88541
# Velocity P-wave (km/s) = 6.19362 6.44781 6.32199
#
# Compressibility (1/GPa) = 0.01952618
#
# Stress axis : x y z
#
# Youngs Moduli (GPa) = 83.94133 88.20628 100.74588
#
# Poissons Ratio (x) = 0.28768 -0.10086
# Poissons Ratio (y) = 0.27377 0.45987
# Poissons Ratio (z) = -0.08403 0.40263
#
# Static dielectric constant tensor:
#      x y z
#    x 5.020810 0.000000 0.000000 
#    y 0.000000 4.877610 0.000000 
#    z 0.000000 0.000000 4.676110 
# 
# 
# High freq. dielectric constant tensor:
#      x y z
#    x 2.087500 0.000000 0.000000 
#    y 0.000000 2.089180 0.000000 
#    z 0.000000 0.000000 2.084170 
# 
# From -- ./inp_files/1371.got.cif
#   From: 2010.03.12/outbox.cif.g09.slc.cpg/sg68_1_cif.got.tgz:1371.got - 2010.04.10 23:14:56.
