data_PCOD8283292
_publ_section_title
;
Structure prediction by ZEFSAII (Michael W. Deem and Ramdas Pophale) SiO2 
 PCOD8283292
Probable space group: C C C A
;
_chemical_formula_sum "Si O2"
_cell_formula_units_Z 116
_cell_length_a 17.122443
_cell_length_b 18.536323
_cell_length_c 16.531200
_cell_angle_alpha 90.000000
_cell_angle_beta 90.000000
_cell_angle_gamma 90.000000
_cell_volume 5246.790190
_symmetry_space_group_name_H-M "C C C A"
_symmetry_group_IT_number 68
_space_group.IT_coordinate_system_code '2'
_symmetry_cell_setting 'orthorhombic'
loop_
_space_group_symop_operation_xyz
x,y,z
-x,1/2-y,z
x,1/2-y,1/2-z
-x,y,1/2-z
-x,-y,-z
x,1/2+y,-z
-x,1/2+y,1/2+z
x,-y,1/2+z
1/2+x,1/2+y,z
1/2-x,-y,z
1/2+x,-y,1/2-z
1/2-x,1/2+y,1/2-z
1/2-x,1/2-y,-z
1/2+x,y,-z
1/2-x,y,1/2+z
1/2+x,1/2-y,1/2+z
loop_
_atom_site_type_symbol
_atom_site_label
_atom_site_fract_x
_atom_site_fract_y
_atom_site_fract_z
Si Si1 0.000000 0.250000 0.250000
Si Si2 0.299070 0.927894 0.253554
Si Si3 0.932245 0.122966 0.151104
Si Si4 0.428336 0.294444 0.076766
Si Si5 0.283427 0.579354 0.428147
Si Si6 0.176959 0.188651 0.473061
Si Si7 0.281269 0.701974 0.670829
Si Si8 0.456944 0.426989 0.973890
O O1 0.944847 0.199704 0.195167
O O2 0.388736 0.932642 0.287114
O O3 0.299567 0.895963 0.163608
O O4 0.255650 0.875133 0.314354
O O5 0.250000 0.000000 0.258939
O O6 0.880119 0.133808 0.071963
O O7 0.013631 0.090927 0.117624
O O8 0.500000 0.250000 0.112953
O O9 0.372571 0.311260 0.152853
O O10 0.376295 0.250533 0.012229
O O11 0.472498 0.363070 0.037623
O O12 0.250000 0.500000 0.428936
O O13 0.225933 0.638782 0.465464
O O14 0.363671 0.569693 0.476267
O O15 0.236072 0.230653 0.410567
O O16 0.268760 0.750000 0.750000
O O17 0.500000 0.500000 0.000000
#
# Coordination Sequence:
#
# PCOD8283292 Si02
#       8
#     4  16  16  16  16  16  16  16
#     4  12  24  44  68 108 148 176 238 292 392 412
#     4  10  25  44  69 101 141 181 233 285 364 419
#     4  11  24  41  71 101 142 182 225 298 349 438
#     4  12  25  45  70 101 139 186 234 293 350 426
#     4  11  24  45  72 102 138 183 233 299 345 426
#     4  11  23  42  70 102 135 177 240 286 354 416
#     4  11  25  42  71 103 136 182 232 290 350 423
#     4  12  26  44  70 105 140 184 239 289 361 426
#
# _framework density 22.108754000000001
#
# number of rings (size 3 to 8) (size 9 to 14) (size 15 to 20)
#    0.000    0.828    2.759    3.724    7.724    2.483 
#    0.000    0.000    0.000    0.000    0.000    0.000 
#    0.000    0.000    0.000    0.000    0.000    0.000 
#
# Total GULP energy -718897.789702 kJ/mol
# GULP energy per Si atom -12394.789478 kJ/mol
# Density = 2.205843 g / cm^3
# Si number density = 22.108754 Si / 1000 Ang^3
#
#
#
# Elastic Constant Matrix: (Units=GPa)
#
#
# Indices 1 2 3 4 5 6 
#
# 1 89.3414 23.0893 19.5374 0.0000 0.0000 0.0000
# 2 23.0893 94.2430 26.7194 0.0000 0.0000 0.0000
# 3 19.5374 26.7194 75.7860 0.0000 0.0000 0.0000
# 4 0.0000 0.0000 0.0000 27.1226 0.0000 0.0000
# 5 0.0000 0.0000 0.0000 0.0000 31.4943 0.0000
# 6 0.0000 0.0000 0.0000 0.0000 0.0000 42.2789
#
#
#
# Elastic Compliance Matrix: (Units=1/GPa)
#
#
# Indices 1 2 3 4 5 6 
#
# 1 0.012314 -0.002352 -0.002345 0.000000 0.000000 0.000000
# 2 -0.002352 0.012239 -0.003709 0.000000 0.000000 0.000000
# 3 -0.002345 -0.003709 0.015107 0.000000 0.000000 0.000000
# 4 0.000000 0.000000 0.000000 0.036870 0.000000 0.000000
# 5 0.000000 0.000000 0.000000 0.000000 0.031752 0.000000
# 6 0.000000 0.000000 0.000000 0.000000 0.000000 0.023652
#
#
# Mechanical properties :
#
#
# Convention : Reuss Voigt Hill
#
# Bulk Modulus (GPa) = 43.76755 44.22919 43.99837
# Shear Modulus (GPa) = 31.97736 32.84745 32.41241
#
# Velocity S-wave (km/s) = 3.80724 3.85869 3.83305
# Velocity P-wave (km/s) = 6.25829 6.31675 6.28759
#
# Compressibility (1/GPa) = 0.02284798
#
# Stress axis : x y z
#
# Youngs Moduli (GPa) = 81.21035 81.70930 66.19384
#
# Poissons Ratio (x) = 0.19217 0.15524
# Poissons Ratio (y) = 0.19100 0.24548
# Poissons Ratio (z) = 0.19046 0.30302
#
# Static dielectric constant tensor:
#      x y z
#    x 4.359680 0.000000 0.000000 
#    y 0.000000 4.113870 0.000000 
#    z 0.000000 0.000000 4.233570 
# 
# 
# High freq. dielectric constant tensor:
#      x y z
#    x 1.889520 0.000000 0.000000 
#    y 0.000000 1.863480 0.000000 
#    z 0.000000 0.000000 1.872630 
# 
# From -- ./inp_files/32163.got.cif
#   From: 2010.03.12/outbox.cif.g09.slc.cpg/sg68_17_cif.got.tgz:32163.got - 2010.04.10 23:14:56.
