data_PCOD8283604
_publ_section_title
;
Structure prediction by ZEFSAII (Michael W. Deem and Ramdas Pophale) SiO2 
 PCOD8283604
Probable space group: C C C A
;
_chemical_formula_sum "Si O2"
_cell_formula_units_Z 112
_cell_length_a 26.935455
_cell_length_b 10.795066
_cell_length_c 16.839164
_cell_angle_alpha 90.000000
_cell_angle_beta 90.000000
_cell_angle_gamma 90.000000
_cell_volume 4896.323960
_symmetry_space_group_name_H-M "C C C A"
_symmetry_group_IT_number 68
_space_group.IT_coordinate_system_code '2'
_symmetry_cell_setting 'orthorhombic'
loop_
_space_group_symop_operation_xyz
x,y,z
-x,1/2-y,z
x,1/2-y,1/2-z
-x,y,1/2-z
-x,-y,-z
x,1/2+y,-z
-x,1/2+y,1/2+z
x,-y,1/2+z
1/2+x,1/2+y,z
1/2-x,-y,z
1/2+x,-y,1/2-z
1/2-x,1/2+y,1/2-z
1/2-x,1/2-y,-z
1/2+x,y,-z
1/2-x,y,1/2+z
1/2+x,1/2-y,1/2+z
loop_
_atom_site_type_symbol
_atom_site_label
_atom_site_fract_x
_atom_site_fract_y
_atom_site_fract_z
Si Si1 0.049714 0.176550 0.096181
Si Si2 0.693503 0.509098 0.093176
Si Si3 0.787446 0.886459 0.743517
Si Si4 0.449065 0.958418 0.712611
Si Si5 0.617874 0.915521 0.535710
Si Si6 0.111273 0.109542 0.342115
Si Si7 0.636545 0.214081 0.336200
O O1 0.036510 0.051697 0.142403
O O2 0.087360 0.254308 0.151999
O O3 0.000000 0.250000 0.079087
O O4 0.071786 0.143374 0.010389
O O5 0.750000 0.500000 0.064705
O O6 0.687198 0.591216 0.171570
O O7 0.673283 0.373550 0.114801
O O8 0.663978 0.575947 0.023745
O O9 0.761195 0.750000 0.750000
O O10 0.830432 0.880349 0.677796
O O11 0.750000 0.000000 0.723259
O O12 0.500000 0.906461 0.750000
O O13 0.416288 0.026317 0.778049
O O14 0.417808 0.845964 0.675653
O O15 0.631837 0.837478 0.613000
O O16 0.604967 0.051277 0.569672
O O17 0.659113 0.250000 0.250000
#
# Coordination Sequence:
#
# PCOD8283604 Si02
#       7
#    16  16  16  16  16  16  16
#     4  12  26  43  74 106 143 189 242 299 367 442
#     4  11  25  45  72 106 144 195 247 302 373 449
#     4  11  24  45  75 108 143 189 253 309 373 449
#     4  12  24  46  75 104 136 189 246 294 357 444
#     4  12  26  46  70 103 152 191 237 307 366 444
#     4  12  24  44  72 102 141 190 237 298 362 430
#     4  12  25  50  73 104 151 191 245 308 370 442
#
# _framework density 22.874303999999999
#
# number of rings (size 3 to 8) (size 9 to 14) (size 15 to 20)
#    0.000    0.286    5.714    3.000    0.000    7.714 
#    0.000    0.714    0.000    0.000    0.000    0.000 
#    0.000    0.000    0.000    0.000    0.000    0.000 
#
# Total GULP energy -694612.548583 kJ/mol
# GULP energy per Si atom -12403.795510 kJ/mol
# Density = 2.282224 g / cm^3
# Si number density = 22.874304 Si / 1000 Ang^3
#
#
#
# Elastic Constant Matrix: (Units=GPa)
#
#
# Indices 1 2 3 4 5 6 
#
# 1 134.2873 37.6818 34.2935 0.0000 0.0000 0.0000
# 2 37.6818 93.8340 21.7543 0.0000 0.0000 0.0000
# 3 34.2935 21.7543 113.9349 0.0000 0.0000 0.0000
# 4 0.0000 0.0000 0.0000 36.6947 0.0000 0.0000
# 5 0.0000 0.0000 0.0000 0.0000 13.7522 0.0000
# 6 0.0000 0.0000 0.0000 0.0000 0.0000 19.1231
#
#
#
# Elastic Compliance Matrix: (Units=1/GPa)
#
#
# Indices 1 2 3 4 5 6 
#
# 1 0.008837 -0.003068 -0.002074 0.000000 0.000000 0.000000
# 2 -0.003068 0.012216 -0.001409 0.000000 0.000000 0.000000
# 3 -0.002074 -0.001409 0.009670 0.000000 0.000000 0.000000
# 4 0.000000 0.000000 0.000000 0.027252 0.000000 0.000000
# 5 0.000000 0.000000 0.000000 0.000000 0.072716 0.000000
# 6 0.000000 0.000000 0.000000 0.000000 0.000000 0.052293
#
#
# Mechanical properties :
#
#
# Convention : Reuss Voigt Hill
#
# Bulk Modulus (GPa) = 56.75024 58.83503 57.79264
# Shear Modulus (GPa) = 24.75740 30.46911 27.61326
#
# Velocity S-wave (km/s) = 3.29344 3.65365 3.47821
# Velocity P-wave (km/s) = 6.27103 6.60119 6.43823
#
# Compressibility (1/GPa) = 0.01762107
#
# Stress axis : x y z
#
# Youngs Moduli (GPa) = 113.15659 81.86106 103.40967
#
# Poissons Ratio (x) = 0.25115 0.21449
# Poissons Ratio (y) = 0.34717 0.14570
# Poissons Ratio (z) = 0.23471 0.11534
#
# Static dielectric constant tensor:
#      x y z
#    x 4.144230 0.000000 0.000000 
#    y 0.000000 4.371620 0.000000 
#    z 0.000000 0.000000 4.155900 
# 
# 
# High freq. dielectric constant tensor:
#      x y z
#    x 1.904600 0.000000 0.000000 
#    y 0.000000 1.915260 0.000000 
#    z 0.000000 0.000000 1.904400 
# 
# From -- ./inp_files/26430.got.cif
#   From: 2010.03.12/outbox.cif.g09.slc.cpg/sg68_14_cif.got.tgz:26430.got - 2010.04.10 23:14:56.
