data_PCOD8283541
_publ_section_title
;
Structure prediction by ZEFSAII (Michael W. Deem and Ramdas Pophale) SiO2 
 PCOD8283541
Probable space group: C C C A
;
_chemical_formula_sum "Si O2"
_cell_formula_units_Z 56
_cell_length_a 11.355064
_cell_length_b 10.381244
_cell_length_c 18.565844
_cell_angle_alpha 90.000000
_cell_angle_beta 90.000000
_cell_angle_gamma 90.000000
_cell_volume 2188.535936
_symmetry_space_group_name_H-M "C C C A"
_symmetry_group_IT_number 68
_space_group.IT_coordinate_system_code '2'
_symmetry_cell_setting 'orthorhombic'
loop_
_space_group_symop_operation_xyz
x,y,z
-x,1/2-y,z
x,1/2-y,1/2-z
-x,y,1/2-z
-x,-y,-z
x,1/2+y,-z
-x,1/2+y,1/2+z
x,-y,1/2+z
1/2+x,1/2+y,z
1/2-x,-y,z
1/2+x,-y,1/2-z
1/2-x,1/2+y,1/2-z
1/2-x,1/2-y,-z
1/2+x,y,-z
1/2-x,y,1/2+z
1/2+x,1/2-y,1/2+z
loop_
_atom_site_type_symbol
_atom_site_label
_atom_site_fract_x
_atom_site_fract_y
_atom_site_fract_z
Si Si1 0.882138 0.165675 0.655034
Si Si2 0.579333 0.125472 0.998038
Si Si3 0.000000 0.958894 0.750000
Si Si4 0.309937 0.131511 0.652607
O O1 0.851844 0.123885 0.573733
O O2 0.769947 0.249587 0.680006
O O3 0.000000 0.250000 0.656990
O O4 0.902992 0.044562 0.707138
O O5 0.500000 0.250000 0.989202
O O6 0.673441 0.127456 0.933644
O O7 0.500000 0.000000 0.000000
O O8 0.064699 0.865399 0.693127
O O9 0.250000 0.000000 0.676449
#
# Coordination Sequence:
#
# PCOD8283541 Si02
#       4
#    16  16   8  16
#     4  11  23  46  79 106 156 208 265 332 406 476
#     4  11  23  49  79 115 153 203 275 337 391 479
#     4  12  25  50  75 110 168 205 271 324 414 492
#     4  12  25  47  77 113 153 212 268 328 406 476
#
# _framework density 25.587882
#
# number of rings (size 3 to 8) (size 9 to 14) (size 15 to 20)
#    0.000    0.571    5.714    3.000    0.000    0.000 
#   10.286    1.429    0.000    0.000    0.000    0.000 
#    0.000    0.000    0.000    0.000    0.000    0.000 
#
# Total GULP energy -347257.562756 kJ/mol
# GULP energy per Si atom -12402.055813 kJ/mol
# Density = 2.552964 g / cm^3
# Si number density = 25.587882 Si / 1000 Ang^3
#
#
#
# Elastic Constant Matrix: (Units=GPa)
#
#
# Indices 1 2 3 4 5 6 
#
# 1 115.2062 68.8084 58.2877 0.0000 0.0000 0.0000
# 2 68.8084 123.9241 23.1676 0.0000 0.0000 0.0000
# 3 58.2877 23.1676 166.3769 0.0000 0.0000 0.0000
# 4 0.0000 0.0000 0.0000 27.9331 0.0000 0.0000
# 5 0.0000 0.0000 0.0000 0.0000 23.3792 0.0000
# 6 0.0000 0.0000 0.0000 0.0000 0.0000 58.9679
#
#
#
# Elastic Compliance Matrix: (Units=1/GPa)
#
#
# Indices 1 2 3 4 5 6 
#
# 1 0.015560 -0.007824 -0.004362 0.000000 0.000000 0.000000
# 2 -0.007824 0.012219 0.001040 0.000000 0.000000 0.000000
# 3 -0.004362 0.001040 0.007394 0.000000 0.000000 0.000000
# 4 0.000000 0.000000 0.000000 0.035800 0.000000 0.000000
# 5 0.000000 0.000000 0.000000 0.000000 0.042773 0.000000
# 6 0.000000 0.000000 0.000000 0.000000 0.000000 0.016958
#
#
# Mechanical properties :
#
#
# Convention : Reuss Voigt Hill
#
# Bulk Modulus (GPa) = 77.63673 78.44831 78.04252
# Shear Modulus (GPa) = 31.78832 39.07228 35.43030
#
# Velocity S-wave (km/s) = 3.52848 3.91190 3.72513
# Velocity P-wave (km/s) = 6.85619 7.15045 7.00486
#
# Compressibility (1/GPa) = 0.01288050
#
# Stress axis : x y z
#
# Youngs Moduli (GPa) = 64.26756 81.83670 135.24931
#
# Poissons Ratio (x) = 0.64031 0.58992
# Poissons Ratio (y) = 0.50284 -0.14060
# Poissons Ratio (z) = 0.28032 -0.08507
#
# Static dielectric constant tensor:
#      x y z
#    x 4.409610 0.000000 0.000000 
#    y 0.000000 4.477170 0.000000 
#    z 0.000000 0.000000 5.202690 
# 
# 
# High freq. dielectric constant tensor:
#      x y z
#    x 2.008480 0.000000 0.000000 
#    y 0.000000 2.024980 0.000000 
#    z 0.000000 0.000000 2.051210 
# 
# From -- ./inp_files/36942.got.cif
#   From: 2010.03.12/outbox.cif.g09.slc.cpg/sg68_19_cif.got.tgz:36942.got - 2010.04.10 23:14:56.
