data_PCOD8283125
_publ_section_title
;
Structure prediction by ZEFSAII (Michael W. Deem and Ramdas Pophale) SiO2 
 PCOD8283125
Probable space group: C C C A
;
_chemical_formula_sum "Si O2"
_cell_formula_units_Z 88
_cell_length_a 17.477107
_cell_length_b 12.668583
_cell_length_c 18.449648
_cell_angle_alpha 90.000000
_cell_angle_beta 90.000000
_cell_angle_gamma 90.000000
_cell_volume 4084.939896
_symmetry_space_group_name_H-M "C C C A"
_symmetry_group_IT_number 68
_space_group.IT_coordinate_system_code '2'
_symmetry_cell_setting 'orthorhombic'
loop_
_space_group_symop_operation_xyz
x,y,z
-x,1/2-y,z
x,1/2-y,1/2-z
-x,y,1/2-z
-x,-y,-z
x,1/2+y,-z
-x,1/2+y,1/2+z
x,-y,1/2+z
1/2+x,1/2+y,z
1/2-x,-y,z
1/2+x,-y,1/2-z
1/2-x,1/2+y,1/2-z
1/2-x,1/2-y,-z
1/2+x,y,-z
1/2-x,y,1/2+z
1/2+x,1/2-y,1/2+z
loop_
_atom_site_type_symbol
_atom_site_label
_atom_site_fract_x
_atom_site_fract_y
_atom_site_fract_z
Si Si1 0.000000 0.750000 0.624669
Si Si2 0.557743 0.031067 0.666742
Si Si3 0.211434 0.263679 0.831238
Si Si4 0.105993 0.536152 0.317043
Si Si5 0.848581 0.647665 0.580706
Si Si6 0.175930 0.430980 0.578902
O O1 0.970436 0.847516 0.673511
O O2 0.929061 0.710015 0.576008
O O3 0.484113 0.954177 0.665500
O O4 0.613359 0.006955 0.734769
O O5 0.603667 0.008766 0.592573
O O6 0.243904 0.250000 0.750000
O O7 0.146819 0.353206 0.829872
O O8 0.282147 0.281067 0.885277
O O9 0.170134 0.158929 0.859827
O O10 0.147564 0.456156 0.370808
O O11 0.825159 0.618125 0.500164
O O12 0.250000 0.500000 0.590352
#
# Coordination Sequence:
#
# PCOD8283125 Si02
#       6
#     8  16  16  16  16  16
#     4  10  24  45  72 104 137 188 234 292 351 422
#     4  10  23  43  69 100 140 182 237 291 352 420
#     4  12  25  42  70 102 136 191 238 290 350 424
#     4  10  23  43  67 101 136 183 236 292 350 416
#     4  11  26  43  70 102 143 181 234 291 356 416
#     4  12  26  45  68 103 145 184 234 294 355 420
#
# _framework density 21.542545
#
# number of rings (size 3 to 8) (size 9 to 14) (size 15 to 20)
#    0.000    1.091    1.818    3.273    5.091   11.636 
#    0.000    0.000    0.000    0.000    0.000    0.000 
#    0.000    0.000    0.000    0.000    0.000    0.000 
#
# Total GULP energy -545664.993408 kJ/mol
# GULP energy per Si atom -12401.477123 kJ/mol
# Density = 2.149351 g / cm^3
# Si number density = 21.542545 Si / 1000 Ang^3
#
#
#
# Elastic Constant Matrix: (Units=GPa)
#
#
# Indices 1 2 3 4 5 6 
#
# 1 109.4907 62.9894 28.5153 0.0000 0.0000 0.0000
# 2 62.9894 133.5897 45.2173 0.0000 0.0000 0.0000
# 3 28.5153 45.2173 105.3195 0.0000 0.0000 0.0000
# 4 0.0000 0.0000 0.0000 35.4906 0.0000 0.0000
# 5 0.0000 0.0000 0.0000 0.0000 37.4194 0.0000
# 6 0.0000 0.0000 0.0000 0.0000 0.0000 41.2214
#
#
#
# Elastic Compliance Matrix: (Units=1/GPa)
#
#
# Indices 1 2 3 4 5 6 
#
# 1 0.012624 -0.005611 -0.001009 0.000000 0.000000 0.000000
# 2 -0.005611 0.011252 -0.003312 0.000000 0.000000 0.000000
# 3 -0.001009 -0.003312 0.011190 0.000000 0.000000 0.000000
# 4 0.000000 0.000000 0.000000 0.028176 0.000000 0.000000
# 5 0.000000 0.000000 0.000000 0.000000 0.026724 0.000000
# 6 0.000000 0.000000 0.000000 0.000000 0.000000 0.024259
#
#
# Mechanical properties :
#
#
# Convention : Reuss Voigt Hill
#
# Bulk Modulus (GPa) = 65.77754 69.09376 67.43565
# Shear Modulus (GPa) = 35.93076 36.93815 36.43446
#
# Velocity S-wave (km/s) = 4.08842 4.14534 4.11698
# Velocity P-wave (km/s) = 7.27234 7.41988 7.34648
#
# Compressibility (1/GPa) = 0.01520276
#
# Stress axis : x y z
#
# Youngs Moduli (GPa) = 79.21534 88.87201 89.36568
#
# Poissons Ratio (x) = 0.49864 0.09017
# Poissons Ratio (y) = 0.44446 0.29596
# Poissons Ratio (z) = 0.07993 0.29433
#
# Static dielectric constant tensor:
#      x y z
#    x 4.028590 0.000000 0.000000 
#    y 0.000000 3.996730 0.000000 
#    z 0.000000 0.000000 3.824760 
# 
# 
# High freq. dielectric constant tensor:
#      x y z
#    x 1.857280 0.000000 0.000000 
#    y 0.000000 1.853330 0.000000 
#    z 0.000000 0.000000 1.842710 
# 
# From -- ./inp_files/32805.got.cif
#   From: 2010.03.12/outbox.cif.g09.slc.cpg/sg68_17_cif.got.tgz:32805.got - 2010.04.10 23:14:56.
