data_PCOD8283297
_publ_section_title
;
Structure prediction by ZEFSAII (Michael W. Deem and Ramdas Pophale) SiO2 
 PCOD8283297
Probable space group: C C C A
;
_chemical_formula_sum "Si O2"
_cell_formula_units_Z 48
_cell_length_a 19.780835
_cell_length_b 8.809163
_cell_length_c 11.392254
_cell_angle_alpha 90.000000
_cell_angle_beta 90.000000
_cell_angle_gamma 90.000000
_cell_volume 1985.129877
_symmetry_space_group_name_H-M "C C C A"
_symmetry_group_IT_number 68
_space_group.IT_coordinate_system_code '2'
_symmetry_cell_setting 'orthorhombic'
loop_
_space_group_symop_operation_xyz
x,y,z
-x,1/2-y,z
x,1/2-y,1/2-z
-x,y,1/2-z
-x,-y,-z
x,1/2+y,-z
-x,1/2+y,1/2+z
x,-y,1/2+z
1/2+x,1/2+y,z
1/2-x,-y,z
1/2+x,-y,1/2-z
1/2-x,1/2+y,1/2-z
1/2-x,1/2-y,-z
1/2+x,y,-z
1/2-x,y,1/2+z
1/2+x,1/2-y,1/2+z
loop_
_atom_site_type_symbol
_atom_site_label
_atom_site_fract_x
_atom_site_fract_y
_atom_site_fract_z
Si Si1 0.062245 0.465623 0.837108
Si Si2 0.394125 0.267700 0.981045
Si Si3 0.328056 0.002554 0.350807
O O1 0.055709 0.625546 0.905226
O O2 0.059968 0.171677 0.570435
O O3 0.132394 0.453965 0.767274
O O4 0.000000 0.447818 0.750000
O O5 0.351730 0.162307 0.893823
O O6 0.340748 0.374113 0.048237
O O7 0.250000 0.000000 0.316908
#
# Coordination Sequence:
#
# PCOD8283297 Si02
#       3
#    16  16  16
#     4  11  26  46  70 100 137 181 227 280 344 407
#     4  10  25  45  68 100 139 175 228 288 335 399
#     4  11  24  43  70 102 138 182 228 277 338 404
#
# _framework density 24.179779
#
# number of rings (size 3 to 8) (size 9 to 14) (size 15 to 20)
#    0.000    1.333    0.000    3.000    0.000   24.000 
#    0.000    5.000    0.000    0.000    0.000    0.000 
#    0.000    0.000    0.000    0.000    0.000    0.000 
#
# Total GULP energy -297806.682881 kJ/mol
# GULP energy per Si atom -12408.611787 kJ/mol
# Density = 2.412474 g / cm^3
# Si number density = 24.179779 Si / 1000 Ang^3
#
#
#
# Elastic Constant Matrix: (Units=GPa)
#
#
# Indices 1 2 3 4 5 6 
#
# 1 158.5071 32.6143 56.0481 0.0000 0.0000 0.0000
# 2 32.6143 99.9028 15.2357 0.0000 0.0000 0.0000
# 3 56.0481 15.2357 104.1852 0.0000 0.0000 0.0000
# 4 0.0000 0.0000 0.0000 26.1311 0.0000 0.0000
# 5 0.0000 0.0000 0.0000 0.0000 38.0456 0.0000
# 6 0.0000 0.0000 0.0000 0.0000 0.0000 16.0028
#
#
#
# Elastic Compliance Matrix: (Units=1/GPa)
#
#
# Indices 1 2 3 4 5 6 
#
# 1 0.008180 -0.002045 -0.004101 0.000000 0.000000 0.000000
# 2 -0.002045 0.010749 -0.000472 0.000000 0.000000 0.000000
# 3 -0.004101 -0.000472 0.011874 0.000000 0.000000 0.000000
# 4 0.000000 0.000000 0.000000 0.038269 0.000000 0.000000
# 5 0.000000 0.000000 0.000000 0.000000 0.026284 0.000000
# 6 0.000000 0.000000 0.000000 0.000000 0.000000 0.062489
#
#
# Mechanical properties :
#
#
# Convention : Reuss Voigt Hill
#
# Bulk Modulus (GPa) = 56.92665 63.37682 60.15174
# Shear Modulus (GPa) = 28.25865 33.28234 30.77050
#
# Velocity S-wave (km/s) = 3.42232 3.71408 3.57118
# Velocity P-wave (km/s) = 6.26183 6.68282 6.47575
#
# Compressibility (1/GPa) = 0.01756646
#
# Stress axis : x y z
#
# Youngs Moduli (GPa) = 122.25074 93.02948 84.21944
#
# Poissons Ratio (x) = 0.19024 0.34542
# Poissons Ratio (y) = 0.24999 0.03974
# Poissons Ratio (z) = 0.50141 0.04389
#
# Static dielectric constant tensor:
#      x y z
#    x 3.995260 0.000000 0.000000 
#    y 0.000000 4.768830 0.000000 
#    z 0.000000 0.000000 4.645420 
# 
# 
# High freq. dielectric constant tensor:
#      x y z
#    x 1.946600 0.000000 0.000000 
#    y 0.000000 1.984840 0.000000 
#    z 0.000000 0.000000 1.976970 
# 
# From -- ./inp_files/15998.got.cif
#   From: 2010.03.12/outbox.cif.g09.slc.cpg/sg68_8_cif.got.tgz:15998.got - 2010.04.10 23:14:56.
