data_PCOD8283967
_publ_section_title
;
Structure prediction by ZEFSAII (Michael W. Deem and Ramdas Pophale) SiO2 
 PCOD8283967
Probable space group: F M M M
;
_chemical_formula_sum "Si O2"
_cell_formula_units_Z 160
_cell_length_a 19.067903
_cell_length_b 25.359196
_cell_length_c 18.399587
_cell_angle_alpha 90.000000
_cell_angle_beta 90.000000
_cell_angle_gamma 90.000000
_cell_volume 8897.059382
_symmetry_space_group_name_H-M "F M M M"
_symmetry_group_IT_number 69
_symmetry_cell_setting 'orthorhombic'
loop_
_space_group_symop_operation_xyz
x,y,z
-x,-y,z
x,-y,-z
-x,y,-z
-x,-y,-z
x,y,-z
-x,y,z
x,-y,z
x,1/2+y,1/2+z
-x,1/2-y,1/2+z
x,1/2-y,1/2-z
-x,1/2+y,1/2-z
-x,1/2-y,1/2-z
x,1/2+y,1/2-z
-x,1/2+y,1/2+z
x,1/2-y,1/2+z
1/2+x,y,1/2+z
1/2-x,-y,1/2+z
1/2+x,-y,1/2-z
1/2-x,y,1/2-z
1/2-x,-y,1/2-z
1/2+x,y,1/2-z
1/2-x,y,1/2+z
1/2+x,-y,1/2+z
1/2+x,1/2+y,z
1/2-x,1/2-y,z
1/2+x,1/2-y,-z
1/2-x,1/2+y,-z
1/2-x,1/2-y,-z
1/2+x,1/2+y,-z
1/2-x,1/2+y,z
1/2+x,1/2-y,z
loop_
_atom_site_type_symbol
_atom_site_label
_atom_site_fract_x
_atom_site_fract_y
_atom_site_fract_z
Si Si1 0.422650 0.690970 0.222337
Si Si2 0.078531 0.000000 0.768237
Si Si3 0.078318 0.400547 0.166228
Si Si4 0.724758 0.191296 0.669286
Si Si5 0.721137 0.500000 0.168446
Si Si6 0.785355 0.097112 0.584373
O O1 0.500000 0.678021 0.188309
O O2 0.420743 0.750000 0.250000
O O3 0.408109 0.653506 0.290900
O O4 0.360022 0.685127 0.164201
O O5 0.091307 0.051374 0.720298
O O6 0.136162 0.000000 0.831979
O O7 0.000000 0.000000 0.801972
O O8 0.131503 0.405085 0.099266
O O9 0.000000 0.402381 0.133591
O O10 0.750000 0.174976 0.750000
O O11 0.750000 0.250000 0.650602
O O12 0.756466 0.153535 0.608777
O O13 0.750000 0.500000 0.250000
O O14 0.745869 0.551926 0.127922
O O15 0.771405 0.088692 0.500000
#
# Coordination Sequence:
#
# PCOD8283967 Si02
#       6
#    32  16  32  32  16  32
#     4  10  18  30  53  83 108 134 178 232 275 310
#     4  10  20  34  58  86 105 131 176 230 275 311
#     4  10  19  33  52  79 111 142 175 215 272 327
#     4  11  19  35  58  81 108 144 186 231 267 312
#     4  12  21  38  63  80 105 143 182 231 267 312
#     4  12  24  36  54  82 115 148 180 219 272 326
#
# _framework density 17.983470000000001
#
# number of rings (size 3 to 8) (size 9 to 14) (size 15 to 20)
#    0.000    1.200    6.000    2.100    0.000    0.800 
#    0.000    0.000    0.000    6.000    0.000    0.000 
#    0.000    0.000    0.000    0.000    0.000    0.000 
#
# Total GULP energy -495974.244108 kJ/mol
# GULP energy per Si atom -12399.356103 kJ/mol
# Density = 1.794254 g / cm^3
# Si number density = 17.983470 Si / 1000 Ang^3
#
#
#
# Elastic Constant Matrix: (Units=GPa)
#
#
# Indices 1 2 3 4 5 6 
#
# 1 168.1761 33.7475 55.8231 0.0000 0.0000 0.0000
# 2 33.7475 104.7017 52.4018 0.0000 0.0000 0.0000
# 3 55.8231 52.4018 97.0023 0.0000 0.0000 0.0000
# 4 0.0000 0.0000 0.0000 10.7036 0.0000 0.0000
# 5 0.0000 0.0000 0.0000 0.0000 18.1105 0.0000
# 6 0.0000 0.0000 0.0000 0.0000 0.0000 29.8873
#
#
#
# Elastic Compliance Matrix: (Units=1/GPa)
#
#
# Indices 1 2 3 4 5 6 
#
# 1 0.007359 -0.000346 -0.004048 0.000000 0.000000 0.000000
# 2 -0.000346 0.013106 -0.006881 0.000000 0.000000 0.000000
# 3 -0.004048 -0.006881 0.016356 0.000000 0.000000 0.000000
# 4 0.000000 0.000000 0.000000 0.093426 0.000000 0.000000
# 5 0.000000 0.000000 0.000000 0.000000 0.055217 0.000000
# 6 0.000000 0.000000 0.000000 0.000000 0.000000 0.033459
#
#
# Mechanical properties :
#
#
# Convention : Reuss Voigt Hill
#
# Bulk Modulus (GPa) = 70.07221 72.64722 71.35972
# Shear Modulus (GPa) = 20.30609 26.93412 23.62011
#
# Velocity S-wave (km/s) = 3.36393 3.87423 3.62807
# Velocity P-wave (km/s) = 7.35781 7.77800 7.57082
#
# Compressibility (1/GPa) = 0.01427099
#
# Stress axis : x y z
#
# Youngs Moduli (GPa) = 135.88203 76.29882 61.13964
#
# Poissons Ratio (x) = 0.02640 0.24751
# Poissons Ratio (y) = 0.04701 0.42071
# Poissons Ratio (z) = 0.55009 0.52502
#
# Static dielectric constant tensor:
#      x y z
#    x 4.040450 0.000000 0.000000 
#    y 0.000000 3.619400 0.000000 
#    z 0.000000 0.000000 2.815480 
# 
# 
# High freq. dielectric constant tensor:
#      x y z
#    x 1.724190 0.000000 0.000000 
#    y 0.000000 1.721800 0.000000 
#    z 0.000000 0.000000 1.631530 
# 
# From -- ./inp_files/23179.got.cif
#   From: 2010.03.12/outbox.cif.g09.slc.cpg/sg69_12_cif.got.tgz:23179.got - 2010.04.10 23:52:46.
