data_PCOD8283784
_publ_section_title
;
Structure prediction by ZEFSAII (Michael W. Deem and Ramdas Pophale) SiO2 
 PCOD8283784
Probable space group: F M M M
;
_chemical_formula_sum "Si O2"
_cell_formula_units_Z 160
_cell_length_a 18.013858
_cell_length_b 25.167966
_cell_length_c 23.022356
_cell_angle_alpha 90.000000
_cell_angle_beta 90.000000
_cell_angle_gamma 90.000000
_cell_volume 10437.695399
_symmetry_space_group_name_H-M "F M M M"
_symmetry_group_IT_number 69
_symmetry_cell_setting 'orthorhombic'
loop_
_space_group_symop_operation_xyz
x,y,z
-x,-y,z
x,-y,-z
-x,y,-z
-x,-y,-z
x,y,-z
-x,y,z
x,-y,z
x,1/2+y,1/2+z
-x,1/2-y,1/2+z
x,1/2-y,1/2-z
-x,1/2+y,1/2-z
-x,1/2-y,1/2-z
x,1/2+y,1/2-z
-x,1/2+y,1/2+z
x,1/2-y,1/2+z
1/2+x,y,1/2+z
1/2-x,-y,1/2+z
1/2+x,-y,1/2-z
1/2-x,y,1/2-z
1/2-x,-y,1/2-z
1/2+x,y,1/2-z
1/2-x,y,1/2+z
1/2+x,-y,1/2+z
1/2+x,1/2+y,z
1/2-x,1/2-y,z
1/2+x,1/2-y,-z
1/2-x,1/2+y,-z
1/2-x,1/2-y,-z
1/2+x,1/2+y,-z
1/2-x,1/2+y,z
1/2+x,1/2-y,z
loop_
_atom_site_type_symbol
_atom_site_label
_atom_site_fract_x
_atom_site_fract_y
_atom_site_fract_z
Si Si1 0.147738 0.439329 0.601409
Si Si2 0.731222 0.311238 0.000000
Si Si3 0.912698 0.061467 0.652412
Si Si4 0.700003 0.399999 0.435930
Si Si5 0.915081 0.129864 0.000000
Si Si6 0.582050 0.562950 0.780358
O O1 0.120609 0.500000 0.596010
O O2 0.235062 0.436873 0.589327
O O3 0.099192 0.405536 0.556717
O O4 0.134475 0.417818 0.667111
O O5 0.750000 0.250000 0.000000
O O6 0.767608 0.339732 0.943014
O O7 0.641938 0.320267 0.000000
O O8 0.870433 0.098470 0.606221
O O9 0.888230 0.081083 0.716920
O O10 0.000000 0.069948 0.643776
O O11 0.891247 0.000000 0.641812
O O12 0.677243 0.421756 0.500000
O O13 0.000000 0.150575 0.000000
O O14 0.500000 0.586644 0.791262
O O15 0.576859 0.500000 0.777644
#
# Coordination Sequence:
#
# PCOD8283784 Si02
#       6
#    32  16  32  32  16  32
#     4  10  17  26  41  64  97 129 149 175 213 256
#     4   8  18  37  51  61  85 113 138 189 243 271
#     4   9  17  29  43  62  93 127 154 183 215 251
#     4   9  19  30  44  65  87 111 152 191 219 273
#     4  10  19  28  44  71  92 114 150 180 219 275
#     4   8  15  26  39  58  88 127 161 179 201 247
#
# _framework density 15.329053999999999
#
# number of rings (size 3 to 8) (size 9 to 14) (size 15 to 20)
#    0.600    2.400    1.000    2.700    0.000    4.000 
#    0.000    5.000    0.000    0.000    0.000   11.200 
#    0.000   14.400    0.000    0.000    0.000    0.000 
#
# Total GULP energy -495606.160315 kJ/mol
# GULP energy per Si atom -12390.154008 kJ/mol
# Density = 1.529416 g / cm^3
# Si number density = 15.329054 Si / 1000 Ang^3
#
#
#
# Elastic Constant Matrix: (Units=GPa)
#
#
# Indices 1 2 3 4 5 6 
#
# 1 80.2550 34.0144 62.1243 0.0000 0.0000 0.0000
# 2 34.0144 59.9997 29.5886 0.0000 0.0000 0.0000
# 3 62.1243 29.5886 139.2928 0.0000 0.0000 0.0000
# 4 0.0000 0.0000 0.0000 3.1216 0.0000 0.0000
# 5 0.0000 0.0000 0.0000 0.0000 31.1604 0.0000
# 6 0.0000 0.0000 0.0000 0.0000 0.0000 12.1505
#
#
#
# Elastic Compliance Matrix: (Units=1/GPa)
#
#
# Indices 1 2 3 4 5 6 
#
# 1 0.022482 -0.008713 -0.008176 0.000000 0.000000 0.000000
# 2 -0.008713 0.021994 -0.000786 0.000000 0.000000 0.000000
# 3 -0.008176 -0.000786 0.010993 0.000000 0.000000 0.000000
# 4 0.000000 0.000000 0.000000 0.320350 0.000000 0.000000
# 5 0.000000 0.000000 0.000000 0.000000 0.032092 0.000000
# 6 0.000000 0.000000 0.000000 0.000000 0.000000 0.082301
#
#
# Mechanical properties :
#
#
# Convention : Reuss Voigt Hill
#
# Bulk Modulus (GPa) = 49.70639 59.00025 54.35332
# Shear Modulus (GPa) = 9.39376 19.54119 14.46747
#
# Velocity S-wave (km/s) = 2.47818 3.57428 3.07546
# Velocity P-wave (km/s) = 6.37849 7.45699 6.93873
#
# Compressibility (1/GPa) = 0.02011814
#
# Stress axis : x y z
#
# Youngs Moduli (GPa) = 44.47930 45.46702 90.97027
#
# Poissons Ratio (x) = 0.39617 0.74379
# Poissons Ratio (y) = 0.38757 0.07148
# Poissons Ratio (z) = 0.36367 0.03573
#
# Static dielectric constant tensor:
#      x y z
#    x 2.894460 0.000000 0.000000 
#    y 0.000000 2.377430 0.000000 
#    z 0.000000 0.000000 3.170790 
# 
# 
# High freq. dielectric constant tensor:
#      x y z
#    x 1.587860 0.000000 0.000000 
#    y 0.000000 1.521340 0.000000 
#    z 0.000000 0.000000 1.598770 
# 
# From -- ./inp_files/37460.got.cif
#   From: 2010.03.12/outbox.cif.g09.slc.cpg/sg69_19_cif.got.tgz:37460.got - 2010.04.10 23:52:46.
