data_PCOD8283614
_publ_section_title
;
Structure prediction by ZEFSAII (Michael W. Deem and Ramdas Pophale) SiO2 
 PCOD8283614
Probable space group: C C C A
;
_chemical_formula_sum "Si O2"
_cell_formula_units_Z 88
_cell_length_a 22.967625
_cell_length_b 8.800970
_cell_length_c 18.964498
_cell_angle_alpha 90.000000
_cell_angle_beta 90.000000
_cell_angle_gamma 90.000000
_cell_volume 3833.433912
_symmetry_space_group_name_H-M "C C C A"
_symmetry_group_IT_number 68
_space_group.IT_coordinate_system_code '2'
_symmetry_cell_setting 'orthorhombic'
loop_
_space_group_symop_operation_xyz
x,y,z
-x,1/2-y,z
x,1/2-y,1/2-z
-x,y,1/2-z
-x,-y,-z
x,1/2+y,-z
-x,1/2+y,1/2+z
x,-y,1/2+z
1/2+x,1/2+y,z
1/2-x,-y,z
1/2+x,-y,1/2-z
1/2-x,1/2+y,1/2-z
1/2-x,1/2-y,-z
1/2+x,y,-z
1/2-x,y,1/2+z
1/2+x,1/2-y,1/2+z
loop_
_atom_site_type_symbol
_atom_site_label
_atom_site_fract_x
_atom_site_fract_y
_atom_site_fract_z
Si Si1 0.131625 0.425834 0.232267
Si Si2 0.060802 0.428766 0.617476
Si Si3 0.250000 0.500000 0.179019
Si Si4 0.631856 0.939376 0.482084
Si Si5 0.793211 0.826632 0.553192
Si Si6 0.930096 0.911503 0.358248
O O1 0.141530 0.250000 0.250000
O O2 0.100459 0.444186 0.155977
O O3 0.193440 0.516027 0.229017
O O4 0.090205 0.503271 0.288705
O O5 0.078828 0.410710 0.535899
O O6 0.069335 0.267790 0.656799
O O7 0.993521 0.476739 0.621381
O O8 0.236786 0.351593 0.129738
O O9 0.650424 0.783885 0.442610
O O10 0.686897 0.008347 0.524717
O O11 0.613392 0.058464 0.422639
O O12 0.750000 0.750000 0.500000
#
# Coordination Sequence:
#
# PCOD8283614 Si02
#       6
#    16  16   8  16  16  16
#     4  12  27  49  70 103 142 189 244 296 354 427
#     4  11  24  48  71 103 147 188 237 295 355 436
#     4  12  26  48  70 100 146 184 238 296 352 436
#     4  12  23  45  72 108 142 179 241 296 361 427
#     4  12  22  43  72 102 143 183 228 292 361 421
#     4  11  26  44  73 104 143 192 236 291 365 424
#
# _framework density 22.955919999999999
#
# number of rings (size 3 to 8) (size 9 to 14) (size 15 to 20)
#    0.000    0.364    5.455    2.727    0.000    4.364 
#    3.273    0.000    0.000    0.000    0.000    0.000 
#    0.000    0.000    0.000    0.000    0.000    0.000 
#
# Total GULP energy -545776.581063 kJ/mol
# GULP energy per Si atom -12404.013206 kJ/mol
# Density = 2.290367 g / cm^3
# Si number density = 22.955920 Si / 1000 Ang^3
#
#
#
# Elastic Constant Matrix: (Units=GPa)
#
#
# Indices 1 2 3 4 5 6 
#
# 1 117.8939 37.0780 33.3354 0.0000 0.0000 0.0000
# 2 37.0780 98.4955 35.8382 0.0000 0.0000 0.0000
# 3 33.3354 35.8382 86.6613 0.0000 0.0000 0.0000
# 4 0.0000 0.0000 0.0000 39.5006 0.0000 0.0000
# 5 0.0000 0.0000 0.0000 0.0000 48.9055 0.0000
# 6 0.0000 0.0000 0.0000 0.0000 0.0000 33.5991
#
#
#
# Elastic Compliance Matrix: (Units=1/GPa)
#
#
# Indices 1 2 3 4 5 6 
#
# 1 0.010143 -0.002824 -0.002734 0.000000 0.000000 0.000000
# 2 -0.002824 0.012737 -0.004181 0.000000 0.000000 0.000000
# 3 -0.002734 -0.004181 0.014320 0.000000 0.000000 0.000000
# 4 0.000000 0.000000 0.000000 0.025316 0.000000 0.000000
# 5 0.000000 0.000000 0.000000 0.000000 0.020448 0.000000
# 6 0.000000 0.000000 0.000000 0.000000 0.000000 0.029763
#
#
# Mechanical properties :
#
#
# Convention : Reuss Voigt Hill
#
# Bulk Modulus (GPa) = 56.42506 57.28376 56.85441
# Shear Modulus (GPa) = 36.20252 37.52097 36.86175
#
# Velocity S-wave (km/s) = 3.97551 4.04726 4.01154
# Velocity P-wave (km/s) = 6.76062 6.84459 6.80273
#
# Compressibility (1/GPa) = 0.01772262
#
# Stress axis : x y z
#
# Youngs Moduli (GPa) = 98.58722 78.51137 69.83252
#
# Poissons Ratio (x) = 0.22168 0.19093
# Poissons Ratio (y) = 0.27837 0.29198
# Poissons Ratio (z) = 0.26955 0.32827
#
# Static dielectric constant tensor:
#      x y z
#    x 4.267350 0.000000 0.000000 
#    y 0.000000 4.237770 0.000000 
#    z 0.000000 0.000000 4.069580 
# 
# 
# High freq. dielectric constant tensor:
#      x y z
#    x 1.919610 0.000000 0.000000 
#    y 0.000000 1.900770 0.000000 
#    z 0.000000 0.000000 1.906630 
# 
# From -- ./inp_files/40732.got.cif
#   From: 2010.03.12/outbox.cif.g09.slc.cpg/sg68_21_cif.got.tgz:40732.got - 2010.04.10 23:14:56.
