data_PCOD8283055
_publ_section_title
;
Structure prediction by ZEFSAII (Michael W. Deem and Ramdas Pophale) SiO2 
 PCOD8283055
Probable space group: C C C A
;
_chemical_formula_sum "Si O2"
_cell_formula_units_Z 112
_cell_length_a 31.649473
_cell_length_b 15.405491
_cell_length_c 11.106878
_cell_angle_alpha 90.000000
_cell_angle_beta 90.000000
_cell_angle_gamma 90.000000
_cell_volume 5415.443499
_symmetry_space_group_name_H-M "C C C A"
_symmetry_group_IT_number 68
_space_group.IT_coordinate_system_code '2'
_symmetry_cell_setting 'orthorhombic'
loop_
_space_group_symop_operation_xyz
x,y,z
-x,1/2-y,z
x,1/2-y,1/2-z
-x,y,1/2-z
-x,-y,-z
x,1/2+y,-z
-x,1/2+y,1/2+z
x,-y,1/2+z
1/2+x,1/2+y,z
1/2-x,-y,z
1/2+x,-y,1/2-z
1/2-x,1/2+y,1/2-z
1/2-x,1/2-y,-z
1/2+x,y,-z
1/2-x,y,1/2+z
1/2+x,1/2-y,1/2+z
loop_
_atom_site_type_symbol
_atom_site_label
_atom_site_fract_x
_atom_site_fract_y
_atom_site_fract_z
Si Si1 0.326746 0.641273 0.880805
Si Si2 0.598662 0.591235 0.488322
Si Si3 0.390984 0.901330 0.038007
Si Si4 0.450360 0.253695 0.608503
Si Si5 0.843861 0.647891 0.770696
Si Si6 0.683154 0.335002 0.393420
Si Si7 0.731337 0.590784 0.415958
O O1 0.310020 0.644190 0.746353
O O2 0.326657 0.737974 0.934476
O O3 0.375847 0.612017 0.888204
O O4 0.297024 0.580864 0.963694
O O5 0.584224 0.491027 0.505986
O O6 0.560049 0.655528 0.458945
O O7 0.631675 0.608219 0.382661
O O8 0.426360 0.826006 0.044021
O O9 0.361495 0.905040 0.156641
O O10 0.357182 0.890915 0.931860
O O11 0.500000 0.250000 0.591972
O O12 0.437759 0.250000 0.750000
O O13 0.851957 0.750000 0.750000
O O14 0.794593 0.630350 0.801625
O O15 0.728097 0.352757 0.455148
O O16 0.750000 0.500000 0.372106
#
# Coordination Sequence:
#
# PCOD8283055 Si02
#       7
#    16  16  16  16  16  16  16
#     4  10  23  39  57  86 129 170 222 265 324 408
#     4  11  22  41  68  99 129 172 223 267 339 397
#     4  12  23  40  72  96 134 176 222 283 329 403
#     4  11  23  46  75 104 135 171 219 277 340 417
#     4  11  22  44  67  94 131 183 234 277 332 399
#     4  11  23  38  60  90 122 182 219 266 340 382
#     4  11  25  39  57  92 128 171 229 288 331 374
#
# _framework density 20.681591999999998
#
# number of rings (size 3 to 8) (size 9 to 14) (size 15 to 20)
#    0.000    1.000    4.286    3.000    8.000    1.143 
#    0.000    0.000    0.000    1.714    0.000    0.000 
#    0.000    0.000    0.000    0.000    0.000    0.000 
#
# Total GULP energy -693989.406731 kJ/mol
# GULP energy per Si atom -12392.667977 kJ/mol
# Density = 2.063452 g / cm^3
# Si number density = 20.681592 Si / 1000 Ang^3
#
#
#
# Elastic Constant Matrix: (Units=GPa)
#
#
# Indices 1 2 3 4 5 6 
#
# 1 123.5088 52.0109 27.6045 0.0000 0.0000 0.0000
# 2 52.0109 147.5388 32.8892 0.0000 0.0000 0.0000
# 3 27.6045 32.8892 58.9990 0.0000 0.0000 0.0000
# 4 0.0000 0.0000 0.0000 29.3517 0.0000 0.0000
# 5 0.0000 0.0000 0.0000 0.0000 22.7338 0.0000
# 6 0.0000 0.0000 0.0000 0.0000 0.0000 26.7956
#
#
#
# Elastic Compliance Matrix: (Units=1/GPa)
#
#
# Indices 1 2 3 4 5 6 
#
# 1 0.009979 -0.002828 -0.003092 0.000000 0.000000 0.000000
# 2 -0.002828 0.008541 -0.003438 0.000000 0.000000 0.000000
# 3 -0.003092 -0.003438 0.020313 0.000000 0.000000 0.000000
# 4 0.000000 0.000000 0.000000 0.034070 0.000000 0.000000
# 5 0.000000 0.000000 0.000000 0.000000 0.043987 0.000000
# 6 0.000000 0.000000 0.000000 0.000000 0.000000 0.037319
#
#
# Mechanical properties :
#
#
# Convention : Reuss Voigt Hill
#
# Bulk Modulus (GPa) = 49.71260 61.67286 55.69273
# Shear Modulus (GPa) = 27.83471 30.27903 29.05687
#
# Velocity S-wave (km/s) = 3.67259 3.83045 3.75235
# Velocity P-wave (km/s) = 6.48638 7.03193 6.76466
#
# Compressibility (1/GPa) = 0.02011562
#
# Stress axis : x y z
#
# Youngs Moduli (GPa) = 100.21261 117.07717 49.23015
#
# Poissons Ratio (x) = 0.33115 0.15223
# Poissons Ratio (y) = 0.28345 0.16925
# Poissons Ratio (z) = 0.30987 0.40252
#
# Static dielectric constant tensor:
#      x y z
#    x 3.691530 0.000000 0.000000 
#    y 0.000000 3.971380 0.000000 
#    z 0.000000 0.000000 3.718580 
# 
# 
# High freq. dielectric constant tensor:
#      x y z
#    x 1.795180 0.000000 0.000000 
#    y 0.000000 1.817880 0.000000 
#    z 0.000000 0.000000 1.801690 
# 
# From -- ./inp_files/17768.got.cif
#   From: 2010.03.12/outbox.cif.g09.slc.cpg/sg68_9_cif.got.tgz:17768.got - 2010.04.10 23:14:56.
