data_PCOD8283199
_publ_section_title
;
Structure prediction by ZEFSAII (Michael W. Deem and Ramdas Pophale) SiO2 
 PCOD8283199
Probable space group: C C C A
;
_chemical_formula_sum "Si O2"
_cell_formula_units_Z 56
_cell_length_a 26.220256
_cell_length_b 10.491079
_cell_length_c 8.459266
_cell_angle_alpha 90.000000
_cell_angle_beta 90.000000
_cell_angle_gamma 90.000000
_cell_volume 2326.964546
_symmetry_space_group_name_H-M "C C C A"
_symmetry_group_IT_number 68
_space_group.IT_coordinate_system_code '2'
_symmetry_cell_setting 'orthorhombic'
loop_
_space_group_symop_operation_xyz
x,y,z
-x,1/2-y,z
x,1/2-y,1/2-z
-x,y,1/2-z
-x,-y,-z
x,1/2+y,-z
-x,1/2+y,1/2+z
x,-y,1/2+z
1/2+x,1/2+y,z
1/2-x,-y,z
1/2+x,-y,1/2-z
1/2-x,1/2+y,1/2-z
1/2-x,1/2-y,-z
1/2+x,y,-z
1/2-x,y,1/2+z
1/2+x,1/2-y,1/2+z
loop_
_atom_site_type_symbol
_atom_site_label
_atom_site_fract_x
_atom_site_fract_y
_atom_site_fract_z
Si Si1 0.205395 0.599725 0.490284
Si Si2 0.901501 0.882037 0.346734
Si Si3 0.556208 0.621980 0.321611
Si Si4 0.738835 0.750000 0.250000
O O1 0.250000 0.500000 0.457011
O O2 0.149216 0.563955 0.433566
O O3 0.221733 0.721029 0.389041
O O4 0.203392 0.636791 0.677867
O O5 0.894984 0.750000 0.250000
O O6 0.943543 0.865947 0.486547
O O7 0.915804 0.991622 0.224044
O O8 0.582897 0.750000 0.250000
O O9 0.500000 0.615143 0.250000
#
# Coordination Sequence:
#
# PCOD8283199 Si02
#       4
#    16  16  16   8
#     4  11  25  43  69 105 151 202 248 310 378 445
#     4  12  27  48  81 114 152 207 264 318 389 466
#     4  11  27  50  77 113 154 198 256 328 396 464
#     4  10  24  42  66  98 152 190 256 304 370 444
#
# _framework density 24.065687
#
# number of rings (size 3 to 8) (size 9 to 14) (size 15 to 20)
#    0.000    0.857    1.429    3.429   10.000    5.143 
#    0.000    0.000    0.000    0.000    0.000    0.000 
#    0.000    0.000    0.000    0.000    0.000    0.000 
#
# Total GULP energy -346865.678430 kJ/mol
# GULP energy per Si atom -12388.059944 kJ/mol
# Density = 2.401091 g / cm^3
# Si number density = 24.065687 Si / 1000 Ang^3
#
#
#
# Elastic Constant Matrix: (Units=GPa)
#
#
# Indices 1 2 3 4 5 6 
#
# 1 120.4384 31.3189 40.2488 0.0000 0.0000 0.0000
# 2 31.3189 130.5616 30.6386 0.0000 0.0000 0.0000
# 3 40.2488 30.6386 137.0869 0.0000 0.0000 0.0000
# 4 0.0000 0.0000 0.0000 36.2420 0.0000 0.0000
# 5 0.0000 0.0000 0.0000 0.0000 32.0588 0.0000
# 6 0.0000 0.0000 0.0000 0.0000 0.0000 13.7718
#
#
#
# Elastic Compliance Matrix: (Units=1/GPa)
#
#
# Indices 1 2 3 4 5 6 
#
# 1 0.009561 -0.001725 -0.002421 0.000000 0.000000 0.000000
# 2 -0.001725 0.008394 -0.001370 0.000000 0.000000 0.000000
# 3 -0.002421 -0.001370 0.008312 0.000000 0.000000 0.000000
# 4 0.000000 0.000000 0.000000 0.027592 0.000000 0.000000
# 5 0.000000 0.000000 0.000000 0.000000 0.031193 0.000000
# 6 0.000000 0.000000 0.000000 0.000000 0.000000 0.072612
#
#
# Mechanical properties :
#
#
# Convention : Reuss Voigt Hill
#
# Bulk Modulus (GPa) = 65.64095 65.83326 65.73710
# Shear Modulus (GPa) = 28.77285 35.47323 32.12304
#
# Velocity S-wave (km/s) = 3.46149 3.84346 3.65746
# Velocity P-wave (km/s) = 6.58110 6.86376 6.72392
#
# Compressibility (1/GPa) = 0.01523439
#
# Stress axis : x y z
#
# Youngs Moduli (GPa) = 104.59323 119.12618 120.31236
#
# Poissons Ratio (x) = 0.20552 0.29134
# Poissons Ratio (y) = 0.18044 0.16478
# Poissons Ratio (z) = 0.25327 0.16316
#
# Static dielectric constant tensor:
#      x y z
#    x 4.273380 0.000000 0.000000 
#    y 0.000000 4.500500 0.000000 
#    z 0.000000 0.000000 4.875230 
# 
# 
# High freq. dielectric constant tensor:
#      x y z
#    x 1.943430 0.000000 0.000000 
#    y 0.000000 1.957890 0.000000 
#    z 0.000000 0.000000 1.977730 
# 
# From -- ./inp_files/9308.got.cif
#   From: 2010.03.12/outbox.cif.g09.slc.cpg/sg68_5_cif.got.tgz:9308.got - 2010.04.10 23:14:56.
