data_PCOD8283002
_publ_section_title
;
Structure prediction by ZEFSAII (Michael W. Deem and Ramdas Pophale) SiO2 
 PCOD8283002
Probable space group: C C C A
;
_chemical_formula_sum "Si O2"
_cell_formula_units_Z 112
_cell_length_a 25.156453
_cell_length_b 12.024859
_cell_length_c 15.512155
_cell_angle_alpha 90.000000
_cell_angle_beta 90.000000
_cell_angle_gamma 90.000000
_cell_volume 4692.470326
_symmetry_space_group_name_H-M "C C C A"
_symmetry_group_IT_number 68
_space_group.IT_coordinate_system_code '2'
_symmetry_cell_setting 'orthorhombic'
loop_
_space_group_symop_operation_xyz
x,y,z
-x,1/2-y,z
x,1/2-y,1/2-z
-x,y,1/2-z
-x,-y,-z
x,1/2+y,-z
-x,1/2+y,1/2+z
x,-y,1/2+z
1/2+x,1/2+y,z
1/2-x,-y,z
1/2+x,-y,1/2-z
1/2-x,1/2+y,1/2-z
1/2-x,1/2-y,-z
1/2+x,y,-z
1/2-x,y,1/2+z
1/2+x,1/2-y,1/2+z
loop_
_atom_site_type_symbol
_atom_site_label
_atom_site_fract_x
_atom_site_fract_y
_atom_site_fract_z
Si Si1 0.448648 0.809479 0.905867
Si Si2 0.102287 0.472400 0.096060
Si Si3 0.444046 0.730689 0.399236
Si Si4 0.134432 0.956783 0.594365
Si Si5 0.152951 0.814665 0.160277
Si Si6 0.205964 0.085627 0.322949
Si Si7 0.727698 0.178849 0.867099
O O1 0.500000 0.750000 0.860194
O O2 0.393180 0.746141 0.892172
O O3 0.441596 0.936550 0.872371
O O4 0.459528 0.813842 0.006695
O O5 0.083328 0.348159 0.101623
O O6 0.151595 0.481560 0.161496
O O7 0.115487 0.496683 0.996649
O O8 0.500000 0.750000 0.348262
O O9 0.404754 0.635747 0.361298
O O10 0.192170 0.901539 0.572983
O O11 0.136918 0.055181 0.665985
O O12 0.160993 0.750000 0.250000
O O13 0.209594 0.817076 0.110422
O O14 0.217216 0.126297 0.226726
O O15 0.206208 0.196467 0.381153
O O16 0.250000 0.000000 0.354071
#
# Coordination Sequence:
#
# PCOD8283002 Si02
#       7
#    16  16  16  16  16  16  16
#     4  10  24  41  66  96 132 174 222 279 339 400
#     4  11  23  42  67 103 134 170 225 285 338 405
#     4  10  22  43  70  97 128 178 222 275 348 400
#     4  11  24  42  68 101 137 173 225 289 335 404
#     4  12  24  42  67  96 133 183 228 272 332 411
#     4  11  22  41  67  97 129 180 220 268 334 410
#     4  11  24  42  67  96 135 182 224 268 344 409
#
# _framework density 23.868027000000001
#
# number of rings (size 3 to 8) (size 9 to 14) (size 15 to 20)
#    0.000    1.143    4.286    2.143    4.000    3.143 
#    0.000    2.857    0.000    1.714    0.000    0.000 
#    0.000    0.000    0.000    0.000    0.000    0.000 
#
# Total GULP energy -693805.904882 kJ/mol
# GULP energy per Si atom -12389.391159 kJ/mol
# Density = 2.381370 g / cm^3
# Si number density = 23.868027 Si / 1000 Ang^3
#
#
#
# Elastic Constant Matrix: (Units=GPa)
#
#
# Indices 1 2 3 4 5 6 
#
# 1 157.5576 61.4722 21.0320 0.0000 0.0000 0.0000
# 2 61.4722 183.9558 17.9629 0.0000 0.0000 0.0000
# 3 21.0320 17.9629 22.2399 0.0000 0.0000 0.0000
# 4 0.0000 0.0000 0.0000 197.0916 0.0000 0.0000
# 5 0.0000 0.0000 0.0000 0.0000 18.2370 0.0000
# 6 0.0000 0.0000 0.0000 0.0000 0.0000 46.3363
#
#
#
# Elastic Compliance Matrix: (Units=1/GPa)
#
#
# Indices 1 2 3 4 5 6 
#
# 1 0.007937 -0.002084 -0.005823 0.000000 0.000000 0.000000
# 2 -0.002084 0.006449 -0.003238 0.000000 0.000000 0.000000
# 3 -0.005823 -0.003238 0.053086 0.000000 0.000000 0.000000
# 4 0.000000 0.000000 0.000000 0.005074 0.000000 0.000000
# 5 0.000000 0.000000 0.000000 0.000000 0.054834 0.000000
# 6 0.000000 0.000000 0.000000 0.000000 0.000000 0.021581
#
#
# Mechanical properties :
#
#
# Convention : Reuss Voigt Hill
#
# Bulk Modulus (GPa) = 22.13239 62.74305 42.43772
# Shear Modulus (GPa) = 26.83683 69.88540 48.36111
#
# Velocity S-wave (km/s) = 3.35682 5.41696 4.50620
# Velocity P-wave (km/s) = 4.93126 8.09130 6.70024
#
# Compressibility (1/GPa) = 0.04518265
#
# Stress axis : x y z
#
# Youngs Moduli (GPa) = 125.98928 155.07288 18.83724
#
# Poissons Ratio (x) = 0.32313 0.10969
# Poissons Ratio (y) = 0.26253 0.06099
# Poissons Ratio (z) = 0.73365 0.50211
#
# Static dielectric constant tensor:
#      x y z
#    x 4.980760 0.000000 0.000000 
#    y 0.000000 4.906020 0.000000 
#    z 0.000000 0.000000 3.778990 
# 
# 
# High freq. dielectric constant tensor:
#      x y z
#    x 1.958980 0.000000 0.000000 
#    y 0.000000 1.977940 0.000000 
#    z 0.000000 0.000000 1.894100 
# 
# From -- ./inp_files/40911.got.cif
#   From: 2010.03.12/outbox.cif.g09.slc.cpg/sg68_21_cif.got.tgz:40911.got - 2010.04.10 23:14:56.
