data_PCOD8283879
_publ_section_title
;
Structure prediction by ZEFSAII (Michael W. Deem and Ramdas Pophale) SiO2 
 PCOD8283879
Probable space group: F M M M
;
_chemical_formula_sum "Si O2"
_cell_formula_units_Z 160
_cell_length_a 30.947543
_cell_length_b 15.833576
_cell_length_c 17.633506
_cell_angle_alpha 90.000000
_cell_angle_beta 90.000000
_cell_angle_gamma 90.000000
_cell_volume 8640.599108
_symmetry_space_group_name_H-M "F M M M"
_symmetry_group_IT_number 69
_symmetry_cell_setting 'orthorhombic'
loop_
_space_group_symop_operation_xyz
x,y,z
-x,-y,z
x,-y,-z
-x,y,-z
-x,-y,-z
x,y,-z
-x,y,z
x,-y,z
x,1/2+y,1/2+z
-x,1/2-y,1/2+z
x,1/2-y,1/2-z
-x,1/2+y,1/2-z
-x,1/2-y,1/2-z
x,1/2+y,1/2-z
-x,1/2+y,1/2+z
x,1/2-y,1/2+z
1/2+x,y,1/2+z
1/2-x,-y,1/2+z
1/2+x,-y,1/2-z
1/2-x,y,1/2-z
1/2-x,-y,1/2-z
1/2+x,y,1/2-z
1/2-x,y,1/2+z
1/2+x,-y,1/2+z
1/2+x,1/2+y,z
1/2-x,1/2-y,z
1/2+x,1/2-y,-z
1/2-x,1/2+y,-z
1/2-x,1/2-y,-z
1/2+x,1/2+y,-z
1/2-x,1/2+y,z
1/2+x,1/2-y,z
loop_
_atom_site_type_symbol
_atom_site_label
_atom_site_fract_x
_atom_site_fract_y
_atom_site_fract_z
Si Si1 0.949746 0.500000 0.271891
Si Si2 0.098889 0.000000 0.081016
Si Si3 0.753176 0.850598 0.335001
Si Si4 0.394415 0.341966 0.270760
Si Si5 0.840126 0.331475 0.086252
Si Si6 0.838128 0.142600 0.872532
O O1 0.940608 0.500000 0.361231
O O2 0.929574 0.585205 0.238596
O O3 0.000000 0.500000 0.254064
O O4 0.129157 0.081317 0.086016
O O5 0.075854 0.000000 0.000000
O O6 0.750000 0.887260 0.250000
O O7 0.750000 0.750000 0.332293
O O8 0.796541 0.875311 0.380598
O O9 0.711197 0.890489 0.376570
O O10 0.415264 0.250000 0.250000
O O11 0.379629 0.353729 0.357799
O O12 0.352649 0.350033 0.215855
O O13 0.837816 0.230800 0.083880
O O14 0.848199 0.364319 0.000000
#
# Coordination Sequence:
#
# PCOD8283879 Si02
#       6
#    16  16  32  32  32  32
#     4  10  22  39  60  83 100 129 173 206 258 335
#     4  10  20  33  50  75 106 131 158 212 271 312
#     4   9  15  26  45  68 101 141 179 218 254 290
#     4   9  18  35  56  77 105 140 172 211 258 311
#     4  10  18  28  49  76 101 137 183 222 252 288
#     4   9  17  30  48  70 103 143 178 207 252 310
#
# _framework density 18.517234999999999
#
# number of rings (size 3 to 8) (size 9 to 14) (size 15 to 20)
#    0.000    2.600    2.000    0.600    0.000    5.000 
#    0.000    2.000    0.000    1.200    0.000    0.000 
#    0.000    0.000    0.000    0.000    0.000    0.000 
#
# Total GULP energy -495629.425914 kJ/mol
# GULP energy per Si atom -12390.735648 kJ/mol
# Density = 1.847509 g / cm^3
# Si number density = 18.517235 Si / 1000 Ang^3
#
#
#
# Elastic Constant Matrix: (Units=GPa)
#
#
# Indices 1 2 3 4 5 6 
#
# 1 108.1649 44.4869 43.0414 0.0000 0.0000 0.0000
# 2 44.4869 72.2920 24.3578 0.0000 0.0000 0.0000
# 3 43.0414 24.3578 148.4504 0.0000 0.0000 0.0000
# 4 0.0000 0.0000 0.0000 8.6271 0.0000 0.0000
# 5 0.0000 0.0000 0.0000 0.0000 10.7253 0.0000
# 6 0.0000 0.0000 0.0000 0.0000 0.0000 -14.9254
#
#
#
# Elastic Compliance Matrix: (Units=1/GPa)
#
#
# Indices 1 2 3 4 5 6 
#
# 1 0.013302 -0.007289 -0.002661 0.000000 0.000000 0.000000
# 2 -0.007289 0.018637 -0.000944 0.000000 0.000000 0.000000
# 3 -0.002661 -0.000944 0.007663 0.000000 0.000000 0.000000
# 4 0.000000 0.000000 0.000000 0.115913 0.000000 0.000000
# 5 0.000000 0.000000 0.000000 0.000000 0.093237 0.000000
# 6 0.000000 0.000000 0.000000 0.000000 0.000000 -0.067000
#
#
# Mechanical properties :
#
#
# Convention : Reuss Voigt Hill
#
# Bulk Modulus (GPa) = 56.14067 61.40884 58.77476
# Shear Modulus (GPa) = 23.86883 15.35348 19.61116
#
# Velocity S-wave (km/s) = 3.59417 2.88261 3.25788
# Velocity P-wave (km/s) = 6.89985 6.65690 6.77946
#
# Compressibility (1/GPa) = 0.01781240
#
# Stress axis : x y z
#
# Youngs Moduli (GPa) = 75.17747 53.65772 130.50282
#
# Poissons Ratio (x) = 0.39112 0.34723
# Poissons Ratio (y) = 0.54798 0.12326
# Poissons Ratio (z) = 0.20002 0.05068
#
# Static dielectric constant tensor:
#      x y z
#    x 3.064000 0.000000 0.000000 
#    y 0.000000 3.263390 0.000000 
#    z 0.000000 0.000000 3.395880 
# 
# 
# High freq. dielectric constant tensor:
#      x y z
#    x 1.684030 0.000000 0.000000 
#    y 0.000000 1.699820 0.000000 
#    z 0.000000 0.000000 1.716820 
# 
# From -- ./inp_files/23234.got.cif
#   From: 2010.03.12/outbox.cif.g09.slc.cpg/sg69_12_cif.got.tgz:23234.got - 2010.04.10 23:52:46.
