data_PCOD8283823
_publ_section_title
;
Structure prediction by ZEFSAII (Michael W. Deem and Ramdas Pophale) SiO2 
 PCOD8283823
Probable space group: F M M M
;
_chemical_formula_sum "Si O2"
_cell_formula_units_Z 160
_cell_length_a 24.751523
_cell_length_b 23.558231
_cell_length_c 17.023574
_cell_angle_alpha 90.000000
_cell_angle_beta 90.000000
_cell_angle_gamma 90.000000
_cell_volume 9926.481688
_symmetry_space_group_name_H-M "F M M M"
_symmetry_group_IT_number 69
_symmetry_cell_setting 'orthorhombic'
loop_
_space_group_symop_operation_xyz
x,y,z
-x,-y,z
x,-y,-z
-x,y,-z
-x,-y,-z
x,y,-z
-x,y,z
x,-y,z
x,1/2+y,1/2+z
-x,1/2-y,1/2+z
x,1/2-y,1/2-z
-x,1/2+y,1/2-z
-x,1/2-y,1/2-z
x,1/2+y,1/2-z
-x,1/2+y,1/2+z
x,1/2-y,1/2+z
1/2+x,y,1/2+z
1/2-x,-y,1/2+z
1/2+x,-y,1/2-z
1/2-x,y,1/2-z
1/2-x,-y,1/2-z
1/2+x,y,1/2-z
1/2-x,y,1/2+z
1/2+x,-y,1/2+z
1/2+x,1/2+y,z
1/2-x,1/2-y,z
1/2+x,1/2-y,-z
1/2-x,1/2+y,-z
1/2-x,1/2-y,-z
1/2+x,1/2+y,-z
1/2-x,1/2+y,z
1/2+x,1/2-y,z
loop_
_atom_site_type_symbol
_atom_site_label
_atom_site_fract_x
_atom_site_fract_y
_atom_site_fract_z
Si Si1 0.169929 0.435294 0.592205
Si Si2 0.557871 0.741700 0.092925
Si Si3 0.327369 0.731468 0.407903
Si Si4 0.058799 0.386586 0.406789
Si Si5 0.763183 0.164539 0.840895
O O1 0.172802 0.421816 0.500000
O O2 0.185142 0.500000 0.610819
O O3 0.109126 0.423645 0.624733
O O4 0.213524 0.396409 0.635810
O O5 0.500000 0.765767 0.125801
O O6 0.610091 0.778677 0.118659
O O7 0.566381 0.677653 0.123569
O O8 0.554362 0.740640 0.000000
O O9 0.323325 0.745508 0.500000
O O10 0.292949 0.675558 0.387603
O O11 0.305272 0.785881 0.361223
O O12 0.059256 0.388315 0.500000
O O13 0.000000 0.409982 0.377205
O O14 0.750000 0.165603 0.750000
#
# Coordination Sequence:
#
# PCOD8283823 Si02
#       5
#    32  32  32  32  32
#     4  10  19  31  47  66  88 115 152 189 217 255
#     4   8  13  22  41  68  92 111 135 175 221 259
#     4  10  17  29  50  68  87 115 151 184 217 261
#     4   8  13  23  40  64  92 115 138 173 217 260
#     4  11  21  31  43  62  91 121 150 185 220 262
#
# _framework density 16.118500999999998
#
# number of rings (size 3 to 8) (size 9 to 14) (size 15 to 20)
#    0.000    2.600    2.000    4.800    0.000    0.800 
#    0.000    2.000    0.000    3.600    0.000    0.000 
#    0.000    0.800    0.000    7.400    0.000    0.000 
#
# Total GULP energy -495555.140110 kJ/mol
# GULP energy per Si atom -12388.878503 kJ/mol
# Density = 1.608181 g / cm^3
# Si number density = 16.118501 Si / 1000 Ang^3
#
#
#
# Elastic Constant Matrix: (Units=GPa)
#
#
# Indices 1 2 3 4 5 6 
#
# 1 167.3326 63.8709 42.6304 0.0000 0.0000 0.0000
# 2 63.8709 66.7604 23.9526 0.0000 0.0000 0.0000
# 3 42.6304 23.9526 49.6766 0.0000 0.0000 0.0000
# 4 0.0000 0.0000 0.0000 25.0640 0.0000 0.0000
# 5 0.0000 0.0000 0.0000 0.0000 1.3835 0.0000
# 6 0.0000 0.0000 0.0000 0.0000 0.0000 22.9644
#
#
#
# Elastic Compliance Matrix: (Units=1/GPa)
#
#
# Indices 1 2 3 4 5 6 
#
# 1 0.010334 -0.008108 -0.004959 0.000000 0.000000 0.000000
# 2 -0.008108 0.024473 -0.004843 0.000000 0.000000 0.000000
# 3 -0.004959 -0.004843 0.026721 0.000000 0.000000 0.000000
# 4 0.000000 0.000000 0.000000 0.039898 0.000000 0.000000
# 5 0.000000 0.000000 0.000000 0.000000 0.722807 0.000000
# 6 0.000000 0.000000 0.000000 0.000000 0.000000 0.043546
#
#
# Mechanical properties :
#
#
# Convention : Reuss Voigt Hill
#
# Bulk Modulus (GPa) = 38.89611 60.51973 49.70792
# Shear Modulus (GPa) = 5.48145 20.10340 12.79243
#
# Velocity S-wave (km/s) = 1.84610 3.53544 2.82023
# Velocity P-wave (km/s) = 5.35984 7.36845 6.44290
#
# Compressibility (1/GPa) = 0.02570951
#
# Stress axis : x y z
#
# Youngs Moduli (GPa) = 96.76555 40.86102 37.42389
#
# Poissons Ratio (x) = 0.33129 0.18559
# Poissons Ratio (y) = 0.78455 0.18123
# Poissons Ratio (z) = 0.47987 0.19787
#
# Static dielectric constant tensor:
#      x y z
#    x 3.778340 0.000000 0.000000 
#    y 0.000000 2.792960 0.000000 
#    z 0.000000 0.000000 2.659820 
# 
# 
# High freq. dielectric constant tensor:
#      x y z
#    x 1.643350 0.000000 0.000000 
#    y 0.000000 1.578360 0.000000 
#    z 0.000000 0.000000 1.573980 
# 
# From -- ./inp_files/17709.got.cif
#   From: 2010.03.12/outbox.cif.g09.slc.cpg/sg69_9_cif.got.tgz:17709.got - 2010.04.10 23:52:46.
