data_PCOD8283839
_publ_section_title
;
Structure prediction by ZEFSAII (Michael W. Deem and Ramdas Pophale) SiO2 
 PCOD8283839
Probable space group: F M M M
;
_chemical_formula_sum "Si O2"
_cell_formula_units_Z 152
_cell_length_a 30.247556
_cell_length_b 20.056917
_cell_length_c 14.852940
_cell_angle_alpha 90.000000
_cell_angle_beta 90.000000
_cell_angle_gamma 90.000000
_cell_volume 9010.873512
_symmetry_space_group_name_H-M "F M M M"
_symmetry_group_IT_number 69
_symmetry_cell_setting 'orthorhombic'
loop_
_space_group_symop_operation_xyz
x,y,z
-x,-y,z
x,-y,-z
-x,y,-z
-x,-y,-z
x,y,-z
-x,y,z
x,-y,z
x,1/2+y,1/2+z
-x,1/2-y,1/2+z
x,1/2-y,1/2-z
-x,1/2+y,1/2-z
-x,1/2-y,1/2-z
x,1/2+y,1/2-z
-x,1/2+y,1/2+z
x,1/2-y,1/2+z
1/2+x,y,1/2+z
1/2-x,-y,1/2+z
1/2+x,-y,1/2-z
1/2-x,y,1/2-z
1/2-x,-y,1/2-z
1/2+x,y,1/2-z
1/2-x,y,1/2+z
1/2+x,-y,1/2+z
1/2+x,1/2+y,z
1/2-x,1/2-y,z
1/2+x,1/2-y,-z
1/2-x,1/2+y,-z
1/2-x,1/2-y,-z
1/2+x,1/2+y,-z
1/2-x,1/2+y,z
1/2+x,1/2-y,z
loop_
_atom_site_type_symbol
_atom_site_label
_atom_site_fract_x
_atom_site_fract_y
_atom_site_fract_z
Si Si1 0.000000 0.877474 0.000000
Si Si2 0.405693 0.925243 0.500000
Si Si3 0.427576 0.250000 0.750000
Si Si4 0.636574 0.164233 0.647943
Si Si5 0.500000 0.750017 0.397058
Si Si6 0.822200 0.253761 0.500000
Si Si7 0.781652 0.425604 0.666847
Si Si8 0.756420 0.642161 0.000000
O O1 0.041575 0.925729 0.000000
O O2 0.000000 0.830124 0.089091
O O3 0.388341 0.889316 0.587980
O O4 0.387570 0.000000 0.500000
O O5 0.396002 0.187182 0.727650
O O6 0.456957 0.269668 0.662138
O O7 0.649193 0.230045 0.589352
O O8 0.679654 0.127536 0.686865
O O9 0.500000 0.717509 0.500000
O O10 0.804944 0.177373 0.500000
O O11 0.780828 0.302274 0.500000
O O12 0.800990 0.500000 0.649012
O O13 0.750000 0.426128 0.750000
O O14 0.749970 0.404440 0.585558
#
# Coordination Sequence:
#
# PCOD8283839 Si02
#       8
#     8  16  16  32  16  16  32  16
#     4  10  17  36  48  78 112 132 175 204 264 328
#     4  11  20  34  56  79 111 143 173 223 279 336
#     4  11  20  32  57  78 106 146 171 218 272 329
#     4  10  20  33  51  79 105 141 179 218 275 321
#     4   9  19  37  54  74 114 141 171 213 260 344
#     4   8  18  31  47  73 106 126 174 224 257 308
#     4  10  21  35  50  71 101 138 181 223 263 310
#     4   9  17  34  50  67  95 144 174 211 264 310
#
# _framework density 16.868507999999999
#
# number of rings (size 3 to 8) (size 9 to 14) (size 15 to 20)
#    0.316    1.895    2.105    1.737    4.421    0.000 
#    0.000    0.000    0.000    0.000    0.000    0.000 
#    0.000    3.368    0.000    0.000    0.000    0.000 
#
# Total GULP energy -470938.101226 kJ/mol
# GULP energy per Si atom -12393.107927 kJ/mol
# Density = 1.683011 g / cm^3
# Si number density = 16.868508 Si / 1000 Ang^3
#
#
#
# Elastic Constant Matrix: (Units=GPa)
#
#
# Indices 1 2 3 4 5 6 
#
# 1 91.3726 47.3054 39.1910 0.0000 0.0000 0.0000
# 2 47.3054 85.2602 49.9270 0.0000 0.0000 0.0000
# 3 39.1910 49.9270 100.4581 0.0000 0.0000 0.0000
# 4 0.0000 0.0000 0.0000 18.6949 0.0000 0.0000
# 5 0.0000 0.0000 0.0000 0.0000 26.0471 0.0000
# 6 0.0000 0.0000 0.0000 0.0000 0.0000 20.6119
#
#
#
# Elastic Compliance Matrix: (Units=1/GPa)
#
#
# Indices 1 2 3 4 5 6 
#
# 1 0.015805 -0.007276 -0.002550 0.000000 0.000000 0.000000
# 2 -0.007276 0.019893 -0.007048 0.000000 0.000000 0.000000
# 3 -0.002550 -0.007048 0.014452 0.000000 0.000000 0.000000
# 4 0.000000 0.000000 0.000000 0.053490 0.000000 0.000000
# 5 0.000000 0.000000 0.000000 0.000000 0.038392 0.000000
# 6 0.000000 0.000000 0.000000 0.000000 0.000000 0.048516
#
#
# Mechanical properties :
#
#
# Convention : Reuss Voigt Hill
#
# Bulk Modulus (GPa) = 60.96784 61.10421 61.03603
# Shear Modulus (GPa) = 21.76157 22.44863 22.10510
#
# Velocity S-wave (km/s) = 3.59565 3.65197 3.62392
# Velocity P-wave (km/s) = 7.31162 7.35425 7.33296
#
# Compressibility (1/GPa) = 0.01640209
#
# Stress axis : x y z
#
# Youngs Moduli (GPa) = 63.27227 50.26871 69.19462
#
# Poissons Ratio (x) = 0.36575 0.17642
# Poissons Ratio (y) = 0.46037 0.48770
# Poissons Ratio (z) = 0.16132 0.35430
#
# Static dielectric constant tensor:
#      x y z
#    x 3.366870 0.000000 0.000000 
#    y 0.000000 3.195410 0.000000 
#    z 0.000000 0.000000 2.484320 
# 
# 
# High freq. dielectric constant tensor:
#      x y z
#    x 1.656140 0.000000 0.000000 
#    y 0.000000 1.627550 0.000000 
#    z 0.000000 0.000000 1.646920 
# 
# From -- ./inp_files/18952.got.cif
#   From: 2010.03.12/outbox.cif.g09.slc.cpg/sg69_10_cif.got.tgz:18952.got - 2010.04.10 23:52:46.
