data_PCOD8283910
_publ_section_title
;
Structure prediction by ZEFSAII (Michael W. Deem and Ramdas Pophale) SiO2 
 PCOD8283910
Probable space group: F M M M
;
_chemical_formula_sum "Si O2"
_cell_formula_units_Z 128
_cell_length_a 25.634253
_cell_length_b 34.358601
_cell_length_c 8.921356
_cell_angle_alpha 90.000000
_cell_angle_beta 90.000000
_cell_angle_gamma 90.000000
_cell_volume 7857.547378
_symmetry_space_group_name_H-M "F M M M"
_symmetry_group_IT_number 69
_symmetry_cell_setting 'orthorhombic'
loop_
_space_group_symop_operation_xyz
x,y,z
-x,-y,z
x,-y,-z
-x,y,-z
-x,-y,-z
x,y,-z
-x,y,z
x,-y,z
x,1/2+y,1/2+z
-x,1/2-y,1/2+z
x,1/2-y,1/2-z
-x,1/2+y,1/2-z
-x,1/2-y,1/2-z
x,1/2+y,1/2-z
-x,1/2+y,1/2+z
x,1/2-y,1/2+z
1/2+x,y,1/2+z
1/2-x,-y,1/2+z
1/2+x,-y,1/2-z
1/2-x,y,1/2-z
1/2-x,-y,1/2-z
1/2+x,y,1/2-z
1/2-x,y,1/2+z
1/2+x,-y,1/2+z
1/2+x,1/2+y,z
1/2-x,1/2-y,z
1/2+x,1/2-y,-z
1/2-x,1/2+y,-z
1/2-x,1/2-y,-z
1/2+x,1/2+y,-z
1/2-x,1/2+y,z
1/2+x,1/2-y,z
loop_
_atom_site_type_symbol
_atom_site_label
_atom_site_fract_x
_atom_site_fract_y
_atom_site_fract_z
Si Si1 0.061998 0.000000 0.169333
Si Si2 0.560539 0.077298 0.175461
Si Si3 0.500000 0.291900 0.678654
Si Si4 0.695767 0.291196 0.321086
Si Si5 0.597630 0.340840 0.677151
O O1 0.084117 0.038918 0.246664
O O2 0.000000 0.000000 0.184709
O O3 0.081424 0.000000 0.000000
O O4 0.500000 0.083730 0.215988
O O5 0.592154 0.114890 0.236620
O O6 0.568035 0.071410 0.000000
O O7 0.500000 0.288305 0.500000
O O8 0.500000 0.250000 0.750000
O O9 0.550808 0.314428 0.740023
O O10 0.700734 0.286763 0.500000
O O11 0.679371 0.250000 0.250000
O O12 0.750000 0.305578 0.250000
O O13 0.652858 0.322967 0.273385
O O14 0.592091 0.341729 0.500000
#
# Coordination Sequence:
#
# PCOD8283910 Si02
#       5
#    16  32  16  32  32
#     4   9  17  27  39  61  94 123 144 175 218 260
#     4   9  15  27  46  65  85 116 153 182 211 260
#     4  10  18  30  44  63  90 119 147 180 221 268
#     4  10  19  32  48  66  88 117 153 193 230 264
#     4   9  17  29  47  67  89 116 150 188 223 260
#
# _framework density 16.29007
#
# number of rings (size 3 to 8) (size 9 to 14) (size 15 to 20)
#    0.000    2.625    1.250    2.625    0.000    1.500 
#    0.000    5.000    0.000    0.000    0.000    0.875 
#    0.000    0.000    0.000    0.000    0.000    0.000 
#
# Total GULP energy -396706.537261 kJ/mol
# GULP energy per Si atom -12397.079289 kJ/mol
# Density = 1.625299 g / cm^3
# Si number density = 16.290070 Si / 1000 Ang^3
#
#
#
# Elastic Constant Matrix: (Units=GPa)
#
#
# Indices 1 2 3 4 5 6 
#
# 1 92.2983 78.6411 35.0833 0.0057 -0.0197 0.0001
# 2 78.6411 179.6432 46.0859 0.0042 -0.0007 -0.0027
# 3 35.0833 46.0859 50.2474 0.0065 -0.0186 0.0094
# 4 0.0057 0.0042 0.0065 21.9626 -0.0068 -0.0037
# 5 -0.0197 -0.0007 -0.0186 -0.0068 14.7837 -0.0022
# 6 0.0001 -0.0027 0.0094 -0.0037 -0.0022 22.6812
#
#
#
# Elastic Compliance Matrix: (Units=1/GPa)
#
#
# Indices 1 2 3 4 5 6 
#
# 1 0.019198 -0.006493 -0.007449 -0.000002 0.000016 0.000002
# 2 -0.006493 0.009476 -0.004157 0.000001 -0.000013 0.000003
# 3 -0.007449 -0.004157 0.028915 -0.000006 0.000026 -0.000012
# 4 -0.000002 0.000001 -0.000006 0.045532 0.000021 0.000008
# 5 0.000016 -0.000013 0.000026 0.000021 0.067642 0.000007
# 6 0.000002 0.000003 -0.000012 0.000008 0.000007 0.044089
#
#
# Mechanical properties :
#
#
# Convention : Reuss Voigt Hill
#
# Bulk Modulus (GPa) = 46.74979 71.31218 59.03098
# Shear Modulus (GPa) = 19.36620 22.71075 21.03848
#
# Velocity S-wave (km/s) = 3.45169 3.73788 3.59763
# Velocity P-wave (km/s) = 6.68178 7.90572 7.31938
#
# Compressibility (1/GPa) = 0.02139047
#
# Stress axis : x y z
#
# Youngs Moduli (GPa) = 52.08754 105.53395 34.58376
#
# Poissons Ratio (x) = 0.68527 0.25761
# Poissons Ratio (y) = 0.33823 0.14377
# Poissons Ratio (z) = 0.38800 0.43871
#
# Static dielectric constant tensor:
#      x y z
#    x 2.960430 0.000010 0.000030 
#    y 0.000010 3.313890 -0.000010 
#    z 0.000030 -0.000010 2.904400 
# 
# 
# High freq. dielectric constant tensor:
#      x y z
#    x 1.593380 0.000000 0.000000 
#    y 0.000000 1.636070 0.000000 
#    z 0.000000 0.000000 1.610780 
# 
# From -- ./inp_files/5464.got.cif
#   From: 2010.03.12/outbox.cif.g09.slc.cpg/sg69_3_cif.got.tgz:5464.got - 2010.04.10 23:52:46.
