data_PCOD8283835
_publ_section_title
;
Structure prediction by ZEFSAII (Michael W. Deem and Ramdas Pophale) SiO2 
 PCOD8283835
Probable space group: F M M M
;
_chemical_formula_sum "Si O2"
_cell_formula_units_Z 120
_cell_length_a 18.271474
_cell_length_b 24.669588
_cell_length_c 15.449706
_cell_angle_alpha 90.000000
_cell_angle_beta 90.000000
_cell_angle_gamma 90.000000
_cell_volume 6963.950897
_symmetry_space_group_name_H-M "F M M M"
_symmetry_group_IT_number 69
_symmetry_cell_setting 'orthorhombic'
loop_
_space_group_symop_operation_xyz
x,y,z
-x,-y,z
x,-y,-z
-x,y,-z
-x,-y,-z
x,y,-z
-x,y,z
x,-y,z
x,1/2+y,1/2+z
-x,1/2-y,1/2+z
x,1/2-y,1/2-z
-x,1/2+y,1/2-z
-x,1/2-y,1/2-z
x,1/2+y,1/2-z
-x,1/2+y,1/2+z
x,1/2-y,1/2+z
1/2+x,y,1/2+z
1/2-x,-y,1/2+z
1/2+x,-y,1/2-z
1/2-x,y,1/2-z
1/2-x,-y,1/2-z
1/2+x,y,1/2-z
1/2-x,y,1/2+z
1/2+x,-y,1/2+z
1/2+x,1/2+y,z
1/2-x,1/2-y,z
1/2+x,1/2-y,-z
1/2-x,1/2+y,-z
1/2-x,1/2-y,-z
1/2+x,1/2+y,-z
1/2-x,1/2+y,z
1/2+x,1/2-y,z
loop_
_atom_site_type_symbol
_atom_site_label
_atom_site_fract_x
_atom_site_fract_y
_atom_site_fract_z
Si Si1 0.286789 0.890266 0.658138
Si Si2 0.320962 0.000000 0.405543
Si Si3 0.320989 0.500000 0.500000
Si Si4 0.168665 0.771673 0.842715
Si Si5 0.913701 0.278877 0.000000
Si Si6 0.675906 0.885061 0.000000
O O1 0.250000 0.898228 0.750000
O O2 0.336435 0.836708 0.659302
O O3 0.226798 0.880841 0.583957
O O4 0.338938 0.943332 0.642971
O O5 0.232366 0.000000 0.415791
O O6 0.360162 0.000000 0.500000
O O7 0.366376 0.556188 0.500000
O O8 0.142256 0.750000 0.750000
O O9 0.250000 0.750000 0.864082
O O10 0.113361 0.751664 0.915064
O O11 0.885949 0.340324 0.000000
O O12 0.000000 0.279781 0.000000
#
# Coordination Sequence:
#
# PCOD8283835 Si02
#       6
#    32  16   8  32  16  16
#     4  11  17  29  52  75 103 136 168 212 267 307
#     4   8  17  27  42  78 110 132 155 214 268 309
#     4   6  14  26  45  62  92 134 157 204 254 290
#     4  11  20  35  55  80 102 137 183 218 261 314
#     4  12  24  34  51  76 107 146 176 217 271 312
#     4  10  17  32  46  70 105 129 174 216 252 315
#
# _framework density 17.231598999999999
#
# number of rings (size 3 to 8) (size 9 to 14) (size 15 to 20)
#    0.400    1.333    6.667    1.600    0.000    0.533 
#    0.000    0.333    0.000    0.000    0.000    1.867 
#    0.000    0.000    0.000    0.000    0.000    0.000 
#
# Total GULP energy -371712.225036 kJ/mol
# GULP energy per Si atom -12390.407501 kJ/mol
# Density = 1.719238 g / cm^3
# Si number density = 17.231599 Si / 1000 Ang^3
#
#
#
# Elastic Constant Matrix: (Units=GPa)
#
#
# Indices 1 2 3 4 5 6 
#
# 1 40.4165 21.3252 36.7498 0.0000 0.0000 0.0000
# 2 21.3252 195.2004 53.4701 0.0000 0.0000 0.0000
# 3 36.7498 53.4701 141.7146 0.0000 0.0000 0.0000
# 4 0.0000 0.0000 0.0000 30.9616 0.0000 0.0000
# 5 0.0000 0.0000 0.0000 0.0000 -17.8084 0.0000
# 6 0.0000 0.0000 0.0000 0.0000 0.0000 8.3914
#
#
#
# Elastic Compliance Matrix: (Units=1/GPa)
#
#
# Indices 1 2 3 4 5 6 
#
# 1 0.032713 -0.001394 -0.007957 0.000000 0.000000 0.000000
# 2 -0.001394 0.005773 -0.001817 0.000000 0.000000 0.000000
# 3 -0.007957 -0.001817 0.009805 0.000000 0.000000 0.000000
# 4 0.000000 0.000000 0.000000 0.032298 0.000000 0.000000
# 5 0.000000 0.000000 0.000000 0.000000 -0.056153 0.000000
# 6 0.000000 0.000000 0.000000 0.000000 0.000000 0.119170
#
#
# Mechanical properties :
#
#
# Convention : Reuss Voigt Hill
#
# Bulk Modulus (GPa) = 38.52755 66.71354 52.62054
# Shear Modulus (GPa) = 28.63787 22.02800 25.33294
#
# Velocity S-wave (km/s) = 4.08111 3.57928 3.83841
# Velocity P-wave (km/s) = 6.67941 7.47539 7.08858
#
# Compressibility (1/GPa) = 0.02595545
#
# Stress axis : x y z
#
# Youngs Moduli (GPa) = 30.56856 173.22425 101.98505
#
# Poissons Ratio (x) = 0.24150 0.81152
# Poissons Ratio (y) = 0.04262 0.18527
# Poissons Ratio (z) = 0.24324 0.31468
#
# Static dielectric constant tensor:
#      x y z
#    x 2.479250 0.000000 0.000000 
#    y 0.000000 3.857050 0.000000 
#    z 0.000000 0.000000 3.344640 
# 
# 
# High freq. dielectric constant tensor:
#      x y z
#    x 1.573520 0.000000 0.000000 
#    y 0.000000 1.701220 0.000000 
#    z 0.000000 0.000000 1.683100 
# 
# From -- ./inp_files/22810.got.cif
#   From: 2010.03.12/outbox.cif.g09.slc.cpg/sg69_12_cif.got.tgz:22810.got - 2010.04.10 23:52:46.
