data_PCOD8283068
_publ_section_title
;
Structure prediction by ZEFSAII (Michael W. Deem and Ramdas Pophale) SiO2 
 PCOD8283068
Probable space group: C C C A
;
_chemical_formula_sum "Si O2"
_cell_formula_units_Z 72
_cell_length_a 5.236977
_cell_length_b 23.427355
_cell_length_c 31.622487
_cell_angle_alpha 90.000000
_cell_angle_beta 90.000000
_cell_angle_gamma 90.000000
_cell_volume 3879.716107
_symmetry_space_group_name_H-M "C C C A"
_symmetry_group_IT_number 68
_space_group.IT_coordinate_system_code '2'
_symmetry_cell_setting 'orthorhombic'
loop_
_space_group_symop_operation_xyz
x,y,z
-x,1/2-y,z
x,1/2-y,1/2-z
-x,y,1/2-z
-x,-y,-z
x,1/2+y,-z
-x,1/2+y,1/2+z
x,-y,1/2+z
1/2+x,1/2+y,z
1/2-x,-y,z
1/2+x,-y,1/2-z
1/2-x,1/2+y,1/2-z
1/2-x,1/2-y,-z
1/2+x,y,-z
1/2-x,y,1/2+z
1/2+x,1/2-y,1/2+z
loop_
_atom_site_type_symbol
_atom_site_label
_atom_site_fract_x
_atom_site_fract_y
_atom_site_fract_z
Si Si1 0.233171 0.068026 0.620092
Si Si2 0.720839 0.397623 0.832704
Si Si3 0.250000 0.000000 0.274591
Si Si4 0.749124 0.725433 0.297941
Si Si5 0.262296 0.067276 0.022186
O O1 0.484938 0.102693 0.634611
O O2 0.202067 0.082318 0.571032
O O3 0.986725 0.092508 0.643692
O O4 0.250000 0.000000 0.628247
O O5 0.646501 0.448297 0.801863
O O6 0.741660 0.342501 0.802538
O O7 0.500000 0.021918 0.250000
O O8 0.500000 0.750000 0.321567
O O9 0.749613 0.750000 0.250000
O O10 0.000000 0.750000 0.321232
O O11 0.250000 0.000000 0.015023
O O12 0.500953 0.093864 0.996406
#
# Coordination Sequence:
#
# PCOD8283068 Si02
#       5
#    16  16   8  16  16
#     4  11  20  36  55  85 122 154 184 227 282 340
#     4  12  23  39  57  81 114 148 197 237 292 336
#     4  12  26  36  56  80 110 150 190 238 282 356
#     4  10  23  40  58  76 101 142 193 247 292 326
#     4   9  17  29  49  78 116 158 187 209 254 334
#
# _framework density 18.558059
#
# number of rings (size 3 to 8) (size 9 to 14) (size 15 to 20)
#    0.000    1.333    2.222    4.000    6.222    3.556 
#    0.000    0.000    0.000    0.000    0.000    0.000 
#    0.000   62.222    0.000    0.000    0.000    0.000 
#
# Total GULP energy -446201.567462 kJ/mol
# GULP energy per Si atom -12394.487985 kJ/mol
# Density = 1.851582 g / cm^3
# Si number density = 18.558059 Si / 1000 Ang^3
#
#
#
# Elastic Constant Matrix: (Units=GPa)
#
#
# Indices 1 2 3 4 5 6 
#
# 1 168.6155 29.3527 43.1989 0.0000 0.0000 0.0000
# 2 29.3527 99.6151 38.4362 0.0000 0.0000 0.0000
# 3 43.1989 38.4362 87.4125 0.0000 0.0000 0.0000
# 4 0.0000 0.0000 0.0000 16.8177 0.0000 0.0000
# 5 0.0000 0.0000 0.0000 0.0000 51.3383 0.0000
# 6 0.0000 0.0000 0.0000 0.0000 0.0000 22.9917
#
#
#
# Elastic Compliance Matrix: (Units=1/GPa)
#
#
# Indices 1 2 3 4 5 6 
#
# 1 0.006851 -0.000858 -0.003008 0.000000 0.000000 0.000000
# 2 -0.000858 0.012197 -0.004939 0.000000 0.000000 0.000000
# 3 -0.003008 -0.004939 0.015099 0.000000 0.000000 0.000000
# 4 0.000000 0.000000 0.000000 0.059461 0.000000 0.000000
# 5 0.000000 0.000000 0.000000 0.000000 0.019479 0.000000
# 6 0.000000 0.000000 0.000000 0.000000 0.000000 0.043494
#
#
# Mechanical properties :
#
#
# Convention : Reuss Voigt Hill
#
# Bulk Modulus (GPa) = 60.47609 64.17986 62.32798
# Shear Modulus (GPa) = 27.82365 34.53990 31.18177
#
# Velocity S-wave (km/s) = 3.87625 4.31882 4.10351
# Velocity P-wave (km/s) = 7.25893 7.71544 7.49066
#
# Compressibility (1/GPa) = 0.01653546
#
# Stress axis : x y z
#
# Youngs Moduli (GPa) = 145.96982 81.98581 66.23125
#
# Poissons Ratio (x) = 0.07033 0.19925
# Poissons Ratio (y) = 0.12522 0.32714
# Poissons Ratio (z) = 0.43913 0.40495
#
# Static dielectric constant tensor:
#      x y z
#    x 4.536200 0.000000 0.000000 
#    y 0.000000 3.180720 0.000000 
#    z 0.000000 0.000000 3.310090 
# 
# 
# High freq. dielectric constant tensor:
#      x y z
#    x 1.758510 0.000000 0.000000 
#    y 0.000000 1.675630 0.000000 
#    z 0.000000 0.000000 1.704560 
# 
# From -- ./inp_files/48189.got.cif
#   From: 2010.03.12/outbox.cif.g09.slc.cpg/sg68_25_cif.got.tgz:48189.got - 2010.04.10 23:14:56.
