data_PCOD8283084
_publ_section_title
;
Structure prediction by ZEFSAII (Michael W. Deem and Ramdas Pophale) SiO2 
 PCOD8283084
Probable space group: C C C A
;
_chemical_formula_sum "Si O2"
_cell_formula_units_Z 52
_cell_length_a 9.782733
_cell_length_b 16.589640
_cell_length_c 14.892038
_cell_angle_alpha 90.000000
_cell_angle_beta 90.000000
_cell_angle_gamma 90.000000
_cell_volume 2416.858909
_symmetry_space_group_name_H-M "C C C A"
_symmetry_group_IT_number 68
_space_group.IT_coordinate_system_code '2'
_symmetry_cell_setting 'orthorhombic'
loop_
_space_group_symop_operation_xyz
x,y,z
-x,1/2-y,z
x,1/2-y,1/2-z
-x,y,1/2-z
-x,-y,-z
x,1/2+y,-z
-x,1/2+y,1/2+z
x,-y,1/2+z
1/2+x,1/2+y,z
1/2-x,-y,z
1/2+x,-y,1/2-z
1/2-x,1/2+y,1/2-z
1/2-x,1/2-y,-z
1/2+x,y,-z
1/2-x,y,1/2+z
1/2+x,1/2-y,1/2+z
loop_
_atom_site_type_symbol
_atom_site_label
_atom_site_fract_x
_atom_site_fract_y
_atom_site_fract_z
Si Si1 0.927428 0.174182 0.920657
Si Si2 0.000000 0.250000 0.250000
Si Si3 0.600675 0.006417 0.326533
Si Si4 0.616625 0.345126 0.588508
O O1 0.948043 0.093242 0.863008
O O2 0.766845 0.184644 0.941695
O O3 0.000000 0.250000 0.868167
O O4 0.002523 0.176629 0.016598
O O5 0.092200 0.306132 0.313746
O O6 0.500000 0.977072 0.250000
O O7 0.750000 0.000000 0.281341
O O8 0.606114 0.942103 0.407228
#
# Coordination Sequence:
#
# PCOD8283084 Si02
#       4
#    16   4  16  16
#     4  11  24  41  67  96 131 169 221 267 329 391
#     4  12  24  40  74  88 128 164 218 268 328 384
#     4  10  23  41  64  97 132 172 219 272 328 389
#     4  11  24  44  66  96 130 173 217 271 329 390
#
# _framework density 21.515529999999998
#
# number of rings (size 3 to 8) (size 9 to 14) (size 15 to 20)
#    0.000    1.231    3.077    1.846    0.000    8.000 
#    0.000    0.000    0.000    0.000    0.000    0.000 
#    0.000    0.000    0.000    0.000    0.000    0.000 
#
# Total GULP energy -322183.659597 kJ/mol
# GULP energy per Si atom -12391.679215 kJ/mol
# Density = 2.146656 g / cm^3
# Si number density = 21.515530 Si / 1000 Ang^3
#
#
#
# Elastic Constant Matrix: (Units=GPa)
#
#
# Indices 1 2 3 4 5 6 
#
# 1 190.4238 68.6495 76.6558 0.0000 0.0000 0.0000
# 2 68.6495 164.0082 24.7964 0.0000 0.0000 0.0000
# 3 76.6558 24.7964 64.5187 0.0000 0.0000 0.0000
# 4 0.0000 0.0000 0.0000 40.4796 0.0000 0.0000
# 5 0.0000 0.0000 0.0000 0.0000 29.2836 0.0000
# 6 0.0000 0.0000 0.0000 0.0000 0.0000 31.9315
#
#
#
# Elastic Compliance Matrix: (Units=1/GPa)
#
#
# Indices 1 2 3 4 5 6 
#
# 1 0.011185 -0.002837 -0.012198 0.000000 0.000000 0.000000
# 2 -0.002837 0.007193 0.000607 0.000000 0.000000 0.000000
# 3 -0.012198 0.000607 0.029759 0.000000 0.000000 0.000000
# 4 0.000000 0.000000 0.000000 0.024704 0.000000 0.000000
# 5 0.000000 0.000000 0.000000 0.000000 0.034149 0.000000
# 6 0.000000 0.000000 0.000000 0.000000 0.000000 0.031317
#
#
# Mechanical properties :
#
#
# Convention : Reuss Voigt Hill
#
# Bulk Modulus (GPa) = 51.86980 84.35045 68.11013
# Shear Modulus (GPa) = 28.80315 36.92887 32.86601
#
# Velocity S-wave (km/s) = 3.66281 4.14742 3.91263
# Velocity P-wave (km/s) = 6.48450 7.88824 7.22056
#
# Compressibility (1/GPa) = 0.01927904
#
# Stress axis : x y z
#
# Youngs Moduli (GPa) = 89.40617 139.01997 33.60276
#
# Poissons Ratio (x) = 0.39446 0.40990
# Poissons Ratio (y) = 0.25368 -0.02038
# Poissons Ratio (z) = 1.09062 -0.08433
#
# Static dielectric constant tensor:
#      x y z
#    x 3.955090 0.000000 0.000000 
#    y 0.000000 4.821230 0.000000 
#    z 0.000000 0.000000 3.457240 
# 
# 
# High freq. dielectric constant tensor:
#      x y z
#    x 1.853430 0.000000 0.000000 
#    y 0.000000 1.878840 0.000000 
#    z 0.000000 0.000000 1.819110 
# 
# From -- ./inp_files/24087.got.cif
#   From: 2010.03.12/outbox.cif.g09.slc.cpg/sg68_13_cif.got.tgz:24087.got - 2010.04.10 23:14:56.
