data_PCOD8283771
_publ_section_title
;
Structure prediction by ZEFSAII (Michael W. Deem and Ramdas Pophale) SiO2 
 PCOD8283771
Probable space group: F M M M
;
_chemical_formula_sum "Si O2"
_cell_formula_units_Z 144
_cell_length_a 19.658066
_cell_length_b 14.843316
_cell_length_c 29.629985
_cell_angle_alpha 90.000000
_cell_angle_beta 90.000000
_cell_angle_gamma 90.000000
_cell_volume 8645.759563
_symmetry_space_group_name_H-M "F M M M"
_symmetry_group_IT_number 69
_symmetry_cell_setting 'orthorhombic'
loop_
_space_group_symop_operation_xyz
x,y,z
-x,-y,z
x,-y,-z
-x,y,-z
-x,-y,-z
x,y,-z
-x,y,z
x,-y,z
x,1/2+y,1/2+z
-x,1/2-y,1/2+z
x,1/2-y,1/2-z
-x,1/2+y,1/2-z
-x,1/2-y,1/2-z
x,1/2+y,1/2-z
-x,1/2+y,1/2+z
x,1/2-y,1/2+z
1/2+x,y,1/2+z
1/2-x,-y,1/2+z
1/2+x,-y,1/2-z
1/2-x,y,1/2-z
1/2-x,-y,1/2-z
1/2+x,y,1/2-z
1/2-x,y,1/2+z
1/2+x,-y,1/2+z
1/2+x,1/2+y,z
1/2-x,1/2-y,z
1/2+x,1/2-y,-z
1/2-x,1/2+y,-z
1/2-x,1/2-y,-z
1/2+x,1/2+y,-z
1/2-x,1/2+y,z
1/2+x,1/2-y,z
loop_
_atom_site_type_symbol
_atom_site_label
_atom_site_fract_x
_atom_site_fract_y
_atom_site_fract_z
Si Si1 0.579265 0.693292 0.108342
Si Si2 0.371253 0.000000 0.603562
Si Si3 0.578027 0.307647 0.789154
Si Si4 0.682845 0.303476 0.552299
Si Si5 0.923079 0.000000 0.802164
Si Si6 0.232485 0.500000 0.948231
O O1 0.500000 0.715787 0.105229
O O2 0.591287 0.592441 0.088352
O O3 0.607130 0.701722 0.160073
O O4 0.618350 0.767587 0.079487
O O5 0.295949 0.000000 0.584666
O O6 0.368377 0.000000 0.657769
O O7 0.500000 0.276941 0.791462
O O8 0.616077 0.250000 0.750000
O O9 0.586054 0.410967 0.772183
O O10 0.669732 0.283186 0.500000
O O11 0.750000 0.250000 0.568648
O O12 0.688646 0.410445 0.561491
O O13 0.000000 0.000000 0.824041
O O14 0.258559 0.500000 0.000000
#
# Coordination Sequence:
#
# PCOD8283771 Si02
#       6
#    32  16  32  32  16  16
#     4  10  19  31  51  79 104 128 162 208 259 296
#     4  10  16  28  50  76 101 124 154 208 257 302
#     4   8  14  26  44  68  98 128 159 196 241 295
#     4  10  20  35  52  71  98 133 170 202 238 297
#     4   8  14  24  41  68  97 123 152 193 251 300
#     4  10  20  34  52  72  94 130 176 204 234 295
#
# _framework density 16.655563999999998
#
# number of rings (size 3 to 8) (size 9 to 14) (size 15 to 20)
#    0.000    2.667    2.222    2.333    0.000    0.444 
#    0.000    1.667    0.000    9.000    0.000    3.111 
#    0.000    0.000    0.000    0.000    0.000    0.000 
#
# Total GULP energy -446051.567101 kJ/mol
# GULP energy per Si atom -12390.321308 kJ/mol
# Density = 1.661766 g / cm^3
# Si number density = 16.655564 Si / 1000 Ang^3
#
#
#
# Elastic Constant Matrix: (Units=GPa)
#
#
# Indices 1 2 3 4 5 6 
#
# 1 66.4991 48.4765 43.2834 0.0000 0.0000 0.0000
# 2 48.4765 141.6143 60.0355 0.0000 0.0000 0.0000
# 3 43.2834 60.0355 73.6602 0.0000 0.0000 0.0000
# 4 0.0000 0.0000 0.0000 27.9622 0.0000 0.0000
# 5 0.0000 0.0000 0.0000 0.0000 12.4016 0.0000
# 6 0.0000 0.0000 0.0000 0.0000 0.0000 23.5263
#
#
#
# Elastic Compliance Matrix: (Units=1/GPa)
#
#
# Indices 1 2 3 4 5 6 
#
# 1 0.025520 -0.003634 -0.012033 0.000000 0.000000 0.000000
# 2 -0.003634 0.011307 -0.007080 0.000000 0.000000 0.000000
# 3 -0.012033 -0.007080 0.026417 0.000000 0.000000 0.000000
# 4 0.000000 0.000000 0.000000 0.035763 0.000000 0.000000
# 5 0.000000 0.000000 0.000000 0.000000 0.080634 0.000000
# 6 0.000000 0.000000 0.000000 0.000000 0.000000 0.042506
#
#
# Mechanical properties :
#
#
# Convention : Reuss Voigt Hill
#
# Bulk Modulus (GPa) = 56.34349 65.04049 60.69199
# Shear Modulus (GPa) = 18.27765 21.44323 19.86044
#
# Velocity S-wave (km/s) = 3.31628 3.59200 3.45689
# Velocity P-wave (km/s) = 6.96891 7.50589 7.24238
#
# Compressibility (1/GPa) = 0.01774828
#
# Stress axis : x y z
#
# Youngs Moduli (GPa) = 39.18566 88.44082 37.85394
#
# Poissons Ratio (x) = 0.32142 0.45551
# Poissons Ratio (y) = 0.14241 0.26801
# Poissons Ratio (z) = 0.47154 0.62617
#
# Static dielectric constant tensor:
#      x y z
#    x 2.757140 0.000000 0.000000 
#    y 0.000000 3.446560 0.000000 
#    z 0.000000 0.000000 3.121890 
# 
# 
# High freq. dielectric constant tensor:
#      x y z
#    x 1.601720 0.000000 0.000000 
#    y 0.000000 1.657400 0.000000 
#    z 0.000000 0.000000 1.625070 
# 
# From -- ./inp_files/19522.got.cif
#   From: 2010.03.12/outbox.cif.g09.slc.cpg/sg69_10_cif.got.tgz:19522.got - 2010.04.10 23:52:46.
