data_PCOD8283860
_publ_section_title
;
Structure prediction by ZEFSAII (Michael W. Deem and Ramdas Pophale) SiO2 
 PCOD8283860
Probable space group: F M M M
;
_chemical_formula_sum "Si O2"
_cell_formula_units_Z 160
_cell_length_a 24.780831
_cell_length_b 16.821040
_cell_length_c 23.756275
_cell_angle_alpha 90.000000
_cell_angle_beta 90.000000
_cell_angle_gamma 90.000000
_cell_volume 9902.550217
_symmetry_space_group_name_H-M "F M M M"
_symmetry_group_IT_number 69
_symmetry_cell_setting 'orthorhombic'
loop_
_space_group_symop_operation_xyz
x,y,z
-x,-y,z
x,-y,-z
-x,y,-z
-x,-y,-z
x,y,-z
-x,y,z
x,-y,z
x,1/2+y,1/2+z
-x,1/2-y,1/2+z
x,1/2-y,1/2-z
-x,1/2+y,1/2-z
-x,1/2-y,1/2-z
x,1/2+y,1/2-z
-x,1/2+y,1/2+z
x,1/2-y,1/2+z
1/2+x,y,1/2+z
1/2-x,-y,1/2+z
1/2+x,-y,1/2-z
1/2-x,y,1/2-z
1/2-x,-y,1/2-z
1/2+x,y,1/2-z
1/2-x,y,1/2+z
1/2+x,-y,1/2+z
1/2+x,1/2+y,z
1/2-x,1/2-y,z
1/2+x,1/2-y,-z
1/2-x,1/2+y,-z
1/2-x,1/2-y,-z
1/2+x,1/2+y,-z
1/2-x,1/2+y,z
1/2+x,1/2-y,z
loop_
_atom_site_type_symbol
_atom_site_label
_atom_site_fract_x
_atom_site_fract_y
_atom_site_fract_z
Si Si1 0.557607 0.157468 0.756205
Si Si2 0.666342 0.594430 0.562160
Si Si3 0.439970 0.907715 0.121951
Si Si4 0.263223 0.592602 0.335029
Si Si5 0.172715 0.157778 0.233170
O O1 0.500000 0.117085 0.736988
O O2 0.550585 0.250000 0.750000
O O3 0.568632 0.140934 0.821346
O O4 0.610662 0.130423 0.721217
O O5 0.679908 0.628492 0.500000
O O6 0.668494 0.500000 0.561709
O O7 0.605503 0.621608 0.578180
O O8 0.710107 0.626008 0.607392
O O9 0.500000 0.892472 0.096556
O O10 0.431940 0.000000 0.136810
O O11 0.249184 0.500000 0.340347
O O12 0.208031 0.641342 0.322764
O O13 0.304901 0.604406 0.284000
O O14 0.176580 0.250000 0.250000
#
# Coordination Sequence:
#
# PCOD8283860 Si02
#       5
#    32  32  32  32  32
#     4   9  17  28  42  63  86 113 141 170 212 254
#     4   9  17  28  41  59  84 112 143 178 213 249
#     4   9  16  26  41  61  86 113 143 177 209 249
#     4  10  18  28  43  62  85 113 145 173 206 249
#     4  10  18  28  44  64  85 112 139 177 211 254
#
# _framework density 16.157454000000001
#
# number of rings (size 3 to 8) (size 9 to 14) (size 15 to 20)
#    0.000    2.600    2.000    2.400    0.000    1.200 
#    0.000    2.000    0.000    2.400    0.000    0.000 
#    0.000    0.800    0.000    5.000    0.000    0.200 
#
# Total GULP energy -495531.100665 kJ/mol
# GULP energy per Si atom -12388.277517 kJ/mol
# Density = 1.612068 g / cm^3
# Si number density = 16.157454 Si / 1000 Ang^3
#
#
#
# Elastic Constant Matrix: (Units=GPa)
#
#
# Indices 1 2 3 4 5 6 
#
# 1 177.6415 16.0721 64.6777 0.0000 0.0000 0.0000
# 2 16.0721 30.3972 17.8215 0.0000 0.0000 0.0000
# 3 64.6777 17.8215 99.8972 0.0000 0.0000 0.0000
# 4 0.0000 0.0000 0.0000 7.0159 0.0000 0.0000
# 5 0.0000 0.0000 0.0000 0.0000 17.2662 0.0000
# 6 0.0000 0.0000 0.0000 0.0000 0.0000 -0.2759
#
#
#
# Elastic Compliance Matrix: (Units=1/GPa)
#
#
# Indices 1 2 3 4 5 6 
#
# 1 0.007407 -0.001234 -0.004575 0.000000 0.000000 0.000000
# 2 -0.001234 0.036946 -0.005792 0.000000 0.000000 0.000000
# 3 -0.004575 -0.005792 0.014006 0.000000 0.000000 0.000000
# 4 0.000000 0.000000 0.000000 0.142533 0.000000 0.000000
# 5 0.000000 0.000000 0.000000 0.000000 0.057917 0.000000
# 6 0.000000 0.000000 0.000000 0.000000 0.000000 -3.625111
#
#
# Mechanical properties :
#
#
# Convention : Reuss Voigt Hill
#
# Bulk Modulus (GPa) = 28.44477 56.11984 42.28231
# Shear Modulus (GPa) = -1.50088 18.75889 8.62901
#
# Velocity S-wave (km/s) = -0.96484 3.41105 2.31348
# Velocity P-wave (km/s) = 4.04990 7.09381 5.77598
#
# Compressibility (1/GPa) = 0.03515585
#
# Stress axis : x y z
#
# Youngs Moduli (GPa) = 135.01122 27.06648 71.39837
#
# Poissons Ratio (x) = 0.03339 0.32667
# Poissons Ratio (y) = 0.16657 0.41356
# Poissons Ratio (z) = 0.61773 0.15678
#
# Static dielectric constant tensor:
#      x y z
#    x 3.751430 0.000000 0.000000 
#    y 0.000000 2.815850 0.000000 
#    z 0.000000 0.000000 2.899350 
# 
# 
# High freq. dielectric constant tensor:
#      x y z
#    x 1.642160 0.000000 0.000000 
#    y 0.000000 1.590940 0.000000 
#    z 0.000000 0.000000 1.583350 
# 
# From -- ./inp_files/18003.got.cif
#   From: 2010.03.12/outbox.cif.g09.slc.cpg/sg69_10_cif.got.tgz:18003.got - 2010.04.10 23:52:46.
