data_PCOD8283762
_publ_section_title
;
Structure prediction by ZEFSAII (Michael W. Deem and Ramdas Pophale) SiO2 
 PCOD8283762
Probable space group: F M M M
;
_chemical_formula_sum "Si O2"
_cell_formula_units_Z 112
_cell_length_a 19.297632
_cell_length_b 36.870329
_cell_length_c 8.591020
_cell_angle_alpha 90.000000
_cell_angle_beta 90.000000
_cell_angle_gamma 90.000000
_cell_volume 6112.596990
_symmetry_space_group_name_H-M "F M M M"
_symmetry_group_IT_number 69
_symmetry_cell_setting 'orthorhombic'
loop_
_space_group_symop_operation_xyz
x,y,z
-x,-y,z
x,-y,-z
-x,y,-z
-x,-y,-z
x,y,-z
-x,y,z
x,-y,z
x,1/2+y,1/2+z
-x,1/2-y,1/2+z
x,1/2-y,1/2-z
-x,1/2+y,1/2-z
-x,1/2-y,1/2-z
x,1/2+y,1/2-z
-x,1/2+y,1/2+z
x,1/2-y,1/2+z
1/2+x,y,1/2+z
1/2-x,-y,1/2+z
1/2+x,-y,1/2-z
1/2-x,y,1/2-z
1/2-x,-y,1/2-z
1/2+x,y,1/2-z
1/2-x,y,1/2+z
1/2+x,-y,1/2+z
1/2+x,1/2+y,z
1/2-x,1/2-y,z
1/2+x,1/2-y,-z
1/2-x,1/2+y,-z
1/2-x,1/2-y,-z
1/2+x,1/2+y,-z
1/2-x,1/2+y,z
1/2+x,1/2-y,z
loop_
_atom_site_type_symbol
_atom_site_label
_atom_site_fract_x
_atom_site_fract_y
_atom_site_fract_z
Si Si1 0.327294 0.572771 0.815372
Si Si2 0.827582 0.500000 0.184447
Si Si3 0.421723 0.787737 0.816074
Si Si4 0.673405 0.646668 0.315062
O O1 0.250000 0.573318 0.750000
O O2 0.365296 0.536558 0.748307
O O3 0.361925 0.609874 0.753097
O O4 0.327725 0.571622 0.000000
O O5 0.750000 0.500000 0.250000
O O6 0.827305 0.500000 0.000000
O O7 0.500000 0.794225 0.755165
O O8 0.392048 0.750000 0.750000
O O9 0.373838 0.820317 0.755408
O O10 0.419823 0.785796 0.000000
O O11 0.676344 0.643834 0.500000
O O12 0.750000 0.653033 0.250000
#
# Coordination Sequence:
#
# PCOD8283762 Si02
#       4
#    32  16  32  32
#     4  10  17  26  40  61  90 122 156 191 230 274
#     4  10  16  24  38  58  87 122 157 190 229 273
#     4   9  19  35  53  71  92 121 157 195 233 277
#     4  10  19  31  47  69  97 125 155 192 235 280
#
# _framework density 18.322817000000001
#
# number of rings (size 3 to 8) (size 9 to 14) (size 15 to 20)
#    0.000    2.286    0.000    8.143    0.000    2.857 
#    0.000    2.857    0.000    0.000    0.000    1.000 
#    0.000    8.000    0.000    0.000    0.000    0.000 
#
# Total GULP energy -347044.756627 kJ/mol
# GULP energy per Si atom -12394.455594 kJ/mol
# Density = 1.828111 g / cm^3
# Si number density = 18.322817 Si / 1000 Ang^3
#
#
#
# Elastic Constant Matrix: (Units=GPa)
#
#
# Indices 1 2 3 4 5 6 
#
# 1 41.2606 59.6848 20.9704 0.0003 0.0006 -0.0003
# 2 59.6848 231.8078 66.4285 0.0000 0.0000 0.0000
# 3 20.9704 66.4285 118.3036 0.0007 0.0022 -0.0009
# 4 0.0003 0.0000 0.0007 37.7458 -0.0005 0.0001
# 5 0.0006 0.0000 0.0022 -0.0005 14.2497 0.0006
# 6 -0.0003 0.0000 -0.0009 0.0001 0.0006 3.4727
#
#
#
# Elastic Compliance Matrix: (Units=1/GPa)
#
#
# Indices 1 2 3 4 5 6 
#
# 1 0.038846 -0.009568 -0.001513 0.000000 -0.000001 0.000003
# 2 -0.009568 0.007498 -0.002514 0.000000 0.000001 -0.000002
# 3 -0.001513 -0.002514 0.010133 0.000000 -0.000001 0.000003
# 4 0.000000 0.000000 0.000000 0.026493 0.000001 -0.000001
# 5 -0.000001 0.000001 -0.000001 0.000001 0.070177 -0.000013
# 6 0.000003 -0.000002 0.000003 -0.000001 -0.000013 0.287958
#
#
# Mechanical properties :
#
#
# Convention : Reuss Voigt Hill
#
# Bulk Modulus (GPa) = 34.14629 76.17103 55.15866
# Shear Modulus (GPa) = 10.45898 27.37952 18.91925
#
# Velocity S-wave (km/s) = 2.39177 3.86979 3.21682
# Velocity P-wave (km/s) = 5.12872 7.85041 6.63072
#
# Compressibility (1/GPa) = 0.02928576
#
# Stress axis : x y z
#
# Youngs Moduli (GPa) = 25.74256 133.36903 98.68998
#
# Poissons Ratio (x) = 1.27612 0.14933
# Poissons Ratio (y) = 0.24631 0.24812
# Poissons Ratio (z) = 0.03895 0.33531
#
# Static dielectric constant tensor:
#      x y z
#    x 2.931560 0.000000 0.000000 
#    y 0.000000 4.831610 0.000000 
#    z 0.000000 0.000000 3.369050 
# 
# 
# High freq. dielectric constant tensor:
#      x y z
#    x 1.637170 0.000000 0.000000 
#    y 0.000000 1.744560 0.000000 
#    z 0.000000 0.000000 1.722320 
# 
# From -- ./inp_files/3984.got.cif
#   From: 2010.03.12/outbox.cif.g09.slc.cpg/sg69_2_cif.got.tgz:3984.got - 2010.04.10 23:52:46.
