data_PCOD8283950
_publ_section_title
;
Structure prediction by ZEFSAII (Michael W. Deem and Ramdas Pophale) SiO2 
 PCOD8283950
Probable space group: F M M M
;
_chemical_formula_sum "Si O2"
_cell_formula_units_Z 160
_cell_length_a 16.165576
_cell_length_b 32.642403
_cell_length_c 16.486182
_cell_angle_alpha 90.000000
_cell_angle_beta 90.000000
_cell_angle_gamma 90.000000
_cell_volume 8699.482040
_symmetry_space_group_name_H-M "F M M M"
_symmetry_group_IT_number 69
_symmetry_cell_setting 'orthorhombic'
loop_
_space_group_symop_operation_xyz
x,y,z
-x,-y,z
x,-y,-z
-x,y,-z
-x,-y,-z
x,y,-z
-x,y,z
x,-y,z
x,1/2+y,1/2+z
-x,1/2-y,1/2+z
x,1/2-y,1/2-z
-x,1/2+y,1/2-z
-x,1/2-y,1/2-z
x,1/2+y,1/2-z
-x,1/2+y,1/2+z
x,1/2-y,1/2+z
1/2+x,y,1/2+z
1/2-x,-y,1/2+z
1/2+x,-y,1/2-z
1/2-x,y,1/2-z
1/2-x,-y,1/2-z
1/2+x,y,1/2-z
1/2-x,y,1/2+z
1/2+x,-y,1/2+z
1/2+x,1/2+y,z
1/2-x,1/2-y,z
1/2+x,1/2-y,-z
1/2-x,1/2+y,-z
1/2-x,1/2-y,-z
1/2+x,1/2+y,-z
1/2-x,1/2+y,z
1/2+x,1/2-y,z
loop_
_atom_site_type_symbol
_atom_site_label
_atom_site_fract_x
_atom_site_fract_y
_atom_site_fract_z
Si Si1 0.653488 0.257963 0.408675
Si Si2 0.781903 0.386364 0.590986
Si Si3 0.091895 0.825707 0.145251
Si Si4 0.326182 0.333750 0.303168
Si Si5 0.407597 0.046028 0.403579
O O1 0.617943 0.259714 0.500000
O O2 0.750000 0.250000 0.409791
O O3 0.605837 0.223116 0.358212
O O4 0.637283 0.301513 0.366690
O O5 0.749491 0.395971 0.500000
O O6 0.842762 0.347107 0.585114
O O7 0.704681 0.374986 0.649583
O O8 0.835475 0.423854 0.629138
O O9 0.102982 0.843272 0.237102
O O10 0.000000 0.836653 0.115986
O O11 0.250000 0.315050 0.250000
O O12 0.407229 0.048323 0.500000
O O13 0.500000 0.058707 0.372662
O O14 0.387110 0.000000 0.374024
#
# Coordination Sequence:
#
# PCOD8283950 Si02
#       5
#    32  32  32  32  32
#     4  11  20  32  49  68  90 120 158 203 248 285
#     4  10  18  30  51  74  96 124 161 198 235 284
#     4  11  23  34  48  70  95 126 164 203 244 289
#     4  10  20  32  48  65  93 129 160 192 238 292
#     4   8  14  25  43  71 106 134 153 187 243 293
#
# _framework density 18.391898999999999
#
# number of rings (size 3 to 8) (size 9 to 14) (size 15 to 20)
#    0.000    2.000    4.000    3.000    0.000    4.000 
#    0.000    0.000    0.000    7.200    0.000    0.000 
#    0.000    0.000    0.000    5.000    0.000    0.000 
#
# Total GULP energy -495720.954765 kJ/mol
# GULP energy per Si atom -12393.023869 kJ/mol
# Density = 1.835004 g / cm^3
# Si number density = 18.391899 Si / 1000 Ang^3
#
#
#
# Elastic Constant Matrix: (Units=GPa)
#
#
# Indices 1 2 3 4 5 6 
#
# 1 36.3179 14.6504 13.8353 0.0000 0.0000 0.0000
# 2 14.6504 93.6555 21.0986 0.0000 0.0000 0.0000
# 3 13.8353 21.0986 80.7898 0.0000 0.0000 0.0000
# 4 0.0000 0.0000 0.0000 13.2990 0.0000 0.0000
# 5 0.0000 0.0000 0.0000 0.0000 15.2141 0.0000
# 6 0.0000 0.0000 0.0000 0.0000 0.0000 24.4104
#
#
#
# Elastic Compliance Matrix: (Units=1/GPa)
#
#
# Indices 1 2 3 4 5 6 
#
# 1 0.030706 -0.003845 -0.004254 0.000000 0.000000 0.000000
# 2 -0.003845 0.011826 -0.002430 0.000000 0.000000 0.000000
# 3 -0.004254 -0.002430 0.013741 0.000000 0.000000 0.000000
# 4 0.000000 0.000000 0.000000 0.075193 0.000000 0.000000
# 5 0.000000 0.000000 0.000000 0.000000 0.065728 0.000000
# 6 0.000000 0.000000 0.000000 0.000000 0.000000 0.040966
#
#
# Mechanical properties :
#
#
# Convention : Reuss Voigt Hill
#
# Bulk Modulus (GPa) = 28.39701 34.43686 31.41694
# Shear Modulus (GPa) = 18.45300 21.32998 19.89149
#
# Velocity S-wave (km/s) = 3.17096 3.40920 3.29224
# Velocity P-wave (km/s) = 5.37402 5.85333 5.61879
#
# Compressibility (1/GPa) = 0.03521498
#
# Stress axis : x y z
#
# Youngs Moduli (GPa) = 32.56653 84.55713 72.77501
#
# Poissons Ratio (x) = 0.32512 0.30961
# Poissons Ratio (y) = 0.12522 0.17685
# Poissons Ratio (z) = 0.13855 0.20548
#
# Static dielectric constant tensor:
#      x y z
#    x 3.245700 0.000000 0.000000 
#    y 0.000000 3.455280 0.000000 
#    z 0.000000 0.000000 3.409190 
# 
# 
# High freq. dielectric constant tensor:
#      x y z
#    x 1.680750 0.000000 0.000000 
#    y 0.000000 1.690880 0.000000 
#    z 0.000000 0.000000 1.698950 
# 
# From -- ./inp_files/23410.got.cif
#   From: 2010.03.12/outbox.cif.g09.slc.cpg/sg69_12_cif.got.tgz:23410.got - 2010.04.10 23:52:46.
