data_PCOD8283369
_publ_section_title
;
Structure prediction by ZEFSAII (Michael W. Deem and Ramdas Pophale) SiO2 
 PCOD8283369
Probable space group: C C C A
;
_chemical_formula_sum "Si O2"
_cell_formula_units_Z 112
_cell_length_a 31.713846
_cell_length_b 13.197208
_cell_length_c 13.218551
_cell_angle_alpha 90.000000
_cell_angle_beta 90.000000
_cell_angle_gamma 90.000000
_cell_volume 5532.415961
_symmetry_space_group_name_H-M "C C C A"
_symmetry_group_IT_number 68
_space_group.IT_coordinate_system_code '2'
_symmetry_cell_setting 'orthorhombic'
loop_
_space_group_symop_operation_xyz
x,y,z
-x,1/2-y,z
x,1/2-y,1/2-z
-x,y,1/2-z
-x,-y,-z
x,1/2+y,-z
-x,1/2+y,1/2+z
x,-y,1/2+z
1/2+x,1/2+y,z
1/2-x,-y,z
1/2+x,-y,1/2-z
1/2-x,1/2+y,1/2-z
1/2-x,1/2-y,-z
1/2+x,y,-z
1/2-x,y,1/2+z
1/2+x,1/2-y,1/2+z
loop_
_atom_site_type_symbol
_atom_site_label
_atom_site_fract_x
_atom_site_fract_y
_atom_site_fract_z
Si Si1 0.714034 0.735832 0.417803
Si Si2 0.628202 0.503028 0.165494
Si Si3 0.500077 0.369845 0.863764
Si Si4 0.786123 0.082135 0.260902
Si Si5 0.916571 0.638204 0.518510
Si Si6 0.128678 0.162919 0.501012
Si Si7 0.083593 0.521212 0.636353
O O1 0.750000 0.750000 0.500000
O O2 0.713897 0.835248 0.349305
O O3 0.720124 0.636001 0.347875
O O4 0.671584 0.724068 0.483000
O O5 0.670352 0.520140 0.230383
O O6 0.621890 0.592733 0.084605
O O7 0.629112 0.394015 0.109494
O O8 0.588826 0.510778 0.243344
O O9 0.500000 0.250000 0.863628
O O10 0.500000 0.412299 0.750000
O O11 0.459610 0.399869 0.928972
O O12 0.542596 0.419599 0.906418
O O13 0.750000 0.000000 0.278219
O O14 0.910339 0.757830 0.504674
O O15 0.916460 0.592210 0.406492
O O16 0.122985 0.083272 0.410152
#
# Coordination Sequence:
#
# PCOD8283369 Si02
#       7
#    16  16  16  16  16  16  16
#     4  11  24  42  67  95 129 172 219 274 330 391
#     4  11  23  41  66  95 128 170 216 265 331 399
#     4  11  21  36  64  96 126 169 219 271 316 385
#     4  11  24  42  67  95 129 172 219 274 330 391
#     4  11  23  40  65  93 131 172 214 271 328 385
#     4  11  23  41  67  96 127 169 218 268 329 398
#     4  11  23  40  65  94 130 172 215 269 327 389
#
# _framework density 20.244319999999998
#
# number of rings (size 3 to 8) (size 9 to 14) (size 15 to 20)
#    0.000    1.000    5.714    1.286    0.000    4.000 
#    0.000    0.000    0.000    0.000    0.000    0.000 
#    0.000    0.000    0.000    0.000    0.000    0.000 
#
# Total GULP energy -694167.126935 kJ/mol
# GULP energy per Si atom -12395.841552 kJ/mol
# Density = 2.019824 g / cm^3
# Si number density = 20.244320 Si / 1000 Ang^3
#
#
#
# Elastic Constant Matrix: (Units=GPa)
#
#
# Indices 1 2 3 4 5 6 
#
# 1 110.1941 40.0899 38.7193 0.0000 0.0000 0.0000
# 2 40.0899 112.0182 57.3848 0.0000 0.0000 0.0000
# 3 38.7193 57.3848 112.3275 0.0000 0.0000 0.0000
# 4 0.0000 0.0000 0.0000 28.7061 0.0000 0.0000
# 5 0.0000 0.0000 0.0000 0.0000 25.1039 0.0000
# 6 0.0000 0.0000 0.0000 0.0000 0.0000 29.2375
#
#
#
# Elastic Compliance Matrix: (Units=1/GPa)
#
#
# Indices 1 2 3 4 5 6 
#
# 1 0.010886 -0.002673 -0.002387 0.000000 0.000000 0.000000
# 2 -0.002673 0.012748 -0.005591 0.000000 0.000000 0.000000
# 3 -0.002387 -0.005591 0.012582 0.000000 0.000000 0.000000
# 4 0.000000 0.000000 0.000000 0.034836 0.000000 0.000000
# 5 0.000000 0.000000 0.000000 0.000000 0.039834 0.000000
# 6 0.000000 0.000000 0.000000 0.000000 0.000000 0.034203
#
#
# Mechanical properties :
#
#
# Convention : Reuss Voigt Hill
#
# Bulk Modulus (GPa) = 67.05362 67.43642 67.24502
# Shear Modulus (GPa) = 29.17798 29.83257 29.50528
#
# Velocity S-wave (km/s) = 3.80055 3.84295 3.82181
# Velocity P-wave (km/s) = 7.24245 7.28523 7.26387
#
# Compressibility (1/GPa) = 0.01491344
#
# Stress axis : x y z
#
# Youngs Moduli (GPa) = 91.86016 78.44307 79.48123
#
# Poissons Ratio (x) = 0.20970 0.18970
# Poissons Ratio (y) = 0.24557 0.44439
# Poissons Ratio (z) = 0.21924 0.43859
#
# Static dielectric constant tensor:
#      x y z
#    x 3.725500 0.000000 0.000000 
#    y 0.000000 3.563940 0.000000 
#    z 0.000000 0.000000 3.608330 
# 
# 
# High freq. dielectric constant tensor:
#      x y z
#    x 1.795100 0.000000 0.000000 
#    y 0.000000 1.787450 0.000000 
#    z 0.000000 0.000000 1.787740 
# 
# From -- ./inp_files/17773.got.cif
#   From: 2010.03.12/outbox.cif.g09.slc.cpg/sg68_9_cif.got.tgz:17773.got - 2010.04.10 23:14:56.
