data_PCOD8283915
_publ_section_title
;
Structure prediction by ZEFSAII (Michael W. Deem and Ramdas Pophale) SiO2 
 PCOD8283915
Probable space group: F M M M
;
_chemical_formula_sum "Si O2"
_cell_formula_units_Z 128
_cell_length_a 9.061086
_cell_length_b 29.101918
_cell_length_c 34.133938
_cell_angle_alpha 90.000000
_cell_angle_beta 90.000000
_cell_angle_gamma 90.000000
_cell_volume 9000.948158
_symmetry_space_group_name_H-M "F M M M"
_symmetry_group_IT_number 69
_symmetry_cell_setting 'orthorhombic'
loop_
_space_group_symop_operation_xyz
x,y,z
-x,-y,z
x,-y,-z
-x,y,-z
-x,-y,-z
x,y,-z
-x,y,z
x,-y,z
x,1/2+y,1/2+z
-x,1/2-y,1/2+z
x,1/2-y,1/2-z
-x,1/2+y,1/2-z
-x,1/2-y,1/2-z
x,1/2+y,1/2-z
-x,1/2+y,1/2+z
x,1/2-y,1/2+z
1/2+x,y,1/2+z
1/2-x,-y,1/2+z
1/2+x,-y,1/2-z
1/2-x,y,1/2-z
1/2-x,-y,1/2-z
1/2+x,y,1/2-z
1/2-x,y,1/2+z
1/2+x,-y,1/2+z
1/2+x,1/2+y,z
1/2-x,1/2-y,z
1/2+x,1/2-y,-z
1/2-x,1/2+y,-z
1/2-x,1/2-y,-z
1/2+x,1/2+y,-z
1/2-x,1/2+y,z
1/2+x,1/2-y,z
loop_
_atom_site_type_symbol
_atom_site_label
_atom_site_fract_x
_atom_site_fract_y
_atom_site_fract_z
Si Si1 0.665781 0.050473 0.353863
Si Si2 0.175768 0.607591 0.574174
Si Si3 0.174635 0.500000 0.208224
Si Si4 0.672942 0.704470 0.045165
Si Si5 0.323851 0.948100 0.500000
O O1 0.500000 0.065182 0.340841
O O2 0.733917 0.086965 0.384617
O O3 0.770427 0.045775 0.315416
O O4 0.658628 0.000000 0.374596
O O5 0.227875 0.660394 0.569908
O O6 0.239293 0.577800 0.538231
O O7 0.000000 0.604424 0.573303
O O8 0.250000 0.500000 0.250000
O O9 0.000000 0.500000 0.212672
O O10 0.500000 0.711421 0.049548
O O11 0.750000 0.750000 0.062182
O O12 0.717258 0.696317 0.000000
O O13 0.500000 0.946743 0.500000
O O14 0.264044 0.000000 0.500000
#
# Coordination Sequence:
#
# PCOD8283915 Si02
#       5
#    32  32  16  32  16
#     4   8  15  26  41  62  85 108 134 168 204 241
#     4   9  14  23  37  57  82 107 139 178 213 241
#     4  10  18  30  46  63  84 111 137 162 195 240
#     4   9  16  26  39  55  76 104 143 185 219 246
#     4   9  14  18  31  56  80 104 138 178 209 236
#
# _framework density 14.220724000000001
#
# number of rings (size 3 to 8) (size 9 to 14) (size 15 to 20)
#    0.750    2.375    1.250    1.500    0.000    3.000 
#    0.000    1.250    0.000    0.000    0.000    0.875 
#    0.000    1.000    0.000   11.500    0.000    3.500 
#
# Total GULP energy -396453.144598 kJ/mol
# GULP energy per Si atom -12389.160769 kJ/mol
# Density = 1.418836 g / cm^3
# Si number density = 14.220724 Si / 1000 Ang^3
#
#
#
# Elastic Constant Matrix: (Units=GPa)
#
#
# Indices 1 2 3 4 5 6 
#
# 1 43.4487 24.9606 35.9882 0.0000 0.0000 0.0000
# 2 24.9606 108.4691 56.4411 0.0000 0.0000 0.0000
# 3 35.9882 56.4411 105.0638 0.0000 0.0000 0.0000
# 4 0.0000 0.0000 0.0000 11.8208 0.0000 0.0000
# 5 0.0000 0.0000 0.0000 0.0000 14.8915 0.0000
# 6 0.0000 0.0000 0.0000 0.0000 0.0000 17.2758
#
#
#
# Elastic Compliance Matrix: (Units=1/GPa)
#
#
# Indices 1 2 3 4 5 6 
#
# 1 0.032556 -0.002344 -0.009892 0.000000 0.000000 0.000000
# 2 -0.002344 0.012965 -0.006162 0.000000 0.000000 0.000000
# 3 -0.009892 -0.006162 0.016217 0.000000 0.000000 0.000000
# 4 0.000000 0.000000 0.000000 0.084597 0.000000 0.000000
# 5 0.000000 0.000000 0.000000 0.000000 0.067153 0.000000
# 6 0.000000 0.000000 0.000000 0.000000 0.000000 0.057884
#
#
# Mechanical properties :
#
#
# Convention : Reuss Voigt Hill
#
# Bulk Modulus (GPa) = 40.09492 54.64016 47.36754
# Shear Modulus (GPa) = 15.79868 18.10372 16.95120
#
# Velocity S-wave (km/s) = 3.33673 3.57186 3.45629
# Velocity P-wave (km/s) = 6.56513 7.45099 7.02204
#
# Compressibility (1/GPa) = 0.02494081
#
# Stress axis : x y z
#
# Youngs Moduli (GPa) = 30.71619 77.13088 61.66486
#
# Poissons Ratio (x) = 0.18082 0.61000
# Poissons Ratio (y) = 0.07201 0.37997
# Poissons Ratio (z) = 0.30385 0.47527
#
# Static dielectric constant tensor:
#      x y z
#    x 2.450860 0.000000 0.000000 
#    y 0.000000 2.832580 0.000000 
#    z 0.000000 0.000000 2.624930 
# 
# 
# High freq. dielectric constant tensor:
#      x y z
#    x 1.510050 0.000000 0.000000 
#    y 0.000000 1.531290 0.000000 
#    z 0.000000 0.000000 1.516140 
# 
# From -- ./inp_files/12459.got.cif
#   From: 2010.03.12/outbox.cif.g09.slc.cpg/sg69_7_cif.got.tgz:12459.got - 2010.04.10 23:52:46.
