data_PCOD8283015
_publ_section_title
;
Structure prediction by ZEFSAII (Michael W. Deem and Ramdas Pophale) SiO2 
 PCOD8283015
Probable space group: C C C A
;
_chemical_formula_sum "Si O2"
_cell_formula_units_Z 48
_cell_length_a 8.029882
_cell_length_b 20.330110
_cell_length_c 12.618082
_cell_angle_alpha 90.000000
_cell_angle_beta 90.000000
_cell_angle_gamma 90.000000
_cell_volume 2059.881500
_symmetry_space_group_name_H-M "C C C A"
_symmetry_group_IT_number 68
_space_group.IT_coordinate_system_code '2'
_symmetry_cell_setting 'orthorhombic'
loop_
_space_group_symop_operation_xyz
x,y,z
-x,1/2-y,z
x,1/2-y,1/2-z
-x,y,1/2-z
-x,-y,-z
x,1/2+y,-z
-x,1/2+y,1/2+z
x,-y,1/2+z
1/2+x,1/2+y,z
1/2-x,-y,z
1/2+x,-y,1/2-z
1/2-x,1/2+y,1/2-z
1/2-x,1/2-y,-z
1/2+x,y,-z
1/2-x,y,1/2+z
1/2+x,1/2-y,1/2+z
loop_
_atom_site_type_symbol
_atom_site_label
_atom_site_fract_x
_atom_site_fract_y
_atom_site_fract_z
Si Si1 0.500000 0.904236 0.250000
Si Si2 0.570983 0.875186 0.869207
Si Si3 0.250000 0.500000 0.832825
Si Si4 0.583035 0.820985 0.434600
O O1 0.468071 0.861094 0.353726
O O2 0.338635 0.949152 0.244466
O O3 0.500000 0.867991 0.750000
O O4 0.625484 0.951316 0.897590
O O5 0.726418 0.824597 0.891244
O O6 0.424715 0.855126 0.949969
O O7 0.500000 0.750000 0.439260
#
# Coordination Sequence:
#
# PCOD8283015 Si02
#       4
#     8  16   8  16
#     4  10  23  42  72 100 145 186 234 304 356 436
#     4  11  26  47  74 111 144 195 241 307 364 437
#     4  10  22  44  70 108 146 180 250 290 378 430
#     4  11  26  47  74 105 149 192 245 297 368 436
#
# _framework density 23.302312000000001
#
# number of rings (size 3 to 8) (size 9 to 14) (size 15 to 20)
#    0.000    1.333    1.667    1.500    9.333    7.333 
#   12.000    0.000    0.000    0.000    0.000    0.000 
#    0.000    0.000    0.000    0.000    0.000    0.000 
#
# Total GULP energy -297320.279062 kJ/mol
# GULP energy per Si atom -12388.344961 kJ/mol
# Density = 2.324927 g / cm^3
# Si number density = 23.302312 Si / 1000 Ang^3
#
#
#
# Elastic Constant Matrix: (Units=GPa)
#
#
# Indices 1 2 3 4 5 6 
#
# 1 93.3820 50.0864 52.6900 0.0000 0.0000 0.0000
# 2 50.0864 145.1035 77.2625 0.0000 0.0000 0.0000
# 3 52.6900 77.2625 169.9416 0.0000 0.0000 0.0000
# 4 0.0000 0.0000 0.0000 -72.2096 0.0000 0.0000
# 5 0.0000 0.0000 0.0000 0.0000 30.7505 0.0000
# 6 0.0000 0.0000 0.0000 0.0000 0.0000 23.9336
#
#
#
# Elastic Compliance Matrix: (Units=1/GPa)
#
#
# Indices 1 2 3 4 5 6 
#
# 1 0.014117 -0.003354 -0.002852 0.000000 0.000000 0.000000
# 2 -0.003354 0.009890 -0.003456 0.000000 0.000000 0.000000
# 3 -0.002852 -0.003456 0.008340 0.000000 0.000000 0.000000
# 4 0.000000 0.000000 0.000000 -0.013849 0.000000 0.000000
# 5 0.000000 0.000000 0.000000 0.000000 0.032520 0.000000
# 6 0.000000 0.000000 0.000000 0.000000 0.000000 0.041782
#
#
# Mechanical properties :
#
#
# Convention : Reuss Voigt Hill
#
# Bulk Modulus (GPa) = 76.79498 85.38943 81.09220
# Shear Modulus (GPa) = 42.93094 11.72077 27.32586
#
# Velocity S-wave (km/s) = 4.29691 2.24517 3.42814
# Velocity P-wave (km/s) = 7.59246 6.59127 7.10951
#
# Compressibility (1/GPa) = 0.01302168
#
# Stress axis : x y z
#
# Youngs Moduli (GPa) = 70.83658 101.11386 119.90410
#
# Poissons Ratio (x) = 0.33917 0.34196
# Poissons Ratio (y) = 0.23761 0.41443
# Poissons Ratio (z) = 0.20202 0.34948
#
# Static dielectric constant tensor:
#      x y z
#    x 6.841760 0.000000 0.000000 
#    y 0.000000 4.510430 0.000000 
#    z 0.000000 0.000000 4.394390 
# 
# 
# High freq. dielectric constant tensor:
#      x y z
#    x 1.927010 0.000000 0.000000 
#    y 0.000000 1.932740 0.000000 
#    z 0.000000 0.000000 1.912240 
# 
# From -- ./inp_files/10451.got.cif
#   From: 2010.03.12/outbox.cif.g09.slc.cpg/sg68_6_cif.got.tgz:10451.got - 2010.04.10 23:14:56.
