data_PCOD8283557
_publ_section_title
;
Structure prediction by ZEFSAII (Michael W. Deem and Ramdas Pophale) SiO2 
 PCOD8283557
Probable space group: C C C A
;
_chemical_formula_sum "Si O2"
_cell_formula_units_Z 96
_cell_length_a 16.637167
_cell_length_b 13.372404
_cell_length_c 17.896437
_cell_angle_alpha 90.000000
_cell_angle_beta 90.000000
_cell_angle_gamma 90.000000
_cell_volume 3981.579949
_symmetry_space_group_name_H-M "C C C A"
_symmetry_group_IT_number 68
_space_group.IT_coordinate_system_code '2'
_symmetry_cell_setting 'orthorhombic'
loop_
_space_group_symop_operation_xyz
x,y,z
-x,1/2-y,z
x,1/2-y,1/2-z
-x,y,1/2-z
-x,-y,-z
x,1/2+y,-z
-x,1/2+y,1/2+z
x,-y,1/2+z
1/2+x,1/2+y,z
1/2-x,-y,z
1/2+x,-y,1/2-z
1/2-x,1/2+y,1/2-z
1/2-x,1/2-y,-z
1/2+x,y,-z
1/2-x,y,1/2+z
1/2+x,1/2-y,1/2+z
loop_
_atom_site_type_symbol
_atom_site_label
_atom_site_fract_x
_atom_site_fract_y
_atom_site_fract_z
Si Si1 0.239261 0.696156 0.134582
Si Si2 0.408023 0.369404 0.064900
Si Si3 0.641676 0.422163 0.966788
Si Si4 0.720497 0.606583 0.709441
Si Si5 0.576972 0.061306 0.375052
Si Si6 0.024869 0.853911 0.591073
O O1 0.146959 0.711374 0.107086
O O2 0.297809 0.657908 0.069039
O O3 0.240165 0.618823 0.203478
O O4 0.266074 0.805771 0.163086
O O5 0.344775 0.462963 0.058743
O O6 0.490366 0.387964 0.110801
O O7 0.424242 0.324385 0.982658
O O8 0.552345 0.409272 0.938434
O O9 0.638992 0.417492 0.056455
O O10 0.750000 0.500000 0.679699
O O11 0.622943 0.607545 0.696710
O O12 0.568692 0.940049 0.360449
O O13 0.000000 0.750000 0.634131
#
# Coordination Sequence:
#
# PCOD8283557 Si02
#       6
#    16  16  16  16  16  16
#     4  11  24  41  66  87 122 181 207 253 328 385
#     4   9  19  37  62  92 126 162 212 255 307 383
#     4   9  19  38  62  92 126 167 211 253 321 375
#     4  11  26  42  58  92 130 163 217 265 310 379
#     4   9  21  39  60  96 132 160 208 277 308 365
#     4   9  19  34  62  95 128 165 205 262 318 376
#
# _framework density 24.111032000000002
#
# number of rings (size 3 to 8) (size 9 to 14) (size 15 to 20)
#    0.000    2.333    0.000    3.500    7.000    4.000 
#    0.000    1.667    0.000    0.000    0.000    0.000 
#    0.000    0.000    0.000    0.000    0.000    0.000 
#
# Total GULP energy -594671.848790 kJ/mol
# GULP energy per Si atom -12388.996850 kJ/mol
# Density = 2.405615 g / cm^3
# Si number density = 24.111032 Si / 1000 Ang^3
#
#
#
# Elastic Constant Matrix: (Units=GPa)
#
#
# Indices 1 2 3 4 5 6 
#
# 1 76.0469 23.1720 35.9575 0.0000 0.0000 0.0000
# 2 23.1720 112.2700 33.7584 0.0000 0.0000 0.0000
# 3 35.9575 33.7584 50.1136 0.0000 0.0000 0.0000
# 4 0.0000 0.0000 0.0000 25.2723 0.0000 0.0000
# 5 0.0000 0.0000 0.0000 0.0000 21.1863 0.0000
# 6 0.0000 0.0000 0.0000 0.0000 0.0000 35.3277
#
#
#
# Elastic Compliance Matrix: (Units=1/GPa)
#
#
# Indices 1 2 3 4 5 6 
#
# 1 0.019907 0.000234 -0.014441 0.000000 0.000000 0.000000
# 2 0.000234 0.011172 -0.007694 0.000000 0.000000 0.000000
# 3 -0.014441 -0.007694 0.035499 0.000000 0.000000 0.000000
# 4 0.000000 0.000000 0.000000 0.039569 0.000000 0.000000
# 5 0.000000 0.000000 0.000000 0.000000 0.047200 0.000000
# 6 0.000000 0.000000 0.000000 0.000000 0.000000 0.028306
#
#
# Mechanical properties :
#
#
# Convention : Reuss Voigt Hill
#
# Bulk Modulus (GPa) = 43.90556 47.13405 45.51980
# Shear Modulus (GPa) = 21.45485 26.06010 23.75747
#
# Velocity S-wave (km/s) = 2.98625 3.29118 3.14241
# Velocity P-wave (km/s) = 5.48995 5.83384 5.66450
#
# Compressibility (1/GPa) = 0.02277616
#
# Stress axis : x y z
#
# Youngs Moduli (GPa) = 50.23430 89.50708 28.16984
#
# Poissons Ratio (x) = -0.02090 0.40679
# Poissons Ratio (y) = -0.01173 0.21673
# Poissons Ratio (z) = 0.72542 0.68864
#
# Static dielectric constant tensor:
#      x y z
#    x 4.270460 0.000000 0.000000 
#    y 0.000000 4.690630 0.000000 
#    z 0.000000 0.000000 3.904700 
# 
# 
# High freq. dielectric constant tensor:
#      x y z
#    x 1.952670 0.000000 0.000000 
#    y 0.000000 1.978310 0.000000 
#    z 0.000000 0.000000 1.911310 
# 
# From -- ./inp_files/38578.got.cif
#   From: 2010.03.12/outbox.cif.g09.slc.cpg/sg68_20_cif.got.tgz:38578.got - 2010.04.10 23:14:56.
