data_PCOD8283744
_publ_section_title
;
Structure prediction by ZEFSAII (Michael W. Deem and Ramdas Pophale) SiO2 
 PCOD8283744
Probable space group: C C C A
;
_chemical_formula_sum "Si O2"
_cell_formula_units_Z 52
_cell_length_a 8.342713
_cell_length_b 16.518721
_cell_length_c 16.177576
_cell_angle_alpha 90.000000
_cell_angle_beta 90.000000
_cell_angle_gamma 90.000000
_cell_volume 2229.447092
_symmetry_space_group_name_H-M "C C C A"
_symmetry_group_IT_number 68
_space_group.IT_coordinate_system_code '2'
_symmetry_cell_setting 'orthorhombic'
loop_
_space_group_symop_operation_xyz
x,y,z
-x,1/2-y,z
x,1/2-y,1/2-z
-x,y,1/2-z
-x,-y,-z
x,1/2+y,-z
-x,1/2+y,1/2+z
x,-y,1/2+z
1/2+x,1/2+y,z
1/2-x,-y,z
1/2+x,-y,1/2-z
1/2-x,1/2+y,1/2-z
1/2-x,1/2-y,-z
1/2+x,y,-z
1/2-x,y,1/2+z
1/2+x,1/2-y,1/2+z
loop_
_atom_site_type_symbol
_atom_site_label
_atom_site_fract_x
_atom_site_fract_y
_atom_site_fract_z
Si Si1 0.430904 0.027122 0.334710
Si Si2 0.545494 0.161869 0.445231
Si Si3 0.600886 0.634153 0.113178
Si Si4 0.500000 0.250000 0.750000
O O1 0.500000 0.065233 0.250000
O O2 0.427992 0.095784 0.404847
O O3 0.250000 0.000000 0.321263
O O4 0.550276 0.954796 0.358672
O O5 0.500000 0.250000 0.409177
O O6 0.525632 0.163788 0.544351
O O7 0.725101 0.134567 0.427125
O O8 0.608502 0.693105 0.192246
#
# Coordination Sequence:
#
# PCOD8283744 Si02
#       4
#    16  16  16   4
#     4  12  27  47  73 109 152 196 248 307 374 442
#     4  12  27  46  78 108 149 191 250 302 373 440
#     4  12  26  50  75 110 148 197 245 309 371 440
#     4  12  28  44  82 104 152 184 250 300 368 428
#
# _framework density 23.324166999999999
#
# number of rings (size 3 to 8) (size 9 to 14) (size 15 to 20)
#    0.000    0.000    3.077    6.462    4.308    0.615 
#    0.000    0.000    0.000    0.000    0.000    0.000 
#    0.000    0.000    0.000    0.000    0.000    0.000 
#
# Total GULP energy -322556.420087 kJ/mol
# GULP energy per Si atom -12406.016157 kJ/mol
# Density = 2.327108 g / cm^3
# Si number density = 23.324167 Si / 1000 Ang^3
#
#
#
# Elastic Constant Matrix: (Units=GPa)
#
#
# Indices 1 2 3 4 5 6 
#
# 1 133.2829 19.5585 46.0159 0.0000 0.0000 0.0000
# 2 19.5585 145.7525 51.1650 0.0000 0.0000 0.0000
# 3 46.0159 51.1650 150.2084 0.0000 0.0000 0.0000
# 4 0.0000 0.0000 0.0000 35.2603 0.0000 0.0000
# 5 0.0000 0.0000 0.0000 0.0000 36.3528 0.0000
# 6 0.0000 0.0000 0.0000 0.0000 0.0000 25.5305
#
#
#
# Elastic Compliance Matrix: (Units=1/GPa)
#
#
# Indices 1 2 3 4 5 6 
#
# 1 0.008399 -0.000254 -0.002486 0.000000 0.000000 0.000000
# 2 -0.000254 0.007800 -0.002579 0.000000 0.000000 0.000000
# 3 -0.002486 -0.002579 0.008298 0.000000 0.000000 0.000000
# 4 0.000000 0.000000 0.000000 0.028361 0.000000 0.000000
# 5 0.000000 0.000000 0.000000 0.000000 0.027508 0.000000
# 6 0.000000 0.000000 0.000000 0.000000 0.000000 0.039169
#
#
# Mechanical properties :
#
#
# Convention : Reuss Voigt Hill
#
# Bulk Modulus (GPa) = 72.16421 73.63586 72.90004
# Shear Modulus (GPa) = 37.09402 40.26233 38.67818
#
# Velocity S-wave (km/s) = 3.99227 4.15927 4.07663
# Velocity P-wave (km/s) = 7.22895 7.39630 7.31310
#
# Compressibility (1/GPa) = 0.01385728
#
# Stress axis : x y z
#
# Youngs Moduli (GPa) = 119.06844 128.19776 120.51658
#
# Poissons Ratio (x) = 0.03259 0.29964
# Poissons Ratio (y) = 0.03027 0.31083
# Poissons Ratio (z) = 0.29604 0.33064
#
# Static dielectric constant tensor:
#      x y z
#    x 4.007530 0.000000 0.000000 
#    y 0.000000 4.342480 0.000000 
#    z 0.000000 0.000000 4.654310 
# 
# 
# High freq. dielectric constant tensor:
#      x y z
#    x 1.922760 0.000000 0.000000 
#    y 0.000000 1.934390 0.000000 
#    z 0.000000 0.000000 1.938700 
# 
# From -- ./inp_files/18972.got.cif
#   From: 2010.03.12/outbox.cif.g09.slc.cpg/sg68_10_cif.got.tgz:18972.got - 2010.04.10 23:14:56.
