data_PCOD8283239
_publ_section_title
;
Structure prediction by ZEFSAII (Michael W. Deem and Ramdas Pophale) SiO2 
 PCOD8283239
Probable space group: C C C A
;
_chemical_formula_sum "Si O2"
_cell_formula_units_Z 80
_cell_length_a 15.997224
_cell_length_b 23.838988
_cell_length_c 8.952815
_cell_angle_alpha 90.000000
_cell_angle_beta 90.000000
_cell_angle_gamma 90.000000
_cell_volume 3414.224319
_symmetry_space_group_name_H-M "C C C A"
_symmetry_group_IT_number 68
_space_group.IT_coordinate_system_code '2'
_symmetry_cell_setting 'orthorhombic'
loop_
_space_group_symop_operation_xyz
x,y,z
-x,1/2-y,z
x,1/2-y,1/2-z
-x,y,1/2-z
-x,-y,-z
x,1/2+y,-z
-x,1/2+y,1/2+z
x,-y,1/2+z
1/2+x,1/2+y,z
1/2-x,-y,z
1/2+x,-y,1/2-z
1/2-x,1/2+y,1/2-z
1/2-x,1/2-y,-z
1/2+x,y,-z
1/2-x,y,1/2+z
1/2+x,1/2-y,1/2+z
loop_
_atom_site_type_symbol
_atom_site_label
_atom_site_fract_x
_atom_site_fract_y
_atom_site_fract_z
Si Si1 0.681000 0.282428 0.099339
Si Si2 0.500000 0.485202 0.250000
Si Si3 0.785266 0.114241 0.313753
Si Si4 0.750000 0.000000 0.156257
Si Si5 0.590618 0.305191 0.825386
Si Si6 0.893643 0.543647 0.509420
O O1 0.657575 0.250000 0.250000
O O2 0.712083 0.344400 0.140844
O O3 0.750000 0.250000 0.000000
O O4 0.594905 0.291544 0.003096
O O5 0.537425 0.445755 0.380769
O O6 0.431588 0.524588 0.331110
O O7 0.848206 0.142396 0.196020
O O8 0.840965 0.100281 0.461709
O O9 0.745353 0.056301 0.255025
O O10 0.831815 0.004579 0.051864
O O11 0.630978 0.250000 0.750000
O O12 0.500000 0.316402 0.750000
#
# Coordination Sequence:
#
# PCOD8283239 Si02
#       6
#    16   8  16   8  16  16
#     4  12  23  49  80 109 146 198 257 318 382 455
#     4  10  24  46  66  92 155 201 248 294 388 444
#     4  12  24  44  75 110 148 197 253 310 376 450
#     4  12  26  44  70 110 146 190 260 306 362 462
#     4  11  25  47  76 110 153 194 249 320 394 452
#     4  11  24  44  66 100 143 200 245 310 367 457
#
# _framework density 23.431383
#
# number of rings (size 3 to 8) (size 9 to 14) (size 15 to 20)
#    0.000    0.600    6.000    1.800    1.400    0.000 
#    3.600    2.000    0.000    0.000    0.000    0.000 
#    0.000    0.000    0.000    0.000    0.000    0.000 
#
# Total GULP energy -495703.743867 kJ/mol
# GULP energy per Si atom -12392.593597 kJ/mol
# Density = 2.337805 g / cm^3
# Si number density = 23.431383 Si / 1000 Ang^3
#
#
#
# Elastic Constant Matrix: (Units=GPa)
#
#
# Indices 1 2 3 4 5 6 
#
# 1 103.2635 38.1018 66.1273 0.0000 0.0000 0.0000
# 2 38.1018 141.2622 55.3374 0.0000 0.0000 0.0000
# 3 66.1273 55.3374 174.9826 0.0000 0.0000 0.0000
# 4 0.0000 0.0000 0.0000 37.4365 0.0000 0.0000
# 5 0.0000 0.0000 0.0000 0.0000 50.5675 0.0000
# 6 0.0000 0.0000 0.0000 0.0000 0.0000 17.7692
#
#
#
# Elastic Compliance Matrix: (Units=1/GPa)
#
#
# Indices 1 2 3 4 5 6 
#
# 1 0.013178 -0.001830 -0.004401 0.000000 0.000000 0.000000
# 2 -0.001830 0.008334 -0.001944 0.000000 0.000000 0.000000
# 3 -0.004401 -0.001944 0.007993 0.000000 0.000000 0.000000
# 4 0.000000 0.000000 0.000000 0.026712 0.000000 0.000000
# 5 0.000000 0.000000 0.000000 0.000000 0.019776 0.000000
# 6 0.000000 0.000000 0.000000 0.000000 0.000000 0.056277
#
#
# Mechanical properties :
#
#
# Convention : Reuss Voigt Hill
#
# Bulk Modulus (GPa) = 76.02258 82.07125 79.04692
# Shear Modulus (GPa) = 32.67873 38.48408 35.58141
#
# Velocity S-wave (km/s) = 3.73856 4.05707 3.90107
# Velocity P-wave (km/s) = 7.15199 7.55306 7.35526
#
# Compressibility (1/GPa) = 0.01315399
#
# Stress axis : x y z
#
# Youngs Moduli (GPa) = 75.88611 119.98714 125.11180
#
# Poissons Ratio (x) = 0.21961 0.55063
# Poissons Ratio (y) = 0.13889 0.24322
# Poissons Ratio (z) = 0.33398 0.23325
#
# Static dielectric constant tensor:
#      x y z
#    x 4.241450 0.000000 0.000000 
#    y 0.000000 4.144970 0.000000 
#    z 0.000000 0.000000 4.562580 
# 
# 
# High freq. dielectric constant tensor:
#      x y z
#    x 1.917860 0.000000 0.000000 
#    y 0.000000 1.913200 0.000000 
#    z 0.000000 0.000000 1.945140 
# 
# From -- ./inp_files/6292.got.cif
#   From: 2010.03.12/outbox.cif.g09.slc.cpg/sg68_4_cif.got.tgz:6292.got - 2010.04.10 23:14:56.
