data_PCOD8283220
_publ_section_title
;
Structure prediction by ZEFSAII (Michael W. Deem and Ramdas Pophale) SiO2 
 PCOD8283220
Probable space group: C C C A
;
_chemical_formula_sum "Si O2"
_cell_formula_units_Z 116
_cell_length_a 26.851551
_cell_length_b 9.299318
_cell_length_c 21.330127
_cell_angle_alpha 90.000000
_cell_angle_beta 90.000000
_cell_angle_gamma 90.000000
_cell_volume 5326.156421
_symmetry_space_group_name_H-M "C C C A"
_symmetry_group_IT_number 68
_space_group.IT_coordinate_system_code '2'
_symmetry_cell_setting 'orthorhombic'
loop_
_space_group_symop_operation_xyz
x,y,z
-x,1/2-y,z
x,1/2-y,1/2-z
-x,y,1/2-z
-x,-y,-z
x,1/2+y,-z
-x,1/2+y,1/2+z
x,-y,1/2+z
1/2+x,1/2+y,z
1/2-x,-y,z
1/2+x,-y,1/2-z
1/2-x,1/2+y,1/2-z
1/2-x,1/2-y,-z
1/2+x,y,-z
1/2-x,y,1/2+z
1/2+x,1/2-y,1/2+z
loop_
_atom_site_type_symbol
_atom_site_label
_atom_site_fract_x
_atom_site_fract_y
_atom_site_fract_z
Si Si1 0.200911 0.924529 0.254754
Si Si2 0.500000 0.750000 0.750000
Si Si3 0.628374 0.640104 0.307475
Si Si4 0.117000 0.262799 0.929769
Si Si5 0.533385 0.003858 0.937627
Si Si6 0.376574 0.309769 0.931486
Si Si7 0.947583 0.558265 0.347342
Si Si8 0.194664 0.039700 0.613563
O O1 0.203655 0.750000 0.250000
O O2 0.193266 0.995279 0.186729
O O3 0.250000 0.000000 0.283264
O O4 0.157485 0.988503 0.297927
O O5 0.539205 0.833299 0.707489
O O6 0.636039 0.750000 0.250000
O O7 0.642247 0.709908 0.374428
O O8 0.572008 0.586591 0.313861
O O9 0.071700 0.374299 0.930644
O O10 0.093168 0.120700 0.897358
O O11 0.169538 0.301446 0.894305
O O12 0.135464 0.252514 0.000999
O O13 0.497727 0.991968 0.879225
O O14 0.564293 0.152635 0.930948
O O15 0.500000 0.000000 0.000000
O O16 0.344228 0.452055 0.927206
O O17 0.250000 0.000000 0.587769
#
# Coordination Sequence:
#
# PCOD8283220 Si02
#       8
#    16   4  16  16  16  16  16  16
#     4  11  24  46  78 106 142 192 247 297 366 442
#     4  12  28  44  66 104 140 188 232 300 368 424
#     4  12  27  45  67 105 149 188 238 303 362 438
#     4  11  23  44  70 101 134 186 243 298 357 433
#     4  11  22  43  69  99 136 189 240 300 353 430
#     4  11  25  43  71 102 141 184 243 295 362 432
#     4  12  26  42  70 100 142 187 240 298 363 434
#     4  10  24  44  70  99 142 186 231 301 362 425
#
# _framework density 21.779306999999999
#
# number of rings (size 3 to 8) (size 9 to 14) (size 15 to 20)
#    0.000    0.828    4.138    2.069    8.690    2.207 
#    0.000    0.690    0.000    0.000    0.000    0.000 
#    0.000    0.000    0.000    0.000    0.000    0.000 
#
# Total GULP energy -718515.552016 kJ/mol
# GULP energy per Si atom -12388.199173 kJ/mol
# Density = 2.172974 g / cm^3
# Si number density = 21.779307 Si / 1000 Ang^3
#
#
#
# Elastic Constant Matrix: (Units=GPa)
#
#
# Indices 1 2 3 4 5 6 
#
# 1 118.4076 28.4035 33.0826 0.0000 0.0000 0.0000
# 2 28.4035 80.4921 16.0006 0.0000 0.0000 0.0000
# 3 33.0826 16.0006 105.9630 0.0000 0.0000 0.0000
# 4 0.0000 0.0000 0.0000 37.1882 0.0000 0.0000
# 5 0.0000 0.0000 0.0000 0.0000 43.8718 0.0000
# 6 0.0000 0.0000 0.0000 0.0000 0.0000 39.2698
#
#
#
# Elastic Compliance Matrix: (Units=1/GPa)
#
#
# Indices 1 2 3 4 5 6 
#
# 1 0.009895 -0.002967 -0.002641 0.000000 0.000000 0.000000
# 2 -0.002967 0.013697 -0.001142 0.000000 0.000000 0.000000
# 3 -0.002641 -0.001142 0.010434 0.000000 0.000000 0.000000
# 4 0.000000 0.000000 0.000000 0.026890 0.000000 0.000000
# 5 0.000000 0.000000 0.000000 0.000000 0.022794 0.000000
# 6 0.000000 0.000000 0.000000 0.000000 0.000000 0.025465
#
#
# Mechanical properties :
#
#
# Convention : Reuss Voigt Hill
#
# Bulk Modulus (GPa) = 48.71718 51.09289 49.90503
# Shear Modulus (GPa) = 38.60465 39.22436 38.91451
#
# Velocity S-wave (km/s) = 4.21472 4.24841 4.23160
# Velocity P-wave (km/s) = 6.78987 6.89751 6.84390
#
# Compressibility (1/GPa) = 0.02052664
#
# Stress axis : x y z
#
# Youngs Moduli (GPa) = 101.06097 73.00626 95.83709
#
# Poissons Ratio (x) = 0.21658 0.25314
# Poissons Ratio (y) = 0.29981 0.10946
# Poissons Ratio (z) = 0.26694 0.08338
#
# Static dielectric constant tensor:
#      x y z
#    x 4.170210 0.000000 0.000000 
#    y 0.000000 4.096190 0.000000 
#    z 0.000000 0.000000 3.955150 
# 
# 
# High freq. dielectric constant tensor:
#      x y z
#    x 1.860140 0.000000 0.000000 
#    y 0.000000 1.855420 0.000000 
#    z 0.000000 0.000000 1.861060 
# 
# From -- ./inp_files/47309.got.cif
#   From: 2010.03.12/outbox.cif.g09.slc.cpg/sg68_24_cif.got.tgz:47309.got - 2010.04.10 23:14:56.
