data_PCOD8283089
_publ_section_title
;
Structure prediction by ZEFSAII (Michael W. Deem and Ramdas Pophale) SiO2 
 PCOD8283089
Probable space group: C C C A
;
_chemical_formula_sum "Si O2"
_cell_formula_units_Z 96
_cell_length_a 14.395332
_cell_length_b 21.372147
_cell_length_c 14.466912
_cell_angle_alpha 90.000000
_cell_angle_beta 90.000000
_cell_angle_gamma 90.000000
_cell_volume 4450.877872
_symmetry_space_group_name_H-M "C C C A"
_symmetry_group_IT_number 68
_space_group.IT_coordinate_system_code '2'
_symmetry_cell_setting 'orthorhombic'
loop_
_space_group_symop_operation_xyz
x,y,z
-x,1/2-y,z
x,1/2-y,1/2-z
-x,y,1/2-z
-x,-y,-z
x,1/2+y,-z
-x,1/2+y,1/2+z
x,-y,1/2+z
1/2+x,1/2+y,z
1/2-x,-y,z
1/2+x,-y,1/2-z
1/2-x,1/2+y,1/2-z
1/2-x,1/2-y,-z
1/2+x,y,-z
1/2-x,y,1/2+z
1/2+x,1/2-y,1/2+z
loop_
_atom_site_type_symbol
_atom_site_label
_atom_site_fract_x
_atom_site_fract_y
_atom_site_fract_z
Si Si1 0.852822 0.860920 0.558966
Si Si2 0.557582 0.862059 0.510611
Si Si3 0.093721 0.679926 0.211229
Si Si4 0.793588 0.868290 0.751688
Si Si5 0.605299 0.732690 0.140572
Si Si6 0.209732 0.931758 0.558941
O O1 0.836708 0.897639 0.656786
O O2 0.839189 0.788724 0.590116
O O3 0.778722 0.879246 0.481904
O O4 0.950442 0.874267 0.510095
O O5 0.578235 0.822138 0.601707
O O6 0.606381 0.822839 0.431325
O O7 0.614221 0.927671 0.501825
O O8 0.102090 0.750000 0.250000
O O9 0.183349 0.641202 0.241048
O O10 0.000000 0.647366 0.250000
O O11 0.844808 0.800256 0.769574
O O12 0.808601 0.918589 0.832626
O O13 0.500000 0.750000 0.167024
O O14 0.250000 0.000000 0.544385
#
# Coordination Sequence:
#
# PCOD8283089 Si02
#       6
#    16  16  16  16  16  16
#     4  11  22  41  69  93 134 170 208 270 327 398
#     4  10  23  41  65  98 129 173 214 259 330 394
#     4  11  23  36  63 100 141 169 209 256 328 409
#     4  11  23  41  66  96 131 170 215 270 334 386
#     4   9  21  36  65  99 133 160 205 253 323 395
#     4  11  26  44  64  91 126 171 230 278 321 380
#
# _framework density 21.56878
#
# number of rings (size 3 to 8) (size 9 to 14) (size 15 to 20)
#    0.000    1.500    1.667    2.500    9.333   10.667 
#    0.000    0.000    3.667    0.000    0.000    0.000 
#    0.000    0.000    0.000    0.000    0.000    0.000 
#
# Total GULP energy -594881.233116 kJ/mol
# GULP energy per Si atom -12393.359023 kJ/mol
# Density = 2.151969 g / cm^3
# Si number density = 21.568780 Si / 1000 Ang^3
#
#
#
# Elastic Constant Matrix: (Units=GPa)
#
#
# Indices 1 2 3 4 5 6 
#
# 1 117.8381 19.1281 26.0223 0.0000 0.0000 0.0000
# 2 19.1281 50.1829 7.6720 0.0000 0.0000 0.0000
# 3 26.0223 7.6720 97.9237 0.0000 0.0000 0.0000
# 4 0.0000 0.0000 0.0000 21.1182 0.0000 0.0000
# 5 0.0000 0.0000 0.0000 0.0000 35.0527 0.0000
# 6 0.0000 0.0000 0.0000 0.0000 0.0000 20.5851
#
#
#
# Elastic Compliance Matrix: (Units=1/GPa)
#
#
# Indices 1 2 3 4 5 6 
#
# 1 0.009521 -0.003282 -0.002273 0.000000 0.000000 0.000000
# 2 -0.003282 0.021300 -0.000797 0.000000 0.000000 0.000000
# 3 -0.002273 -0.000797 0.010878 0.000000 0.000000 0.000000
# 4 0.000000 0.000000 0.000000 0.047353 0.000000 0.000000
# 5 0.000000 0.000000 0.000000 0.000000 0.028528 0.000000
# 6 0.000000 0.000000 0.000000 0.000000 0.000000 0.048579
#
#
# Mechanical properties :
#
#
# Convention : Reuss Voigt Hill
#
# Bulk Modulus (GPa) = 34.48686 41.28773 37.88730
# Shear Modulus (GPa) = 26.52141 29.55934 28.04038
#
# Velocity S-wave (km/s) = 3.51040 3.70600 3.60952
# Velocity P-wave (km/s) = 5.69688 6.12344 5.91401
#
# Compressibility (1/GPa) = 0.02899655
#
# Stress axis : x y z
#
# Youngs Moduli (GPa) = 105.03275 46.94892 91.92462
#
# Poissons Ratio (x) = 0.15407 0.20894
# Poissons Ratio (y) = 0.34467 0.07324
# Poissons Ratio (z) = 0.23874 0.03741
#
# Static dielectric constant tensor:
#      x y z
#    x 4.239220 0.000000 0.000000 
#    y 0.000000 3.546080 0.000000 
#    z 0.000000 0.000000 4.181460 
# 
# 
# High freq. dielectric constant tensor:
#      x y z
#    x 1.863000 0.000000 0.000000 
#    y 0.000000 1.799510 0.000000 
#    z 0.000000 0.000000 1.875330 
# 
# From -- ./inp_files/22370.got.cif
#   From: 2010.03.12/outbox.cif.g09.slc.cpg/sg68_12_cif.got.tgz:22370.got - 2010.04.10 23:14:56.
