data_PCOD8283401
_publ_section_title
;
Structure prediction by ZEFSAII (Michael W. Deem and Ramdas Pophale) SiO2 
 PCOD8283401
Probable space group: C C C A
;
_chemical_formula_sum "Si O2"
_cell_formula_units_Z 96
_cell_length_a 14.910668
_cell_length_b 21.246928
_cell_length_c 13.112018
_cell_angle_alpha 90.000000
_cell_angle_beta 90.000000
_cell_angle_gamma 90.000000
_cell_volume 4153.964525
_symmetry_space_group_name_H-M "C C C A"
_symmetry_group_IT_number 68
_space_group.IT_coordinate_system_code '2'
_symmetry_cell_setting 'orthorhombic'
loop_
_space_group_symop_operation_xyz
x,y,z
-x,1/2-y,z
x,1/2-y,1/2-z
-x,y,1/2-z
-x,-y,-z
x,1/2+y,-z
-x,1/2+y,1/2+z
x,-y,1/2+z
1/2+x,1/2+y,z
1/2-x,-y,z
1/2+x,-y,1/2-z
1/2-x,1/2+y,1/2-z
1/2-x,1/2-y,-z
1/2+x,y,-z
1/2-x,y,1/2+z
1/2+x,1/2-y,1/2+z
loop_
_atom_site_type_symbol
_atom_site_label
_atom_site_fract_x
_atom_site_fract_y
_atom_site_fract_z
Si Si1 0.829561 0.951911 0.910071
Si Si2 0.602019 0.873874 0.741304
Si Si3 0.904223 0.110250 0.226282
Si Si4 0.259415 0.197194 0.857538
Si Si5 0.142381 0.005107 0.878165
Si Si6 0.720931 0.831850 0.914997
O O1 0.889364 0.945138 0.809990
O O2 0.800447 0.880343 0.930764
O O3 0.750000 0.000000 0.885168
O O4 0.885561 0.972855 0.008615
O O5 0.500000 0.849267 0.750000
O O6 0.661380 0.833977 0.659629
O O7 0.604752 0.946374 0.705935
O O8 0.640300 0.867104 0.856280
O O9 0.829250 0.164701 0.221560
O O10 0.000000 0.142450 0.250000
O O11 0.899762 0.065343 0.126985
O O12 0.249242 0.272440 0.842449
O O13 0.303101 0.189798 0.970523
O O14 0.250000 0.000000 0.869498
#
# Coordination Sequence:
#
# PCOD8283401 Si02
#       6
#    16  16  16  16  16  16
#     4  11  22  40  70  95 132 182 229 287 359 418
#     4  12  24  41  73 105 136 178 238 295 353 420
#     4  12  25  41  67 101 139 185 235 289 354 430
#     4  11  24  45  66  96 140 184 233 286 359 431
#     4  11  21  42  68  99 139 178 232 286 352 429
#     4  11  23  43  71  92 135 187 225 293 362 415
#
# _framework density 23.110453
#
# number of rings (size 3 to 8) (size 9 to 14) (size 15 to 20)
#    0.000    0.667    5.000    3.500    0.000    3.333 
#    0.000    1.667    0.000    0.000    0.000    0.000 
#    0.000    0.000    0.000    0.000    0.000    0.000 
#
# Total GULP energy -594915.630690 kJ/mol
# GULP energy per Si atom -12394.075639 kJ/mol
# Density = 2.305785 g / cm^3
# Si number density = 23.110453 Si / 1000 Ang^3
#
#
#
# Elastic Constant Matrix: (Units=GPa)
#
#
# Indices 1 2 3 4 5 6 
#
# 1 117.8680 31.0732 41.2431 0.0000 0.0000 0.0000
# 2 31.0732 106.7913 16.8359 0.0000 0.0000 0.0000
# 3 41.2431 16.8359 96.1087 0.0000 0.0000 0.0000
# 4 0.0000 0.0000 0.0000 32.1848 0.0000 0.0000
# 5 0.0000 0.0000 0.0000 0.0000 9.3086 0.0000
# 6 0.0000 0.0000 0.0000 0.0000 0.0000 15.0786
#
#
#
# Elastic Compliance Matrix: (Units=1/GPa)
#
#
# Indices 1 2 3 4 5 6 
#
# 1 0.010561 -0.002425 -0.004107 0.000000 0.000000 0.000000
# 2 -0.002425 0.010187 -0.000744 0.000000 0.000000 0.000000
# 3 -0.004107 -0.000744 0.012298 0.000000 0.000000 0.000000
# 4 0.000000 0.000000 0.000000 0.031071 0.000000 0.000000
# 5 0.000000 0.000000 0.000000 0.000000 0.107428 0.000000
# 6 0.000000 0.000000 0.000000 0.000000 0.000000 0.066319
#
#
# Mechanical properties :
#
#
# Convention : Reuss Voigt Hill
#
# Bulk Modulus (GPa) = 54.07440 55.45250 54.76345
# Shear Modulus (GPa) = 19.33642 26.75545 23.04594
#
# Velocity S-wave (km/s) = 2.89571 3.40622 3.16129
# Velocity P-wave (km/s) = 5.88466 6.28621 6.08875
#
# Compressibility (1/GPa) = 0.01849304
#
# Stress axis : x y z
#
# Youngs Moduli (GPa) = 94.69230 98.16425 81.31672
#
# Poissons Ratio (x) = 0.23808 0.33397
# Poissons Ratio (y) = 0.22966 0.06048
# Poissons Ratio (z) = 0.38890 0.07301
#
# Static dielectric constant tensor:
#      x y z
#    x 3.748430 0.000000 0.000000 
#    y 0.000000 4.269870 0.000000 
#    z 0.000000 0.000000 4.638090 
# 
# 
# High freq. dielectric constant tensor:
#      x y z
#    x 1.866700 0.000000 0.000000 
#    y 0.000000 1.926070 0.000000 
#    z 0.000000 0.000000 1.936710 
# 
# From -- ./inp_files/22384.got.cif
#   From: 2010.03.12/outbox.cif.g09.slc.cpg/sg68_12_cif.got.tgz:22384.got - 2010.04.10 23:14:56.
