data_PCOD8283701
_publ_section_title
;
Structure prediction by ZEFSAII (Michael W. Deem and Ramdas Pophale) SiO2 
 PCOD8283701
Probable space group: C C C A
;
_chemical_formula_sum "Si O2"
_cell_formula_units_Z 64
_cell_length_a 19.564133
_cell_length_b 15.611767
_cell_length_c 8.939853
_cell_angle_alpha 90.000000
_cell_angle_beta 90.000000
_cell_angle_gamma 90.000000
_cell_volume 2730.505434
_symmetry_space_group_name_H-M "C C C A"
_symmetry_group_IT_number 68
_space_group.IT_coordinate_system_code '2'
_symmetry_cell_setting 'orthorhombic'
loop_
_space_group_symop_operation_xyz
x,y,z
-x,1/2-y,z
x,1/2-y,1/2-z
-x,y,1/2-z
-x,-y,-z
x,1/2+y,-z
-x,1/2+y,1/2+z
x,-y,1/2+z
1/2+x,1/2+y,z
1/2-x,-y,z
1/2+x,-y,1/2-z
1/2-x,1/2+y,1/2-z
1/2-x,1/2-y,-z
1/2+x,y,-z
1/2-x,y,1/2+z
1/2+x,1/2-y,1/2+z
loop_
_atom_site_type_symbol
_atom_site_label
_atom_site_fract_x
_atom_site_fract_y
_atom_site_fract_z
Si Si1 0.075309 0.656213 0.933888
Si Si2 0.190196 0.162284 0.841111
Si Si3 0.578042 0.357941 0.903000
Si Si4 0.790298 0.584566 0.041600
O O1 0.085829 0.757662 0.931863
O O2 0.094602 0.620371 0.770082
O O3 0.998536 0.621844 0.960363
O O4 0.124093 0.625767 0.068785
O O5 0.176027 0.250000 0.750000
O O6 0.212567 0.092251 0.719593
O O7 0.253328 0.165789 0.959088
O O8 0.629832 0.415564 0.998085
O O9 0.750000 0.500000 0.991490
#
# Coordination Sequence:
#
# PCOD8283701 Si02
#       4
#    16  16  16  16
#     4   9  19  38  68 105 133 170 226 286 345 402
#     4  12  24  41  67 100 133 182 240 291 335 414
#     4   9  19  39  67 101 142 169 216 288 353 414
#     4  12  26  42  62  96 143 187 228 287 356 414
#
# _framework density 23.438884000000002
#
# number of rings (size 3 to 8) (size 9 to 14) (size 15 to 20)
#    0.000    1.500    2.500    4.500    3.500    1.000 
#    0.000    2.500    0.000    3.000    0.000    0.000 
#    0.000    0.000    0.000    0.000    0.000    0.000 
#
# Total GULP energy -396545.560559 kJ/mol
# GULP energy per Si atom -12392.048767 kJ/mol
# Density = 2.338554 g / cm^3
# Si number density = 23.438884 Si / 1000 Ang^3
#
#
#
# Elastic Constant Matrix: (Units=GPa)
#
#
# Indices 1 2 3 4 5 6 
#
# 1 166.9691 32.4736 87.7995 0.0000 0.0000 0.0000
# 2 32.4736 50.5393 19.3899 0.0000 0.0000 0.0000
# 3 87.7995 19.3899 157.4395 0.0000 0.0000 0.0000
# 4 0.0000 0.0000 0.0000 24.6237 0.0000 0.0000
# 5 0.0000 0.0000 0.0000 0.0000 56.0926 0.0000
# 6 0.0000 0.0000 0.0000 0.0000 0.0000 34.7559
#
#
#
# Elastic Compliance Matrix: (Units=1/GPa)
#
#
# Indices 1 2 3 4 5 6 
#
# 1 0.009237 -0.004155 -0.004639 0.000000 0.000000 0.000000
# 2 -0.004155 0.022637 -0.000471 0.000000 0.000000 0.000000
# 3 -0.004639 -0.000471 0.008997 0.000000 0.000000 0.000000
# 4 0.000000 0.000000 0.000000 0.040611 0.000000 0.000000
# 5 0.000000 0.000000 0.000000 0.000000 0.017828 0.000000
# 6 0.000000 0.000000 0.000000 0.000000 0.000000 0.028772
#
#
# Mechanical properties :
#
#
# Convention : Reuss Voigt Hill
#
# Bulk Modulus (GPa) = 44.76223 72.69710 58.72966
# Shear Modulus (GPa) = 32.45510 38.78010 35.61760
#
# Velocity S-wave (km/s) = 3.72515 4.07199 3.90243
# Velocity P-wave (km/s) = 6.13524 7.29322 6.73915
#
# Compressibility (1/GPa) = 0.02234027
#
# Stress axis : x y z
#
# Youngs Moduli (GPa) = 108.26208 44.17542 111.14968
#
# Poissons Ratio (x) = 0.18355 0.51567
# Poissons Ratio (y) = 0.44984 0.05232
# Poissons Ratio (z) = 0.50227 0.02080
#
# Static dielectric constant tensor:
#      x y z
#    x 4.490870 0.000000 0.000000 
#    y 0.000000 3.650290 0.000000 
#    z 0.000000 0.000000 4.561090 
# 
# 
# High freq. dielectric constant tensor:
#      x y z
#    x 1.935540 0.000000 0.000000 
#    y 0.000000 1.890150 0.000000 
#    z 0.000000 0.000000 1.939390 
# 
# From -- ./inp_files/7817.got.cif
#   From: 2010.03.12/outbox.cif.g09.slc.cpg/sg68_4_cif.got.tgz:7817.got - 2010.04.10 23:14:56.
