data_PCOD8283081
_publ_section_title
;
Structure prediction by ZEFSAII (Michael W. Deem and Ramdas Pophale) SiO2 
 PCOD8283081
Probable space group: C C C A
;
_chemical_formula_sum "Si O2"
_cell_formula_units_Z 80
_cell_length_a 10.488360
_cell_length_b 10.318865
_cell_length_c 33.320252
_cell_angle_alpha 90.000000
_cell_angle_beta 90.000000
_cell_angle_gamma 90.000000
_cell_volume 3606.183264
_symmetry_space_group_name_H-M "C C C A"
_symmetry_group_IT_number 68
_space_group.IT_coordinate_system_code '2'
_symmetry_cell_setting 'orthorhombic'
loop_
_space_group_symop_operation_xyz
x,y,z
-x,1/2-y,z
x,1/2-y,1/2-z
-x,y,1/2-z
-x,-y,-z
x,1/2+y,-z
-x,1/2+y,1/2+z
x,-y,1/2+z
1/2+x,1/2+y,z
1/2-x,-y,z
1/2+x,-y,1/2-z
1/2-x,1/2+y,1/2-z
1/2-x,1/2-y,-z
1/2+x,y,-z
1/2-x,y,1/2+z
1/2+x,1/2-y,1/2+z
loop_
_atom_site_type_symbol
_atom_site_label
_atom_site_fract_x
_atom_site_fract_y
_atom_site_fract_z
Si Si1 0.877717 0.578960 0.614032
Si Si2 0.391819 0.003112 0.780918
Si Si3 0.500000 0.250000 0.673397
Si Si4 0.250000 0.500000 0.579614
Si Si5 0.920556 0.122920 0.639247
Si Si6 0.486059 0.607032 0.033775
O O1 0.750000 0.500000 0.620815
O O2 0.883842 0.703578 0.643644
O O3 0.995777 0.500820 0.630495
O O4 0.900860 0.605716 0.566962
O O5 0.500000 0.955687 0.750000
O O6 0.436415 0.142312 0.797941
O O7 0.250000 0.000000 0.760489
O O8 0.375791 0.892172 0.815009
O O9 0.194307 0.384343 0.607395
O O10 0.349123 0.420827 0.552790
O O11 0.000000 0.250000 0.630710
O O12 0.500000 0.750000 0.013935
O O13 0.500000 0.500000 0.000000
#
# Coordination Sequence:
#
# PCOD8283081 Si02
#       6
#    16  16   8   8  16  16
#     4  10  23  40  72 102 127 175 240 282 347 425
#     4  11  25  46  69 101 146 188 230 294 365 424
#     4  10  23  48  70  96 134 184 230 292 344 416
#     4  10  24  48  70 100 142 182 242 300 346 428
#     4  10  23  41  71 103 131 180 233 293 346 418
#     4  11  26  45  68 102 144 193 230 295 372 426
#
# _framework density 22.18412
#
# number of rings (size 3 to 8) (size 9 to 14) (size 15 to 20)
#    0.000    1.600    2.000    0.300    7.000    7.600 
#    3.600    0.000    0.000    0.000    0.000    0.000 
#    0.000    0.000    0.000    0.000    0.000    0.000 
#
# Total GULP energy -495748.351468 kJ/mol
# GULP energy per Si atom -12393.708787 kJ/mol
# Density = 2.213363 g / cm^3
# Si number density = 22.184120 Si / 1000 Ang^3
#
#
#
# Elastic Constant Matrix: (Units=GPa)
#
#
# Indices 1 2 3 4 5 6 
#
# 1 138.2699 38.5809 57.9059 0.0000 0.0000 0.0000
# 2 38.5809 111.6595 44.0284 0.0000 0.0000 0.0000
# 3 57.9059 44.0284 111.6986 0.0000 0.0000 0.0000
# 4 0.0000 0.0000 0.0000 24.4314 0.0000 0.0000
# 5 0.0000 0.0000 0.0000 0.0000 -2.9133 0.0000
# 6 0.0000 0.0000 0.0000 0.0000 0.0000 36.5906
#
#
#
# Elastic Compliance Matrix: (Units=1/GPa)
#
#
# Indices 1 2 3 4 5 6 
#
# 1 0.009468 -0.001582 -0.004285 0.000000 0.000000 0.000000
# 2 -0.001582 0.010868 -0.003464 0.000000 0.000000 0.000000
# 3 -0.004285 -0.003464 0.012539 0.000000 0.000000 0.000000
# 4 0.000000 0.000000 0.000000 0.040931 0.000000 0.000000
# 5 0.000000 0.000000 0.000000 0.000000 -0.343249 0.000000
# 6 0.000000 0.000000 0.000000 0.000000 0.000000 0.027329
#
#
# Mechanical properties :
#
#
# Convention : Reuss Voigt Hill
#
# Bulk Modulus (GPa) = 70.35096 71.40647 70.87871
# Shear Modulus (GPa) = -22.86094 26.36259 1.75082
#
# Velocity S-wave (km/s) = -3.21364 3.45099 0.88935
# Velocity P-wave (km/s) = 4.24396 6.93809 5.75101
#
# Compressibility (1/GPa) = 0.01421445
#
# Stress axis : x y z
#
# Youngs Moduli (GPa) = 105.61834 92.01142 79.74908
#
# Poissons Ratio (x) = 0.14555 0.34171
# Poissons Ratio (y) = 0.16708 0.27624
# Poissons Ratio (z) = 0.45256 0.31872
#
# Static dielectric constant tensor:
#      x y z
#    x 3.803320 0.000000 0.000000 
#    y 0.000000 3.908570 0.000000 
#    z 0.000000 0.000000 4.232690 
# 
# 
# High freq. dielectric constant tensor:
#      x y z
#    x 1.878120 0.000000 0.000000 
#    y 0.000000 1.874120 0.000000 
#    z 0.000000 0.000000 1.871970 
# 
# From -- ./inp_files/54551.got.cif
#   From: 2010.03.12/outbox.cif.g09.slc.cpg/sg68_28_cif.got.tgz:54551.got - 2010.04.10 23:14:56.
