data_PCOD8283852
_publ_section_title
;
Structure prediction by ZEFSAII (Michael W. Deem and Ramdas Pophale) SiO2 
 PCOD8283852
Probable space group: F M M M
;
_chemical_formula_sum "Si O2"
_cell_formula_units_Z 144
_cell_length_a 17.016925
_cell_length_b 24.655661
_cell_length_c 19.455098
_cell_angle_alpha 90.000000
_cell_angle_beta 90.000000
_cell_angle_gamma 90.000000
_cell_volume 8162.649672
_symmetry_space_group_name_H-M "F M M M"
_symmetry_group_IT_number 69
_symmetry_cell_setting 'orthorhombic'
loop_
_space_group_symop_operation_xyz
x,y,z
-x,-y,z
x,-y,-z
-x,y,-z
-x,-y,-z
x,y,-z
-x,y,z
x,-y,z
x,1/2+y,1/2+z
-x,1/2-y,1/2+z
x,1/2-y,1/2-z
-x,1/2+y,1/2-z
-x,1/2-y,1/2-z
x,1/2+y,1/2-z
-x,1/2+y,1/2+z
x,1/2-y,1/2+z
1/2+x,y,1/2+z
1/2-x,-y,1/2+z
1/2+x,-y,1/2-z
1/2-x,y,1/2-z
1/2-x,-y,1/2-z
1/2+x,y,1/2-z
1/2-x,y,1/2+z
1/2+x,-y,1/2+z
1/2+x,1/2+y,z
1/2-x,1/2-y,z
1/2+x,1/2-y,-z
1/2-x,1/2+y,-z
1/2-x,1/2-y,-z
1/2+x,1/2+y,-z
1/2-x,1/2+y,z
1/2+x,1/2-y,z
loop_
_atom_site_type_symbol
_atom_site_label
_atom_site_fract_x
_atom_site_fract_y
_atom_site_fract_z
Si Si1 0.866237 0.062299 0.375619
Si Si2 0.084911 0.632080 0.000000
Si Si3 0.694007 0.394284 0.889383
Si Si4 0.090382 0.436693 0.722285
Si Si5 0.252017 0.313874 0.500000
Si Si6 0.416169 0.561061 0.000000
O O1 0.912398 0.095558 0.432426
O O2 0.773938 0.073663 0.379178
O O3 0.900562 0.078463 0.301917
O O4 0.881606 0.000000 0.391807
O O5 0.155568 0.674329 0.000000
O O6 0.000000 0.662245 0.000000
O O7 0.647754 0.393215 0.816538
O O8 0.710618 0.337623 0.930401
O O9 0.634406 0.429199 0.933184
O O10 0.115065 0.500000 0.709910
O O11 0.000000 0.427688 0.699701
O O12 0.250000 0.250000 0.500000
O O13 0.441322 0.500000 0.000000
O O14 0.500000 0.593963 0.000000
#
# Coordination Sequence:
#
# PCOD8283852 Si02
#       6
#    32  16  32  32  16  16
#     4  10  19  30  48  75 107 142 174 202 240 302
#     4  10  20  34  53  75 100 131 170 217 262 302
#     4  10  19  31  50  70  95 132 172 209 251 307
#     4  10  19  30  46  74 112 144 167 198 245 304
#     4   9  21  40  57  74  94 123 171 224 268 306
#     4  10  18  27  42  69 104 134 161 199 248 306
#
# _framework density 17.64133
#
# number of rings (size 3 to 8) (size 9 to 14) (size 15 to 20)
#    0.000    2.111    0.000    5.000    0.000    5.333 
#    0.000    3.333    0.000   10.667    0.000    7.778 
#    0.000    0.000    0.000    0.000    0.000    0.000 
#
# Total GULP energy -446046.604999 kJ/mol
# GULP energy per Si atom -12390.183472 kJ/mol
# Density = 1.760118 g / cm^3
# Si number density = 17.641330 Si / 1000 Ang^3
#
#
#
# Elastic Constant Matrix: (Units=GPa)
#
#
# Indices 1 2 3 4 5 6 
#
# 1 127.9396 33.9644 36.3298 0.0000 0.0000 0.0000
# 2 33.9644 89.5748 47.3374 0.0000 0.0000 0.0000
# 3 36.3298 47.3374 99.5317 0.0000 0.0000 0.0000
# 4 0.0000 0.0000 0.0000 16.2115 0.0000 0.0000
# 5 0.0000 0.0000 0.0000 0.0000 42.9034 0.0000
# 6 0.0000 0.0000 0.0000 0.0000 0.0000 11.4949
#
#
#
# Elastic Compliance Matrix: (Units=1/GPa)
#
#
# Indices 1 2 3 4 5 6 
#
# 1 0.009048 -0.002251 -0.002232 0.000000 0.000000 0.000000
# 2 -0.002251 0.015472 -0.006537 0.000000 0.000000 0.000000
# 3 -0.002232 -0.006537 0.013971 0.000000 0.000000 0.000000
# 4 0.000000 0.000000 0.000000 0.061685 0.000000 0.000000
# 5 0.000000 0.000000 0.000000 0.000000 0.023308 0.000000
# 6 0.000000 0.000000 0.000000 0.000000 0.000000 0.086995
#
#
# Mechanical properties :
#
#
# Convention : Reuss Voigt Hill
#
# Bulk Modulus (GPa) = 60.78802 61.36770 61.07786
# Shear Modulus (GPa) = 21.00834 27.41626 24.21230
#
# Velocity S-wave (km/s) = 3.45463 3.94647 3.70871
# Velocity P-wave (km/s) = 7.10247 7.45842 7.28262
#
# Compressibility (1/GPa) = 0.01645061
#
# Stress axis : x y z
#
# Youngs Moduli (GPa) = 110.52725 64.63321 71.57914
#
# Poissons Ratio (x) = 0.14550 0.15975
# Poissons Ratio (y) = 0.24882 0.46790
# Poissons Ratio (z) = 0.24667 0.42249
#
# Static dielectric constant tensor:
#      x y z
#    x 3.555470 0.000000 0.000000 
#    y 0.000000 2.738400 0.000000 
#    z 0.000000 0.000000 3.370560 
# 
# 
# High freq. dielectric constant tensor:
#      x y z
#    x 1.710020 0.000000 0.000000 
#    y 0.000000 1.615310 0.000000 
#    z 0.000000 0.000000 1.698360 
# 
# From -- ./inp_files/22938.got.cif
#   From: 2010.03.12/outbox.cif.g09.slc.cpg/sg69_12_cif.got.tgz:22938.got - 2010.04.10 23:52:46.
