data_PCOD8283551
_publ_section_title
;
Structure prediction by ZEFSAII (Michael W. Deem and Ramdas Pophale) SiO2 
 PCOD8283551
Probable space group: C C C A
;
_chemical_formula_sum "Si O2"
_cell_formula_units_Z 80
_cell_length_a 16.554076
_cell_length_b 24.312367
_cell_length_c 9.773666
_cell_angle_alpha 90.000000
_cell_angle_beta 90.000000
_cell_angle_gamma 90.000000
_cell_volume 3933.595344
_symmetry_space_group_name_H-M "C C C A"
_symmetry_group_IT_number 68
_space_group.IT_coordinate_system_code '2'
_symmetry_cell_setting 'orthorhombic'
loop_
_space_group_symop_operation_xyz
x,y,z
-x,1/2-y,z
x,1/2-y,1/2-z
-x,y,1/2-z
-x,-y,-z
x,1/2+y,-z
-x,1/2+y,1/2+z
x,-y,1/2+z
1/2+x,1/2+y,z
1/2-x,-y,z
1/2+x,-y,1/2-z
1/2-x,1/2+y,1/2-z
1/2-x,1/2-y,-z
1/2+x,y,-z
1/2-x,y,1/2+z
1/2+x,1/2-y,1/2+z
loop_
_atom_site_type_symbol
_atom_site_label
_atom_site_fract_x
_atom_site_fract_y
_atom_site_fract_z
Si Si1 0.656738 0.220746 0.382277
Si Si2 0.055676 0.008420 0.629000
Si Si3 0.824504 0.600778 0.035363
Si Si4 0.650900 0.287576 0.633768
Si Si5 0.836550 0.405462 0.209417
O O1 0.618404 0.250000 0.250000
O O2 0.632343 0.157986 0.418985
O O3 0.620813 0.263193 0.491881
O O4 0.752609 0.217461 0.367588
O O5 0.120350 0.052669 0.587899
O O6 0.000000 0.031460 0.750000
O O7 0.099935 0.953451 0.681671
O O8 0.000000 0.000000 0.500000
O O9 0.740747 0.588528 0.111874
O O10 0.811616 0.598291 0.870366
O O11 0.612408 0.250000 0.750000
O O12 0.620330 0.349174 0.661735
#
# Coordination Sequence:
#
# PCOD8283551 Si02
#       5
#    16  16  16  16  16
#     4   9  18  31  56  93 128 160 195 251 313 370
#     4  12  27  46  66  86 124 173 215 262 320 373
#     4  11  24  41  65  97 129 161 210 265 310 371
#     4   9  16  31  56  89 128 157 195 247 313 370
#     4  11  24  40  66  97 127 162 212 261 312 373
#
# _framework density 20.337627999999999
#
# number of rings (size 3 to 8) (size 9 to 14) (size 15 to 20)
#    0.000    1.600    4.000    0.600   11.200    1.600 
#    0.000    0.000    0.000    7.200    0.000    0.000 
#    0.000    0.000    0.000    0.000    0.000    0.000 
#
# Total GULP energy -495595.823109 kJ/mol
# GULP energy per Si atom -12389.895578 kJ/mol
# Density = 2.029134 g / cm^3
# Si number density = 20.337628 Si / 1000 Ang^3
#
#
#
# Elastic Constant Matrix: (Units=GPa)
#
#
# Indices 1 2 3 4 5 6 
#
# 1 38.8231 32.1914 28.4164 0.0000 0.0000 0.0000
# 2 32.1914 146.3322 65.9309 0.0000 0.0000 0.0000
# 3 28.4164 65.9309 179.3655 0.0000 0.0000 0.0000
# 4 0.0000 0.0000 0.0000 39.9892 0.0000 0.0000
# 5 0.0000 0.0000 0.0000 0.0000 26.0948 0.0000
# 6 0.0000 0.0000 0.0000 0.0000 0.0000 -13.7305
#
#
#
# Elastic Compliance Matrix: (Units=1/GPa)
#
#
# Indices 1 2 3 4 5 6 
#
# 1 0.032843 -0.005849 -0.003053 0.000000 0.000000 0.000000
# 2 -0.005849 0.009232 -0.002467 0.000000 0.000000 0.000000
# 3 -0.003053 -0.002467 0.006966 0.000000 0.000000 0.000000
# 4 0.000000 0.000000 0.000000 0.025007 0.000000 0.000000
# 5 0.000000 0.000000 0.000000 0.000000 0.038322 0.000000
# 6 0.000000 0.000000 0.000000 0.000000 0.000000 -0.072831
#
#
# Mechanical properties :
#
#
# Convention : Reuss Voigt Hill
#
# Bulk Modulus (GPa) = 38.02016 68.62200 53.32108
# Shear Modulus (GPa) = 70.37901 26.33620 48.35760
#
# Velocity S-wave (km/s) = 5.88901 3.60244 4.88150
# Velocity P-wave (km/s) = 8.06075 7.14969 7.61885
#
# Compressibility (1/GPa) = 0.02630183
#
# Stress axis : x y z
#
# Youngs Moduli (GPa) = 30.44811 108.31895 143.56212
#
# Poissons Ratio (x) = 0.63361 0.43830
# Poissons Ratio (y) = 0.17810 0.35413
# Poissons Ratio (z) = 0.09296 0.26720
#
# Static dielectric constant tensor:
#      x y z
#    x 3.122350 0.000000 0.000000 
#    y 0.000000 4.011740 0.000000 
#    z 0.000000 0.000000 3.972560 
# 
# 
# High freq. dielectric constant tensor:
#      x y z
#    x 1.749280 0.000000 0.000000 
#    y 0.000000 1.813660 0.000000 
#    z 0.000000 0.000000 1.820930 
# 
# From -- ./inp_files/6247.got.cif
#   From: 2010.03.12/outbox.cif.g09.slc.cpg/sg68_4_cif.got.tgz:6247.got - 2010.04.10 23:14:56.
