data_PCOD8283543
_publ_section_title
;
Structure prediction by ZEFSAII (Michael W. Deem and Ramdas Pophale) SiO2 
 PCOD8283543
Probable space group: C C C A
;
_chemical_formula_sum "Si O2"
_cell_formula_units_Z 64
_cell_length_a 13.527582
_cell_length_b 10.856601
_cell_length_c 18.733100
_cell_angle_alpha 90.000000
_cell_angle_beta 90.000000
_cell_angle_gamma 90.000000
_cell_volume 2751.209761
_symmetry_space_group_name_H-M "C C C A"
_symmetry_group_IT_number 68
_space_group.IT_coordinate_system_code '2'
_symmetry_cell_setting 'orthorhombic'
loop_
_space_group_symop_operation_xyz
x,y,z
-x,1/2-y,z
x,1/2-y,1/2-z
-x,y,1/2-z
-x,-y,-z
x,1/2+y,-z
-x,1/2+y,1/2+z
x,-y,1/2+z
1/2+x,1/2+y,z
1/2-x,-y,z
1/2+x,-y,1/2-z
1/2-x,1/2+y,1/2-z
1/2-x,1/2-y,-z
1/2+x,y,-z
1/2-x,y,1/2+z
1/2+x,1/2-y,1/2+z
loop_
_atom_site_type_symbol
_atom_site_label
_atom_site_fract_x
_atom_site_fract_y
_atom_site_fract_z
Si Si1 0.520145 0.392474 0.606994
Si Si2 0.857076 0.051362 0.782299
Si Si3 0.108030 0.207927 0.850736
Si Si4 0.644692 0.452778 0.470503
O O1 0.500000 0.250000 0.626319
O O2 0.569266 0.457096 0.676887
O O3 0.594232 0.406987 0.541852
O O4 0.418360 0.454371 0.579796
O O5 0.831302 0.172608 0.827754
O O6 0.906896 0.100941 0.709052
O O7 0.750000 0.000000 0.762254
O O8 0.165821 0.163853 0.920297
O O9 0.000000 0.250000 0.875206
O O10 0.750000 0.500000 0.495412
#
# Coordination Sequence:
#
# PCOD8283543 Si02
#       4
#    16  16  16  16
#     4  11  26  44  66 104 144 180 226 294 341 407
#     4  11  24  43  68 104 136 179 231 282 345 411
#     4  11  23  47  74  95 137 187 232 282 340 417
#     4  11  25  44  72 102 138 186 234 277 351 412
#
# _framework density 23.262495000000001
#
# number of rings (size 3 to 8) (size 9 to 14) (size 15 to 20)
#    0.000    1.000    2.500    3.750    7.000    1.000 
#    0.000    1.250    0.000    0.000    0.000    0.000 
#    0.000    0.000    0.000    0.000    0.000    0.000 
#
# Total GULP energy -396594.986568 kJ/mol
# GULP energy per Si atom -12393.593330 kJ/mol
# Density = 2.320955 g / cm^3
# Si number density = 23.262495 Si / 1000 Ang^3
#
#
#
# Elastic Constant Matrix: (Units=GPa)
#
#
# Indices 1 2 3 4 5 6 
#
# 1 99.3111 40.3674 18.0206 0.0000 0.0000 0.0000
# 2 40.3674 134.2919 49.1805 0.0000 0.0000 0.0000
# 3 18.0206 49.1805 72.4272 0.0000 0.0000 0.0000
# 4 0.0000 0.0000 0.0000 31.7364 0.0000 0.0000
# 5 0.0000 0.0000 0.0000 0.0000 19.8422 0.0000
# 6 0.0000 0.0000 0.0000 0.0000 0.0000 32.4347
#
#
#
# Elastic Compliance Matrix: (Units=1/GPa)
#
#
# Indices 1 2 3 4 5 6 
#
# 1 0.011496 -0.003205 -0.000684 0.000000 0.000000 0.000000
# 2 -0.003205 0.010805 -0.006539 0.000000 0.000000 0.000000
# 3 -0.000684 -0.006539 0.018418 0.000000 0.000000 0.000000
# 4 0.000000 0.000000 0.000000 0.031510 0.000000 0.000000
# 5 0.000000 0.000000 0.000000 0.000000 0.050398 0.000000
# 6 0.000000 0.000000 0.000000 0.000000 0.000000 0.030831
#
#
# Mechanical properties :
#
#
# Convention : Reuss Voigt Hill
#
# Bulk Modulus (GPa) = 50.34825 57.90748 54.12786
# Shear Modulus (GPa) = 27.63428 30.03342 28.83385
#
# Velocity S-wave (km/s) = 3.45038 3.59704 3.52447
# Velocity P-wave (km/s) = 6.12895 6.49605 6.31517
#
# Compressibility (1/GPa) = 0.01986166
#
# Stress axis : x y z
#
# Youngs Moduli (GPa) = 86.98425 92.55161 54.29609
#
# Poissons Ratio (x) = 0.29665 0.03713
# Poissons Ratio (y) = 0.27881 0.35506
# Poissons Ratio (z) = 0.05949 0.60522
#
# Static dielectric constant tensor:
#      x y z
#    x 4.038210 0.000000 0.000000 
#    y 0.000000 6.124780 0.000000 
#    z 0.000000 0.000000 4.300640 
# 
# 
# High freq. dielectric constant tensor:
#      x y z
#    x 1.916860 0.000000 0.000000 
#    y 0.000000 1.927160 0.000000 
#    z 0.000000 0.000000 1.929110 
# 
# From -- ./inp_files/30453.got.cif
#   From: 2010.03.12/outbox.cif.g09.slc.cpg/sg68_16_cif.got.tgz:30453.got - 2010.04.10 23:14:56.
