data_PCOD8283274
_publ_section_title
;
Structure prediction by ZEFSAII (Michael W. Deem and Ramdas Pophale) SiO2 
 PCOD8283274
Probable space group: C C C A
;
_chemical_formula_sum "Si O2"
_cell_formula_units_Z 40
_cell_length_a 12.218891
_cell_length_b 8.274253
_cell_length_c 14.532222
_cell_angle_alpha 90.000000
_cell_angle_beta 90.000000
_cell_angle_gamma 90.000000
_cell_volume 1469.239550
_symmetry_space_group_name_H-M "C C C A"
_symmetry_group_IT_number 68
_space_group.IT_coordinate_system_code '2'
_symmetry_cell_setting 'orthorhombic'
loop_
_space_group_symop_operation_xyz
x,y,z
-x,1/2-y,z
x,1/2-y,1/2-z
-x,y,1/2-z
-x,-y,-z
x,1/2+y,-z
-x,1/2+y,1/2+z
x,-y,1/2+z
1/2+x,1/2+y,z
1/2-x,-y,z
1/2+x,-y,1/2-z
1/2-x,1/2+y,1/2-z
1/2-x,1/2-y,-z
1/2+x,y,-z
1/2-x,y,1/2+z
1/2+x,1/2-y,1/2+z
loop_
_atom_site_type_symbol
_atom_site_label
_atom_site_fract_x
_atom_site_fract_y
_atom_site_fract_z
Si Si1 0.500000 0.478243 0.250000
Si Si2 0.834201 0.813119 0.382346
Si Si3 0.750000 0.500000 0.953884
Si Si4 0.653291 0.750000 0.250000
O O1 0.441566 0.363320 0.325222
O O2 0.584122 0.605817 0.298519
O O3 0.828926 0.616758 0.393223
O O4 0.722987 0.849196 0.325741
O O5 0.831669 0.895456 0.481856
#
# Coordination Sequence:
#
# PCOD8283274 Si02
#       4
#     8  16   8   8
#     4  11  24  47  82 116 154 224 268 321 399 498
#     4  11  24  50  80 114 164 208 271 331 406 473
#     4  10  24  48  82 118 168 210 252 364 402 458
#     4  11  24  47  78 118 156 215 276 325 382 512
#
# _framework density 27.224966999999999
#
# number of rings (size 3 to 8) (size 9 to 14) (size 15 to 20)
#    0.000    1.200    4.000    0.000    5.600    0.800 
#    0.000   12.000    0.000    0.000    0.000    0.000 
#    0.000    0.000    0.000    0.000    0.000    0.000 
#
# Total GULP energy -247790.526834 kJ/mol
# GULP energy per Si atom -12389.526342 kJ/mol
# Density = 2.716300 g / cm^3
# Si number density = 27.224967 Si / 1000 Ang^3
#
#
#
# Elastic Constant Matrix: (Units=GPa)
#
#
# Indices 1 2 3 4 5 6 
#
# 1 147.7824 98.9160 53.4086 0.0000 0.0000 0.0000
# 2 98.9160 216.5024 79.5773 0.0000 0.0000 0.0000
# 3 53.4086 79.5773 98.0729 0.0000 0.0000 0.0000
# 4 0.0000 0.0000 0.0000 102.4018 0.0000 0.0000
# 5 0.0000 0.0000 0.0000 0.0000 34.3802 0.0000
# 6 0.0000 0.0000 0.0000 0.0000 0.0000 326.6034
#
#
#
# Elastic Compliance Matrix: (Units=1/GPa)
#
#
# Indices 1 2 3 4 5 6 
#
# 1 0.010166 -0.003719 -0.002519 0.000000 0.000000 0.000000
# 2 -0.003719 0.007942 -0.004419 0.000000 0.000000 0.000000
# 3 -0.002519 -0.004419 0.015154 0.000000 0.000000 0.000000
# 4 0.000000 0.000000 0.000000 0.009765 0.000000 0.000000
# 5 0.000000 0.000000 0.000000 0.000000 0.029086 0.000000
# 6 0.000000 0.000000 0.000000 0.000000 0.000000 0.003062
#
#
# Mechanical properties :
#
#
# Convention : Reuss Voigt Hill
#
# Bulk Modulus (GPa) = 83.69121 102.90684 93.29902
# Shear Modulus (GPa) = 49.76465 108.04080 78.90273
#
# Velocity S-wave (km/s) = 4.28004 6.30639 5.38931
# Velocity P-wave (km/s) = 7.43184 9.53458 8.54812
#
# Compressibility (1/GPa) = 0.01194869
#
# Stress axis : x y z
#
# Youngs Moduli (GPa) = 98.36500 125.90744 65.98951
#
# Poissons Ratio (x) = 0.46825 0.16621
# Poissons Ratio (y) = 0.36582 0.29162
# Poissons Ratio (z) = 0.24775 0.55641
#
# Static dielectric constant tensor:
#      x y z
#    x 4.620930 0.000000 0.000000 
#    y 0.000000 5.439280 0.000000 
#    z 0.000000 0.000000 4.576510 
# 
# 
# High freq. dielectric constant tensor:
#      x y z
#    x 2.082080 0.000000 0.000000 
#    y 0.000000 2.153550 0.000000 
#    z 0.000000 0.000000 2.070410 
# 
# From -- ./inp_files/18668.got.cif
#   From: 2010.03.12/outbox.cif.g09.slc.cpg/sg68_10_cif.got.tgz:18668.got - 2010.04.10 23:14:56.
