data_PCOD8283588
_publ_section_title
;
Structure prediction by ZEFSAII (Michael W. Deem and Ramdas Pophale) SiO2 
 PCOD8283588
Probable space group: C C C A
;
_chemical_formula_sum "Si O2"
_cell_formula_units_Z 100
_cell_length_a 25.783740
_cell_length_b 22.128856
_cell_length_c 7.969318
_cell_angle_alpha 90.000000
_cell_angle_beta 90.000000
_cell_angle_gamma 90.000000
_cell_volume 4547.011292
_symmetry_space_group_name_H-M "C C C A"
_symmetry_group_IT_number 68
_space_group.IT_coordinate_system_code '2'
_symmetry_cell_setting 'orthorhombic'
loop_
_space_group_symop_operation_xyz
x,y,z
-x,1/2-y,z
x,1/2-y,1/2-z
-x,y,1/2-z
-x,-y,-z
x,1/2+y,-z
-x,1/2+y,1/2+z
x,-y,1/2+z
1/2+x,1/2+y,z
1/2-x,-y,z
1/2+x,-y,1/2-z
1/2-x,1/2+y,1/2-z
1/2-x,1/2-y,-z
1/2+x,y,-z
1/2-x,y,1/2+z
1/2+x,1/2-y,1/2+z
loop_
_atom_site_type_symbol
_atom_site_label
_atom_site_fract_x
_atom_site_fract_y
_atom_site_fract_z
Si Si1 0.928437 0.677431 0.000989
Si Si2 0.319764 0.874569 0.833734
Si Si3 0.000000 0.750000 0.750000
Si Si4 0.000000 0.604114 0.250000
Si Si5 0.874116 0.571475 0.814559
Si Si6 0.910484 0.947738 0.056591
Si Si7 0.638454 0.750000 0.750000
Si Si8 0.731466 0.066200 0.852291
O O1 0.964618 0.707096 0.862207
O O2 0.887391 0.632898 0.911612
O O3 0.896021 0.729397 0.093000
O O4 0.962901 0.645543 0.140604
O O5 0.375958 0.905943 0.819077
O O6 0.324854 0.802823 0.820394
O O7 0.283052 0.897366 0.687318
O O8 0.295773 0.895029 0.007176
O O9 0.030880 0.561344 0.119603
O O10 0.903902 0.571729 0.636418
O O11 0.894451 0.517287 0.930269
O O12 0.811530 0.562852 0.796689
O O13 0.750000 0.000000 0.911398
#
# Coordination Sequence:
#
# PCOD8283588 Si02
#       8
#    16  16   4   8  16  16   8  16
#     4  12  27  47  73 101 145 196 248 307 356 438
#     4  11  26  44  70 105 143 188 243 289 363 428
#     4  12  28  44  74 104 138 200 268 290 368 436
#     4  12  24  46  76  98 143 193 240 286 380 422
#     4  11  26  44  73 107 149 175 239 303 372 426
#     4  11  24  44  70 111 140 182 234 303 363 442
#     4  12  28  49  69 100 154 193 244 301 358 430
#     4  11  24  45  77 108 141 187 237 297 372 441
#
# _framework density 21.992467000000001
#
# number of rings (size 3 to 8) (size 9 to 14) (size 15 to 20)
#    0.000    0.640    3.200    3.360    8.960    3.840 
#    0.000    0.000    0.000    0.000    0.000    0.000 
#    0.000    0.000    0.000    0.000    0.000    0.000 
#
# Total GULP energy -620197.252156 kJ/mol
# GULP energy per Si atom -12403.945043 kJ/mol
# Density = 2.194241 g / cm^3
# Si number density = 21.992467 Si / 1000 Ang^3
#
#
#
# Elastic Constant Matrix: (Units=GPa)
#
#
# Indices 1 2 3 4 5 6 
#
# 1 83.3338 48.4940 43.6018 0.0000 0.0000 0.0000
# 2 48.4940 158.9626 52.2335 0.0000 0.0000 0.0000
# 3 43.6018 52.2335 96.6963 0.0000 0.0000 0.0000
# 4 0.0000 0.0000 0.0000 18.3069 0.0000 0.0000
# 5 0.0000 0.0000 0.0000 0.0000 19.6021 0.0000
# 6 0.0000 0.0000 0.0000 0.0000 0.0000 36.9296
#
#
#
# Elastic Compliance Matrix: (Units=1/GPa)
#
#
# Indices 1 2 3 4 5 6 
#
# 1 0.016973 -0.003238 -0.005905 0.000000 0.000000 0.000000
# 2 -0.003238 0.008266 -0.003005 0.000000 0.000000 0.000000
# 3 -0.005905 -0.003005 0.014627 0.000000 0.000000 0.000000
# 4 0.000000 0.000000 0.000000 0.054624 0.000000 0.000000
# 5 0.000000 0.000000 0.000000 0.000000 0.051015 0.000000
# 6 0.000000 0.000000 0.000000 0.000000 0.000000 0.027079
#
#
# Mechanical properties :
#
#
# Convention : Reuss Voigt Hill
#
# Bulk Modulus (GPa) = 64.21866 69.73904 66.97885
# Shear Modulus (GPa) = 24.74388 27.94530 26.34459
#
# Velocity S-wave (km/s) = 3.35790 3.56852 3.46481
# Velocity P-wave (km/s) = 6.65565 6.98272 6.82115
#
# Compressibility (1/GPa) = 0.01557180
#
# Stress axis : x y z
#
# Youngs Moduli (GPa) = 58.91540 120.97751 68.36465
#
# Poissons Ratio (x) = 0.39171 0.40367
# Poissons Ratio (y) = 0.19076 0.20545
# Poissons Ratio (z) = 0.34787 0.36355
#
# Static dielectric constant tensor:
#      x y z
#    x 4.582230 0.000000 0.000000 
#    y 0.000000 3.948010 0.000000 
#    z 0.000000 0.000000 4.109430 
# 
# 
# High freq. dielectric constant tensor:
#      x y z
#    x 1.879730 0.000000 0.000000 
#    y 0.000000 1.864850 0.000000 
#    z 0.000000 0.000000 1.878360 
# 
# From -- ./inp_files/9046.got.cif
#   From: 2010.03.12/outbox.cif.g09.slc.cpg/sg68_5_cif.got.tgz:9046.got - 2010.04.10 23:14:56.
