data_PCOD8283396
_publ_section_title
;
Structure prediction by ZEFSAII (Michael W. Deem and Ramdas Pophale) SiO2 
 PCOD8283396
Probable space group: C C C A
;
_chemical_formula_sum "Si O2"
_cell_formula_units_Z 112
_cell_length_a 14.947842
_cell_length_b 11.060349
_cell_length_c 29.457331
_cell_angle_alpha 90.000000
_cell_angle_beta 90.000000
_cell_angle_gamma 90.000000
_cell_volume 4870.131910
_symmetry_space_group_name_H-M "C C C A"
_symmetry_group_IT_number 68
_space_group.IT_coordinate_system_code '2'
_symmetry_cell_setting 'orthorhombic'
loop_
_space_group_symop_operation_xyz
x,y,z
-x,1/2-y,z
x,1/2-y,1/2-z
-x,y,1/2-z
-x,-y,-z
x,1/2+y,-z
-x,1/2+y,1/2+z
x,-y,1/2+z
1/2+x,1/2+y,z
1/2-x,-y,z
1/2+x,-y,1/2-z
1/2-x,1/2+y,1/2-z
1/2-x,1/2-y,-z
1/2+x,y,-z
1/2-x,y,1/2+z
1/2+x,1/2-y,1/2+z
loop_
_atom_site_type_symbol
_atom_site_label
_atom_site_fract_x
_atom_site_fract_y
_atom_site_fract_z
Si Si1 0.396883 0.256679 0.537327
Si Si2 0.598287 0.609079 0.754061
Si Si3 0.546287 0.868330 0.901232
Si Si4 0.701260 0.613352 0.665341
Si Si5 0.145932 0.995801 0.020317
Si Si6 0.125428 0.547174 0.145912
Si Si7 0.708156 0.313396 0.875935
O O1 0.500000 0.250000 0.552701
O O2 0.374625 0.388588 0.515595
O O3 0.328099 0.244522 0.579345
O O4 0.379801 0.135207 0.505837
O O5 0.584596 0.750000 0.750000
O O6 0.500000 0.546608 0.750000
O O7 0.664555 0.568729 0.713797
O O8 0.644054 0.580546 0.801863
O O9 0.500000 0.750000 0.924647
O O10 0.625161 0.829456 0.867245
O O11 0.583010 0.963583 0.937152
O O12 0.474743 0.928402 0.868586
O O13 0.750000 0.500000 0.642087
O O14 0.775135 0.719443 0.665488
O O15 0.250000 0.000000 0.032693
O O16 0.199283 0.612895 0.114076
O O17 0.132517 0.403514 0.141268
#
# Coordination Sequence:
#
# PCOD8283396 Si02
#       7
#    16  16  16  16  16  16  16
#     4  12  27  52  75 107 147 196 245 308 379 458
#     4  11  21  41  69 105 138 185 247 304 355 426
#     4  12  22  44  72 104 141 192 248 301 363 444
#     4  12  25  41  71 105 147 190 245 308 362 431
#     4  12  28  47  77 109 147 186 249 308 376 444
#     4  11  24  42  71 103 141 190 237 296 370 442
#     4  11  25  44  70 102 147 186 236 296 376 439
#
# _framework density 22.997323999999999
#
# number of rings (size 3 to 8) (size 9 to 14) (size 15 to 20)
#    0.000    0.429    4.286    4.286    4.000    1.143 
#    0.000    0.000    0.000    0.857    0.000    0.000 
#    0.000    0.000    0.000    0.000    0.000    0.000 
#
# Total GULP energy -693930.705495 kJ/mol
# GULP energy per Si atom -12391.619741 kJ/mol
# Density = 2.294498 g / cm^3
# Si number density = 22.997324 Si / 1000 Ang^3
#
#
#
# Elastic Constant Matrix: (Units=GPa)
#
#
# Indices 1 2 3 4 5 6 
#
# 1 99.1229 57.7903 30.7720 0.0000 0.0000 0.0000
# 2 57.7903 150.1631 31.1152 0.0000 0.0000 0.0000
# 3 30.7720 31.1152 90.9857 0.0000 0.0000 0.0000
# 4 0.0000 0.0000 0.0000 27.9574 0.0000 0.0000
# 5 0.0000 0.0000 0.0000 0.0000 24.2221 0.0000
# 6 0.0000 0.0000 0.0000 0.0000 0.0000 35.9150
#
#
#
# Elastic Compliance Matrix: (Units=1/GPa)
#
#
# Indices 1 2 3 4 5 6 
#
# 1 0.013755 -0.004660 -0.003058 0.000000 0.000000 0.000000
# 2 -0.004660 0.008746 -0.001415 0.000000 0.000000 0.000000
# 3 -0.003058 -0.001415 0.012509 0.000000 0.000000 0.000000
# 4 0.000000 0.000000 0.000000 0.035769 0.000000 0.000000
# 5 0.000000 0.000000 0.000000 0.000000 0.041285 0.000000
# 6 0.000000 0.000000 0.000000 0.000000 0.000000 0.027844
#
#
# Mechanical properties :
#
#
# Convention : Reuss Voigt Hill
#
# Bulk Modulus (GPa) = 59.72511 64.40297 62.06404
# Shear Modulus (GPa) = 30.53364 32.32517 31.42940
#
# Velocity S-wave (km/s) = 3.64772 3.75321 3.70084
# Velocity P-wave (km/s) = 6.61574 6.84452 6.73110
#
# Compressibility (1/GPa) = 0.01674338
#
# Stress axis : x y z
#
# Youngs Moduli (GPa) = 72.70271 114.33886 79.94250
#
# Poissons Ratio (x) = 0.53279 0.24449
# Poissons Ratio (y) = 0.33878 0.11312
# Poissons Ratio (z) = 0.22235 0.16179
#
# Static dielectric constant tensor:
#      x y z
#    x 4.400510 0.000000 0.000000 
#    y 0.000000 4.485730 0.000000 
#    z 0.000000 0.000000 4.307140 
# 
# 
# High freq. dielectric constant tensor:
#      x y z
#    x 1.925140 0.000000 0.000000 
#    y 0.000000 1.919510 0.000000 
#    z 0.000000 0.000000 1.881920 
# 
# From -- ./inp_files/55295.got.cif
#   From: 2010.03.12/outbox.cif.g09.slc.cpg/sg68_28_cif.got.tgz:55295.got - 2010.04.10 23:14:56.
