data_PCOD8283772
_publ_section_title
;
Structure prediction by ZEFSAII (Michael W. Deem and Ramdas Pophale) SiO2 
 PCOD8283772
Probable space group: F M M M
;
_chemical_formula_sum "Si O2"
_cell_formula_units_Z 128
_cell_length_a 24.615021
_cell_length_b 14.710014
_cell_length_c 17.554991
_cell_angle_alpha 90.000000
_cell_angle_beta 90.000000
_cell_angle_gamma 90.000000
_cell_volume 6356.439355
_symmetry_space_group_name_H-M "F M M M"
_symmetry_group_IT_number 69
_symmetry_cell_setting 'orthorhombic'
loop_
_space_group_symop_operation_xyz
x,y,z
-x,-y,z
x,-y,-z
-x,y,-z
-x,-y,-z
x,y,-z
-x,y,z
x,-y,z
x,1/2+y,1/2+z
-x,1/2-y,1/2+z
x,1/2-y,1/2-z
-x,1/2+y,1/2-z
-x,1/2-y,1/2-z
x,1/2+y,1/2-z
-x,1/2+y,1/2+z
x,1/2-y,1/2+z
1/2+x,y,1/2+z
1/2-x,-y,1/2+z
1/2+x,-y,1/2-z
1/2-x,y,1/2-z
1/2-x,-y,1/2-z
1/2+x,y,1/2-z
1/2-x,y,1/2+z
1/2+x,-y,1/2+z
1/2+x,1/2+y,z
1/2-x,1/2-y,z
1/2+x,1/2-y,-z
1/2-x,1/2+y,-z
1/2-x,1/2-y,-z
1/2+x,1/2+y,-z
1/2-x,1/2+y,z
1/2+x,1/2-y,z
loop_
_atom_site_type_symbol
_atom_site_label
_atom_site_fract_x
_atom_site_fract_y
_atom_site_fract_z
Si Si1 0.000000 0.152263 0.789735
Si Si2 0.384631 0.605173 0.183588
Si Si3 0.500000 0.402289 0.629744
Si Si4 0.383025 0.606797 0.362125
Si Si5 0.811113 0.737995 0.412985
O O1 0.000000 0.250000 0.750000
O O2 0.945790 0.136296 0.840136
O O3 0.000000 0.079216 0.721195
O O4 0.375364 0.500000 0.163424
O O5 0.375606 0.625157 0.272665
O O6 0.341176 0.663294 0.137450
O O7 0.500000 0.500000 0.589222
O O8 0.442610 0.354193 0.609727
O O9 0.377256 0.500000 0.380901
O O10 0.338657 0.662918 0.407943
O O11 0.811452 0.704326 0.500000
O O12 0.750000 0.750000 0.382588
#
# Coordination Sequence:
#
# PCOD8283772 Si02
#       5
#    16  32  16  32  32
#     4  10  16  28  56  89 118 146 175 218 276 339
#     4  10  20  36  60  88 116 145 182 231 284 338
#     4   8  14  28  52  83 112 131 158 209 274 332
#     4   9  18  35  61  88 110 136 176 230 284 333
#     4  11  25  41  54  73 108 154 197 234 278 336
#
# _framework density 20.137059000000001
#
# number of rings (size 3 to 8) (size 9 to 14) (size 15 to 20)
#    0.000    2.250    0.000    6.375    0.000    4.000 
#    0.000    7.500    0.000    3.750    0.000    0.000 
#    0.000    0.000    0.000    0.000    0.000    0.000 
#
# Total GULP energy -396531.013509 kJ/mol
# GULP energy per Si atom -12391.594172 kJ/mol
# Density = 2.009123 g / cm^3
# Si number density = 20.137059 Si / 1000 Ang^3
#
#
#
# Elastic Constant Matrix: (Units=GPa)
#
#
# Indices 1 2 3 4 5 6 
#
# 1 191.7153 61.9640 36.2770 0.0000 0.0000 0.0000
# 2 61.9640 108.2376 22.9843 0.0000 0.0000 0.0000
# 3 36.2770 22.9843 39.3676 0.0000 0.0000 0.0000
# 4 0.0000 0.0000 0.0000 15.2443 0.0000 0.0000
# 5 0.0000 0.0000 0.0000 0.0000 -53.7265 0.0000
# 6 0.0000 0.0000 0.0000 0.0000 0.0000 24.8123
#
#
#
# Elastic Compliance Matrix: (Units=1/GPa)
#
#
# Indices 1 2 3 4 5 6 
#
# 1 0.007105 -0.003056 -0.004763 0.000000 0.000000 0.000000
# 2 -0.003056 0.011861 -0.004109 0.000000 0.000000 0.000000
# 3 -0.004763 -0.004109 0.032190 0.000000 0.000000 0.000000
# 4 0.000000 0.000000 0.000000 0.065598 0.000000 0.000000
# 5 0.000000 0.000000 0.000000 0.000000 -0.018613 0.000000
# 6 0.000000 0.000000 0.000000 0.000000 0.000000 0.040303
#
#
# Mechanical properties :
#
#
# Convention : Reuss Voigt Hill
#
# Bulk Modulus (GPa) = 36.63016 64.64123 50.63569
# Shear Modulus (GPa) = 29.17166 11.80570 20.48868
#
# Velocity S-wave (km/s) = 3.81025 2.42392 3.19323
# Velocity P-wave (km/s) = 6.13084 6.32489 6.22862
#
# Compressibility (1/GPa) = 0.02729991
#
# Stress axis : x y z
#
# Youngs Moduli (GPa) = 140.74384 84.31001 31.06601
#
# Poissons Ratio (x) = 0.25766 0.14797
# Poissons Ratio (y) = 0.43013 0.12764
# Poissons Ratio (z) = 0.67037 0.34640
#
# Static dielectric constant tensor:
#      x y z
#    x 3.916140 0.000000 0.000000 
#    y 0.000000 3.665730 0.000000 
#    z 0.000000 0.000000 3.281690 
# 
# 
# High freq. dielectric constant tensor:
#      x y z
#    x 1.796850 0.000000 0.000000 
#    y 0.000000 1.790690 0.000000 
#    z 0.000000 0.000000 1.742910 
# 
# From -- ./inp_files/15368.got.cif
#   From: 2010.03.12/outbox.cif.g09.slc.cpg/sg69_8_cif.got.tgz:15368.got - 2010.04.10 23:52:46.
