data_PCOD8283132
_publ_section_title
;
Structure prediction by ZEFSAII (Michael W. Deem and Ramdas Pophale) SiO2 
 PCOD8283132
Probable space group: C C C A
;
_chemical_formula_sum "Si O2"
_cell_formula_units_Z 64
_cell_length_a 14.889660
_cell_length_b 8.684968
_cell_length_c 21.194339
_cell_angle_alpha 90.000000
_cell_angle_beta 90.000000
_cell_angle_gamma 90.000000
_cell_volume 2740.771818
_symmetry_space_group_name_H-M "C C C A"
_symmetry_group_IT_number 68
_space_group.IT_coordinate_system_code '2'
_symmetry_cell_setting 'orthorhombic'
loop_
_space_group_symop_operation_xyz
x,y,z
-x,1/2-y,z
x,1/2-y,1/2-z
-x,y,1/2-z
-x,-y,-z
x,1/2+y,-z
-x,1/2+y,1/2+z
x,-y,1/2+z
1/2+x,1/2+y,z
1/2-x,-y,z
1/2+x,-y,1/2-z
1/2-x,1/2+y,1/2-z
1/2-x,1/2-y,-z
1/2+x,y,-z
1/2-x,y,1/2+z
1/2+x,1/2-y,1/2+z
loop_
_atom_site_type_symbol
_atom_site_label
_atom_site_fract_x
_atom_site_fract_y
_atom_site_fract_z
Si Si1 0.500000 0.004808 0.250000
Si Si2 0.362543 0.360270 0.052246
Si Si3 0.178704 0.133673 0.202364
Si Si4 0.000000 0.750000 0.143900
Si Si5 0.155535 0.202631 0.426929
O O1 0.407746 0.911317 0.244455
O O2 0.504528 0.100100 0.186101
O O3 0.412877 0.244025 0.099322
O O4 0.259264 0.329918 0.063548
O O5 0.392822 0.535980 0.067065
O O6 0.385023 0.316998 0.979786
O O7 0.231342 0.250000 0.250000
O O8 0.140847 0.215687 0.139882
O O9 0.250000 0.000000 0.185395
#
# Coordination Sequence:
#
# PCOD8283132 Si02
#       5
#     8  16  16   8  16
#     4  11  27  46  72 106 150 184 244 304 348 434
#     4  10  23  43  71 103 140 186 232 299 350 440
#     4  12  28  46  75 104 144 194 241 298 365 431
#     4  11  24  44  72 104 141 186 240 294 367 412
#     4  10  24  44  72 102 143 183 241 288 364 426
#
# _framework density 23.351085999999999
#
# number of rings (size 3 to 8) (size 9 to 14) (size 15 to 20)
#    0.000    1.250    0.000    3.375   21.000    1.000 
#    4.500    0.000    0.000    0.000    0.000    0.000 
#    0.000    0.000    0.000    0.000    0.000    0.000 
#
# Total GULP energy -396757.652345 kJ/mol
# GULP energy per Si atom -12398.676636 kJ/mol
# Density = 2.329794 g / cm^3
# Si number density = 23.351086 Si / 1000 Ang^3
#
#
#
# Elastic Constant Matrix: (Units=GPa)
#
#
# Indices 1 2 3 4 5 6 
#
# 1 56.1440 37.3262 32.5014 0.0000 0.0000 0.0000
# 2 37.3262 146.8331 91.4155 0.0000 0.0000 0.0000
# 3 32.5014 91.4155 203.4929 0.0000 0.0000 0.0000
# 4 0.0000 0.0000 0.0000 -24.1282 0.0000 0.0000
# 5 0.0000 0.0000 0.0000 0.0000 47.4542 0.0000
# 6 0.0000 0.0000 0.0000 0.0000 0.0000 25.6761
#
#
#
# Elastic Compliance Matrix: (Units=1/GPa)
#
#
# Indices 1 2 3 4 5 6 
#
# 1 0.021706 -0.004664 -0.001372 0.000000 0.000000 0.000000
# 2 -0.004664 0.010457 -0.003953 0.000000 0.000000 0.000000
# 3 -0.001372 -0.003953 0.006909 0.000000 0.000000 0.000000
# 4 0.000000 0.000000 0.000000 -0.041445 0.000000 0.000000
# 5 0.000000 0.000000 0.000000 0.000000 0.021073 0.000000
# 6 0.000000 0.000000 0.000000 0.000000 0.000000 0.038947
#
#
# Mechanical properties :
#
#
# Convention : Reuss Voigt Hill
#
# Bulk Modulus (GPa) = 52.36854 80.99514 66.68184
# Shear Modulus (GPa) = 59.53237 26.14888 42.84062
#
# Velocity S-wave (km/s) = 5.05468 3.34999 4.28791
# Velocity P-wave (km/s) = 7.51942 7.05155 7.28924
#
# Compressibility (1/GPa) = 0.01909544
#
# Stress axis : x y z
#
# Youngs Moduli (GPa) = 46.07005 95.63058 144.74035
#
# Poissons Ratio (x) = 0.44601 0.19854
# Poissons Ratio (y) = 0.21487 0.57211
# Poissons Ratio (z) = 0.06319 0.37800
#
# Static dielectric constant tensor:
#      x y z
#    x 4.181650 0.000000 0.000000 
#    y 0.000000 4.678120 0.000000 
#    z 0.000000 0.000000 4.379940 
# 
# 
# High freq. dielectric constant tensor:
#      x y z
#    x 1.908800 0.000000 0.000000 
#    y 0.000000 1.933200 0.000000 
#    z 0.000000 0.000000 1.943410 
# 
# From -- ./inp_files/39145.got.cif
#   From: 2010.03.12/outbox.cif.g09.slc.cpg/sg68_20_cif.got.tgz:39145.got - 2010.04.10 23:14:56.
