data_PCOD8283109
_publ_section_title
;
Structure prediction by ZEFSAII (Michael W. Deem and Ramdas Pophale) SiO2 
 PCOD8283109
Probable space group: C C C A
;
_chemical_formula_sum "Si O2"
_cell_formula_units_Z 96
_cell_length_a 17.219331
_cell_length_b 18.797639
_cell_length_c 13.757710
_cell_angle_alpha 90.000000
_cell_angle_beta 90.000000
_cell_angle_gamma 90.000000
_cell_volume 4453.133654
_symmetry_space_group_name_H-M "C C C A"
_symmetry_group_IT_number 68
_space_group.IT_coordinate_system_code '2'
_symmetry_cell_setting 'orthorhombic'
loop_
_space_group_symop_operation_xyz
x,y,z
-x,1/2-y,z
x,1/2-y,1/2-z
-x,y,1/2-z
-x,-y,-z
x,1/2+y,-z
-x,1/2+y,1/2+z
x,-y,1/2+z
1/2+x,1/2+y,z
1/2-x,-y,z
1/2+x,-y,1/2-z
1/2-x,1/2+y,1/2-z
1/2-x,1/2-y,-z
1/2+x,y,-z
1/2-x,y,1/2+z
1/2+x,1/2-y,1/2+z
loop_
_atom_site_type_symbol
_atom_site_label
_atom_site_fract_x
_atom_site_fract_y
_atom_site_fract_z
Si Si1 0.088590 0.028546 0.222231
Si Si2 0.681680 0.342728 0.407102
Si Si3 0.662849 0.018097 0.976791
Si Si4 0.410695 0.364552 0.275050
Si Si5 0.855095 0.884641 0.604476
Si Si6 0.915685 0.780938 0.468268
O O1 0.107573 0.044778 0.110225
O O2 0.136884 0.084302 0.287348
O O3 0.000000 0.041696 0.250000
O O4 0.112668 0.946969 0.236399
O O5 0.656608 0.420056 0.444213
O O6 0.643115 0.324658 0.302936
O O7 0.774063 0.343020 0.402265
O O8 0.649027 0.281059 0.477528
O O9 0.750000 0.000000 0.939673
O O10 0.630924 0.948483 0.029157
O O11 0.500000 0.350681 0.250000
O O12 0.391654 0.335187 0.381775
O O13 0.916894 0.824760 0.570169
O O14 0.000000 0.750000 0.447638
#
# Coordination Sequence:
#
# PCOD8283109 Si02
#       6
#    16  16  16  16  16  16
#     4  11  25  40  70 101 133 175 235 283 346 399
#     4  11  24  41  70 101 139 175 229 278 352 404
#     4  10  23  42  68  98 136 177 225 282 343 409
#     4  11  22  40  67 108 132 168 225 296 336 397
#     4  11  25  45  67  99 137 182 226 282 335 416
#     4  12  25  43  71 100 143 180 227 280 347 406
#
# _framework density 21.557852
#
# number of rings (size 3 to 8) (size 9 to 14) (size 15 to 20)
#    0.000    1.000    5.000    1.000    4.667    0.667 
#    0.000    2.500    0.000    0.000    0.000    0.000 
#    0.000    0.000    0.000    0.000    0.000    0.000 
#
# Total GULP energy -595104.507472 kJ/mol
# GULP energy per Si atom -12398.010572 kJ/mol
# Density = 2.150879 g / cm^3
# Si number density = 21.557852 Si / 1000 Ang^3
#
#
#
# Elastic Constant Matrix: (Units=GPa)
#
#
# Indices 1 2 3 4 5 6 
#
# 1 69.6070 40.0824 32.2271 0.0000 0.0000 0.0000
# 2 40.0824 97.4451 20.8701 0.0000 0.0000 0.0000
# 3 32.2271 20.8701 94.4018 0.0000 0.0000 0.0000
# 4 0.0000 0.0000 0.0000 35.1148 0.0000 0.0000
# 5 0.0000 0.0000 0.0000 0.0000 28.4891 0.0000
# 6 0.0000 0.0000 0.0000 0.0000 0.0000 31.5562
#
#
#
# Elastic Compliance Matrix: (Units=1/GPa)
#
#
# Indices 1 2 3 4 5 6 
#
# 1 0.021320 -0.007569 -0.005605 0.000000 0.000000 0.000000
# 2 -0.007569 0.013460 -0.000392 0.000000 0.000000 0.000000
# 3 -0.005605 -0.000392 0.012593 0.000000 0.000000 0.000000
# 4 0.000000 0.000000 0.000000 0.028478 0.000000 0.000000
# 5 0.000000 0.000000 0.000000 0.000000 0.035101 0.000000
# 6 0.000000 0.000000 0.000000 0.000000 0.000000 0.031690
#
#
# Mechanical properties :
#
#
# Convention : Reuss Voigt Hill
#
# Bulk Modulus (GPa) = 49.40435 49.75700 49.58068
# Shear Modulus (GPa) = 28.32544 30.25029 29.28787
#
# Velocity S-wave (km/s) = 3.62875 3.75001 3.68988
# Velocity P-wave (km/s) = 6.36584 6.47155 6.41891
#
# Compressibility (1/GPa) = 0.02024113
#
# Stress axis : x y z
#
# Youngs Moduli (GPa) = 46.90426 74.29680 79.40914
#
# Poissons Ratio (x) = 0.56237 0.44508
# Poissons Ratio (y) = 0.35503 0.03110
# Poissons Ratio (z) = 0.26289 0.02909
#
# Static dielectric constant tensor:
#      x y z
#    x 3.883780 0.000000 0.000000 
#    y 0.000000 3.995330 0.000000 
#    z 0.000000 0.000000 3.798490 
# 
# 
# High freq. dielectric constant tensor:
#      x y z
#    x 1.836530 0.000000 0.000000 
#    y 0.000000 1.856640 0.000000 
#    z 0.000000 0.000000 1.838870 
# 
# From -- ./inp_files/15573.got.cif
#   From: 2010.03.12/outbox.cif.g09.slc.cpg/sg68_8_cif.got.tgz:15573.got - 2010.04.10 23:14:56.
