data_PCOD8283474
_publ_section_title
;
Structure prediction by ZEFSAII (Michael W. Deem and Ramdas Pophale) SiO2 
 PCOD8283474
Probable space group: C C C A
;
_chemical_formula_sum "Si O2"
_cell_formula_units_Z 60
_cell_length_a 12.134165
_cell_length_b 15.474308
_cell_length_c 13.185723
_cell_angle_alpha 90.000000
_cell_angle_beta 90.000000
_cell_angle_gamma 90.000000
_cell_volume 2475.854285
_symmetry_space_group_name_H-M "C C C A"
_symmetry_group_IT_number 68
_space_group.IT_coordinate_system_code '2'
_symmetry_cell_setting 'orthorhombic'
loop_
_space_group_symop_operation_xyz
x,y,z
-x,1/2-y,z
x,1/2-y,1/2-z
-x,y,1/2-z
-x,-y,-z
x,1/2+y,-z
-x,1/2+y,1/2+z
x,-y,1/2+z
1/2+x,1/2+y,z
1/2-x,-y,z
1/2+x,-y,1/2-z
1/2-x,1/2+y,1/2-z
1/2-x,1/2-y,-z
1/2+x,y,-z
1/2-x,y,1/2+z
1/2+x,1/2-y,1/2+z
loop_
_atom_site_type_symbol
_atom_site_label
_atom_site_fract_x
_atom_site_fract_y
_atom_site_fract_z
Si Si1 0.854968 0.612618 0.644458
Si Si2 0.097990 0.374262 0.574441
Si Si3 0.250000 0.000000 0.297002
Si Si4 0.000000 0.250000 0.250000
Si Si5 0.374398 0.697656 0.856179
O O1 0.905570 0.581031 0.537021
O O2 0.851446 0.538514 0.730083
O O3 0.727686 0.635884 0.631733
O O4 0.924307 0.693878 0.678354
O O5 0.189326 0.425937 0.638845
O O6 0.135790 0.273971 0.560067
O O7 0.977963 0.367324 0.627075
O O8 0.383292 0.750000 0.750000
#
# Coordination Sequence:
#
# PCOD8283474 Si02
#       5
#    16  16   8   4  16
#     4  12  26  45  71 109 145 189 245 308 373 426
#     4  11  24  43  74 104 140 196 244 298 360 451
#     4  12  26  46  70 110 154 190 238 310 374 438
#     4  12  24  48  72 110 146 186 240 344 348 418
#     4  11  22  47  77  99 139 198 252 290 361 453
#
# _framework density 24.234059999999999
#
# number of rings (size 3 to 8) (size 9 to 14) (size 15 to 20)
#    0.000    0.533    4.000    4.800    0.000    4.267 
#    0.000    4.000    0.000    0.000    0.000    0.000 
#    0.000    0.000    0.000    0.000    0.000    0.000 
#
# Total GULP energy -371755.207381 kJ/mol
# GULP energy per Si atom -12391.840246 kJ/mol
# Density = 2.417890 g / cm^3
# Si number density = 24.234060 Si / 1000 Ang^3
#
#
#
# Elastic Constant Matrix: (Units=GPa)
#
#
# Indices 1 2 3 4 5 6 
#
# 1 127.1031 39.0901 31.5324 0.0000 0.0000 0.0000
# 2 39.0901 79.6230 30.4378 0.0000 0.0000 0.0000
# 3 31.5324 30.4378 147.6634 0.0000 0.0000 0.0000
# 4 0.0000 0.0000 0.0000 22.9573 0.0000 0.0000
# 5 0.0000 0.0000 0.0000 0.0000 26.5233 0.0000
# 6 0.0000 0.0000 0.0000 0.0000 0.0000 -16.1923
#
#
#
# Elastic Compliance Matrix: (Units=1/GPa)
#
#
# Indices 1 2 3 4 5 6 
#
# 1 0.009444 -0.004196 -0.001152 0.000000 0.000000 0.000000
# 2 -0.004196 0.015498 -0.002299 0.000000 0.000000 0.000000
# 3 -0.001152 -0.002299 0.007492 0.000000 0.000000 0.000000
# 4 0.000000 0.000000 0.000000 0.043559 0.000000 0.000000
# 5 0.000000 0.000000 0.000000 0.000000 0.037703 0.000000
# 6 0.000000 0.000000 0.000000 0.000000 0.000000 -0.061758
#
#
# Mechanical properties :
#
#
# Convention : Reuss Voigt Hill
#
# Bulk Modulus (GPa) = 58.33987 61.83446 60.08716
# Shear Modulus (GPa) = 68.54563 23.54627 46.04595
#
# Velocity S-wave (km/s) = 5.32412 3.12046 4.36369
# Velocity P-wave (km/s) = 7.86897 6.20918 7.08783
#
# Compressibility (1/GPa) = 0.01714094
#
# Stress axis : x y z
#
# Youngs Moduli (GPa) = 105.88900 64.52495 133.47751
#
# Poissons Ratio (x) = 0.27075 0.15373
# Poissons Ratio (y) = 0.44432 0.30680
# Poissons Ratio (z) = 0.12195 0.14831
#
# Static dielectric constant tensor:
#      x y z
#    x 4.566500 0.000000 0.000000 
#    y 0.000000 4.502630 0.000000 
#    z 0.000000 0.000000 4.208320 
# 
# 
# High freq. dielectric constant tensor:
#      x y z
#    x 1.968760 0.000000 0.000000 
#    y 0.000000 1.961580 0.000000 
#    z 0.000000 0.000000 1.967590 
# 
# From -- ./inp_files/12728.got.cif
#   From: 2010.03.12/outbox.cif.g09.slc.cpg/sg68_7_cif.got.tgz:12728.got - 2010.04.10 23:14:56.
