data_PCOD8283262
_publ_section_title
;
Structure prediction by ZEFSAII (Michael W. Deem and Ramdas Pophale) SiO2 
 PCOD8283262
Probable space group: C C C A
;
_chemical_formula_sum "Si O2"
_cell_formula_units_Z 104
_cell_length_a 19.874714
_cell_length_b 25.416096
_cell_length_c 9.388409
_cell_angle_alpha 90.000000
_cell_angle_beta 90.000000
_cell_angle_gamma 90.000000
_cell_volume 4742.438756
_symmetry_space_group_name_H-M "C C C A"
_symmetry_group_IT_number 68
_space_group.IT_coordinate_system_code '2'
_symmetry_cell_setting 'orthorhombic'
loop_
_space_group_symop_operation_xyz
x,y,z
-x,1/2-y,z
x,1/2-y,1/2-z
-x,y,1/2-z
-x,-y,-z
x,1/2+y,-z
-x,1/2+y,1/2+z
x,-y,1/2+z
1/2+x,1/2+y,z
1/2-x,-y,z
1/2+x,-y,1/2-z
1/2-x,1/2+y,1/2-z
1/2-x,1/2-y,-z
1/2+x,y,-z
1/2-x,y,1/2+z
1/2+x,1/2-y,1/2+z
loop_
_atom_site_type_symbol
_atom_site_label
_atom_site_fract_x
_atom_site_fract_y
_atom_site_fract_z
Si Si1 0.147296 0.349787 0.252265
Si Si2 0.606888 0.956085 0.623226
Si Si3 0.609082 0.673323 0.562283
Si Si4 0.323059 0.223222 0.494795
Si Si5 0.000000 0.376108 0.750000
Si Si6 0.799241 0.127868 0.708861
Si Si7 0.074127 0.952190 0.686817
O O1 0.154069 0.297200 0.348693
O O2 0.220007 0.374232 0.224011
O O3 0.103651 0.393941 0.329548
O O4 0.109231 0.338281 0.105565
O O5 0.553805 0.913792 0.679152
O O6 0.678746 0.926544 0.632494
O O7 0.580407 0.975948 0.470869
O O8 0.616439 0.008761 0.714405
O O9 0.624570 0.735473 0.572628
O O10 0.536256 0.660613 0.631157
O O11 0.666698 0.637522 0.636764
O O12 0.250000 0.250000 0.500000
O O13 0.323811 0.174943 0.389556
O O14 0.000000 0.950689 0.750000
#
# Coordination Sequence:
#
# PCOD8283262 Si02
#       7
#    16  16  16  16   8  16  16
#     4  12  24  42  71 109 142 184 244 301 351 434
#     4  11  25  46  71  99 139 182 242 295 358 427
#     4  11  24  39  74  99 144 189 236 288 357 431
#     4  12  22  43  71 109 145 189 234 286 361 435
#     4  10  24  48  71 104 136 188 245 294 356 434
#     4  11  23  43  67 109 142 180 237 291 353 426
#     4  12  26  45  74  96 136 191 240 294 358 428
#
# _framework density 21.929646000000002
#
# number of rings (size 3 to 8) (size 9 to 14) (size 15 to 20)
#    0.000    0.615    5.385    2.308    4.308    0.615 
#    0.000    7.692    0.000    0.923    0.000    0.000 
#    0.000    0.000    0.000    0.000    0.000    0.000 
#
# Total GULP energy -644785.581234 kJ/mol
# GULP energy per Si atom -12399.722716 kJ/mol
# Density = 2.187973 g / cm^3
# Si number density = 21.929646 Si / 1000 Ang^3
#
#
#
# Elastic Constant Matrix: (Units=GPa)
#
#
# Indices 1 2 3 4 5 6 
#
# 1 41.9456 10.1774 12.0162 0.0000 0.0000 0.0000
# 2 10.1774 92.6415 31.2946 0.0000 0.0000 0.0000
# 3 12.0162 31.2946 139.5897 0.0000 0.0000 0.0000
# 4 0.0000 0.0000 0.0000 11.0545 0.0000 0.0000
# 5 0.0000 0.0000 0.0000 0.0000 32.7646 0.0000
# 6 0.0000 0.0000 0.0000 0.0000 0.0000 -22.1530
#
#
#
# Elastic Compliance Matrix: (Units=1/GPa)
#
#
# Indices 1 2 3 4 5 6 
#
# 1 0.024840 -0.002171 -0.001652 0.000000 0.000000 0.000000
# 2 -0.002171 0.011868 -0.002474 0.000000 0.000000 0.000000
# 3 -0.001652 -0.002474 0.007861 0.000000 0.000000 0.000000
# 4 0.000000 0.000000 0.000000 0.090461 0.000000 0.000000
# 5 0.000000 0.000000 0.000000 0.000000 0.030521 0.000000
# 6 0.000000 0.000000 0.000000 0.000000 0.000000 -0.045141
#
#
# Mechanical properties :
#
#
# Convention : Reuss Voigt Hill
#
# Bulk Modulus (GPa) = 31.27303 42.35035 36.81169
# Shear Modulus (GPa) = 34.80378 19.04579 26.92478
#
# Velocity S-wave (km/s) = 3.98812 2.95022 3.50777
# Velocity P-wave (km/s) = 5.95805 5.56407 5.76443
#
# Compressibility (1/GPa) = 0.03197644
#
# Stress axis : x y z
#
# Youngs Moduli (GPa) = 40.25722 84.25673 127.21588
#
# Poissons Ratio (x) = 0.18292 0.21011
# Poissons Ratio (y) = 0.08740 0.31472
# Poissons Ratio (z) = 0.06649 0.20844
#
# Static dielectric constant tensor:
#      x y z
#    x 3.967810 0.000000 0.000000 
#    y 0.000000 4.210180 0.000000 
#    z 0.000000 0.000000 4.253610 
# 
# 
# High freq. dielectric constant tensor:
#      x y z
#    x 1.849240 0.000000 0.000000 
#    y 0.000000 1.866670 0.000000 
#    z 0.000000 0.000000 1.880070 
# 
# From -- ./inp_files/7387.got.cif
#   From: 2010.03.12/outbox.cif.g09.slc.cpg/sg68_4_cif.got.tgz:7387.got - 2010.04.10 23:14:56.
