data_PCOD8283517
_publ_section_title
;
Structure prediction by ZEFSAII (Michael W. Deem and Ramdas Pophale) SiO2 
 PCOD8283517
Probable space group: C C C A
;
_chemical_formula_sum "Si O2"
_cell_formula_units_Z 64
_cell_length_a 10.992015
_cell_length_b 14.557700
_cell_length_c 16.408158
_cell_angle_alpha 90.000000
_cell_angle_beta 90.000000
_cell_angle_gamma 90.000000
_cell_volume 2625.608122
_symmetry_space_group_name_H-M "C C C A"
_symmetry_group_IT_number 68
_space_group.IT_coordinate_system_code '2'
_symmetry_cell_setting 'orthorhombic'
loop_
_space_group_symop_operation_xyz
x,y,z
-x,1/2-y,z
x,1/2-y,1/2-z
-x,y,1/2-z
-x,-y,-z
x,1/2+y,-z
-x,1/2+y,1/2+z
x,-y,1/2+z
1/2+x,1/2+y,z
1/2-x,-y,z
1/2+x,-y,1/2-z
1/2-x,1/2+y,1/2-z
1/2-x,1/2-y,-z
1/2+x,y,-z
1/2-x,y,1/2+z
1/2+x,1/2-y,1/2+z
loop_
_atom_site_type_symbol
_atom_site_label
_atom_site_fract_x
_atom_site_fract_y
_atom_site_fract_z
Si Si1 0.381843 0.200178 0.006240
Si Si2 0.430016 0.111017 0.169468
Si Si3 0.323300 0.854119 0.222286
Si Si4 0.535526 0.420048 0.871609
O O1 0.500000 0.250000 0.968168
O O2 0.413200 0.188890 0.101246
O O3 0.250000 0.250000 0.000000
O O4 0.386105 0.106274 0.952406
O O5 0.500000 0.146965 0.250000
O O6 0.294393 0.088348 0.197537
O O7 0.493255 0.025510 0.124355
O O8 0.295482 0.750000 0.250000
O O9 0.417795 0.854446 0.146065
O O10 0.376116 0.913709 0.295166
#
# Coordination Sequence:
#
# PCOD8283517 Si02
#       4
#    16  16  16  16
#     4  12  28  50  74 113 154 206 257 318 390 465
#     4  12  27  44  73 113 153 194 258 320 391 451
#     4  11  23  43  74 105 147 197 254 315 383 459
#     4  11  23  47  75 105 148 199 257 314 389 464
#
# _framework density 24.375305000000001
#
# number of rings (size 3 to 8) (size 9 to 14) (size 15 to 20)
#    0.000    0.500    2.500    7.500    7.000    0.000 
#    0.000    2.500    0.000    0.000    0.000    0.000 
#    0.000    0.000    0.000    0.000    0.000    0.000 
#
# Total GULP energy -396462.041706 kJ/mol
# GULP energy per Si atom -12389.438803 kJ/mol
# Density = 2.431983 g / cm^3
# Si number density = 24.375305 Si / 1000 Ang^3
#
#
#
# Elastic Constant Matrix: (Units=GPa)
#
#
# Indices 1 2 3 4 5 6 
#
# 1 170.4841 45.4001 73.3761 0.0000 0.0000 0.0000
# 2 45.4001 79.7368 28.3826 0.0000 0.0000 0.0000
# 3 73.3761 28.3826 150.6915 0.0000 0.0000 0.0000
# 4 0.0000 0.0000 0.0000 34.1026 0.0000 0.0000
# 5 0.0000 0.0000 0.0000 0.0000 20.6790 0.0000
# 6 0.0000 0.0000 0.0000 0.0000 0.0000 53.0329
#
#
#
# Elastic Compliance Matrix: (Units=1/GPa)
#
#
# Indices 1 2 3 4 5 6 
#
# 1 0.008241 -0.003498 -0.003354 0.000000 0.000000 0.000000
# 2 -0.003498 0.014928 -0.001108 0.000000 0.000000 0.000000
# 3 -0.003354 -0.001108 0.008478 0.000000 0.000000 0.000000
# 4 0.000000 0.000000 0.000000 0.029323 0.000000 0.000000
# 5 0.000000 0.000000 0.000000 0.000000 0.048358 0.000000
# 6 0.000000 0.000000 0.000000 0.000000 0.000000 0.018856
#
#
# Mechanical properties :
#
#
# Convention : Reuss Voigt Hill
#
# Bulk Modulus (GPa) = 63.59014 77.24774 70.41894
# Shear Modulus (GPa) = 33.47928 38.47980 35.97954
#
# Velocity S-wave (km/s) = 3.71009 3.97752 3.84613
# Velocity P-wave (km/s) = 6.67065 7.27008 6.97680
#
# Compressibility (1/GPa) = 0.01572571
#
# Stress axis : x y z
#
# Youngs Moduli (GPa) = 121.34914 66.99024 117.95467
#
# Poissons Ratio (x) = 0.23435 0.39559
# Poissons Ratio (y) = 0.42451 0.13072
# Poissons Ratio (z) = 0.40697 0.07424
#
# Static dielectric constant tensor:
#      x y z
#    x 4.634660 0.000000 0.000000 
#    y 0.000000 4.089920 0.000000 
#    z 0.000000 0.000000 4.461460 
# 
# 
# High freq. dielectric constant tensor:
#      x y z
#    x 1.980560 0.000000 0.000000 
#    y 0.000000 1.955580 0.000000 
#    z 0.000000 0.000000 1.976890 
# 
# From -- ./inp_files/29171.got.cif
#   From: 2010.03.12/outbox.cif.g09.slc.cpg/sg68_15_cif.got.tgz:29171.got - 2010.04.10 23:14:56.
