data_PCOD8283007
_publ_section_title
;
Structure prediction by ZEFSAII (Michael W. Deem and Ramdas Pophale) SiO2 
 PCOD8283007
Probable space group: C C C A
;
_chemical_formula_sum "Si O2"
_cell_formula_units_Z 80
_cell_length_a 19.654129
_cell_length_b 13.375020
_cell_length_c 13.655855
_cell_angle_alpha 90.000000
_cell_angle_beta 90.000000
_cell_angle_gamma 90.000000
_cell_volume 3589.774259
_symmetry_space_group_name_H-M "C C C A"
_symmetry_group_IT_number 68
_space_group.IT_coordinate_system_code '2'
_symmetry_cell_setting 'orthorhombic'
loop_
_space_group_symop_operation_xyz
x,y,z
-x,1/2-y,z
x,1/2-y,1/2-z
-x,y,1/2-z
-x,-y,-z
x,1/2+y,-z
-x,1/2+y,1/2+z
x,-y,1/2+z
1/2+x,1/2+y,z
1/2-x,-y,z
1/2+x,-y,1/2-z
1/2-x,1/2+y,1/2-z
1/2-x,1/2-y,-z
1/2+x,y,-z
1/2-x,y,1/2+z
1/2+x,1/2-y,1/2+z
loop_
_atom_site_type_symbol
_atom_site_label
_atom_site_fract_x
_atom_site_fract_y
_atom_site_fract_z
Si Si1 0.957670 0.155947 0.460681
Si Si2 0.665974 0.021240 0.153060
Si Si3 0.512817 0.531308 0.859850
Si Si4 0.753670 0.636053 0.731441
Si Si5 0.800297 0.156696 0.477762
O O1 0.879375 0.191026 0.469938
O O2 0.000000 0.250000 0.419677
O O3 0.963160 0.061231 0.386468
O O4 0.992647 0.123453 0.564201
O O5 0.675810 0.101514 0.243789
O O6 0.702625 0.070379 0.058615
O O7 0.589503 0.991651 0.130891
O O8 0.702378 0.919704 0.185442
O O9 0.500000 0.570017 0.750000
O O10 0.766363 0.750000 0.750000
O O11 0.775324 0.605835 0.622772
O O12 0.750000 0.250000 0.500000
#
# Coordination Sequence:
#
# PCOD8283007 Si02
#       5
#    16  16  16  16  16
#     4  10  24  41  66  98 130 178 226 280 348 422
#     4  10  24  42  66  97 134 174 224 283 351 410
#     4  10  22  44  64  95 131 172 224 279 340 414
#     4  11  23  40  65 100 131 175 228 273 345 427
#     4  11  23  44  67  96 139 179 227 292 352 418
#
# _framework density 22.285523999999999
#
# number of rings (size 3 to 8) (size 9 to 14) (size 15 to 20)
#    0.000    1.600    2.000    1.200    2.800    5.600 
#    0.000    0.000    0.000    0.000    0.000    0.000 
#    0.000    0.000    0.000    0.000    0.000    0.000 
#
# Total GULP energy -495593.906127 kJ/mol
# GULP energy per Si atom -12389.847653 kJ/mol
# Density = 2.223480 g / cm^3
# Si number density = 22.285524 Si / 1000 Ang^3
#
#
#
# Elastic Constant Matrix: (Units=GPa)
#
#
# Indices 1 2 3 4 5 6 
#
# 1 107.8611 38.7754 20.7023 0.0000 0.0000 0.0000
# 2 38.7754 117.6552 24.6375 0.0000 0.0000 0.0000
# 3 20.7023 24.6375 101.5618 0.0000 0.0000 0.0000
# 4 0.0000 0.0000 0.0000 33.3234 0.0000 0.0000
# 5 0.0000 0.0000 0.0000 0.0000 35.0513 0.0000
# 6 0.0000 0.0000 0.0000 0.0000 0.0000 37.1450
#
#
#
# Elastic Compliance Matrix: (Units=1/GPa)
#
#
# Indices 1 2 3 4 5 6 
#
# 1 0.010702 -0.003235 -0.001397 0.000000 0.000000 0.000000
# 2 -0.003235 0.009932 -0.001750 0.000000 0.000000 0.000000
# 3 -0.001397 -0.001750 0.010555 0.000000 0.000000 0.000000
# 4 0.000000 0.000000 0.000000 0.030009 0.000000 0.000000
# 5 0.000000 0.000000 0.000000 0.000000 0.028530 0.000000
# 6 0.000000 0.000000 0.000000 0.000000 0.000000 0.026922
#
#
# Mechanical properties :
#
#
# Convention : Reuss Voigt Hill
#
# Bulk Modulus (GPa) = 54.26932 55.03429 54.65180
# Shear Modulus (GPa) = 36.88552 37.30147 37.09349
#
# Velocity S-wave (km/s) = 4.07275 4.09565 4.08421
# Velocity P-wave (km/s) = 6.82063 6.86400 6.84235
#
# Compressibility (1/GPa) = 0.01842662
#
# Stress axis : x y z
#
# Youngs Moduli (GPa) = 93.43962 100.68588 94.73746
#
# Poissons Ratio (x) = 0.32568 0.13233
# Poissons Ratio (y) = 0.30224 0.16579
# Poissons Ratio (z) = 0.13052 0.17620
#
# Static dielectric constant tensor:
#      x y z
#    x 4.161110 0.000000 0.000000 
#    y 0.000000 3.809460 0.000000 
#    z 0.000000 0.000000 4.517110 
# 
# 
# High freq. dielectric constant tensor:
#      x y z
#    x 1.876530 0.000000 0.000000 
#    y 0.000000 1.870310 0.000000 
#    z 0.000000 0.000000 1.889320 
# 
# From -- ./inp_files/25173.got.cif
#   From: 2010.03.12/outbox.cif.g09.slc.cpg/sg68_13_cif.got.tgz:25173.got - 2010.04.10 23:14:56.
