data_PCOD8283934
_publ_section_title
;
Structure prediction by ZEFSAII (Michael W. Deem and Ramdas Pophale) SiO2 
 PCOD8283934
Probable space group: F M M M
;
_chemical_formula_sum "Si O2"
_cell_formula_units_Z 128
_cell_length_a 18.226501
_cell_length_b 30.132125
_cell_length_c 14.557664
_cell_angle_alpha 90.000000
_cell_angle_beta 90.000000
_cell_angle_gamma 90.000000
_cell_volume 7995.115747
_symmetry_space_group_name_H-M "F M M M"
_symmetry_group_IT_number 69
_symmetry_cell_setting 'orthorhombic'
loop_
_space_group_symop_operation_xyz
x,y,z
-x,-y,z
x,-y,-z
-x,y,-z
-x,-y,-z
x,y,-z
-x,y,z
x,-y,z
x,1/2+y,1/2+z
-x,1/2-y,1/2+z
x,1/2-y,1/2-z
-x,1/2+y,1/2-z
-x,1/2-y,1/2-z
x,1/2+y,1/2-z
-x,1/2+y,1/2+z
x,1/2-y,1/2+z
1/2+x,y,1/2+z
1/2-x,-y,1/2+z
1/2+x,-y,1/2-z
1/2-x,y,1/2-z
1/2-x,-y,1/2-z
1/2+x,y,1/2-z
1/2-x,y,1/2+z
1/2+x,-y,1/2+z
1/2+x,1/2+y,z
1/2-x,1/2-y,z
1/2+x,1/2-y,-z
1/2-x,1/2+y,-z
1/2-x,1/2-y,-z
1/2+x,1/2+y,-z
1/2-x,1/2+y,z
1/2+x,1/2-y,z
loop_
_atom_site_type_symbol
_atom_site_label
_atom_site_fract_x
_atom_site_fract_y
_atom_site_fract_z
Si Si1 0.177378 0.813133 0.000000
Si Si2 0.586644 0.047780 0.396312
Si Si3 0.163702 0.708895 0.000000
Si Si4 0.415767 0.858082 0.343773
Si Si5 0.583539 0.709418 0.689210
O O1 0.176655 0.760720 0.000000
O O2 0.264490 0.822992 0.000000
O O3 0.137610 0.831589 0.910629
O O4 0.615071 0.055851 0.500000
O O5 0.500000 0.044373 0.396276
O O6 0.610918 0.090453 0.336282
O O7 0.617987 0.000000 0.359377
O O8 0.120822 0.698502 0.906869
O O9 0.500000 0.855354 0.380686
O O10 0.409893 0.836605 0.244040
O O11 0.500000 0.722943 0.668164
O O12 0.618521 0.750000 0.750000
#
# Coordination Sequence:
#
# PCOD8283934 Si02
#       5
#    16  32  16  32  32
#     4  11  21  31  46  68  95 133 156 191 243 273
#     4   8  13  22  41  71 102 122 142 188 247 294
#     4  11  23  35  43  65  97 128 165 194 227 281
#     4  10  18  30  49  74  98 126 162 194 236 286
#     4  10  20  33  51  69  89 123 163 201 235 273
#
# _framework density 16.009775000000001
#
# number of rings (size 3 to 8) (size 9 to 14) (size 15 to 20)
#    0.000    2.250    3.750    1.500    0.000    2.000 
#    0.000    0.000    0.000    0.000    0.000    6.125 
#    0.000    6.000    0.000    0.000    0.000    0.000 
#
# Total GULP energy -396420.500197 kJ/mol
# GULP energy per Si atom -12388.140631 kJ/mol
# Density = 1.597334 g / cm^3
# Si number density = 16.009775 Si / 1000 Ang^3
#
#
#
# Elastic Constant Matrix: (Units=GPa)
#
#
# Indices 1 2 3 4 5 6 
#
# 1 68.9432 29.2516 47.2401 0.0000 0.0000 0.0000
# 2 29.2516 125.0685 43.8381 0.0000 0.0000 0.0000
# 3 47.2401 43.8381 99.2445 0.0000 0.0000 0.0000
# 4 0.0000 0.0000 0.0000 23.5367 0.0000 0.0000
# 5 0.0000 0.0000 0.0000 0.0000 13.3196 0.0000
# 6 0.0000 0.0000 0.0000 0.0000 0.0000 11.6141
#
#
#
# Elastic Compliance Matrix: (Units=1/GPa)
#
#
# Indices 1 2 3 4 5 6 
#
# 1 0.021838 -0.001732 -0.009630 0.000000 0.000000 0.000000
# 2 -0.001732 0.009598 -0.003415 0.000000 0.000000 0.000000
# 3 -0.009630 -0.003415 0.016168 0.000000 0.000000 0.000000
# 4 0.000000 0.000000 0.000000 0.042487 0.000000 0.000000
# 5 0.000000 0.000000 0.000000 0.000000 0.075077 0.000000
# 6 0.000000 0.000000 0.000000 0.000000 0.000000 0.086102
#
#
# Mechanical properties :
#
#
# Convention : Reuss Voigt Hill
#
# Bulk Modulus (GPa) = 55.40088 59.32398 57.36243
# Shear Modulus (GPa) = 17.43129 21.22252 19.32690
#
# Velocity S-wave (km/s) = 3.30326 3.64483 3.47824
# Velocity P-wave (km/s) = 7.01628 7.40596 7.21376
#
# Compressibility (1/GPa) = 0.01805026
#
# Stress axis : x y z
#
# Youngs Moduli (GPa) = 45.79198 104.19113 61.84964
#
# Poissons Ratio (x) = 0.18048 0.59559
# Poissons Ratio (y) = 0.07932 0.21121
# Poissons Ratio (z) = 0.44096 0.35581
#
# Static dielectric constant tensor:
#      x y z
#    x 2.940170 0.000000 0.000000 
#    y 0.000000 3.575030 0.000000 
#    z 0.000000 0.000000 2.854530 
# 
# 
# High freq. dielectric constant tensor:
#      x y z
#    x 1.581430 0.000000 0.000000 
#    y 0.000000 1.618290 0.000000 
#    z 0.000000 0.000000 1.596650 
# 
# From -- ./inp_files/15467.got.cif
#   From: 2010.03.12/outbox.cif.g09.slc.cpg/sg69_8_cif.got.tgz:15467.got - 2010.04.10 23:52:46.
