data_PCOD8283535
_publ_section_title
;
Structure prediction by ZEFSAII (Michael W. Deem and Ramdas Pophale) SiO2 
 PCOD8283535
Probable space group: C C C A
;
_chemical_formula_sum "Si O2"
_cell_formula_units_Z 48
_cell_length_a 7.789004
_cell_length_b 17.398143
_cell_length_c 13.660258
_cell_angle_alpha 90.000000
_cell_angle_beta 90.000000
_cell_angle_gamma 90.000000
_cell_volume 1851.159009
_symmetry_space_group_name_H-M "C C C A"
_symmetry_group_IT_number 68
_space_group.IT_coordinate_system_code '2'
_symmetry_cell_setting 'orthorhombic'
loop_
_space_group_symop_operation_xyz
x,y,z
-x,1/2-y,z
x,1/2-y,1/2-z
-x,y,1/2-z
-x,-y,-z
x,1/2+y,-z
-x,1/2+y,1/2+z
x,-y,1/2+z
1/2+x,1/2+y,z
1/2-x,-y,z
1/2+x,-y,1/2-z
1/2-x,1/2+y,1/2-z
1/2-x,1/2-y,-z
1/2+x,y,-z
1/2-x,y,1/2+z
1/2+x,1/2-y,1/2+z
loop_
_atom_site_type_symbol
_atom_site_label
_atom_site_fract_x
_atom_site_fract_y
_atom_site_fract_z
Si Si1 0.909490 0.827023 0.946663
Si Si2 0.454402 0.637255 0.861316
Si Si3 0.055995 0.029014 0.353075
O O1 0.726811 0.828662 0.895259
O O2 0.000000 0.750000 0.907722
O O3 0.025186 0.903324 0.929967
O O4 0.899305 0.827010 0.066364
O O5 0.500000 0.661342 0.750000
O O6 0.436857 0.545154 0.871328
O O7 0.000000 0.066124 0.250000
O O8 0.250000 0.000000 0.355130
#
# Coordination Sequence:
#
# PCOD8283535 Si02
#       3
#    16  16  16
#     4  12  26  47  75 112 150 193 245 312 381 441
#     4  11  25  48  78 110 149 199 253 306 365 447
#     4  11  23  45  75 108 145 198 254 306 368 446
#
# _framework density 25.9297
#
# number of rings (size 3 to 8) (size 9 to 14) (size 15 to 20)
#    0.000    0.667    0.000    9.000    0.000    1.333 
#    0.000    8.333    0.000    4.000    0.000    0.000 
#    0.000    0.000    0.000    0.000    0.000    0.000 
#
# Total GULP energy -297559.355687 kJ/mol
# GULP energy per Si atom -12398.306487 kJ/mol
# Density = 2.587068 g / cm^3
# Si number density = 25.929700 Si / 1000 Ang^3
#
#
#
# Elastic Constant Matrix: (Units=GPa)
#
#
# Indices 1 2 3 4 5 6 
#
# 1 147.8139 52.7901 105.3814 0.0000 0.0000 0.0000
# 2 52.7901 136.8735 56.2452 0.0000 0.0000 0.0000
# 3 105.3814 56.2452 190.0201 0.0000 0.0000 0.0000
# 4 0.0000 0.0000 0.0000 65.7334 0.0000 0.0000
# 5 0.0000 0.0000 0.0000 0.0000 47.3926 0.0000
# 6 0.0000 0.0000 0.0000 0.0000 0.0000 16.5431
#
#
#
# Elastic Compliance Matrix: (Units=1/GPa)
#
#
# Indices 1 2 3 4 5 6 
#
# 1 0.011697 -0.002101 -0.005865 0.000000 0.000000 0.000000
# 2 -0.002101 0.008695 -0.001408 0.000000 0.000000 0.000000
# 3 -0.005865 -0.001408 0.008932 0.000000 0.000000 0.000000
# 4 0.000000 0.000000 0.000000 0.015213 0.000000 0.000000
# 5 0.000000 0.000000 0.000000 0.000000 0.021100 0.000000
# 6 0.000000 0.000000 0.000000 0.000000 0.000000 0.060448
#
#
# Mechanical properties :
#
#
# Convention : Reuss Voigt Hill
#
# Bulk Modulus (GPa) = 94.56283 100.39343 97.47813
# Shear Modulus (GPa) = 33.70174 43.28653 38.49414
#
# Velocity S-wave (km/s) = 3.60910 4.09024 3.85718
# Velocity P-wave (km/s) = 7.34272 7.81718 7.58366
#
# Compressibility (1/GPa) = 0.01057498
#
# Stress axis : x y z
#
# Youngs Moduli (GPa) = 85.49163 115.00587 111.95585
#
# Poissons Ratio (x) = 0.24166 0.65662
# Poissons Ratio (y) = 0.17964 0.15768
# Poissons Ratio (z) = 0.50141 0.16198
#
# Static dielectric constant tensor:
#      x y z
#    x 4.424250 0.000000 0.000000 
#    y 0.000000 5.060610 0.000000 
#    z 0.000000 0.000000 5.087460 
# 
# 
# High freq. dielectric constant tensor:
#      x y z
#    x 2.032980 0.000000 0.000000 
#    y 0.000000 2.054960 0.000000 
#    z 0.000000 0.000000 2.047810 
# 
# From -- ./inp_files/18736.got.cif
#   From: 2010.03.12/outbox.cif.g09.slc.cpg/sg68_10_cif.got.tgz:18736.got - 2010.04.10 23:14:56.
