data_PCOD8283238
_publ_section_title
;
Structure prediction by ZEFSAII (Michael W. Deem and Ramdas Pophale) SiO2 
 PCOD8283238
Probable space group: C C C A
;
_chemical_formula_sum "Si O2"
_cell_formula_units_Z 72
_cell_length_a 9.738532
_cell_length_b 18.402271
_cell_length_c 20.609935
_cell_angle_alpha 90.000000
_cell_angle_beta 90.000000
_cell_angle_gamma 90.000000
_cell_volume 3693.529225
_symmetry_space_group_name_H-M "C C C A"
_symmetry_group_IT_number 68
_space_group.IT_coordinate_system_code '2'
_symmetry_cell_setting 'orthorhombic'
loop_
_space_group_symop_operation_xyz
x,y,z
-x,1/2-y,z
x,1/2-y,1/2-z
-x,y,1/2-z
-x,-y,-z
x,1/2+y,-z
-x,1/2+y,1/2+z
x,-y,1/2+z
1/2+x,1/2+y,z
1/2-x,-y,z
1/2+x,-y,1/2-z
1/2-x,1/2+y,1/2-z
1/2-x,1/2-y,-z
1/2+x,y,-z
1/2-x,y,1/2+z
1/2+x,1/2-y,1/2+z
loop_
_atom_site_type_symbol
_atom_site_label
_atom_site_fract_x
_atom_site_fract_y
_atom_site_fract_z
Si Si1 0.293423 0.250000 0.750000
Si Si2 0.863344 0.128643 0.052312
Si Si3 0.250000 0.500000 0.626974
Si Si4 0.549589 0.170956 0.055009
Si Si5 0.000000 0.250000 0.142287
Si Si6 0.899957 0.372798 0.806349
O O1 0.381975 0.281314 0.810092
O O2 0.205593 0.184956 0.778659
O O3 0.709912 0.159045 0.038214
O O4 0.943709 0.183580 0.099675
O O5 0.852294 0.048305 0.082963
O O6 0.951472 0.117685 0.986669
O O7 0.168192 0.447428 0.673610
O O8 0.500000 0.250000 0.033114
O O9 0.521121 0.160132 0.131335
O O10 0.000000 0.395088 0.750000
#
# Coordination Sequence:
#
# PCOD8283238 Si02
#       6
#     8  16   8  16   8  16
#     4  11  21  40  64  98 125 167 216 270 329 394
#     4  11  24  40  66  94 132 167 219 267 334 390
#     4  10  24  46  56  96 136 176 212 278 332 400
#     4  11  22  40  65  97 127 165 216 276 323 396
#     4  11  22  38  66  96 123 170 212 276 323 398
#     4  11  24  40  66  92 132 169 215 273 331 394
#
# _framework density 19.493551
#
# number of rings (size 3 to 8) (size 9 to 14) (size 15 to 20)
#    0.000    1.111    5.556    2.333    0.000    5.333 
#    0.000    1.111    0.000    0.000    0.000    0.000 
#    0.000    0.000    0.000    0.000    0.000    0.000 
#
# Total GULP energy -446262.327364 kJ/mol
# GULP energy per Si atom -12396.175760 kJ/mol
# Density = 1.944918 g / cm^3
# Si number density = 19.493551 Si / 1000 Ang^3
#
#
#
# Elastic Constant Matrix: (Units=GPa)
#
#
# Indices 1 2 3 4 5 6 
#
# 1 115.5983 69.8769 81.3097 0.0000 0.0000 0.0000
# 2 69.8769 143.0049 61.0986 0.0000 0.0000 0.0000
# 3 81.3097 61.0986 154.2254 0.0000 0.0000 0.0000
# 4 0.0000 0.0000 0.0000 32.3019 0.0000 0.0000
# 5 0.0000 0.0000 0.0000 0.0000 43.1718 0.0000
# 6 0.0000 0.0000 0.0000 0.0000 0.0000 41.3543
#
#
#
# Elastic Compliance Matrix: (Units=1/GPa)
#
#
# Indices 1 2 3 4 5 6 
#
# 1 0.016450 -0.005215 -0.006607 0.000000 0.000000 0.000000
# 2 -0.005215 0.010071 -0.001240 0.000000 0.000000 0.000000
# 3 -0.006607 -0.001240 0.010458 0.000000 0.000000 0.000000
# 4 0.000000 0.000000 0.000000 0.030958 0.000000 0.000000
# 5 0.000000 0.000000 0.000000 0.000000 0.023163 0.000000
# 6 0.000000 0.000000 0.000000 0.000000 0.000000 0.024181
#
#
# Mechanical properties :
#
#
# Convention : Reuss Voigt Hill
#
# Bulk Modulus (GPa) = 92.12091 93.04434 92.58263
# Shear Modulus (GPa) = 34.47678 36.73516 35.60597
#
# Velocity S-wave (km/s) = 4.21006 4.34577 4.27845
# Velocity P-wave (km/s) = 8.42571 8.54490 8.48552
#
# Compressibility (1/GPa) = 0.01085530
#
# Stress axis : x y z
#
# Youngs Moduli (GPa) = 60.78921 99.29434 95.61689
#
# Poissons Ratio (x) = 0.51787 0.63170
# Poissons Ratio (y) = 0.31705 0.11858
# Poissons Ratio (z) = 0.40161 0.12314
#
# Static dielectric constant tensor:
#      x y z
#    x 3.824940 0.000000 0.000000 
#    y 0.000000 3.464110 0.000000 
#    z 0.000000 0.000000 4.116470 
# 
# 
# High freq. dielectric constant tensor:
#      x y z
#    x 1.763030 0.000000 0.000000 
#    y 0.000000 1.750850 0.000000 
#    z 0.000000 0.000000 1.780380 
# 
# From -- ./inp_files/36083.got.cif
#   From: 2010.03.12/outbox.cif.g09.slc.cpg/sg68_19_cif.got.tgz:36083.got - 2010.04.10 23:14:56.
