data_PCOD8283940
_publ_section_title
;
Structure prediction by ZEFSAII (Michael W. Deem and Ramdas Pophale) SiO2 
 PCOD8283940
Probable space group: F M M M
;
_chemical_formula_sum "Si O2"
_cell_formula_units_Z 144
_cell_length_a 27.796307
_cell_length_b 30.935079
_cell_length_c 8.885739
_cell_angle_alpha 90.000000
_cell_angle_beta 90.000000
_cell_angle_gamma 90.000000
_cell_volume 7640.677719
_symmetry_space_group_name_H-M "F M M M"
_symmetry_group_IT_number 69
_symmetry_cell_setting 'orthorhombic'
loop_
_space_group_symop_operation_xyz
x,y,z
-x,-y,z
x,-y,-z
-x,y,-z
-x,-y,-z
x,y,-z
-x,y,z
x,-y,z
x,1/2+y,1/2+z
-x,1/2-y,1/2+z
x,1/2-y,1/2-z
-x,1/2+y,1/2-z
-x,1/2-y,1/2-z
x,1/2+y,1/2-z
-x,1/2+y,1/2+z
x,1/2-y,1/2+z
1/2+x,y,1/2+z
1/2-x,-y,1/2+z
1/2+x,-y,1/2-z
1/2-x,y,1/2-z
1/2-x,-y,1/2-z
1/2+x,y,1/2-z
1/2-x,y,1/2+z
1/2+x,-y,1/2+z
1/2+x,1/2+y,z
1/2-x,1/2-y,z
1/2+x,1/2-y,-z
1/2-x,1/2+y,-z
1/2-x,1/2-y,-z
1/2+x,1/2+y,-z
1/2-x,1/2+y,z
1/2+x,1/2-y,z
loop_
_atom_site_type_symbol
_atom_site_label
_atom_site_fract_x
_atom_site_fract_y
_atom_site_fract_z
Si Si1 0.300036 0.415243 0.672926
Si Si2 0.895945 0.372391 0.170609
Si Si3 0.697128 0.500000 0.821009
Si Si4 0.445278 0.706039 0.176377
Si Si5 0.556908 0.548675 0.828930
O O1 0.289397 0.427772 0.500000
O O2 0.250000 0.401116 0.750000
O O3 0.338027 0.376178 0.684408
O O4 0.325997 0.455808 0.757905
O O5 0.912338 0.333759 0.276561
O O6 0.920114 0.417545 0.215009
O O7 0.911088 0.361914 0.000000
O O8 0.750000 0.500000 0.750000
O O9 0.696298 0.500000 0.000000
O O10 0.500000 0.696893 0.228854
O O11 0.425611 0.750000 0.250000
O O12 0.441964 0.711872 0.000000
O O13 0.500000 0.550088 0.808308
O O14 0.575992 0.500000 0.794097
O O15 0.570789 0.561174 0.000000
#
# Coordination Sequence:
#
# PCOD8283940 Si02
#       5
#    32  32  16  32  32
#     4  10  21  36  52  74 106 142 183 230 275 321
#     4  11  23  35  53  81 111 142 180 226 273 325
#     4  10  18  30  50  72  97 134 179 226 274 319
#     4  10  21  38  61  87 114 143 177 219 268 324
#     4   9  19  35  52  73 105 144 185 224 263 317
#
# _framework density 18.846495000000001
#
# number of rings (size 3 to 8) (size 9 to 14) (size 15 to 20)
#    0.000    2.000    0.000    5.667    1.556    8.444 
#    0.000    1.111    0.000    0.667    0.000    4.667 
#    0.000    0.000    0.000    0.000    0.000    0.000 
#
# Total GULP energy -446391.356635 kJ/mol
# GULP energy per Si atom -12399.759907 kJ/mol
# Density = 1.880360 g / cm^3
# Si number density = 18.846495 Si / 1000 Ang^3
#
#
#
# Elastic Constant Matrix: (Units=GPa)
#
#
# Indices 1 2 3 4 5 6 
#
# 1 51.8921 43.4185 34.1446 0.0141 -0.0315 -0.0174
# 2 43.4185 104.2021 41.1287 0.0113 -0.0133 -0.0106
# 3 34.1446 41.1287 111.0338 0.0391 -0.0573 -0.0237
# 4 0.0141 0.0113 0.0391 37.4236 -0.0182 -0.0078
# 5 -0.0315 -0.0133 -0.0573 -0.0182 26.8171 0.0166
# 6 -0.0174 -0.0106 -0.0237 -0.0078 0.0166 22.3829
#
#
#
# Elastic Compliance Matrix: (Units=1/GPa)
#
#
# Indices 1 2 3 4 5 6 
#
# 1 0.032521 -0.011248 -0.005834 -0.000003 0.000020 0.000014
# 2 -0.011248 0.015130 -0.002146 0.000002 -0.000010 -0.000004
# 3 -0.005834 -0.002146 0.011595 -0.000009 0.000017 0.000007
# 4 -0.000003 0.000002 -0.000009 0.026721 0.000018 0.000009
# 5 0.000020 -0.000010 0.000017 0.000018 0.037290 -0.000028
# 6 0.000014 -0.000004 0.000007 0.000009 -0.000028 0.044677
#
#
# Mechanical properties :
#
#
# Convention : Reuss Voigt Hill
#
# Bulk Modulus (GPa) = 48.09805 56.05683 52.07744
# Shear Modulus (GPa) = 23.43895 27.22046 25.32971
#
# Velocity S-wave (km/s) = 3.53041 3.80455 3.67004
# Velocity P-wave (km/s) = 6.49575 7.00771 6.75658
#
# Compressibility (1/GPa) = 0.02079086
#
# Stress axis : x y z
#
# Youngs Moduli (GPa) = 30.74945 66.09229 86.24275
#
# Poissons Ratio (x) = 0.74340 0.50316
# Poissons Ratio (y) = 0.34587 0.18505
# Poissons Ratio (z) = 0.17940 0.14181
#
# Static dielectric constant tensor:
#      x y z
#    x 3.422740 0.000020 0.000040 
#    y 0.000020 3.502610 -0.000040 
#    z 0.000040 -0.000040 3.531640 
# 
# 
# High freq. dielectric constant tensor:
#      x y z
#    x 1.727200 0.000000 0.000000 
#    y 0.000000 1.713960 0.000000 
#    z 0.000000 0.000000 1.745340 
# 
# From -- ./inp_files/5603.got.cif
#   From: 2010.03.12/outbox.cif.g09.slc.cpg/sg69_3_cif.got.tgz:5603.got - 2010.04.10 23:52:46.
