data_PCOD8283042
_publ_section_title
;
Structure prediction by ZEFSAII (Michael W. Deem and Ramdas Pophale) SiO2 
 PCOD8283042
Probable space group: C C C A
;
_chemical_formula_sum "Si O2"
_cell_formula_units_Z 104
_cell_length_a 27.247953
_cell_length_b 9.270465
_cell_length_c 20.191467
_cell_angle_alpha 90.000000
_cell_angle_beta 90.000000
_cell_angle_gamma 90.000000
_cell_volume 5100.388685
_symmetry_space_group_name_H-M "C C C A"
_symmetry_group_IT_number 68
_space_group.IT_coordinate_system_code '2'
_symmetry_cell_setting 'orthorhombic'
loop_
_space_group_symop_operation_xyz
x,y,z
-x,1/2-y,z
x,1/2-y,1/2-z
-x,y,1/2-z
-x,-y,-z
x,1/2+y,-z
-x,1/2+y,1/2+z
x,-y,1/2+z
1/2+x,1/2+y,z
1/2-x,-y,z
1/2+x,-y,1/2-z
1/2-x,1/2+y,1/2-z
1/2-x,1/2-y,-z
1/2+x,y,-z
1/2-x,y,1/2+z
1/2+x,1/2-y,1/2+z
loop_
_atom_site_type_symbol
_atom_site_label
_atom_site_fract_x
_atom_site_fract_y
_atom_site_fract_z
Si Si1 0.579788 0.750000 0.750000
Si Si2 0.113975 0.554355 0.133763
Si Si3 0.370873 0.267480 0.823137
Si Si4 0.535495 0.524642 0.191728
Si Si5 0.281045 0.873013 0.087876
Si Si6 0.515605 0.915925 0.565389
Si Si7 0.711944 0.385653 0.439748
O O1 0.610493 0.649420 0.799679
O O2 0.547178 0.641616 0.707332
O O3 0.110489 0.385279 0.150205
O O4 0.073766 0.587574 0.077735
O O5 0.164575 0.602860 0.104135
O O6 0.348637 0.250000 0.750000
O O7 0.416629 0.377459 0.819589
O O8 0.326547 0.325141 0.867831
O O9 0.500000 0.588276 0.250000
O O10 0.506351 0.514063 0.123777
O O11 0.237419 0.764562 0.072536
O O12 0.250000 0.000000 0.123031
O O13 0.302885 0.917107 0.016132
O O14 0.500000 0.750000 0.561773
O O15 0.500000 0.000000 0.500000
O O16 0.750000 0.500000 0.411898
#
# Coordination Sequence:
#
# PCOD8283042 Si02
#       7
#     8  16  16  16  16  16  16
#     4  12  23  48  72  96 130 190 236 278 343 422
#     4  12  26  45  72 100 141 183 235 288 349 418
#     4  12  26  45  68 108 139 179 234 288 348 412
#     4  12  24  48  73  95 140 188 233 279 348 425
#     4  10  24  44  71 102 136 182 233 278 347 421
#     4  12  28  45  67 107 141 181 235 293 353 415
#     4  10  22  47  71  97 139 185 227 281 350 415
#
# _framework density 20.390604
#
# number of rings (size 3 to 8) (size 9 to 14) (size 15 to 20)
#    0.000    0.615    6.154    0.231    6.462    1.538 
#    4.154    0.000    0.000    0.000    0.000    0.000 
#    0.000    0.000    0.000    0.000    0.000    0.000 
#
# Total GULP energy -644568.267497 kJ/mol
# GULP energy per Si atom -12395.543606 kJ/mol
# Density = 2.034419 g / cm^3
# Si number density = 20.390604 Si / 1000 Ang^3
#
#
#
# Elastic Constant Matrix: (Units=GPa)
#
#
# Indices 1 2 3 4 5 6 
#
# 1 137.3734 48.1177 65.5753 0.0000 0.0000 0.0000
# 2 48.1177 115.7093 31.8723 0.0000 0.0000 0.0000
# 3 65.5753 31.8723 122.5131 0.0000 0.0000 0.0000
# 4 0.0000 0.0000 0.0000 29.4061 0.0000 0.0000
# 5 0.0000 0.0000 0.0000 0.0000 39.1974 0.0000
# 6 0.0000 0.0000 0.0000 0.0000 0.0000 34.5625
#
#
#
# Elastic Compliance Matrix: (Units=1/GPa)
#
#
# Indices 1 2 3 4 5 6 
#
# 1 0.010719 -0.003099 -0.004931 0.000000 0.000000 0.000000
# 2 -0.003099 0.010206 -0.000996 0.000000 0.000000 0.000000
# 3 -0.004931 -0.000996 0.011061 0.000000 0.000000 0.000000
# 4 0.000000 0.000000 0.000000 0.034007 0.000000 0.000000
# 5 0.000000 0.000000 0.000000 0.000000 0.025512 0.000000
# 6 0.000000 0.000000 0.000000 0.000000 0.000000 0.028933
#
#
# Mechanical properties :
#
#
# Convention : Reuss Voigt Hill
#
# Bulk Modulus (GPa) = 71.77445 74.08071 72.92758
# Shear Modulus (GPa) = 34.93240 35.96856 35.45048
#
# Velocity S-wave (km/s) = 4.14353 4.20453 4.17414
# Velocity P-wave (km/s) = 7.62679 7.74470 7.68597
#
# Compressibility (1/GPa) = 0.01393253
#
# Stress axis : x y z
#
# Youngs Moduli (GPa) = 93.29411 97.98604 90.40874
#
# Poissons Ratio (x) = 0.30367 0.44580
# Poissons Ratio (y) = 0.28913 0.09006
# Poissons Ratio (z) = 0.46003 0.09761
#
# Static dielectric constant tensor:
#      x y z
#    x 3.679660 0.000000 0.000000 
#    y 0.000000 3.896760 0.000000 
#    z 0.000000 0.000000 4.181930 
# 
# 
# High freq. dielectric constant tensor:
#      x y z
#    x 1.800850 0.000000 0.000000 
#    y 0.000000 1.817840 0.000000 
#    z 0.000000 0.000000 1.801320 
# 
# From -- ./inp_files/41332.got.cif
#   From: 2010.03.12/outbox.cif.g09.slc.cpg/sg68_21_cif.got.tgz:41332.got - 2010.04.10 23:14:56.
