data_PCOD8283572
_publ_section_title
;
Structure prediction by ZEFSAII (Michael W. Deem and Ramdas Pophale) SiO2 
 PCOD8283572
Probable space group: C C C A
;
_chemical_formula_sum "Si O2"
_cell_formula_units_Z 88
_cell_length_a 23.152972
_cell_length_b 13.312245
_cell_length_c 12.869129
_cell_angle_alpha 90.000000
_cell_angle_beta 90.000000
_cell_angle_gamma 90.000000
_cell_volume 3966.497662
_symmetry_space_group_name_H-M "C C C A"
_symmetry_group_IT_number 68
_space_group.IT_coordinate_system_code '2'
_symmetry_cell_setting 'orthorhombic'
loop_
_space_group_symop_operation_xyz
x,y,z
-x,1/2-y,z
x,1/2-y,1/2-z
-x,y,1/2-z
-x,-y,-z
x,1/2+y,-z
-x,1/2+y,1/2+z
x,-y,1/2+z
1/2+x,1/2+y,z
1/2-x,-y,z
1/2+x,-y,1/2-z
1/2-x,1/2+y,1/2-z
1/2-x,1/2-y,-z
1/2+x,y,-z
1/2-x,y,1/2+z
1/2+x,1/2-y,1/2+z
loop_
_atom_site_type_symbol
_atom_site_label
_atom_site_fract_x
_atom_site_fract_y
_atom_site_fract_z
Si Si1 0.218813 0.250000 0.750000
Si Si2 0.925646 0.978764 0.615391
Si Si3 0.285294 0.099490 0.615812
Si Si4 0.803126 0.067073 0.617788
Si Si5 0.090946 0.643821 0.806847
Si Si6 0.510832 0.357565 0.492217
O O1 0.257706 0.200568 0.660889
O O2 0.182125 0.339736 0.695367
O O3 0.940564 0.930866 0.726482
O O4 0.949629 0.908164 0.522293
O O5 0.857116 0.992551 0.603871
O O6 0.958034 0.084264 0.601220
O O7 0.285709 0.113411 0.492422
O O8 0.349804 0.090560 0.660060
O O9 0.250000 0.000000 0.648062
O O10 0.750000 0.000000 0.662086
O O11 0.101590 0.750000 0.750000
O O12 0.050446 0.655360 0.905968
O O13 0.500000 0.250000 0.442628
#
# Coordination Sequence:
#
# PCOD8283572 Si02
#       6
#     8  16  16  16  16  16
#     4  12  22  42  68 100 138 174 224 278 342 412
#     4  11  24  43  68 105 135 176 226 292 336 397
#     4  11  24  43  67 101 139 180 223 280 338 410
#     4  11  25  45  66  99 139 179 226 280 345 408
#     4  12  22  42  75 100 129 185 241 277 337 414
#     4  11  24  45  70 101 138 179 238 284 340 400
#
# _framework density 22.185818000000001
#
# number of rings (size 3 to 8) (size 9 to 14) (size 15 to 20)
#    0.000    0.727    4.545    3.818    0.000    0.000 
#    6.545    3.636    0.000    1.091    0.000    0.000 
#    0.000    0.000    0.000    0.000    0.000    0.000 
#
# Total GULP energy -545607.076491 kJ/mol
# GULP energy per Si atom -12400.160829 kJ/mol
# Density = 2.213532 g / cm^3
# Si number density = 22.185818 Si / 1000 Ang^3
#
#
#
# Elastic Constant Matrix: (Units=GPa)
#
#
# Indices 1 2 3 4 5 6 
#
# 1 126.3389 52.5636 11.7304 0.0000 0.0000 0.0000
# 2 52.5636 156.1821 45.9938 0.0000 0.0000 0.0000
# 3 11.7304 45.9938 91.4975 0.0000 0.0000 0.0000
# 4 0.0000 0.0000 0.0000 41.6975 0.0000 0.0000
# 5 0.0000 0.0000 0.0000 0.0000 3.1523 0.0000
# 6 0.0000 0.0000 0.0000 0.0000 0.0000 26.1360
#
#
#
# Elastic Compliance Matrix: (Units=1/GPa)
#
#
# Indices 1 2 3 4 5 6 
#
# 1 0.009219 -0.003233 0.000443 0.000000 0.000000 0.000000
# 2 -0.003233 0.008649 -0.003933 0.000000 0.000000 0.000000
# 3 0.000443 -0.003933 0.012850 0.000000 0.000000 0.000000
# 4 0.000000 0.000000 0.000000 0.023982 0.000000 0.000000
# 5 0.000000 0.000000 0.000000 0.000000 0.317226 0.000000
# 6 0.000000 0.000000 0.000000 0.000000 0.000000 0.038261
#
#
# Mechanical properties :
#
#
# Convention : Reuss Voigt Hill
#
# Bulk Modulus (GPa) = 57.89831 66.06603 61.98217
# Shear Modulus (GPa) = 11.64437 31.77921 21.71179
#
# Velocity S-wave (km/s) = 2.29346 3.78883 3.13171
# Velocity P-wave (km/s) = 5.75907 6.99882 6.40899
#
# Compressibility (1/GPa) = 0.01727166
#
# Stress axis : x y z
#
# Youngs Moduli (GPa) = 108.46817 115.61649 77.82349
#
# Poissons Ratio (x) = 0.37383 -0.03451
# Poissons Ratio (y) = 0.35072 0.30610
# Poissons Ratio (z) = -0.04809 0.45475
#
# Static dielectric constant tensor:
#      x y z
#    x 3.961770 0.000000 0.000000 
#    y 0.000000 4.166100 0.000000 
#    z 0.000000 0.000000 4.011010 
# 
# 
# High freq. dielectric constant tensor:
#      x y z
#    x 1.868140 0.000000 0.000000 
#    y 0.000000 1.880330 0.000000 
#    z 0.000000 0.000000 1.875170 
# 
# From -- ./inp_files/20976.got.cif
#   From: 2010.03.12/outbox.cif.g09.slc.cpg/sg68_11_cif.got.tgz:20976.got - 2010.04.10 23:14:56.
