data_PCOD8283586
_publ_section_title
;
Structure prediction by ZEFSAII (Michael W. Deem and Ramdas Pophale) SiO2 
 PCOD8283586
Probable space group: C C C A
;
_chemical_formula_sum "Si O2"
_cell_formula_units_Z 96
_cell_length_a 25.141892
_cell_length_b 9.364405
_cell_length_c 19.354234
_cell_angle_alpha 90.000000
_cell_angle_beta 90.000000
_cell_angle_gamma 90.000000
_cell_volume 4556.738773
_symmetry_space_group_name_H-M "C C C A"
_symmetry_group_IT_number 68
_space_group.IT_coordinate_system_code '2'
_symmetry_cell_setting 'orthorhombic'
loop_
_space_group_symop_operation_xyz
x,y,z
-x,1/2-y,z
x,1/2-y,1/2-z
-x,y,1/2-z
-x,-y,-z
x,1/2+y,-z
-x,1/2+y,1/2+z
x,-y,1/2+z
1/2+x,1/2+y,z
1/2-x,-y,z
1/2+x,-y,1/2-z
1/2-x,1/2+y,1/2-z
1/2-x,1/2-y,-z
1/2+x,y,-z
1/2-x,y,1/2+z
1/2+x,1/2-y,1/2+z
loop_
_atom_site_type_symbol
_atom_site_label
_atom_site_fract_x
_atom_site_fract_y
_atom_site_fract_z
Si Si1 0.301470 0.293730 0.043116
Si Si2 0.932311 0.100312 0.366396
Si Si3 0.214033 0.363593 0.697701
Si Si4 0.129310 0.966609 0.011364
Si Si5 0.404934 0.410344 0.236161
Si Si6 0.946562 0.920765 0.612577
O O1 0.289894 0.286265 0.124186
O O2 0.351057 0.191153 0.028703
O O3 0.250000 0.250000 0.000000
O O4 0.320684 0.451903 0.022742
O O5 0.925781 0.270414 0.355967
O O6 0.990411 0.072873 0.397926
O O7 0.887840 0.045658 0.418953
O O8 0.925177 0.019674 0.294153
O O9 0.240695 0.250000 0.750000
O O10 0.250000 0.500000 0.689327
O O11 0.158489 0.414164 0.730200
O O12 0.079252 0.953231 0.961096
O O13 0.425307 0.250000 0.250000
O O14 0.430052 0.453940 0.163777
#
# Coordination Sequence:
#
# PCOD8283586 Si02
#       6
#    16  16  16  16  16  16
#     4  12  26  45  72 100 137 180 230 281 345 412
#     4  11  25  42  69  99 135 185 229 282 344 406
#     4  11  25  45  68 101 137 178 230 281 339 409
#     4  12  23  46  67 100 139 178 224 287 343 404
#     4  11  24  44  67  99 139 178 230 284 344 407
#     4  11  24  44  66  99 138 181 234 279 340 412
#
# _framework density 21.067698
#
# number of rings (size 3 to 8) (size 9 to 14) (size 15 to 20)
#    0.000    0.667    3.333    5.000    0.000    6.667 
#    0.000    0.000    0.000    0.000    0.000    0.000 
#    0.000    0.000    0.000    0.000    0.000    0.000 
#
# Total GULP energy -595531.732941 kJ/mol
# GULP energy per Si atom -12406.911103 kJ/mol
# Density = 2.101975 g / cm^3
# Si number density = 21.067698 Si / 1000 Ang^3
#
#
#
# Elastic Constant Matrix: (Units=GPa)
#
#
# Indices 1 2 3 4 5 6 
#
# 1 76.3542 18.1204 23.1998 0.0000 0.0000 0.0000
# 2 18.1204 94.6263 27.9701 0.0000 0.0000 0.0000
# 3 23.1998 27.9701 118.0275 0.0000 0.0000 0.0000
# 4 0.0000 0.0000 0.0000 40.1908 0.0000 0.0000
# 5 0.0000 0.0000 0.0000 0.0000 36.4396 0.0000
# 6 0.0000 0.0000 0.0000 0.0000 0.0000 27.8453
#
#
#
# Elastic Compliance Matrix: (Units=1/GPa)
#
#
# Indices 1 2 3 4 5 6 
#
# 1 0.014289 -0.002050 -0.002323 0.000000 0.000000 0.000000
# 2 -0.002050 0.011658 -0.002360 0.000000 0.000000 0.000000
# 3 -0.002323 -0.002360 0.009488 0.000000 0.000000 0.000000
# 4 0.000000 0.000000 0.000000 0.024881 0.000000 0.000000
# 5 0.000000 0.000000 0.000000 0.000000 0.027443 0.000000
# 6 0.000000 0.000000 0.000000 0.000000 0.000000 0.035913
#
#
# Mechanical properties :
#
#
# Convention : Reuss Voigt Hill
#
# Bulk Modulus (GPa) = 45.51537 47.50983 46.51260
# Shear Modulus (GPa) = 34.61154 35.54299 35.07727
#
# Velocity S-wave (km/s) = 4.05763 4.11187 4.08484
# Velocity P-wave (km/s) = 6.60331 6.71888 6.66135
#
# Compressibility (1/GPa) = 0.02197060
#
# Stress axis : x y z
#
# Youngs Moduli (GPa) = 69.98347 85.77875 105.39145
#
# Poissons Ratio (x) = 0.17582 0.24482
# Poissons Ratio (y) = 0.14344 0.24870
# Poissons Ratio (z) = 0.16257 0.20242
#
# Static dielectric constant tensor:
#      x y z
#    x 3.754640 0.000000 0.000000 
#    y 0.000000 5.130420 0.000000 
#    z 0.000000 0.000000 3.857240 
# 
# 
# High freq. dielectric constant tensor:
#      x y z
#    x 1.827650 0.000000 0.000000 
#    y 0.000000 1.840230 0.000000 
#    z 0.000000 0.000000 1.836220 
# 
# From -- ./inp_files/41239.got.cif
#   From: 2010.03.12/outbox.cif.g09.slc.cpg/sg68_21_cif.got.tgz:41239.got - 2010.04.10 23:14:56.
