data_PCOD8283258
_publ_section_title
;
Structure prediction by ZEFSAII (Michael W. Deem and Ramdas Pophale) SiO2 
 PCOD8283258
Probable space group: C C C A
;
_chemical_formula_sum "Si O2"
_cell_formula_units_Z 112
_cell_length_a 12.221560
_cell_length_b 26.512625
_cell_length_c 14.087904
_cell_angle_alpha 90.000000
_cell_angle_beta 90.000000
_cell_angle_gamma 90.000000
_cell_volume 4564.842070
_symmetry_space_group_name_H-M "C C C A"
_symmetry_group_IT_number 68
_space_group.IT_coordinate_system_code '2'
_symmetry_cell_setting 'orthorhombic'
loop_
_space_group_symop_operation_xyz
x,y,z
-x,1/2-y,z
x,1/2-y,1/2-z
-x,y,1/2-z
-x,-y,-z
x,1/2+y,-z
-x,1/2+y,1/2+z
x,-y,1/2+z
1/2+x,1/2+y,z
1/2-x,-y,z
1/2+x,-y,1/2-z
1/2-x,1/2+y,1/2-z
1/2-x,1/2-y,-z
1/2+x,y,-z
1/2-x,y,1/2+z
1/2+x,1/2-y,1/2+z
loop_
_atom_site_type_symbol
_atom_site_label
_atom_site_fract_x
_atom_site_fract_y
_atom_site_fract_z
Si Si1 0.381444 0.055912 0.205852
Si Si2 0.085597 0.295197 0.013862
Si Si3 0.304626 0.841067 0.658733
Si Si4 0.032789 0.030367 0.091132
Si Si5 0.206769 0.949533 0.870608
Si Si6 0.403832 0.638503 0.451257
Si Si7 0.228563 0.338498 0.619745
O O1 0.500000 0.067512 0.250000
O O2 0.354778 0.103490 0.138207
O O3 0.281912 0.050847 0.277779
O O4 0.384032 0.003506 0.150332
O O5 0.122863 0.302262 0.903784
O O6 0.000000 0.250000 0.023669
O O7 0.193384 0.292865 0.081943
O O8 0.027027 0.343090 0.064056
O O9 0.179262 0.838190 0.625294
O O10 0.304960 0.829283 0.771405
O O11 0.100555 0.078529 0.057334
O O12 0.922674 0.043255 0.151792
O O13 0.000000 0.000000 0.000000
O O14 0.221505 0.893441 0.912942
O O15 0.250000 0.000000 0.929283
O O16 0.380360 0.661628 0.556338
#
# Coordination Sequence:
#
# PCOD8283258 Si02
#       7
#    16  16  16  16  16  16  16
#     4  11  25  41  68 100 147 196 245 308 356 449
#     4  11  25  50  79 111 143 189 248 322 383 449
#     4  10  26  45  74 106 145 198 242 304 385 454
#     4  12  25  40  67  99 146 198 248 296 381 439
#     4  11  22  41  64 103 144 199 252 300 354 452
#     4  11  25  45  71 103 147 192 244 320 371 444
#     4  10  24  47  72 104 155 193 251 307 380 458
#
# _framework density 24.535350000000001
#
# number of rings (size 3 to 8) (size 9 to 14) (size 15 to 20)
#    0.000    1.143    2.857    1.714   12.000    2.857 
#    0.000    4.286    0.000    0.000    0.000    0.000 
#    0.000    0.000    0.000    0.000    0.000    0.000 
#
# Total GULP energy -693757.152680 kJ/mol
# GULP energy per Si atom -12388.520584 kJ/mol
# Density = 2.447951 g / cm^3
# Si number density = 24.535350 Si / 1000 Ang^3
#
#
#
# Elastic Constant Matrix: (Units=GPa)
#
#
# Indices 1 2 3 4 5 6 
#
# 1 105.2918 22.7322 36.8851 0.0000 0.0000 0.0000
# 2 22.7322 82.1570 22.7633 0.0000 0.0000 0.0000
# 3 36.8851 22.7633 100.5522 0.0000 0.0000 0.0000
# 4 0.0000 0.0000 0.0000 28.7747 0.0000 0.0000
# 5 0.0000 0.0000 0.0000 0.0000 21.2845 0.0000
# 6 0.0000 0.0000 0.0000 0.0000 0.0000 48.7997
#
#
#
# Elastic Compliance Matrix: (Units=1/GPa)
#
#
# Indices 1 2 3 4 5 6 
#
# 1 0.011226 -0.002097 -0.003643 0.000000 0.000000 0.000000
# 2 -0.002097 0.013378 -0.002259 0.000000 0.000000 0.000000
# 3 -0.003643 -0.002259 0.011793 0.000000 0.000000 0.000000
# 4 0.000000 0.000000 0.000000 0.034753 0.000000 0.000000
# 5 0.000000 0.000000 0.000000 0.000000 0.046983 0.000000
# 6 0.000000 0.000000 0.000000 0.000000 0.000000 0.020492
#
#
# Mechanical properties :
#
#
# Convention : Reuss Voigt Hill
#
# Bulk Modulus (GPa) = 49.02380 50.30689 49.66535
# Shear Modulus (GPa) = 30.97442 33.47981 32.22712
#
# Velocity S-wave (km/s) = 3.55694 3.69799 3.62815
# Velocity P-wave (km/s) = 6.07399 6.22751 6.15123
#
# Compressibility (1/GPa) = 0.02039825
#
# Stress axis : x y z
#
# Youngs Moduli (GPa) = 89.07533 74.74965 84.79544
#
# Poissons Ratio (x) = 0.15673 0.30895
# Poissons Ratio (y) = 0.18677 0.19159
# Poissons Ratio (z) = 0.32454 0.16889
#
# Static dielectric constant tensor:
#      x y z
#    x 4.763010 0.000000 0.000000 
#    y 0.000000 4.975480 0.000000 
#    z 0.000000 0.000000 4.071020 
# 
# 
# High freq. dielectric constant tensor:
#      x y z
#    x 1.997210 0.000000 0.000000 
#    y 0.000000 1.974800 0.000000 
#    z 0.000000 0.000000 1.953480 
# 
# From -- ./inp_files/21243.got.cif
#   From: 2010.03.12/outbox.cif.g09.slc.cpg/sg68_11_cif.got.tgz:21243.got - 2010.04.10 23:14:56.
