data_PCOD8283684
_publ_section_title
;
Structure prediction by ZEFSAII (Michael W. Deem and Ramdas Pophale) SiO2 
 PCOD8283684
Probable space group: C C C A
;
_chemical_formula_sum "Si O2"
_cell_formula_units_Z 92
_cell_length_a 20.433420
_cell_length_b 22.525187
_cell_length_c 8.727264
_cell_angle_alpha 90.000000
_cell_angle_beta 90.000000
_cell_angle_gamma 90.000000
_cell_volume 4016.868186
_symmetry_space_group_name_H-M "C C C A"
_symmetry_group_IT_number 68
_space_group.IT_coordinate_system_code '2'
_symmetry_cell_setting 'orthorhombic'
loop_
_space_group_symop_operation_xyz
x,y,z
-x,1/2-y,z
x,1/2-y,1/2-z
-x,y,1/2-z
-x,-y,-z
x,1/2+y,-z
-x,1/2+y,1/2+z
x,-y,1/2+z
1/2+x,1/2+y,z
1/2-x,-y,z
1/2+x,-y,1/2-z
1/2-x,1/2+y,1/2-z
1/2-x,1/2-y,-z
1/2+x,y,-z
1/2-x,y,1/2+z
1/2+x,1/2-y,1/2+z
loop_
_atom_site_type_symbol
_atom_site_label
_atom_site_fract_x
_atom_site_fract_y
_atom_site_fract_z
Si Si1 0.250000 0.500000 0.185039
Si Si2 0.188079 0.612322 0.819175
Si Si3 0.209007 0.288968 0.886386
Si Si4 0.590998 0.843331 0.070572
Si Si5 0.000000 0.750000 0.750000
Si Si6 0.441748 0.450078 0.368589
Si Si7 0.873441 0.455249 0.933107
O O1 0.234808 0.443408 0.289384
O O2 0.189725 0.503379 0.067546
O O3 0.238012 0.665869 0.819670
O O4 0.130236 0.620392 0.697541
O O5 0.147159 0.604729 0.977539
O O6 0.180499 0.250000 0.750000
O O7 0.250000 0.250000 0.000000
O O8 0.144797 0.315603 0.960960
O O9 0.544674 0.792247 0.142415
O O10 0.548086 0.891334 0.973327
O O11 0.500000 0.461618 0.250000
O O12 0.430811 0.508496 0.476214
O O13 0.383434 0.440148 0.246704
#
# Coordination Sequence:
#
# PCOD8283684 Si02
#       7
#     8  16  16  16   4  16  16
#     4  12  22  44  72 116 152 188 242 304 398 462
#     4  12  25  45  78 113 160 191 244 313 399 460
#     4  12  26  47  76 112 154 195 251 317 396 463
#     4  12  27  52  77 112 141 211 256 320 379 448
#     4  12  32  56  82  92 160 204 282 318 374 440
#     4  12  27  47  73 107 153 203 260 301 372 452
#     4  12  25  44  73 112 155 198 236 311 379 470
#
# _framework density 22.903416
#
# number of rings (size 3 to 8) (size 9 to 14) (size 15 to 20)
#    0.000    0.000    5.217    4.174    4.870    1.391 
#    1.565    0.000    0.000    0.000    0.000    0.000 
#    0.000    0.000    0.000    0.000    0.000    0.000 
#
# Total GULP energy -570041.456460 kJ/mol
# GULP energy per Si atom -12392.205575 kJ/mol
# Density = 2.285129 g / cm^3
# Si number density = 22.903416 Si / 1000 Ang^3
#
#
#
# Elastic Constant Matrix: (Units=GPa)
#
#
# Indices 1 2 3 4 5 6 
#
# 1 79.7690 17.1978 6.4736 0.0000 0.0000 0.0000
# 2 17.1978 99.0788 35.2959 0.0000 0.0000 0.0000
# 3 6.4736 35.2959 107.8179 0.0000 0.0000 0.0000
# 4 0.0000 0.0000 0.0000 58.9101 0.0000 0.0000
# 5 0.0000 0.0000 0.0000 0.0000 31.0403 0.0000
# 6 0.0000 0.0000 0.0000 0.0000 0.0000 22.8875
#
#
#
# Elastic Compliance Matrix: (Units=1/GPa)
#
#
# Indices 1 2 3 4 5 6 
#
# 1 0.013024 -0.002244 -0.000047 0.000000 0.000000 0.000000
# 2 -0.002244 0.011812 -0.003732 0.000000 0.000000 0.000000
# 3 -0.000047 -0.003732 0.010500 0.000000 0.000000 0.000000
# 4 0.000000 0.000000 0.000000 0.016975 0.000000 0.000000
# 5 0.000000 0.000000 0.000000 0.000000 0.032216 0.000000
# 6 0.000000 0.000000 0.000000 0.000000 0.000000 0.043692
#
#
# Mechanical properties :
#
#
# Convention : Reuss Voigt Hill
#
# Bulk Modulus (GPa) = 42.93932 44.95559 43.94745
# Shear Modulus (GPa) = 33.77740 37.74748 35.76244
#
# Velocity S-wave (km/s) = 3.84445 4.06410 3.95580
# Velocity P-wave (km/s) = 6.20444 6.45705 6.33201
#
# Compressibility (1/GPa) = 0.02328868
#
# Stress axis : x y z
#
# Youngs Moduli (GPa) = 76.78261 84.65992 95.24253
#
# Poissons Ratio (x) = 0.18995 0.00452
# Poissons Ratio (y) = 0.17228 0.35546
# Poissons Ratio (z) = 0.00364 0.31596
#
# Static dielectric constant tensor:
#      x y z
#    x 4.477780 0.000000 0.000000 
#    y 0.000000 4.027010 0.000000 
#    z 0.000000 0.000000 4.813880 
# 
# 
# High freq. dielectric constant tensor:
#      x y z
#    x 1.914600 0.000000 0.000000 
#    y 0.000000 1.899290 0.000000 
#    z 0.000000 0.000000 1.930070 
# 
# From -- ./inp_files/7170.got.cif
#   From: 2010.03.12/outbox.cif.g09.slc.cpg/sg68_4_cif.got.tgz:7170.got - 2010.04.10 23:14:56.
