data_PCOD8283325
_publ_section_title
;
Structure prediction by ZEFSAII (Michael W. Deem and Ramdas Pophale) SiO2 
 PCOD8283325
Probable space group: C C C A
;
_chemical_formula_sum "Si O2"
_cell_formula_units_Z 88
_cell_length_a 18.547344
_cell_length_b 24.286845
_cell_length_c 8.287512
_cell_angle_alpha 90.000000
_cell_angle_beta 90.000000
_cell_angle_gamma 90.000000
_cell_volume 3733.163391
_symmetry_space_group_name_H-M "C C C A"
_symmetry_group_IT_number 68
_space_group.IT_coordinate_system_code '2'
_symmetry_cell_setting 'orthorhombic'
loop_
_space_group_symop_operation_xyz
x,y,z
-x,1/2-y,z
x,1/2-y,1/2-z
-x,y,1/2-z
-x,-y,-z
x,1/2+y,-z
-x,1/2+y,1/2+z
x,-y,1/2+z
1/2+x,1/2+y,z
1/2-x,-y,z
1/2+x,-y,1/2-z
1/2-x,1/2+y,1/2-z
1/2-x,1/2-y,-z
1/2+x,y,-z
1/2-x,y,1/2+z
1/2+x,1/2-y,1/2+z
loop_
_atom_site_type_symbol
_atom_site_label
_atom_site_fract_x
_atom_site_fract_y
_atom_site_fract_z
Si Si1 0.364867 0.750000 0.750000
Si Si2 0.657866 0.812770 0.297372
Si Si3 0.500000 0.100152 0.250000
Si Si4 0.295109 0.833588 0.542712
Si Si5 0.463290 0.191159 0.473815
Si Si6 0.250000 0.000000 0.975678
Si Si7 0.341568 0.436224 0.275751
O O1 0.318861 0.772467 0.599697
O O2 0.411783 0.700156 0.679674
O O3 0.671783 0.750000 0.250000
O O4 0.708310 0.833568 0.444668
O O5 0.576939 0.824187 0.358688
O O6 0.675395 0.847684 0.135552
O O7 0.509636 0.138633 0.413126
O O8 0.571694 0.061069 0.239603
O O9 0.325714 0.874056 0.677018
O O10 0.500000 0.250000 0.507949
O O11 0.209285 0.047573 0.875217
O O12 0.316135 0.024923 0.077708
#
# Coordination Sequence:
#
# PCOD8283325 Si02
#       7
#     8  16   8  16  16   8  16
#     4  12  19  40  66  94 143 190 228 274 336 417
#     4  12  25  37  62  98 145 197 245 290 328 418
#     4  12  25  44  76 108 144 190 240 293 380 442
#     4  12  23  42  68 106 140 187 247 291 352 427
#     4  12  23  42  61  94 150 203 233 277 346 420
#     4  10  26  52  82 104 136 178 244 320 382 430
#     4  11  25  49  79 108 138 186 239 311 375 443
#
# _framework density 23.572502
#
# number of rings (size 3 to 8) (size 9 to 14) (size 15 to 20)
#    0.000    0.364    6.364    2.727    2.545    1.091 
#    0.000    0.000    0.000    0.000    0.000    0.000 
#    0.000    0.000    0.000    0.000    0.000    0.000 
#
# Total GULP energy -545213.361568 kJ/mol
# GULP energy per Si atom -12391.212763 kJ/mol
# Density = 2.351885 g / cm^3
# Si number density = 23.572502 Si / 1000 Ang^3
#
#
#
# Elastic Constant Matrix: (Units=GPa)
#
#
# Indices 1 2 3 4 5 6 
#
# 1 148.6175 38.9072 52.3023 0.0000 0.0000 0.0000
# 2 38.9072 63.6653 28.5832 0.0000 0.0000 0.0000
# 3 52.3023 28.5832 130.5038 0.0000 0.0000 0.0000
# 4 0.0000 0.0000 0.0000 26.6053 0.0000 0.0000
# 5 0.0000 0.0000 0.0000 0.0000 32.1506 0.0000
# 6 0.0000 0.0000 0.0000 0.0000 0.0000 38.8084
#
#
#
# Elastic Compliance Matrix: (Units=1/GPa)
#
#
# Indices 1 2 3 4 5 6 
#
# 1 0.008731 -0.004176 -0.002585 0.000000 0.000000 0.000000
# 2 -0.004176 0.019417 -0.002579 0.000000 0.000000 0.000000
# 3 -0.002585 -0.002579 0.009263 0.000000 0.000000 0.000000
# 4 0.000000 0.000000 0.000000 0.037586 0.000000 0.000000
# 5 0.000000 0.000000 0.000000 0.000000 0.031104 0.000000
# 6 0.000000 0.000000 0.000000 0.000000 0.000000 0.025768
#
#
# Mechanical properties :
#
#
# Convention : Reuss Voigt Hill
#
# Bulk Modulus (GPa) = 53.38288 64.70798 59.04543
# Shear Modulus (GPa) = 31.88919 34.37912 33.13416
#
# Velocity S-wave (km/s) = 3.68205 3.82310 3.75324
# Velocity P-wave (km/s) = 6.38530 6.85553 6.62459
#
# Compressibility (1/GPa) = 0.01873260
#
# Stress axis : x y z
#
# Youngs Moduli (GPa) = 114.52838 51.50155 107.95114
#
# Poissons Ratio (x) = 0.21504 0.27903
# Poissons Ratio (y) = 0.47821 0.27844
# Poissons Ratio (z) = 0.29603 0.13284
#
# Static dielectric constant tensor:
#      x y z
#    x 4.480570 0.000000 0.000000 
#    y 0.000000 3.875970 0.000000 
#    z 0.000000 0.000000 4.282680 
# 
# 
# High freq. dielectric constant tensor:
#      x y z
#    x 1.938630 0.000000 0.000000 
#    y 0.000000 1.897540 0.000000 
#    z 0.000000 0.000000 1.940200 
# 
# From -- ./inp_files/6436.got.cif
#   From: 2010.03.12/outbox.cif.g09.slc.cpg/sg68_4_cif.got.tgz:6436.got - 2010.04.10 23:14:56.
