data_PCOD8283853
_publ_section_title
;
Structure prediction by ZEFSAII (Michael W. Deem and Ramdas Pophale) SiO2 
 PCOD8283853
Probable space group: F M M M
;
_chemical_formula_sum "Si O2"
_cell_formula_units_Z 192
_cell_length_a 26.762224
_cell_length_b 24.105648
_cell_length_c 17.646650
_cell_angle_alpha 90.000000
_cell_angle_beta 90.000000
_cell_angle_gamma 90.000000
_cell_volume 11384.220108
_symmetry_space_group_name_H-M "F M M M"
_symmetry_group_IT_number 69
_symmetry_cell_setting 'orthorhombic'
loop_
_space_group_symop_operation_xyz
x,y,z
-x,-y,z
x,-y,-z
-x,y,-z
-x,-y,-z
x,y,-z
-x,y,z
x,-y,z
x,1/2+y,1/2+z
-x,1/2-y,1/2+z
x,1/2-y,1/2-z
-x,1/2+y,1/2-z
-x,1/2-y,1/2-z
x,1/2+y,1/2-z
-x,1/2+y,1/2+z
x,1/2-y,1/2+z
1/2+x,y,1/2+z
1/2-x,-y,1/2+z
1/2+x,-y,1/2-z
1/2-x,y,1/2-z
1/2-x,-y,1/2-z
1/2+x,y,1/2-z
1/2-x,y,1/2+z
1/2+x,-y,1/2+z
1/2+x,1/2+y,z
1/2-x,1/2-y,z
1/2+x,1/2-y,-z
1/2-x,1/2+y,-z
1/2-x,1/2-y,-z
1/2+x,1/2+y,-z
1/2-x,1/2+y,z
1/2+x,1/2-y,z
loop_
_atom_site_type_symbol
_atom_site_label
_atom_site_fract_x
_atom_site_fract_y
_atom_site_fract_z
Si Si1 0.387851 0.753352 0.584115
Si Si2 0.717571 0.300880 0.586333
Si Si3 0.128448 0.812609 0.773562
Si Si4 0.442238 0.655912 0.353947
Si Si5 0.128920 0.437592 0.086418
Si Si6 0.794099 0.391350 0.800239
O O1 0.389603 0.777738 0.500000
O O2 0.341010 0.711795 0.596354
O O3 0.384886 0.807907 0.637211
O O4 0.435184 0.713673 0.600187
O O5 0.731429 0.315291 0.500000
O O6 0.750000 0.250000 0.615877
O O7 0.732682 0.351745 0.638915
O O8 0.143622 0.750000 0.750000
O O9 0.079476 0.834428 0.730042
O O10 0.173053 0.855263 0.758425
O O11 0.500000 0.640971 0.348127
O O12 0.415419 0.604880 0.395801
O O13 0.107706 0.500000 0.091448
O O14 0.173031 0.433505 0.149383
O O15 0.148477 0.425617 0.000000
O O16 0.750000 0.420494 0.750000
#
# Coordination Sequence:
#
# PCOD8283853 Si02
#       6
#    32  32  32  32  32  32
#     4  10  18  29  44  67 101 135 167 198 232 286
#     4  10  18  27  43  67  96 129 165 203 237 275
#     4   9  17  30  44  66  98 133 164 196 233 284
#     4  10  20  33  51  72  96 127 164 206 251 297
#     4  10  21  38  55  70  94 125 161 209 258 302
#     4  11  20  29  49  70  96 129 162 203 239 288
#
# _framework density 16.865449999999999
#
# number of rings (size 3 to 8) (size 9 to 14) (size 15 to 20)
#    0.000    2.000    5.000    2.000    0.000    5.000 
#    0.000    1.667    0.000    0.000    0.000    0.000 
#    0.000    6.000    0.000    6.000    0.000    0.000 
#
# Total GULP energy -594880.731016 kJ/mol
# GULP energy per Si atom -12393.348563 kJ/mol
# Density = 1.682706 g / cm^3
# Si number density = 16.865450 Si / 1000 Ang^3
#
#
#
# Elastic Constant Matrix: (Units=GPa)
#
#
# Indices 1 2 3 4 5 6 
#
# 1 83.0934 16.2052 30.9417 0.0000 0.0000 0.0000
# 2 16.2052 58.8486 34.1220 0.0000 0.0000 0.0000
# 3 30.9417 34.1220 121.9098 0.0000 0.0000 0.0000
# 4 0.0000 0.0000 0.0000 19.7419 0.0000 0.0000
# 5 0.0000 0.0000 0.0000 0.0000 16.9504 0.0000
# 6 0.0000 0.0000 0.0000 0.0000 0.0000 10.6461
#
#
#
# Elastic Compliance Matrix: (Units=1/GPa)
#
#
# Indices 1 2 3 4 5 6 
#
# 1 0.013498 -0.002066 -0.002848 0.000000 0.000000 0.000000
# 2 -0.002066 0.020601 -0.005242 0.000000 0.000000 0.000000
# 3 -0.002848 -0.005242 0.010393 0.000000 0.000000 0.000000
# 4 0.000000 0.000000 0.000000 0.050654 0.000000 0.000000
# 5 0.000000 0.000000 0.000000 0.000000 0.058996 0.000000
# 6 0.000000 0.000000 0.000000 0.000000 0.000000 0.093931
#
#
# Mechanical properties :
#
#
# Convention : Reuss Voigt Hill
#
# Bulk Modulus (GPa) = 41.35467 47.37664 44.36566
# Shear Modulus (GPa) = 18.08689 21.63986 19.86338
#
# Velocity S-wave (km/s) = 3.27834 3.58591 3.43557
# Velocity P-wave (km/s) = 6.23727 6.73030 6.48847
#
# Compressibility (1/GPa) = 0.02418106
#
# Stress axis : x y z
#
# Youngs Moduli (GPa) = 74.08541 48.54141 96.22130
#
# Poissons Ratio (x) = 0.10028 0.27401
# Poissons Ratio (y) = 0.15304 0.50437
# Poissons Ratio (z) = 0.21097 0.25444
#
# Static dielectric constant tensor:
#      x y z
#    x 2.979960 0.000000 0.000000 
#    y 0.000000 2.889730 0.000000 
#    z 0.000000 0.000000 3.580410 
# 
# 
# High freq. dielectric constant tensor:
#      x y z
#    x 1.632440 0.000000 0.000000 
#    y 0.000000 1.611610 0.000000 
#    z 0.000000 0.000000 1.664190 
# 
# From -- ./inp_files/33618.got.cif
#   From: 2010.03.12/outbox.cif.g09.slc.cpg/sg69_17_cif.got.tgz:33618.got - 2010.04.10 23:52:46.
