data_PCOD8283689
_publ_section_title
;
Structure prediction by ZEFSAII (Michael W. Deem and Ramdas Pophale) SiO2 
 PCOD8283689
Probable space group: C C C A
;
_chemical_formula_sum "Si O2"
_cell_formula_units_Z 104
_cell_length_a 12.647515
_cell_length_b 25.618684
_cell_length_c 17.000776
_cell_angle_alpha 90.000000
_cell_angle_beta 90.000000
_cell_angle_gamma 90.000000
_cell_volume 5508.467167
_symmetry_space_group_name_H-M "C C C A"
_symmetry_group_IT_number 68
_space_group.IT_coordinate_system_code '2'
_symmetry_cell_setting 'orthorhombic'
loop_
_space_group_symop_operation_xyz
x,y,z
-x,1/2-y,z
x,1/2-y,1/2-z
-x,y,1/2-z
-x,-y,-z
x,1/2+y,-z
-x,1/2+y,1/2+z
x,-y,1/2+z
1/2+x,1/2+y,z
1/2-x,-y,z
1/2+x,-y,1/2-z
1/2-x,1/2+y,1/2-z
1/2-x,1/2-y,-z
1/2+x,y,-z
1/2-x,y,1/2+z
1/2+x,1/2-y,1/2+z
loop_
_atom_site_type_symbol
_atom_site_label
_atom_site_fract_x
_atom_site_fract_y
_atom_site_fract_z
Si Si1 0.041395 0.469921 0.923704
Si Si2 0.340201 0.407656 0.075283
Si Si3 0.623630 0.308117 0.157066
Si Si4 0.750000 0.000000 0.670870
Si Si5 0.620713 0.191391 0.160932
Si Si6 0.401725 0.547149 0.291369
Si Si7 0.745374 0.596923 0.590976
O O1 0.040499 0.510924 0.854177
O O2 0.159408 0.447235 0.929880
O O3 0.961563 0.422538 0.906137
O O4 0.000000 0.500000 0.000000
O O5 0.264071 0.450195 0.114493
O O6 0.313796 0.351298 0.112228
O O7 0.324494 0.402539 0.982123
O O8 0.665681 0.249165 0.142725
O O9 0.501063 0.311092 0.134425
O O10 0.635568 0.323046 0.248095
O O11 0.691368 0.347087 0.103384
O O12 0.649932 0.009704 0.726240
O O13 0.500000 0.578646 0.250000
O O14 0.313546 0.584048 0.330914
#
# Coordination Sequence:
#
# PCOD8283689 Si02
#       7
#    16  16  16   8  16  16  16
#     4  12  23  40  56  83 129 165 205 249 306 365
#     4  12  24  36  60  89 125 162 202 251 306 369
#     4   9  19  38  64  89 114 149 206 256 307 360
#     4  12  24  38  58  92 118 164 212 244 296 378
#     4   9  19  38  63  89 115 151 200 262 303 354
#     4  12  25  39  59  86 125 167 211 255 300 372
#     4  12  24  39  61  88 123 169 203 251 318 369
#
# _framework density 18.880023999999999
#
# number of rings (size 3 to 8) (size 9 to 14) (size 15 to 20)
#    0.000    0.923    6.154    2.769    0.000    0.615 
#    0.000    0.000    0.000    0.000    0.000    1.077 
#    0.000    0.000    0.000    0.000    0.000    0.000 
#
# Total GULP energy -644697.876195 kJ/mol
# GULP energy per Si atom -12398.036081 kJ/mol
# Density = 1.883705 g / cm^3
# Si number density = 18.880024 Si / 1000 Ang^3
#
#
#
# Elastic Constant Matrix: (Units=GPa)
#
#
# Indices 1 2 3 4 5 6 
#
# 1 86.6605 34.0977 33.5546 0.0000 0.0000 0.0000
# 2 34.0977 110.6019 45.2962 0.0000 0.0000 0.0000
# 3 33.5546 45.2962 75.8524 0.0000 0.0000 0.0000
# 4 0.0000 0.0000 0.0000 24.9065 0.0000 0.0000
# 5 0.0000 0.0000 0.0000 0.0000 37.2522 0.0000
# 6 0.0000 0.0000 0.0000 0.0000 0.0000 29.4036
#
#
#
# Elastic Compliance Matrix: (Units=1/GPa)
#
#
# Indices 1 2 3 4 5 6 
#
# 1 0.014399 -0.002423 -0.004923 0.000000 0.000000 0.000000
# 2 -0.002423 0.012376 -0.006319 0.000000 0.000000 0.000000
# 3 -0.004923 -0.006319 0.019134 0.000000 0.000000 0.000000
# 4 0.000000 0.000000 0.000000 0.040150 0.000000 0.000000
# 5 0.000000 0.000000 0.000000 0.000000 0.026844 0.000000
# 6 0.000000 0.000000 0.000000 0.000000 0.000000 0.034009
#
#
# Mechanical properties :
#
#
# Convention : Reuss Voigt Hill
#
# Bulk Modulus (GPa) = 53.81948 55.44575 54.63261
# Shear Modulus (GPa) = 27.71080 28.99021 28.35051
#
# Velocity S-wave (km/s) = 3.83525 3.92279 3.87927
# Velocity P-wave (km/s) = 6.94119 7.06745 7.00461
#
# Compressibility (1/GPa) = 0.01858063
#
# Stress axis : x y z
#
# Youngs Moduli (GPa) = 69.45099 80.80007 52.26187
#
# Poissons Ratio (x) = 0.19578 0.25726
# Poissons Ratio (y) = 0.16828 0.33023
# Poissons Ratio (z) = 0.34188 0.51056
#
# Static dielectric constant tensor:
#      x y z
#    x 3.482810 0.000000 0.000000 
#    y 0.000000 3.513400 0.000000 
#    z 0.000000 0.000000 3.517270 
# 
# 
# High freq. dielectric constant tensor:
#      x y z
#    x 1.726420 0.000000 0.000000 
#    y 0.000000 1.723810 0.000000 
#    z 0.000000 0.000000 1.737620 
# 
# From -- ./inp_files/29994.got.cif
#   From: 2010.03.12/outbox.cif.g09.slc.cpg/sg68_15_cif.got.tgz:29994.got - 2010.04.10 23:14:56.
