data_PCOD8283356
_publ_section_title
;
Structure prediction by ZEFSAII (Michael W. Deem and Ramdas Pophale) SiO2 
 PCOD8283356
Probable space group: C C C A
;
_chemical_formula_sum "Si O2"
_cell_formula_units_Z 88
_cell_length_a 21.479291
_cell_length_b 12.319149
_cell_length_c 14.720158
_cell_angle_alpha 90.000000
_cell_angle_beta 90.000000
_cell_angle_gamma 90.000000
_cell_volume 3895.050757
_symmetry_space_group_name_H-M "C C C A"
_symmetry_group_IT_number 68
_space_group.IT_coordinate_system_code '2'
_symmetry_cell_setting 'orthorhombic'
loop_
_space_group_symop_operation_xyz
x,y,z
-x,1/2-y,z
x,1/2-y,1/2-z
-x,y,1/2-z
-x,-y,-z
x,1/2+y,-z
-x,1/2+y,1/2+z
x,-y,1/2+z
1/2+x,1/2+y,z
1/2-x,-y,z
1/2+x,-y,1/2-z
1/2-x,1/2+y,1/2-z
1/2-x,1/2-y,-z
1/2+x,y,-z
1/2-x,y,1/2+z
1/2+x,1/2-y,1/2+z
loop_
_atom_site_type_symbol
_atom_site_label
_atom_site_fract_x
_atom_site_fract_y
_atom_site_fract_z
Si Si1 0.928279 0.012657 0.414753
Si Si2 0.250000 0.500000 0.600988
Si Si3 0.926168 0.768111 0.851065
Si Si4 0.533234 0.136283 0.096249
Si Si5 0.840453 0.156196 0.999005
Si Si6 0.335435 0.318092 0.160617
O O1 0.904883 0.106324 0.349683
O O2 0.946418 0.083620 0.502334
O O3 0.875258 0.926975 0.433842
O O4 0.984461 0.949983 0.363250
O O5 0.217476 0.592348 0.540288
O O6 0.298749 0.567247 0.662612
O O7 0.903998 0.750000 0.750000
O O8 0.887312 0.696649 0.922685
O O9 0.000000 0.750000 0.867197
O O10 0.500000 0.250000 0.075201
O O11 0.591042 0.153841 0.163757
O O12 0.818743 0.254069 0.932979
O O13 0.317156 0.250000 0.250000
#
# Coordination Sequence:
#
# PCOD8283356 Si02
#       6
#    16   8  16  16  16  16
#     4  11  20  39  72  99 146 195 226 295 373 430
#     4  12  28  50  78  98 144 200 254 298 366 434
#     4  11  24  41  66 108 148 187 238 295 364 443
#     4  11  20  40  71 106 147 183 234 294 368 435
#     4  12  24  48  73 104 145 193 247 302 364 435
#     4  12  28  48  74 110 147 194 248 309 364 439
#
# _framework density 22.592775
#
# number of rings (size 3 to 8) (size 9 to 14) (size 15 to 20)
#    0.000    0.545    5.455    3.273    0.000    3.273 
#    3.273    0.000    0.000    0.000    0.000    0.000 
#    0.000    0.000    0.000    0.000    0.000    0.000 
#
# Total GULP energy -545253.955813 kJ/mol
# GULP energy per Si atom -12392.135359 kJ/mol
# Density = 2.254135 g / cm^3
# Si number density = 22.592775 Si / 1000 Ang^3
#
#
#
# Elastic Constant Matrix: (Units=GPa)
#
#
# Indices 1 2 3 4 5 6 
#
# 1 79.9127 32.7586 17.1365 0.0000 0.0000 0.0000
# 2 32.7586 122.9503 28.1375 0.0000 0.0000 0.0000
# 3 17.1365 28.1375 98.3665 0.0000 0.0000 0.0000
# 4 0.0000 0.0000 0.0000 -38.5456 0.0000 0.0000
# 5 0.0000 0.0000 0.0000 0.0000 11.9071 0.0000
# 6 0.0000 0.0000 0.0000 0.0000 0.0000 41.3395
#
#
#
# Elastic Compliance Matrix: (Units=1/GPa)
#
#
# Indices 1 2 3 4 5 6 
#
# 1 0.014250 -0.003455 -0.001494 0.000000 0.000000 0.000000
# 2 -0.003455 0.009541 -0.002127 0.000000 0.000000 0.000000
# 3 -0.001494 -0.002127 0.011035 0.000000 0.000000 0.000000
# 4 0.000000 0.000000 0.000000 -0.025943 0.000000 0.000000
# 5 0.000000 0.000000 0.000000 0.000000 0.083984 0.000000
# 6 0.000000 0.000000 0.000000 0.000000 0.000000 0.024190
#
#
# Mechanical properties :
#
#
# Convention : Reuss Voigt Hill
#
# Bulk Modulus (GPa) = 48.37192 50.81051 49.59121
# Shear Modulus (GPa) = 36.20566 17.81999 27.01283
#
# Velocity S-wave (km/s) = 4.00751 2.81151 3.46155
# Velocity P-wave (km/s) = 6.54754 5.75135 6.16232
#
# Compressibility (1/GPa) = 0.02067315
#
# Stress axis : x y z
#
# Youngs Moduli (GPa) = 70.17371 104.81423 90.62175
#
# Poissons Ratio (x) = 0.36212 0.13542
# Poissons Ratio (y) = 0.24244 0.19277
# Poissons Ratio (z) = 0.10486 0.22296
#
# Static dielectric constant tensor:
#      x y z
#    x 4.086540 0.000000 0.000000 
#    y 0.000000 5.053410 0.000000 
#    z 0.000000 0.000000 3.847170 
# 
# 
# High freq. dielectric constant tensor:
#      x y z
#    x 1.880540 0.000000 0.000000 
#    y 0.000000 1.924080 0.000000 
#    z 0.000000 0.000000 1.871250 
# 
# From -- ./inp_files/25281.got.cif
#   From: 2010.03.12/outbox.cif.g09.slc.cpg/sg68_13_cif.got.tgz:25281.got - 2010.04.10 23:14:56.
