data_PCOD8283061
_publ_section_title
;
Structure prediction by ZEFSAII (Michael W. Deem and Ramdas Pophale) SiO2 
 PCOD8283061
Probable space group: C C C A
;
_chemical_formula_sum "Si O2"
_cell_formula_units_Z 88
_cell_length_a 17.578676
_cell_length_b 26.434724
_cell_length_c 8.278295
_cell_angle_alpha 90.000000
_cell_angle_beta 90.000000
_cell_angle_gamma 90.000000
_cell_volume 3846.819780
_symmetry_space_group_name_H-M "C C C A"
_symmetry_group_IT_number 68
_space_group.IT_coordinate_system_code '2'
_symmetry_cell_setting 'orthorhombic'
loop_
_space_group_symop_operation_xyz
x,y,z
-x,1/2-y,z
x,1/2-y,1/2-z
-x,y,1/2-z
-x,-y,-z
x,1/2+y,-z
-x,1/2+y,1/2+z
x,-y,1/2+z
1/2+x,1/2+y,z
1/2-x,-y,z
1/2+x,-y,1/2-z
1/2-x,1/2+y,1/2-z
1/2-x,1/2-y,-z
1/2+x,y,-z
1/2-x,y,1/2+z
1/2+x,1/2-y,1/2+z
loop_
_atom_site_type_symbol
_atom_site_label
_atom_site_fract_x
_atom_site_fract_y
_atom_site_fract_z
Si Si1 0.641746 0.056545 0.704977
Si Si2 0.018966 0.808174 0.433705
Si Si3 0.849092 0.871626 0.091795
Si Si4 0.500000 0.629035 0.250000
Si Si5 0.552238 0.465302 0.383741
Si Si6 0.218994 0.407480 0.900430
O O1 0.577021 0.096133 0.762967
O O2 0.719640 0.057925 0.806882
O O3 0.663273 0.061825 0.516623
O O4 0.609698 0.000101 0.719629
O O5 0.109267 0.818945 0.446344
O O6 0.000000 0.750000 0.458009
O O7 0.000000 0.826808 0.250000
O O8 0.983746 0.838558 0.586122
O O9 0.899939 0.920622 0.028957
O O10 0.835675 0.876610 0.282341
O O11 0.768102 0.867716 0.004712
O O12 0.500000 0.437912 0.250000
O O13 0.500000 0.500000 0.500000
#
# Coordination Sequence:
#
# PCOD8283061 Si02
#       6
#    16  16  16   8  16  16
#     4  11  22  39  63  94 139 181 235 278 349 419
#     4  11  24  43  71 101 132 171 235 299 359 418
#     4  11  22  41  62  95 131 181 225 280 354 418
#     4  12  21  44  72 102 138 184 235 294 348 428
#     4  12  23  36  59  94 137 181 234 291 334 400
#     4  10  23  39  63  94 138 189 220 286 348 426
#
# _framework density 22.87604
#
# number of rings (size 3 to 8) (size 9 to 14) (size 15 to 20)
#    0.000    0.909    2.727    5.182    0.000    4.364 
#    0.000    0.000    0.000   19.636    0.000    0.000 
#    0.000    0.000    0.000    0.000    0.000    0.000 
#
# Total GULP energy -545087.984644 kJ/mol
# GULP energy per Si atom -12388.363287 kJ/mol
# Density = 2.282397 g / cm^3
# Si number density = 22.876040 Si / 1000 Ang^3
#
#
#
# Elastic Constant Matrix: (Units=GPa)
#
#
# Indices 1 2 3 4 5 6 
#
# 1 88.9951 44.0703 24.3201 0.0000 0.0000 0.0000
# 2 44.0703 113.7499 31.0469 0.0000 0.0000 0.0000
# 3 24.3201 31.0469 139.5953 0.0000 0.0000 0.0000
# 4 0.0000 0.0000 0.0000 27.5008 0.0000 0.0000
# 5 0.0000 0.0000 0.0000 0.0000 45.4277 0.0000
# 6 0.0000 0.0000 0.0000 0.0000 0.0000 24.9009
#
#
#
# Elastic Compliance Matrix: (Units=1/GPa)
#
#
# Indices 1 2 3 4 5 6 
#
# 1 0.014131 -0.005113 -0.001325 0.000000 0.000000 0.000000
# 2 -0.005113 0.011210 -0.001602 0.000000 0.000000 0.000000
# 3 -0.001325 -0.001602 0.007751 0.000000 0.000000 0.000000
# 4 0.000000 0.000000 0.000000 0.036363 0.000000 0.000000
# 5 0.000000 0.000000 0.000000 0.000000 0.022013 0.000000
# 6 0.000000 0.000000 0.000000 0.000000 0.000000 0.040159
#
#
# Mechanical properties :
#
#
# Convention : Reuss Voigt Hill
#
# Bulk Modulus (GPa) = 58.78617 60.13499 59.46058
# Shear Modulus (GPa) = 32.59965 35.75939 34.17952
#
# Velocity S-wave (km/s) = 3.77909 3.95800 3.86958
# Velocity P-wave (km/s) = 6.69294 6.87256 6.78335
#
# Compressibility (1/GPa) = 0.01701080
#
# Stress axis : x y z
#
# Youngs Moduli (GPa) = 70.76864 89.20991 129.02066
#
# Poissons Ratio (x) = 0.45614 0.17090
# Poissons Ratio (y) = 0.36185 0.20673
# Poissons Ratio (z) = 0.09374 0.14294
#
# Static dielectric constant tensor:
#      x y z
#    x 4.400220 0.000000 0.000000 
#    y 0.000000 3.597670 0.000000 
#    z 0.000000 0.000000 4.665700 
# 
# 
# High freq. dielectric constant tensor:
#      x y z
#    x 1.916210 0.000000 0.000000 
#    y 0.000000 1.843830 0.000000 
#    z 0.000000 0.000000 1.946940 
# 
# From -- ./inp_files/6420.got.cif
#   From: 2010.03.12/outbox.cif.g09.slc.cpg/sg68_4_cif.got.tgz:6420.got - 2010.04.10 23:14:56.
