data_PCOD8283117
_publ_section_title
;
Structure prediction by ZEFSAII (Michael W. Deem and Ramdas Pophale) SiO2 
 PCOD8283117
Probable space group: C C C A
;
_chemical_formula_sum "Si O2"
_cell_formula_units_Z 96
_cell_length_a 15.276615
_cell_length_b 20.956421
_cell_length_c 14.667109
_cell_angle_alpha 90.000000
_cell_angle_beta 90.000000
_cell_angle_gamma 90.000000
_cell_volume 4695.574849
_symmetry_space_group_name_H-M "C C C A"
_symmetry_group_IT_number 68
_space_group.IT_coordinate_system_code '2'
_symmetry_cell_setting 'orthorhombic'
loop_
_space_group_symop_operation_xyz
x,y,z
-x,1/2-y,z
x,1/2-y,1/2-z
-x,y,1/2-z
-x,-y,-z
x,1/2+y,-z
-x,1/2+y,1/2+z
x,-y,1/2+z
1/2+x,1/2+y,z
1/2-x,-y,z
1/2+x,-y,1/2-z
1/2-x,1/2+y,1/2-z
1/2-x,1/2-y,-z
1/2+x,y,-z
1/2-x,y,1/2+z
1/2+x,1/2-y,1/2+z
loop_
_atom_site_type_symbol
_atom_site_label
_atom_site_fract_x
_atom_site_fract_y
_atom_site_fract_z
Si Si1 0.855760 0.127568 0.428136
Si Si2 0.344262 0.985719 0.561698
Si Si3 0.799868 0.869354 0.561037
Si Si4 0.524745 0.181697 0.499864
Si Si5 0.749735 0.326587 0.741838
Si Si6 0.573136 0.114425 0.323056
O O1 0.781705 0.152438 0.498502
O O2 0.817286 0.140333 0.328073
O O3 0.947422 0.163828 0.430716
O O4 0.884697 0.055265 0.456937
O O5 0.334877 0.939947 0.471369
O O6 0.391593 0.954197 0.647361
O O7 0.250000 0.000000 0.602578
O O8 0.880656 0.820369 0.549136
O O9 0.767736 0.864851 0.664553
O O10 0.500000 0.250000 0.462217
O O11 0.523000 0.139307 0.410875
O O12 0.735182 0.250000 0.750000
O O13 0.849606 0.338586 0.710046
O O14 0.500000 0.102805 0.250000
#
# Coordination Sequence:
#
# PCOD8283117 Si02
#       6
#    16  16  16  16  16  16
#     4  11  23  46  68  93 138 181 216 283 329 391
#     4   9  19  47  63  88 134 170 220 272 325 396
#     4  10  23  43  64 100 126 178 221 272 333 396
#     4  11  24  41  66  93 135 176 220 270 330 399
#     4  12  25  41  69  99 134 175 222 269 342 403
#     4  11  24  40  63 103 129 167 224 279 331 391
#
# _framework density 20.444780000000002
#
# number of rings (size 3 to 8) (size 9 to 14) (size 15 to 20)
#    0.000    1.333    5.000    2.000    4.667    4.667 
#   15.000    1.667    0.000    0.000    0.000    0.000 
#    0.000    0.000    0.000    0.000    0.000    0.000 
#
# Total GULP energy -594768.285773 kJ/mol
# GULP energy per Si atom -12391.005954 kJ/mol
# Density = 2.039825 g / cm^3
# Si number density = 20.444780 Si / 1000 Ang^3
#
#
#
# Elastic Constant Matrix: (Units=GPa)
#
#
# Indices 1 2 3 4 5 6 
#
# 1 110.0879 31.8651 41.9839 0.0000 0.0000 0.0000
# 2 31.8651 90.5402 21.4365 0.0000 0.0000 0.0000
# 3 41.9839 21.4365 127.2485 0.0000 0.0000 0.0000
# 4 0.0000 0.0000 0.0000 -499.6299 0.0000 0.0000
# 5 0.0000 0.0000 0.0000 0.0000 42.0212 0.0000
# 6 0.0000 0.0000 0.0000 0.0000 0.0000 29.9030
#
#
#
# Elastic Compliance Matrix: (Units=1/GPa)
#
#
# Indices 1 2 3 4 5 6 
#
# 1 0.011215 -0.003199 -0.003161 0.000000 0.000000 0.000000
# 2 -0.003199 0.012416 -0.001036 0.000000 0.000000 0.000000
# 3 -0.003161 -0.001036 0.009076 0.000000 0.000000 0.000000
# 4 0.000000 0.000000 0.000000 -0.002001 0.000000 0.000000
# 5 0.000000 0.000000 0.000000 0.000000 0.023798 0.000000
# 6 0.000000 0.000000 0.000000 0.000000 0.000000 0.033441
#
#
# Mechanical properties :
#
#
# Convention : Reuss Voigt Hill
#
# Bulk Modulus (GPa) = 55.82006 57.60530 56.71268
# Shear Modulus (GPa) = 45.99432 -70.03508 -12.02038
#
# Velocity S-wave (km/s) = 4.74823 -5.85919 -2.42739
# Velocity P-wave (km/s) = 7.57780 4.18763 4.46580
#
# Compressibility (1/GPa) = 0.01791471
#
# Stress axis : x y z
#
# Youngs Moduli (GPa) = 89.16502 80.54185 110.17726
#
# Poissons Ratio (x) = 0.25762 0.34832
# Poissons Ratio (y) = 0.28520 0.11417
# Poissons Ratio (z) = 0.28189 0.08346
#
# Static dielectric constant tensor:
#      x y z
#    x 3.726540 0.000000 0.000000 
#    y 0.000000 19.698770 0.000000 
#    z 0.000000 0.000000 3.682060 
# 
# 
# High freq. dielectric constant tensor:
#      x y z
#    x 1.811790 0.000000 0.000000 
#    y 0.000000 1.801810 0.000000 
#    z 0.000000 0.000000 1.789710 
# 
# From -- ./inp_files/22355.got.cif
#   From: 2010.03.12/outbox.cif.g09.slc.cpg/sg68_12_cif.got.tgz:22355.got - 2010.04.10 23:14:56.
