data_PCOD8283335
_publ_section_title
;
Structure prediction by ZEFSAII (Michael W. Deem and Ramdas Pophale) SiO2 
 PCOD8283335
Probable space group: C C C A
;
_chemical_formula_sum "Si O2"
_cell_formula_units_Z 116
_cell_length_a 26.419896
_cell_length_b 11.167312
_cell_length_c 20.784095
_cell_angle_alpha 90.000000
_cell_angle_beta 90.000000
_cell_angle_gamma 90.000000
_cell_volume 6132.123211
_symmetry_space_group_name_H-M "C C C A"
_symmetry_group_IT_number 68
_space_group.IT_coordinate_system_code '2'
_symmetry_cell_setting 'orthorhombic'
loop_
_space_group_symop_operation_xyz
x,y,z
-x,1/2-y,z
x,1/2-y,1/2-z
-x,y,1/2-z
-x,-y,-z
x,1/2+y,-z
-x,1/2+y,1/2+z
x,-y,1/2+z
1/2+x,1/2+y,z
1/2-x,-y,z
1/2+x,-y,1/2-z
1/2-x,1/2+y,1/2-z
1/2-x,1/2-y,-z
1/2+x,y,-z
1/2-x,y,1/2+z
1/2+x,1/2-y,1/2+z
loop_
_atom_site_type_symbol
_atom_site_label
_atom_site_fract_x
_atom_site_fract_y
_atom_site_fract_z
Si Si1 0.117167 0.843491 0.056984
Si Si2 0.957841 0.155227 0.593393
Si Si3 0.297581 0.179545 0.686574
Si Si4 0.551298 0.931320 0.453765
Si Si5 0.000000 0.750000 0.750000
Si Si6 0.460414 0.407665 0.640481
Si Si7 0.128825 0.766620 0.921272
Si Si8 0.294909 0.432036 0.355136
O O1 0.096165 0.718475 0.084614
O O2 0.158831 0.886124 0.105643
O O3 0.068343 0.930847 0.053538
O O4 0.145400 0.827138 0.988709
O O5 0.971764 0.089556 0.525338
O O6 0.000000 0.250000 0.614502
O O7 0.954412 0.052056 0.648036
O O8 0.314327 0.250000 0.750000
O O9 0.323453 0.243401 0.624843
O O10 0.235544 0.177620 0.679833
O O11 0.315292 0.039082 0.692532
O O12 0.510386 0.884580 0.402333
O O13 0.601893 0.857248 0.439403
O O14 0.965504 0.839015 0.707978
O O15 0.409707 0.360257 0.608966
O O16 0.250000 0.500000 0.397235
#
# Coordination Sequence:
#
# PCOD8283335 Si02
#       8
#    16  16  16  16   4  16  16  16
#     4  11  20  36  65  93 127 158 190 255 323 365
#     4  11  22  34  60  94 130 162 193 251 303 368
#     4   9  20  39  65  84 114 155 207 253 291 358
#     4  11  18  36  60  92 124 164 197 246 303 361
#     4  12  28  40  62  76 124 180 212 260 268 352
#     4  12  23  39  55  91 122 165 214 241 293 348
#     4  11  21  33  62  94 122 153 204 249 301 365
#     4   8  20  41  64  84 115 154 200 253 314 360
#
# _framework density 18.916777
#
# number of rings (size 3 to 8) (size 9 to 14) (size 15 to 20)
#    0.828    0.552    5.517    2.069    0.966    0.552 
#    0.000    3.103    3.034    0.000    0.000    0.000 
#    0.000    0.000    0.000    0.000    0.000    0.000 
#
# Total GULP energy -718516.288880 kJ/mol
# GULP energy per Si atom -12388.211877 kJ/mol
# Density = 1.887372 g / cm^3
# Si number density = 18.916777 Si / 1000 Ang^3
#
#
#
# Elastic Constant Matrix: (Units=GPa)
#
#
# Indices 1 2 3 4 5 6 
#
# 1 68.2811 37.3111 39.3905 0.0000 0.0000 0.0000
# 2 37.3111 118.4341 55.0176 0.0000 0.0000 0.0000
# 3 39.3905 55.0176 95.6263 0.0000 0.0000 0.0000
# 4 0.0000 0.0000 0.0000 37.1043 0.0000 0.0000
# 5 0.0000 0.0000 0.0000 0.0000 19.2456 0.0000
# 6 0.0000 0.0000 0.0000 0.0000 0.0000 23.9748
#
#
#
# Elastic Compliance Matrix: (Units=1/GPa)
#
#
# Indices 1 2 3 4 5 6 
#
# 1 0.020168 -0.003404 -0.006349 0.000000 0.000000 0.000000
# 2 -0.003404 0.012098 -0.005558 0.000000 0.000000 0.000000
# 3 -0.006349 -0.005558 0.016271 0.000000 0.000000 0.000000
# 4 0.000000 0.000000 0.000000 0.026951 0.000000 0.000000
# 5 0.000000 0.000000 0.000000 0.000000 0.051960 0.000000
# 6 0.000000 0.000000 0.000000 0.000000 0.000000 0.041711
#
#
# Mechanical properties :
#
#
# Convention : Reuss Voigt Hill
#
# Bulk Modulus (GPa) = 55.82329 60.64220 58.23274
# Shear Modulus (GPa) = 24.30103 26.10643 25.20373
#
# Velocity S-wave (km/s) = 3.58806 3.71896 3.65409
# Velocity P-wave (km/s) = 6.83663 7.11110 6.97522
#
# Compressibility (1/GPa) = 0.01791367
#
# Stress axis : x y z
#
# Youngs Moduli (GPa) = 49.58277 82.65831 61.46079
#
# Poissons Ratio (x) = 0.28140 0.39022
# Poissons Ratio (y) = 0.16880 0.34161
# Poissons Ratio (z) = 0.31481 0.45943
#
# Static dielectric constant tensor:
#      x y z
#    x 3.281410 0.000000 0.000000 
#    y 0.000000 3.785540 0.000000 
#    z 0.000000 0.000000 3.223960 
# 
# 
# High freq. dielectric constant tensor:
#      x y z
#    x 1.723340 0.000000 0.000000 
#    y 0.000000 1.751950 0.000000 
#    z 0.000000 0.000000 1.698060 
# 
# From -- ./inp_files/34172.got.cif
#   From: 2010.03.12/outbox.cif.g09.slc.cpg/sg68_18_cif.got.tgz:34172.got - 2010.04.10 23:14:56.
