data_PCOD8283917
_publ_section_title
;
Structure prediction by ZEFSAII (Michael W. Deem and Ramdas Pophale) SiO2 
 PCOD8283917
Probable space group: F M M M
;
_chemical_formula_sum "Si O2"
_cell_formula_units_Z 144
_cell_length_a 28.788113
_cell_length_b 8.729541
_cell_length_c 31.547190
_cell_angle_alpha 90.000000
_cell_angle_beta 90.000000
_cell_angle_gamma 90.000000
_cell_volume 7928.030079
_symmetry_space_group_name_H-M "F M M M"
_symmetry_group_IT_number 69
_symmetry_cell_setting 'orthorhombic'
loop_
_space_group_symop_operation_xyz
x,y,z
-x,-y,z
x,-y,-z
-x,y,-z
-x,-y,-z
x,y,-z
-x,y,z
x,-y,z
x,1/2+y,1/2+z
-x,1/2-y,1/2+z
x,1/2-y,1/2-z
-x,1/2+y,1/2-z
-x,1/2-y,1/2-z
x,1/2+y,1/2-z
-x,1/2+y,1/2+z
x,1/2-y,1/2+z
1/2+x,y,1/2+z
1/2-x,-y,1/2+z
1/2+x,-y,1/2-z
1/2-x,y,1/2-z
1/2-x,-y,1/2-z
1/2+x,y,1/2-z
1/2-x,y,1/2+z
1/2+x,-y,1/2+z
1/2+x,1/2+y,z
1/2-x,1/2-y,z
1/2+x,1/2-y,-z
1/2-x,1/2+y,-z
1/2-x,1/2-y,-z
1/2+x,1/2+y,-z
1/2-x,1/2+y,z
1/2+x,1/2-y,z
loop_
_atom_site_type_symbol
_atom_site_label
_atom_site_fract_x
_atom_site_fract_y
_atom_site_fract_z
Si Si1 0.446907 0.819093 0.205881
Si Si2 0.947216 0.682094 0.046418
Si Si3 0.299550 0.821261 0.914511
Si Si4 0.392050 0.179420 0.874242
Si Si5 0.801283 0.182153 0.000000
O O1 0.500000 0.769332 0.196528
O O2 0.429121 0.750000 0.250000
O O3 0.413975 0.750832 0.168683
O O4 0.442552 0.000000 0.209074
O O5 0.943493 0.500000 0.046429
O O6 0.916323 0.753276 0.084206
O O7 0.000000 0.733774 0.054416
O O8 0.930399 0.743229 0.000000
O O9 0.250000 0.750000 0.901770
O O10 0.336462 0.790734 0.876666
O O11 0.323297 0.747190 0.956613
O O12 0.292061 0.000000 0.923062
O O13 0.402997 0.000000 0.874302
O O14 0.750000 0.250000 0.000000
O O15 0.801969 0.000000 0.000000
#
# Coordination Sequence:
#
# PCOD8283917 Si02
#       5
#    32  32  32  32  16
#     4   9  17  31  51  75 101 124 151 191 239 288
#     4   8  13  21  35  59  91 121 148 182 225 272
#     4  10  19  31  47  67  93 125 161 201 241 279
#     4   9  17  27  44  68  94 124 156 193 235 281
#     4  10  18  30  46  64  89 122 161 201 240 277
#
# _framework density 18.163402000000001
#
# number of rings (size 3 to 8) (size 9 to 14) (size 15 to 20)
#    0.000    2.889    0.000    4.333    1.556    2.667 
#    0.000    2.222    0.000    0.667    0.000    4.667 
#    0.000    1.778    0.000    0.000    0.000    0.000 
#
# Total GULP energy -446086.145875 kJ/mol
# GULP energy per Si atom -12391.281830 kJ/mol
# Density = 1.812206 g / cm^3
# Si number density = 18.163402 Si / 1000 Ang^3
#
#
#
# Elastic Constant Matrix: (Units=GPa)
#
#
# Indices 1 2 3 4 5 6 
#
# 1 98.4747 25.9293 85.3265 0.0000 0.0000 -0.0006
# 2 25.9293 53.4077 27.1476 0.0002 -0.0001 -0.0002
# 3 85.3265 27.1476 157.0915 0.0000 0.0000 0.0001
# 4 0.0000 0.0002 0.0000 20.9183 0.0000 -0.0001
# 5 0.0000 -0.0001 0.0000 0.0000 29.7517 0.0001
# 6 -0.0006 -0.0002 0.0001 -0.0001 0.0001 14.3642
#
#
#
# Elastic Compliance Matrix: (Units=1/GPa)
#
#
# Indices 1 2 3 4 5 6 
#
# 1 0.020177 -0.004632 -0.010159 0.000000 0.000000 0.000001
# 2 -0.004632 0.021590 -0.001215 0.000000 0.000000 0.000000
# 3 -0.010159 -0.001215 0.012094 0.000000 0.000000 0.000000
# 4 0.000000 0.000000 0.000000 0.047805 0.000000 0.000000
# 5 0.000000 0.000000 0.000000 0.000000 0.033612 0.000000
# 6 0.000001 0.000000 0.000000 0.000000 0.000000 0.069618
#
#
# Mechanical properties :
#
#
# Convention : Reuss Voigt Hill
#
# Bulk Modulus (GPa) = 45.76901 65.08674 55.42788
# Shear Modulus (GPa) = 20.47577 24.37820 22.42698
#
# Velocity S-wave (km/s) = 3.36119 3.66752 3.51769
# Velocity P-wave (km/s) = 6.34954 7.33799 6.86159
#
# Compressibility (1/GPa) = 0.02184884
#
# Stress axis : x y z
#
# Youngs Moduli (GPa) = 49.56102 46.31685 82.68741
#
# Poissons Ratio (x) = 0.21454 0.84002
# Poissons Ratio (y) = 0.22957 0.10048
# Poissons Ratio (z) = 0.50349 0.05628
#
# Static dielectric constant tensor:
#      x y z
#    x 3.319850 0.000000 0.000000 
#    y 0.000000 2.936910 0.000000 
#    z 0.000000 0.000000 3.797410 
# 
# 
# High freq. dielectric constant tensor:
#      x y z
#    x 1.698660 0.000000 0.000000 
#    y 0.000000 1.660440 0.000000 
#    z 0.000000 0.000000 1.693650 
# 
# From -- ./inp_files/47408.got.cif
#   From: 2010.03.12/outbox.cif.g09.slc.cpg/sg69_24_cif.got.tgz:47408.got - 2010.04.10 23:52:46.
