data_PCOD8283607
_publ_section_title
;
Structure prediction by ZEFSAII (Michael W. Deem and Ramdas Pophale) SiO2 
 PCOD8283607
Probable space group: C C C A
;
_chemical_formula_sum "Si O2"
_cell_formula_units_Z 96
_cell_length_a 22.025215
_cell_length_b 13.987215
_cell_length_c 14.296811
_cell_angle_alpha 90.000000
_cell_angle_beta 90.000000
_cell_angle_gamma 90.000000
_cell_volume 4404.438832
_symmetry_space_group_name_H-M "C C C A"
_symmetry_group_IT_number 68
_space_group.IT_coordinate_system_code '2'
_symmetry_cell_setting 'orthorhombic'
loop_
_space_group_symop_operation_xyz
x,y,z
-x,1/2-y,z
x,1/2-y,1/2-z
-x,y,1/2-z
-x,-y,-z
x,1/2+y,-z
-x,1/2+y,1/2+z
x,-y,1/2+z
1/2+x,1/2+y,z
1/2-x,-y,z
1/2+x,-y,1/2-z
1/2-x,1/2+y,1/2-z
1/2-x,1/2-y,-z
1/2+x,y,-z
1/2-x,y,1/2+z
1/2+x,1/2-y,1/2+z
loop_
_atom_site_type_symbol
_atom_site_label
_atom_site_fract_x
_atom_site_fract_y
_atom_site_fract_z
Si Si1 0.821193 0.817976 0.336380
Si Si2 0.811775 0.123082 0.373996
Si Si3 0.000000 0.250000 0.401986
Si Si4 0.623584 0.488610 0.258548
Si Si5 0.821129 0.999764 0.551478
Si Si6 0.000000 0.591865 0.750000
Si Si7 0.629647 0.788338 0.026609
O O1 0.804718 0.750000 0.250000
O O2 0.761097 0.875267 0.369154
O O3 0.847388 0.756414 0.423252
O O4 0.871215 0.897584 0.309953
O O5 0.837405 0.079340 0.278150
O O6 0.836990 0.229618 0.391005
O O7 0.836640 0.060386 0.459940
O O8 0.015053 0.342287 0.339038
O O9 0.057403 0.226598 0.467291
O O10 0.648702 0.452681 0.357816
O O11 0.554923 0.521035 0.270248
O O12 0.851245 0.896781 0.540756
O O13 0.750000 0.000000 0.569573
#
# Coordination Sequence:
#
# PCOD8283607 Si02
#       7
#    16  16   8  16  16   8  16
#     4  12  27  47  69 108 149 194 242 299 379 449
#     4  12  25  46  72 108 150 185 240 300 369 445
#     4  11  24  48  71 104 142 184 257 298 358 455
#     4  12  25  45  71 106 143 189 245 307 361 437
#     4  12  24  43  70 108 146 186 239 304 373 437
#     4  11  24  46  73 100 142 190 247 308 364 445
#     4  12  25  45  75 106 144 195 243 307 367 439
#
# _framework density 21.796192999999999
#
# number of rings (size 3 to 8) (size 9 to 14) (size 15 to 20)
#    0.000    0.167    6.667    3.000    4.667    0.000 
#    6.000    2.500    0.000    0.000    0.000    0.000 
#    0.000    0.000    0.000    0.000    0.000    0.000 
#
# Total GULP energy -595480.031148 kJ/mol
# GULP energy per Si atom -12405.833982 kJ/mol
# Density = 2.174658 g / cm^3
# Si number density = 21.796193 Si / 1000 Ang^3
#
#
#
# Elastic Constant Matrix: (Units=GPa)
#
#
# Indices 1 2 3 4 5 6 
#
# 1 145.0892 27.1789 34.2671 0.0000 0.0000 0.0000
# 2 27.1789 84.9801 20.6611 0.0000 0.0000 0.0000
# 3 34.2671 20.6611 106.6599 0.0000 0.0000 0.0000
# 4 0.0000 0.0000 0.0000 31.2466 0.0000 0.0000
# 5 0.0000 0.0000 0.0000 0.0000 31.9696 0.0000
# 6 0.0000 0.0000 0.0000 0.0000 0.0000 39.6699
#
#
#
# Elastic Compliance Matrix: (Units=1/GPa)
#
#
# Indices 1 2 3 4 5 6 
#
# 1 0.007760 -0.001968 -0.002112 0.000000 0.000000 0.000000
# 2 -0.001968 0.012848 -0.001856 0.000000 0.000000 0.000000
# 3 -0.002112 -0.001856 0.010414 0.000000 0.000000 0.000000
# 4 0.000000 0.000000 0.000000 0.032003 0.000000 0.000000
# 5 0.000000 0.000000 0.000000 0.000000 0.031280 0.000000
# 6 0.000000 0.000000 0.000000 0.000000 0.000000 0.025208
#
#
# Mechanical properties :
#
#
# Convention : Reuss Voigt Hill
#
# Bulk Modulus (GPa) = 52.22292 55.66035 53.94164
# Shear Modulus (GPa) = 36.29262 37.55203 36.92232
#
# Velocity S-wave (km/s) = 4.08498 4.15525 4.12026
# Velocity P-wave (km/s) = 6.80155 6.97235 6.88748
#
# Compressibility (1/GPa) = 0.01914868
#
# Stress axis : x y z
#
# Youngs Moduli (GPa) = 128.86963 77.83094 96.02775
#
# Poissons Ratio (x) = 0.15320 0.20278
# Poissons Ratio (y) = 0.25366 0.17827
# Poissons Ratio (z) = 0.27214 0.14449
#
# Static dielectric constant tensor:
#      x y z
#    x 3.786770 0.000000 0.000000 
#    y 0.000000 3.949980 0.000000 
#    z 0.000000 0.000000 4.305590 
# 
# 
# High freq. dielectric constant tensor:
#      x y z
#    x 1.847010 0.000000 0.000000 
#    y 0.000000 1.863590 0.000000 
#    z 0.000000 0.000000 1.867850 
# 
# From -- ./inp_files/24481.got.cif
#   From: 2010.03.12/outbox.cif.g09.slc.cpg/sg68_13_cif.got.tgz:24481.got - 2010.04.10 23:14:56.
