data_PCOD8283058
_publ_section_title
;
Structure prediction by ZEFSAII (Michael W. Deem and Ramdas Pophale) SiO2 
 PCOD8283058
Probable space group: C C C A
;
_chemical_formula_sum "Si O2"
_cell_formula_units_Z 108
_cell_length_a 11.661114
_cell_length_b 14.084332
_cell_length_c 31.904635
_cell_angle_alpha 90.000000
_cell_angle_beta 90.000000
_cell_angle_gamma 90.000000
_cell_volume 5239.985382
_symmetry_space_group_name_H-M "C C C A"
_symmetry_group_IT_number 68
_space_group.IT_coordinate_system_code '2'
_symmetry_cell_setting 'orthorhombic'
loop_
_space_group_symop_operation_xyz
x,y,z
-x,1/2-y,z
x,1/2-y,1/2-z
-x,y,1/2-z
-x,-y,-z
x,1/2+y,-z
-x,1/2+y,1/2+z
x,-y,1/2+z
1/2+x,1/2+y,z
1/2-x,-y,z
1/2+x,-y,1/2-z
1/2-x,1/2+y,1/2-z
1/2-x,1/2-y,-z
1/2+x,y,-z
1/2-x,y,1/2+z
1/2+x,1/2-y,1/2+z
loop_
_atom_site_type_symbol
_atom_site_label
_atom_site_fract_x
_atom_site_fract_y
_atom_site_fract_z
Si Si1 0.500000 0.250000 0.250000
Si Si2 0.584716 0.549419 0.626589
Si Si3 0.192984 0.347478 0.087729
Si Si4 0.444008 0.648236 0.561721
Si Si5 0.819037 0.133362 0.402440
Si Si6 0.488693 0.861639 0.029004
Si Si7 0.958724 0.572950 0.292900
Si Si8 0.250000 0.000000 0.844406
O O1 0.422983 0.181069 0.279675
O O2 0.471989 0.575514 0.599522
O O3 0.686264 0.607180 0.603393
O O4 0.607558 0.435992 0.627891
O O5 0.565490 0.579995 0.674553
O O6 0.307228 0.337628 0.059797
O O7 0.156849 0.244273 0.106288
O O8 0.095655 0.394440 0.057945
O O9 0.213538 0.411197 0.127986
O O10 0.500000 0.750000 0.570724
O O11 0.487799 0.597688 0.518529
O O12 0.867100 0.111609 0.449313
O O13 0.500000 0.750000 0.022427
O O14 0.854718 0.519779 0.313779
O O15 0.000000 0.519552 0.250000
#
# Coordination Sequence:
#
# PCOD8283058 Si02
#       8
#     4  16  16  16  16  16  16   8
#     4   8  24  44  76  96 124 176 204 268 324 400
#     4  11  22  40  64  97 121 170 227 269 325 399
#     4  11  23  41  64  89 133 179 219 280 337 390
#     4  11  22  36  66  88 125 174 235 278 320 388
#     4  10  23  39  62  88 133 174 220 271 328 391
#     4   9  22  38  55  89 132 175 223 273 337 381
#     4  10  24  43  70 100 134 159 215 270 327 403
#     4  12  24  42  70 106 128 168 222 276 332 392
#
# _framework density 20.610745000000001
#
# number of rings (size 3 to 8) (size 9 to 14) (size 15 to 20)
#    0.444    1.185    2.963    0.889    5.185    3.556 
#    0.000    0.000    0.000    0.889    0.000    0.000 
#    0.000    0.000    0.000    0.000    0.000    0.000 
#
# Total GULP energy -669181.391397 kJ/mol
# GULP energy per Si atom -12392.247989 kJ/mol
# Density = 2.056383 g / cm^3
# Si number density = 20.610745 Si / 1000 Ang^3
#
#
#
# Elastic Constant Matrix: (Units=GPa)
#
#
# Indices 1 2 3 4 5 6 
#
# 1 111.4857 24.8282 61.4713 0.0000 0.0000 0.0000
# 2 24.8282 91.6890 45.4683 0.0000 0.0000 0.0000
# 3 61.4713 45.4683 163.5577 0.0000 0.0000 0.0000
# 4 0.0000 0.0000 0.0000 26.6094 0.0000 0.0000
# 5 0.0000 0.0000 0.0000 0.0000 26.6826 0.0000
# 6 0.0000 0.0000 0.0000 0.0000 0.0000 28.5761
#
#
#
# Elastic Compliance Matrix: (Units=1/GPa)
#
#
# Indices 1 2 3 4 5 6 
#
# 1 0.011412 -0.001117 -0.003979 0.000000 0.000000 0.000000
# 2 -0.001117 0.012760 -0.003127 0.000000 0.000000 0.000000
# 3 -0.003979 -0.003127 0.008479 0.000000 0.000000 0.000000
# 4 0.000000 0.000000 0.000000 0.037581 0.000000 0.000000
# 5 0.000000 0.000000 0.000000 0.000000 0.037478 0.000000
# 6 0.000000 0.000000 0.000000 0.000000 0.000000 0.034994
#
#
# Mechanical properties :
#
#
# Convention : Reuss Voigt Hill
#
# Bulk Modulus (GPa) = 61.71116 70.02978 65.87047
# Shear Modulus (GPa) = 30.38569 32.03793 31.21181
#
# Velocity S-wave (km/s) = 3.84378 3.94690 3.89568
# Velocity P-wave (km/s) = 7.05023 7.40417 7.22937
#
# Compressibility (1/GPa) = 0.01620452
#
# Stress axis : x y z
#
# Youngs Moduli (GPa) = 87.62463 78.37128 117.94258
#
# Poissons Ratio (x) = 0.08757 0.46924
# Poissons Ratio (y) = 0.09791 0.36883
# Poissons Ratio (z) = 0.34862 0.24508
#
# Static dielectric constant tensor:
#      x y z
#    x 3.846650 0.000000 0.000000 
#    y 0.000000 3.762660 0.000000 
#    z 0.000000 0.000000 3.728680 
# 
# 
# High freq. dielectric constant tensor:
#      x y z
#    x 1.804820 0.000000 0.000000 
#    y 0.000000 1.807600 0.000000 
#    z 0.000000 0.000000 1.793420 
# 
# From -- ./inp_files/54865.got.cif
#   From: 2010.03.12/outbox.cif.g09.slc.cpg/sg68_28_cif.got.tgz:54865.got - 2010.04.10 23:14:56.
