data_PCOD8283644
_publ_section_title
;
Structure prediction by ZEFSAII (Michael W. Deem and Ramdas Pophale) SiO2 
 PCOD8283644
Probable space group: C C C A
;
_chemical_formula_sum "Si O2"
_cell_formula_units_Z 108
_cell_length_a 31.563501
_cell_length_b 13.523205
_cell_length_c 11.340133
_cell_angle_alpha 90.000000
_cell_angle_beta 90.000000
_cell_angle_gamma 90.000000
_cell_volume 4840.418906
_symmetry_space_group_name_H-M "C C C A"
_symmetry_group_IT_number 68
_space_group.IT_coordinate_system_code '2'
_symmetry_cell_setting 'orthorhombic'
loop_
_space_group_symop_operation_xyz
x,y,z
-x,1/2-y,z
x,1/2-y,1/2-z
-x,y,1/2-z
-x,-y,-z
x,1/2+y,-z
-x,1/2+y,1/2+z
x,-y,1/2+z
1/2+x,1/2+y,z
1/2-x,-y,z
1/2+x,-y,1/2-z
1/2-x,1/2+y,1/2-z
1/2-x,1/2-y,-z
1/2+x,y,-z
1/2-x,y,1/2+z
1/2+x,1/2-y,1/2+z
loop_
_atom_site_type_symbol
_atom_site_label
_atom_site_fract_x
_atom_site_fract_y
_atom_site_fract_z
Si Si1 0.939370 0.154705 0.064902
Si Si2 0.366239 0.197290 0.521975
Si Si3 0.818986 0.394585 0.235355
Si Si4 0.289769 0.180900 0.973874
Si Si5 0.500000 0.750000 0.250000
Si Si6 0.887631 0.028120 0.660630
Si Si7 0.750000 0.500000 0.589612
Si Si8 0.456406 0.359550 0.300466
O O1 0.909770 0.248711 0.047077
O O2 0.972498 0.177599 0.168081
O O3 0.912193 0.059481 0.096533
O O4 0.962874 0.137620 0.940990
O O5 0.350856 0.159723 0.648309
O O6 0.331018 0.270698 0.462712
O O7 0.374954 0.108499 0.434756
O O8 0.802206 0.320252 0.336006
O O9 0.843566 0.489064 0.287064
O O10 0.777213 0.427433 0.168117
O O11 0.250000 0.250000 0.000000
O O12 0.281149 0.067983 0.011440
O O13 0.916479 0.073826 0.763898
O O14 0.448846 0.250000 0.250000
O O15 0.500000 0.404641 0.250000
#
# Coordination Sequence:
#
# PCOD8283644 Si02
#       8
#    16  16  16  16   4  16   8  16
#     4  12  27  49  77 115 151 197 263 306 384 462
#     4  12  26  49  75 106 151 195 254 315 381 456
#     4  12  26  47  71 105 146 192 245 313 374 446
#     4  12  27  47  71 104 144 195 243 308 382 445
#     4  12  28  48  82 116 154 216 252 322 384 464
#     4  12  27  46  79 108 149 200 249 313 388 454
#     4  12  28  44  72 104 146 188 254 306 370 460
#     4  11  25  49  73 108 154 194 241 314 375 452
#
# _framework density 22.31212
#
# number of rings (size 3 to 8) (size 9 to 14) (size 15 to 20)
#    0.000    0.148    4.444    4.444    5.185    0.593 
#    0.000    0.000    0.000    0.000    0.000    0.000 
#    0.000    0.000    0.000    0.000    0.000    0.000 
#
# Total GULP energy -669834.582557 kJ/mol
# GULP energy per Si atom -12404.344121 kJ/mol
# Density = 2.226134 g / cm^3
# Si number density = 22.312120 Si / 1000 Ang^3
#
#
#
# Elastic Constant Matrix: (Units=GPa)
#
#
# Indices 1 2 3 4 5 6 
#
# 1 104.6978 26.7020 52.9934 0.0000 0.0000 0.0000
# 2 26.7020 98.8865 44.1352 0.0000 0.0000 0.0000
# 3 52.9934 44.1352 147.1897 0.0000 0.0000 0.0000
# 4 0.0000 0.0000 0.0000 35.9691 0.0000 0.0000
# 5 0.0000 0.0000 0.0000 0.0000 45.9497 0.0000
# 6 0.0000 0.0000 0.0000 0.0000 0.0000 38.4621
#
#
#
# Elastic Compliance Matrix: (Units=1/GPa)
#
#
# Indices 1 2 3 4 5 6 
#
# 1 0.011869 -0.001498 -0.003824 0.000000 0.000000 0.000000
# 2 -0.001498 0.011864 -0.003018 0.000000 0.000000 0.000000
# 3 -0.003824 -0.003018 0.009076 0.000000 0.000000 0.000000
# 4 0.000000 0.000000 0.000000 0.027802 0.000000 0.000000
# 5 0.000000 0.000000 0.000000 0.000000 0.021763 0.000000
# 6 0.000000 0.000000 0.000000 0.000000 0.000000 0.026000
#
#
# Mechanical properties :
#
#
# Convention : Reuss Voigt Hill
#
# Bulk Modulus (GPa) = 62.00300 66.49281 64.24791
# Shear Modulus (GPa) = 38.33481 39.20572 38.77026
#
# Velocity S-wave (km/s) = 4.14951 4.19638 4.17301
# Velocity P-wave (km/s) = 7.12792 7.30380 7.21639
#
# Compressibility (1/GPa) = 0.01612825
#
# Stress axis : x y z
#
# Youngs Moduli (GPa) = 84.25351 84.28711 110.18414
#
# Poissons Ratio (x) = 0.12628 0.42134
# Poissons Ratio (y) = 0.12623 0.33255
# Poissons Ratio (z) = 0.32218 0.25439
#
# Static dielectric constant tensor:
#      x y z
#    x 4.582190 0.000000 0.000000 
#    y 0.000000 4.372930 0.000000 
#    z 0.000000 0.000000 4.181920 
# 
# 
# High freq. dielectric constant tensor:
#      x y z
#    x 1.893020 0.000000 0.000000 
#    y 0.000000 1.895270 0.000000 
#    z 0.000000 0.000000 1.884790 
# 
# From -- ./inp_files/17819.got.cif
#   From: 2010.03.12/outbox.cif.g09.slc.cpg/sg68_9_cif.got.tgz:17819.got - 2010.04.10 23:14:56.
