data_PCOD8283758
_publ_section_title
;
Structure prediction by ZEFSAII (Michael W. Deem and Ramdas Pophale) SiO2 
 PCOD8283758
Probable space group: F M M M
;
_chemical_formula_sum "Si O2"
_cell_formula_units_Z 96
_cell_length_a 18.274107
_cell_length_b 15.319811
_cell_length_c 19.231331
_cell_angle_alpha 90.000000
_cell_angle_beta 90.000000
_cell_angle_gamma 90.000000
_cell_volume 5383.923914
_symmetry_space_group_name_H-M "F M M M"
_symmetry_group_IT_number 69
_symmetry_cell_setting 'orthorhombic'
loop_
_space_group_symop_operation_xyz
x,y,z
-x,-y,z
x,-y,-z
-x,y,-z
-x,-y,-z
x,y,-z
-x,y,z
x,-y,z
x,1/2+y,1/2+z
-x,1/2-y,1/2+z
x,1/2-y,1/2-z
-x,1/2+y,1/2-z
-x,1/2-y,1/2-z
x,1/2+y,1/2-z
-x,1/2+y,1/2+z
x,1/2-y,1/2+z
1/2+x,y,1/2+z
1/2-x,-y,1/2+z
1/2+x,-y,1/2-z
1/2-x,y,1/2-z
1/2-x,-y,1/2-z
1/2+x,y,1/2-z
1/2-x,y,1/2+z
1/2+x,-y,1/2+z
1/2+x,1/2+y,z
1/2-x,1/2-y,z
1/2+x,1/2-y,-z
1/2-x,1/2+y,-z
1/2-x,1/2-y,-z
1/2+x,1/2+y,-z
1/2-x,1/2+y,z
1/2+x,1/2-y,z
loop_
_atom_site_type_symbol
_atom_site_label
_atom_site_fract_x
_atom_site_fract_y
_atom_site_fract_z
Si Si1 0.803215 0.324860 0.078800
Si Si2 0.666293 0.500000 0.224611
Si Si3 0.582345 0.402888 0.671367
Si Si4 0.787345 0.000000 0.923567
O O1 0.750000 0.250000 0.109321
O O2 0.877465 0.331473 0.123339
O O3 0.763407 0.416665 0.084024
O O4 0.825177 0.300844 0.000000
O O5 0.750000 0.500000 0.250000
O O6 0.625789 0.586593 0.255089
O O7 0.656384 0.500000 0.140933
O O8 0.500000 0.369252 0.684789
O O9 0.581225 0.500000 0.635697
O O10 0.826626 0.000000 0.000000
#
# Coordination Sequence:
#
# PCOD8283758 Si02
#       4
#    32  16  32  16
#     4  10  19  31  51  82 115 148 185 222 267 341
#     4  10  15  30  55  80 107 147 182 223 279 335
#     4   9  18  32  54  81 110 139 174 233 298 332
#     4  10  18  32  52  76 107 143 192 230 267 321
#
# _framework density 17.830860999999999
#
# number of rings (size 3 to 8) (size 9 to 14) (size 15 to 20)
#    1.000    1.333    5.000    0.000    0.000    0.667 
#    0.000    5.000    0.000    8.000    0.000    9.333 
#    0.000    0.000    0.000    0.000    0.000    0.000 
#
# Total GULP energy -297328.086278 kJ/mol
# GULP energy per Si atom -12388.670262 kJ/mol
# Density = 1.779028 g / cm^3
# Si number density = 17.830861 Si / 1000 Ang^3
#
#
#
# Elastic Constant Matrix: (Units=GPa)
#
#
# Indices 1 2 3 4 5 6 
#
# 1 146.5553 38.7993 76.3052 0.0000 0.0000 0.0000
# 2 38.7993 66.6552 17.9788 0.0000 0.0000 0.0000
# 3 76.3052 17.9788 128.2906 0.0000 0.0000 0.0000
# 4 0.0000 0.0000 0.0000 19.9759 0.0000 0.0000
# 5 0.0000 0.0000 0.0000 0.0000 24.0918 0.0000
# 6 0.0000 0.0000 0.0000 0.0000 0.0000 29.8185
#
#
#
# Elastic Compliance Matrix: (Units=1/GPa)
#
#
# Indices 1 2 3 4 5 6 
#
# 1 0.011254 -0.004932 -0.006003 0.000000 0.000000 0.000000
# 2 -0.004932 0.017753 0.000446 0.000000 0.000000 0.000000
# 3 -0.006003 0.000446 0.011303 0.000000 0.000000 0.000000
# 4 0.000000 0.000000 0.000000 0.050060 0.000000 0.000000
# 5 0.000000 0.000000 0.000000 0.000000 0.041508 0.000000
# 6 0.000000 0.000000 0.000000 0.000000 0.000000 0.033536
#
#
# Mechanical properties :
#
#
# Convention : Reuss Voigt Hill
#
# Bulk Modulus (GPa) = 51.72793 67.51864 59.62329
# Shear Modulus (GPa) = 25.92858 28.67177 27.30017
#
# Velocity S-wave (km/s) = 3.81746 4.01432 3.91713
# Velocity P-wave (km/s) = 6.96448 7.70939 7.34638
#
# Compressibility (1/GPa) = 0.01933191
#
# Stress axis : x y z
#
# Youngs Moduli (GPa) = 88.85344 56.32758 88.47403
#
# Poissons Ratio (x) = 0.27781 0.53109
# Poissons Ratio (y) = 0.43823 -0.03942
# Poissons Ratio (z) = 0.53337 -0.02509
#
# Static dielectric constant tensor:
#      x y z
#    x 3.127580 0.000000 0.000000 
#    y 0.000000 2.337080 0.000000 
#    z 0.000000 0.000000 3.507880 
# 
# 
# High freq. dielectric constant tensor:
#      x y z
#    x 1.669070 0.000000 0.000000 
#    y 0.000000 1.663640 0.000000 
#    z 0.000000 0.000000 1.681420 
# 
# From -- ./inp_files/22424.got.cif
#   From: 2010.03.12/outbox.cif.g09.slc.cpg/sg69_12_cif.got.tgz:22424.got - 2010.04.10 23:52:46.
