data_PCOD8283288
_publ_section_title
;
Structure prediction by ZEFSAII (Michael W. Deem and Ramdas Pophale) SiO2 
 PCOD8283288
Probable space group: C C C A
;
_chemical_formula_sum "Si O2"
_cell_formula_units_Z 48
_cell_length_a 14.972956
_cell_length_b 11.127430
_cell_length_c 12.312671
_cell_angle_alpha 90.000000
_cell_angle_beta 90.000000
_cell_angle_gamma 90.000000
_cell_volume 2051.420515
_symmetry_space_group_name_H-M "C C C A"
_symmetry_group_IT_number 68
_space_group.IT_coordinate_system_code '2'
_symmetry_cell_setting 'orthorhombic'
loop_
_space_group_symop_operation_xyz
x,y,z
-x,1/2-y,z
x,1/2-y,1/2-z
-x,y,1/2-z
-x,-y,-z
x,1/2+y,-z
-x,1/2+y,1/2+z
x,-y,1/2+z
1/2+x,1/2+y,z
1/2-x,-y,z
1/2+x,-y,1/2-z
1/2-x,1/2+y,1/2-z
1/2-x,1/2-y,-z
1/2+x,y,-z
1/2-x,y,1/2+z
1/2+x,1/2-y,1/2+z
loop_
_atom_site_type_symbol
_atom_site_label
_atom_site_fract_x
_atom_site_fract_y
_atom_site_fract_z
Si Si1 0.846588 0.057153 0.724016
Si Si2 0.895439 0.722856 0.088738
Si Si3 0.405000 0.685059 0.150383
O O1 0.879773 0.102404 0.841309
O O2 0.841299 0.166071 0.638744
O O3 0.750000 0.000000 0.735109
O O4 0.914372 0.956030 0.677976
O O5 0.000000 0.750000 0.092253
O O6 0.858516 0.702033 0.966742
O O7 0.500000 0.750000 0.144400
O O8 0.350305 0.750000 0.250000
#
# Coordination Sequence:
#
# PCOD8283288 Si02
#       3
#    16  16  16
#     4  11  25  43  67 101 139 177 222 280 343 403
#     4  10  25  47  71  96 136 186 222 278 343 394
#     4  10  25  42  70 101 132 175 235 276 330 400
#
# _framework density 23.398420999999999
#
# number of rings (size 3 to 8) (size 9 to 14) (size 15 to 20)
#    0.000    1.667    0.000    2.000   18.667    5.333 
#    0.000    0.000    0.000    0.000    0.000    0.000 
#    0.000    0.000    0.000    0.000    0.000    0.000 
#
# Total GULP energy -297533.099241 kJ/mol
# GULP energy per Si atom -12397.212468 kJ/mol
# Density = 2.334517 g / cm^3
# Si number density = 23.398421 Si / 1000 Ang^3
#
#
#
# Elastic Constant Matrix: (Units=GPa)
#
#
# Indices 1 2 3 4 5 6 
#
# 1 77.7864 39.3636 29.9810 0.0000 0.0000 0.0000
# 2 39.3636 172.3333 105.1494 0.0000 0.0000 0.0000
# 3 29.9810 105.1494 282.5391 0.0000 0.0000 0.0000
# 4 0.0000 0.0000 0.0000 39.9746 0.0000 0.0000
# 5 0.0000 0.0000 0.0000 0.0000 3.6210 0.0000
# 6 0.0000 0.0000 0.0000 0.0000 0.0000 44.4261
#
#
#
# Elastic Compliance Matrix: (Units=1/GPa)
#
#
# Indices 1 2 3 4 5 6 
#
# 1 0.014570 -0.003085 -0.000398 0.000000 0.000000 0.000000
# 2 -0.003085 0.008161 -0.002710 0.000000 0.000000 0.000000
# 3 -0.000398 -0.002710 0.004590 0.000000 0.000000 0.000000
# 4 0.000000 0.000000 0.000000 0.025016 0.000000 0.000000
# 5 0.000000 0.000000 0.000000 0.000000 0.276163 0.000000
# 6 0.000000 0.000000 0.000000 0.000000 0.000000 0.022509
#
#
# Mechanical properties :
#
#
# Convention : Reuss Voigt Hill
#
# Bulk Modulus (GPa) = 66.95536 97.96076 82.45806
# Shear Modulus (GPa) = 13.57316 41.48199 27.52757
#
# Velocity S-wave (km/s) = 2.41112 4.21510 3.43369
# Velocity P-wave (km/s) = 6.03562 8.10226 7.14407
#
# Compressibility (1/GPa) = 0.01493532
#
# Stress axis : x y z
#
# Youngs Moduli (GPa) = 68.63230 122.53713 217.86511
#
# Poissons Ratio (x) = 0.37807 0.08668
# Poissons Ratio (y) = 0.21175 0.59035
# Poissons Ratio (z) = 0.02731 0.33204
#
# Static dielectric constant tensor:
#      x y z
#    x 3.764480 0.000000 0.000000 
#    y 0.000000 4.639530 0.000000 
#    z 0.000000 0.000000 5.601050 
# 
# 
# High freq. dielectric constant tensor:
#      x y z
#    x 1.904870 0.000000 0.000000 
#    y 0.000000 1.937880 0.000000 
#    z 0.000000 0.000000 1.945420 
# 
# From -- ./inp_files/13800.got.cif
#   From: 2010.03.12/outbox.cif.g09.slc.cpg/sg68_7_cif.got.tgz:13800.got - 2010.04.10 23:14:56.
