data_PCOD8283643
_publ_section_title
;
Structure prediction by ZEFSAII (Michael W. Deem and Ramdas Pophale) SiO2 
 PCOD8283643
Probable space group: C C C A
;
_chemical_formula_sum "Si O2"
_cell_formula_units_Z 56
_cell_length_a 15.134850
_cell_length_b 14.029033
_cell_length_c 10.942369
_cell_angle_alpha 90.000000
_cell_angle_beta 90.000000
_cell_angle_gamma 90.000000
_cell_volume 2323.363776
_symmetry_space_group_name_H-M "C C C A"
_symmetry_group_IT_number 68
_space_group.IT_coordinate_system_code '2'
_symmetry_cell_setting 'orthorhombic'
loop_
_space_group_symop_operation_xyz
x,y,z
-x,1/2-y,z
x,1/2-y,1/2-z
-x,y,1/2-z
-x,-y,-z
x,1/2+y,-z
-x,1/2+y,1/2+z
x,-y,1/2+z
1/2+x,1/2+y,z
1/2-x,-y,z
1/2+x,-y,1/2-z
1/2-x,1/2+y,1/2-z
1/2-x,1/2-y,-z
1/2+x,y,-z
1/2-x,y,1/2+z
1/2+x,1/2-y,1/2+z
loop_
_atom_site_type_symbol
_atom_site_label
_atom_site_fract_x
_atom_site_fract_y
_atom_site_fract_z
Si Si1 0.719577 0.802546 0.376219
Si Si2 0.750000 0.000000 0.297731
Si Si3 0.539446 0.845964 0.474112
Si Si4 0.925692 0.003026 0.155799
O O1 0.747470 0.750000 0.250000
O O2 0.750000 0.750000 0.500000
O O3 0.613320 0.816965 0.374520
O O4 0.768907 0.906035 0.378974
O O5 0.666618 0.971077 0.216024
O O6 0.500000 0.750000 0.534644
O O7 0.590172 0.911678 0.570711
O O8 0.458171 0.903439 0.415461
O O9 0.000000 0.970263 0.250000
#
# Coordination Sequence:
#
# PCOD8283643 Si02
#       4
#    16   8  16  16
#     4  12  28  48  78 116 150 205 261 318 396 465
#     4  12  26  50  80 106 164 194 262 326 382 476
#     4  11  26  45  75 109 155 197 257 324 385 470
#     4  11  25  49  72 110 150 209 253 318 401 452
#
# _framework density 24.102982999999998
#
# number of rings (size 3 to 8) (size 9 to 14) (size 15 to 20)
#    0.000    0.571    2.857    3.429    4.000    5.143 
#    0.000    0.000    0.000    0.000    0.000    0.000 
#    0.000    0.000    0.000    0.000    0.000    0.000 
#
# Total GULP energy -347252.082896 kJ/mol
# GULP energy per Si atom -12401.860103 kJ/mol
# Density = 2.404812 g / cm^3
# Si number density = 24.102983 Si / 1000 Ang^3
#
#
#
# Elastic Constant Matrix: (Units=GPa)
#
#
# Indices 1 2 3 4 5 6 
#
# 1 112.9148 30.9735 26.2337 0.0000 0.0000 0.0000
# 2 30.9735 208.6375 71.4364 0.0000 0.0000 0.0000
# 3 26.2337 71.4364 131.7655 0.0000 0.0000 0.0000
# 4 0.0000 0.0000 0.0000 18.8718 0.0000 0.0000
# 5 0.0000 0.0000 0.0000 0.0000 27.6197 0.0000
# 6 0.0000 0.0000 0.0000 0.0000 0.0000 29.1411
#
#
#
# Elastic Compliance Matrix: (Units=1/GPa)
#
#
# Indices 1 2 3 4 5 6 
#
# 1 0.009430 -0.000930 -0.001373 0.000000 0.000000 0.000000
# 2 -0.000930 0.005977 -0.003055 0.000000 0.000000 0.000000
# 3 -0.001373 -0.003055 0.009519 0.000000 0.000000 0.000000
# 4 0.000000 0.000000 0.000000 0.052989 0.000000 0.000000
# 5 0.000000 0.000000 0.000000 0.000000 0.036206 0.000000
# 6 0.000000 0.000000 0.000000 0.000000 0.000000 0.034316
#
#
# Mechanical properties :
#
#
# Convention : Reuss Voigt Hill
#
# Bulk Modulus (GPa) = 70.37549 78.95612 74.66581
# Shear Modulus (GPa) = 30.50800 36.77147 33.63973
#
# Velocity S-wave (km/s) = 3.56158 3.91013 3.73992
# Velocity P-wave (km/s) = 6.79517 7.29482 7.04942
#
# Compressibility (1/GPa) = 0.01420949
#
# Stress axis : x y z
#
# Youngs Moduli (GPa) = 106.04037 167.30289 105.05106
#
# Poissons Ratio (x) = 0.15555 0.14429
# Poissons Ratio (y) = 0.09859 0.32097
# Poissons Ratio (z) = 0.14564 0.51118
#
# Static dielectric constant tensor:
#      x y z
#    x 4.107080 0.000000 0.000000 
#    y 0.000000 4.738210 0.000000 
#    z 0.000000 0.000000 4.293950 
# 
# 
# High freq. dielectric constant tensor:
#      x y z
#    x 1.957060 0.000000 0.000000 
#    y 0.000000 1.981660 0.000000 
#    z 0.000000 0.000000 1.945800 
# 
# From -- ./inp_files/12523.got.cif
#   From: 2010.03.12/outbox.cif.g09.slc.cpg/sg68_7_cif.got.tgz:12523.got - 2010.04.10 23:14:56.
