data_PCOD8283346
_publ_section_title
;
Structure prediction by ZEFSAII (Michael W. Deem and Ramdas Pophale) SiO2 
 PCOD8283346
Probable space group: C C C A
;
_chemical_formula_sum "Si O2"
_cell_formula_units_Z 80
_cell_length_a 12.677089
_cell_length_b 14.625252
_cell_length_c 20.154762
_cell_angle_alpha 90.000000
_cell_angle_beta 90.000000
_cell_angle_gamma 90.000000
_cell_volume 3736.806170
_symmetry_space_group_name_H-M "C C C A"
_symmetry_group_IT_number 68
_space_group.IT_coordinate_system_code '2'
_symmetry_cell_setting 'orthorhombic'
loop_
_space_group_symop_operation_xyz
x,y,z
-x,1/2-y,z
x,1/2-y,1/2-z
-x,y,1/2-z
-x,-y,-z
x,1/2+y,-z
-x,1/2+y,1/2+z
x,-y,1/2+z
1/2+x,1/2+y,z
1/2-x,-y,z
1/2+x,-y,1/2-z
1/2-x,1/2+y,1/2-z
1/2-x,1/2-y,-z
1/2+x,y,-z
1/2-x,y,1/2+z
1/2+x,1/2-y,1/2+z
loop_
_atom_site_type_symbol
_atom_site_label
_atom_site_fract_x
_atom_site_fract_y
_atom_site_fract_z
Si Si1 0.750000 0.000000 0.506062
Si Si2 0.357964 0.115776 0.602076
Si Si3 0.250000 0.000000 0.707700
Si Si4 0.286966 0.786652 0.322160
Si Si5 0.903560 0.388121 0.795718
Si Si6 0.586898 0.557674 0.385755
O O1 0.793879 0.083362 0.462248
O O2 0.656647 0.040806 0.549746
O O3 0.336993 0.050332 0.663970
O O4 0.321879 0.218230 0.619435
O O5 0.482911 0.109931 0.589156
O O6 0.190138 0.074817 0.750077
O O7 0.320239 0.750000 0.250000
O O8 0.158962 0.802307 0.329130
O O9 0.349306 0.881653 0.332885
O O10 0.941648 0.461555 0.850030
O O11 0.000000 0.354665 0.750000
#
# Coordination Sequence:
#
# PCOD8283346 Si02
#       6
#     8  16   8  16  16  16
#     4  11  25  48  70  92 135 191 250 286 336 435
#     4  11  25  41  68  96 135 180 237 281 351 411
#     4  11  19  40  60  98 133 177 212 284 332 429
#     4  12  24  42  66 106 141 168 225 306 357 416
#     4  12  22  40  71  98 142 182 226 278 366 425
#     4  12  23  44  70  98 132 188 234 288 348 427
#
# _framework density 21.408657999999999
#
# number of rings (size 3 to 8) (size 9 to 14) (size 15 to 20)
#    0.000    0.400    8.000    1.200    0.000    2.000 
#    0.000    0.000    0.000    0.000    0.000    0.000 
#    0.000    0.000    0.000    0.000    0.000    0.000 
#
# Total GULP energy -496117.616381 kJ/mol
# GULP energy per Si atom -12402.940410 kJ/mol
# Density = 2.135993 g / cm^3
# Si number density = 21.408658 Si / 1000 Ang^3
#
#
#
# Elastic Constant Matrix: (Units=GPa)
#
#
# Indices 1 2 3 4 5 6 
#
# 1 165.5591 46.3585 47.0842 0.0000 0.0000 0.0000
# 2 46.3585 85.6090 36.9429 0.0000 0.0000 0.0000
# 3 47.0842 36.9429 100.5965 0.0000 0.0000 0.0000
# 4 0.0000 0.0000 0.0000 27.8127 0.0000 0.0000
# 5 0.0000 0.0000 0.0000 0.0000 34.8268 0.0000
# 6 0.0000 0.0000 0.0000 0.0000 0.0000 39.9726
#
#
#
# Elastic Compliance Matrix: (Units=1/GPa)
#
#
# Indices 1 2 3 4 5 6 
#
# 1 0.007588 -0.003061 -0.002427 0.000000 0.000000 0.000000
# 2 -0.003061 0.015116 -0.004118 0.000000 0.000000 0.000000
# 3 -0.002427 -0.004118 0.012589 0.000000 0.000000 0.000000
# 4 0.000000 0.000000 0.000000 0.035955 0.000000 0.000000
# 5 0.000000 0.000000 0.000000 0.000000 0.028713 0.000000
# 6 0.000000 0.000000 0.000000 0.000000 0.000000 0.025017
#
#
# Mechanical properties :
#
#
# Convention : Reuss Voigt Hill
#
# Bulk Modulus (GPa) = 62.19258 68.05952 65.12605
# Shear Modulus (GPa) = 33.43331 35.28103 34.35717
#
# Velocity S-wave (km/s) = 3.95609 4.06394 4.01037
# Velocity P-wave (km/s) = 7.06971 7.34033 7.20629
#
# Compressibility (1/GPa) = 0.01607909
#
# Stress axis : x y z
#
# Youngs Moduli (GPa) = 131.79334 66.15516 79.43376
#
# Poissons Ratio (x) = 0.20253 0.19280
# Poissons Ratio (y) = 0.40348 0.32713
# Poissons Ratio (z) = 0.31988 0.27244
#
# Static dielectric constant tensor:
#      x y z
#    x 4.090620 0.000000 0.000000 
#    y 0.000000 3.977180 0.000000 
#    z 0.000000 0.000000 3.746900 
# 
# 
# High freq. dielectric constant tensor:
#      x y z
#    x 1.850690 0.000000 0.000000 
#    y 0.000000 1.840120 0.000000 
#    z 0.000000 0.000000 1.827880 
# 
# From -- ./inp_files/44140.got.cif
#   From: 2010.03.12/outbox.cif.g09.slc.cpg/sg68_23_cif.got.tgz:44140.got - 2010.04.10 23:14:56.
