data_PCOD8283115
_publ_section_title
;
Structure prediction by ZEFSAII (Michael W. Deem and Ramdas Pophale) SiO2 
 PCOD8283115
Probable space group: C C C A
;
_chemical_formula_sum "Si O2"
_cell_formula_units_Z 116
_cell_length_a 26.006985
_cell_length_b 8.978370
_cell_length_c 22.860042
_cell_angle_alpha 90.000000
_cell_angle_beta 90.000000
_cell_angle_gamma 90.000000
_cell_volume 5337.827440
_symmetry_space_group_name_H-M "C C C A"
_symmetry_group_IT_number 68
_space_group.IT_coordinate_system_code '2'
_symmetry_cell_setting 'orthorhombic'
loop_
_space_group_symop_operation_xyz
x,y,z
-x,1/2-y,z
x,1/2-y,1/2-z
-x,y,1/2-z
-x,-y,-z
x,1/2+y,-z
-x,1/2+y,1/2+z
x,-y,1/2+z
1/2+x,1/2+y,z
1/2-x,-y,z
1/2+x,-y,1/2-z
1/2-x,1/2+y,1/2-z
1/2-x,1/2-y,-z
1/2+x,y,-z
1/2-x,y,1/2+z
1/2+x,1/2-y,1/2+z
loop_
_atom_site_type_symbol
_atom_site_label
_atom_site_fract_x
_atom_site_fract_y
_atom_site_fract_z
Si Si1 0.411122 0.775951 0.908567
Si Si2 0.464277 0.630427 0.477388
Si Si3 0.500000 0.750000 0.750000
Si Si4 0.804087 0.802580 0.928764
Si Si5 0.811567 0.643338 0.048806
Si Si6 0.449547 0.000591 0.825684
Si Si7 0.060841 0.020594 0.138530
Si Si8 0.366956 0.245910 0.686920
O O1 0.351460 0.735055 0.911948
O O2 0.420384 0.938515 0.882827
O O3 0.439470 0.658706 0.864983
O O4 0.434852 0.777068 0.973066
O O5 0.500000 0.750000 0.444972
O O6 0.500000 0.500000 0.500000
O O7 0.424989 0.575349 0.427561
O O8 0.460244 0.863366 0.781745
O O9 0.742618 0.810958 0.923104
O O10 0.827748 0.738458 0.867779
O O11 0.823700 0.967860 0.945349
O O12 0.817358 0.686756 0.980491
O O13 0.504338 0.073501 0.841975
O O14 0.410856 0.128463 0.805080
O O15 0.103970 0.087000 0.180960
O O16 0.337241 0.250000 0.750000
#
# Coordination Sequence:
#
# PCOD8283115 Si02
#       8
#    16  16   4  16  16  16  16  16
#     4  12  23  39  63  97 133 179 218 278 344 412
#     4  12  22  35  56  93 138 177 212 267 339 403
#     4  12  24  44  66  88 140 188 242 284 326 404
#     4  10  23  47  73 104 138 174 226 291 354 413
#     4  10  23  42  76 105 136 173 223 286 358 419
#     4  12  25  41  66  92 136 181 233 282 326 410
#     4  12  23  43  61  95 139 181 226 273 337 410
#     4  12  27  45  71  99 134 185 235 282 342 409
#
# _framework density 21.731687999999998
#
# number of rings (size 3 to 8) (size 9 to 14) (size 15 to 20)
#    0.000    0.552    5.517    2.897    1.931    0.552 
#    0.000    0.000    7.586    0.000    0.000    0.000 
#    0.000    0.000    0.000    0.000    0.000    0.000 
#
# Total GULP energy -718749.973072 kJ/mol
# GULP energy per Si atom -12392.240915 kJ/mol
# Density = 2.168223 g / cm^3
# Si number density = 21.731688 Si / 1000 Ang^3
#
#
#
# Elastic Constant Matrix: (Units=GPa)
#
#
# Indices 1 2 3 4 5 6 
#
# 1 96.4749 18.2338 37.3257 0.0000 0.0000 0.0000
# 2 18.2338 73.0126 29.5913 0.0000 0.0000 0.0000
# 3 37.3257 29.5913 124.3340 0.0000 0.0000 0.0000
# 4 0.0000 0.0000 0.0000 33.8510 0.0000 0.0000
# 5 0.0000 0.0000 0.0000 0.0000 31.1186 0.0000
# 6 0.0000 0.0000 0.0000 0.0000 0.0000 29.9015
#
#
#
# Elastic Compliance Matrix: (Units=1/GPa)
#
#
# Indices 1 2 3 4 5 6 
#
# 1 0.011913 -0.001688 -0.003174 0.000000 0.000000 0.000000
# 2 -0.001688 0.015398 -0.003158 0.000000 0.000000 0.000000
# 3 -0.003174 -0.003158 0.009747 0.000000 0.000000 0.000000
# 4 0.000000 0.000000 0.000000 0.029541 0.000000 0.000000
# 5 0.000000 0.000000 0.000000 0.000000 0.032135 0.000000
# 6 0.000000 0.000000 0.000000 0.000000 0.000000 0.033443
#
#
# Mechanical properties :
#
#
# Convention : Reuss Voigt Hill
#
# Bulk Modulus (GPa) = 47.58156 51.56926 49.57541
# Shear Modulus (GPa) = 32.21151 32.88559 32.54855
#
# Velocity S-wave (km/s) = 3.85416 3.89428 3.87427
# Velocity P-wave (km/s) = 6.46132 6.63340 6.54792
#
# Compressibility (1/GPa) = 0.02101654
#
# Stress axis : x y z
#
# Youngs Moduli (GPa) = 83.94426 64.94462 102.59186
#
# Poissons Ratio (x) = 0.10966 0.32567
# Poissons Ratio (y) = 0.14174 0.32396
# Poissons Ratio (z) = 0.26647 0.20508
#
# Static dielectric constant tensor:
#      x y z
#    x 3.796900 0.000000 0.000000 
#    y 0.000000 2.813580 0.000000 
#    z 0.000000 0.000000 4.043950 
# 
# 
# High freq. dielectric constant tensor:
#      x y z
#    x 1.838040 0.000000 0.000000 
#    y 0.000000 1.866170 0.000000 
#    z 0.000000 0.000000 1.851120 
# 
# From -- ./inp_files/47322.got.cif
#   From: 2010.03.12/outbox.cif.g09.slc.cpg/sg68_24_cif.got.tgz:47322.got - 2010.04.10 23:14:56.
