data_PCOD8283782
_publ_section_title
;
Structure prediction by ZEFSAII (Michael W. Deem and Ramdas Pophale) SiO2 
 PCOD8283782
Probable space group: F M M M
;
_chemical_formula_sum "Si O2"
_cell_formula_units_Z 176
_cell_length_a 28.288950
_cell_length_b 24.182135
_cell_length_c 18.476809
_cell_angle_alpha 90.000000
_cell_angle_beta 90.000000
_cell_angle_gamma 90.000000
_cell_volume 12639.748680
_symmetry_space_group_name_H-M "F M M M"
_symmetry_group_IT_number 69
_symmetry_cell_setting 'orthorhombic'
loop_
_space_group_symop_operation_xyz
x,y,z
-x,-y,z
x,-y,-z
-x,y,-z
-x,-y,-z
x,y,-z
-x,y,z
x,-y,z
x,1/2+y,1/2+z
-x,1/2-y,1/2+z
x,1/2-y,1/2-z
-x,1/2+y,1/2-z
-x,1/2-y,1/2-z
x,1/2+y,1/2-z
-x,1/2+y,1/2+z
x,1/2-y,1/2+z
1/2+x,y,1/2+z
1/2-x,-y,1/2+z
1/2+x,-y,1/2-z
1/2-x,y,1/2-z
1/2-x,-y,1/2-z
1/2+x,y,1/2-z
1/2-x,y,1/2+z
1/2+x,-y,1/2+z
1/2+x,1/2+y,z
1/2-x,1/2-y,z
1/2+x,1/2-y,-z
1/2-x,1/2+y,-z
1/2-x,1/2-y,-z
1/2+x,1/2+y,-z
1/2-x,1/2+y,z
1/2+x,1/2-y,z
loop_
_atom_site_type_symbol
_atom_site_label
_atom_site_fract_x
_atom_site_fract_y
_atom_site_fract_z
Si Si1 0.770162 0.135854 0.825325
Si Si2 0.500000 0.563792 0.085881
Si Si3 0.325424 0.560865 0.920721
Si Si4 0.413693 0.860402 0.418075
Si Si5 0.643850 0.720726 0.174358
Si Si6 0.207326 0.792494 0.580370
O O1 0.750000 0.116270 0.750000
O O2 0.787612 0.080174 0.862681
O O3 0.811671 0.180432 0.812381
O O4 0.726253 0.157182 0.872306
O O5 0.500000 0.500000 0.117063
O O6 0.455227 0.600073 0.112360
O O7 0.500000 0.558938 0.000000
O O8 0.343844 0.500000 0.899890
O O9 0.368259 0.602248 0.922539
O O10 0.301378 0.560846 0.000000
O O11 0.425331 0.838068 0.500000
O O12 0.401537 0.810628 0.361673
O O13 0.628813 0.750000 0.250000
O O14 0.660796 0.766873 0.117382
O O15 0.192764 0.812437 0.500000
O O16 0.250000 0.750000 0.574249
#
# Coordination Sequence:
#
# PCOD8283782 Si02
#       6
#    32  16  32  32  32  32
#     4  10  17  25  38  55  77 104 140 174 199 231
#     4   9  16  28  47  66  82 102 128 161 198 239
#     4   9  17  28  40  55  78 105 132 166 205 241
#     4   9  17  28  43  62  81 102 133 164 196 243
#     4  10  17  26  39  56  81 110 134 165 201 233
#     4   9  16  24  37  54  74 103 140 175 201 227
#
# _framework density 13.924327999999999
#
# number of rings (size 3 to 8) (size 9 to 14) (size 15 to 20)
#    0.000    2.636    1.818    1.636    0.000    6.909 
#    0.000    0.455    0.000    0.000    0.000    0.000 
#    0.000    0.000    0.000    0.000    0.000    3.636 
#
# Total GULP energy -545182.288948 kJ/mol
# GULP energy per Si atom -12390.506567 kJ/mol
# Density = 1.389264 g / cm^3
# Si number density = 13.924328 Si / 1000 Ang^3
#
#
#
# Elastic Constant Matrix: (Units=GPa)
#
#
# Indices 1 2 3 4 5 6 
#
# 1 47.0802 19.5551 28.8011 0.0000 0.0000 0.0000
# 2 19.5551 51.8710 36.8472 0.0000 0.0000 0.0000
# 3 28.8011 36.8472 99.9558 0.0000 0.0000 0.0000
# 4 0.0000 0.0000 0.0000 20.0375 0.0000 0.0000
# 5 0.0000 0.0000 0.0000 0.0000 10.1769 0.0000
# 6 0.0000 0.0000 0.0000 0.0000 0.0000 -48.8771
#
#
#
# Elastic Compliance Matrix: (Units=1/GPa)
#
#
# Indices 1 2 3 4 5 6 
#
# 1 0.027252 -0.006362 -0.005507 0.000000 0.000000 0.000000
# 2 -0.006362 0.027603 -0.008342 0.000000 0.000000 0.000000
# 3 -0.005507 -0.008342 0.014667 0.000000 0.000000 0.000000
# 4 0.000000 0.000000 0.000000 0.049906 0.000000 0.000000
# 5 0.000000 0.000000 0.000000 0.000000 0.098262 0.000000
# 6 0.000000 0.000000 0.000000 0.000000 0.000000 -0.020459
#
#
# Mechanical properties :
#
#
# Convention : Reuss Voigt Hill
#
# Bulk Modulus (GPa) = 34.36565 41.03488 37.70027
# Shear Modulus (GPa) = 20.21409 3.84769 12.03089
#
# Velocity S-wave (km/s) = 3.81426 1.66412 2.94261
# Velocity P-wave (km/s) = 6.64319 5.76422 6.21926
#
# Compressibility (1/GPa) = 0.02909883
#
# Stress axis : x y z
#
# Youngs Moduli (GPa) = 36.69498 36.22782 68.18249
#
# Poissons Ratio (x) = 0.23047 0.37549
# Poissons Ratio (y) = 0.23344 0.56881
# Poissons Ratio (z) = 0.20208 0.30223
#
# Static dielectric constant tensor:
#      x y z
#    x 2.626360 0.000000 0.000000 
#    y 0.000000 2.729630 0.000000 
#    z 0.000000 0.000000 2.908860 
# 
# 
# High freq. dielectric constant tensor:
#      x y z
#    x 1.498600 0.000000 0.000000 
#    y 0.000000 1.516540 0.000000 
#    z 0.000000 0.000000 1.527100 
# 
# From -- ./inp_files/19021.got.cif
#   From: 2010.03.12/outbox.cif.g09.slc.cpg/sg69_10_cif.got.tgz:19021.got - 2010.04.10 23:52:46.
