data_PCOD8283581
_publ_section_title
;
Structure prediction by ZEFSAII (Michael W. Deem and Ramdas Pophale) SiO2 
 PCOD8283581
Probable space group: C C C A
;
_chemical_formula_sum "Si O2"
_cell_formula_units_Z 96
_cell_length_a 17.328518
_cell_length_b 8.747032
_cell_length_c 28.946598
_cell_angle_alpha 90.000000
_cell_angle_beta 90.000000
_cell_angle_gamma 90.000000
_cell_volume 4387.525636
_symmetry_space_group_name_H-M "C C C A"
_symmetry_group_IT_number 68
_space_group.IT_coordinate_system_code '2'
_symmetry_cell_setting 'orthorhombic'
loop_
_space_group_symop_operation_xyz
x,y,z
-x,1/2-y,z
x,1/2-y,1/2-z
-x,y,1/2-z
-x,-y,-z
x,1/2+y,-z
-x,1/2+y,1/2+z
x,-y,1/2+z
1/2+x,1/2+y,z
1/2-x,-y,z
1/2+x,-y,1/2-z
1/2-x,1/2+y,1/2-z
1/2-x,1/2-y,-z
1/2+x,y,-z
1/2-x,y,1/2+z
1/2+x,1/2-y,1/2+z
loop_
_atom_site_type_symbol
_atom_site_label
_atom_site_fract_x
_atom_site_fract_y
_atom_site_fract_z
Si Si1 0.690334 0.625444 0.717709
Si Si2 0.417172 0.685496 0.456465
Si Si3 0.585487 0.599508 0.270009
Si Si4 0.854247 0.135606 0.130675
Si Si5 0.415842 0.323890 0.452201
Si Si6 0.321072 0.791115 0.870725
O O1 0.733617 0.750000 0.750000
O O2 0.750000 0.500000 0.698363
O O3 0.629824 0.550018 0.753136
O O4 0.645643 0.708996 0.675410
O O5 0.500000 0.750000 0.467094
O O6 0.388161 0.756692 0.408875
O O7 0.423414 0.504719 0.457148
O O8 0.374260 0.748434 0.502572
O O9 0.626215 0.750000 0.250000
O O10 0.500000 0.585638 0.250000
O O11 0.589488 0.628188 0.325100
O O12 0.770346 0.207088 0.139999
O O13 0.849511 0.959686 0.115961
O O14 0.500000 0.250000 0.439094
O O15 0.350847 0.308844 0.412909
#
# Coordination Sequence:
#
# PCOD8283581 Si02
#       6
#    16  16  16  16  16  16
#     4  12  24  43  68  96 136 185 225 282 340 408
#     4  11  24  43  75  97 141 179 225 287 348 416
#     4  11  26  44  66  97 138 178 232 284 340 407
#     4  11  24  46  65 102 136 184 230 285 346 407
#     4  11  24  45  69 106 134 181 228 284 351 417
#     4  11  25  42  70  96 142 180 231 285 342 415
#
# _framework density 21.880215
#
# number of rings (size 3 to 8) (size 9 to 14) (size 15 to 20)
#    0.000    0.833    1.667    6.500    7.000    2.333 
#    0.000    0.000    0.000    0.000    0.000    0.000 
#    0.000    0.000    0.000    0.000    0.000    0.000 
#
# Total GULP energy -594665.550372 kJ/mol
# GULP energy per Si atom -12388.865633 kJ/mol
# Density = 2.183041 g / cm^3
# Si number density = 21.880215 Si / 1000 Ang^3
#
#
#
# Elastic Constant Matrix: (Units=GPa)
#
#
# Indices 1 2 3 4 5 6 
#
# 1 70.3203 31.0858 45.6482 0.0000 0.0000 0.0000
# 2 31.0858 175.6818 68.0660 0.0000 0.0000 0.0000
# 3 45.6482 68.0660 174.4103 0.0000 0.0000 0.0000
# 4 0.0000 0.0000 0.0000 52.2350 0.0000 0.0000
# 5 0.0000 0.0000 0.0000 0.0000 27.6466 0.0000
# 6 0.0000 0.0000 0.0000 0.0000 0.0000 18.0771
#
#
#
# Elastic Compliance Matrix: (Units=1/GPa)
#
#
# Indices 1 2 3 4 5 6 
#
# 1 0.017485 -0.001556 -0.003969 0.000000 0.000000 0.000000
# 2 -0.001556 0.006845 -0.002264 0.000000 0.000000 0.000000
# 3 -0.003969 -0.002264 0.007656 0.000000 0.000000 0.000000
# 4 0.000000 0.000000 0.000000 0.019144 0.000000 0.000000
# 5 0.000000 0.000000 0.000000 0.000000 0.036171 0.000000
# 6 0.000000 0.000000 0.000000 0.000000 0.000000 0.055319
#
#
# Mechanical properties :
#
#
# Convention : Reuss Voigt Hill
#
# Bulk Modulus (GPa) = 60.94802 78.89028 69.91915
# Shear Modulus (GPa) = 30.54994 37.96591 34.25792
#
# Velocity S-wave (km/s) = 3.74068 4.17006 3.96119
# Velocity P-wave (km/s) = 6.82442 7.70192 7.27641
#
# Compressibility (1/GPa) = 0.01640742
#
# Stress axis : x y z
#
# Youngs Moduli (GPa) = 57.19176 146.10098 130.61745
#
# Poissons Ratio (x) = 0.22735 0.51843
# Poissons Ratio (y) = 0.08900 0.29571
# Poissons Ratio (z) = 0.22700 0.33076
#
# Static dielectric constant tensor:
#      x y z
#    x 3.741100 0.000000 0.000000 
#    y 0.000000 4.285080 0.000000 
#    z 0.000000 0.000000 4.429220 
# 
# 
# High freq. dielectric constant tensor:
#      x y z
#    x 1.835210 0.000000 0.000000 
#    y 0.000000 1.887290 0.000000 
#    z 0.000000 0.000000 1.875830 
# 
# From -- ./inp_files/51736.got.cif
#   From: 2010.03.12/outbox.cif.g09.slc.cpg/sg68_26_cif.got.tgz:51736.got - 2010.04.10 23:14:56.
