data_PCOD8283995
_publ_section_title
;
Structure prediction by ZEFSAII (Michael W. Deem and Ramdas Pophale) SiO2 
 PCOD8283995
Probable space group: F M M M
;
_chemical_formula_sum "Si O2"
_cell_formula_units_Z 160
_cell_length_a 19.040037
_cell_length_b 25.358448
_cell_length_c 18.460621
_cell_angle_alpha 90.000000
_cell_angle_beta 90.000000
_cell_angle_gamma 90.000000
_cell_volume 8913.263885
_symmetry_space_group_name_H-M "F M M M"
_symmetry_group_IT_number 69
_symmetry_cell_setting 'orthorhombic'
loop_
_space_group_symop_operation_xyz
x,y,z
-x,-y,z
x,-y,-z
-x,y,-z
-x,-y,-z
x,y,-z
-x,y,z
x,-y,z
x,1/2+y,1/2+z
-x,1/2-y,1/2+z
x,1/2-y,1/2-z
-x,1/2+y,1/2-z
-x,1/2-y,1/2-z
x,1/2+y,1/2-z
-x,1/2+y,1/2+z
x,1/2-y,1/2+z
1/2+x,y,1/2+z
1/2-x,-y,1/2+z
1/2+x,-y,1/2-z
1/2-x,y,1/2-z
1/2-x,-y,1/2-z
1/2+x,y,1/2-z
1/2-x,y,1/2+z
1/2+x,-y,1/2+z
1/2+x,1/2+y,z
1/2-x,1/2-y,z
1/2+x,1/2-y,-z
1/2-x,1/2+y,-z
1/2-x,1/2-y,-z
1/2+x,1/2+y,-z
1/2-x,1/2+y,z
1/2+x,1/2-y,z
loop_
_atom_site_type_symbol
_atom_site_label
_atom_site_fract_x
_atom_site_fract_y
_atom_site_fract_z
Si Si1 0.175520 0.308476 0.778866
Si Si2 0.304341 0.863329 0.079980
Si Si3 0.420203 0.099625 0.733324
Si Si4 0.786306 0.940159 0.827517
Si Si5 0.578660 0.441020 0.391480
O O1 0.162531 0.250000 0.750000
O O2 0.250000 0.330319 0.750000
O O3 0.179589 0.313609 0.866754
O O4 0.110981 0.342366 0.748629
O O5 0.244542 0.900858 0.112806
O O6 0.373819 0.898239 0.069273
O O7 0.282138 0.842459 0.000000
O O8 0.500000 0.104702 0.703637
O O9 0.370121 0.070339 0.675779
O O10 0.417609 0.064712 0.805172
O O11 0.750000 0.929131 0.750000
O O12 0.772382 0.000000 0.852509
O O13 0.500000 0.431843 0.419650
O O14 0.604239 0.500000 0.410924
#
# Coordination Sequence:
#
# PCOD8283995 Si02
#       5
#    32  32  32  32  32
#     4  10  19  37  60  78 104 132 174 229 275 323
#     4  11  21  34  52  80 110 142 176 216 271 325
#     4  10  18  31  53  80 106 138 184 229 265 303
#     4  11  19  32  53  78 110 147 184 221 256 304
#     4   9  17  29  47  76 113 147 176 210 259 320
#
# _framework density 17.950776000000001
#
# number of rings (size 3 to 8) (size 9 to 14) (size 15 to 20)
#    0.000    1.800    6.000    1.200    0.000    3.600 
#    0.000    3.000    0.000    0.600    0.000    1.400 
#    0.000    0.000    0.000    0.000    0.000    0.000 
#
# Total GULP energy -495758.121584 kJ/mol
# GULP energy per Si atom -12393.953040 kJ/mol
# Density = 1.790992 g / cm^3
# Si number density = 17.950776 Si / 1000 Ang^3
#
#
#
# Elastic Constant Matrix: (Units=GPa)
#
#
# Indices 1 2 3 4 5 6 
#
# 1 113.6226 21.1090 23.6050 0.0000 0.0000 0.0000
# 2 21.1090 92.1348 45.0416 0.0000 0.0000 0.0000
# 3 23.6050 45.0416 92.3582 0.0000 0.0000 0.0000
# 4 0.0000 0.0000 0.0000 7.9419 0.0000 0.0000
# 5 0.0000 0.0000 0.0000 0.0000 11.8764 0.0000
# 6 0.0000 0.0000 0.0000 0.0000 0.0000 22.2248
#
#
#
# Elastic Compliance Matrix: (Units=1/GPa)
#
#
# Indices 1 2 3 4 5 6 
#
# 1 0.009409 -0.001287 -0.001777 0.000000 0.000000 0.000000
# 2 -0.001287 0.014427 -0.006707 0.000000 0.000000 0.000000
# 3 -0.001777 -0.006707 0.014553 0.000000 0.000000 0.000000
# 4 0.000000 0.000000 0.000000 0.125915 0.000000 0.000000
# 5 0.000000 0.000000 0.000000 0.000000 0.084201 0.000000
# 6 0.000000 0.000000 0.000000 0.000000 0.000000 0.044995
#
#
# Mechanical properties :
#
#
# Convention : Reuss Voigt Hill
#
# Bulk Modulus (GPa) = 53.05943 53.06967 53.06455
# Shear Modulus (GPa) = 15.65804 22.29927 18.97866
#
# Velocity S-wave (km/s) = 2.95664 3.52837 3.25508
# Velocity P-wave (km/s) = 6.42480 6.79907 6.61459
#
# Compressibility (1/GPa) = 0.01884679
#
# Stress axis : x y z
#
# Youngs Moduli (GPa) = 106.27693 69.31262 68.71635
#
# Poissons Ratio (x) = 0.08920 0.12212
# Poissons Ratio (y) = 0.13677 0.46089
# Poissons Ratio (z) = 0.18888 0.46489
#
# Static dielectric constant tensor:
#      x y z
#    x 3.609430 0.000000 0.000000 
#    y 0.000000 3.178510 0.000000 
#    z 0.000000 0.000000 3.074890 
# 
# 
# High freq. dielectric constant tensor:
#      x y z
#    x 1.696680 0.000000 0.000000 
#    y 0.000000 1.686890 0.000000 
#    z 0.000000 0.000000 1.661220 
# 
# From -- ./inp_files/23139.got.cif
#   From: 2010.03.12/outbox.cif.g09.slc.cpg/sg69_12_cif.got.tgz:23139.got - 2010.04.10 23:52:46.
