data_PCOD8283215
_publ_section_title
;
Structure prediction by ZEFSAII (Michael W. Deem and Ramdas Pophale) SiO2 
 PCOD8283215
Probable space group: C C C A
;
_chemical_formula_sum "Si O2"
_cell_formula_units_Z 88
_cell_length_a 8.347282
_cell_length_b 25.246281
_cell_length_c 19.701254
_cell_angle_alpha 90.000000
_cell_angle_beta 90.000000
_cell_angle_gamma 90.000000
_cell_volume 4151.799456
_symmetry_space_group_name_H-M "C C C A"
_symmetry_group_IT_number 68
_space_group.IT_coordinate_system_code '2'
_symmetry_cell_setting 'orthorhombic'
loop_
_space_group_symop_operation_xyz
x,y,z
-x,1/2-y,z
x,1/2-y,1/2-z
-x,y,1/2-z
-x,-y,-z
x,1/2+y,-z
-x,1/2+y,1/2+z
x,-y,1/2+z
1/2+x,1/2+y,z
1/2-x,-y,z
1/2+x,-y,1/2-z
1/2-x,1/2+y,1/2-z
1/2-x,1/2-y,-z
1/2+x,y,-z
1/2-x,y,1/2+z
1/2+x,1/2-y,1/2+z
loop_
_atom_site_type_symbol
_atom_site_label
_atom_site_fract_x
_atom_site_fract_y
_atom_site_fract_z
Si Si1 0.531011 0.860811 0.027472
Si Si2 0.587358 0.523708 0.817829
Si Si3 0.171131 0.268110 0.672800
Si Si4 0.141546 0.128026 0.899520
Si Si5 0.581687 0.471879 0.563903
Si Si6 0.000000 0.250000 0.401345
O O1 0.711064 0.875008 0.047909
O O2 0.413830 0.908210 0.053724
O O3 0.487366 0.802818 0.054535
O O4 0.512806 0.857061 0.945606
O O5 0.500000 0.542286 0.750000
O O6 0.750000 0.500000 0.789582
O O7 0.613596 0.571930 0.867633
O O8 0.503402 0.479118 0.863384
O O9 0.173559 0.250000 0.750000
O O10 0.173454 0.331364 0.662070
O O11 0.334930 0.245979 0.640858
O O12 0.000000 0.250000 0.639807
O O13 0.500000 0.500000 0.500000
O O14 0.750000 0.500000 0.571315
#
# Coordination Sequence:
#
# PCOD8283215 Si02
#       6
#    16  16  16  16  16   8
#     4  11  24  43  70 104 136 182 233 294 357 417
#     4  12  26  47  65 100 140 178 233 288 356 426
#     4  10  24  44  66  98 136 188 237 280 353 432
#     4  11  25  43  70 103 137 179 231 295 351 432
#     4  12  23  42  70 101 136 183 233 288 354 427
#     4  10  25  44  68 100 143 180 236 302 348 418
#
# _framework density 21.195630000000001
#
# number of rings (size 3 to 8) (size 9 to 14) (size 15 to 20)
#    0.000    0.909    3.636    2.455    6.364    1.455 
#    3.273    0.000    0.000    0.000    0.000    0.000 
#    0.000    0.000    0.000    0.000    0.000    0.000 
#
# Total GULP energy -545248.489562 kJ/mol
# GULP energy per Si atom -12392.011126 kJ/mol
# Density = 2.114739 g / cm^3
# Si number density = 21.195630 Si / 1000 Ang^3
#
#
#
# Elastic Constant Matrix: (Units=GPa)
#
#
# Indices 1 2 3 4 5 6 
#
# 1 136.1039 41.4696 47.8555 0.0000 0.0000 0.0000
# 2 41.4696 152.7922 60.4456 0.0000 0.0000 0.0000
# 3 47.8555 60.4456 122.6390 0.0000 0.0000 0.0000
# 4 0.0000 0.0000 0.0000 529.9293 0.0000 0.0000
# 5 0.0000 0.0000 0.0000 0.0000 -289.8212 0.0000
# 6 0.0000 0.0000 0.0000 0.0000 0.0000 29.7711
#
#
#
# Elastic Compliance Matrix: (Units=1/GPa)
#
#
# Indices 1 2 3 4 5 6 
#
# 1 0.008709 -0.001266 -0.002774 0.000000 0.000000 0.000000
# 2 -0.001266 0.008314 -0.003604 0.000000 0.000000 0.000000
# 3 -0.002774 -0.003604 0.011013 0.000000 0.000000 0.000000
# 4 0.000000 0.000000 0.000000 0.001887 0.000000 0.000000
# 5 0.000000 0.000000 0.000000 0.000000 -0.003450 0.000000
# 6 0.000000 0.000000 0.000000 0.000000 0.000000 0.033590
#
#
# Mechanical properties :
#
#
# Convention : Reuss Voigt Hill
#
# Bulk Modulus (GPa) = 78.44788 79.00850 78.72819
# Shear Modulus (GPa) = 62.81501 71.42682 67.12091
#
# Velocity S-wave (km/s) = 5.44979 5.81137 5.63348
# Velocity P-wave (km/s) = 8.75739 9.07668 8.91846
#
# Compressibility (1/GPa) = 0.01274732
#
# Stress axis : x y z
#
# Youngs Moduli (GPa) = 114.83001 120.27683 90.80402
#
# Poissons Ratio (x) = 0.15229 0.25190
# Poissons Ratio (y) = 0.14539 0.32724
# Poissons Ratio (z) = 0.31856 0.43345
#
# Static dielectric constant tensor:
#      x y z
#    x 5.735700 0.000000 0.000000 
#    y 0.000000 3.952860 0.000000 
#    z 0.000000 0.000000 3.753230 
# 
# 
# High freq. dielectric constant tensor:
#      x y z
#    x 1.844880 0.000000 0.000000 
#    y 0.000000 1.841650 0.000000 
#    z 0.000000 0.000000 1.827410 
# 
# From -- ./inp_files/36303.got.cif
#   From: 2010.03.12/outbox.cif.g09.slc.cpg/sg68_19_cif.got.tgz:36303.got - 2010.04.10 23:14:56.
