data_PCOD8283522
_publ_section_title
;
Structure prediction by ZEFSAII (Michael W. Deem and Ramdas Pophale) SiO2 
 PCOD8283522
Probable space group: C C C A
;
_chemical_formula_sum "Si O2"
_cell_formula_units_Z 64
_cell_length_a 8.643672
_cell_length_b 32.396332
_cell_length_c 10.519575
_cell_angle_alpha 90.000000
_cell_angle_beta 90.000000
_cell_angle_gamma 90.000000
_cell_volume 2945.725767
_symmetry_space_group_name_H-M "C C C A"
_symmetry_group_IT_number 68
_space_group.IT_coordinate_system_code '2'
_symmetry_cell_setting 'orthorhombic'
loop_
_space_group_symop_operation_xyz
x,y,z
-x,1/2-y,z
x,1/2-y,1/2-z
-x,y,1/2-z
-x,-y,-z
x,1/2+y,-z
-x,1/2+y,1/2+z
x,-y,1/2+z
1/2+x,1/2+y,z
1/2-x,-y,z
1/2+x,-y,1/2-z
1/2-x,1/2+y,1/2-z
1/2-x,1/2-y,-z
1/2+x,y,-z
1/2-x,y,1/2+z
1/2+x,1/2-y,1/2+z
loop_
_atom_site_type_symbol
_atom_site_label
_atom_site_fract_x
_atom_site_fract_y
_atom_site_fract_z
Si Si1 0.173285 0.732748 0.876485
Si Si2 0.920346 0.016831 0.623906
Si Si3 0.380768 0.111985 0.398479
Si Si4 0.286796 0.358735 0.362605
O O1 0.258039 0.750000 0.750000
O O2 0.194304 0.683855 0.876315
O O3 0.000000 0.750000 0.875669
O O4 0.250000 0.750000 0.000000
O O5 0.936981 0.065959 0.625846
O O6 0.000000 0.998783 0.750000
O O7 0.750000 0.000000 0.624302
O O8 0.000000 0.000000 0.500000
O O9 0.529879 0.142703 0.396253
O O10 0.266058 0.125040 0.282231
O O11 0.293428 0.111937 0.533012
#
# Coordination Sequence:
#
# PCOD8283522 Si02
#       4
#    16  16  16  16
#     4  11  24  42  66 100 134 176 231 281 352 413
#     4  12  26  46  72 105 148 187 240 292 357 432
#     4  11  25  45  68 103 135 185 237 280 358 414
#     4  11  23  44  68  95 142 176 232 293 338 427
#
# _framework density 21.726393000000002
#
# number of rings (size 3 to 8) (size 9 to 14) (size 15 to 20)
#    0.000    0.750    2.500    5.250    3.500    5.500 
#    0.000    0.000    0.000    0.000    0.000    0.000 
#    0.000    0.000    0.000    0.000    0.000    0.000 
#
# Total GULP energy -396714.312986 kJ/mol
# GULP energy per Si atom -12397.322281 kJ/mol
# Density = 2.167694 g / cm^3
# Si number density = 21.726393 Si / 1000 Ang^3
#
#
#
# Elastic Constant Matrix: (Units=GPa)
#
#
# Indices 1 2 3 4 5 6 
#
# 1 123.8254 44.9304 74.8450 0.0000 0.0000 0.0000
# 2 44.9304 117.4128 52.5327 0.0000 0.0000 0.0000
# 3 74.8450 52.5327 202.8708 0.0000 0.0000 0.0000
# 4 0.0000 0.0000 0.0000 137.6520 0.0000 0.0000
# 5 0.0000 0.0000 0.0000 0.0000 44.8818 0.0000
# 6 0.0000 0.0000 0.0000 0.0000 0.0000 34.9710
#
#
#
# Elastic Compliance Matrix: (Units=1/GPa)
#
#
# Indices 1 2 3 4 5 6 
#
# 1 0.011120 -0.002737 -0.003394 0.000000 0.000000 0.000000
# 2 -0.002737 0.010307 -0.001659 0.000000 0.000000 0.000000
# 3 -0.003394 -0.001659 0.006611 0.000000 0.000000 0.000000
# 4 0.000000 0.000000 0.000000 0.007265 0.000000 0.000000
# 5 0.000000 0.000000 0.000000 0.000000 0.022281 0.000000
# 6 0.000000 0.000000 0.000000 0.000000 0.000000 0.028595
#
#
# Mechanical properties :
#
#
# Convention : Reuss Voigt Hill
#
# Bulk Modulus (GPa) = 80.26945 87.63614 83.95279
# Shear Modulus (GPa) = 47.20932 61.62101 54.41516
#
# Velocity S-wave (km/s) = 4.66650 5.33140 5.00999
# Velocity P-wave (km/s) = 8.12777 8.84999 8.49656
#
# Compressibility (1/GPa) = 0.01245804
#
# Stress axis : x y z
#
# Youngs Moduli (GPa) = 89.92468 97.02488 151.26334
#
# Poissons Ratio (x) = 0.26555 0.51338
# Poissons Ratio (y) = 0.24612 0.25097
# Poissons Ratio (z) = 0.30520 0.16098
#
# Static dielectric constant tensor:
#      x y z
#    x 3.496820 0.000000 0.000000 
#    y 0.000000 3.986380 0.000000 
#    z 0.000000 0.000000 4.927880 
# 
# 
# High freq. dielectric constant tensor:
#      x y z
#    x 1.847770 0.000000 0.000000 
#    y 0.000000 1.852050 0.000000 
#    z 0.000000 0.000000 1.890500 
# 
# From -- ./inp_files/10760.got.cif
#   From: 2010.03.12/outbox.cif.g09.slc.cpg/sg68_6_cif.got.tgz:10760.got - 2010.04.10 23:14:56.
