data_PCOD8283417
_publ_section_title
;
Structure prediction by ZEFSAII (Michael W. Deem and Ramdas Pophale) SiO2 
 PCOD8283417
Probable space group: C C C A
;
_chemical_formula_sum "Si O2"
_cell_formula_units_Z 96
_cell_length_a 24.144472
_cell_length_b 20.323659
_cell_length_c 8.781737
_cell_angle_alpha 90.000000
_cell_angle_beta 90.000000
_cell_angle_gamma 90.000000
_cell_volume 4309.233610
_symmetry_space_group_name_H-M "C C C A"
_symmetry_group_IT_number 68
_space_group.IT_coordinate_system_code '2'
_symmetry_cell_setting 'orthorhombic'
loop_
_space_group_symop_operation_xyz
x,y,z
-x,1/2-y,z
x,1/2-y,1/2-z
-x,y,1/2-z
-x,-y,-z
x,1/2+y,-z
-x,1/2+y,1/2+z
x,-y,1/2+z
1/2+x,1/2+y,z
1/2-x,-y,z
1/2+x,-y,1/2-z
1/2-x,1/2+y,1/2-z
1/2-x,1/2-y,-z
1/2+x,y,-z
1/2-x,y,1/2+z
1/2+x,1/2-y,1/2+z
loop_
_atom_site_type_symbol
_atom_site_label
_atom_site_fract_x
_atom_site_fract_y
_atom_site_fract_z
Si Si1 0.286217 0.942884 0.048066
Si Si2 0.905383 0.443154 0.141823
Si Si3 0.866269 0.183300 0.175425
Si Si4 0.243431 0.144164 0.789360
Si Si5 0.130710 0.816691 0.176142
Si Si6 0.941865 0.070810 0.685245
O O1 0.284563 0.875873 0.949495
O O2 0.250000 0.000000 0.970667
O O3 0.348288 0.969411 0.068104
O O4 0.258645 0.924668 0.208745
O O5 0.894389 0.377068 0.236542
O O6 0.930634 0.497464 0.253061
O O7 0.946054 0.430221 0.998796
O O8 0.889417 0.250000 0.250000
O O9 0.799588 0.185086 0.187921
O O10 0.885139 0.180228 0.000703
O O11 0.197560 0.184350 0.694225
O O12 0.106256 0.750000 0.250000
O O13 0.106263 0.880007 0.261570
O O14 0.000000 0.096953 0.750000
#
# Coordination Sequence:
#
# PCOD8283417 Si02
#       6
#    16  16  16  16  16  16
#     4  11  22  35  59  97 140 178 218 264 323 406
#     4  11  25  43  69  99 136 175 223 279 338 402
#     4  11  25  43  66 101 140 183 222 267 333 412
#     4  11  22  37  61  94 138 181 221 262 325 402
#     4  12  25  43  68  97 137 178 227 279 340 404
#     4  12  26  47  72  99 129 172 229 289 349 398
#
# _framework density 22.277744999999999
#
# number of rings (size 3 to 8) (size 9 to 14) (size 15 to 20)
#    0.000    0.667    3.333    4.500    7.000    1.667 
#    0.000    0.000    0.000    3.500    0.000    0.000 
#    0.000    0.000    0.000    0.000    0.000    0.000 
#
# Total GULP energy -595357.121153 kJ/mol
# GULP energy per Si atom -12403.273357 kJ/mol
# Density = 2.222704 g / cm^3
# Si number density = 22.277745 Si / 1000 Ang^3
#
#
#
# Elastic Constant Matrix: (Units=GPa)
#
#
# Indices 1 2 3 4 5 6 
#
# 1 70.1462 18.8908 22.3002 0.0000 0.0000 0.0000
# 2 18.8908 113.0309 48.4770 0.0000 0.0000 0.0000
# 3 22.3002 48.4770 147.0036 0.0000 0.0000 0.0000
# 4 0.0000 0.0000 0.0000 34.6914 0.0000 0.0000
# 5 0.0000 0.0000 0.0000 0.0000 28.2502 0.0000
# 6 0.0000 0.0000 0.0000 0.0000 0.0000 15.7873
#
#
#
# Elastic Compliance Matrix: (Units=1/GPa)
#
#
# Indices 1 2 3 4 5 6 
#
# 1 0.015292 -0.001818 -0.001720 0.000000 0.000000 0.000000
# 2 -0.001818 0.010521 -0.003194 0.000000 0.000000 0.000000
# 3 -0.001720 -0.003194 0.008117 0.000000 0.000000 0.000000
# 4 0.000000 0.000000 0.000000 0.028826 0.000000 0.000000
# 5 0.000000 0.000000 0.000000 0.000000 0.035398 0.000000
# 6 0.000000 0.000000 0.000000 0.000000 0.000000 0.063342
#
#
# Mechanical properties :
#
#
# Convention : Reuss Voigt Hill
#
# Bulk Modulus (GPa) = 48.86162 56.61296 52.73729
# Shear Modulus (GPa) = 27.50558 31.77996 29.64277
#
# Velocity S-wave (km/s) = 3.51759 3.78105 3.65170
# Velocity P-wave (km/s) = 6.20310 6.67302 6.44235
#
# Compressibility (1/GPa) = 0.02046596
#
# Stress axis : x y z
#
# Youngs Moduli (GPa) = 65.39174 95.05112 123.20335
#
# Poissons Ratio (x) = 0.17280 0.21195
# Poissons Ratio (y) = 0.11888 0.39346
# Poissons Ratio (z) = 0.11250 0.30355
#
# Static dielectric constant tensor:
#      x y z
#    x 3.779800 0.000000 0.000000 
#    y 0.000000 3.783630 0.000000 
#    z 0.000000 0.000000 4.104040 
# 
# 
# High freq. dielectric constant tensor:
#      x y z
#    x 1.851690 0.000000 0.000000 
#    y 0.000000 1.875620 0.000000 
#    z 0.000000 0.000000 1.895400 
# 
# From -- ./inp_files/7263.got.cif
#   From: 2010.03.12/outbox.cif.g09.slc.cpg/sg68_4_cif.got.tgz:7263.got - 2010.04.10 23:14:56.
