data_PCOD8283805
_publ_section_title
;
Structure prediction by ZEFSAII (Michael W. Deem and Ramdas Pophale) SiO2 
 PCOD8283805
Probable space group: F M M M
;
_chemical_formula_sum "Si O2"
_cell_formula_units_Z 192
_cell_length_a 17.328219
_cell_length_b 24.356004
_cell_length_c 27.451580
_cell_angle_alpha 90.000000
_cell_angle_beta 90.000000
_cell_angle_gamma 90.000000
_cell_volume 11585.834235
_symmetry_space_group_name_H-M "F M M M"
_symmetry_group_IT_number 69
_symmetry_cell_setting 'orthorhombic'
loop_
_space_group_symop_operation_xyz
x,y,z
-x,-y,z
x,-y,-z
-x,y,-z
-x,-y,-z
x,y,-z
-x,y,z
x,-y,z
x,1/2+y,1/2+z
-x,1/2-y,1/2+z
x,1/2-y,1/2-z
-x,1/2+y,1/2-z
-x,1/2-y,1/2-z
x,1/2+y,1/2-z
-x,1/2+y,1/2+z
x,1/2-y,1/2+z
1/2+x,y,1/2+z
1/2-x,-y,1/2+z
1/2+x,-y,1/2-z
1/2-x,y,1/2-z
1/2-x,-y,1/2-z
1/2+x,y,1/2-z
1/2-x,y,1/2+z
1/2+x,-y,1/2+z
1/2+x,1/2+y,z
1/2-x,1/2-y,z
1/2+x,1/2-y,-z
1/2-x,1/2+y,-z
1/2-x,1/2-y,-z
1/2+x,1/2+y,-z
1/2-x,1/2+y,z
1/2+x,1/2-y,z
loop_
_atom_site_type_symbol
_atom_site_label
_atom_site_fract_x
_atom_site_fract_y
_atom_site_fract_z
Si Si1 0.415498 0.689159 0.266829
Si Si2 0.409010 0.848945 0.445244
Si Si3 0.411004 0.937926 0.633394
Si Si4 0.663947 0.735557 0.552222
Si Si5 0.200700 0.305837 0.149511
Si Si6 0.804225 0.385369 0.706277
O O1 0.500000 0.660238 0.270811
O O2 0.428745 0.750000 0.250000
O O3 0.375963 0.691883 0.318938
O O4 0.361353 0.659598 0.228061
O O5 0.378076 0.861375 0.500000
O O6 0.500000 0.845794 0.445359
O O7 0.381496 0.897046 0.408980
O O8 0.377801 0.790178 0.426873
O O9 0.500000 0.925148 0.647681
O O10 0.356524 0.931982 0.681056
O O11 0.403179 0.000000 0.613924
O O12 0.625930 0.716124 0.500000
O O13 0.750000 0.750000 0.539249
O O14 0.666712 0.689263 0.594376
O O15 0.250000 0.250000 0.156528
O O16 0.253410 0.357455 0.163847
O O17 0.750000 0.409406 0.750000
#
# Coordination Sequence:
#
# PCOD8283805 Si02
#       6
#    32  32  32  32  32  32
#     4  10  19  28  42  64  87 115 148 182 220 259
#     4   9  18  31  46  66  91 119 150 183 221 264
#     4  10  20  33  49  68  88 114 151 190 228 268
#     4   9  17  28  43  63  87 116 147 177 212 259
#     4  10  17  28  43  62  89 116 148 182 215 260
#     4  10  20  32  47  63  90 120 147 189 222 264
#
# _framework density 16.571961000000002
#
# number of rings (size 3 to 8) (size 9 to 14) (size 15 to 20)
#    0.000    2.333    1.667    2.500    0.000    1.333 
#    0.000    1.667    0.000    0.000    0.000    0.000 
#    0.000    0.000    0.000    0.333    0.000    1.500 
#
# Total GULP energy -594676.277539 kJ/mol
# GULP energy per Si atom -12389.089115 kJ/mol
# Density = 1.653424 g / cm^3
# Si number density = 16.571961 Si / 1000 Ang^3
#
#
#
# Elastic Constant Matrix: (Units=GPa)
#
#
# Indices 1 2 3 4 5 6 
#
# 1 65.0819 13.9171 40.0187 0.0000 0.0000 0.0000
# 2 13.9171 32.1033 38.5067 0.0000 0.0000 0.0000
# 3 40.0187 38.5067 121.8816 0.0000 0.0000 0.0000
# 4 0.0000 0.0000 0.0000 20.4342 0.0000 0.0000
# 5 0.0000 0.0000 0.0000 0.0000 21.5862 0.0000
# 6 0.0000 0.0000 0.0000 0.0000 0.0000 19.7395
#
#
#
# Elastic Compliance Matrix: (Units=1/GPa)
#
#
# Indices 1 2 3 4 5 6 
#
# 1 0.019282 -0.001232 -0.005942 0.000000 0.000000 0.000000
# 2 -0.001232 0.050235 -0.015466 0.000000 0.000000 0.000000
# 3 -0.005942 -0.015466 0.015042 0.000000 0.000000 0.000000
# 4 0.000000 0.000000 0.000000 0.048938 0.000000 0.000000
# 5 0.000000 0.000000 0.000000 0.000000 0.046326 0.000000
# 6 0.000000 0.000000 0.000000 0.000000 0.000000 0.050660
#
#
# Mechanical properties :
#
#
# Convention : Reuss Voigt Hill
#
# Bulk Modulus (GPa) = 25.45916 44.88353 35.17135
# Shear Modulus (GPa) = 17.30964 20.79360 19.05162
#
# Velocity S-wave (km/s) = 3.23540 3.54608 3.39430
# Velocity P-wave (km/s) = 5.41786 6.62639 6.05237
#
# Compressibility (1/GPa) = 0.03927859
#
# Stress axis : x y z
#
# Youngs Moduli (GPa) = 51.86078 19.90649 66.48011
#
# Poissons Ratio (x) = 0.02452 0.39502
# Poissons Ratio (y) = 0.06389 1.02821
# Poissons Ratio (z) = 0.30816 0.30788
#
# Static dielectric constant tensor:
#      x y z
#    x 2.916800 0.000000 0.000000 
#    y 0.000000 2.732340 0.000000 
#    z 0.000000 0.000000 3.555780 
# 
# 
# High freq. dielectric constant tensor:
#      x y z
#    x 1.640490 0.000000 0.000000 
#    y 0.000000 1.587870 0.000000 
#    z 0.000000 0.000000 1.650460 
# 
# From -- ./inp_files/42856.got.cif
#   From: 2010.03.12/outbox.cif.g09.slc.cpg/sg69_22_cif.got.tgz:42856.got - 2010.04.10 23:52:46.
