data_PCOD8283165
_publ_section_title
;
Structure prediction by ZEFSAII (Michael W. Deem and Ramdas Pophale) SiO2 
 PCOD8283165
Probable space group: C C C A
;
_chemical_formula_sum "Si O2"
_cell_formula_units_Z 60
_cell_length_a 15.047089
_cell_length_b 31.928288
_cell_length_c 5.358283
_cell_angle_alpha 90.000000
_cell_angle_beta 90.000000
_cell_angle_gamma 90.000000
_cell_volume 2574.268066
_symmetry_space_group_name_H-M "C C C A"
_symmetry_group_IT_number 68
_space_group.IT_coordinate_system_code '2'
_symmetry_cell_setting 'orthorhombic'
loop_
_space_group_symop_operation_xyz
x,y,z
-x,1/2-y,z
x,1/2-y,1/2-z
-x,y,1/2-z
-x,-y,-z
x,1/2+y,-z
-x,1/2+y,1/2+z
x,-y,1/2+z
1/2+x,1/2+y,z
1/2-x,-y,z
1/2+x,-y,1/2-z
1/2-x,1/2+y,1/2-z
1/2-x,1/2-y,-z
1/2+x,y,-z
1/2-x,y,1/2+z
1/2+x,1/2-y,1/2+z
loop_
_atom_site_type_symbol
_atom_site_label
_atom_site_fract_x
_atom_site_fract_y
_atom_site_fract_z
Si Si1 0.690816 0.102778 0.467708
Si Si2 0.601129 0.017383 0.492204
Si Si3 0.000000 0.250000 0.750000
Si Si4 0.916956 0.318088 0.402366
Si Si5 0.303318 0.750000 0.250000
O O1 0.750301 0.099659 0.717593
O O2 0.614171 0.067174 0.471921
O O3 0.635722 0.145617 0.455701
O O4 0.500000 0.000000 0.500000
O O5 0.648763 0.002492 0.748109
O O6 0.061200 0.219422 0.590601
O O7 0.856670 0.293454 0.205179
O O8 0.000000 0.337407 0.250000
O O9 0.250000 0.750000 0.500000
#
# Coordination Sequence:
#
# PCOD8283165 Si02
#       5
#    16  16   4  16   8
#     4  12  29  49  74 114 154 192 247 315 380 442
#     4  10  23  45  77 109 144 196 243 292 369 452
#     4  12  24  48  76 108 144 202 270 302 358 446
#     4  12  27  46  74 107 147 202 251 309 371 452
#     4  12  24  44  71 101 144 188 242 302 372 430
#
# _framework density 23.307594999999999
#
# number of rings (size 3 to 8) (size 9 to 14) (size 15 to 20)
#    0.000    0.533    2.667    4.000    7.467    5.333 
#    0.000    0.000    0.000    0.000    0.000    0.000 
#    0.000    0.000    0.000    0.000    0.000    0.000 
#
# Total GULP energy -371734.735716 kJ/mol
# GULP energy per Si atom -12391.157857 kJ/mol
# Density = 2.325455 g / cm^3
# Si number density = 23.307595 Si / 1000 Ang^3
#
#
#
# Elastic Constant Matrix: (Units=GPa)
#
#
# Indices 1 2 3 4 5 6 
#
# 1 109.3403 62.5683 44.8307 0.0000 0.0000 0.0000
# 2 62.5683 187.9040 47.8036 0.0000 0.0000 0.0000
# 3 44.8307 47.8036 193.6777 0.0000 0.0000 0.0000
# 4 0.0000 0.0000 0.0000 26.8182 0.0000 0.0000
# 5 0.0000 0.0000 0.0000 0.0000 7.7777 0.0000
# 6 0.0000 0.0000 0.0000 0.0000 0.0000 12.3483
#
#
#
# Elastic Compliance Matrix: (Units=1/GPa)
#
#
# Indices 1 2 3 4 5 6 
#
# 1 0.011919 -0.003486 -0.001899 0.000000 0.000000 0.000000
# 2 -0.003486 0.006698 -0.000846 0.000000 0.000000 0.000000
# 3 -0.001899 -0.000846 0.005812 0.000000 0.000000 0.000000
# 4 0.000000 0.000000 0.000000 0.037288 0.000000 0.000000
# 5 0.000000 0.000000 0.000000 0.000000 0.128573 0.000000
# 6 0.000000 0.000000 0.000000 0.000000 0.000000 0.080983
#
#
# Mechanical properties :
#
#
# Convention : Reuss Voigt Hill
#
# Bulk Modulus (GPa) = 83.56244 89.03635 86.29940
# Shear Modulus (GPa) = 17.37785 31.77013 24.57399
#
# Velocity S-wave (km/s) = 2.73351 3.69600 3.25057
# Velocity P-wave (km/s) = 6.77441 7.51647 7.15507
#
# Compressibility (1/GPa) = 0.01196710
#
# Stress axis : x y z
#
# Youngs Moduli (GPa) = 83.90089 149.30150 172.07104
#
# Poissons Ratio (x) = 0.52043 0.32668
# Poissons Ratio (y) = 0.29246 0.14563
# Poissons Ratio (z) = 0.15929 0.12636
#
# Static dielectric constant tensor:
#      x y z
#    x 3.517400 0.000000 0.000000 
#    y 0.000000 4.434260 0.000000 
#    z 0.000000 0.000000 5.110790 
# 
# 
# High freq. dielectric constant tensor:
#      x y z
#    x 1.920920 0.000000 0.000000 
#    y 0.000000 1.928850 0.000000 
#    z 0.000000 0.000000 1.947810 
# 
# From -- ./inp_files/992.got.cif
#   From: 2010.03.12/outbox.cif.g09.slc.cpg/sg68_1_cif.got.tgz:992.got - 2010.04.10 23:14:56.
