data_PCOD8283765
_publ_section_title
;
Structure prediction by ZEFSAII (Michael W. Deem and Ramdas Pophale) SiO2 
 PCOD8283765
Probable space group: F M M M
;
_chemical_formula_sum "Si O2"
_cell_formula_units_Z 176
_cell_length_a 26.056723
_cell_length_b 28.271845
_cell_length_c 14.155497
_cell_angle_alpha 90.000000
_cell_angle_beta 90.000000
_cell_angle_gamma 90.000000
_cell_volume 10427.953103
_symmetry_space_group_name_H-M "F M M M"
_symmetry_group_IT_number 69
_symmetry_cell_setting 'orthorhombic'
loop_
_space_group_symop_operation_xyz
x,y,z
-x,-y,z
x,-y,-z
-x,y,-z
-x,-y,-z
x,y,-z
-x,y,z
x,-y,z
x,1/2+y,1/2+z
-x,1/2-y,1/2+z
x,1/2-y,1/2-z
-x,1/2+y,1/2-z
-x,1/2-y,1/2-z
x,1/2+y,1/2-z
-x,1/2+y,1/2+z
x,1/2-y,1/2+z
1/2+x,y,1/2+z
1/2-x,-y,1/2+z
1/2+x,-y,1/2-z
1/2-x,y,1/2-z
1/2-x,-y,1/2-z
1/2+x,y,1/2-z
1/2-x,y,1/2+z
1/2+x,-y,1/2+z
1/2+x,1/2+y,z
1/2-x,1/2-y,z
1/2+x,1/2-y,-z
1/2-x,1/2+y,-z
1/2-x,1/2-y,-z
1/2+x,1/2+y,-z
1/2-x,1/2+y,z
1/2+x,1/2-y,z
loop_
_atom_site_type_symbol
_atom_site_label
_atom_site_fract_x
_atom_site_fract_y
_atom_site_fract_z
Si Si1 0.000000 0.617790 0.106488
Si Si2 0.788398 0.947750 0.391073
Si Si3 0.146199 0.319978 0.236869
Si Si4 0.500000 0.277163 0.652743
Si Si5 0.390673 0.900589 0.893137
Si Si6 0.609634 0.758243 0.393522
Si Si7 0.250000 0.871919 0.750000
O O1 0.950117 0.584153 0.122099
O O2 0.000000 0.665998 0.168617
O O3 0.000000 0.637878 0.000000
O O4 0.773354 0.943239 0.500000
O O5 0.850077 0.942613 0.376342
O O6 0.757494 0.906247 0.339588
O O7 0.773420 0.000000 0.353010
O O8 0.116403 0.361348 0.185473
O O9 0.148320 0.277467 0.160572
O O10 0.113909 0.306214 0.331095
O O11 0.202466 0.337211 0.267141
O O12 0.500000 0.250000 0.750000
O O13 0.551690 0.261365 0.599209
O O14 0.382727 0.880345 0.000000
O O15 0.629422 0.767362 0.500000
#
# Coordination Sequence:
#
# PCOD8283765 Si02
#       7
#    16  32  32  16  32  32  16
#     4  10  16  24  43  68  92 123 156 181 222 277
#     4   9  18  33  53  74  94 118 151 193 243 294
#     4  10  20  33  46  66  91 125 167 203 242 277
#     4  12  18  30  48  70  94 127 165 196 228 271
#     4   9  16  28  47  71  97 123 154 192 234 286
#     4  11  21  32  47  68  97 127 163 203 236 273
#     4  10  21  35  52  68  92 124 160 203 241 288
#
# _framework density 16.877713
#
# number of rings (size 3 to 8) (size 9 to 14) (size 15 to 20)
#    0.000    2.000    3.636    1.636    0.000    2.909 
#    0.000    1.364    0.000    2.727    0.000    0.000 
#    0.000    0.000    0.000    0.000    0.000   79.818 
#
# Total GULP energy -545108.302044 kJ/mol
# GULP energy per Si atom -12388.825046 kJ/mol
# Density = 1.683930 g / cm^3
# Si number density = 16.877713 Si / 1000 Ang^3
#
#
#
# Elastic Constant Matrix: (Units=GPa)
#
#
# Indices 1 2 3 4 5 6 
#
# 1 110.6997 31.9578 25.7182 0.0000 0.0000 0.0000
# 2 31.9578 58.2898 30.5153 0.0000 0.0000 0.0000
# 3 25.7182 30.5153 95.3633 0.0000 0.0000 0.0000
# 4 0.0000 0.0000 0.0000 20.6836 0.0000 0.0000
# 5 0.0000 0.0000 0.0000 0.0000 19.4214 0.0000
# 6 0.0000 0.0000 0.0000 0.0000 0.0000 15.6375
#
#
#
# Elastic Compliance Matrix: (Units=1/GPa)
#
#
# Indices 1 2 3 4 5 6 
#
# 1 0.010851 -0.005306 -0.001228 0.000000 0.000000 0.000000
# 2 -0.005306 0.023202 -0.005994 0.000000 0.000000 0.000000
# 3 -0.001228 -0.005994 0.012735 0.000000 0.000000 0.000000
# 4 0.000000 0.000000 0.000000 0.048347 0.000000 0.000000
# 5 0.000000 0.000000 0.000000 0.000000 0.051490 0.000000
# 6 0.000000 0.000000 0.000000 0.000000 0.000000 0.063949
#
#
# Mechanical properties :
#
#
# Convention : Reuss Voigt Hill
#
# Bulk Modulus (GPa) = 46.01387 48.97061 47.49224
# Shear Modulus (GPa) = 20.58677 22.89258 21.73968
#
# Velocity S-wave (km/s) = 3.49630 3.68690 3.59286
# Velocity P-wave (km/s) = 6.60462 6.87039 6.73882
#
# Compressibility (1/GPa) = 0.02173258
#
# Stress axis : x y z
#
# Youngs Moduli (GPa) = 92.16103 43.09914 78.52121
#
# Poissons Ratio (x) = 0.22868 0.09646
# Poissons Ratio (y) = 0.48899 0.47063
# Poissons Ratio (z) = 0.11322 0.25832
#
# Static dielectric constant tensor:
#      x y z
#    x 3.414280 0.000000 0.000000 
#    y 0.000000 3.133980 0.000000 
#    z 0.000000 0.000000 3.176820 
# 
# 
# High freq. dielectric constant tensor:
#      x y z
#    x 1.651260 0.000000 0.000000 
#    y 0.000000 1.627030 0.000000 
#    z 0.000000 0.000000 1.644250 
# 
# From -- ./inp_files/18165.got.cif
#   From: 2010.03.12/outbox.cif.g09.slc.cpg/sg69_10_cif.got.tgz:18165.got - 2010.04.10 23:52:46.
