data_PCOD8283422
_publ_section_title
;
Structure prediction by ZEFSAII (Michael W. Deem and Ramdas Pophale) SiO2 
 PCOD8283422
Probable space group: C C C A
;
_chemical_formula_sum "Si O2"
_cell_formula_units_Z 68
_cell_length_a 8.482639
_cell_length_b 14.013634
_cell_length_c 29.640500
_cell_angle_alpha 90.000000
_cell_angle_beta 90.000000
_cell_angle_gamma 90.000000
_cell_volume 3523.443250
_symmetry_space_group_name_H-M "C C C A"
_symmetry_group_IT_number 68
_space_group.IT_coordinate_system_code '2'
_symmetry_cell_setting 'orthorhombic'
loop_
_space_group_symop_operation_xyz
x,y,z
-x,1/2-y,z
x,1/2-y,1/2-z
-x,y,1/2-z
-x,-y,-z
x,1/2+y,-z
-x,1/2+y,1/2+z
x,-y,1/2+z
1/2+x,1/2+y,z
1/2-x,-y,z
1/2+x,-y,1/2-z
1/2-x,1/2+y,1/2-z
1/2-x,1/2-y,-z
1/2+x,y,-z
1/2-x,y,1/2+z
1/2+x,1/2-y,1/2+z
loop_
_atom_site_type_symbol
_atom_site_label
_atom_site_fract_x
_atom_site_fract_y
_atom_site_fract_z
Si Si1 0.060686 0.353951 0.444070
Si Si2 0.071068 0.853880 0.035671
Si Si3 0.904452 0.563166 0.291130
Si Si4 0.064585 0.483716 0.611148
Si Si5 0.000000 0.250000 0.750000
O O1 0.244354 0.353056 0.455515
O O2 0.000000 0.250000 0.430579
O O3 0.965302 0.400052 0.486512
O O4 0.029952 0.420051 0.400732
O O5 0.000000 0.750000 0.030721
O O6 0.978751 0.902825 0.075796
O O7 0.750000 0.500000 0.293947
O O8 0.991073 0.551245 0.339311
O O9 0.889272 0.678428 0.280528
O O10 0.000000 0.515317 0.250000
O O11 0.250000 0.500000 0.609373
#
# Coordination Sequence:
#
# PCOD8283422 Si02
#       5
#    16  16  16  16   4
#     4  11  22  39  55  87 121 162 208 257 309 368
#     4  11  22  36  60  83 119 165 207 257 309 367
#     4   9  21  41  66  95 125 161 206 258 317 382
#     4  11  22  38  59  88 121 158 202 253 306 373
#     4   8  20  44  70  90 128 164 198 260 324 366
#
# _framework density 19.299303999999999
#
# number of rings (size 3 to 8) (size 9 to 14) (size 15 to 20)
#    0.706    0.941    0.000    7.059    1.647    1.882 
#    0.000    0.588    0.000    0.000    0.000    0.000 
#    0.000    0.000    0.000    0.000    0.000    0.000 
#
# Total GULP energy -421288.705354 kJ/mol
# GULP energy per Si atom -12390.844275 kJ/mol
# Density = 1.925538 g / cm^3
# Si number density = 19.299304 Si / 1000 Ang^3
#
#
#
# Elastic Constant Matrix: (Units=GPa)
#
#
# Indices 1 2 3 4 5 6 
#
# 1 99.1601 28.4584 27.3848 0.0000 0.0000 0.0000
# 2 28.4584 98.2272 62.4563 0.0000 0.0000 0.0000
# 3 27.3848 62.4563 152.5203 0.0000 0.0000 0.0000
# 4 0.0000 0.0000 0.0000 35.2004 0.0000 0.0000
# 5 0.0000 0.0000 0.0000 0.0000 27.5444 0.0000
# 6 0.0000 0.0000 0.0000 0.0000 0.0000 35.0007
#
#
#
# Elastic Compliance Matrix: (Units=1/GPa)
#
#
# Indices 1 2 3 4 5 6 
#
# 1 0.011093 -0.002633 -0.000913 0.000000 0.000000 0.000000
# 2 -0.002633 0.014389 -0.005420 0.000000 0.000000 0.000000
# 3 -0.000913 -0.005420 0.008940 0.000000 0.000000 0.000000
# 4 0.000000 0.000000 0.000000 0.028409 0.000000 0.000000
# 5 0.000000 0.000000 0.000000 0.000000 0.036305 0.000000
# 6 0.000000 0.000000 0.000000 0.000000 0.000000 0.028571
#
#
# Mechanical properties :
#
#
# Convention : Reuss Voigt Hill
#
# Bulk Modulus (GPa) = 60.64403 65.16741 62.90572
# Shear Modulus (GPa) = 33.08301 34.98963 34.03632
#
# Velocity S-wave (km/s) = 4.14479 4.26255 4.20408
# Velocity P-wave (km/s) = 7.37542 7.62009 7.49876
#
# Compressibility (1/GPa) = 0.01648967
#
# Stress axis : x y z
#
# Youngs Moduli (GPa) = 90.15008 69.49624 111.85910
#
# Poissons Ratio (x) = 0.18298 0.10218
# Poissons Ratio (y) = 0.23736 0.60623
# Poissons Ratio (z) = 0.08235 0.37664
#
# Static dielectric constant tensor:
#      x y z
#    x 3.437310 0.000000 0.000000 
#    y 0.000000 3.555040 0.000000 
#    z 0.000000 0.000000 4.103170 
# 
# 
# High freq. dielectric constant tensor:
#      x y z
#    x 1.743390 0.000000 0.000000 
#    y 0.000000 1.757440 0.000000 
#    z 0.000000 0.000000 1.757870 
# 
# From -- ./inp_files/48873.got.cif
#   From: 2010.03.12/outbox.cif.g09.slc.cpg/sg68_25_cif.got.tgz:48873.got - 2010.04.10 23:14:56.
