data_PCOD8283678
_publ_section_title
;
Structure prediction by ZEFSAII (Michael W. Deem and Ramdas Pophale) SiO2 
 PCOD8283678
Probable space group: C C C A
;
_chemical_formula_sum "Si O2"
_cell_formula_units_Z 108
_cell_length_a 13.954059
_cell_length_b 22.764271
_cell_length_c 14.458437
_cell_angle_alpha 90.000000
_cell_angle_beta 90.000000
_cell_angle_gamma 90.000000
_cell_volume 4592.780067
_symmetry_space_group_name_H-M "C C C A"
_symmetry_group_IT_number 68
_space_group.IT_coordinate_system_code '2'
_symmetry_cell_setting 'orthorhombic'
loop_
_space_group_symop_operation_xyz
x,y,z
-x,1/2-y,z
x,1/2-y,1/2-z
-x,y,1/2-z
-x,-y,-z
x,1/2+y,-z
-x,1/2+y,1/2+z
x,-y,1/2+z
1/2+x,1/2+y,z
1/2-x,-y,z
1/2+x,-y,1/2-z
1/2-x,1/2+y,1/2-z
1/2-x,1/2-y,-z
1/2+x,y,-z
1/2-x,y,1/2+z
1/2+x,1/2-y,1/2+z
loop_
_atom_site_type_symbol
_atom_site_label
_atom_site_fract_x
_atom_site_fract_y
_atom_site_fract_z
Si Si1 0.000000 0.250000 0.250000
Si Si2 0.036021 0.688930 0.398730
Si Si3 0.266979 0.266823 0.353903
Si Si4 0.035318 0.341681 0.101029
Si Si5 0.665371 0.122338 0.888791
Si Si6 0.706748 0.560202 0.756838
Si Si7 0.000000 0.904644 0.250000
Si Si8 0.244974 0.139543 0.419962
O O1 0.939513 0.206988 0.181010
O O2 0.151637 0.688885 0.393980
O O3 0.000197 0.686639 0.504427
O O4 0.989677 0.636030 0.340984
O O5 0.000000 0.750000 0.354699
O O6 0.292548 0.250000 0.250000
O O7 0.174370 0.308966 0.357031
O O8 0.256774 0.210224 0.419323
O O9 0.132331 0.377749 0.080646
O O10 0.949094 0.386844 0.128234
O O11 0.727586 0.076389 0.830737
O O12 0.698527 0.112546 0.993931
O O13 0.750000 0.500000 0.797980
O O14 0.593433 0.554174 0.734498
O O15 0.709718 0.613111 0.828525
#
# Coordination Sequence:
#
# PCOD8283678 Si02
#       8
#     4  16  16  16  16  16   8  16
#     4  12  24  36  50  90 140 192 224 256 328 416
#     4  12  22  39  67 107 141 185 226 282 350 426
#     4  12  22  40  67 103 147 178 223 287 349 425
#     4  12  25  39  62  95 145 188 230 271 342 426
#     4  12  25  45  68 100 142 184 231 289 355 419
#     4  12  28  49  74 101 135 184 247 303 350 408
#     4  12  23  48  75 102 136 178 236 298 356 408
#     4  12  25  44  69 103 142 187 234 286 355 424
#
# _framework density 23.515170000000001
#
# number of rings (size 3 to 8) (size 9 to 14) (size 15 to 20)
#    0.000    0.000    5.185    6.000    2.074    1.778 
#    0.000    0.000    0.000    5.333    0.000    0.000 
#    0.000    0.000    0.000    0.000    0.000    0.000 
#
# Total GULP energy -669665.677904 kJ/mol
# GULP energy per Si atom -12401.216257 kJ/mol
# Density = 2.346165 g / cm^3
# Si number density = 23.515170 Si / 1000 Ang^3
#
#
#
# Elastic Constant Matrix: (Units=GPa)
#
#
# Indices 1 2 3 4 5 6 
#
# 1 160.1493 22.8417 20.5494 0.0000 0.0000 0.0000
# 2 22.8417 59.1978 2.8327 0.0000 0.0000 0.0000
# 3 20.5494 2.8327 114.1074 0.0000 0.0000 0.0000
# 4 0.0000 0.0000 0.0000 15.7012 0.0000 0.0000
# 5 0.0000 0.0000 0.0000 0.0000 31.5311 0.0000
# 6 0.0000 0.0000 0.0000 0.0000 0.0000 26.9526
#
#
#
# Elastic Compliance Matrix: (Units=1/GPa)
#
#
# Indices 1 2 3 4 5 6 
#
# 1 0.006756 -0.002552 -0.001153 0.000000 0.000000 0.000000
# 2 -0.002552 0.017876 0.000016 0.000000 0.000000 0.000000
# 3 -0.001153 0.000016 0.008971 0.000000 0.000000 0.000000
# 4 0.000000 0.000000 0.000000 0.063689 0.000000 0.000000
# 5 0.000000 0.000000 0.000000 0.000000 0.031715 0.000000
# 6 0.000000 0.000000 0.000000 0.000000 0.000000 0.037102
#
#
# Mechanical properties :
#
#
# Convention : Reuss Voigt Hill
#
# Bulk Modulus (GPa) = 38.13173 47.32245 42.72709
# Shear Modulus (GPa) = 27.43789 33.98570 30.71180
#
# Velocity S-wave (km/s) = 3.41958 3.80579 3.61784
# Velocity P-wave (km/s) = 5.64290 6.28331 5.97170
#
# Compressibility (1/GPa) = 0.02622488
#
# Stress axis : x y z
#
# Youngs Moduli (GPa) = 148.01428 55.93989 111.47041
#
# Poissons Ratio (x) = 0.14274 0.12856
# Poissons Ratio (y) = 0.37768 -0.00176
# Poissons Ratio (z) = 0.17071 -0.00088
#
# Static dielectric constant tensor:
#      x y z
#    x 4.494360 0.000000 0.000000 
#    y 0.000000 3.648690 0.000000 
#    z 0.000000 0.000000 4.253520 
# 
# 
# High freq. dielectric constant tensor:
#      x y z
#    x 1.954890 0.000000 0.000000 
#    y 0.000000 1.867800 0.000000 
#    z 0.000000 0.000000 1.945100 
# 
# From -- ./inp_files/22669.got.cif
#   From: 2010.03.12/outbox.cif.g09.slc.cpg/sg68_12_cif.got.tgz:22669.got - 2010.04.10 23:14:56.
