data_PCOD8283140
_publ_section_title
;
Structure prediction by ZEFSAII (Michael W. Deem and Ramdas Pophale) SiO2 
 PCOD8283140
Probable space group: C C C A
;
_chemical_formula_sum "Si O2"
_cell_formula_units_Z 64
_cell_length_a 9.306975
_cell_length_b 24.637663
_cell_length_c 12.855129
_cell_angle_alpha 90.000000
_cell_angle_beta 90.000000
_cell_angle_gamma 90.000000
_cell_volume 2947.708250
_symmetry_space_group_name_H-M "C C C A"
_symmetry_group_IT_number 68
_space_group.IT_coordinate_system_code '2'
_symmetry_cell_setting 'orthorhombic'
loop_
_space_group_symop_operation_xyz
x,y,z
-x,1/2-y,z
x,1/2-y,1/2-z
-x,y,1/2-z
-x,-y,-z
x,1/2+y,-z
-x,1/2+y,1/2+z
x,-y,1/2+z
1/2+x,1/2+y,z
1/2-x,-y,z
1/2+x,-y,1/2-z
1/2-x,1/2+y,1/2-z
1/2-x,1/2-y,-z
1/2+x,y,-z
1/2-x,y,1/2+z
1/2+x,1/2-y,1/2+z
loop_
_atom_site_type_symbol
_atom_site_label
_atom_site_fract_x
_atom_site_fract_y
_atom_site_fract_z
Si Si1 0.250505 0.060436 0.632103
Si Si2 0.145305 0.646699 0.700854
Si Si3 0.005171 0.100238 0.496493
Si Si4 0.571675 0.808034 0.647531
O O1 0.280892 0.104576 0.720231
O O2 0.092574 0.068263 0.584129
O O3 0.369935 0.064887 0.541085
O O4 0.250000 0.000000 0.680400
O O5 0.110306 0.612788 0.598523
O O6 0.256803 0.694959 0.672329
O O7 0.000000 0.672189 0.750000
O O8 0.949633 0.156667 0.544886
O O9 0.500000 0.750000 0.626141
O O10 0.500000 0.834564 0.750000
#
# Coordination Sequence:
#
# PCOD8283140 Si02
#       4
#    16  16  16  16
#     4  11  23  41  67 100 135 181 224 281 338 400
#     4  10  23  44  65  96 142 175 227 284 336 410
#     4  11  22  43  67  98 137 175 231 279 330 414
#     4  11  23  43  71  97 131 182 223 284 356 397
#
# _framework density 21.711781999999999
#
# number of rings (size 3 to 8) (size 9 to 14) (size 15 to 20)
#    0.000    1.250    5.000    0.750    0.000    2.000 
#   13.500    2.500    0.000    0.000    0.000    0.000 
#    0.000    0.000    0.000    0.000    0.000    0.000 
#
# Total GULP energy -396717.150513 kJ/mol
# GULP energy per Si atom -12397.410954 kJ/mol
# Density = 2.166237 g / cm^3
# Si number density = 21.711782 Si / 1000 Ang^3
#
#
#
# Elastic Constant Matrix: (Units=GPa)
#
#
# Indices 1 2 3 4 5 6 
#
# 1 129.3666 57.4396 15.3222 0.0000 0.0000 0.0000
# 2 57.4396 103.4007 16.9687 0.0000 0.0000 0.0000
# 3 15.3222 16.9687 75.8989 0.0000 0.0000 0.0000
# 4 0.0000 0.0000 0.0000 19.1308 0.0000 0.0000
# 5 0.0000 0.0000 0.0000 0.0000 32.0453 0.0000
# 6 0.0000 0.0000 0.0000 0.0000 0.0000 25.2030
#
#
#
# Elastic Compliance Matrix: (Units=1/GPa)
#
#
# Indices 1 2 3 4 5 6 
#
# 1 0.010311 -0.005591 -0.000831 0.000000 0.000000 0.000000
# 2 -0.005591 0.013072 -0.001794 0.000000 0.000000 0.000000
# 3 -0.000831 -0.001794 0.013744 0.000000 0.000000 0.000000
# 4 0.000000 0.000000 0.000000 0.052272 0.000000 0.000000
# 5 0.000000 0.000000 0.000000 0.000000 0.031206 0.000000
# 6 0.000000 0.000000 0.000000 0.000000 0.000000 0.039678
#
#
# Mechanical properties :
#
#
# Convention : Reuss Voigt Hill
#
# Bulk Modulus (GPa) = 48.32356 54.23633 51.27995
# Shear Modulus (GPa) = 27.23118 29.87155 28.55136
#
# Velocity S-wave (km/s) = 3.54533 3.71323 3.63025
# Velocity P-wave (km/s) = 6.25014 6.58927 6.42195
#
# Compressibility (1/GPa) = 0.02069384
#
# Stress axis : x y z
#
# Youngs Moduli (GPa) = 96.98318 76.50223 72.75751
#
# Poissons Ratio (x) = 0.42775 0.06050
# Poissons Ratio (y) = 0.54227 0.13050
# Poissons Ratio (z) = 0.08064 0.13722
#
# Static dielectric constant tensor:
#      x y z
#    x 4.256260 0.000000 0.000000 
#    y 0.000000 3.459810 0.000000 
#    z 0.000000 0.000000 4.042630 
# 
# 
# High freq. dielectric constant tensor:
#      x y z
#    x 1.874730 0.000000 0.000000 
#    y 0.000000 1.821690 0.000000 
#    z 0.000000 0.000000 1.860390 
# 
# From -- ./inp_files/10767.got.cif
#   From: 2010.03.12/outbox.cif.g09.slc.cpg/sg68_6_cif.got.tgz:10767.got - 2010.04.10 23:14:56.
