data_PCOD8283047
_publ_section_title
;
Structure prediction by ZEFSAII (Michael W. Deem and Ramdas Pophale) SiO2 
 PCOD8283047
Probable space group: C C C A
;
_chemical_formula_sum "Si O2"
_cell_formula_units_Z 88
_cell_length_a 24.700182
_cell_length_b 18.334479
_cell_length_c 9.642839
_cell_angle_alpha 90.000000
_cell_angle_beta 90.000000
_cell_angle_gamma 90.000000
_cell_volume 4366.903977
_symmetry_space_group_name_H-M "C C C A"
_symmetry_group_IT_number 68
_space_group.IT_coordinate_system_code '2'
_symmetry_cell_setting 'orthorhombic'
loop_
_space_group_symop_operation_xyz
x,y,z
-x,1/2-y,z
x,1/2-y,1/2-z
-x,y,1/2-z
-x,-y,-z
x,1/2+y,-z
-x,1/2+y,1/2+z
x,-y,1/2+z
1/2+x,1/2+y,z
1/2-x,-y,z
1/2+x,-y,1/2-z
1/2-x,1/2+y,1/2-z
1/2-x,1/2-y,-z
1/2+x,y,-z
1/2-x,y,1/2+z
1/2+x,1/2-y,1/2+z
loop_
_atom_site_type_symbol
_atom_site_label
_atom_site_fract_x
_atom_site_fract_y
_atom_site_fract_z
Si Si1 0.186613 0.744624 0.980903
Si Si2 0.113709 0.506277 0.502732
Si Si3 0.209828 0.408839 0.416816
Si Si4 0.883300 0.250000 0.750000
Si Si5 0.308334 0.892009 0.380582
Si Si6 0.436311 0.089857 0.261660
O O1 0.172651 0.663356 0.933086
O O2 0.173883 0.807096 0.868661
O O3 0.250000 0.750000 0.000000
O O4 0.154970 0.762863 0.120206
O O5 0.172035 0.473900 0.463638
O O6 0.132963 0.570419 0.604961
O O7 0.085152 0.540962 0.367432
O O8 0.077925 0.448967 0.590871
O O9 0.267159 0.407172 0.493148
O O10 0.223793 0.418024 0.255075
O O11 0.917371 0.174618 0.736857
O O12 0.500000 0.091621 0.250000
#
# Coordination Sequence:
#
# PCOD8283047 Si02
#       6
#    16  16  16   8  16  16
#     4  10  23  35  63  93 134 172 216 255 320 393
#     4  12  24  42  68  94 132 166 214 286 342 388
#     4  11  24  38  62  96 136 178 218 259 328 410
#     4  12  23  46  70  98 128 182 225 272 318 402
#     4  11  24  38  62  96 136 178 218 259 328 410
#     4  12  27  48  70  96 127 175 232 286 337 389
#
# _framework density 20.151577
#
# number of rings (size 3 to 8) (size 9 to 14) (size 15 to 20)
#    0.000    0.727    5.455    1.909   12.727    1.455 
#    0.000    0.000    0.000    0.000    0.000    7.636 
#    0.000    0.000    0.000    0.000    0.000    0.000 
#
# Total GULP energy -545082.351709 kJ/mol
# GULP energy per Si atom -12388.235266 kJ/mol
# Density = 2.010571 g / cm^3
# Si number density = 20.151577 Si / 1000 Ang^3
#
#
#
# Elastic Constant Matrix: (Units=GPa)
#
#
# Indices 1 2 3 4 5 6 
#
# 1 81.9688 45.1267 20.1053 0.0000 0.0000 0.0000
# 2 45.1267 135.9636 18.5761 0.0000 0.0000 0.0000
# 3 20.1053 18.5761 93.6758 0.0000 0.0000 0.0000
# 4 0.0000 0.0000 0.0000 24.6327 0.0000 0.0000
# 5 0.0000 0.0000 0.0000 0.0000 25.7462 0.0000
# 6 0.0000 0.0000 0.0000 0.0000 0.0000 27.4920
#
#
#
# Elastic Compliance Matrix: (Units=1/GPa)
#
#
# Indices 1 2 3 4 5 6 
#
# 1 0.015418 -0.004795 -0.002358 0.000000 0.000000 0.000000
# 2 -0.004795 0.009051 -0.000766 0.000000 0.000000 0.000000
# 3 -0.002358 -0.000766 0.011333 0.000000 0.000000 0.000000
# 4 0.000000 0.000000 0.000000 0.040596 0.000000 0.000000
# 5 0.000000 0.000000 0.000000 0.000000 0.038841 0.000000
# 6 0.000000 0.000000 0.000000 0.000000 0.000000 0.036374
#
#
# Mechanical properties :
#
#
# Convention : Reuss Voigt Hill
#
# Bulk Modulus (GPa) = 50.08986 53.24717 51.66852
# Shear Modulus (GPa) = 28.71808 30.76085 29.73947
#
# Velocity S-wave (km/s) = 3.77915 3.91125 3.84577
# Velocity P-wave (km/s) = 6.62972 6.84674 6.73910
#
# Compressibility (1/GPa) = 0.01996412
#
# Stress axis : x y z
#
# Youngs Moduli (GPa) = 64.85897 110.48466 88.23717
#
# Poissons Ratio (x) = 0.52979 0.20809
# Poissons Ratio (y) = 0.31101 0.06756
# Poissons Ratio (z) = 0.15295 0.08460
#
# Static dielectric constant tensor:
#      x y z
#    x 3.339100 0.000000 0.000000 
#    y 0.000000 5.022750 0.000000 
#    z 0.000000 0.000000 3.685290 
# 
# 
# High freq. dielectric constant tensor:
#      x y z
#    x 1.756870 0.000000 0.000000 
#    y 0.000000 1.822510 0.000000 
#    z 0.000000 0.000000 1.791770 
# 
# From -- ./inp_files/7152.got.cif
#   From: 2010.03.12/outbox.cif.g09.slc.cpg/sg68_4_cif.got.tgz:7152.got - 2010.04.10 23:14:56.
