data_PCOD8283704
_publ_section_title
;
Structure prediction by ZEFSAII (Michael W. Deem and Ramdas Pophale) SiO2 
 PCOD8283704
Probable space group: C C C A
;
_chemical_formula_sum "Si O2"
_cell_formula_units_Z 68
_cell_length_a 6.836649
_cell_length_b 17.029424
_cell_length_c 26.713735
_cell_angle_alpha 90.000000
_cell_angle_beta 90.000000
_cell_angle_gamma 90.000000
_cell_volume 3110.125081
_symmetry_space_group_name_H-M "C C C A"
_symmetry_group_IT_number 68
_space_group.IT_coordinate_system_code '2'
_symmetry_cell_setting 'orthorhombic'
loop_
_space_group_symop_operation_xyz
x,y,z
-x,1/2-y,z
x,1/2-y,1/2-z
-x,y,1/2-z
-x,-y,-z
x,1/2+y,-z
-x,1/2+y,1/2+z
x,-y,1/2+z
1/2+x,1/2+y,z
1/2-x,-y,z
1/2+x,-y,1/2-z
1/2-x,1/2+y,1/2-z
1/2-x,1/2-y,-z
1/2+x,y,-z
1/2-x,y,1/2+z
1/2+x,1/2-y,1/2+z
loop_
_atom_site_type_symbol
_atom_site_label
_atom_site_fract_x
_atom_site_fract_y
_atom_site_fract_z
Si Si1 0.000000 0.250000 0.250000
Si Si2 0.721555 0.090376 0.611031
Si Si3 0.978456 0.838180 0.032056
Si Si4 0.343708 0.085237 0.564112
Si Si5 0.127541 0.175115 0.796518
O O1 0.851524 0.197506 0.216993
O O2 0.793287 0.149375 0.567707
O O3 0.485383 0.100936 0.612056
O O4 0.841752 0.108908 0.661559
O O5 0.750000 0.000000 0.595808
O O6 0.000000 0.750000 0.011186
O O7 0.169388 0.852562 0.065956
O O8 0.968980 0.900464 0.986656
O O9 0.250000 0.000000 0.566083
O O10 0.000000 0.250000 0.816006
O O11 0.000000 0.139877 0.750000
#
# Coordination Sequence:
#
# PCOD8283704 Si02
#       5
#     4  16  16  16  16
#     4   8  18  44  72  98 120 168 200 276 340 394
#     4  12  25  42  65  97 135 175 221 270 330 394
#     4  12  25  41  64  98 134 179 231 274 317 384
#     4  12  24  42  63  90 137 185 221 269 326 383
#     4   9  21  44  71  96 128 161 213 273 335 397
#
# _framework density 21.864073000000001
#
# number of rings (size 3 to 8) (size 9 to 14) (size 15 to 20)
#    0.000    1.176    4.706    2.824    0.000    5.647 
#    2.118    0.000    0.000    0.000    0.000    0.000 
#    0.000    0.000    0.000    0.000    0.000    0.000 
#
# Total GULP energy -421198.133533 kJ/mol
# GULP energy per Si atom -12388.180398 kJ/mol
# Density = 2.181431 g / cm^3
# Si number density = 21.864073 Si / 1000 Ang^3
#
#
#
# Elastic Constant Matrix: (Units=GPa)
#
#
# Indices 1 2 3 4 5 6 
#
# 1 172.3767 39.9671 39.3499 0.0000 0.0000 0.0000
# 2 39.9671 89.0946 33.7991 0.0000 0.0000 0.0000
# 3 39.3499 33.7991 83.8453 0.0000 0.0000 0.0000
# 4 0.0000 0.0000 0.0000 51.4548 0.0000 0.0000
# 5 0.0000 0.0000 0.0000 0.0000 31.3367 0.0000
# 6 0.0000 0.0000 0.0000 0.0000 0.0000 19.1639
#
#
#
# Elastic Compliance Matrix: (Units=1/GPa)
#
#
# Indices 1 2 3 4 5 6 
#
# 1 0.006839 -0.002184 -0.002329 0.000000 0.000000 0.000000
# 2 -0.002184 0.013948 -0.004597 0.000000 0.000000 0.000000
# 3 -0.002329 -0.004597 0.014873 0.000000 0.000000 0.000000
# 4 0.000000 0.000000 0.000000 0.019435 0.000000 0.000000
# 5 0.000000 0.000000 0.000000 0.000000 0.031911 0.000000
# 6 0.000000 0.000000 0.000000 0.000000 0.000000 0.052181
#
#
# Mechanical properties :
#
#
# Convention : Reuss Voigt Hill
#
# Bulk Modulus (GPa) = 57.34495 63.50542 60.42519
# Shear Modulus (GPa) = 30.63291 35.87113 33.25202
#
# Velocity S-wave (km/s) = 3.74714 4.05488 3.90404
# Velocity P-wave (km/s) = 6.70867 7.14362 6.92956
#
# Compressibility (1/GPa) = 0.01743833
#
# Stress axis : x y z
#
# Youngs Moduli (GPa) = 146.21030 71.69458 67.23519
#
# Poissons Ratio (x) = 0.15662 0.15661
# Poissons Ratio (y) = 0.31940 0.30911
# Poissons Ratio (z) = 0.34056 0.32961
#
# Static dielectric constant tensor:
#      x y z
#    x 8.435780 0.000000 0.000000 
#    y 0.000000 6.919360 0.000000 
#    z 0.000000 0.000000 3.706000 
# 
# 
# High freq. dielectric constant tensor:
#      x y z
#    x 1.894070 0.000000 0.000000 
#    y 0.000000 1.844090 0.000000 
#    z 0.000000 0.000000 1.827130 
# 
# From -- ./inp_files/48182.got.cif
#   From: 2010.03.12/outbox.cif.g09.slc.cpg/sg68_25_cif.got.tgz:48182.got - 2010.04.10 23:14:56.
