data_PCOD8283988
_publ_section_title
;
Structure prediction by ZEFSAII (Michael W. Deem and Ramdas Pophale) SiO2 
 PCOD8283988
Probable space group: F M M M
;
_chemical_formula_sum "Si O2"
_cell_formula_units_Z 192
_cell_length_a 20.708420
_cell_length_b 18.410743
_cell_length_c 25.568379
_cell_angle_alpha 90.000000
_cell_angle_beta 90.000000
_cell_angle_gamma 90.000000
_cell_volume 9748.133663
_symmetry_space_group_name_H-M "F M M M"
_symmetry_group_IT_number 69
_symmetry_cell_setting 'orthorhombic'
loop_
_space_group_symop_operation_xyz
x,y,z
-x,-y,z
x,-y,-z
-x,y,-z
-x,-y,-z
x,y,-z
-x,y,z
x,-y,z
x,1/2+y,1/2+z
-x,1/2-y,1/2+z
x,1/2-y,1/2-z
-x,1/2+y,1/2-z
-x,1/2-y,1/2-z
x,1/2+y,1/2-z
-x,1/2+y,1/2+z
x,1/2-y,1/2+z
1/2+x,y,1/2+z
1/2-x,-y,1/2+z
1/2+x,-y,1/2-z
1/2-x,y,1/2-z
1/2-x,-y,1/2-z
1/2+x,y,1/2-z
1/2-x,y,1/2+z
1/2+x,-y,1/2+z
1/2+x,1/2+y,z
1/2-x,1/2-y,z
1/2+x,1/2-y,-z
1/2-x,1/2+y,-z
1/2-x,1/2-y,-z
1/2+x,1/2+y,-z
1/2-x,1/2+y,z
1/2+x,1/2-y,z
loop_
_atom_site_type_symbol
_atom_site_label
_atom_site_fract_x
_atom_site_fract_y
_atom_site_fract_z
Si Si1 0.500000 0.085343 0.939865
Si Si2 0.140238 0.414225 0.397480
Si Si3 0.862609 0.085921 0.394216
Si Si4 0.070629 0.586430 0.500000
Si Si5 0.571584 0.586417 0.206152
Si Si6 0.684239 0.086159 0.778785
Si Si7 0.752429 0.333877 0.059318
O O1 0.437390 0.108083 0.904896
O O2 0.500000 0.000000 0.946537
O O3 0.500000 0.117920 0.000000
O O4 0.151597 0.500000 0.395736
O O5 0.105742 0.384962 0.448986
O O6 0.096067 0.387514 0.350236
O O7 0.209910 0.376825 0.397706
O O8 0.831927 0.110019 0.338114
O O9 0.823715 0.132152 0.437131
O O10 0.853189 0.000000 0.402739
O O11 0.067809 0.500000 0.500000
O O12 0.000000 0.620720 0.500000
O O13 0.500000 0.618502 0.216714
O O14 0.568543 0.500000 0.208331
O O15 0.622375 0.616940 0.247737
O O16 0.750000 0.116490 0.750000
O O17 0.687479 0.000000 0.775232
O O18 0.750000 0.250000 0.074761
O O19 0.727454 0.345571 0.000000
#
# Coordination Sequence:
#
# PCOD8283988 Si02
#       7
#    16  32  32  16  32  32  32
#     4   9  18  32  52  82 110 135 177 232 284 329
#     4  10  18  31  52  78 106 140 180 218 264 320
#     4  10  20  34  58  83 109 144 184 230 277 326
#     4   9  16  26  45  74 106 133 169 216 256 304
#     4   9  17  28  48  79 116 146 172 216 271 318
#     4   9  17  29  47  78 114 144 177 219 268 322
#     4  11  23  37  54  76 109 142 180 226 280 332
#
# _framework density 19.696076999999999
#
# number of rings (size 3 to 8) (size 9 to 14) (size 15 to 20)
#    0.000    2.333    0.833    2.500    1.167    6.333 
#    0.000    0.000    3.667    4.500    0.000    1.167 
#    0.000    0.000    0.000    0.000    0.000    0.000 
#
# Total GULP energy -594759.931005 kJ/mol
# GULP energy per Si atom -12390.831896 kJ/mol
# Density = 1.965125 g / cm^3
# Si number density = 19.696077 Si / 1000 Ang^3
#
#
#
# Elastic Constant Matrix: (Units=GPa)
#
#
# Indices 1 2 3 4 5 6 
#
# 1 167.6136 28.6894 53.5730 0.0000 0.0000 0.0000
# 2 28.6894 33.1543 18.4225 0.0000 0.0000 0.0000
# 3 53.5730 18.4225 104.0168 0.0000 0.0000 0.0000
# 4 0.0000 0.0000 0.0000 3.7350 0.0000 0.0000
# 5 0.0000 0.0000 0.0000 0.0000 36.2611 0.0000
# 6 0.0000 0.0000 0.0000 0.0000 0.0000 4.7375
#
#
#
# Elastic Compliance Matrix: (Units=1/GPa)
#
#
# Indices 1 2 3 4 5 6 
#
# 1 0.007832 -0.005031 -0.003143 0.000000 0.000000 0.000000
# 2 -0.005031 0.036686 -0.003906 0.000000 0.000000 0.000000
# 3 -0.003143 -0.003906 0.011924 0.000000 0.000000 0.000000
# 4 0.000000 0.000000 0.000000 0.267736 0.000000 0.000000
# 5 0.000000 0.000000 0.000000 0.000000 0.027578 0.000000
# 6 0.000000 0.000000 0.000000 0.000000 0.000000 0.211081
#
#
# Mechanical properties :
#
#
# Convention : Reuss Voigt Hill
#
# Bulk Modulus (GPa) = 30.97678 56.23938 43.60808
# Shear Modulus (GPa) = 8.36461 22.55339 15.45900
#
# Velocity S-wave (km/s) = 2.06302 3.38756 2.80460
# Velocity P-wave (km/s) = 4.62993 6.62694 5.71632
#
# Compressibility (1/GPa) = 0.03228225
#
# Stress axis : x y z
#
# Youngs Moduli (GPa) = 127.68738 27.25845 83.86250
#
# Poissons Ratio (x) = 0.13713 0.26355
# Poissons Ratio (y) = 0.64236 0.32760
# Poissons Ratio (z) = 0.40127 0.10648
#
# Static dielectric constant tensor:
#      x y z
#    x 3.970120 0.000000 0.000000 
#    y 0.000000 2.864580 0.000000 
#    z 0.000000 0.000000 3.736080 
# 
# 
# High freq. dielectric constant tensor:
#      x y z
#    x 1.788170 0.000000 0.000000 
#    y 0.000000 1.691020 0.000000 
#    z 0.000000 0.000000 1.776980 
# 
# From -- ./inp_files/37380.got.cif
#   From: 2010.03.12/outbox.cif.g09.slc.cpg/sg69_19_cif.got.tgz:37380.got - 2010.04.10 23:52:46.
