data_PCOD8283488
_publ_section_title
;
Structure prediction by ZEFSAII (Michael W. Deem and Ramdas Pophale) SiO2 
 PCOD8283488
Probable space group: C C C A
;
_chemical_formula_sum "Si O2"
_cell_formula_units_Z 80
_cell_length_a 25.598378
_cell_length_b 8.723711
_cell_length_c 15.918557
_cell_angle_alpha 90.000000
_cell_angle_beta 90.000000
_cell_angle_gamma 90.000000
_cell_volume 3554.818359
_symmetry_space_group_name_H-M "C C C A"
_symmetry_group_IT_number 68
_space_group.IT_coordinate_system_code '2'
_symmetry_cell_setting 'orthorhombic'
loop_
_space_group_symop_operation_xyz
x,y,z
-x,1/2-y,z
x,1/2-y,1/2-z
-x,y,1/2-z
-x,-y,-z
x,1/2+y,-z
-x,1/2+y,1/2+z
x,-y,1/2+z
1/2+x,1/2+y,z
1/2-x,-y,z
1/2+x,-y,1/2-z
1/2-x,1/2+y,1/2-z
1/2-x,1/2-y,-z
1/2+x,y,-z
1/2-x,y,1/2+z
1/2+x,1/2-y,1/2+z
loop_
_atom_site_type_symbol
_atom_site_label
_atom_site_fract_x
_atom_site_fract_y
_atom_site_fract_z
Si Si1 0.637019 0.698517 0.842697
Si Si2 0.952858 0.129683 0.922679
Si Si3 0.383450 0.906912 0.435871
Si Si4 0.785484 0.859958 0.447338
Si Si5 0.552654 0.683026 0.156624
O O1 0.621573 0.750000 0.750000
O O2 0.598078 0.768902 0.909957
O O3 0.629481 0.516990 0.856513
O O4 0.694141 0.765477 0.866060
O O5 0.000000 0.250000 0.922275
O O6 0.954910 0.001269 0.848938
O O7 0.937587 0.047838 0.012317
O O8 0.332737 0.916256 0.494143
O O9 0.396206 0.739595 0.395446
O O10 0.750000 0.750000 0.500000
O O11 0.750000 0.000000 0.414529
O O12 0.500000 0.750000 0.114697
O O13 0.557463 0.750000 0.250000
#
# Coordination Sequence:
#
# PCOD8283488 Si02
#       5
#    16  16  16  16  16
#     4  11  24  42  64  98 134 171 222 277 343 406
#     4  11  23  40  69  99 133 181 225 269 329 406
#     4  11  23  42  69  94 132 172 225 278 327 407
#     4  11  23  45  69  91 125 169 224 283 339 400
#     4  11  24  41  61  96 139 175 216 269 334 401
#
# _framework density 22.504667000000001
#
# number of rings (size 3 to 8) (size 9 to 14) (size 15 to 20)
#    0.000    1.000    2.000    5.400    2.800    4.400 
#    3.600    0.000    0.000    0.000    0.000    0.000 
#    0.000    0.000    0.000    0.000    0.000    0.000 
#
# Total GULP energy -495539.794162 kJ/mol
# GULP energy per Si atom -12388.494854 kJ/mol
# Density = 2.245345 g / cm^3
# Si number density = 22.504667 Si / 1000 Ang^3
#
#
#
# Elastic Constant Matrix: (Units=GPa)
#
#
# Indices 1 2 3 4 5 6 
#
# 1 105.0310 53.0495 28.6464 0.0000 0.0000 0.0000
# 2 53.0495 138.7567 38.6317 0.0000 0.0000 0.0000
# 3 28.6464 38.6317 94.1881 0.0000 0.0000 0.0000
# 4 0.0000 0.0000 0.0000 34.5887 0.0000 0.0000
# 5 0.0000 0.0000 0.0000 0.0000 21.2526 0.0000
# 6 0.0000 0.0000 0.0000 0.0000 0.0000 38.3484
#
#
#
# Elastic Compliance Matrix: (Units=1/GPa)
#
#
# Indices 1 2 3 4 5 6 
#
# 1 0.012130 -0.004076 -0.002017 0.000000 0.000000 0.000000
# 2 -0.004076 0.009505 -0.002659 0.000000 0.000000 0.000000
# 3 -0.002017 -0.002659 0.012321 0.000000 0.000000 0.000000
# 4 0.000000 0.000000 0.000000 0.028911 0.000000 0.000000
# 5 0.000000 0.000000 0.000000 0.000000 0.047053 0.000000
# 6 0.000000 0.000000 0.000000 0.000000 0.000000 0.026077
#
#
# Mechanical properties :
#
#
# Convention : Reuss Voigt Hill
#
# Bulk Modulus (GPa) = 60.78334 64.29233 62.53783
# Shear Modulus (GPa) = 31.44928 33.34784 32.39856
#
# Velocity S-wave (km/s) = 3.74231 3.85362 3.79837
# Velocity P-wave (km/s) = 6.76321 6.95923 6.86192
#
# Compressibility (1/GPa) = 0.01645188
#
# Stress axis : x y z
#
# Youngs Moduli (GPa) = 82.44106 105.20287 81.16038
#
# Poissons Ratio (x) = 0.42879 0.16374
# Poissons Ratio (y) = 0.33601 0.21581
# Poissons Ratio (z) = 0.16632 0.27974
#
# Static dielectric constant tensor:
#      x y z
#    x 3.739410 0.000000 0.000000 
#    y 0.000000 5.012400 0.000000 
#    z 0.000000 0.000000 3.876420 
# 
# 
# High freq. dielectric constant tensor:
#      x y z
#    x 1.888610 0.000000 0.000000 
#    y 0.000000 1.895670 0.000000 
#    z 0.000000 0.000000 1.874670 
# 
# From -- ./inp_files/33984.got.cif
#   From: 2010.03.12/outbox.cif.g09.slc.cpg/sg68_17_cif.got.tgz:33984.got - 2010.04.10 23:14:56.
