data_PCOD8283131
_publ_section_title
;
Structure prediction by ZEFSAII (Michael W. Deem and Ramdas Pophale) SiO2 
 PCOD8283131
Probable space group: C C C A
;
_chemical_formula_sum "Si O2"
_cell_formula_units_Z 96
_cell_length_a 16.598527
_cell_length_b 18.531916
_cell_length_c 13.775038
_cell_angle_alpha 90.000000
_cell_angle_beta 90.000000
_cell_angle_gamma 90.000000
_cell_volume 4237.236238
_symmetry_space_group_name_H-M "C C C A"
_symmetry_group_IT_number 68
_space_group.IT_coordinate_system_code '2'
_symmetry_cell_setting 'orthorhombic'
loop_
_space_group_symop_operation_xyz
x,y,z
-x,1/2-y,z
x,1/2-y,1/2-z
-x,y,1/2-z
-x,-y,-z
x,1/2+y,-z
-x,1/2+y,1/2+z
x,-y,1/2+z
1/2+x,1/2+y,z
1/2-x,-y,z
1/2+x,-y,1/2-z
1/2-x,1/2+y,1/2-z
1/2-x,1/2-y,-z
1/2+x,y,-z
1/2-x,y,1/2+z
1/2+x,1/2-y,1/2+z
loop_
_atom_site_type_symbol
_atom_site_label
_atom_site_fract_x
_atom_site_fract_y
_atom_site_fract_z
Si Si1 0.763594 0.287933 0.600820
Si Si2 0.815049 0.940595 0.918355
Si Si3 0.125187 0.798813 0.833607
Si Si4 0.088860 0.548384 0.731177
Si Si5 0.952706 0.443943 0.936663
Si Si6 0.937949 0.307811 0.551803
O O1 0.750000 0.250000 0.500000
O O2 0.726177 0.366989 0.612557
O O3 0.716040 0.233651 0.670892
O O4 0.858733 0.297993 0.618377
O O5 0.866080 0.975194 0.829621
O O6 0.750000 0.000000 0.953102
O O7 0.873574 0.918092 0.006287
O O8 0.079279 0.750000 0.750000
O O9 0.135992 0.883824 0.813681
O O10 0.080688 0.793743 0.937588
O O11 0.080645 0.478272 0.663133
O O12 0.000000 0.579530 0.750000
O O13 0.019188 0.382671 0.922025
O O14 0.000000 0.500000 0.000000
O O15 0.000000 0.250000 0.590064
#
# Coordination Sequence:
#
# PCOD8283131 Si02
#       6
#    16  16  16  16  16  16
#     4  10  23  43  69  99 143 184 231 294 366 438
#     4  12  26  46  68 107 147 187 245 307 363 439
#     4  11  22  39  69 106 143 178 239 305 365 438
#     4  12  26  43  71 109 142 192 246 308 370 435
#     4  12  23  45  73 103 141 192 244 299 372 441
#     4  11  24  44  73 101 140 193 240 301 369 439
#
# _framework density 22.656276999999999
#
# number of rings (size 3 to 8) (size 9 to 14) (size 15 to 20)
#    0.000    0.667    5.000    3.000    4.667    0.667 
#    3.000    0.000    0.000    0.000    0.000    0.000 
#    0.000    0.000    0.000    0.000    0.000    0.000 
#
# Total GULP energy -594768.910044 kJ/mol
# GULP energy per Si atom -12391.018959 kJ/mol
# Density = 2.260471 g / cm^3
# Si number density = 22.656277 Si / 1000 Ang^3
#
#
#
# Elastic Constant Matrix: (Units=GPa)
#
#
# Indices 1 2 3 4 5 6 
#
# 1 170.9100 73.6196 35.0022 0.0000 0.0000 0.0000
# 2 73.6196 137.6435 29.9696 0.0000 0.0000 0.0000
# 3 35.0022 29.9696 81.8787 0.0000 0.0000 0.0000
# 4 0.0000 0.0000 0.0000 36.7620 0.0000 0.0000
# 5 0.0000 0.0000 0.0000 0.0000 29.9931 0.0000
# 6 0.0000 0.0000 0.0000 0.0000 0.0000 51.3182
#
#
#
# Elastic Compliance Matrix: (Units=1/GPa)
#
#
# Indices 1 2 3 4 5 6 
#
# 1 0.007889 -0.003787 -0.001986 0.000000 0.000000 0.000000
# 2 -0.003787 0.009712 -0.001936 0.000000 0.000000 0.000000
# 3 -0.001986 -0.001936 0.013771 0.000000 0.000000 0.000000
# 4 0.000000 0.000000 0.000000 0.027202 0.000000 0.000000
# 5 0.000000 0.000000 0.000000 0.000000 0.033341 0.000000
# 6 0.000000 0.000000 0.000000 0.000000 0.000000 0.019486
#
#
# Mechanical properties :
#
#
# Convention : Reuss Voigt Hill
#
# Bulk Modulus (GPa) = 62.68223 74.17947 68.43085
# Shear Modulus (GPa) = 37.83918 40.40403 39.12160
#
# Velocity S-wave (km/s) = 4.09117 4.22755 4.15992
# Velocity P-wave (km/s) = 7.07415 7.52608 7.30361
#
# Compressibility (1/GPa) = 0.01595349
#
# Stress axis : x y z
#
# Youngs Moduli (GPa) = 126.75697 102.96315 72.61668
#
# Poissons Ratio (x) = 0.38993 0.14424
# Poissons Ratio (y) = 0.48004 0.14058
# Poissons Ratio (z) = 0.25178 0.19934
#
# Static dielectric constant tensor:
#      x y z
#    x 4.711500 0.000000 0.000000 
#    y 0.000000 4.009600 0.000000 
#    z 0.000000 0.000000 4.103980 
# 
# 
# High freq. dielectric constant tensor:
#      x y z
#    x 1.903180 0.000000 0.000000 
#    y 0.000000 1.899440 0.000000 
#    z 0.000000 0.000000 1.882540 
# 
# From -- ./inp_files/22393.got.cif
#   From: 2010.03.12/outbox.cif.g09.slc.cpg/sg68_12_cif.got.tgz:22393.got - 2010.04.10 23:14:56.
