data_PCOD8283846
_publ_section_title
;
Structure prediction by ZEFSAII (Michael W. Deem and Ramdas Pophale) SiO2 
 PCOD8283846
Probable space group: F M M M
;
_chemical_formula_sum "Si O2"
_cell_formula_units_Z 80
_cell_length_a 32.027872
_cell_length_b 5.256564
_cell_length_c 32.181681
_cell_angle_alpha 90.000000
_cell_angle_beta 90.000000
_cell_angle_gamma 90.000000
_cell_volume 5417.997074
_symmetry_space_group_name_H-M "F M M M"
_symmetry_group_IT_number 69
_symmetry_cell_setting 'orthorhombic'
loop_
_space_group_symop_operation_xyz
x,y,z
-x,-y,z
x,-y,-z
-x,y,-z
-x,-y,-z
x,y,-z
-x,y,z
x,-y,z
x,1/2+y,1/2+z
-x,1/2-y,1/2+z
x,1/2-y,1/2-z
-x,1/2+y,1/2-z
-x,1/2-y,1/2-z
x,1/2+y,1/2-z
-x,1/2+y,1/2+z
x,1/2-y,1/2+z
1/2+x,y,1/2+z
1/2-x,-y,1/2+z
1/2+x,-y,1/2-z
1/2-x,y,1/2-z
1/2-x,-y,1/2-z
1/2+x,y,1/2-z
1/2-x,y,1/2+z
1/2+x,-y,1/2+z
1/2+x,1/2+y,z
1/2-x,1/2-y,z
1/2+x,1/2-y,-z
1/2-x,1/2+y,-z
1/2-x,1/2-y,-z
1/2+x,1/2+y,-z
1/2-x,1/2+y,z
1/2+x,1/2-y,z
loop_
_atom_site_type_symbol
_atom_site_label
_atom_site_fract_x
_atom_site_fract_y
_atom_site_fract_z
Si Si1 0.767444 0.000000 0.046263
Si Si2 0.950347 0.500000 0.085315
Si Si3 0.450358 0.500000 0.132884
Si Si4 0.847331 0.000000 0.000000
Si Si5 0.549790 0.500000 0.773378
Si Si6 0.097184 0.500000 0.000000
O O1 0.750000 0.250000 0.070167
O O2 0.746030 0.000000 0.000000
O O3 0.817870 0.000000 0.041411
O O4 0.933877 0.749126 0.109455
O O5 0.932628 0.500000 0.039388
O O6 0.000000 0.500000 0.082332
O O7 0.500000 0.500000 0.133921
O O8 0.432739 0.500000 0.179724
O O9 0.874880 0.749794 0.000000
O O10 0.500000 0.500000 0.773473
O O11 0.566816 0.750000 0.750000
#
# Coordination Sequence:
#
# PCOD8283846 Si02
#       6
#    16  16  16   8  16   8
#     4   8  13  24  40  56  74  94 108 130 186 238
#     4  10  20  32  41  49  66  98 137 170 204 234
#     4   9  17  29  42  53  68  90 116 150 195 247
#     4  10  18  27  39  58  75  88 117 162 205 225
#     4   9  15  23  38  59  75  83  97 131 187 248
#     4  12  21  29  40  54  71  96 135 182 206 207
#
# _framework density 14.765603
#
# number of rings (size 3 to 8) (size 9 to 14) (size 15 to 20)
#    0.600    2.000    0.000    3.900    0.000    4.800 
#    0.000    4.000    0.000    0.000    0.000    0.000 
#    0.000    0.000    0.000    0.000    0.000    0.000 
#
# Total GULP energy -247861.697113 kJ/mol
# GULP energy per Si atom -12393.084856 kJ/mol
# Density = 1.473200 g / cm^3
# Si number density = 14.765603 Si / 1000 Ang^3
#
#
#
# Elastic Constant Matrix: (Units=GPa)
#
#
# Indices 1 2 3 4 5 6 
#
# 1 27.8469 28.3640 19.0881 0.1078 -0.0008 -0.0335
# 2 28.3640 175.0510 62.6268 0.1655 0.0100 0.0367
# 3 19.0881 62.6268 113.2036 0.0045 -0.0007 0.0042
# 4 0.1078 0.1655 0.0045 -2.5637 0.0055 -0.0462
# 5 -0.0008 0.0100 -0.0007 0.0055 -0.1573 0.0153
# 6 -0.0335 0.0367 0.0042 -0.0462 0.0153 17.1212
#
#
#
# Elastic Compliance Matrix: (Units=1/GPa)
#
#
# Indices 1 2 3 4 5 6 
#
# 1 0.044696 -0.005669 -0.004400 0.001503 -0.000503 0.000105
# 2 -0.005669 0.007841 -0.003382 0.000263 0.000548 -0.000027
# 3 -0.004400 -0.003382 0.011446 -0.000384 -0.000259 -0.000005
# 4 0.001503 0.000263 -0.000384 -0.389994 -0.013749 -0.001038
# 5 -0.000503 0.000548 -0.000259 -0.013749 -6.355589 0.005647
# 6 0.000105 -0.000027 -0.000005 -0.001038 0.005647 0.058400
#
#
# Mechanical properties :
#
#
# Convention : Reuss Voigt Hill
#
# Bulk Modulus (GPa) = 26.96836 59.58438 43.27637
# Shear Modulus (GPa) = -0.75942 16.61487 7.92772
#
# Velocity S-wave (km/s) = -0.71794 3.35810 2.31963
# Velocity P-wave (km/s) = 4.19723 7.44828 6.04540
#
# Compressibility (1/GPa) = 0.03708049
#
# Stress axis : x y z
#
# Youngs Moduli (GPa) = 22.37349 127.53713 87.36320
#
# Poissons Ratio (x) = 0.72306 0.38441
# Poissons Ratio (y) = 0.12684 0.29544
# Poissons Ratio (z) = 0.09845 0.43130
#
# Static dielectric constant tensor:
#      x y z
#    x 2.404930 0.000020 0.000010 
#    y 0.000020 3.375700 -0.000060 
#    z 0.000010 -0.000060 2.682480 
# 
# 
# High freq. dielectric constant tensor:
#      x y z
#    x 1.505730 -0.000010 0.000000 
#    y -0.000010 1.597740 -0.000010 
#    z 0.000000 -0.000010 1.528980 
# 
# From -- ./inp_files/43701.got.cif
#   From: 2010.03.12/outbox.cif.g09.slc.cpg/sg69_22_cif.got.tgz:43701.got - 2010.04.10 23:52:46.
