data_PCOD8283481
_publ_section_title
;
Structure prediction by ZEFSAII (Michael W. Deem and Ramdas Pophale) SiO2 
 PCOD8283481
Probable space group: C C C A
;
_chemical_formula_sum "Si O2"
_cell_formula_units_Z 80
_cell_length_a 12.035227
_cell_length_b 13.186868
_cell_length_c 24.213458
_cell_angle_alpha 90.000000
_cell_angle_beta 90.000000
_cell_angle_gamma 90.000000
_cell_volume 3842.844063
_symmetry_space_group_name_H-M "C C C A"
_symmetry_group_IT_number 68
_space_group.IT_coordinate_system_code '2'
_symmetry_cell_setting 'orthorhombic'
loop_
_space_group_symop_operation_xyz
x,y,z
-x,1/2-y,z
x,1/2-y,1/2-z
-x,y,1/2-z
-x,-y,-z
x,1/2+y,-z
-x,1/2+y,1/2+z
x,-y,1/2+z
1/2+x,1/2+y,z
1/2-x,-y,z
1/2+x,-y,1/2-z
1/2-x,1/2+y,1/2-z
1/2-x,1/2-y,-z
1/2+x,y,-z
1/2-x,y,1/2+z
1/2+x,1/2-y,1/2+z
loop_
_atom_site_type_symbol
_atom_site_label
_atom_site_fract_x
_atom_site_fract_y
_atom_site_fract_z
Si Si1 0.267863 0.390108 0.111419
Si Si2 0.628126 0.533874 0.619957
Si Si3 0.979407 0.634616 0.913577
Si Si4 0.022130 0.366628 0.534747
Si Si5 0.623443 0.773138 0.813990
O O1 0.250000 0.500000 0.141059
O O2 0.152438 0.370146 0.081569
O O3 0.364177 0.395989 0.065508
O O4 0.291305 0.301295 0.155127
O O5 0.750000 0.500000 0.603035
O O6 0.542213 0.439271 0.630972
O O7 0.584109 0.598661 0.569001
O O8 0.641822 0.607492 0.673586
O O9 0.000000 0.750000 0.897283
O O10 0.026485 0.590963 0.971983
O O11 0.000000 0.250000 0.525414
O O12 0.500000 0.750000 0.835843
O O13 0.637279 0.750000 0.750000
#
# Coordination Sequence:
#
# PCOD8283481 Si02
#       5
#    16  16  16  16  16
#     4  12  22  41  65  91 134 165 220 280 326 396
#     4  12  23  41  64  94 134 170 221 270 320 394
#     4  11  26  37  62  99 138 177 212 264 335 386
#     4  11  23  40  61  94 130 182 221 256 319 403
#     4  11  23  45  71  93 121 172 228 275 327 391
#
# _framework density 20.817916
#
# number of rings (size 3 to 8) (size 9 to 14) (size 15 to 20)
#    0.000    0.600    6.000    1.800    2.800    2.400 
#    0.000    0.000    0.000    4.200    0.000    0.000 
#    0.000    0.000    0.000    0.000    0.000    0.000 
#
# Total GULP energy -495763.591314 kJ/mol
# GULP energy per Si atom -12394.089783 kJ/mol
# Density = 2.077053 g / cm^3
# Si number density = 20.817916 Si / 1000 Ang^3
#
#
#
# Elastic Constant Matrix: (Units=GPa)
#
#
# Indices 1 2 3 4 5 6 
#
# 1 164.2423 38.1159 43.8007 0.0000 0.0000 0.0000
# 2 38.1159 99.3590 67.9783 0.0000 0.0000 0.0000
# 3 43.8007 67.9783 82.1648 0.0000 0.0000 0.0000
# 4 0.0000 0.0000 0.0000 26.4393 0.0000 0.0000
# 5 0.0000 0.0000 0.0000 0.0000 116.8790 0.0000
# 6 0.0000 0.0000 0.0000 0.0000 0.0000 41.6440
#
#
#
# Elastic Compliance Matrix: (Units=1/GPa)
#
#
# Indices 1 2 3 4 5 6 
#
# 1 0.007102 -0.000309 -0.003530 0.000000 0.000000 0.000000
# 2 -0.000309 0.023206 -0.019034 0.000000 0.000000 0.000000
# 3 -0.003530 -0.019034 0.029800 0.000000 0.000000 0.000000
# 4 0.000000 0.000000 0.000000 0.037822 0.000000 0.000000
# 5 0.000000 0.000000 0.000000 0.000000 0.008556 0.000000
# 6 0.000000 0.000000 0.000000 0.000000 0.000000 0.024013
#
#
# Mechanical properties :
#
#
# Convention : Reuss Voigt Hill
#
# Bulk Modulus (GPa) = 69.63379 71.72841 70.68110
# Shear Modulus (GPa) = 27.61931 50.05055 38.83493
#
# Velocity S-wave (km/s) = 3.64635 4.90859 4.32378
# Velocity P-wave (km/s) = 7.15887 8.16429 7.67805
#
# Compressibility (1/GPa) = 0.01436084
#
# Stress axis : x y z
#
# Youngs Moduli (GPa) = 140.81113 43.09275 33.55686
#
# Poissons Ratio (x) = 0.01333 0.11845
# Poissons Ratio (y) = 0.04355 0.63873
# Poissons Ratio (z) = 0.49705 0.82024
#
# Static dielectric constant tensor:
#      x y z
#    x 3.868270 0.000000 0.000000 
#    y 0.000000 4.474040 0.000000 
#    z 0.000000 0.000000 3.446720 
# 
# 
# High freq. dielectric constant tensor:
#      x y z
#    x 1.824040 0.000000 0.000000 
#    y 0.000000 1.849630 0.000000 
#    z 0.000000 0.000000 1.773940 
# 
# From -- ./inp_files/44094.got.cif
#   From: 2010.03.12/outbox.cif.g09.slc.cpg/sg68_23_cif.got.tgz:44094.got - 2010.04.10 23:14:56.
