data_PCOD8283511
_publ_section_title
;
Structure prediction by ZEFSAII (Michael W. Deem and Ramdas Pophale) SiO2 
 PCOD8283511
Probable space group: C C C A
;
_chemical_formula_sum "Si O2"
_cell_formula_units_Z 72
_cell_length_a 13.679822
_cell_length_b 12.481572
_cell_length_c 17.428650
_cell_angle_alpha 90.000000
_cell_angle_beta 90.000000
_cell_angle_gamma 90.000000
_cell_volume 2975.866752
_symmetry_space_group_name_H-M "C C C A"
_symmetry_group_IT_number 68
_space_group.IT_coordinate_system_code '2'
_symmetry_cell_setting 'orthorhombic'
loop_
_space_group_symop_operation_xyz
x,y,z
-x,1/2-y,z
x,1/2-y,1/2-z
-x,y,1/2-z
-x,-y,-z
x,1/2+y,-z
-x,1/2+y,1/2+z
x,-y,1/2+z
1/2+x,1/2+y,z
1/2-x,-y,z
1/2+x,-y,1/2-z
1/2-x,1/2+y,1/2-z
1/2-x,1/2-y,-z
1/2+x,y,-z
1/2-x,y,1/2+z
1/2+x,1/2-y,1/2+z
loop_
_atom_site_type_symbol
_atom_site_label
_atom_site_fract_x
_atom_site_fract_y
_atom_site_fract_z
Si Si1 0.568470 0.655375 0.965754
Si Si2 0.246128 0.810224 0.876879
Si Si3 0.000000 0.984429 0.250000
Si Si4 0.952351 0.418720 0.400600
Si Si5 0.298778 0.104119 0.218300
O O1 0.500000 0.750000 0.930537
O O2 0.680415 0.686482 0.949538
O O3 0.552028 0.541683 0.926298
O O4 0.542398 0.640185 0.056024
O O5 0.143136 0.844189 0.915056
O O6 0.254500 0.695995 0.835028
O O7 0.272265 0.891855 0.808599
O O8 0.033802 0.073682 0.310481
O O9 0.083504 0.906075 0.215880
O O10 0.250000 0.000000 0.181930
#
# Coordination Sequence:
#
# PCOD8283511 Si02
#       5
#    16  16   8  16  16
#     4  11  24  46  72 107 146 208 246 309 391 457
#     4  11  23  45  77 107 152 196 254 319 392 464
#     4  12  22  45  77 114 148 196 266 320 376 466
#     4  11  25  46  75 106 157 195 252 326 379 462
#     4  11  23  42  76 117 147 198 254 331 390 460
#
# _framework density 24.194631000000001
#
# number of rings (size 3 to 8) (size 9 to 14) (size 15 to 20)
#    0.000    0.889    4.444    2.000    0.000    3.556 
#    0.000    7.778    0.000    0.000    0.000    0.000 
#    0.000    0.000    0.000    0.000    0.000    0.000 
#
# Total GULP energy -446042.849342 kJ/mol
# GULP energy per Si atom -12390.079148 kJ/mol
# Density = 2.413956 g / cm^3
# Si number density = 24.194631 Si / 1000 Ang^3
#
#
#
# Elastic Constant Matrix: (Units=GPa)
#
#
# Indices 1 2 3 4 5 6 
#
# 1 127.7072 69.0096 67.6924 0.0000 0.0000 0.0000
# 2 69.0096 159.5542 43.8775 0.0000 0.0000 0.0000
# 3 67.6924 43.8775 94.8625 0.0000 0.0000 0.0000
# 4 0.0000 0.0000 0.0000 29.9911 0.0000 0.0000
# 5 0.0000 0.0000 0.0000 0.0000 36.0064 0.0000
# 6 0.0000 0.0000 0.0000 0.0000 0.0000 41.1044
#
#
#
# Elastic Compliance Matrix: (Units=1/GPa)
#
#
# Indices 1 2 3 4 5 6 
#
# 1 0.014451 -0.003912 -0.008503 0.000000 0.000000 0.000000
# 2 -0.003912 0.008240 -0.001020 0.000000 0.000000 0.000000
# 3 -0.008503 -0.001020 0.017081 0.000000 0.000000 0.000000
# 4 0.000000 0.000000 0.000000 0.033343 0.000000 0.000000
# 5 0.000000 0.000000 0.000000 0.000000 0.027773 0.000000
# 6 0.000000 0.000000 0.000000 0.000000 0.000000 0.024328
#
#
# Mechanical properties :
#
#
# Convention : Reuss Voigt Hill
#
# Bulk Modulus (GPa) = 77.50227 82.58698 80.04463
# Shear Modulus (GPa) = 31.97210 34.85669 33.41439
#
# Velocity S-wave (km/s) = 3.63912 3.79975 3.72030
# Velocity P-wave (km/s) = 7.05408 7.31159 7.18399
#
# Compressibility (1/GPa) = 0.01290285
#
# Stress axis : x y z
#
# Youngs Moduli (GPa) = 69.19732 121.36011 58.54590
#
# Poissons Ratio (x) = 0.47478 0.49780
# Poissons Ratio (y) = 0.27071 0.05969
# Poissons Ratio (z) = 0.58837 0.12374
#
# Static dielectric constant tensor:
#      x y z
#    x 4.359950 0.000000 0.000000 
#    y 0.000000 4.487260 0.000000 
#    z 0.000000 0.000000 4.411650 
# 
# 
# High freq. dielectric constant tensor:
#      x y z
#    x 1.955990 0.000000 0.000000 
#    y 0.000000 1.980530 0.000000 
#    z 0.000000 0.000000 1.953940 
# 
# From -- ./inp_files/30696.got.cif
#   From: 2010.03.12/outbox.cif.g09.slc.cpg/sg68_16_cif.got.tgz:30696.got - 2010.04.10 23:14:56.
