data_PCOD8283610
_publ_section_title
;
Structure prediction by ZEFSAII (Michael W. Deem and Ramdas Pophale) SiO2 
 PCOD8283610
Probable space group: C C C A
;
_chemical_formula_sum "Si O2"
_cell_formula_units_Z 56
_cell_length_a 5.631405
_cell_length_b 14.234920
_cell_length_c 28.421196
_cell_angle_alpha 90.000000
_cell_angle_beta 90.000000
_cell_angle_gamma 90.000000
_cell_volume 2278.316957
_symmetry_space_group_name_H-M "C C C A"
_symmetry_group_IT_number 68
_space_group.IT_coordinate_system_code '2'
_symmetry_cell_setting 'orthorhombic'
loop_
_space_group_symop_operation_xyz
x,y,z
-x,1/2-y,z
x,1/2-y,1/2-z
-x,y,1/2-z
-x,-y,-z
x,1/2+y,-z
-x,1/2+y,1/2+z
x,-y,1/2+z
1/2+x,1/2+y,z
1/2-x,-y,z
1/2+x,-y,1/2-z
1/2-x,1/2+y,1/2-z
1/2-x,1/2-y,-z
1/2+x,y,-z
1/2-x,y,1/2+z
1/2+x,1/2-y,1/2+z
loop_
_atom_site_type_symbol
_atom_site_label
_atom_site_fract_x
_atom_site_fract_y
_atom_site_fract_z
Si Si1 0.302607 0.394553 0.982508
Si Si2 0.326464 0.104715 0.790899
Si Si3 0.665164 0.103343 0.873087
Si Si4 0.500000 0.750000 0.826507
O O1 0.250000 0.500000 0.001199
O O2 0.379522 0.392439 0.928369
O O3 0.537899 0.347465 0.008223
O O4 0.500000 0.139627 0.750000
O O5 0.424488 0.116168 0.843948
O O6 0.111286 0.176290 0.790180
O O7 0.250000 0.000000 0.778651
O O8 0.834448 0.189316 0.860618
O O9 0.750000 0.000000 0.857406
#
# Coordination Sequence:
#
# PCOD8283610 Si02
#       4
#    16  16  16   8
#     4   9  20  38  70 109 150 202 256 313 383 451
#     4  12  28  51  77 109 149 195 250 311 381 458
#     4  11  24  46  76 108 150 199 250 316 374 454
#     4  12  28  49  76 106 148 198 244 312 383 456
#
# _framework density 24.579547999999999
#
# number of rings (size 3 to 8) (size 9 to 14) (size 15 to 20)
#    0.000    1.143    2.857    1.714    4.000    4.571 
#    0.000    1.429    0.000    0.000    0.000    0.000 
#    0.000    0.000    0.000    0.000    0.000    0.000 
#
# Total GULP energy -346940.921609 kJ/mol
# GULP energy per Si atom -12390.747200 kJ/mol
# Density = 2.452360 g / cm^3
# Si number density = 24.579548 Si / 1000 Ang^3
#
#
#
# Elastic Constant Matrix: (Units=GPa)
#
#
# Indices 1 2 3 4 5 6 
#
# 1 124.9167 4.6528 34.4180 0.0000 0.0000 0.0000
# 2 4.6528 121.6842 2.4924 0.0000 0.0000 0.0000
# 3 34.4180 2.4924 119.8944 0.0000 0.0000 0.0000
# 4 0.0000 0.0000 0.0000 -20.5389 0.0000 0.0000
# 5 0.0000 0.0000 0.0000 0.0000 29.0747 0.0000
# 6 0.0000 0.0000 0.0000 0.0000 0.0000 27.5980
#
#
#
# Elastic Compliance Matrix: (Units=1/GPa)
#
#
# Indices 1 2 3 4 5 6 
#
# 1 0.008703 -0.000282 -0.002492 0.000000 0.000000 0.000000
# 2 -0.000282 0.008231 -0.000090 0.000000 0.000000 0.000000
# 3 -0.002492 -0.000090 0.009058 0.000000 0.000000 0.000000
# 4 0.000000 0.000000 0.000000 -0.048688 0.000000 0.000000
# 5 0.000000 0.000000 0.000000 0.000000 0.034394 0.000000
# 6 0.000000 0.000000 0.000000 0.000000 0.000000 0.036235
#
#
# Mechanical properties :
#
#
# Convention : Reuss Voigt Hill
#
# Bulk Modulus (GPa) = 49.35209 49.95796 49.65503
# Shear Modulus (GPa) = 82.76146 28.88890 55.82518
#
# Velocity S-wave (km/s) = 5.80896 3.43202 4.77089
# Velocity P-wave (km/s) = 8.06933 6.00617 7.11295
#
# Compressibility (1/GPa) = 0.02026257
#
# Stress axis : x y z
#
# Youngs Moduli (GPa) = 114.90884 121.49759 110.39921
#
# Poissons Ratio (x) = 0.03423 0.27516
# Poissons Ratio (y) = 0.03237 0.00996
# Poissons Ratio (z) = 0.28640 0.01096
#
# Static dielectric constant tensor:
#      x y z
#    x 4.802800 0.000000 0.000000 
#    y 0.000000 4.560490 0.000000 
#    z 0.000000 0.000000 4.138360 
# 
# 
# High freq. dielectric constant tensor:
#      x y z
#    x 1.984050 0.000000 0.000000 
#    y 0.000000 1.981070 0.000000 
#    z 0.000000 0.000000 1.978660 
# 
# From -- ./inp_files/52736.got.cif
#   From: 2010.03.12/outbox.cif.g09.slc.cpg/sg68_27_cif.got.tgz:52736.got - 2010.04.10 23:14:56.
