data_PCOD8283855
_publ_section_title
;
Structure prediction by ZEFSAII (Michael W. Deem and Ramdas Pophale) SiO2 
 PCOD8283855
Probable space group: F M M M
;
_chemical_formula_sum "Si O2"
_cell_formula_units_Z 208
_cell_length_a 22.211447
_cell_length_b 31.821030
_cell_length_c 18.046715
_cell_angle_alpha 90.000000
_cell_angle_beta 90.000000
_cell_angle_gamma 90.000000
_cell_volume 12755.257931
_symmetry_space_group_name_H-M "F M M M"
_symmetry_group_IT_number 69
_symmetry_cell_setting 'orthorhombic'
loop_
_space_group_symop_operation_xyz
x,y,z
-x,-y,z
x,-y,-z
-x,y,-z
-x,-y,-z
x,y,-z
-x,y,z
x,-y,z
x,1/2+y,1/2+z
-x,1/2-y,1/2+z
x,1/2-y,1/2-z
-x,1/2+y,1/2-z
-x,1/2-y,1/2-z
x,1/2+y,1/2-z
-x,1/2+y,1/2+z
x,1/2-y,1/2+z
1/2+x,y,1/2+z
1/2-x,-y,1/2+z
1/2+x,-y,1/2-z
1/2-x,y,1/2-z
1/2-x,-y,1/2-z
1/2+x,y,1/2-z
1/2-x,y,1/2+z
1/2+x,-y,1/2+z
1/2+x,1/2+y,z
1/2-x,1/2-y,z
1/2+x,1/2-y,-z
1/2-x,1/2+y,-z
1/2-x,1/2-y,-z
1/2+x,1/2+y,-z
1/2-x,1/2+y,z
1/2+x,1/2-y,z
loop_
_atom_site_type_symbol
_atom_site_label
_atom_site_fract_x
_atom_site_fract_y
_atom_site_fract_z
Si Si1 0.567921 0.500000 0.912766
Si Si2 0.229848 0.095072 0.413718
Si Si3 0.183995 0.546484 0.216512
Si Si4 0.218459 0.688373 0.912103
Si Si5 0.930851 0.662410 0.587259
Si Si6 0.136381 0.917860 0.142013
Si Si7 0.339315 0.269861 0.087811
O O1 0.500000 0.500000 0.879315
O O2 0.603458 0.541215 0.888492
O O3 0.563627 0.500000 0.000000
O O4 0.215551 0.088223 0.500000
O O5 0.187966 0.063556 0.367224
O O6 0.209413 0.141066 0.383954
O O7 0.300543 0.087687 0.400531
O O8 0.154992 0.500000 0.213898
O O9 0.250000 0.543992 0.250000
O O10 0.144753 0.576509 0.269564
O O11 0.281789 0.705229 0.880241
O O12 0.165178 0.720735 0.886003
O O13 0.222456 0.687061 0.000000
O O14 0.921077 0.654730 0.500000
O O15 0.904220 0.622918 0.630527
O O16 0.899136 0.705794 0.614371
O O17 0.000000 0.667281 0.608404
O O18 0.336644 0.270330 0.000000
#
# Coordination Sequence:
#
# PCOD8283855 Si02
#       7
#    16  32  32  32  32  32  32
#     4  11  22  32  45  68  95 129 170 201 220 260
#     4  10  18  28  48  73  92 119 161 200 244 286
#     4   9  19  33  44  61  90 126 160 193 236 291
#     4   8  13  23  41  65  91 119 154 193 236 284
#     4  10  18  27  43  71 102 130 163 195 222 267
#     4  11  19  32  45  62  98 136 161 190 235 286
#     4   8  13  23  39  63  95 125 152 188 232 276
#
# _framework density 16.307001
#
# number of rings (size 3 to 8) (size 9 to 14) (size 15 to 20)
#    0.000    2.538    2.308    2.769    1.077    1.538 
#    0.000    0.000    0.000    0.923    0.000    3.231 
#    0.000    5.538    0.000    0.000    0.000    0.000 
#
# Total GULP energy -644348.089469 kJ/mol
# GULP energy per Si atom -12391.309413 kJ/mol
# Density = 1.626989 g / cm^3
# Si number density = 16.307001 Si / 1000 Ang^3
#
#
#
# Elastic Constant Matrix: (Units=GPa)
#
#
# Indices 1 2 3 4 5 6 
#
# 1 81.8966 58.9416 28.7209 0.0000 0.0000 0.0000
# 2 58.9416 123.7221 39.6109 0.0000 0.0000 0.0000
# 3 28.7209 39.6109 64.8278 0.0000 0.0000 0.0000
# 4 0.0000 0.0000 0.0000 8.7902 0.0000 0.0000
# 5 0.0000 0.0000 0.0000 0.0000 14.9531 0.0000
# 6 0.0000 0.0000 0.0000 0.0000 0.0000 13.0332
#
#
#
# Elastic Compliance Matrix: (Units=1/GPa)
#
#
# Indices 1 2 3 4 5 6 
#
# 1 0.019247 -0.008005 -0.003636 0.000000 0.000000 0.000000
# 2 -0.008005 0.013378 -0.004628 0.000000 0.000000 0.000000
# 3 -0.003636 -0.004628 0.019864 0.000000 0.000000 0.000000
# 4 0.000000 0.000000 0.000000 0.113764 0.000000 0.000000
# 5 0.000000 0.000000 0.000000 0.000000 0.066876 0.000000
# 6 0.000000 0.000000 0.000000 0.000000 0.000000 0.076727
#
#
# Mechanical properties :
#
#
# Convention : Reuss Voigt Hill
#
# Bulk Modulus (GPa) = 50.12130 58.33261 54.22696
# Shear Modulus (GPa) = 14.32490 16.90018 15.61254
#
# Velocity S-wave (km/s) = 2.96708 3.22277 3.09757
# Velocity P-wave (km/s) = 6.52234 7.04965 6.79111
#
# Compressibility (1/GPa) = 0.01995160
#
# Stress axis : x y z
#
# Youngs Moduli (GPa) = 51.95601 74.74977 50.34311
#
# Poissons Ratio (x) = 0.59840 0.18303
# Poissons Ratio (y) = 0.41593 0.23296
# Poissons Ratio (z) = 0.18889 0.34591
#
# Static dielectric constant tensor:
#      x y z
#    x 3.014040 0.000000 0.000000 
#    y 0.000000 3.384900 0.000000 
#    z 0.000000 0.000000 2.818390 
# 
# 
# High freq. dielectric constant tensor:
#      x y z
#    x 1.593410 0.000000 0.000000 
#    y 0.000000 1.645350 0.000000 
#    z 0.000000 0.000000 1.591140 
# 
# From -- ./inp_files/26186.got.cif
#   From: 2010.03.12/outbox.cif.g09.slc.cpg/sg69_14_cif.got.tgz:26186.got - 2010.04.10 23:52:46.
