data_PCOD8283981
_publ_section_title
;
Structure prediction by ZEFSAII (Michael W. Deem and Ramdas Pophale) SiO2 
 PCOD8283981
Probable space group: F M M M
;
_chemical_formula_sum "Si O2"
_cell_formula_units_Z 176
_cell_length_a 28.662847
_cell_length_b 14.515187
_cell_length_c 23.733423
_cell_angle_alpha 90.000000
_cell_angle_beta 90.000000
_cell_angle_gamma 90.000000
_cell_volume 9874.209570
_symmetry_space_group_name_H-M "F M M M"
_symmetry_group_IT_number 69
_symmetry_cell_setting 'orthorhombic'
loop_
_space_group_symop_operation_xyz
x,y,z
-x,-y,z
x,-y,-z
-x,y,-z
-x,-y,-z
x,y,-z
-x,y,z
x,-y,z
x,1/2+y,1/2+z
-x,1/2-y,1/2+z
x,1/2-y,1/2-z
-x,1/2+y,1/2-z
-x,1/2-y,1/2-z
x,1/2+y,1/2-z
-x,1/2+y,1/2+z
x,1/2-y,1/2+z
1/2+x,y,1/2+z
1/2-x,-y,1/2+z
1/2+x,-y,1/2-z
1/2-x,y,1/2-z
1/2-x,-y,1/2-z
1/2+x,y,1/2-z
1/2-x,y,1/2+z
1/2+x,-y,1/2+z
1/2+x,1/2+y,z
1/2-x,1/2-y,z
1/2+x,1/2-y,-z
1/2-x,1/2+y,-z
1/2-x,1/2-y,-z
1/2+x,1/2+y,-z
1/2-x,1/2+y,z
1/2+x,1/2-y,z
loop_
_atom_site_type_symbol
_atom_site_label
_atom_site_fract_x
_atom_site_fract_y
_atom_site_fract_z
Si Si1 0.728344 0.101645 0.808761
Si Si2 0.646121 0.234689 0.815961
Si Si3 0.900645 0.110442 0.397702
Si Si4 0.232269 0.648116 0.500000
Si Si5 0.816210 0.897794 0.885446
Si Si6 0.838380 0.397913 0.000000
Si Si7 0.500000 0.898713 0.065924
O O1 0.750000 0.131487 0.750000
O O2 0.694142 0.181860 0.826551
O O3 0.767170 0.097590 0.855238
O O4 0.704090 0.000000 0.804067
O O5 0.635690 0.250000 0.750000
O O6 0.607036 0.165813 0.839765
O O7 0.648686 0.329375 0.852140
O O8 0.861220 0.145324 0.443122
O O9 0.951676 0.148279 0.415459
O O10 0.898363 0.000000 0.388342
O O11 0.250000 0.750000 0.500000
O O12 0.197223 0.630818 0.448526
O O13 0.281756 0.593690 0.500000
O O14 0.839373 0.000000 0.885501
O O15 0.859232 0.500000 0.000000
O O16 0.500000 0.000000 0.092974
O O17 0.500000 0.904670 0.000000
#
# Coordination Sequence:
#
# PCOD8283981 Si02
#       7
#    32  32  32  16  32  16  16
#     4  10  19  33  52  72 100 143 189 232 266 298
#     4  12  23  34  51  74 108 145 189 228 253 302
#     4  10  20  34  57  85 108 132 162 208 273 338
#     4  12  22  34  51  71 103 144 184 231 271 309
#     4  11  23  36  50  71 105 150 192 229 269 306
#     4  10  18  31  50  76 106 129 159 208 266 323
#     4   9  16  34  61  86 113 131 148 196 275 353
#
# _framework density 17.824211999999999
#
# number of rings (size 3 to 8) (size 9 to 14) (size 15 to 20)
#    0.000    1.364    2.727    5.182    0.000    3.636 
#    0.000    0.455    0.000    0.000    0.000    0.636 
#    0.000    0.727    0.000    0.000    0.000    0.000 
#
# Total GULP energy -545141.434783 kJ/mol
# GULP energy per Si atom -12389.578063 kJ/mol
# Density = 1.778364 g / cm^3
# Si number density = 17.824212 Si / 1000 Ang^3
#
#
#
# Elastic Constant Matrix: (Units=GPa)
#
#
# Indices 1 2 3 4 5 6 
#
# 1 59.6040 18.5567 35.0958 0.0000 0.0000 0.0000
# 2 18.5567 99.3451 39.7452 0.0000 0.0000 0.0000
# 3 35.0958 39.7452 126.9201 0.0000 0.0000 0.0000
# 4 0.0000 0.0000 0.0000 30.1795 0.0000 0.0000
# 5 0.0000 0.0000 0.0000 0.0000 16.5984 0.0000
# 6 0.0000 0.0000 0.0000 0.0000 0.0000 16.9282
#
#
#
# Elastic Compliance Matrix: (Units=1/GPa)
#
#
# Indices 1 2 3 4 5 6 
#
# 1 0.020308 -0.001768 -0.005062 0.000000 0.000000 0.000000
# 2 -0.001768 0.011662 -0.003163 0.000000 0.000000 0.000000
# 3 -0.005062 -0.003163 0.010269 0.000000 0.000000 0.000000
# 4 0.000000 0.000000 0.000000 0.033135 0.000000 0.000000
# 5 0.000000 0.000000 0.000000 0.000000 0.060247 0.000000
# 6 0.000000 0.000000 0.000000 0.000000 0.000000 0.059073
#
#
# Mechanical properties :
#
#
# Convention : Reuss Voigt Hill
#
# Bulk Modulus (GPa) = 44.93770 52.51828 48.72799
# Shear Modulus (GPa) = 22.51257 25.57264 24.04261
#
# Velocity S-wave (km/s) = 3.55777 3.79187 3.67669
# Velocity P-wave (km/s) = 6.49179 6.97851 6.73954
#
# Compressibility (1/GPa) = 0.02225303
#
# Stress axis : x y z
#
# Youngs Moduli (GPa) = 49.24056 85.75149 97.37907
#
# Poissons Ratio (x) = 0.15163 0.49293
# Poissons Ratio (y) = 0.08707 0.30800
# Poissons Ratio (z) = 0.24925 0.27122
#
# Static dielectric constant tensor:
#      x y z
#    x 2.202150 0.000000 0.000000 
#    y 0.000000 3.560420 0.000000 
#    z 0.000000 0.000000 3.458050 
# 
# 
# High freq. dielectric constant tensor:
#      x y z
#    x 1.640710 0.000000 0.000000 
#    y 0.000000 1.687160 0.000000 
#    z 0.000000 0.000000 1.703320 
# 
# From -- ./inp_files/41252.got.cif
#   From: 2010.03.12/outbox.cif.g09.slc.cpg/sg69_21_cif.got.tgz:41252.got - 2010.04.10 23:52:46.
