data_PCOD8283449
_publ_section_title
;
Structure prediction by ZEFSAII (Michael W. Deem and Ramdas Pophale) SiO2 
 PCOD8283449
Probable space group: C C C A
;
_chemical_formula_sum "Si O2"
_cell_formula_units_Z 96
_cell_length_a 23.756236
_cell_length_b 17.642800
_cell_length_c 11.776801
_cell_angle_alpha 90.000000
_cell_angle_beta 90.000000
_cell_angle_gamma 90.000000
_cell_volume 4935.969626
_symmetry_space_group_name_H-M "C C C A"
_symmetry_group_IT_number 68
_space_group.IT_coordinate_system_code '2'
_symmetry_cell_setting 'orthorhombic'
loop_
_space_group_symop_operation_xyz
x,y,z
-x,1/2-y,z
x,1/2-y,1/2-z
-x,y,1/2-z
-x,-y,-z
x,1/2+y,-z
-x,1/2+y,1/2+z
x,-y,1/2+z
1/2+x,1/2+y,z
1/2-x,-y,z
1/2+x,-y,1/2-z
1/2-x,1/2+y,1/2-z
1/2-x,1/2-y,-z
1/2+x,y,-z
1/2-x,y,1/2+z
1/2+x,1/2-y,1/2+z
loop_
_atom_site_type_symbol
_atom_site_label
_atom_site_fract_x
_atom_site_fract_y
_atom_site_fract_z
Si Si1 0.000000 0.626700 0.250000
Si Si2 0.307726 0.327835 0.814436
Si Si3 0.312335 0.361148 0.414540
Si Si4 0.620575 0.214431 0.016968
Si Si5 0.193306 0.457744 0.134851
Si Si6 0.880516 0.911052 0.201215
Si Si7 0.000000 0.250000 0.933531
O O1 0.053416 0.573765 0.222941
O O2 0.982674 0.678705 0.143682
O O3 0.316809 0.250000 0.750000
O O4 0.245379 0.329148 0.864899
O O5 0.320280 0.395960 0.729701
O O6 0.353534 0.333963 0.914553
O O7 0.346419 0.292543 0.469402
O O8 0.298608 0.421754 0.511635
O O9 0.347342 0.404070 0.318637
O O10 0.626872 0.167442 0.133243
O O11 0.554633 0.230543 0.990267
O O12 0.250000 0.500000 0.171355
O O13 0.142393 0.517799 0.130271
#
# Coordination Sequence:
#
# PCOD8283449 Si02
#       7
#     8  16  16  16  16  16   8
#     4   9  18  38  64  94 127 162 218 264 313 374
#     4  12  25  42  64  93 129 169 209 261 318 389
#     4  12  24  41  65  92 128 163 214 264 317 386
#     4  11  22  41  68  95 125 162 219 262 315 374
#     4  12  27  42  59  93 135 172 207 258 330 384
#     4  11  23  40  68  95 126 167 212 267 318 373
#     4   9  18  36  65  98 124 162 213 271 310 370
#
# _framework density 19.449065000000001
#
# number of rings (size 3 to 8) (size 9 to 14) (size 15 to 20)
#    0.000    0.833    5.000    3.000    4.667    0.000 
#    0.000    2.917    0.000    0.000    0.000    0.000 
#    0.000    0.000    0.000    0.000    0.000    0.000 
#
# Total GULP energy -595482.210029 kJ/mol
# GULP energy per Si atom -12405.879376 kJ/mol
# Density = 1.940480 g / cm^3
# Si number density = 19.449065 Si / 1000 Ang^3
#
#
#
# Elastic Constant Matrix: (Units=GPa)
#
#
# Indices 1 2 3 4 5 6 
#
# 1 126.3791 25.4677 24.8626 0.0000 0.0000 0.0000
# 2 25.4677 74.8097 5.4812 0.0000 0.0000 0.0000
# 3 24.8626 5.4812 74.3956 0.0000 0.0000 0.0000
# 4 0.0000 0.0000 0.0000 26.5102 0.0000 0.0000
# 5 0.0000 0.0000 0.0000 0.0000 28.9045 0.0000
# 6 0.0000 0.0000 0.0000 0.0000 0.0000 29.2373
#
#
#
# Elastic Compliance Matrix: (Units=1/GPa)
#
#
# Indices 1 2 3 4 5 6 
#
# 1 0.009045 -0.002873 -0.002811 0.000000 0.000000 0.000000
# 2 -0.002873 0.014352 -0.000097 0.000000 0.000000 0.000000
# 3 -0.002811 -0.000097 0.014388 0.000000 0.000000 0.000000
# 4 0.000000 0.000000 0.000000 0.037721 0.000000 0.000000
# 5 0.000000 0.000000 0.000000 0.000000 0.034597 0.000000
# 6 0.000000 0.000000 0.000000 0.000000 0.000000 0.034203
#
#
# Mechanical properties :
#
#
# Convention : Reuss Voigt Hill
#
# Bulk Modulus (GPa) = 38.13504 43.02305 40.57905
# Shear Modulus (GPa) = 30.37482 31.58193 30.97837
#
# Velocity S-wave (km/s) = 3.95620 4.03405 3.99531
# Velocity P-wave (km/s) = 6.36545 6.62321 6.49561
#
# Compressibility (1/GPa) = 0.02622261
#
# Stress axis : x y z
#
# Youngs Moduli (GPa) = 110.56200 69.67430 69.50124
#
# Poissons Ratio (x) = 0.20019 0.19537
# Poissons Ratio (y) = 0.31766 0.00676
# Poissons Ratio (z) = 0.31079 0.00678
#
# Static dielectric constant tensor:
#      x y z
#    x 3.666440 0.000000 0.000000 
#    y 0.000000 3.546370 0.000000 
#    z 0.000000 0.000000 3.572540 
# 
# 
# High freq. dielectric constant tensor:
#      x y z
#    x 1.762920 0.000000 0.000000 
#    y 0.000000 1.754340 0.000000 
#    z 0.000000 0.000000 1.754680 
# 
# From -- ./inp_files/16450.got.cif
#   From: 2010.03.12/outbox.cif.g09.slc.cpg/sg68_9_cif.got.tgz:16450.got - 2010.04.10 23:14:56.
