data_PCOD8283578
_publ_section_title
;
Structure prediction by ZEFSAII (Michael W. Deem and Ramdas Pophale) SiO2 
 PCOD8283578
Probable space group: C C C A
;
_chemical_formula_sum "Si O2"
_cell_formula_units_Z 52
_cell_length_a 14.335492
_cell_length_b 14.641323
_cell_length_c 10.876977
_cell_angle_alpha 90.000000
_cell_angle_beta 90.000000
_cell_angle_gamma 90.000000
_cell_volume 2282.974889
_symmetry_space_group_name_H-M "C C C A"
_symmetry_group_IT_number 68
_space_group.IT_coordinate_system_code '2'
_symmetry_cell_setting 'orthorhombic'
loop_
_space_group_symop_operation_xyz
x,y,z
-x,1/2-y,z
x,1/2-y,1/2-z
-x,y,1/2-z
-x,-y,-z
x,1/2+y,-z
-x,1/2+y,1/2+z
x,-y,1/2+z
1/2+x,1/2+y,z
1/2-x,-y,z
1/2+x,-y,1/2-z
1/2-x,1/2+y,1/2-z
1/2-x,1/2-y,-z
1/2+x,y,-z
1/2-x,y,1/2+z
1/2+x,1/2-y,1/2+z
loop_
_atom_site_type_symbol
_atom_site_label
_atom_site_fract_x
_atom_site_fract_y
_atom_site_fract_z
Si Si1 0.967838 0.099704 0.624541
Si Si2 0.099666 0.402409 0.100709
Si Si3 0.220205 0.694751 0.118982
Si Si4 0.500000 0.750000 0.250000
O O1 0.881890 0.160070 0.578524
O O2 0.000000 0.146077 0.750000
O O3 0.057957 0.100805 0.536930
O O4 0.933329 0.997462 0.658003
O O5 0.211414 0.393770 0.116220
O O6 0.064596 0.313066 0.168792
O O7 0.222409 0.750000 0.250000
O O8 0.250000 0.750000 0.000000
#
# Coordination Sequence:
#
# PCOD8283578 Si02
#       4
#    16  16  16   4
#     4  11  25  46  69 105 142 184 234 299 354 419
#     4  11  24  43  72 100 141 183 233 286 361 422
#     4  12  26  44  70 103 140 188 239 293 351 428
#     4  12  20  44  70 100 132 180 228 282 348 428
#
# _framework density 22.777298999999999
#
# number of rings (size 3 to 8) (size 9 to 14) (size 15 to 20)
#    0.000    0.615    3.077    4.615    0.000    3.077 
#    0.000    6.154    0.000    0.000    0.000    0.000 
#    0.000    0.000    0.000    0.000    0.000    0.000 
#
# Total GULP energy -322161.646407 kJ/mol
# GULP energy per Si atom -12390.832554 kJ/mol
# Density = 2.272546 g / cm^3
# Si number density = 22.777299 Si / 1000 Ang^3
#
#
#
# Elastic Constant Matrix: (Units=GPa)
#
#
# Indices 1 2 3 4 5 6 
#
# 1 108.6113 9.3798 17.0783 0.0000 0.0000 0.0000
# 2 9.3798 93.3385 22.7952 0.0000 0.0000 0.0000
# 3 17.0783 22.7952 108.3849 0.0000 0.0000 0.0000
# 4 0.0000 0.0000 0.0000 8.9795 0.0000 0.0000
# 5 0.0000 0.0000 0.0000 0.0000 34.5431 0.0000
# 6 0.0000 0.0000 0.0000 0.0000 0.0000 2.0787
#
#
#
# Elastic Compliance Matrix: (Units=1/GPa)
#
#
# Indices 1 2 3 4 5 6 
#
# 1 0.009475 -0.000619 -0.001363 0.000000 0.000000 0.000000
# 2 -0.000619 0.011334 -0.002286 0.000000 0.000000 0.000000
# 3 -0.001363 -0.002286 0.009922 0.000000 0.000000 0.000000
# 4 0.000000 0.000000 0.000000 0.111364 0.000000 0.000000
# 5 0.000000 0.000000 0.000000 0.000000 0.028949 0.000000
# 6 0.000000 0.000000 0.000000 0.000000 0.000000 0.481076
#
#
# Mechanical properties :
#
#
# Convention : Reuss Voigt Hill
#
# Bulk Modulus (GPa) = 45.05603 45.42681 45.24142
# Shear Modulus (GPa) = 7.48440 26.52569 17.00505
#
# Velocity S-wave (km/s) = 1.81467 3.41628 2.73532
# Velocity P-wave (km/s) = 4.92085 5.96225 5.46641
#
# Compressibility (1/GPa) = 0.02219459
#
# Stress axis : x y z
#
# Youngs Moduli (GPa) = 105.54195 88.22804 100.78693
#
# Poissons Ratio (x) = 0.05464 0.13734
# Poissons Ratio (y) = 0.06537 0.23042
# Poissons Ratio (z) = 0.14382 0.20171
#
# Static dielectric constant tensor:
#      x y z
#    x 4.882450 0.000000 0.000000 
#    y 0.000000 4.998340 0.000000 
#    z 0.000000 0.000000 4.468350 
# 
# 
# High freq. dielectric constant tensor:
#      x y z
#    x 1.914800 0.000000 0.000000 
#    y 0.000000 1.908310 0.000000 
#    z 0.000000 0.000000 1.901130 
# 
# From -- ./inp_files/12512.got.cif
#   From: 2010.03.12/outbox.cif.g09.slc.cpg/sg68_7_cif.got.tgz:12512.got - 2010.04.10 23:14:56.
