data_PCOD8283098
_publ_section_title
;
Structure prediction by ZEFSAII (Michael W. Deem and Ramdas Pophale) SiO2 
 PCOD8283098
Probable space group: C C C A
;
_chemical_formula_sum "Si O2"
_cell_formula_units_Z 88
_cell_length_a 13.419232
_cell_length_b 13.808029
_cell_length_c 23.585108
_cell_angle_alpha 90.000000
_cell_angle_beta 90.000000
_cell_angle_gamma 90.000000
_cell_volume 4370.158827
_symmetry_space_group_name_H-M "C C C A"
_symmetry_group_IT_number 68
_space_group.IT_coordinate_system_code '2'
_symmetry_cell_setting 'orthorhombic'
loop_
_space_group_symop_operation_xyz
x,y,z
-x,1/2-y,z
x,1/2-y,1/2-z
-x,y,1/2-z
-x,-y,-z
x,1/2+y,-z
-x,1/2+y,1/2+z
x,-y,1/2+z
1/2+x,1/2+y,z
1/2-x,-y,z
1/2+x,-y,1/2-z
1/2-x,1/2+y,1/2-z
1/2-x,1/2-y,-z
1/2+x,y,-z
1/2-x,y,1/2+z
1/2+x,1/2-y,1/2+z
loop_
_atom_site_type_symbol
_atom_site_label
_atom_site_fract_x
_atom_site_fract_y
_atom_site_fract_z
Si Si1 0.486409 0.634875 0.535159
Si Si2 0.862111 0.018685 0.454776
Si Si3 0.500000 0.959735 0.250000
Si Si4 0.340545 0.219025 0.186830
Si Si5 0.038898 0.605842 0.159106
Si Si6 0.326781 0.079319 0.670999
O O1 0.500000 0.750000 0.543440
O O2 0.403556 0.613390 0.487707
O O3 0.588452 0.579558 0.519963
O O4 0.463709 0.576885 0.593549
O O5 0.874018 0.038567 0.387313
O O6 0.750000 0.000000 0.471476
O O7 0.583817 0.898347 0.284323
O O8 0.562727 0.020011 0.202784
O O9 0.317445 0.250000 0.250000
O O10 0.432116 0.144096 0.182297
O O11 0.372599 0.316149 0.155545
O O12 0.238902 0.175952 0.159706
O O13 0.250000 0.000000 0.696789
#
# Coordination Sequence:
#
# PCOD8283098 Si02
#       6
#    16  16   8  16  16  16
#     4  11  22  39  65  92 120 166 212 256 306 368
#     4  10  23  42  62  89 130 161 209 261 315 369
#     4  12  20  37  65  88 122 158 200 248 321 364
#     4  11  19  33  58  91 116 151 207 252 299 369
#     4  11  18  34  63  89 115 153 210 260 289 360
#     4  11  21  38  60  89 122 165 197 256 324 369
#
# _framework density 20.136568
#
# number of rings (size 3 to 8) (size 9 to 14) (size 15 to 20)
#    0.000    1.091    7.273    1.636    0.000    0.727 
#    0.000    5.000    0.000    0.000    0.000    0.000 
#    0.000    0.000    0.000    0.000    0.000    0.000 
#
# Total GULP energy -545085.778845 kJ/mol
# GULP energy per Si atom -12388.313156 kJ/mol
# Density = 2.009074 g / cm^3
# Si number density = 20.136568 Si / 1000 Ang^3
#
#
#
# Elastic Constant Matrix: (Units=GPa)
#
#
# Indices 1 2 3 4 5 6 
#
# 1 125.6646 43.1315 45.8684 0.0000 0.0000 0.0000
# 2 43.1315 62.7230 25.8588 0.0000 0.0000 0.0000
# 3 45.8684 25.8588 83.9231 0.0000 0.0000 0.0000
# 4 0.0000 0.0000 0.0000 67.7085 0.0000 0.0000
# 5 0.0000 0.0000 0.0000 0.0000 21.3260 0.0000
# 6 0.0000 0.0000 0.0000 0.0000 0.0000 6.4448
#
#
#
# Elastic Compliance Matrix: (Units=1/GPa)
#
#
# Indices 1 2 3 4 5 6 
#
# 1 0.011732 -0.006213 -0.004498 0.000000 0.000000 0.000000
# 2 -0.006213 0.021554 -0.003245 0.000000 0.000000 0.000000
# 3 -0.004498 -0.003245 0.015374 0.000000 0.000000 0.000000
# 4 0.000000 0.000000 0.000000 0.014769 0.000000 0.000000
# 5 0.000000 0.000000 0.000000 0.000000 0.046891 0.000000
# 6 0.000000 0.000000 0.000000 0.000000 0.000000 0.155164
#
#
# Mechanical properties :
#
#
# Convention : Reuss Voigt Hill
#
# Bulk Modulus (GPa) = 48.19993 55.78088 51.99040
# Shear Modulus (GPa) = 16.64934 29.59265 23.12100
#
# Velocity S-wave (km/s) = 2.87857 3.83769 3.39220
# Velocity P-wave (km/s) = 5.91918 6.88466 6.42010
#
# Compressibility (1/GPa) = 0.02074692
#
# Stress axis : x y z
#
# Youngs Moduli (GPa) = 85.23761 46.39602 65.04548
#
# Poissons Ratio (x) = 0.28827 0.29255
# Poissons Ratio (y) = 0.52960 0.21110
# Poissons Ratio (z) = 0.38337 0.15057
#
# Static dielectric constant tensor:
#      x y z
#    x 3.653170 0.000000 0.000000 
#    y 0.000000 3.466610 0.000000 
#    z 0.000000 0.000000 3.744350 
# 
# 
# High freq. dielectric constant tensor:
#      x y z
#    x 1.774850 0.000000 0.000000 
#    y 0.000000 1.759560 0.000000 
#    z 0.000000 0.000000 1.787550 
# 
# From -- ./inp_files/50172.got.cif
#   From: 2010.03.12/outbox.cif.g09.slc.cpg/sg68_26_cif.got.tgz:50172.got - 2010.04.10 23:14:56.
