data_PCOD8283469
_publ_section_title
;
Structure prediction by ZEFSAII (Michael W. Deem and Ramdas Pophale) SiO2 
 PCOD8283469
Probable space group: C C C A
;
_chemical_formula_sum "Si O2"
_cell_formula_units_Z 112
_cell_length_a 11.142244
_cell_length_b 15.396398
_cell_length_c 29.256117
_cell_angle_alpha 90.000000
_cell_angle_beta 90.000000
_cell_angle_gamma 90.000000
_cell_volume 5018.899254
_symmetry_space_group_name_H-M "C C C A"
_symmetry_group_IT_number 68
_space_group.IT_coordinate_system_code '2'
_symmetry_cell_setting 'orthorhombic'
loop_
_space_group_symop_operation_xyz
x,y,z
-x,1/2-y,z
x,1/2-y,1/2-z
-x,y,1/2-z
-x,-y,-z
x,1/2+y,-z
-x,1/2+y,1/2+z
x,-y,1/2+z
1/2+x,1/2+y,z
1/2-x,-y,z
1/2+x,-y,1/2-z
1/2-x,1/2+y,1/2-z
1/2-x,1/2-y,-z
1/2+x,y,-z
1/2-x,y,1/2+z
1/2+x,1/2-y,1/2+z
loop_
_atom_site_type_symbol
_atom_site_label
_atom_site_fract_x
_atom_site_fract_y
_atom_site_fract_z
Si Si1 0.015125 0.852182 0.922317
Si Si2 0.993087 0.350336 0.322135
Si Si3 0.358890 0.754351 0.860951
Si Si4 0.249722 0.597124 0.804578
Si Si5 0.255803 0.597870 0.703093
Si Si6 0.623943 0.549907 0.008396
Si Si7 0.760574 0.688082 0.456114
O O1 0.023609 0.894494 0.871981
O O2 0.138774 0.868407 0.949897
O O3 0.000000 0.750000 0.920847
O O4 0.898935 0.894562 0.945771
O O5 0.879913 0.370101 0.290740
O O6 0.000000 0.250000 0.331743
O O7 0.111309 0.380869 0.296757
O O8 0.500000 0.750000 0.868746
O O9 0.314700 0.665463 0.837558
O O10 0.329697 0.838729 0.830186
O O11 0.292655 0.760267 0.909785
O O12 0.250000 0.500000 0.825588
O O13 0.312758 0.599263 0.754286
O O14 0.250000 0.500000 0.683124
O O15 0.750000 0.500000 0.016113
O O16 0.500000 0.500000 0.000000
O O17 0.637310 0.616400 0.965945
O O18 0.750000 0.750000 0.500000
#
# Coordination Sequence:
#
# PCOD8283469 Si02
#       7
#    16  16  16  16  16  16  16
#     4  11  22  44  73  98 139 189 235 299 357 433
#     4  11  22  44  73 104 137 184 243 293 360 427
#     4  12  28  48  72 107 145 195 244 299 373 446
#     4  11  26  47  71 108 143 186 240 302 364 433
#     4  11  25  45  74 105 145 190 235 295 372 438
#     4  12  27  44  68 108 143 188 244 305 367 435
#     4  12  26  48  73  98 143 192 241 292 367 437
#
# _framework density 22.315650999999999
#
# number of rings (size 3 to 8) (size 9 to 14) (size 15 to 20)
#    0.000    0.571    5.714    1.714    4.000    4.000 
#    0.000    0.000    0.000    0.000    0.000    0.000 
#    0.000    0.000    0.000    0.000    0.000    0.000 
#
# Total GULP energy -694131.313266 kJ/mol
# GULP energy per Si atom -12395.202023 kJ/mol
# Density = 2.226486 g / cm^3
# Si number density = 22.315651 Si / 1000 Ang^3
#
#
#
# Elastic Constant Matrix: (Units=GPa)
#
#
# Indices 1 2 3 4 5 6 
#
# 1 132.2857 39.5850 31.1565 0.0000 0.0000 0.0000
# 2 39.5850 130.2910 62.7505 0.0000 0.0000 0.0000
# 3 31.1565 62.7505 143.1913 0.0000 0.0000 0.0000
# 4 0.0000 0.0000 0.0000 16.5150 0.0000 0.0000
# 5 0.0000 0.0000 0.0000 0.0000 33.8520 0.0000
# 6 0.0000 0.0000 0.0000 0.0000 0.0000 39.8125
#
#
#
# Elastic Compliance Matrix: (Units=1/GPa)
#
#
# Indices 1 2 3 4 5 6 
#
# 1 0.008406 -0.002121 -0.000900 0.000000 0.000000 0.000000
# 2 -0.002121 0.010263 -0.004036 0.000000 0.000000 0.000000
# 3 -0.000900 -0.004036 0.008948 0.000000 0.000000 0.000000
# 4 0.000000 0.000000 0.000000 0.060551 0.000000 0.000000
# 5 0.000000 0.000000 0.000000 0.000000 0.029540 0.000000
# 6 0.000000 0.000000 0.000000 0.000000 0.000000 0.025118
#
#
# Mechanical properties :
#
#
# Convention : Reuss Voigt Hill
#
# Bulk Modulus (GPa) = 74.05027 74.75023 74.40025
# Shear Modulus (GPa) = 30.97104 36.18763 33.57933
#
# Velocity S-wave (km/s) = 3.72944 4.03131 3.88331
# Velocity P-wave (km/s) = 7.19723 7.43223 7.31568
#
# Compressibility (1/GPa) = 0.01350434
#
# Stress axis : x y z
#
# Youngs Moduli (GPa) = 118.96476 97.43419 111.75379
#
# Poissons Ratio (x) = 0.20661 0.10055
# Poissons Ratio (y) = 0.25227 0.45107
# Poissons Ratio (z) = 0.10703 0.39327
#
# Static dielectric constant tensor:
#      x y z
#    x 3.427870 0.000000 0.000000 
#    y 0.000000 4.152690 0.000000 
#    z 0.000000 0.000000 4.305340 
# 
# 
# High freq. dielectric constant tensor:
#      x y z
#    x 1.882820 0.000000 0.000000 
#    y 0.000000 1.881210 0.000000 
#    z 0.000000 0.000000 1.888530 
# 
# From -- ./inp_files/54831.got.cif
#   From: 2010.03.12/outbox.cif.g09.slc.cpg/sg68_28_cif.got.tgz:54831.got - 2010.04.10 23:14:56.
