data_PCOD8283914
_publ_section_title
;
Structure prediction by ZEFSAII (Michael W. Deem and Ramdas Pophale) SiO2 
 PCOD8283914
Probable space group: F M M M
;
_chemical_formula_sum "Si O2"
_cell_formula_units_Z 160
_cell_length_a 23.928186
_cell_length_b 24.356146
_cell_length_c 16.956502
_cell_angle_alpha 90.000000
_cell_angle_beta 90.000000
_cell_angle_gamma 90.000000
_cell_volume 9882.222095
_symmetry_space_group_name_H-M "F M M M"
_symmetry_group_IT_number 69
_symmetry_cell_setting 'orthorhombic'
loop_
_space_group_symop_operation_xyz
x,y,z
-x,-y,z
x,-y,-z
-x,y,-z
-x,-y,-z
x,y,-z
-x,y,z
x,-y,z
x,1/2+y,1/2+z
-x,1/2-y,1/2+z
x,1/2-y,1/2-z
-x,1/2+y,1/2-z
-x,1/2-y,1/2-z
x,1/2+y,1/2-z
-x,1/2+y,1/2+z
x,1/2-y,1/2+z
1/2+x,y,1/2+z
1/2-x,-y,1/2+z
1/2+x,-y,1/2-z
1/2-x,y,1/2-z
1/2-x,-y,1/2-z
1/2+x,y,1/2-z
1/2-x,y,1/2+z
1/2+x,-y,1/2+z
1/2+x,1/2+y,z
1/2-x,1/2-y,z
1/2+x,1/2-y,-z
1/2-x,1/2+y,-z
1/2-x,1/2-y,-z
1/2+x,1/2+y,-z
1/2-x,1/2+y,z
1/2+x,1/2-y,z
loop_
_atom_site_type_symbol
_atom_site_label
_atom_site_fract_x
_atom_site_fract_y
_atom_site_fract_z
Si Si1 0.614633 0.559582 0.593639
Si Si2 0.561994 0.830195 0.093922
Si Si3 0.833684 0.237811 0.407908
Si Si4 0.235093 0.670780 0.340311
Si Si5 0.242356 0.061065 0.407495
O O1 0.612531 0.560190 0.500000
O O2 0.592161 0.500000 0.623902
O O3 0.577808 0.609462 0.628291
O O4 0.678478 0.567073 0.620503
O O5 0.500000 0.814274 0.124102
O O6 0.606653 0.784990 0.122980
O O7 0.563868 0.833155 0.000000
O O8 0.836001 0.251781 0.500000
O O9 0.819872 0.293256 0.359792
O O10 0.786360 0.191741 0.394196
O O11 0.250000 0.679470 0.250000
O O12 0.222411 0.607129 0.360471
O O13 0.248697 0.071575 0.500000
O O14 0.264665 0.000000 0.385838
#
# Coordination Sequence:
#
# PCOD8283914 Si02
#       5
#    32  32  32  32  32
#     4   8  13  22  37  58  84 111 139 171 207 252
#     4   9  16  25  40  63  87 110 142 185 222 254
#     4  10  18  30  46  62  85 117 153 182 219 260
#     4  11  20  29  44  65  89 116 147 187 218 259
#     4   9  16  28  46  66  88 115 145 175 214 263
#
# _framework density 16.190691000000001
#
# number of rings (size 3 to 8) (size 9 to 14) (size 15 to 20)
#    0.000    2.600    2.000    4.800    0.000    0.800 
#    0.000    2.000    0.000    2.400    0.000    0.000 
#    0.000    0.800    0.000    7.400    0.000    0.000 
#
# Total GULP energy -495728.198480 kJ/mol
# GULP energy per Si atom -12393.204962 kJ/mol
# Density = 1.615384 g / cm^3
# Si number density = 16.190691 Si / 1000 Ang^3
#
#
#
# Elastic Constant Matrix: (Units=GPa)
#
#
# Indices 1 2 3 4 5 6 
#
# 1 86.4671 68.8807 14.8843 0.0000 0.0000 0.0000
# 2 68.8807 146.4722 35.6286 0.0000 0.0000 0.0000
# 3 14.8843 35.6286 43.7900 0.0000 0.0000 0.0000
# 4 0.0000 0.0000 0.0000 10.5799 0.0000 0.0000
# 5 0.0000 0.0000 0.0000 0.0000 4.8715 0.0000
# 6 0.0000 0.0000 0.0000 0.0000 0.0000 24.0385
#
#
#
# Elastic Compliance Matrix: (Units=1/GPa)
#
#
# Indices 1 2 3 4 5 6 
#
# 1 0.018527 -0.008953 0.000987 0.000000 0.000000 0.000000
# 2 -0.008953 0.012838 -0.007402 0.000000 0.000000 0.000000
# 3 0.000987 -0.007402 0.028524 0.000000 0.000000 0.000000
# 4 0.000000 0.000000 0.000000 0.094519 0.000000 0.000000
# 5 0.000000 0.000000 0.000000 0.000000 0.205274 0.000000
# 6 0.000000 0.000000 0.000000 0.000000 0.000000 0.041600
#
#
# Mechanical properties :
#
#
# Convention : Reuss Voigt Hill
#
# Bulk Modulus (GPa) = 34.30279 57.27962 45.79121
# Shear Modulus (GPa) = 11.31900 18.38702 14.85301
#
# Velocity S-wave (km/s) = 2.64693 3.37360 3.03211
# Velocity P-wave (km/s) = 5.52941 7.11547 6.37198
#
# Compressibility (1/GPa) = 0.02915215
#
# Stress axis : x y z
#
# Youngs Moduli (GPa) = 53.97531 77.89458 35.05880
#
# Poissons Ratio (x) = 0.69736 -0.03459
# Poissons Ratio (y) = 0.48322 0.25951
# Poissons Ratio (z) = -0.05326 0.57659
#
# Static dielectric constant tensor:
#      x y z
#    x 2.982840 0.000000 0.000000 
#    y 0.000000 3.389960 0.000000 
#    z 0.000000 0.000000 2.610630 
# 
# 
# High freq. dielectric constant tensor:
#      x y z
#    x 1.584290 0.000000 0.000000 
#    y 0.000000 1.636340 0.000000 
#    z 0.000000 0.000000 1.575470 
# 
# From -- ./inp_files/17717.got.cif
#   From: 2010.03.12/outbox.cif.g09.slc.cpg/sg69_9_cif.got.tgz:17717.got - 2010.04.10 23:52:46.
