data_PCOD8283338
_publ_section_title
;
Structure prediction by ZEFSAII (Michael W. Deem and Ramdas Pophale) SiO2 
 PCOD8283338
Probable space group: C C C A
;
_chemical_formula_sum "Si O2"
_cell_formula_units_Z 104
_cell_length_a 22.557296
_cell_length_b 18.084284
_cell_length_c 13.939768
_cell_angle_alpha 90.000000
_cell_angle_beta 90.000000
_cell_angle_gamma 90.000000
_cell_volume 5686.485067
_symmetry_space_group_name_H-M "C C C A"
_symmetry_group_IT_number 68
_space_group.IT_coordinate_system_code '2'
_symmetry_cell_setting 'orthorhombic'
loop_
_space_group_symop_operation_xyz
x,y,z
-x,1/2-y,z
x,1/2-y,1/2-z
-x,y,1/2-z
-x,-y,-z
x,1/2+y,-z
-x,1/2+y,1/2+z
x,-y,1/2+z
1/2+x,1/2+y,z
1/2-x,-y,z
1/2+x,-y,1/2-z
1/2-x,1/2+y,1/2-z
1/2-x,1/2-y,-z
1/2+x,y,-z
1/2-x,y,1/2+z
1/2+x,1/2-y,1/2+z
loop_
_atom_site_type_symbol
_atom_site_label
_atom_site_fract_x
_atom_site_fract_y
_atom_site_fract_z
Si Si1 0.818965 0.010117 0.092233
Si Si2 0.737763 0.750000 0.750000
Si Si3 0.667257 0.341359 0.393388
Si Si4 0.684253 0.028901 0.803568
Si Si5 0.143160 0.599512 0.414589
Si Si6 0.066385 0.737040 0.363308
Si Si7 0.773594 0.660068 0.587161
O O1 0.825026 0.053549 0.193312
O O2 0.750000 0.000000 0.058371
O O3 0.845367 0.928475 0.107335
O O4 0.857155 0.058022 0.017767
O O5 0.696031 0.816154 0.708214
O O6 0.781469 0.724642 0.665137
O O7 0.605894 0.299766 0.413197
O O8 0.711009 0.316526 0.479451
O O9 0.680756 0.095818 0.879583
O O10 0.750000 0.000000 0.814319
O O11 0.638309 0.964808 0.834122
O O12 0.088678 0.655585 0.396941
O O13 0.203954 0.643780 0.406119
O O14 0.070093 0.750000 0.250000
O O15 0.000000 0.750000 0.400985
#
# Coordination Sequence:
#
# PCOD8283338 Si02
#       7
#    16   8  16  16  16  16  16
#     4  11  19  32  57  85 125 156 182 228 296 366
#     4  12  22  32  53  88 125 158 184 236 296 370
#     4  12  21  37  56  88 119 153 193 241 287 353
#     4   9  18  31  51  81 121 158 185 216 286 365
#     4  11  19  37  56  85 117 156 188 241 290 352
#     4  11  24  41  60  82 112 156 206 253 292 328
#     4  11  21  32  52  86 123 150 186 229 298 362
#
# _framework density 18.288978
#
# number of rings (size 3 to 8) (size 9 to 14) (size 15 to 20)
#    0.000    1.077    5.385    4.615    0.000    0.000 
#    0.000    0.769    0.000    0.000    0.000    3.769 
#    0.000    0.000    0.000    0.000    0.000    0.000 
#
# Total GULP energy -644556.329158 kJ/mol
# GULP energy per Si atom -12395.314022 kJ/mol
# Density = 1.824735 g / cm^3
# Si number density = 18.288978 Si / 1000 Ang^3
#
#
#
# Elastic Constant Matrix: (Units=GPa)
#
#
# Indices 1 2 3 4 5 6 
#
# 1 76.6548 40.7360 23.8266 0.0000 0.0000 0.0000
# 2 40.7360 97.8794 28.6858 0.0000 0.0000 0.0000
# 3 23.8266 28.6858 111.6652 0.0000 0.0000 0.0000
# 4 0.0000 0.0000 0.0000 38.9927 0.0000 0.0000
# 5 0.0000 0.0000 0.0000 0.0000 11.8182 0.0000
# 6 0.0000 0.0000 0.0000 0.0000 0.0000 22.0676
#
#
#
# Elastic Compliance Matrix: (Units=1/GPa)
#
#
# Indices 1 2 3 4 5 6 
#
# 1 0.017143 -0.006556 -0.001974 0.000000 0.000000 0.000000
# 2 -0.006556 0.013556 -0.002083 0.000000 0.000000 0.000000
# 3 -0.001974 -0.002083 0.009912 0.000000 0.000000 0.000000
# 4 0.000000 0.000000 0.000000 0.025646 0.000000 0.000000
# 5 0.000000 0.000000 0.000000 0.000000 0.084616 0.000000
# 6 0.000000 0.000000 0.000000 0.000000 0.000000 0.045315
#
#
# Mechanical properties :
#
#
# Convention : Reuss Voigt Hill
#
# Bulk Modulus (GPa) = 51.58917 52.52180 52.05548
# Shear Modulus (GPa) = 22.33383 27.43908 24.88646
#
# Velocity S-wave (km/s) = 3.49831 3.87758 3.69282
# Velocity P-wave (km/s) = 6.67732 6.98767 6.83426
#
# Compressibility (1/GPa) = 0.01938391
#
# Stress axis : x y z
#
# Youngs Moduli (GPa) = 58.33237 73.76860 100.89099
#
# Poissons Ratio (x) = 0.48365 0.19912
# Poissons Ratio (y) = 0.38245 0.21020
# Poissons Ratio (z) = 0.11513 0.15369
#
# Static dielectric constant tensor:
#      x y z
#    x 2.936570 0.000000 0.000000 
#    y 0.000000 3.591690 0.000000 
#    z 0.000000 0.000000 3.707080 
# 
# 
# High freq. dielectric constant tensor:
#      x y z
#    x 1.631370 0.000000 0.000000 
#    y 0.000000 1.721530 0.000000 
#    z 0.000000 0.000000 1.729400 
# 
# From -- ./inp_files/24774.got.cif
#   From: 2010.03.12/outbox.cif.g09.slc.cpg/sg68_13_cif.got.tgz:24774.got - 2010.04.10 23:14:56.
