data_PCOD8283695
_publ_section_title
;
Structure prediction by ZEFSAII (Michael W. Deem and Ramdas Pophale) SiO2 
 PCOD8283695
Probable space group: C C C A
;
_chemical_formula_sum "Si O2"
_cell_formula_units_Z 48
_cell_length_a 17.631614
_cell_length_b 6.809558
_cell_length_c 17.046699
_cell_angle_alpha 90.000000
_cell_angle_beta 90.000000
_cell_angle_gamma 90.000000
_cell_volume 2046.686314
_symmetry_space_group_name_H-M "C C C A"
_symmetry_group_IT_number 68
_space_group.IT_coordinate_system_code '2'
_symmetry_cell_setting 'orthorhombic'
loop_
_space_group_symop_operation_xyz
x,y,z
-x,1/2-y,z
x,1/2-y,1/2-z
-x,y,1/2-z
-x,-y,-z
x,1/2+y,-z
-x,1/2+y,1/2+z
x,-y,1/2+z
1/2+x,1/2+y,z
1/2-x,-y,z
1/2+x,-y,1/2-z
1/2-x,1/2+y,1/2-z
1/2-x,1/2-y,-z
1/2+x,y,-z
1/2-x,y,1/2+z
1/2+x,1/2-y,1/2+z
loop_
_atom_site_type_symbol
_atom_site_label
_atom_site_fract_x
_atom_site_fract_y
_atom_site_fract_z
Si Si1 0.172546 0.101758 0.316177
Si Si2 0.411342 0.283595 0.098400
Si Si3 0.329439 0.583423 0.444306
O O1 0.141942 0.250000 0.250000
O O2 0.188053 0.220219 0.396169
O O3 0.250000 0.000000 0.287431
O O4 0.109707 0.934444 0.332034
O O5 0.500000 0.250000 0.098711
O O6 0.368668 0.077024 0.112619
O O7 0.386285 0.370682 0.014783
O O8 0.250000 0.500000 0.477627
#
# Coordination Sequence:
#
# PCOD8283695 Si02
#       3
#    16  16  16
#     4  12  27  47  75 105 146 194 246 303 361 433
#     4  12  26  44  75 113 149 188 239 302 367 433
#     4  12  23  44  75 111 144 191 248 297 351 433
#
# _framework density 23.452544
#
# number of rings (size 3 to 8) (size 9 to 14) (size 15 to 20)
#    0.000    0.000    6.667    4.000    0.000    0.000 
#    0.000    5.000    0.000    0.000    0.000    0.000 
#    0.000    0.000    0.000    0.000    0.000    0.000 
#
# Total GULP energy -297763.434766 kJ/mol
# GULP energy per Si atom -12406.809782 kJ/mol
# Density = 2.339917 g / cm^3
# Si number density = 23.452544 Si / 1000 Ang^3
#
#
#
# Elastic Constant Matrix: (Units=GPa)
#
#
# Indices 1 2 3 4 5 6 
#
# 1 188.4929 56.8623 35.2606 0.0000 0.0000 0.0000
# 2 56.8623 131.5964 27.8560 0.0000 0.0000 0.0000
# 3 35.2606 27.8560 69.6877 0.0000 0.0000 0.0000
# 4 0.0000 0.0000 0.0000 0.9420 0.0000 0.0000
# 5 0.0000 0.0000 0.0000 0.0000 -23.3769 0.0000
# 6 0.0000 0.0000 0.0000 0.0000 0.0000 36.6568
#
#
#
# Elastic Compliance Matrix: (Units=1/GPa)
#
#
# Indices 1 2 3 4 5 6 
#
# 1 0.006432 -0.002284 -0.002342 0.000000 0.000000 0.000000
# 2 -0.002284 0.009112 -0.002487 0.000000 0.000000 0.000000
# 3 -0.002342 -0.002487 0.016529 0.000000 0.000000 0.000000
# 4 0.000000 0.000000 0.000000 1.061521 0.000000 0.000000
# 5 0.000000 0.000000 0.000000 0.000000 -0.042777 0.000000
# 6 0.000000 0.000000 0.000000 0.000000 0.000000 0.027280
#
#
# Mechanical properties :
#
#
# Convention : Reuss Voigt Hill
#
# Bulk Modulus (GPa) = 56.02711 69.97055 62.99883
# Shear Modulus (GPa) = 4.55261 20.83093 12.69177
#
# Velocity S-wave (km/s) = 1.39478 2.98353 2.32883
# Velocity P-wave (km/s) = 5.15124 6.46284 5.84396
#
# Compressibility (1/GPa) = 0.01784850
#
# Stress axis : x y z
#
# Youngs Moduli (GPa) = 155.46780 109.74343 60.50091
#
# Poissons Ratio (x) = 0.25061 0.14168
# Poissons Ratio (y) = 0.35503 0.15046
# Poissons Ratio (z) = 0.36406 0.27292
#
# Static dielectric constant tensor:
#      x y z
#    x 3.971080 0.000000 0.000000 
#    y 0.000000 4.991690 0.000000 
#    z 0.000000 0.000000 3.976220 
# 
# 
# High freq. dielectric constant tensor:
#      x y z
#    x 1.910690 0.000000 0.000000 
#    y 0.000000 1.964450 0.000000 
#    z 0.000000 0.000000 1.913260 
# 
# From -- ./inp_files/22938.got.cif
#   From: 2010.03.12/outbox.cif.g09.slc.cpg/sg68_12_cif.got.tgz:22938.got - 2010.04.10 23:14:56.
