data_PCOD8283415
_publ_section_title
;
Structure prediction by ZEFSAII (Michael W. Deem and Ramdas Pophale) SiO2 
 PCOD8283415
Probable space group: C C C A
;
_chemical_formula_sum "Si O2"
_cell_formula_units_Z 96
_cell_length_a 17.188205
_cell_length_b 14.140399
_cell_length_c 18.530093
_cell_angle_alpha 90.000000
_cell_angle_beta 90.000000
_cell_angle_gamma 90.000000
_cell_volume 4503.703466
_symmetry_space_group_name_H-M "C C C A"
_symmetry_group_IT_number 68
_space_group.IT_coordinate_system_code '2'
_symmetry_cell_setting 'orthorhombic'
loop_
_space_group_symop_operation_xyz
x,y,z
-x,1/2-y,z
x,1/2-y,1/2-z
-x,y,1/2-z
-x,-y,-z
x,1/2+y,-z
-x,1/2+y,1/2+z
x,-y,1/2+z
1/2+x,1/2+y,z
1/2-x,-y,z
1/2+x,-y,1/2-z
1/2-x,1/2+y,1/2-z
1/2-x,1/2-y,-z
1/2+x,y,-z
1/2-x,y,1/2+z
1/2+x,1/2-y,1/2+z
loop_
_atom_site_type_symbol
_atom_site_label
_atom_site_fract_x
_atom_site_fract_y
_atom_site_fract_z
Si Si1 0.756701 0.259224 0.834609
Si Si2 0.921129 0.691383 0.149254
Si Si3 0.580988 0.458238 0.023066
Si Si4 0.175816 0.054929 0.385433
Si Si5 0.589406 0.017305 0.251029
Si Si6 0.320000 0.928974 0.127296
O O1 0.753123 0.250000 0.750000
O O2 0.847165 0.260950 0.860792
O O3 0.708247 0.351668 0.849876
O O4 0.713271 0.175995 0.878246
O O5 0.931952 0.626364 0.079211
O O6 0.901670 0.624523 0.218452
O O7 0.000000 0.750000 0.162856
O O8 0.631775 0.544024 0.055890
O O9 0.500000 0.500000 0.000000
O O10 0.621737 0.416902 0.952144
O O11 0.250000 0.000000 0.416205
O O12 0.128772 0.990241 0.327687
O O13 0.500000 0.988919 0.250000
O O14 0.626774 0.938779 0.302356
O O15 0.250000 0.000000 0.138556
#
# Coordination Sequence:
#
# PCOD8283415 Si02
#       6
#    16  16  16  16  16  16
#     4  12  25  43  75 110 138 181 244 300 355 429
#     4  11  27  44  71 108 143 187 240 300 356 429
#     4  11  26  48  69  99 148 196 233 296 368 426
#     4  12  26  43  71 108 141 188 243 292 354 436
#     4  11  23  43  69 102 145 181 230 295 356 420
#     4  11  21  47  71  98 143 188 231 288 362 421
#
# _framework density 21.315791000000001
#
# number of rings (size 3 to 8) (size 9 to 14) (size 15 to 20)
#    0.000    0.667    5.000    4.000    7.000    2.000 
#    0.000    3.333    0.000    0.000    0.000    0.000 
#    0.000    0.000    0.000    0.000    0.000    0.000 
#
# Total GULP energy -595275.041659 kJ/mol
# GULP energy per Si atom -12401.563368 kJ/mol
# Density = 2.126728 g / cm^3
# Si number density = 21.315791 Si / 1000 Ang^3
#
#
#
# Elastic Constant Matrix: (Units=GPa)
#
#
# Indices 1 2 3 4 5 6 
#
# 1 156.3628 45.4311 43.6476 0.0000 0.0000 0.0000
# 2 45.4311 97.2867 35.3742 0.0000 0.0000 0.0000
# 3 43.6476 35.3742 110.7543 0.0000 0.0000 0.0000
# 4 0.0000 0.0000 0.0000 19.6192 0.0000 0.0000
# 5 0.0000 0.0000 0.0000 0.0000 64.3818 0.0000
# 6 0.0000 0.0000 0.0000 0.0000 0.0000 37.1971
#
#
#
# Elastic Compliance Matrix: (Units=1/GPa)
#
#
# Indices 1 2 3 4 5 6 
#
# 1 0.007835 -0.002869 -0.002171 0.000000 0.000000 0.000000
# 2 -0.002869 0.012680 -0.002919 0.000000 0.000000 0.000000
# 3 -0.002171 -0.002919 0.010817 0.000000 0.000000 0.000000
# 4 0.000000 0.000000 0.000000 0.050970 0.000000 0.000000
# 5 0.000000 0.000000 0.000000 0.000000 0.015532 0.000000
# 6 0.000000 0.000000 0.000000 0.000000 0.000000 0.026884
#
#
# Mechanical properties :
#
#
# Convention : Reuss Voigt Hill
#
# Bulk Modulus (GPa) = 64.88144 68.14553 66.51348
# Shear Modulus (GPa) = 34.29906 40.23635 37.26771
#
# Velocity S-wave (km/s) = 4.01570 4.34940 4.18588
# Velocity P-wave (km/s) = 7.21148 7.56716 7.39146
#
# Compressibility (1/GPa) = 0.01541273
#
# Stress axis : x y z
#
# Youngs Moduli (GPa) = 127.62923 78.86261 92.44637
#
# Poissons Ratio (x) = 0.22629 0.20073
# Poissons Ratio (y) = 0.36622 0.26987
# Poissons Ratio (z) = 0.27713 0.23021
#
# Static dielectric constant tensor:
#      x y z
#    x 4.218640 0.000000 0.000000 
#    y 0.000000 5.196080 0.000000 
#    z 0.000000 0.000000 4.044300 
# 
# 
# High freq. dielectric constant tensor:
#      x y z
#    x 1.860240 0.000000 0.000000 
#    y 0.000000 1.825150 0.000000 
#    z 0.000000 0.000000 1.841120 
# 
# From -- ./inp_files/38551.got.cif
#   From: 2010.03.12/outbox.cif.g09.slc.cpg/sg68_20_cif.got.tgz:38551.got - 2010.04.10 23:14:56.
