data_PCOD8283233
_publ_section_title
;
Structure prediction by ZEFSAII (Michael W. Deem and Ramdas Pophale) SiO2 
 PCOD8283233
Probable space group: C C C A
;
_chemical_formula_sum "Si O2"
_cell_formula_units_Z 88
_cell_length_a 16.203549
_cell_length_b 21.670135
_cell_length_c 11.065098
_cell_angle_alpha 90.000000
_cell_angle_beta 90.000000
_cell_angle_gamma 90.000000
_cell_volume 3885.322100
_symmetry_space_group_name_H-M "C C C A"
_symmetry_group_IT_number 68
_space_group.IT_coordinate_system_code '2'
_symmetry_cell_setting 'orthorhombic'
loop_
_space_group_symop_operation_xyz
x,y,z
-x,1/2-y,z
x,1/2-y,1/2-z
-x,y,1/2-z
-x,-y,-z
x,1/2+y,-z
-x,1/2+y,1/2+z
x,-y,1/2+z
1/2+x,1/2+y,z
1/2-x,-y,z
1/2+x,-y,1/2-z
1/2-x,1/2+y,1/2-z
1/2-x,1/2-y,-z
1/2+x,y,-z
1/2-x,y,1/2+z
1/2+x,1/2-y,1/2+z
loop_
_atom_site_type_symbol
_atom_site_label
_atom_site_fract_x
_atom_site_fract_y
_atom_site_fract_z
Si Si1 0.806964 0.327403 0.847099
Si Si2 0.791455 0.936798 0.971532
Si Si3 0.866348 0.877994 0.377904
Si Si4 0.163373 0.250000 0.250000
Si Si5 0.907889 0.237452 0.004819
Si Si6 0.048184 0.996384 0.626335
O O1 0.807437 0.393255 0.914086
O O2 0.871646 0.333622 0.737932
O O3 0.717986 0.308432 0.792948
O O4 0.837805 0.271843 0.928989
O O5 0.750000 0.000000 0.021146
O O6 0.727249 0.902628 0.884554
O O7 0.874149 0.950691 0.894264
O O8 0.890738 0.836411 0.494365
O O9 0.927558 0.933368 0.353474
O O10 0.102280 0.264661 0.360730
O O11 0.000000 0.250000 0.958477
O O12 0.000000 0.974838 0.750000
O O13 0.000000 0.000000 0.500000
#
# Coordination Sequence:
#
# PCOD8283233 Si02
#       6
#    16  16  16   8  16  16
#     4  12  23  45  75 103 144 188 255 302 373 463
#     4  10  24  45  71 104 146 198 245 306 371 462
#     4  11  24  44  71 102 142 195 248 299 374 468
#     4  12  23  48  71 102 146 198 246 310 377 466
#     4  12  27  44  70 110 147 192 243 314 387 439
#     4  11  26  48  71 106 149 194 250 318 386 448
#
# _framework density 22.649345
#
# number of rings (size 3 to 8) (size 9 to 14) (size 15 to 20)
#    0.000    0.727    3.636    3.000    5.091    5.818 
#    3.273    0.000    0.000    0.000    0.000    0.000 
#    0.000    0.000    0.000    0.000    0.000    0.000 
#
# Total GULP energy -545389.822522 kJ/mol
# GULP energy per Si atom -12395.223239 kJ/mol
# Density = 2.259779 g / cm^3
# Si number density = 22.649345 Si / 1000 Ang^3
#
#
#
# Elastic Constant Matrix: (Units=GPa)
#
#
# Indices 1 2 3 4 5 6 
#
# 1 114.8959 41.4224 35.2324 0.0000 0.0000 0.0000
# 2 41.4224 112.3029 31.3607 0.0000 0.0000 0.0000
# 3 35.2324 31.3607 117.9429 0.0000 0.0000 0.0000
# 4 0.0000 0.0000 0.0000 40.2072 0.0000 0.0000
# 5 0.0000 0.0000 0.0000 0.0000 29.3388 0.0000
# 6 0.0000 0.0000 0.0000 0.0000 0.0000 28.1505
#
#
#
# Elastic Compliance Matrix: (Units=1/GPa)
#
#
# Indices 1 2 3 4 5 6 
#
# 1 0.010583 -0.003263 -0.002294 0.000000 0.000000 0.000000
# 2 -0.003263 0.010625 -0.001850 0.000000 0.000000 0.000000
# 3 -0.002294 -0.001850 0.009656 0.000000 0.000000 0.000000
# 4 0.000000 0.000000 0.000000 0.024871 0.000000 0.000000
# 5 0.000000 0.000000 0.000000 0.000000 0.034085 0.000000
# 6 0.000000 0.000000 0.000000 0.000000 0.000000 0.035523
#
#
# Mechanical properties :
#
#
# Convention : Reuss Voigt Hill
#
# Bulk Modulus (GPa) = 62.30727 62.35254 62.32990
# Shear Modulus (GPa) = 34.36253 35.34773 34.85513
#
# Velocity S-wave (km/s) = 3.89929 3.95479 3.92714
# Velocity P-wave (km/s) = 6.91678 6.96011 6.93848
#
# Compressibility (1/GPa) = 0.01604949
#
# Stress axis : x y z
#
# Youngs Moduli (GPa) = 94.48820 94.11978 103.56349
#
# Poissons Ratio (x) = 0.30712 0.23756
# Poissons Ratio (y) = 0.30832 0.19163
# Poissons Ratio (z) = 0.21674 0.17415
#
# Static dielectric constant tensor:
#      x y z
#    x 4.168590 0.000000 0.000000 
#    y 0.000000 4.307150 0.000000 
#    z 0.000000 0.000000 4.214140 
# 
# 
# High freq. dielectric constant tensor:
#      x y z
#    x 1.892340 0.000000 0.000000 
#    y 0.000000 1.899510 0.000000 
#    z 0.000000 0.000000 1.898830 
# 
# From -- ./inp_files/13326.got.cif
#   From: 2010.03.12/outbox.cif.g09.slc.cpg/sg68_7_cif.got.tgz:13326.got - 2010.04.10 23:14:56.
