data_PCOD8283106
_publ_section_title
;
Structure prediction by ZEFSAII (Michael W. Deem and Ramdas Pophale) SiO2 
 PCOD8283106
Probable space group: C C C A
;
_chemical_formula_sum "Si O2"
_cell_formula_units_Z 60
_cell_length_a 29.930854
_cell_length_b 10.414915
_cell_length_c 8.961519
_cell_angle_alpha 90.000000
_cell_angle_beta 90.000000
_cell_angle_gamma 90.000000
_cell_volume 2793.550124
_symmetry_space_group_name_H-M "C C C A"
_symmetry_group_IT_number 68
_space_group.IT_coordinate_system_code '2'
_symmetry_cell_setting 'orthorhombic'
loop_
_space_group_symop_operation_xyz
x,y,z
-x,1/2-y,z
x,1/2-y,1/2-z
-x,y,1/2-z
-x,-y,-z
x,1/2+y,-z
-x,1/2+y,1/2+z
x,-y,1/2+z
1/2+x,1/2+y,z
1/2-x,-y,z
1/2+x,-y,1/2-z
1/2-x,1/2+y,1/2-z
1/2-x,1/2-y,-z
1/2+x,y,-z
1/2-x,y,1/2+z
1/2+x,1/2-y,1/2+z
loop_
_atom_site_type_symbol
_atom_site_label
_atom_site_fract_x
_atom_site_fract_y
_atom_site_fract_z
Si Si1 0.081241 0.140328 0.410602
Si Si2 0.113801 0.581950 0.905137
Si Si3 0.258944 0.250000 0.250000
Si Si4 0.000000 0.250000 0.250000
Si Si5 0.211708 0.404325 0.485570
O O1 0.111576 0.088942 0.273677
O O2 0.100215 0.277574 0.470238
O O3 0.030604 0.159573 0.353681
O O4 0.081061 0.031584 0.538011
O O5 0.162818 0.537195 0.960186
O O6 0.225918 0.352563 0.323868
O O7 0.291173 0.199751 0.381809
O O8 0.250000 0.500000 0.541991
#
# Coordination Sequence:
#
# PCOD8283106 Si02
#       5
#    16  16   8   4  16
#     4  10  23  42  68  94 127 162 201 268 313 389
#     4  10  24  40  63  94 128 163 213 256 318 361
#     4  10  24  39  56  84 116 176 212 260 305 352
#     4   8  20  46  68  96 128 156 204 256 334 380
#     4  11  24  38  59  84 123 168 213 259 301 366
#
# _framework density 21.478045999999999
#
# number of rings (size 3 to 8) (size 9 to 14) (size 15 to 20)
#    0.000    2.133    0.000    2.400   14.933    5.333 
#    0.000    0.000    0.000   12.800    0.000    0.000 
#    0.000    0.000    0.000    0.000    0.000    0.000 
#
# Total GULP energy -371845.140118 kJ/mol
# GULP energy per Si atom -12394.838004 kJ/mol
# Density = 2.142916 g / cm^3
# Si number density = 21.478046 Si / 1000 Ang^3
#
#
#
# Elastic Constant Matrix: (Units=GPa)
#
#
# Indices 1 2 3 4 5 6 
#
# 1 136.1088 24.6675 16.8926 0.0000 0.0000 0.0000
# 2 24.6675 118.2402 31.6715 0.0000 0.0000 0.0000
# 3 16.8926 31.6715 70.3021 0.0000 0.0000 0.0000
# 4 0.0000 0.0000 0.0000 35.2468 0.0000 0.0000
# 5 0.0000 0.0000 0.0000 0.0000 19.6897 0.0000
# 6 0.0000 0.0000 0.0000 0.0000 0.0000 21.7655
#
#
#
# Elastic Compliance Matrix: (Units=1/GPa)
#
#
# Indices 1 2 3 4 5 6 
#
# 1 0.007737 -0.001269 -0.001287 0.000000 0.000000 0.000000
# 2 -0.001269 0.009826 -0.004122 0.000000 0.000000 0.000000
# 3 -0.001287 -0.004122 0.016391 0.000000 0.000000 0.000000
# 4 0.000000 0.000000 0.000000 0.028371 0.000000 0.000000
# 5 0.000000 0.000000 0.000000 0.000000 0.050788 0.000000
# 6 0.000000 0.000000 0.000000 0.000000 0.000000 0.045944
#
#
# Mechanical properties :
#
#
# Convention : Reuss Voigt Hill
#
# Bulk Modulus (GPa) = 48.55078 52.34605 50.44841
# Shear Modulus (GPa) = 27.88941 32.10169 29.99555
#
# Velocity S-wave (km/s) = 3.60739 3.87024 3.74112
# Velocity P-wave (km/s) = 6.32495 6.66306 6.49621
#
# Compressibility (1/GPa) = 0.02059699
#
# Stress axis : x y z
#
# Youngs Moduli (GPa) = 129.25137 101.76866 61.01088
#
# Poissons Ratio (x) = 0.12917 0.07854
# Poissons Ratio (y) = 0.16406 0.25147
# Poissons Ratio (z) = 0.16638 0.41947
#
# Static dielectric constant tensor:
#      x y z
#    x 3.698590 0.000000 0.000000 
#    y 0.000000 4.048740 0.000000 
#    z 0.000000 0.000000 3.724290 
# 
# 
# High freq. dielectric constant tensor:
#      x y z
#    x 1.832690 0.000000 0.000000 
#    y 0.000000 1.841010 0.000000 
#    z 0.000000 0.000000 1.838750 
# 
# From -- ./inp_files/3935.got.cif
#   From: 2010.03.12/outbox.cif.g09.slc.cpg/sg68_2_cif.got.tgz:3935.got - 2010.04.10 23:14:56.
