data_PCOD8283307
_publ_section_title
;
Structure prediction by ZEFSAII (Michael W. Deem and Ramdas Pophale) SiO2 
 PCOD8283307
Probable space group: C C C A
;
_chemical_formula_sum "Si O2"
_cell_formula_units_Z 88
_cell_length_a 11.194055
_cell_length_b 11.192161
_cell_length_c 30.067283
_cell_angle_alpha 90.000000
_cell_angle_beta 90.000000
_cell_angle_gamma 90.000000
_cell_volume 3766.999570
_symmetry_space_group_name_H-M "C C C A"
_symmetry_group_IT_number 68
_space_group.IT_coordinate_system_code '2'
_symmetry_cell_setting 'orthorhombic'
loop_
_space_group_symop_operation_xyz
x,y,z
-x,1/2-y,z
x,1/2-y,1/2-z
-x,y,1/2-z
-x,-y,-z
x,1/2+y,-z
-x,1/2+y,1/2+z
x,-y,1/2+z
1/2+x,1/2+y,z
1/2-x,-y,z
1/2+x,-y,1/2-z
1/2-x,1/2+y,1/2-z
1/2-x,1/2-y,-z
1/2+x,y,-z
1/2-x,y,1/2+z
1/2+x,1/2-y,1/2+z
loop_
_atom_site_type_symbol
_atom_site_label
_atom_site_fract_x
_atom_site_fract_y
_atom_site_fract_z
Si Si1 0.000000 0.750000 0.682684
Si Si2 0.117929 0.689725 0.141392
Si Si3 0.064371 0.632102 0.963986
Si Si4 0.190850 0.117846 0.123985
Si Si5 0.374512 0.941190 0.946314
Si Si6 0.270610 0.632914 0.222329
O O1 0.921990 0.658400 0.653553
O O2 0.909863 0.834672 0.711461
O O3 0.209916 0.782102 0.120978
O O4 0.073933 0.610207 0.099755
O O5 0.186748 0.616438 0.179250
O O6 0.000000 0.750000 0.162214
O O7 0.157214 0.590324 0.926686
O O8 0.000000 0.750000 0.946971
O O9 0.959440 0.538332 0.967036
O O10 0.131070 0.652004 0.011926
O O11 0.250000 0.000000 0.145762
O O12 0.250000 0.000000 0.934204
O O13 0.223401 0.750000 0.250000
O O14 0.250000 0.500000 0.245669
#
# Coordination Sequence:
#
# PCOD8283307 Si02
#       6
#     8  16  16  16  16  16
#     4  10  25  48  74 112 148 192 240 308 365 454
#     4  11  25  44  69 105 139 187 240 305 365 450
#     4  11  23  39  61  96 143 190 242 299 352 420
#     4  11  23  40  70 103 144 191 244 290 359 428
#     4  11  24  39  62  94 139 192 242 297 358 424
#     4  11  27  51  80 111 149 194 243 316 392 461
#
# _framework density 23.360768
#
# number of rings (size 3 to 8) (size 9 to 14) (size 15 to 20)
#    0.000    1.091    0.909    4.091    7.636    9.091 
#    3.273    0.000    0.000    0.000    0.000    0.000 
#    0.000    0.000    0.000    0.000    0.000    0.000 
#
# Total GULP energy -545240.669854 kJ/mol
# GULP energy per Si atom -12391.833406 kJ/mol
# Density = 2.330760 g / cm^3
# Si number density = 23.360768 Si / 1000 Ang^3
#
#
#
# Elastic Constant Matrix: (Units=GPa)
#
#
# Indices 1 2 3 4 5 6 
#
# 1 109.8671 27.1988 25.3067 0.0000 0.0000 0.0000
# 2 27.1988 128.1730 37.0676 0.0000 0.0000 0.0000
# 3 25.3067 37.0676 83.2973 0.0000 0.0000 0.0000
# 4 0.0000 0.0000 0.0000 29.2246 0.0000 0.0000
# 5 0.0000 0.0000 0.0000 0.0000 29.6426 0.0000
# 6 0.0000 0.0000 0.0000 0.0000 0.0000 38.1832
#
#
#
# Elastic Compliance Matrix: (Units=1/GPa)
#
#
# Indices 1 2 3 4 5 6 
#
# 1 0.010010 -0.001428 -0.002405 0.000000 0.000000 0.000000
# 2 -0.001428 0.009158 -0.003641 0.000000 0.000000 0.000000
# 3 -0.002405 -0.003641 0.014356 0.000000 0.000000 0.000000
# 4 0.000000 0.000000 0.000000 0.034218 0.000000 0.000000
# 5 0.000000 0.000000 0.000000 0.000000 0.033735 0.000000
# 6 0.000000 0.000000 0.000000 0.000000 0.000000 0.026190
#
#
# Mechanical properties :
#
#
# Convention : Reuss Voigt Hill
#
# Bulk Modulus (GPa) = 53.83963 55.60930 54.72446
# Shear Modulus (GPa) = 33.60025 34.86103 34.23064
#
# Velocity S-wave (km/s) = 3.79663 3.86721 3.83208
# Velocity P-wave (km/s) = 6.50510 6.61790 6.56174
#
# Compressibility (1/GPa) = 0.01857368
#
# Stress axis : x y z
#
# Youngs Moduli (GPa) = 99.90426 109.19205 69.65521
#
# Poissons Ratio (x) = 0.15597 0.16755
# Poissons Ratio (y) = 0.14271 0.25365
# Poissons Ratio (z) = 0.24031 0.39762
#
# Static dielectric constant tensor:
#      x y z
#    x 4.150530 0.000000 0.000000 
#    y 0.000000 4.294350 0.000000 
#    z 0.000000 0.000000 4.162920 
# 
# 
# High freq. dielectric constant tensor:
#      x y z
#    x 1.930380 0.000000 0.000000 
#    y 0.000000 1.923470 0.000000 
#    z 0.000000 0.000000 1.924540 
# 
# From -- ./inp_files/54624.got.cif
#   From: 2010.03.12/outbox.cif.g09.slc.cpg/sg68_28_cif.got.tgz:54624.got - 2010.04.10 23:14:56.
