data_PCOD8283142
_publ_section_title
;
Structure prediction by ZEFSAII (Michael W. Deem and Ramdas Pophale) SiO2 
 PCOD8283142
Probable space group: C C C A
;
_chemical_formula_sum "Si O2"
_cell_formula_units_Z 44
_cell_length_a 29.274843
_cell_length_b 12.681064
_cell_length_c 4.954456
_cell_angle_alpha 90.000000
_cell_angle_beta 90.000000
_cell_angle_gamma 90.000000
_cell_volume 1839.273209
_symmetry_space_group_name_H-M "C C C A"
_symmetry_group_IT_number 68
_space_group.IT_coordinate_system_code '2'
_symmetry_cell_setting 'orthorhombic'
loop_
_space_group_symop_operation_xyz
x,y,z
-x,1/2-y,z
x,1/2-y,1/2-z
-x,y,1/2-z
-x,-y,-z
x,1/2+y,-z
-x,1/2+y,1/2+z
x,-y,1/2+z
1/2+x,1/2+y,z
1/2-x,-y,z
1/2+x,-y,1/2-z
1/2-x,1/2+y,1/2-z
1/2-x,1/2-y,-z
1/2+x,y,-z
1/2-x,y,1/2+z
1/2+x,1/2-y,1/2+z
loop_
_atom_site_type_symbol
_atom_site_label
_atom_site_fract_x
_atom_site_fract_y
_atom_site_fract_z
Si Si1 0.500000 0.250000 0.750000
Si Si2 0.451423 0.567861 0.563711
Si Si3 0.155635 0.561492 0.080465
Si Si4 0.282912 0.750000 0.750000
O O1 0.529879 0.321486 0.546831
O O2 0.465986 0.533066 0.870997
O O3 0.397765 0.586357 0.587816
O O4 0.168124 0.460256 0.269205
O O5 0.183771 0.652447 0.219789
O O6 0.250000 0.750000 0.500000
#
# Coordination Sequence:
#
# PCOD8283142 Si02
#       4
#     4  16  16   8
#     4  12  24  40  72 100 136 178 224 300 344 376
#     4  10  24  43  64  96 132 174 227 271 330 410
#     4  10  23  44  66  91 133 177 212 265 332 395
#     4  12  26  41  68 105 130 163 224 275 326 406
#
# _framework density 23.922492999999999
#
# number of rings (size 3 to 8) (size 9 to 14) (size 15 to 20)
#    0.000    1.455    0.000    3.273    0.000   17.455 
#    0.000    0.000    0.000    0.000    0.000    0.000 
#    0.000    0.000    0.000    0.000    0.000    0.000 
#
# Total GULP energy -272676.007447 kJ/mol
# GULP energy per Si atom -12394.363975 kJ/mol
# Density = 2.386804 g / cm^3
# Si number density = 23.922493 Si / 1000 Ang^3
#
#
#
# Elastic Constant Matrix: (Units=GPa)
#
#
# Indices 1 2 3 4 5 6 
#
# 1 103.9985 66.7887 78.2481 0.0000 0.0000 0.0000
# 2 66.7887 133.5497 58.8876 0.0000 0.0000 0.0000
# 3 78.2481 58.8876 176.6749 0.0000 0.0000 0.0000
# 4 0.0000 0.0000 0.0000 41.8568 0.0000 0.0000
# 5 0.0000 0.0000 0.0000 0.0000 48.5252 0.0000
# 6 0.0000 0.0000 0.0000 0.0000 0.0000 37.0377
#
#
#
# Elastic Compliance Matrix: (Units=1/GPa)
#
#
# Indices 1 2 3 4 5 6 
#
# 1 0.018249 -0.006521 -0.005909 0.000000 0.000000 0.000000
# 2 -0.006521 0.011108 -0.000814 0.000000 0.000000 0.000000
# 3 -0.005909 -0.000814 0.008549 0.000000 0.000000 0.000000
# 4 0.000000 0.000000 0.000000 0.023891 0.000000 0.000000
# 5 0.000000 0.000000 0.000000 0.000000 0.020608 0.000000
# 6 0.000000 0.000000 0.000000 0.000000 0.000000 0.026999
#
#
# Mechanical properties :
#
#
# Convention : Reuss Voigt Hill
#
# Bulk Modulus (GPa) = 87.58613 91.34133 89.46373
# Shear Modulus (GPa) = 35.79136 39.50387 37.64761
#
# Velocity S-wave (km/s) = 3.87219 4.06806 3.97133
# Velocity P-wave (km/s) = 7.52886 7.76728 7.64900
#
# Compressibility (1/GPa) = 0.01141733
#
# Stress axis : x y z
#
# Youngs Moduli (GPa) = 54.79686 90.02435 116.97867
#
# Poissons Ratio (x) = 0.58705 0.69122
# Poissons Ratio (y) = 0.35733 0.09526
# Poissons Ratio (z) = 0.32379 0.07331
#
# Static dielectric constant tensor:
#      x y z
#    x 4.629710 0.000000 0.000000 
#    y 0.000000 4.110640 0.000000 
#    z 0.000000 0.000000 4.858520 
# 
# 
# High freq. dielectric constant tensor:
#      x y z
#    x 1.980380 0.000000 0.000000 
#    y 0.000000 1.933580 0.000000 
#    z 0.000000 0.000000 1.979740 
# 
# From -- ./inp_files/2161.got.cif
#   From: 2010.03.12/outbox.cif.g09.slc.cpg/sg68_2_cif.got.tgz:2161.got - 2010.04.10 23:14:56.
