data_PCOD8283889
_publ_section_title
;
Structure prediction by ZEFSAII (Michael W. Deem and Ramdas Pophale) SiO2 
 PCOD8283889
Probable space group: F M M M
;
_chemical_formula_sum "Si O2"
_cell_formula_units_Z 160
_cell_length_a 14.828558
_cell_length_b 31.772854
_cell_length_c 18.611757
_cell_angle_alpha 90.000000
_cell_angle_beta 90.000000
_cell_angle_gamma 90.000000
_cell_volume 8768.847574
_symmetry_space_group_name_H-M "F M M M"
_symmetry_group_IT_number 69
_symmetry_cell_setting 'orthorhombic'
loop_
_space_group_symop_operation_xyz
x,y,z
-x,-y,z
x,-y,-z
-x,y,-z
-x,-y,-z
x,y,-z
-x,y,z
x,-y,z
x,1/2+y,1/2+z
-x,1/2-y,1/2+z
x,1/2-y,1/2-z
-x,1/2+y,1/2-z
-x,1/2-y,1/2-z
x,1/2+y,1/2-z
-x,1/2+y,1/2+z
x,1/2-y,1/2+z
1/2+x,y,1/2+z
1/2-x,-y,1/2+z
1/2+x,-y,1/2-z
1/2-x,y,1/2-z
1/2-x,-y,1/2-z
1/2+x,y,1/2-z
1/2-x,y,1/2+z
1/2+x,-y,1/2+z
1/2+x,1/2+y,z
1/2-x,1/2-y,z
1/2+x,1/2-y,-z
1/2-x,1/2+y,-z
1/2-x,1/2-y,-z
1/2+x,1/2+y,-z
1/2-x,1/2+y,z
1/2+x,1/2-y,z
loop_
_atom_site_type_symbol
_atom_site_label
_atom_site_fract_x
_atom_site_fract_y
_atom_site_fract_z
Si Si1 0.000000 0.113481 0.915373
Si Si2 0.640147 0.337261 0.172117
Si Si3 0.158973 0.637969 0.833904
Si Si4 0.500000 0.181270 0.915027
Si Si5 0.338468 0.453182 0.295758
Si Si6 0.500000 0.233858 0.670613
Si Si7 0.000000 0.547361 0.306346
O O1 0.908866 0.133803 0.885665
O O2 0.000000 0.066644 0.885434
O O3 0.000000 0.114638 0.000000
O O4 0.746492 0.337520 0.154441
O O5 0.623658 0.353882 0.253041
O O6 0.593384 0.291876 0.161439
O O7 0.169567 0.587211 0.849126
O O8 0.088511 0.656384 0.889980
O O9 0.500000 0.228681 0.886289
O O10 0.500000 0.183167 0.000000
O O11 0.357202 0.500000 0.332093
O O12 0.250000 0.457285 0.250000
O O13 0.415076 0.439787 0.240741
O O14 0.500000 0.250000 0.750000
O O15 0.000000 0.500000 0.327613
#
# Coordination Sequence:
#
# PCOD8283889 Si02
#       7
#    16  32  32  16  32  16  16
#     4  11  20  33  51  76 114 154 187 230 290 345
#     4  10  21  36  62  88 108 150 197 241 291 346
#     4  11  19  39  63  87 119 149 200 245 287 352
#     4  12  27  42  61  87 121 160 195 243 299 357
#     4  10  18  30  56  90 118 146 191 249 291 329
#     4  11  21  40  60  87 117 147 192 242 295 355
#     4  10  18  29  46  75 112 148 189 233 279 332
#
# _framework density 18.246411999999999
#
# number of rings (size 3 to 8) (size 9 to 14) (size 15 to 20)
#    0.000    1.400    6.000    1.200    0.000    3.400 
#    0.000    1.000    0.000    1.200    0.000    0.000 
#    0.000    0.000    0.000    0.000    0.000    0.000 
#
# Total GULP energy -495608.311915 kJ/mol
# GULP energy per Si atom -12390.207798 kJ/mol
# Density = 1.820488 g / cm^3
# Si number density = 18.246412 Si / 1000 Ang^3
#
#
#
# Elastic Constant Matrix: (Units=GPa)
#
#
# Indices 1 2 3 4 5 6 
#
# 1 136.6903 57.7338 57.6182 0.0000 0.0000 0.0000
# 2 57.7338 152.1537 36.1819 0.0000 0.0000 0.0000
# 3 57.6182 36.1819 77.4783 0.0000 0.0000 0.0000
# 4 0.0000 0.0000 0.0000 20.8008 0.0000 0.0000
# 5 0.0000 0.0000 0.0000 0.0000 21.0065 0.0000
# 6 0.0000 0.0000 0.0000 0.0000 0.0000 3.7194
#
#
#
# Elastic Compliance Matrix: (Units=1/GPa)
#
#
# Indices 1 2 3 4 5 6 
#
# 1 0.011519 -0.002625 -0.007340 0.000000 0.000000 0.000000
# 2 -0.002625 0.007992 -0.001780 0.000000 0.000000 0.000000
# 3 -0.007340 -0.001780 0.019197 0.000000 0.000000 0.000000
# 4 0.000000 0.000000 0.000000 0.048075 0.000000 0.000000
# 5 0.000000 0.000000 0.000000 0.000000 0.047604 0.000000
# 6 0.000000 0.000000 0.000000 0.000000 0.000000 0.268864
#
#
# Mechanical properties :
#
#
# Convention : Reuss Voigt Hill
#
# Bulk Modulus (GPa) = 65.71718 74.37668 70.04693
# Shear Modulus (GPa) = 11.57910 23.42455 17.50182
#
# Velocity S-wave (km/s) = 2.52185 3.58689 3.10044
# Velocity P-wave (km/s) = 6.67640 7.61611 7.16169
#
# Compressibility (1/GPa) = 0.01521672
#
# Stress axis : x y z
#
# Youngs Moduli (GPa) = 86.81577 125.13065 52.09264
#
# Poissons Ratio (x) = 0.32849 0.38237
# Poissons Ratio (y) = 0.22791 0.09271
# Poissons Ratio (z) = 0.63724 0.22270
#
# Static dielectric constant tensor:
#      x y z
#    x 3.484580 0.000000 0.000000 
#    y 0.000000 3.549030 0.000000 
#    z 0.000000 0.000000 2.957930 
# 
# 
# High freq. dielectric constant tensor:
#      x y z
#    x 1.726280 0.000000 0.000000 
#    y 0.000000 1.727500 0.000000 
#    z 0.000000 0.000000 1.654020 
# 
# From -- ./inp_files/15737.got.cif
#   From: 2010.03.12/outbox.cif.g09.slc.cpg/sg69_8_cif.got.tgz:15737.got - 2010.04.10 23:52:46.
