data_PCOD8283365
_publ_section_title
;
Structure prediction by ZEFSAII (Michael W. Deem and Ramdas Pophale) SiO2 
 PCOD8283365
Probable space group: C C C A
;
_chemical_formula_sum "Si O2"
_cell_formula_units_Z 80
_cell_length_a 12.764615
_cell_length_b 14.655689
_cell_length_c 21.865730
_cell_angle_alpha 90.000000
_cell_angle_beta 90.000000
_cell_angle_gamma 90.000000
_cell_volume 4090.514552
_symmetry_space_group_name_H-M "C C C A"
_symmetry_group_IT_number 68
_space_group.IT_coordinate_system_code '2'
_symmetry_cell_setting 'orthorhombic'
loop_
_space_group_symop_operation_xyz
x,y,z
-x,1/2-y,z
x,1/2-y,1/2-z
-x,y,1/2-z
-x,-y,-z
x,1/2+y,-z
-x,1/2+y,1/2+z
x,-y,1/2+z
1/2+x,1/2+y,z
1/2-x,-y,z
1/2+x,-y,1/2-z
1/2-x,1/2+y,1/2-z
1/2-x,1/2-y,-z
1/2+x,y,-z
1/2-x,y,1/2+z
1/2+x,1/2-y,1/2+z
loop_
_atom_site_type_symbol
_atom_site_label
_atom_site_fract_x
_atom_site_fract_y
_atom_site_fract_z
Si Si1 0.152614 0.322164 0.014337
Si Si2 0.853052 0.540749 0.094243
Si Si3 0.196422 0.590365 0.103310
Si Si4 0.085234 0.123151 0.013091
Si Si5 0.514265 0.854201 0.679139
O O1 0.209456 0.347315 0.077751
O O2 0.167431 0.210703 0.008931
O O3 0.029130 0.336781 0.018519
O O4 0.188288 0.386578 0.957133
O O5 0.750000 0.500000 0.128000
O O6 0.906225 0.451127 0.065725
O O7 0.930703 0.585526 0.142562
O O8 0.250000 0.500000 0.127239
O O9 0.135266 0.628972 0.161709
O O10 0.107942 0.571142 0.050843
O O11 0.500000 0.750000 0.661245
O O12 0.500000 0.875168 0.750000
#
# Coordination Sequence:
#
# PCOD8283365 Si02
#       5
#    16  16  16  16  16
#     4  11  21  34  57  99 134 170 195 258 325 396
#     4  12  22  37  62  95 130 161 210 263 324 381
#     4  12  21  37  65  92 129 165 210 258 322 384
#     4  11  21  34  58  98 140 160 201 254 334 382
#     4  11  27  47  65  87 125 175 223 267 313 383
#
# _framework density 19.557441000000001
#
# number of rings (size 3 to 8) (size 9 to 14) (size 15 to 20)
#    0.000    0.600    6.000    3.600    2.800    0.800 
#    0.000    0.000    0.000    0.000    0.000    0.000 
#    0.000    0.000    0.000    0.000    0.000    0.000 
#
# Total GULP energy -495704.558155 kJ/mol
# GULP energy per Si atom -12392.613954 kJ/mol
# Density = 1.951293 g / cm^3
# Si number density = 19.557441 Si / 1000 Ang^3
#
#
#
# Elastic Constant Matrix: (Units=GPa)
#
#
# Indices 1 2 3 4 5 6 
#
# 1 91.1418 59.4178 47.0875 0.0000 0.0000 0.0000
# 2 59.4178 147.1762 55.4135 0.0000 0.0000 0.0000
# 3 47.0875 55.4135 69.2136 0.0000 0.0000 0.0000
# 4 0.0000 0.0000 0.0000 309.7034 0.0000 0.0000
# 5 0.0000 0.0000 0.0000 0.0000 11.4907 0.0000
# 6 0.0000 0.0000 0.0000 0.0000 0.0000 44.7819
#
#
#
# Elastic Compliance Matrix: (Units=1/GPa)
#
#
# Indices 1 2 3 4 5 6 
#
# 1 0.018342 -0.003875 -0.009376 0.000000 0.000000 0.000000
# 2 -0.003875 0.010545 -0.005806 0.000000 0.000000 0.000000
# 3 -0.009376 -0.005806 0.025476 0.000000 0.000000 0.000000
# 4 0.000000 0.000000 0.000000 0.003229 0.000000 0.000000
# 5 0.000000 0.000000 0.000000 0.000000 0.087027 0.000000
# 6 0.000000 0.000000 0.000000 0.000000 0.000000 0.022330
#
#
# Mechanical properties :
#
#
# Convention : Reuss Voigt Hill
#
# Bulk Modulus (GPa) = 61.54693 70.15214 65.84954
# Shear Modulus (GPa) = 23.75514 82.90272 53.32893
#
# Velocity S-wave (km/s) = 3.48894 6.51777 5.22753
# Velocity P-wave (km/s) = 6.91147 9.62234 8.37729
#
# Compressibility (1/GPa) = 0.01624776
#
# Stress axis : x y z
#
# Youngs Moduli (GPa) = 54.51916 94.83070 39.25302
#
# Poissons Ratio (x) = 0.36745 0.36805
# Poissons Ratio (y) = 0.21125 0.22792
# Poissons Ratio (z) = 0.51119 0.55063
#
# Static dielectric constant tensor:
#      x y z
#    x 4.011940 0.000000 0.000000 
#    y 0.000000 4.187020 0.000000 
#    z 0.000000 0.000000 3.130790 
# 
# 
# High freq. dielectric constant tensor:
#      x y z
#    x 1.804130 0.000000 0.000000 
#    y 0.000000 1.786830 0.000000 
#    z 0.000000 0.000000 1.702010 
# 
# From -- ./inp_files/38367.got.cif
#   From: 2010.03.12/outbox.cif.g09.slc.cpg/sg68_20_cif.got.tgz:38367.got - 2010.04.10 23:14:56.
