data_PCOD8283203
_publ_section_title
;
Structure prediction by ZEFSAII (Michael W. Deem and Ramdas Pophale) SiO2 
 PCOD8283203
Probable space group: C C C A
;
_chemical_formula_sum "Si O2"
_cell_formula_units_Z 36
_cell_length_a 26.625066
_cell_length_b 5.072994
_cell_length_c 10.889981
_cell_angle_alpha 90.000000
_cell_angle_beta 90.000000
_cell_angle_gamma 90.000000
_cell_volume 1470.896666
_symmetry_space_group_name_H-M "C C C A"
_symmetry_group_IT_number 68
_space_group.IT_coordinate_system_code '2'
_symmetry_cell_setting 'orthorhombic'
loop_
_space_group_symop_operation_xyz
x,y,z
-x,1/2-y,z
x,1/2-y,1/2-z
-x,y,1/2-z
-x,-y,-z
x,1/2+y,-z
-x,1/2+y,1/2+z
x,-y,1/2+z
1/2+x,1/2+y,z
1/2-x,-y,z
1/2+x,-y,1/2-z
1/2-x,1/2+y,1/2-z
1/2-x,1/2-y,-z
1/2+x,y,-z
1/2-x,y,1/2+z
1/2+x,1/2-y,1/2+z
loop_
_atom_site_type_symbol
_atom_site_label
_atom_site_fract_x
_atom_site_fract_y
_atom_site_fract_z
Si Si1 0.330688 0.750000 0.250000
Si Si2 0.084072 0.900435 0.918497
Si Si3 0.500000 0.750000 0.250000
Si Si4 0.750000 0.000000 0.912237
O O1 0.364971 0.573145 0.159837
O O2 0.297905 0.966189 0.176505
O O3 0.035348 0.938448 0.832481
O O4 0.082836 0.607258 0.972930
O O5 0.750000 0.250000 0.000000
#
# Coordination Sequence:
#
# PCOD8283203 Si02
#       4
#     8  16   4   8
#     4  11  26  45  70 100 138 183 232 289 348 414
#     4  11  25  44  68 101 137 178 227 282 344 413
#     4  10  24  42  72 100 136 178 224 280 344 414
#     4  12  26  44  68  98 134 180 232 286 344 408
#
# _framework density 24.474864
#
# number of rings (size 3 to 8) (size 9 to 14) (size 15 to 20)
#    0.000    0.889    0.000    5.333    0.000   16.000 
#    0.000    0.000    0.000    0.000    0.000    0.000 
#    0.000    0.000    0.000    0.000    0.000    0.000 
#
# Total GULP energy -223271.853852 kJ/mol
# GULP energy per Si atom -12403.991881 kJ/mol
# Density = 2.441916 g / cm^3
# Si number density = 24.474864 Si / 1000 Ang^3
#
#
#
# Elastic Constant Matrix: (Units=GPa)
#
#
# Indices 1 2 3 4 5 6 
#
# 1 205.7472 53.0493 95.1334 0.0000 0.0000 0.0000
# 2 53.0493 115.6459 58.3656 0.0000 0.0000 0.0000
# 3 95.1334 58.3656 157.2724 0.0000 0.0000 0.0000
# 4 0.0000 0.0000 0.0000 38.9167 0.0000 0.0000
# 5 0.0000 0.0000 0.0000 0.0000 15.3961 0.0000
# 6 0.0000 0.0000 0.0000 0.0000 0.0000 17.3565
#
#
#
# Elastic Compliance Matrix: (Units=1/GPa)
#
#
# Indices 1 2 3 4 5 6 
#
# 1 0.006904 -0.001303 -0.003692 0.000000 0.000000 0.000000
# 2 -0.001303 0.010886 -0.003252 0.000000 0.000000 0.000000
# 3 -0.003692 -0.003252 0.009799 0.000000 0.000000 0.000000
# 4 0.000000 0.000000 0.000000 0.025696 0.000000 0.000000
# 5 0.000000 0.000000 0.000000 0.000000 0.064951 0.000000
# 6 0.000000 0.000000 0.000000 0.000000 0.000000 0.057615
#
#
# Mechanical properties :
#
#
# Convention : Reuss Voigt Hill
#
# Bulk Modulus (GPa) = 90.14046 99.08466 94.61256
# Shear Modulus (GPa) = 25.50461 32.47501 28.98981
#
# Velocity S-wave (km/s) = 3.23162 3.64658 3.44535
# Velocity P-wave (km/s) = 7.12981 7.63559 7.38703
#
# Compressibility (1/GPa) = 0.01109380
#
# Stress axis : x y z
#
# Youngs Moduli (GPa) = 144.85140 91.86127 102.05637
#
# Poissons Ratio (x) = 0.11973 0.37682
# Poissons Ratio (y) = 0.18880 0.33184
# Poissons Ratio (z) = 0.53483 0.29869
#
# Static dielectric constant tensor:
#      x y z
#    x 4.806030 0.000000 0.000000 
#    y 0.000000 3.748560 0.000000 
#    z 0.000000 0.000000 5.001890 
# 
# 
# High freq. dielectric constant tensor:
#      x y z
#    x 1.994330 0.000000 0.000000 
#    y 0.000000 1.948170 0.000000 
#    z 0.000000 0.000000 2.002760 
# 
# From -- ./inp_files/3030.got.cif
#   From: 2010.03.12/outbox.cif.g09.slc.cpg/sg68_2_cif.got.tgz:3030.got - 2010.04.10 23:14:56.
