data_PCOD8283874
_publ_section_title
;
Structure prediction by ZEFSAII (Michael W. Deem and Ramdas Pophale) SiO2 
 PCOD8283874
Probable space group: F M M M
;
_chemical_formula_sum "Si O2"
_cell_formula_units_Z 128
_cell_length_a 14.875518
_cell_length_b 16.736654
_cell_length_c 27.890913
_cell_angle_alpha 90.000000
_cell_angle_beta 90.000000
_cell_angle_gamma 90.000000
_cell_volume 6943.900142
_symmetry_space_group_name_H-M "F M M M"
_symmetry_group_IT_number 69
_symmetry_cell_setting 'orthorhombic'
loop_
_space_group_symop_operation_xyz
x,y,z
-x,-y,z
x,-y,-z
-x,y,-z
-x,-y,-z
x,y,-z
-x,y,z
x,-y,z
x,1/2+y,1/2+z
-x,1/2-y,1/2+z
x,1/2-y,1/2-z
-x,1/2+y,1/2-z
-x,1/2-y,1/2-z
x,1/2+y,1/2-z
-x,1/2+y,1/2+z
x,1/2-y,1/2+z
1/2+x,y,1/2+z
1/2-x,-y,1/2+z
1/2+x,-y,1/2-z
1/2-x,y,1/2-z
1/2-x,-y,1/2-z
1/2+x,y,1/2-z
1/2-x,y,1/2+z
1/2+x,-y,1/2+z
1/2+x,1/2+y,z
1/2-x,1/2-y,z
1/2+x,1/2-y,-z
1/2-x,1/2+y,-z
1/2-x,1/2-y,-z
1/2+x,1/2+y,-z
1/2-x,1/2+y,z
1/2+x,1/2-y,z
loop_
_atom_site_type_symbol
_atom_site_label
_atom_site_fract_x
_atom_site_fract_y
_atom_site_fract_z
Si Si1 0.600648 0.594867 0.052970
Si Si2 0.102518 0.335539 0.270298
Si Si3 0.096844 0.091928 0.328889
Si Si4 0.713140 0.095670 0.642411
O O1 0.500000 0.625904 0.064604
O O2 0.600520 0.500000 0.053701
O O3 0.669615 0.626755 0.092931
O O4 0.630525 0.625074 0.000000
O O5 0.133649 0.250000 0.250000
O O6 0.114225 0.399166 0.227757
O O7 0.164484 0.361195 0.313917
O O8 0.000000 0.332111 0.288841
O O9 0.182605 0.125173 0.358303
O O10 0.000000 0.133642 0.342649
O O11 0.087940 0.000000 0.341230
O O12 0.705069 0.000000 0.648793
#
# Coordination Sequence:
#
# PCOD8283874 Si02
#       4
#    32  32  32  32
#     4   8  14  25  42  66  93 115 139 179 227 269
#     4  10  20  31  43  64  93 121 149 183 224 269
#     4   9  18  31  44  60  86 119 154 190 223 258
#     4  10  18  28  46  68  90 121 155 183 219 268
#
# _framework density 18.433444000000001
#
# number of rings (size 3 to 8) (size 9 to 14) (size 15 to 20)
#    0.000    2.750    0.000    3.000    0.000    6.500 
#    0.000    0.000    0.000    0.750    0.000    8.750 
#    0.000    6.000    0.000    0.250    0.000    0.250 
#
# Total GULP energy -396489.527282 kJ/mol
# GULP energy per Si atom -12390.297728 kJ/mol
# Density = 1.839149 g / cm^3
# Si number density = 18.433444 Si / 1000 Ang^3
#
#
#
# Elastic Constant Matrix: (Units=GPa)
#
#
# Indices 1 2 3 4 5 6 
#
# 1 183.6680 23.8520 107.8185 0.0000 0.0000 0.0000
# 2 23.8520 24.6611 13.3308 0.0000 0.0000 0.0000
# 3 107.8185 13.3308 126.2413 0.0000 0.0000 0.0000
# 4 0.0000 0.0000 0.0000 11.4324 0.0000 0.0000
# 5 0.0000 0.0000 0.0000 0.0000 -65.0457 0.0000
# 6 0.0000 0.0000 0.0000 0.0000 0.0000 13.6838
#
#
#
# Elastic Compliance Matrix: (Units=1/GPa)
#
#
# Indices 1 2 3 4 5 6 
#
# 1 0.011779 -0.006315 -0.009393 0.000000 0.000000 0.000000
# 2 -0.006315 0.046390 0.000495 0.000000 0.000000 0.000000
# 3 -0.009393 0.000495 0.015891 0.000000 0.000000 0.000000
# 4 0.000000 0.000000 0.000000 0.087471 0.000000 0.000000
# 5 0.000000 0.000000 0.000000 0.000000 -0.015374 0.000000
# 6 0.000000 0.000000 0.000000 0.000000 0.000000 0.073079
#
#
# Mechanical properties :
#
#
# Convention : Reuss Voigt Hill
#
# Bulk Modulus (GPa) = 22.91811 69.39700 46.15755
# Shear Modulus (GPa) = 18.92458 4.65202 11.78830
#
# Velocity S-wave (km/s) = 3.20760 1.59033 2.53159
# Velocity P-wave (km/s) = 5.11646 6.41103 5.79998
#
# Compressibility (1/GPa) = 0.04363361
#
# Stress axis : x y z
#
# Youngs Moduli (GPa) = 84.90020 21.55642 62.92780
#
# Poissons Ratio (x) = 0.13612 0.59107
# Poissons Ratio (y) = 0.53612 -0.03112
# Poissons Ratio (z) = 0.79745 -0.01066
#
# Static dielectric constant tensor:
#      x y z
#    x 4.017670 0.000000 0.000000 
#    y 0.000000 3.029740 0.000000 
#    z 0.000000 0.000000 3.447050 
# 
# 
# High freq. dielectric constant tensor:
#      x y z
#    x 1.732790 0.000000 0.000000 
#    y 0.000000 1.674010 0.000000 
#    z 0.000000 0.000000 1.688510 
# 
# From -- ./inp_files/22735.got.cif
#   From: 2010.03.12/outbox.cif.g09.slc.cpg/sg69_12_cif.got.tgz:22735.got - 2010.04.10 23:52:46.
