data_PCOD8283029
_publ_section_title
;
Structure prediction by ZEFSAII (Michael W. Deem and Ramdas Pophale) SiO2 
 PCOD8283029
Probable space group: C C C A
;
_chemical_formula_sum "Si O2"
_cell_formula_units_Z 68
_cell_length_a 8.370727
_cell_length_b 13.955952
_cell_length_c 29.245079
_cell_angle_alpha 90.000000
_cell_angle_beta 90.000000
_cell_angle_gamma 90.000000
_cell_volume 3416.452950
_symmetry_space_group_name_H-M "C C C A"
_symmetry_group_IT_number 68
_space_group.IT_coordinate_system_code '2'
_symmetry_cell_setting 'orthorhombic'
loop_
_space_group_symop_operation_xyz
x,y,z
-x,1/2-y,z
x,1/2-y,1/2-z
-x,y,1/2-z
-x,-y,-z
x,1/2+y,-z
-x,1/2+y,1/2+z
x,-y,1/2+z
1/2+x,1/2+y,z
1/2-x,-y,z
1/2+x,-y,1/2-z
1/2-x,1/2+y,1/2-z
1/2-x,1/2-y,-z
1/2+x,y,-z
1/2-x,y,1/2+z
1/2+x,1/2-y,1/2+z
loop_
_atom_site_type_symbol
_atom_site_label
_atom_site_fract_x
_atom_site_fract_y
_atom_site_fract_z
Si Si1 0.060577 0.354682 0.442047
Si Si2 0.067572 0.855286 0.035593
Si Si3 0.906208 0.563269 0.207653
Si Si4 0.064481 0.482003 0.613922
Si Si5 0.000000 0.250000 0.750000
O O1 0.247016 0.355999 0.453155
O O2 0.000000 0.250000 0.428542
O O3 0.964032 0.400322 0.485198
O O4 0.030358 0.420693 0.397973
O O5 0.000000 0.750000 0.030439
O O6 0.966418 0.905273 0.074609
O O7 0.750000 0.500000 0.200250
O O8 0.886015 0.678157 0.219565
O O9 0.000000 0.514116 0.250000
O O10 0.008418 0.559557 0.161867
O O11 0.250000 0.500000 0.617634
#
# Coordination Sequence:
#
# PCOD8283029 Si02
#       5
#    16  16  16  16   4
#     4  11  22  40  57  92 125 169 219 265 328 388
#     4  11  22  37  62  85 128 170 215 272 322 385
#     4  10  22  45  69  99 133 169 216 270 332 399
#     4  12  24  40  63  92 127 168 216 268 319 391
#     4   8  24  44  78  94 140 164 214 268 344 382
#
# _framework density 19.903684999999999
#
# number of rings (size 3 to 8) (size 9 to 14) (size 15 to 20)
#    0.706    0.471    0.000    9.176    1.647    0.000 
#    4.235    0.588    0.000    0.000    0.000    0.000 
#    0.000    0.000    0.000    0.000    0.000    0.000 
#
# Total GULP energy -421421.095527 kJ/mol
# GULP energy per Si atom -12394.738104 kJ/mol
# Density = 1.985838 g / cm^3
# Si number density = 19.903685 Si / 1000 Ang^3
#
#
#
# Elastic Constant Matrix: (Units=GPa)
#
#
# Indices 1 2 3 4 5 6 
#
# 1 125.3190 39.3821 17.7410 0.0000 0.0000 0.0000
# 2 39.3821 84.3956 47.0613 0.0000 0.0000 0.0000
# 3 17.7410 47.0613 117.2171 0.0000 0.0000 0.0000
# 4 0.0000 0.0000 0.0000 37.0142 0.0000 0.0000
# 5 0.0000 0.0000 0.0000 0.0000 30.8604 0.0000
# 6 0.0000 0.0000 0.0000 0.0000 0.0000 12.4522
#
#
#
# Elastic Compliance Matrix: (Units=1/GPa)
#
#
# Indices 1 2 3 4 5 6 
#
# 1 0.009368 -0.004614 0.000435 0.000000 0.000000 0.000000
# 2 -0.004614 0.017539 -0.006344 0.000000 0.000000 0.000000
# 3 0.000435 -0.006344 0.011012 0.000000 0.000000 0.000000
# 4 0.000000 0.000000 0.000000 0.027017 0.000000 0.000000
# 5 0.000000 0.000000 0.000000 0.000000 0.032404 0.000000
# 6 0.000000 0.000000 0.000000 0.000000 0.000000 0.080307
#
#
# Mechanical properties :
#
#
# Convention : Reuss Voigt Hill
#
# Bulk Modulus (GPa) = 59.26275 59.47782 59.37029
# Shear Modulus (GPa) = 24.47176 30.91519 27.69348
#
# Velocity S-wave (km/s) = 3.51024 3.94539 3.73416
# Velocity P-wave (km/s) = 6.80209 7.12057 6.96315
#
# Compressibility (1/GPa) = 0.01687400
#
# Stress axis : x y z
#
# Youngs Moduli (GPa) = 106.74615 57.01504 90.80787
#
# Poissons Ratio (x) = 0.26305 -0.03946
# Poissons Ratio (y) = 0.49250 0.57604
# Poissons Ratio (z) = -0.04638 0.36168
#
# Static dielectric constant tensor:
#      x y z
#    x 3.571450 0.000000 0.000000 
#    y 0.000000 3.657380 0.000000 
#    z 0.000000 0.000000 3.374180 
# 
# 
# High freq. dielectric constant tensor:
#      x y z
#    x 1.777840 0.000000 0.000000 
#    y 0.000000 1.782890 0.000000 
#    z 0.000000 0.000000 1.781340 
# 
# From -- ./inp_files/48869.got.cif
#   From: 2010.03.12/outbox.cif.g09.slc.cpg/sg68_25_cif.got.tgz:48869.got - 2010.04.10 23:14:56.
