data_PCOD8283070
_publ_section_title
;
Structure prediction by ZEFSAII (Michael W. Deem and Ramdas Pophale) SiO2 
 PCOD8283070
Probable space group: C C C A
;
_chemical_formula_sum "Si O2"
_cell_formula_units_Z 96
_cell_length_a 23.666267
_cell_length_b 22.703280
_cell_length_c 9.107122
_cell_angle_alpha 90.000000
_cell_angle_beta 90.000000
_cell_angle_gamma 90.000000
_cell_volume 4893.273829
_symmetry_space_group_name_H-M "C C C A"
_symmetry_group_IT_number 68
_space_group.IT_coordinate_system_code '2'
_symmetry_cell_setting 'orthorhombic'
loop_
_space_group_symop_operation_xyz
x,y,z
-x,1/2-y,z
x,1/2-y,1/2-z
-x,y,1/2-z
-x,-y,-z
x,1/2+y,-z
-x,1/2+y,1/2+z
x,-y,1/2+z
1/2+x,1/2+y,z
1/2-x,-y,z
1/2+x,-y,1/2-z
1/2-x,1/2+y,1/2-z
1/2-x,1/2-y,-z
1/2+x,y,-z
1/2-x,y,1/2+z
1/2+x,1/2-y,1/2+z
loop_
_atom_site_type_symbol
_atom_site_label
_atom_site_fract_x
_atom_site_fract_y
_atom_site_fract_z
Si Si1 0.808230 0.281647 0.454534
Si Si2 0.614422 0.990190 0.001139
Si Si3 0.290052 0.920024 0.945232
Si Si4 0.654492 0.169502 0.836423
Si Si5 0.064466 0.925338 0.723105
Si Si6 0.314998 0.103833 0.117559
O O1 0.750000 0.250000 0.500000
O O2 0.803882 0.319094 0.302617
O O3 0.856373 0.231821 0.421843
O O4 0.827063 0.327370 0.580754
O O5 0.586774 0.966778 0.148509
O O6 0.673706 0.021304 0.038176
O O7 0.627246 0.934351 0.894398
O O8 0.571952 0.036807 0.925772
O O9 0.289205 0.899158 0.778303
O O10 0.312314 0.869017 0.048565
O O11 0.225891 0.928083 0.998583
O O12 0.597224 0.137016 0.785883
O O13 0.000000 0.908594 0.750000
#
# Coordination Sequence:
#
# PCOD8283070 Si02
#       6
#    16  16  16  16  16  16
#     4  11  22  37  62  87 128 166 203 245 298 378
#     4  11  23  40  62  94 126 156 209 262 322 381
#     4  11  24  36  59  93 129 168 199 245 314 387
#     4  10  23  40  59  92 125 163 215 248 303 373
#     4  11  23  44  67  90 120 162 214 272 319 366
#     4  12  23  37  59  90 131 171 202 249 312 382
#
# _framework density 19.618766999999998
#
# number of rings (size 3 to 8) (size 9 to 14) (size 15 to 20)
#    0.000    1.000    5.000    2.000    4.667    2.000 
#    0.000    1.667    0.000    0.000    0.000    0.000 
#   10.000    0.000    0.000    0.000    0.000    0.000 
#
# Total GULP energy -594879.505561 kJ/mol
# GULP energy per Si atom -12393.323033 kJ/mol
# Density = 1.957411 g / cm^3
# Si number density = 19.618767 Si / 1000 Ang^3
#
#
#
# Elastic Constant Matrix: (Units=GPa)
#
#
# Indices 1 2 3 4 5 6 
#
# 1 59.6837 57.9918 20.6060 0.0000 0.0000 0.0000
# 2 57.9918 129.3979 58.0905 0.0000 0.0000 0.0000
# 3 20.6060 58.0905 116.3576 0.0000 0.0000 0.0000
# 4 0.0000 0.0000 0.0000 33.7810 0.0000 0.0000
# 5 0.0000 0.0000 0.0000 0.0000 18.4152 0.0000
# 6 0.0000 0.0000 0.0000 0.0000 0.0000 19.4896
#
#
#
# Elastic Compliance Matrix: (Units=1/GPa)
#
#
# Indices 1 2 3 4 5 6 
#
# 1 0.029969 -0.014240 0.001802 0.000000 0.000000 0.000000
# 2 -0.014240 0.016727 -0.005829 0.000000 0.000000 0.000000
# 3 0.001802 -0.005829 0.011185 0.000000 0.000000 0.000000
# 4 0.000000 0.000000 0.000000 0.029602 0.000000 0.000000
# 5 0.000000 0.000000 0.000000 0.000000 0.054303 0.000000
# 6 0.000000 0.000000 0.000000 0.000000 0.000000 0.051310
#
#
# Mechanical properties :
#
#
# Convention : Reuss Voigt Hill
#
# Bulk Modulus (GPa) = 46.84492 64.31287 55.57889
# Shear Modulus (GPa) = 21.11966 25.58721 23.35343
#
# Velocity S-wave (km/s) = 3.28457 3.61532 3.45391
# Velocity P-wave (km/s) = 6.18983 7.09083 6.65559
#
# Compressibility (1/GPa) = 0.02134703
#
# Stress axis : x y z
#
# Youngs Moduli (GPa) = 33.36737 59.78404 89.40452
#
# Poissons Ratio (x) = 0.85134 -0.16111
# Poissons Ratio (y) = 0.47516 0.52113
# Poissons Ratio (z) = -0.06013 0.34848
#
# Static dielectric constant tensor:
#      x y z
#    x 3.438430 0.000000 0.000000 
#    y 0.000000 3.996710 0.000000 
#    z 0.000000 0.000000 3.738750 
# 
# 
# High freq. dielectric constant tensor:
#      x y z
#    x 1.715150 0.000000 0.000000 
#    y 0.000000 1.788730 0.000000 
#    z 0.000000 0.000000 1.775640 
# 
# From -- ./inp_files/8114.got.cif
#   From: 2010.03.12/outbox.cif.g09.slc.cpg/sg68_5_cif.got.tgz:8114.got - 2010.04.10 23:14:56.
