data_PCOD8283321
_publ_section_title
;
Structure prediction by ZEFSAII (Michael W. Deem and Ramdas Pophale) SiO2 
 PCOD8283321
Probable space group: C C C A
;
_chemical_formula_sum "Si O2"
_cell_formula_units_Z 92
_cell_length_a 24.364314
_cell_length_b 8.445728
_cell_length_c 21.386729
_cell_angle_alpha 90.000000
_cell_angle_beta 90.000000
_cell_angle_gamma 90.000000
_cell_volume 4400.840664
_symmetry_space_group_name_H-M "C C C A"
_symmetry_group_IT_number 68
_space_group.IT_coordinate_system_code '2'
_symmetry_cell_setting 'orthorhombic'
loop_
_space_group_symop_operation_xyz
x,y,z
-x,1/2-y,z
x,1/2-y,1/2-z
-x,y,1/2-z
-x,-y,-z
x,1/2+y,-z
-x,1/2+y,1/2+z
x,-y,1/2+z
1/2+x,1/2+y,z
1/2-x,-y,z
1/2+x,-y,1/2-z
1/2-x,1/2+y,1/2-z
1/2-x,1/2-y,-z
1/2+x,y,-z
1/2-x,y,1/2+z
1/2+x,1/2-y,1/2+z
loop_
_atom_site_type_symbol
_atom_site_label
_atom_site_fract_x
_atom_site_fract_y
_atom_site_fract_z
Si Si1 0.640599 0.430210 0.070171
Si Si2 0.015114 0.431950 0.934329
Si Si3 0.343765 0.307111 0.179641
Si Si4 0.162256 0.784214 0.936326
Si Si5 0.000000 0.250000 0.250000
Si Si6 0.571622 0.431974 0.847299
Si Si7 0.750000 0.500000 0.877329
O O1 0.577458 0.467344 0.082182
O O2 0.662460 0.334143 0.129719
O O3 0.673202 0.595850 0.065070
O O4 0.644968 0.329118 0.006636
O O5 0.000000 0.250000 0.929232
O O6 0.981459 0.536397 0.887243
O O7 0.000000 0.500000 0.000000
O O8 0.340884 0.250000 0.250000
O O9 0.400315 0.401865 0.170828
O O10 0.292593 0.420808 0.169334
O O11 0.115053 0.826152 0.886132
O O12 0.219297 0.872171 0.921107
O O13 0.045133 0.350663 0.212604
#
# Coordination Sequence:
#
# PCOD8283321 Si02
#       7
#    16  16  16  16   4  16   8
#     4  12  24  42  71 107 136 180 223 286 345 409
#     4  12  23  39  67 101 141 181 220 273 342 406
#     4  11  27  48  69  99 137 180 233 287 343 413
#     4  11  24  44  72 101 139 174 235 291 342 401
#     4  12  28  40  70 100 140 196 224 268 348 410
#     4  11  25  44  63 102 141 182 232 280 328 417
#     4  10  26  50  70  98 134 180 232 296 350 406
#
# _framework density 20.905097999999999
#
# number of rings (size 3 to 8) (size 9 to 14) (size 15 to 20)
#    0.000    0.696    3.478    4.174    6.087    4.870 
#    3.130    0.000    0.000    0.000    0.000    0.000 
#    0.000    0.000    0.000    0.000    0.000    0.000 
#
# Total GULP energy -570443.853010 kJ/mol
# GULP energy per Si atom -12400.953326 kJ/mol
# Density = 2.085752 g / cm^3
# Si number density = 20.905098 Si / 1000 Ang^3
#
#
#
# Elastic Constant Matrix: (Units=GPa)
#
#
# Indices 1 2 3 4 5 6 
#
# 1 95.8169 27.8024 43.7956 0.0000 0.0000 0.0000
# 2 27.8024 135.7300 59.9141 0.0000 0.0000 0.0000
# 3 43.7956 59.9141 154.6431 0.0000 0.0000 0.0000
# 4 0.0000 0.0000 0.0000 40.8058 0.0000 0.0000
# 5 0.0000 0.0000 0.0000 0.0000 33.8333 0.0000
# 6 0.0000 0.0000 0.0000 0.0000 0.0000 34.3166
#
#
#
# Elastic Compliance Matrix: (Units=1/GPa)
#
#
# Indices 1 2 3 4 5 6 
#
# 1 0.012140 -0.001169 -0.002985 0.000000 0.000000 0.000000
# 2 -0.001169 0.009000 -0.003156 0.000000 0.000000 0.000000
# 3 -0.002985 -0.003156 0.008535 0.000000 0.000000 0.000000
# 4 0.000000 0.000000 0.000000 0.024506 0.000000 0.000000
# 5 0.000000 0.000000 0.000000 0.000000 0.029557 0.000000
# 6 0.000000 0.000000 0.000000 0.000000 0.000000 0.029140
#
#
# Mechanical properties :
#
#
# Convention : Reuss Voigt Hill
#
# Bulk Modulus (GPa) = 66.42445 72.13492 69.27969
# Shear Modulus (GPa) = 37.73101 38.76965 38.25033
#
# Velocity S-wave (km/s) = 4.25299 4.31113 4.28215
# Velocity P-wave (km/s) = 7.48067 7.70467 7.59350
#
# Compressibility (1/GPa) = 0.01505470
#
# Stress axis : x y z
#
# Youngs Moduli (GPa) = 82.37056 111.10990 117.16955
#
# Poissons Ratio (x) = 0.12989 0.34978
# Poissons Ratio (y) = 0.09629 0.36977
# Poissons Ratio (z) = 0.24590 0.35065
#
# Static dielectric constant tensor:
#      x y z
#    x 3.961060 0.000000 0.000000 
#    y 0.000000 4.029420 0.000000 
#    z 0.000000 0.000000 3.747180 
# 
# 
# High freq. dielectric constant tensor:
#      x y z
#    x 1.830640 0.000000 0.000000 
#    y 0.000000 1.832350 0.000000 
#    z 0.000000 0.000000 1.824270 
# 
# From -- ./inp_files/36331.got.cif
#   From: 2010.03.12/outbox.cif.g09.slc.cpg/sg68_19_cif.got.tgz:36331.got - 2010.04.10 23:14:56.
