data_PCOD8283935
_publ_section_title
;
Structure prediction by ZEFSAII (Michael W. Deem and Ramdas Pophale) SiO2 
 PCOD8283935
Probable space group: F M M M
;
_chemical_formula_sum "Si O2"
_cell_formula_units_Z 144
_cell_length_a 21.555481
_cell_length_b 14.051674
_cell_length_c 24.254623
_cell_angle_alpha 90.000000
_cell_angle_beta 90.000000
_cell_angle_gamma 90.000000
_cell_volume 7346.497117
_symmetry_space_group_name_H-M "F M M M"
_symmetry_group_IT_number 69
_symmetry_cell_setting 'orthorhombic'
loop_
_space_group_symop_operation_xyz
x,y,z
-x,-y,z
x,-y,-z
-x,y,-z
-x,-y,-z
x,y,-z
-x,y,z
x,-y,z
x,1/2+y,1/2+z
-x,1/2-y,1/2+z
x,1/2-y,1/2-z
-x,1/2+y,1/2-z
-x,1/2-y,1/2-z
x,1/2+y,1/2-z
-x,1/2+y,1/2+z
x,1/2-y,1/2+z
1/2+x,y,1/2+z
1/2-x,-y,1/2+z
1/2+x,-y,1/2-z
1/2-x,y,1/2-z
1/2-x,-y,1/2-z
1/2+x,y,1/2-z
1/2-x,y,1/2+z
1/2+x,-y,1/2+z
1/2+x,1/2+y,z
1/2-x,1/2-y,z
1/2+x,1/2-y,-z
1/2-x,1/2+y,-z
1/2-x,1/2-y,-z
1/2+x,1/2+y,-z
1/2-x,1/2+y,z
1/2+x,1/2-y,z
loop_
_atom_site_type_symbol
_atom_site_label
_atom_site_fract_x
_atom_site_fract_y
_atom_site_fract_z
Si Si1 0.571642 0.267476 0.186915
Si Si2 0.649983 0.386541 0.500000
Si Si3 0.930028 0.891439 0.398812
Si Si4 0.210309 0.886458 0.000000
Si Si5 0.000000 0.389505 0.436880
Si Si6 0.370561 0.386631 0.103980
O O1 0.500000 0.307508 0.180990
O O2 0.588013 0.250000 0.250000
O O3 0.578195 0.165944 0.157358
O O4 0.628251 0.336773 0.164112
O O5 0.650142 0.500000 0.500000
O O6 0.615494 0.349121 0.554461
O O7 0.720066 0.345525 0.500000
O O8 0.000000 0.884064 0.421930
O O9 0.912549 0.000000 0.384845
O O10 0.177167 0.850929 0.943293
O O11 0.208183 0.000000 0.000000
O O12 0.062206 0.344143 0.413442
O O13 0.000000 0.500000 0.422908
O O14 0.000000 0.368836 0.500000
O O15 0.366318 0.500000 0.109743
#
# Coordination Sequence:
#
# PCOD8283935 Si02
#       6
#    32  16  32  16  16  32
#     4  10  21  34  49  74 103 132 174 217 249 290
#     4   9  17  33  56  79 103 131 166 208 255 304
#     4   9  18  34  55  76 100 131 167 211 258 299
#     4   9  18  31  52  81 108 133 161 201 253 315
#     4   9  14  24  43  68 101 133 156 186 235 301
#     4  10  18  30  49  75 107 136 161 196 252 309
#
# _framework density 19.601178999999998
#
# number of rings (size 3 to 8) (size 9 to 14) (size 15 to 20)
#    0.000    2.556    2.222    0.333    0.000    3.111 
#    0.000    5.556    0.000    2.667    0.000    6.222 
#    0.000    0.000    0.000    0.000    0.000    0.000 
#
# Total GULP energy -445999.229731 kJ/mol
# GULP energy per Si atom -12388.867493 kJ/mol
# Density = 1.955657 g / cm^3
# Si number density = 19.601179 Si / 1000 Ang^3
#
#
#
# Elastic Constant Matrix: (Units=GPa)
#
#
# Indices 1 2 3 4 5 6 
#
# 1 110.0266 30.1613 66.5946 0.0000 0.0000 0.0000
# 2 30.1613 46.4041 43.9085 0.0000 0.0000 0.0000
# 3 66.5946 43.9085 164.0934 0.0000 0.0000 0.0000
# 4 0.0000 0.0000 0.0000 28.0956 0.0000 0.0000
# 5 0.0000 0.0000 0.0000 0.0000 14.7235 0.0000
# 6 0.0000 0.0000 0.0000 0.0000 0.0000 16.9933
#
#
#
# Elastic Compliance Matrix: (Units=1/GPa)
#
#
# Indices 1 2 3 4 5 6 
#
# 1 0.012722 -0.004531 -0.003951 0.000000 0.000000 0.000000
# 2 -0.004531 0.030469 -0.006314 0.000000 0.000000 0.000000
# 3 -0.003951 -0.006314 0.009387 0.000000 0.000000 0.000000
# 4 0.000000 0.000000 0.000000 0.035593 0.000000 0.000000
# 5 0.000000 0.000000 0.000000 0.000000 0.067918 0.000000
# 6 0.000000 0.000000 0.000000 0.000000 0.000000 0.058847
#
#
# Mechanical properties :
#
#
# Convention : Reuss Voigt Hill
#
# Bulk Modulus (GPa) = 43.50299 66.87256 55.18778
# Shear Modulus (GPa) = 19.82633 23.95313 21.88973
#
# Velocity S-wave (km/s) = 3.18384 3.49954 3.34542
# Velocity P-wave (km/s) = 5.97980 7.10772 6.56802
#
# Compressibility (1/GPa) = 0.02298693
#
# Stress axis : x y z
#
# Youngs Moduli (GPa) = 78.60492 32.81977 106.53025
#
# Poissons Ratio (x) = 0.14870 0.42086
# Poissons Ratio (y) = 0.35613 0.67267
# Poissons Ratio (z) = 0.31054 0.20724
#
# Static dielectric constant tensor:
#      x y z
#    x 3.629380 0.000000 0.000000 
#    y 0.000000 3.423360 0.000000 
#    z 0.000000 0.000000 3.585970 
# 
# 
# High freq. dielectric constant tensor:
#      x y z
#    x 1.737410 0.000000 0.000000 
#    y 0.000000 1.766060 0.000000 
#    z 0.000000 0.000000 1.753660 
# 
# From -- ./inp_files/36587.got.cif
#   From: 2010.03.12/outbox.cif.g09.slc.cpg/sg69_19_cif.got.tgz:36587.got - 2010.04.10 23:52:46.
