data_PCOD8283527
_publ_section_title
;
Structure prediction by ZEFSAII (Michael W. Deem and Ramdas Pophale) SiO2 
 PCOD8283527
Probable space group: C C C A
;
_chemical_formula_sum "Si O2"
_cell_formula_units_Z 48
_cell_length_a 8.364321
_cell_length_b 13.728206
_cell_length_c 15.648557
_cell_angle_alpha 90.000000
_cell_angle_beta 90.000000
_cell_angle_gamma 90.000000
_cell_volume 1796.878760
_symmetry_space_group_name_H-M "C C C A"
_symmetry_group_IT_number 68
_space_group.IT_coordinate_system_code '2'
_symmetry_cell_setting 'orthorhombic'
loop_
_space_group_symop_operation_xyz
x,y,z
-x,1/2-y,z
x,1/2-y,1/2-z
-x,y,1/2-z
-x,-y,-z
x,1/2+y,-z
-x,1/2+y,1/2+z
x,-y,1/2+z
1/2+x,1/2+y,z
1/2-x,-y,z
1/2+x,-y,1/2-z
1/2-x,1/2+y,1/2-z
1/2-x,1/2-y,-z
1/2+x,y,-z
1/2-x,y,1/2+z
1/2+x,1/2-y,1/2+z
loop_
_atom_site_type_symbol
_atom_site_label
_atom_site_fract_x
_atom_site_fract_y
_atom_site_fract_z
Si Si1 0.159091 0.598645 0.462101
Si Si2 0.669885 0.764749 0.125655
Si Si3 0.610952 0.077350 0.170239
O O1 0.250000 0.500000 0.486418
O O2 0.264532 0.657900 0.394309
O O3 0.132000 0.667055 0.543620
O O4 0.987611 0.575509 0.418826
O O5 0.500000 0.750000 0.173421
O O6 0.802309 0.818123 0.184246
O O7 0.500000 0.052483 0.250000
O O8 0.750000 0.000000 0.162488
#
# Coordination Sequence:
#
# PCOD8283527 Si02
#       3
#    16  16  16
#     4  11  23  44  74 109 146 187 239 294 354 425
#     4  11  24  43  73 109 143 187 239 294 356 425
#     4  12  27  48  73 106 146 188 240 300 365 431
#
# _framework density 26.712986999999998
#
# number of rings (size 3 to 8) (size 9 to 14) (size 15 to 20)
#    0.000    0.667    0.000    9.000    0.000    6.667 
#    0.000    1.667    0.000    0.000    0.000    0.000 
#    0.000    0.000    0.000    0.000    0.000    0.000 
#
# Total GULP energy -297670.708677 kJ/mol
# GULP energy per Si atom -12402.946195 kJ/mol
# Density = 2.665219 g / cm^3
# Si number density = 26.712987 Si / 1000 Ang^3
#
#
#
# Elastic Constant Matrix: (Units=GPa)
#
#
# Indices 1 2 3 4 5 6 
#
# 1 202.4877 63.1546 35.4218 0.0000 0.0000 0.0000
# 2 63.1546 142.1228 22.2958 0.0000 0.0000 0.0000
# 3 35.4218 22.2958 87.7406 0.0000 0.0000 0.0000
# 4 0.0000 0.0000 0.0000 -105.7771 0.0000 0.0000
# 5 0.0000 0.0000 0.0000 0.0000 19.4174 0.0000
# 6 0.0000 0.0000 0.0000 0.0000 0.0000 67.4043
#
#
#
# Elastic Compliance Matrix: (Units=1/GPa)
#
#
# Indices 1 2 3 4 5 6 
#
# 1 0.005999 -0.002381 -0.001817 0.000000 0.000000 0.000000
# 2 -0.002381 0.008273 -0.001141 0.000000 0.000000 0.000000
# 3 -0.001817 -0.001141 0.012421 0.000000 0.000000 0.000000
# 4 0.000000 0.000000 0.000000 -0.009454 0.000000 0.000000
# 5 0.000000 0.000000 0.000000 0.000000 0.051500 0.000000
# 6 0.000000 0.000000 0.000000 0.000000 0.000000 0.014836
#
#
# Mechanical properties :
#
#
# Convention : Reuss Voigt Hill
#
# Bulk Modulus (GPa) = 62.44044 74.89948 68.66996
# Shear Modulus (GPa) = 50.20548 16.97419 33.58984
#
# Velocity S-wave (km/s) = 4.33996 2.52351 3.54988
# Velocity P-wave (km/s) = 6.96699 6.04899 6.52415
#
# Compressibility (1/GPa) = 0.01601526
#
# Stress axis : x y z
#
# Youngs Moduli (GPa) = 166.69648 120.87375 80.51072
#
# Poissons Ratio (x) = 0.28776 0.14628
# Poissons Ratio (y) = 0.39685 0.09188
# Poissons Ratio (z) = 0.30287 0.13794
#
# Static dielectric constant tensor:
#      x y z
#    x 5.340330 0.000000 0.000000 
#    y 0.000000 4.553950 0.000000 
#    z 0.000000 0.000000 4.516440 
# 
# 
# High freq. dielectric constant tensor:
#      x y z
#    x 2.101810 0.000000 0.000000 
#    y 0.000000 2.087120 0.000000 
#    z 0.000000 0.000000 2.058270 
# 
# From -- ./inp_files/27463.got.cif
#   From: 2010.03.12/outbox.cif.g09.slc.cpg/sg68_14_cif.got.tgz:27463.got - 2010.04.10 23:14:56.
