data_PCOD8283256
_publ_section_title
;
Structure prediction by ZEFSAII (Michael W. Deem and Ramdas Pophale) SiO2 
 PCOD8283256
Probable space group: C C C A
;
_chemical_formula_sum "Si O2"
_cell_formula_units_Z 100
_cell_length_a 9.224998
_cell_length_b 25.328172
_cell_length_c 20.946937
_cell_angle_alpha 90.000000
_cell_angle_beta 90.000000
_cell_angle_gamma 90.000000
_cell_volume 4894.300763
_symmetry_space_group_name_H-M "C C C A"
_symmetry_group_IT_number 68
_space_group.IT_coordinate_system_code '2'
_symmetry_cell_setting 'orthorhombic'
loop_
_space_group_symop_operation_xyz
x,y,z
-x,1/2-y,z
x,1/2-y,1/2-z
-x,y,1/2-z
-x,-y,-z
x,1/2+y,-z
-x,1/2+y,1/2+z
x,-y,1/2+z
1/2+x,1/2+y,z
1/2-x,-y,z
1/2+x,-y,1/2-z
1/2-x,1/2+y,1/2-z
1/2-x,1/2-y,-z
1/2+x,y,-z
1/2-x,y,1/2+z
1/2+x,1/2-y,1/2+z
loop_
_atom_site_type_symbol
_atom_site_label
_atom_site_fract_x
_atom_site_fract_y
_atom_site_fract_z
Si Si1 0.500000 0.750000 0.250000
Si Si2 0.188384 0.198117 0.885737
Si Si3 0.001256 0.931798 0.449339
Si Si4 0.750000 0.000000 0.996016
Si Si5 0.187940 0.690606 0.847930
Si Si6 0.949030 0.345095 0.442093
Si Si7 0.025466 0.631370 0.320243
Si Si8 0.500000 0.250000 0.015601
O O1 0.408899 0.791952 0.210762
O O2 0.247798 0.256165 0.875533
O O3 0.306824 0.150745 0.896448
O O4 0.087135 0.180323 0.826499
O O5 0.085903 0.204460 0.946971
O O6 0.866221 0.971854 0.449941
O O7 0.967633 0.891037 0.506714
O O8 0.008462 0.907730 0.378755
O O9 0.156816 0.959846 0.460013
O O10 0.309890 0.650590 0.824590
O O11 0.096222 0.659575 0.901536
O O12 0.902187 0.288097 0.472130
O O13 0.000000 0.605432 0.250000
#
# Coordination Sequence:
#
# PCOD8283256 Si02
#       8
#     4  16  16   8  16  16  16   8
#     4  12  22  40  54  80 138 196 232 252 288 366
#     4  12  21  37  55  88 132 181 217 258 298 360
#     4  11  23  45  70  98 124 157 208 271 333 386
#     4  10  24  46  76  96 118 150 204 278 344 386
#     4  12  23  38  57  85 134 187 222 253 295 362
#     4  12  23  37  64  95 131 169 216 266 313 370
#     4  12  26  40  62  91 128 171 219 259 313 381
#     4  12  21  32  59  95 133 164 212 258 310 365
#
# _framework density 20.431927000000002
#
# number of rings (size 3 to 8) (size 9 to 14) (size 15 to 20)
#    0.000    0.320    6.400    3.360    2.240    0.640 
#    0.000    0.800    0.000    0.000    0.000    0.000 
#    0.000    0.000    0.000    0.000    0.000    0.000 
#
# Total GULP energy -619604.484280 kJ/mol
# GULP energy per Si atom -12392.089686 kJ/mol
# Density = 2.038542 g / cm^3
# Si number density = 20.431927 Si / 1000 Ang^3
#
#
#
# Elastic Constant Matrix: (Units=GPa)
#
#
# Indices 1 2 3 4 5 6 
#
# 1 113.5548 25.8675 38.6263 0.0000 0.0000 0.0000
# 2 25.8675 61.3799 29.1249 0.0000 0.0000 0.0000
# 3 38.6263 29.1249 117.4845 0.0000 0.0000 0.0000
# 4 0.0000 0.0000 0.0000 17.8998 0.0000 0.0000
# 5 0.0000 0.0000 0.0000 0.0000 -11.7554 0.0000
# 6 0.0000 0.0000 0.0000 0.0000 0.0000 32.8130
#
#
#
# Elastic Compliance Matrix: (Units=1/GPa)
#
#
# Indices 1 2 3 4 5 6 
#
# 1 0.010422 -0.003135 -0.002649 0.000000 0.000000 0.000000
# 2 -0.003135 0.019407 -0.003780 0.000000 0.000000 0.000000
# 3 -0.002649 -0.003780 0.010320 0.000000 0.000000 0.000000
# 4 0.000000 0.000000 0.000000 0.055867 0.000000 0.000000
# 5 0.000000 0.000000 0.000000 0.000000 -0.085067 0.000000
# 6 0.000000 0.000000 0.000000 0.000000 0.000000 0.030476
#
#
# Mechanical properties :
#
#
# Convention : Reuss Voigt Hill
#
# Bulk Modulus (GPa) = 47.57507 53.29519 50.43513
# Shear Modulus (GPa) = 74.00911 21.04483 47.52697
#
# Velocity S-wave (km/s) = 6.02502 3.21284 4.82821
# Velocity P-wave (km/s) = 8.46974 6.31696 7.47129
#
# Compressibility (1/GPa) = 0.02101941
#
# Stress axis : x y z
#
# Youngs Moduli (GPa) = 95.95451 51.52796 96.89987
#
# Poissons Ratio (x) = 0.16154 0.25671
# Poissons Ratio (y) = 0.30081 0.36632
# Poissons Ratio (z) = 0.25421 0.19479
#
# Static dielectric constant tensor:
#      x y z
#    x 3.299740 0.000000 0.000000 
#    y 0.000000 3.522730 0.000000 
#    z 0.000000 0.000000 3.535410 
# 
# 
# High freq. dielectric constant tensor:
#      x y z
#    x 1.828720 0.000000 0.000000 
#    y 0.000000 1.769010 0.000000 
#    z 0.000000 0.000000 1.792740 
# 
# From -- ./inp_files/36740.got.cif
#   From: 2010.03.12/outbox.cif.g09.slc.cpg/sg68_19_cif.got.tgz:36740.got - 2010.04.10 23:14:56.
