data_PCOD8283379
_publ_section_title
;
Structure prediction by ZEFSAII (Michael W. Deem and Ramdas Pophale) SiO2 
 PCOD8283379
Probable space group: C C C A
;
_chemical_formula_sum "Si O2"
_cell_formula_units_Z 72
_cell_length_a 8.060255
_cell_length_b 19.157299
_cell_length_c 20.243780
_cell_angle_alpha 90.000000
_cell_angle_beta 90.000000
_cell_angle_gamma 90.000000
_cell_volume 3125.897033
_symmetry_space_group_name_H-M "C C C A"
_symmetry_group_IT_number 68
_space_group.IT_coordinate_system_code '2'
_symmetry_cell_setting 'orthorhombic'
loop_
_space_group_symop_operation_xyz
x,y,z
-x,1/2-y,z
x,1/2-y,1/2-z
-x,y,1/2-z
-x,-y,-z
x,1/2+y,-z
-x,1/2+y,1/2+z
x,-y,1/2+z
1/2+x,1/2+y,z
1/2-x,-y,z
1/2+x,-y,1/2-z
1/2-x,1/2+y,1/2-z
1/2-x,1/2-y,-z
1/2+x,y,-z
1/2-x,y,1/2+z
1/2+x,1/2-y,1/2+z
loop_
_atom_site_type_symbol
_atom_site_label
_atom_site_fract_x
_atom_site_fract_y
_atom_site_fract_z
Si Si1 0.109898 0.448169 0.054791
Si Si2 0.093641 0.449097 0.317725
Si Si3 0.500000 0.750000 0.608558
Si Si4 0.844909 0.701418 0.632501
Si Si5 0.376372 0.641641 0.512974
O O1 0.250000 0.500000 0.030403
O O2 0.203004 0.371807 0.051870
O O3 0.040368 0.467754 0.126150
O O4 0.961254 0.435198 0.002067
O O5 0.250000 0.500000 0.324336
O O6 0.150511 0.369028 0.324316
O O7 0.000000 0.463156 0.250000
O O8 0.670391 0.740494 0.650455
O O9 0.494427 0.682005 0.562696
O O10 0.848598 0.684099 0.554594
O O11 0.000000 0.750000 0.652767
#
# Coordination Sequence:
#
# PCOD8283379 Si02
#       5
#    16  16   8  16  16
#     4  11  24  38  67 101 140 180 230 291 343 418
#     4  11  27  52  73  95 133 186 246 299 360 412
#     4  12  20  38  66  99 145 186 220 266 360 434
#     4  11  24  43  71 108 144 185 231 288 349 427
#     4  11  21  38  62 102 148 182 219 273 351 426
#
# _framework density 23.033387000000001
#
# number of rings (size 3 to 8) (size 9 to 14) (size 15 to 20)
#    0.000    0.889    3.333    4.667    3.111    4.000 
#    4.000    0.000    0.000    1.333    0.000    0.000 
#    0.000    0.000    0.000    0.000    0.000    0.000 
#
# Total GULP energy -446170.504568 kJ/mol
# GULP energy per Si atom -12393.625127 kJ/mol
# Density = 2.298096 g / cm^3
# Si number density = 23.033387 Si / 1000 Ang^3
#
#
#
# Elastic Constant Matrix: (Units=GPa)
#
#
# Indices 1 2 3 4 5 6 
#
# 1 184.0860 76.1592 47.1120 0.0000 0.0000 0.0000
# 2 76.1592 112.8662 31.0173 0.0000 0.0000 0.0000
# 3 47.1120 31.0173 74.7181 0.0000 0.0000 0.0000
# 4 0.0000 0.0000 0.0000 28.5405 0.0000 0.0000
# 5 0.0000 0.0000 0.0000 0.0000 24.8305 0.0000
# 6 0.0000 0.0000 0.0000 0.0000 0.0000 53.7045
#
#
#
# Elastic Compliance Matrix: (Units=1/GPa)
#
#
# Indices 1 2 3 4 5 6 
#
# 1 0.008174 -0.004627 -0.003233 0.000000 0.000000 0.000000
# 2 -0.004627 0.012620 -0.002321 0.000000 0.000000 0.000000
# 3 -0.003233 -0.002321 0.016386 0.000000 0.000000 0.000000
# 4 0.000000 0.000000 0.000000 0.035038 0.000000 0.000000
# 5 0.000000 0.000000 0.000000 0.000000 0.040273 0.000000
# 6 0.000000 0.000000 0.000000 0.000000 0.000000 0.018620
#
#
# Mechanical properties :
#
#
# Convention : Reuss Voigt Hill
#
# Bulk Modulus (GPa) = 59.46431 75.58305 67.52368
# Shear Modulus (GPa) = 31.83083 35.90722 33.86903
#
# Velocity S-wave (km/s) = 3.72148 3.95260 3.83878
# Velocity P-wave (km/s) = 6.65872 7.32916 7.00197
#
# Compressibility (1/GPa) = 0.01681681
#
# Stress axis : x y z
#
# Youngs Moduli (GPa) = 122.33968 79.23779 61.02806
#
# Poissons Ratio (x) = 0.36664 0.19731
# Poissons Ratio (y) = 0.56607 0.14167
# Poissons Ratio (z) = 0.39554 0.18395
#
# Static dielectric constant tensor:
#      x y z
#    x 4.772490 0.000000 0.000000 
#    y 0.000000 4.396760 0.000000 
#    z 0.000000 0.000000 3.584130 
# 
# 
# High freq. dielectric constant tensor:
#      x y z
#    x 1.950810 0.000000 0.000000 
#    y 0.000000 1.927910 0.000000 
#    z 0.000000 0.000000 1.856860 
# 
# From -- ./inp_files/36039.got.cif
#   From: 2010.03.12/outbox.cif.g09.slc.cpg/sg68_19_cif.got.tgz:36039.got - 2010.04.10 23:14:56.
