data_PCOD8283480
_publ_section_title
;
Structure prediction by ZEFSAII (Michael W. Deem and Ramdas Pophale) SiO2 
 PCOD8283480
Probable space group: C C C A
;
_chemical_formula_sum "Si O2"
_cell_formula_units_Z 52
_cell_length_a 28.915955
_cell_length_b 5.264232
_cell_length_c 16.233015
_cell_angle_alpha 90.000000
_cell_angle_beta 90.000000
_cell_angle_gamma 90.000000
_cell_volume 2470.994342
_symmetry_space_group_name_H-M "C C C A"
_symmetry_group_IT_number 68
_space_group.IT_coordinate_system_code '2'
_symmetry_cell_setting 'orthorhombic'
loop_
_space_group_symop_operation_xyz
x,y,z
-x,1/2-y,z
x,1/2-y,1/2-z
-x,y,1/2-z
-x,-y,-z
x,1/2+y,-z
-x,1/2+y,1/2+z
x,-y,1/2+z
1/2+x,1/2+y,z
1/2-x,-y,z
1/2+x,-y,1/2-z
1/2-x,1/2+y,1/2-z
1/2-x,1/2-y,-z
1/2+x,y,-z
1/2-x,y,1/2+z
1/2+x,1/2-y,1/2+z
loop_
_atom_site_type_symbol
_atom_site_label
_atom_site_fract_x
_atom_site_fract_y
_atom_site_fract_z
Si Si1 0.000000 0.750000 0.750000
Si Si2 0.327628 0.002121 0.694072
Si Si3 0.427802 0.094987 0.169866
Si Si4 0.250000 0.500000 0.942972
Si Si5 0.500000 0.250000 0.051984
O O1 0.031667 0.602146 0.813382
O O2 0.318280 0.250000 0.750000
O O3 0.320833 0.750000 0.750000
O O4 0.378139 0.027653 0.649479
O O5 0.294141 0.996479 0.616331
O O6 0.415933 0.250000 0.250000
O O7 0.451110 0.272627 0.101184
O O8 0.250000 0.250000 0.000000
O O9 0.500000 0.500000 0.000000
#
# Coordination Sequence:
#
# PCOD8283480 Si02
#       5
#     4  16  16   8   8
#     4  12  16  40  68  92 128 162 234 262 334 360
#     4  11  24  43  71 101 126 173 232 282 324 394
#     4  11  23  39  67  92 127 177 227 274 318 389
#     4  12  26  46  70  98 140 176 208 276 354 414
#     4  12  26  38  57  91 136 172 210 268 330 390
#
# _framework density 21.044160000000002
#
# number of rings (size 3 to 8) (size 9 to 14) (size 15 to 20)
#    0.000    0.615    4.615    3.692    0.000    2.462 
#    0.000    0.000    0.000    0.000    0.000    0.000 
#    0.000    0.000    0.000    0.000    0.000    0.000 
#
# Total GULP energy -322191.512792 kJ/mol
# GULP energy per Si atom -12391.981261 kJ/mol
# Density = 2.099626 g / cm^3
# Si number density = 21.044160 Si / 1000 Ang^3
#
#
#
# Elastic Constant Matrix: (Units=GPa)
#
#
# Indices 1 2 3 4 5 6 
#
# 1 200.5223 58.8678 88.3967 0.0000 0.0000 0.0000
# 2 58.8678 159.3653 71.3546 0.0000 0.0000 0.0000
# 3 88.3967 71.3546 135.0989 0.0000 0.0000 0.0000
# 4 0.0000 0.0000 0.0000 50.9868 0.0000 0.0000
# 5 0.0000 0.0000 0.0000 0.0000 391.8486 0.0000
# 6 0.0000 0.0000 0.0000 0.0000 0.0000 36.6157
#
#
#
# Elastic Compliance Matrix: (Units=1/GPa)
#
#
# Indices 1 2 3 4 5 6 
#
# 1 0.007069 -0.000708 -0.004252 0.000000 0.000000 0.000000
# 2 -0.000708 0.008289 -0.003915 0.000000 0.000000 0.000000
# 3 -0.004252 -0.003915 0.012252 0.000000 0.000000 0.000000
# 4 0.000000 0.000000 0.000000 0.019613 0.000000 0.000000
# 5 0.000000 0.000000 0.000000 0.000000 0.002552 0.000000
# 6 0.000000 0.000000 0.000000 0.000000 0.000000 0.027311
#
#
# Mechanical properties :
#
#
# Convention : Reuss Voigt Hill
#
# Bulk Modulus (GPa) = 101.40637 103.58052 102.49344
# Shear Modulus (GPa) = 50.95749 114.31471 82.63610
#
# Velocity S-wave (km/s) = 4.92617 7.37830 6.27321
# Velocity P-wave (km/s) = 8.98043 11.04143 10.06383
#
# Compressibility (1/GPa) = 0.00986131
#
# Stress axis : x y z
#
# Youngs Moduli (GPa) = 141.46418 120.63858 81.62164
#
# Poissons Ratio (x) = 0.08536 0.34702
# Poissons Ratio (y) = 0.10010 0.31956
# Poissons Ratio (z) = 0.60144 0.47231
#
# Static dielectric constant tensor:
#      x y z
#    x 5.861400 0.000000 0.000000 
#    y 0.000000 4.012170 0.000000 
#    z 0.000000 0.000000 3.655420 
# 
# 
# High freq. dielectric constant tensor:
#      x y z
#    x 1.845130 0.000000 0.000000 
#    y 0.000000 1.836900 0.000000 
#    z 0.000000 0.000000 1.822580 
# 
# From -- ./inp_files/18370.got.cif
#   From: 2010.03.12/outbox.cif.g09.slc.cpg/sg68_10_cif.got.tgz:18370.got - 2010.04.10 23:14:56.
