data_PCOD8283134
_publ_section_title
;
Structure prediction by ZEFSAII (Michael W. Deem and Ramdas Pophale) SiO2 
 PCOD8283134
Probable space group: C C C A
;
_chemical_formula_sum "Si O2"
_cell_formula_units_Z 52
_cell_length_a 17.751520
_cell_length_b 9.223718
_cell_length_c 13.631159
_cell_angle_alpha 90.000000
_cell_angle_beta 90.000000
_cell_angle_gamma 90.000000
_cell_volume 2231.898017
_symmetry_space_group_name_H-M "C C C A"
_symmetry_group_IT_number 68
_space_group.IT_coordinate_system_code '2'
_symmetry_cell_setting 'orthorhombic'
loop_
_space_group_symop_operation_xyz
x,y,z
-x,1/2-y,z
x,1/2-y,1/2-z
-x,y,1/2-z
-x,-y,-z
x,1/2+y,-z
-x,1/2+y,1/2+z
x,-y,1/2+z
1/2+x,1/2+y,z
1/2-x,-y,z
1/2+x,-y,1/2-z
1/2-x,1/2+y,1/2-z
1/2-x,1/2-y,-z
1/2+x,y,-z
1/2-x,y,1/2+z
1/2+x,1/2-y,1/2+z
loop_
_atom_site_type_symbol
_atom_site_label
_atom_site_fract_x
_atom_site_fract_y
_atom_site_fract_z
Si Si1 0.661922 0.515635 0.392646
Si Si2 0.500000 0.750000 0.750000
Si Si3 0.586480 0.285911 0.514837
Si Si4 0.925494 0.026676 0.296951
O O1 0.750000 0.500000 0.407667
O O2 0.619139 0.366197 0.419130
O O3 0.633770 0.642526 0.463879
O O4 0.643054 0.547336 0.279206
O O5 0.553239 0.643975 0.683193
O O6 0.500000 0.250000 0.497281
O O7 0.597966 0.399001 0.603309
O O8 0.000000 0.103272 0.250000
#
# Coordination Sequence:
#
# PCOD8283134 Si02
#       4
#    16   4  16  16
#     4  12  28  45  70 110 149 184 235 299 371 416
#     4   8  20  40  70 104 124 170 256 284 340 408
#     4  12  25  47  77 102 142 193 244 292 352 435
#     4  10  23  43  72 101 141 182 244 288 353 426
#
# _framework density 23.298556999999999
#
# number of rings (size 3 to 8) (size 9 to 14) (size 15 to 20)
#    0.923    0.000    3.077    2.769    6.462    1.231 
#    5.538    0.000    0.000    0.000    0.000    0.000 
#    0.000    0.000    0.000    0.000    0.000    0.000 
#
# Total GULP energy -322441.613178 kJ/mol
# GULP energy per Si atom -12401.600507 kJ/mol
# Density = 2.324553 g / cm^3
# Si number density = 23.298557 Si / 1000 Ang^3
#
#
#
# Elastic Constant Matrix: (Units=GPa)
#
#
# Indices 1 2 3 4 5 6 
#
# 1 185.9198 58.1098 39.0531 0.0000 0.0000 0.0000
# 2 58.1098 116.5432 8.7198 0.0000 0.0000 0.0000
# 3 39.0531 8.7198 64.1772 0.0000 0.0000 0.0000
# 4 0.0000 0.0000 0.0000 33.1577 0.0000 0.0000
# 5 0.0000 0.0000 0.0000 0.0000 -489.1203 0.0000
# 6 0.0000 0.0000 0.0000 0.0000 0.0000 30.6202
#
#
#
# Elastic Compliance Matrix: (Units=1/GPa)
#
#
# Indices 1 2 3 4 5 6 
#
# 1 0.007247 -0.003317 -0.003959 0.000000 0.000000 0.000000
# 2 -0.003317 0.010187 0.000635 0.000000 0.000000 0.000000
# 3 -0.003959 0.000635 0.017905 0.000000 0.000000 0.000000
# 4 0.000000 0.000000 0.000000 0.030159 0.000000 0.000000
# 5 0.000000 0.000000 0.000000 0.000000 -0.002044 0.000000
# 6 0.000000 0.000000 0.000000 0.000000 0.000000 0.032658
#
#
# Mechanical properties :
#
#
# Convention : Reuss Voigt Hill
#
# Bulk Modulus (GPa) = 45.34118 64.26730 54.80424
# Shear Modulus (GPa) = 42.82741 -67.68466 -12.42862
#
# Velocity S-wave (km/s) = 4.29207 -5.39575 -2.31216
# Velocity P-wave (km/s) = 6.63820 3.34285 4.05531
#
# Compressibility (1/GPa) = 0.02205501
#
# Stress axis : x y z
#
# Youngs Moduli (GPa) = 137.98512 98.16365 55.85043
#
# Poissons Ratio (x) = 0.32564 0.22113
# Poissons Ratio (y) = 0.45774 -0.03544
# Poissons Ratio (z) = 0.54633 -0.06229
#
# Static dielectric constant tensor:
#      x y z
#    x 3.890190 0.000000 0.000000 
#    y 0.000000 4.449470 0.000000 
#    z 0.000000 0.000000 4.149170 
# 
# 
# High freq. dielectric constant tensor:
#      x y z
#    x 1.895130 0.000000 0.000000 
#    y 0.000000 1.942200 0.000000 
#    z 0.000000 0.000000 1.927530 
# 
# From -- ./inp_files/18958.got.cif
#   From: 2010.03.12/outbox.cif.g09.slc.cpg/sg68_10_cif.got.tgz:18958.got - 2010.04.10 23:14:56.
