data_PCOD8283814
_publ_section_title
;
Structure prediction by ZEFSAII (Michael W. Deem and Ramdas Pophale) SiO2 
 PCOD8283814
Probable space group: F M M M
;
_chemical_formula_sum "Si O2"
_cell_formula_units_Z 208
_cell_length_a 24.261812
_cell_length_b 27.771164
_cell_length_c 17.386738
_cell_angle_alpha 90.000000
_cell_angle_beta 90.000000
_cell_angle_gamma 90.000000
_cell_volume 11714.814770
_symmetry_space_group_name_H-M "F M M M"
_symmetry_group_IT_number 69
_symmetry_cell_setting 'orthorhombic'
loop_
_space_group_symop_operation_xyz
x,y,z
-x,-y,z
x,-y,-z
-x,y,-z
-x,-y,-z
x,y,-z
-x,y,z
x,-y,z
x,1/2+y,1/2+z
-x,1/2-y,1/2+z
x,1/2-y,1/2-z
-x,1/2+y,1/2-z
-x,1/2-y,1/2-z
x,1/2+y,1/2-z
-x,1/2+y,1/2+z
x,1/2-y,1/2+z
1/2+x,y,1/2+z
1/2-x,-y,1/2+z
1/2+x,-y,1/2-z
1/2-x,y,1/2-z
1/2-x,-y,1/2-z
1/2+x,y,1/2-z
1/2-x,y,1/2+z
1/2+x,-y,1/2+z
1/2+x,1/2+y,z
1/2-x,1/2-y,z
1/2+x,1/2-y,-z
1/2-x,1/2+y,-z
1/2-x,1/2-y,-z
1/2+x,1/2+y,-z
1/2-x,1/2+y,z
1/2+x,1/2-y,z
loop_
_atom_site_type_symbol
_atom_site_label
_atom_site_fract_x
_atom_site_fract_y
_atom_site_fract_z
Si Si1 0.061988 0.500000 0.091956
Si Si2 0.869402 0.910629 0.590040
Si Si3 0.756174 0.446534 0.908751
Si Si4 0.133861 0.556600 0.410046
Si Si5 0.434897 0.233429 0.414655
Si Si6 0.935474 0.861679 0.836216
Si Si7 0.064094 0.330076 0.163550
O O1 0.093198 0.546736 0.125440
O O2 0.000000 0.500000 0.125049
O O3 0.060858 0.500000 0.000000
O O4 0.866610 0.918753 0.500000
O O5 0.806298 0.913010 0.622227
O O6 0.897226 0.860119 0.607237
O O7 0.767037 0.500000 0.876074
O O8 0.695713 0.428412 0.883178
O O9 0.755632 0.448898 0.000000
O O10 0.123874 0.567872 0.500000
O O11 0.123344 0.500000 0.394168
O O12 0.093249 0.588267 0.358047
O O13 0.411947 0.245733 0.500000
O O14 0.500000 0.228702 0.416905
O O15 0.411302 0.181755 0.388225
O O16 0.419176 0.274680 0.352916
O O17 0.922543 0.845873 0.749533
O O18 0.000000 0.869455 0.849164
O O19 0.000000 0.338748 0.142724
#
# Coordination Sequence:
#
# PCOD8283814 Si02
#       7
#    16  32  32  32  32  32  32
#     4   9  16  24  38  64  95 128 164 202 239 276
#     4  10  17  28  47  69  97 132 170 207 240 285
#     4   8  14  28  49  71  93 123 167 214 254 287
#     4   9  18  33  54  76  97 125 166 213 254 297
#     4   9  17  31  53  76  96 124 166 208 244 294
#     4  10  20  34  50  72 103 135 162 198 255 307
#     4  10  20  32  46  71 105 137 163 195 243 298
#
# _framework density 17.755295
#
# number of rings (size 3 to 8) (size 9 to 14) (size 15 to 20)
#    0.000    2.692    0.769    2.769    0.000    4.615 
#    1.385    1.538    0.000    2.769    0.000    6.462 
#    0.000    0.000    0.000    0.000    0.000    0.000 
#
# Total GULP energy -644442.709206 kJ/mol
# GULP energy per Si atom -12393.129023 kJ/mol
# Density = 1.771488 g / cm^3
# Si number density = 17.755295 Si / 1000 Ang^3
#
#
#
# Elastic Constant Matrix: (Units=GPa)
#
#
# Indices 1 2 3 4 5 6 
#
# 1 86.1235 50.9026 31.5470 0.0000 0.0000 0.0000
# 2 50.9026 105.1788 30.8850 0.0000 0.0000 0.0000
# 3 31.5470 30.8850 44.3441 0.0000 0.0000 0.0000
# 4 0.0000 0.0000 0.0000 20.4385 0.0000 0.0000
# 5 0.0000 0.0000 0.0000 0.0000 13.8738 0.0000
# 6 0.0000 0.0000 0.0000 0.0000 0.0000 11.1713
#
#
#
# Elastic Compliance Matrix: (Units=1/GPa)
#
#
# Indices 1 2 3 4 5 6 
#
# 1 0.018630 -0.006442 -0.008767 0.000000 0.000000 0.000000
# 2 -0.006442 0.014179 -0.005293 0.000000 0.000000 0.000000
# 3 -0.008767 -0.005293 0.032474 0.000000 0.000000 0.000000
# 4 0.000000 0.000000 0.000000 0.048927 0.000000 0.000000
# 5 0.000000 0.000000 0.000000 0.000000 0.072078 0.000000
# 6 0.000000 0.000000 0.000000 0.000000 0.000000 0.089515
#
#
# Mechanical properties :
#
#
# Convention : Reuss Voigt Hill
#
# Bulk Modulus (GPa) = 41.18584 51.36843 46.27713
# Shear Modulus (GPa) = 15.38926 17.25081 16.32004
#
# Velocity S-wave (km/s) = 2.94724 3.12041 3.03506
# Velocity P-wave (km/s) = 5.90156 6.47895 6.19698
#
# Compressibility (1/GPa) = 0.02428019
#
# Stress axis : x y z
#
# Youngs Moduli (GPa) = 53.67687 70.52437 30.79352
#
# Poissons Ratio (x) = 0.45431 0.26997
# Poissons Ratio (y) = 0.34578 0.16299
# Poissons Ratio (z) = 0.47058 0.37328
#
# Static dielectric constant tensor:
#      x y z
#    x 3.340060 0.000000 0.000000 
#    y 0.000000 3.338290 0.000000 
#    z 0.000000 0.000000 3.067390 
# 
# 
# High freq. dielectric constant tensor:
#      x y z
#    x 1.667190 0.000000 0.000000 
#    y 0.000000 1.682830 0.000000 
#    z 0.000000 0.000000 1.663750 
# 
# From -- ./inp_files/26125.got.cif
#   From: 2010.03.12/outbox.cif.g09.slc.cpg/sg69_14_cif.got.tgz:26125.got - 2010.04.10 23:52:46.
