data_PCOD8283866
_publ_section_title
;
Structure prediction by ZEFSAII (Michael W. Deem and Ramdas Pophale) SiO2 
 PCOD8283866
Probable space group: F M M M
;
_chemical_formula_sum "Si O2"
_cell_formula_units_Z 176
_cell_length_a 27.658271
_cell_length_b 30.818028
_cell_length_c 10.184682
_cell_angle_alpha 90.000000
_cell_angle_beta 90.000000
_cell_angle_gamma 90.000000
_cell_volume 8681.151720
_symmetry_space_group_name_H-M "F M M M"
_symmetry_group_IT_number 69
_symmetry_cell_setting 'orthorhombic'
loop_
_space_group_symop_operation_xyz
x,y,z
-x,-y,z
x,-y,-z
-x,y,-z
-x,-y,-z
x,y,-z
-x,y,z
x,-y,z
x,1/2+y,1/2+z
-x,1/2-y,1/2+z
x,1/2-y,1/2-z
-x,1/2+y,1/2-z
-x,1/2-y,1/2-z
x,1/2+y,1/2-z
-x,1/2+y,1/2+z
x,1/2-y,1/2+z
1/2+x,y,1/2+z
1/2-x,-y,1/2+z
1/2+x,-y,1/2-z
1/2-x,y,1/2-z
1/2-x,-y,1/2-z
1/2+x,y,1/2-z
1/2-x,y,1/2+z
1/2+x,-y,1/2+z
1/2+x,1/2+y,z
1/2-x,1/2-y,z
1/2+x,1/2-y,-z
1/2-x,1/2+y,-z
1/2-x,1/2-y,-z
1/2+x,1/2+y,-z
1/2-x,1/2+y,z
1/2+x,1/2-y,z
loop_
_atom_site_type_symbol
_atom_site_label
_atom_site_fract_x
_atom_site_fract_y
_atom_site_fract_z
Si Si1 0.084461 0.812835 0.500000
Si Si2 0.846746 0.452732 0.646940
Si Si3 0.946732 0.094991 0.500000
Si Si4 0.206352 0.367735 0.652939
Si Si5 0.446212 0.549572 0.751639
Si Si6 0.871188 0.798949 0.227895
Si Si7 0.555375 0.716456 0.000000
O O1 0.048613 0.853312 0.500000
O O2 0.117124 0.817935 0.629334
O O3 0.054202 0.768685 0.500000
O O4 0.827996 0.456140 0.500000
O O5 0.836328 0.500000 0.716915
O O6 0.818140 0.412133 0.709198
O O7 0.904909 0.444228 0.638916
O O8 0.922515 0.076729 0.631646
O O9 0.000000 0.074310 0.500000
O O10 0.222652 0.371900 0.500000
O O11 0.250000 0.356958 0.750000
O O12 0.169718 0.327580 0.660333
O O13 0.500000 0.566387 0.797341
O O14 0.451045 0.500000 0.708368
O O15 0.852138 0.750000 0.250000
O O16 0.918044 0.799912 0.131951
O O17 0.500000 0.699523 0.000000
#
# Coordination Sequence:
#
# PCOD8283866 Si02
#       7
#    16  32  16  32  32  32  16
#     4  10  21  33  59  86 120 156 200 247 292 353
#     4   9  19  37  60  84 117 155 192 244 300 357
#     4  10  18  28  44  72 110 149 193 237 277 325
#     4  11  24  43  66  90 121 157 203 258 318 371
#     4   9  17  30  50  78 114 156 196 234 286 351
#     4  10  22  41  62  92 125 160 203 255 300 365
#     4  10  21  40  62  87 126 171 202 239 304 366
#
# _framework density 20.273807999999999
#
# number of rings (size 3 to 8) (size 9 to 14) (size 15 to 20)
#    0.000    2.182    0.909    1.636    1.273    6.182 
#    1.636    3.636    0.000    0.000    0.000    0.000 
#    0.000    0.000    0.000    0.000    0.000    0.000 
#
# Total GULP energy -545126.443808 kJ/mol
# GULP energy per Si atom -12389.237359 kJ/mol
# Density = 2.022766 g / cm^3
# Si number density = 20.273808 Si / 1000 Ang^3
#
#
#
# Elastic Constant Matrix: (Units=GPa)
#
#
# Indices 1 2 3 4 5 6 
#
# 1 99.8974 47.7212 34.4553 -0.0024 0.0040 0.0017
# 2 47.7212 97.9952 28.1896 -0.0126 0.0067 0.0024
# 3 34.4553 28.1896 100.9694 -0.0234 0.0200 0.0058
# 4 -0.0024 -0.0126 -0.0234 16.4137 0.0066 0.0025
# 5 0.0040 0.0067 0.0200 0.0066 28.3507 -0.0031
# 6 0.0017 0.0024 0.0058 0.0025 -0.0031 25.1303
#
#
#
# Elastic Compliance Matrix: (Units=1/GPa)
#
#
# Indices 1 2 3 4 5 6 
#
# 1 0.013883 -0.005869 -0.003099 -0.000007 0.000002 0.000000
# 2 -0.005869 0.013577 -0.001788 0.000007 -0.000001 0.000000
# 3 -0.003099 -0.001788 0.011461 0.000014 -0.000007 -0.000002
# 4 -0.000007 0.000007 0.000014 0.060925 -0.000014 -0.000006
# 5 0.000002 -0.000001 -0.000007 -0.000014 0.035272 0.000004
# 6 0.000000 0.000000 -0.000002 -0.000006 0.000004 0.039793
#
#
# Mechanical properties :
#
#
# Convention : Reuss Voigt Hill
#
# Bulk Modulus (GPa) = 57.44184 57.73270 57.58727
# Shear Modulus (GPa) = 24.72499 26.54534 25.63517
#
# Velocity S-wave (km/s) = 3.49600 3.62241 3.55976
# Velocity P-wave (km/s) = 6.68510 6.78484 6.73516
#
# Compressibility (1/GPa) = 0.01740891
#
# Stress axis : x y z
#
# Youngs Moduli (GPa) = 72.03168 73.65408 87.25574
#
# Poissons Ratio (x) = 0.43229 0.27039
# Poissons Ratio (y) = 0.42276 0.15599
# Poissons Ratio (z) = 0.22321 0.13167
#
# Static dielectric constant tensor:
#      x y z
#    x 3.392020 0.000000 0.000000 
#    y 0.000000 3.891470 -0.000010 
#    z 0.000000 -0.000010 3.678540 
# 
# 
# High freq. dielectric constant tensor:
#      x y z
#    x 1.764650 0.000000 0.000000 
#    y 0.000000 1.802440 0.000000 
#    z 0.000000 0.000000 1.784340 
# 
# From -- ./inp_files/11595.got.cif
#   From: 2010.03.12/outbox.cif.g09.slc.cpg/sg69_6_cif.got.tgz:11595.got - 2010.04.10 23:52:46.
