data_PCOD8283727
_publ_section_title
;
Structure prediction by ZEFSAII (Michael W. Deem and Ramdas Pophale) SiO2 
 PCOD8283727
Probable space group: C C C A
;
_chemical_formula_sum "Si O2"
_cell_formula_units_Z 60
_cell_length_a 5.347626
_cell_length_b 22.717369
_cell_length_c 21.526213
_cell_angle_alpha 90.000000
_cell_angle_beta 90.000000
_cell_angle_gamma 90.000000
_cell_volume 2615.090312
_symmetry_space_group_name_H-M "C C C A"
_symmetry_group_IT_number 68
_space_group.IT_coordinate_system_code '2'
_symmetry_cell_setting 'orthorhombic'
loop_
_space_group_symop_operation_xyz
x,y,z
-x,1/2-y,z
x,1/2-y,1/2-z
-x,y,1/2-z
-x,-y,-z
x,1/2+y,-z
-x,1/2+y,1/2+z
x,-y,1/2+z
1/2+x,1/2+y,z
1/2-x,-y,z
1/2+x,-y,1/2-z
1/2-x,1/2+y,1/2-z
1/2-x,1/2-y,-z
1/2+x,y,-z
1/2-x,y,1/2+z
1/2+x,1/2-y,1/2+z
loop_
_atom_site_type_symbol
_atom_site_label
_atom_site_fract_x
_atom_site_fract_y
_atom_site_fract_z
Si Si1 0.000000 0.250000 0.750000
Si Si2 0.250000 0.500000 0.307054
Si Si3 0.000000 0.899531 0.750000
Si Si4 0.750000 0.000000 0.611396
Si Si5 0.653606 0.808411 0.155009
Si Si6 0.760243 0.120222 0.539028
O O1 0.149732 0.205589 0.792187
O O2 0.261193 0.557090 0.261331
O O3 0.498496 0.500497 0.348469
O O4 0.001449 0.861242 0.686636
O O5 0.738966 0.944505 0.566529
O O6 0.500000 0.750000 0.139024
O O7 0.783457 0.830780 0.092696
O O8 0.499344 0.130703 0.503997
#
# Coordination Sequence:
#
# PCOD8283727 Si02
#       6
#     4   8   8   8  16  16
#     4  12  26  46  84 110 154 200 258 322 392 464
#     4  12  27  43  78 118 158 199 245 324 388 476
#     4  12  25  49  72 122 160 194 258 322 404 466
#     4  12  25  49  76 112 156 203 263 314 396 452
#     4  12  28  49  78 113 154 208 254 321 390 459
#     4  12  29  51  78 109 156 204 264 321 376 462
#
# _framework density 22.943759
#
# number of rings (size 3 to 8) (size 9 to 14) (size 15 to 20)
#    0.000    0.000    5.333    3.200    7.467    1.067 
#    0.000    0.000    0.000    0.000    0.000    0.000 
#    0.000    0.000    0.000    0.000    0.000    0.000 
#
# Total GULP energy -371905.429350 kJ/mol
# GULP energy per Si atom -12396.847645 kJ/mol
# Density = 2.289154 g / cm^3
# Si number density = 22.943759 Si / 1000 Ang^3
#
#
#
# Elastic Constant Matrix: (Units=GPa)
#
#
# Indices 1 2 3 4 5 6 
#
# 1 133.4582 32.6680 53.1133 0.0000 0.0000 0.0000
# 2 32.6680 160.0739 63.5029 0.0000 0.0000 0.0000
# 3 53.1133 63.5029 129.3090 0.0000 0.0000 0.0000
# 4 0.0000 0.0000 0.0000 1260.0077 0.0000 0.0000
# 5 0.0000 0.0000 0.0000 0.0000 59.7873 0.0000
# 6 0.0000 0.0000 0.0000 0.0000 0.0000 46.5318
#
#
#
# Elastic Compliance Matrix: (Units=1/GPa)
#
#
# Indices 1 2 3 4 5 6 
#
# 1 0.008984 -0.000459 -0.003465 0.000000 0.000000 0.000000
# 2 -0.000459 0.007782 -0.003633 0.000000 0.000000 0.000000
# 3 -0.003465 -0.003633 0.010941 0.000000 0.000000 0.000000
# 4 0.000000 0.000000 0.000000 0.000794 0.000000 0.000000
# 5 0.000000 0.000000 0.000000 0.000000 0.016726 0.000000
# 6 0.000000 0.000000 0.000000 0.000000 0.000000 0.021491
#
#
# Mechanical properties :
#
#
# Convention : Reuss Voigt Hill
#
# Bulk Modulus (GPa) = 79.40851 80.15661 79.78256
# Shear Modulus (GPa) = 58.11969 291.50249 174.81109
#
# Velocity S-wave (km/s) = 5.03849 11.28391 8.73822
# Velocity P-wave (km/s) = 8.27851 14.31017 11.69005
#
# Compressibility (1/GPa) = 0.01259311
#
# Stress axis : x y z
#
# Youngs Moduli (GPa) = 111.30570 128.49973 91.40056
#
# Poissons Ratio (x) = 0.05898 0.31669
# Poissons Ratio (y) = 0.05109 0.33208
# Poissons Ratio (z) = 0.38566 0.46687
#
# Static dielectric constant tensor:
#      x y z
#    x 4.292420 0.000000 0.000000 
#    y 0.000000 4.435180 0.000000 
#    z 0.000000 0.000000 4.417070 
# 
# 
# High freq. dielectric constant tensor:
#      x y z
#    x 1.906600 0.000000 0.000000 
#    y 0.000000 1.929840 0.000000 
#    z 0.000000 0.000000 1.922150 
# 
# From -- ./inp_files/34986.got.cif
#   From: 2010.03.12/outbox.cif.g09.slc.cpg/sg68_18_cif.got.tgz:34986.got - 2010.04.10 23:14:56.
