data_PCOD8283333
_publ_section_title
;
Structure prediction by ZEFSAII (Michael W. Deem and Ramdas Pophale) SiO2 
 PCOD8283333
Probable space group: C C C A
;
_chemical_formula_sum "Si O2"
_cell_formula_units_Z 112
_cell_length_a 17.952902
_cell_length_b 21.915853
_cell_length_c 16.862041
_cell_angle_alpha 90.000000
_cell_angle_beta 90.000000
_cell_angle_gamma 90.000000
_cell_volume 6634.423335
_symmetry_space_group_name_H-M "C C C A"
_symmetry_group_IT_number 68
_space_group.IT_coordinate_system_code '2'
_symmetry_cell_setting 'orthorhombic'
loop_
_space_group_symop_operation_xyz
x,y,z
-x,1/2-y,z
x,1/2-y,1/2-z
-x,y,1/2-z
-x,-y,-z
x,1/2+y,-z
-x,1/2+y,1/2+z
x,-y,1/2+z
1/2+x,1/2+y,z
1/2-x,-y,z
1/2+x,-y,1/2-z
1/2-x,1/2+y,1/2-z
1/2-x,1/2-y,-z
1/2+x,y,-z
1/2-x,y,1/2+z
1/2+x,1/2-y,1/2+z
loop_
_atom_site_type_symbol
_atom_site_label
_atom_site_fract_x
_atom_site_fract_y
_atom_site_fract_z
Si Si1 0.882579 0.103662 0.608959
Si Si2 0.425708 0.967974 0.105645
Si Si3 0.413965 0.260153 0.156971
Si Si4 0.027887 0.578930 0.492344
Si Si5 0.919385 0.064377 0.770529
Si Si6 0.782504 0.068074 0.468671
Si Si7 0.354451 0.356606 0.411681
O O1 0.884287 0.174078 0.632976
O O2 0.872909 0.062890 0.688924
O O3 0.811838 0.088999 0.554463
O O4 0.959360 0.086104 0.567602
O O5 0.348832 0.931179 0.096289
O O6 0.426568 0.018718 0.034993
O O7 0.430961 0.996157 0.193642
O O8 0.497401 0.925262 0.083334
O O9 0.500000 0.250000 0.131280
O O10 0.404798 0.250000 0.250000
O O11 0.357963 0.214299 0.110805
O O12 0.086137 0.634120 0.483657
O O13 0.878842 0.105168 0.834948
O O14 0.000000 0.093904 0.750000
O O15 0.725779 0.119965 0.439219
O O16 0.750000 0.000000 0.473578
#
# Coordination Sequence:
#
# PCOD8283333 Si02
#       7
#    16  16  16  16  16  16  16
#     4  11  21  33  51  83 107 134 181 225 269 321
#     4   9  18  30  52  70 108 140 175 207 264 315
#     4  11  20  32  55  84 107 132 175 239 283 314
#     4   9  16  30  51  76 100 137 176 213 252 317
#     4  11  17  30  53  81 102 132 177 227 268 308
#     4  11  22  37  50  72 110 154 175 209 269 336
#     4  11  20  33  55  75 111 142 178 215 282 327
#
# _framework density 16.881647999999998
#
# number of rings (size 3 to 8) (size 9 to 14) (size 15 to 20)
#    0.000    1.571    8.571    0.000    0.000    0.571 
#    2.571    0.000    0.000    0.000    0.000    0.000 
#    0.000    0.000    0.000    3.857    0.000    0.000 
#
# Total GULP energy -693963.872014 kJ/mol
# GULP energy per Si atom -12392.212000 kJ/mol
# Density = 1.684322 g / cm^3
# Si number density = 16.881648 Si / 1000 Ang^3
#
#
#
# Elastic Constant Matrix: (Units=GPa)
#
#
# Indices 1 2 3 4 5 6 
#
# 1 90.2828 28.9350 40.4659 0.0000 0.0000 0.0000
# 2 28.9350 70.5979 36.9650 0.0000 0.0000 0.0000
# 3 40.4659 36.9650 82.8561 0.0000 0.0000 0.0000
# 4 0.0000 0.0000 0.0000 25.9533 0.0000 0.0000
# 5 0.0000 0.0000 0.0000 0.0000 24.9365 0.0000
# 6 0.0000 0.0000 0.0000 0.0000 0.0000 21.5053
#
#
#
# Elastic Compliance Matrix: (Units=1/GPa)
#
#
# Indices 1 2 3 4 5 6 
#
# 1 0.014635 -0.002943 -0.005834 0.000000 0.000000 0.000000
# 2 -0.002943 0.019074 -0.007072 0.000000 0.000000 0.000000
# 3 -0.005834 -0.007072 0.018074 0.000000 0.000000 0.000000
# 4 0.000000 0.000000 0.000000 0.038531 0.000000 0.000000
# 5 0.000000 0.000000 0.000000 0.000000 0.040102 0.000000
# 6 0.000000 0.000000 0.000000 0.000000 0.000000 0.046500
#
#
# Mechanical properties :
#
#
# Convention : Reuss Voigt Hill
#
# Bulk Modulus (GPa) = 49.79358 50.71874 50.25616
# Shear Modulus (GPa) = 23.22248 23.63708 23.42978
#
# Velocity S-wave (km/s) = 3.71294 3.74594 3.72947
# Velocity P-wave (km/s) = 6.92394 6.98701 6.95555
#
# Compressibility (1/GPa) = 0.02008291
#
# Stress axis : x y z
#
# Youngs Moduli (GPa) = 68.33124 52.42740 55.32918
#
# Poissons Ratio (x) = 0.15431 0.32281
# Poissons Ratio (y) = 0.20112 0.39130
# Poissons Ratio (z) = 0.39866 0.37077
#
# Static dielectric constant tensor:
#      x y z
#    x 3.204390 0.000000 0.000000 
#    y 0.000000 3.229560 0.000000 
#    z 0.000000 0.000000 3.367650 
# 
# 
# High freq. dielectric constant tensor:
#      x y z
#    x 1.642300 0.000000 0.000000 
#    y 0.000000 1.629780 0.000000 
#    z 0.000000 0.000000 1.636270 
# 
# From -- ./inp_files/32353.got.cif
#   From: 2010.03.12/outbox.cif.g09.slc.cpg/sg68_17_cif.got.tgz:32353.got - 2010.04.10 23:14:56.
