data_PCOD8283300
_publ_section_title
;
Structure prediction by ZEFSAII (Michael W. Deem and Ramdas Pophale) SiO2 
 PCOD8283300
Probable space group: C C C A
;
_chemical_formula_sum "Si O2"
_cell_formula_units_Z 96
_cell_length_a 19.442210
_cell_length_b 15.702566
_cell_length_c 13.905245
_cell_angle_alpha 90.000000
_cell_angle_beta 90.000000
_cell_angle_gamma 90.000000
_cell_volume 4245.168201
_symmetry_space_group_name_H-M "C C C A"
_symmetry_group_IT_number 68
_space_group.IT_coordinate_system_code '2'
_symmetry_cell_setting 'orthorhombic'
loop_
_space_group_symop_operation_xyz
x,y,z
-x,1/2-y,z
x,1/2-y,1/2-z
-x,y,1/2-z
-x,-y,-z
x,1/2+y,-z
-x,1/2+y,1/2+z
x,-y,1/2+z
1/2+x,1/2+y,z
1/2-x,-y,z
1/2+x,-y,1/2-z
1/2-x,1/2+y,1/2-z
1/2-x,1/2-y,-z
1/2+x,y,-z
1/2-x,y,1/2+z
1/2+x,1/2-y,1/2+z
loop_
_atom_site_type_symbol
_atom_site_label
_atom_site_fract_x
_atom_site_fract_y
_atom_site_fract_z
Si Si1 0.374556 0.238740 0.144794
Si Si2 0.825621 0.907630 0.043098
Si Si3 0.267473 0.645096 0.353863
Si Si4 0.379729 0.250000 0.750000
Si Si5 0.040304 0.429406 0.443926
Si Si6 0.250000 0.500000 0.204294
Si Si7 0.000000 0.876728 0.750000
Si Si8 0.500000 0.750000 0.521160
O O1 0.406138 0.250000 0.250000
O O2 0.349237 0.323870 0.095882
O O3 0.309726 0.177231 0.158076
O O4 0.438904 0.205682 0.082797
O O5 0.808737 0.971092 0.129841
O O6 0.766338 0.887232 0.964655
O O7 0.882197 0.949056 0.973671
O O8 0.328362 0.715537 0.335190
O O9 0.280001 0.573967 0.272047
O O10 0.432966 0.322724 0.713023
O O11 0.026080 0.328652 0.458276
O O12 0.000000 0.500000 0.500000
O O13 0.026337 0.441663 0.331558
#
# Coordination Sequence:
#
# PCOD8283300 Si02
#       8
#    16  16  16   8  16   8   8   8
#     4  11  22  46  70 100 136 186 239 291 364 435
#     4  11  25  45  67 106 142 184 243 304 365 442
#     4  12  24  44  72 104 138 189 240 299 371 437
#     4  11  22  42  76  99 136 180 240 303 360 430
#     4  11  26  47  71 106 143 191 245 302 371 433
#     4  12  26  44  66 100 152 186 236 300 370 438
#     4  11  24  46  74 101 138 184 244 303 362 435
#     4  10  25  45  74 102 146 192 242 298 358 446
#
# _framework density 22.613945000000001
#
# number of rings (size 3 to 8) (size 9 to 14) (size 15 to 20)
#    0.000    0.833    4.167    2.250    4.667    2.667 
#    6.000    0.000    0.000    0.000    0.000    0.000 
#    0.000    0.000    0.000    0.000    0.000    0.000 
#
# Total GULP energy -594692.097416 kJ/mol
# GULP energy per Si atom -12389.418696 kJ/mol
# Density = 2.256247 g / cm^3
# Si number density = 22.613945 Si / 1000 Ang^3
#
#
#
# Elastic Constant Matrix: (Units=GPa)
#
#
# Indices 1 2 3 4 5 6 
#
# 1 92.6769 15.1884 24.2919 0.0000 0.0000 0.0000
# 2 15.1884 62.0474 27.1195 0.0000 0.0000 0.0000
# 3 24.2919 27.1195 145.1801 0.0000 0.0000 0.0000
# 4 0.0000 0.0000 0.0000 73.5392 0.0000 0.0000
# 5 0.0000 0.0000 0.0000 0.0000 43.3907 0.0000
# 6 0.0000 0.0000 0.0000 0.0000 0.0000 -10.4112
#
#
#
# Elastic Compliance Matrix: (Units=1/GPa)
#
#
# Indices 1 2 3 4 5 6 
#
# 1 0.011544 -0.002158 -0.001529 0.000000 0.000000 0.000000
# 2 -0.002158 0.017953 -0.002993 0.000000 0.000000 0.000000
# 3 -0.001529 -0.002993 0.007703 0.000000 0.000000 0.000000
# 4 0.000000 0.000000 0.000000 0.013598 0.000000 0.000000
# 5 0.000000 0.000000 0.000000 0.000000 0.023046 0.000000
# 6 0.000000 0.000000 0.000000 0.000000 0.000000 -0.096050
#
#
# Mechanical properties :
#
#
# Convention : Reuss Voigt Hill
#
# Bulk Modulus (GPa) = 41.94232 48.12265 45.03249
# Shear Modulus (GPa) = -5554.83899 36.85739 -2758.99080
#
# Velocity S-wave (km/s) = -49.61563 4.04152 -34.96696
# Velocity P-wave (km/s) = 57.12874 6.56543 40.12847
#
# Compressibility (1/GPa) = 0.02384227
#
# Stress axis : x y z
#
# Youngs Moduli (GPa) = 86.62158 55.70137 129.82360
#
# Poissons Ratio (x) = 0.12019 0.19844
# Poissons Ratio (y) = 0.18691 0.38850
# Poissons Ratio (z) = 0.13241 0.16669
#
# Static dielectric constant tensor:
#      x y z
#    x 4.751100 0.000000 0.000000 
#    y 0.000000 3.937920 0.000000 
#    z 0.000000 0.000000 4.332100 
# 
# 
# High freq. dielectric constant tensor:
#      x y z
#    x 1.900790 0.000000 0.000000 
#    y 0.000000 1.872290 0.000000 
#    z 0.000000 0.000000 1.908800 
# 
# From -- ./inp_files/24518.got.cif
#   From: 2010.03.12/outbox.cif.g09.slc.cpg/sg68_13_cif.got.tgz:24518.got - 2010.04.10 23:14:56.
