data_PCOD8283568
_publ_section_title
;
Structure prediction by ZEFSAII (Michael W. Deem and Ramdas Pophale) SiO2 
 PCOD8283568
Probable space group: C C C A
;
_chemical_formula_sum "Si O2"
_cell_formula_units_Z 48
_cell_length_a 11.552404
_cell_length_b 10.069721
_cell_length_c 19.606014
_cell_angle_alpha 90.000000
_cell_angle_beta 90.000000
_cell_angle_gamma 90.000000
_cell_volume 2280.757515
_symmetry_space_group_name_H-M "C C C A"
_symmetry_group_IT_number 68
_space_group.IT_coordinate_system_code '2'
_symmetry_cell_setting 'orthorhombic'
loop_
_space_group_symop_operation_xyz
x,y,z
-x,1/2-y,z
x,1/2-y,1/2-z
-x,y,1/2-z
-x,-y,-z
x,1/2+y,-z
-x,1/2+y,1/2+z
x,-y,1/2+z
1/2+x,1/2+y,z
1/2-x,-y,z
1/2+x,-y,1/2-z
1/2-x,1/2+y,1/2-z
1/2-x,1/2-y,-z
1/2+x,y,-z
1/2-x,y,1/2+z
1/2+x,1/2-y,1/2+z
loop_
_atom_site_type_symbol
_atom_site_label
_atom_site_fract_x
_atom_site_fract_y
_atom_site_fract_z
Si Si1 0.120745 0.824609 0.188765
Si Si2 0.000000 0.750000 0.865449
Si Si3 0.722442 0.150486 0.939537
Si Si4 0.000000 0.939245 0.750000
O O1 0.188337 0.750000 0.250000
O O2 0.192949 0.815546 0.121346
O O3 0.000000 0.750000 0.175275
O O4 0.100678 0.975371 0.213621
O O5 0.091575 0.675651 0.914389
O O6 0.942644 0.644438 0.812463
O O7 0.750000 0.000000 0.963965
O O8 0.750000 0.250000 0.000000
#
# Coordination Sequence:
#
# PCOD8283568 Si02
#       4
#    16   8  16   8
#     4   9  21  42  70 101 133 174 235 301 365 418
#     4  11  24  42  72 104 133 184 246 300 373 426
#     4  12  28  45  68 100 147 194 238 296 360 450
#     4   9  19  42  72 102 133 171 236 318 348 431
#
# _framework density 21.045639999999999
#
# number of rings (size 3 to 8) (size 9 to 14) (size 15 to 20)
#    0.000    2.000    3.333    0.000    7.000    6.667 
#    0.000    0.000    0.000    0.000    0.000    0.000 
#    0.000    0.000    0.000    0.000    0.000    0.000 
#
# Total GULP energy -297377.337568 kJ/mol
# GULP energy per Si atom -12390.722399 kJ/mol
# Density = 2.099774 g / cm^3
# Si number density = 21.045640 Si / 1000 Ang^3
#
#
#
# Elastic Constant Matrix: (Units=GPa)
#
#
# Indices 1 2 3 4 5 6 
#
# 1 87.4188 46.1439 58.5060 0.0000 0.0000 0.0000
# 2 46.1439 161.5944 82.9043 0.0000 0.0000 0.0000
# 3 58.5060 82.9043 167.0122 0.0000 0.0000 0.0000
# 4 0.0000 0.0000 0.0000 42.6430 0.0000 0.0000
# 5 0.0000 0.0000 0.0000 0.0000 30.1003 0.0000
# 6 0.0000 0.0000 0.0000 0.0000 0.0000 17.8090
#
#
#
# Elastic Compliance Matrix: (Units=1/GPa)
#
#
# Indices 1 2 3 4 5 6 
#
# 1 0.015505 -0.002202 -0.004339 0.000000 0.000000 0.000000
# 2 -0.002202 0.008615 -0.003505 0.000000 0.000000 0.000000
# 3 -0.004339 -0.003505 0.009248 0.000000 0.000000 0.000000
# 4 0.000000 0.000000 0.000000 0.023451 0.000000 0.000000
# 5 0.000000 0.000000 0.000000 0.000000 0.033222 0.000000
# 6 0.000000 0.000000 0.000000 0.000000 0.000000 0.056151
#
#
# Mechanical properties :
#
#
# Convention : Reuss Voigt Hill
#
# Bulk Modulus (GPa) = 75.32067 87.90375 81.61221
# Shear Modulus (GPa) = 29.28960 33.34188 31.31574
#
# Velocity S-wave (km/s) = 3.73462 3.98460 3.86163
# Velocity P-wave (km/s) = 7.37993 7.93903 7.66458
#
# Compressibility (1/GPa) = 0.01327657
#
# Stress axis : x y z
#
# Youngs Moduli (GPa) = 64.49525 116.07080 108.13668
#
# Poissons Ratio (x) = 0.25554 0.46917
# Poissons Ratio (y) = 0.14199 0.37907
# Poissons Ratio (z) = 0.27983 0.40688
#
# Static dielectric constant tensor:
#      x y z
#    x 3.502970 0.000000 0.000000 
#    y 0.000000 4.222860 0.000000 
#    z 0.000000 0.000000 3.947350 
# 
# 
# High freq. dielectric constant tensor:
#      x y z
#    x 1.801710 0.000000 0.000000 
#    y 0.000000 1.845920 0.000000 
#    z 0.000000 0.000000 1.833790 
# 
# From -- ./inp_files/28836.got.cif
#   From: 2010.03.12/outbox.cif.g09.slc.cpg/sg68_15_cif.got.tgz:28836.got - 2010.04.10 23:14:56.
