data_PCOD8283398
_publ_section_title
;
Structure prediction by ZEFSAII (Michael W. Deem and Ramdas Pophale) SiO2 
 PCOD8283398
Probable space group: C C C A
;
_chemical_formula_sum "Si O2"
_cell_formula_units_Z 116
_cell_length_a 29.206354
_cell_length_b 17.557395
_cell_length_c 11.347452
_cell_angle_alpha 90.000000
_cell_angle_beta 90.000000
_cell_angle_gamma 90.000000
_cell_volume 5818.831471
_symmetry_space_group_name_H-M "C C C A"
_symmetry_group_IT_number 68
_space_group.IT_coordinate_system_code '2'
_symmetry_cell_setting 'orthorhombic'
loop_
_space_group_symop_operation_xyz
x,y,z
-x,1/2-y,z
x,1/2-y,1/2-z
-x,y,1/2-z
-x,-y,-z
x,1/2+y,-z
-x,1/2+y,1/2+z
x,-y,1/2+z
1/2+x,1/2+y,z
1/2-x,-y,z
1/2+x,-y,1/2-z
1/2-x,1/2+y,1/2-z
1/2-x,1/2-y,-z
1/2+x,y,-z
1/2-x,y,1/2+z
1/2+x,1/2-y,1/2+z
loop_
_atom_site_type_symbol
_atom_site_label
_atom_site_fract_x
_atom_site_fract_y
_atom_site_fract_z
Si Si1 0.848000 0.088560 0.638249
Si Si2 0.210952 0.176959 0.677605
Si Si3 0.132512 0.079556 0.297992
Si Si4 0.049755 0.832463 0.701283
Si Si5 0.000000 0.250000 0.750000
Si Si6 0.930429 0.193326 0.561486
Si Si7 0.308970 0.866507 0.098392
Si Si8 0.646157 0.284992 0.970096
O O1 0.820065 0.116446 0.752321
O O2 0.892368 0.138956 0.615427
O O3 0.813418 0.094377 0.528762
O O4 0.867999 0.004314 0.649276
O O5 0.227713 0.250000 0.750000
O O6 0.255512 0.137844 0.624624
O O7 0.182193 0.212563 0.573516
O O8 0.082834 0.101661 0.248197
O O9 0.169524 0.077764 0.194485
O O10 0.148152 0.137572 0.398670
O O11 0.067107 0.750000 0.750000
O O12 0.046871 0.837259 0.559195
O O13 0.000000 0.850732 0.750000
O O14 0.968483 0.200413 0.662887
O O15 0.904717 0.272136 0.525074
O O16 0.338067 0.787585 0.108625
#
# Coordination Sequence:
#
# PCOD8283398 Si02
#       8
#    16  16  16  16   4  16  16  16
#     4  11  27  45  63  97 141 177 215 271 339 404
#     4  12  23  41  70  98 131 175 230 276 320 387
#     4  12  24  44  67  95 138 176 215 271 347 383
#     4  11  21  41  73 103 123 166 226 280 325 396
#     4  12  24  40  70 104 128 172 222 282 324 396
#     4  11  22  44  67  97 135 169 222 274 328 399
#     4  11  24  44  66  97 129 175 228 278 312 392
#     4  11  22  41  72  95 128 179 223 270 328 387
#
# _framework density 19.935274
#
# number of rings (size 3 to 8) (size 9 to 14) (size 15 to 20)
#    0.000    0.690    6.897    3.310    3.862    0.552 
#    1.241    0.690    0.000    0.000    0.000    0.000 
#    0.000    0.000    0.000    0.000    0.000    0.000 
#
# Total GULP energy -719281.510969 kJ/mol
# GULP energy per Si atom -12401.405362 kJ/mol
# Density = 1.988990 g / cm^3
# Si number density = 19.935274 Si / 1000 Ang^3
#
#
#
# Elastic Constant Matrix: (Units=GPa)
#
#
# Indices 1 2 3 4 5 6 
#
# 1 139.5274 31.1182 61.3781 0.0000 0.0000 0.0000
# 2 31.1182 97.5283 37.0572 0.0000 0.0000 0.0000
# 3 61.3781 37.0572 108.7681 0.0000 0.0000 0.0000
# 4 0.0000 0.0000 0.0000 26.9392 0.0000 0.0000
# 5 0.0000 0.0000 0.0000 0.0000 57.0680 0.0000
# 6 0.0000 0.0000 0.0000 0.0000 0.0000 -7.8140
#
#
#
# Elastic Compliance Matrix: (Units=1/GPa)
#
#
# Indices 1 2 3 4 5 6 
#
# 1 0.009647 -0.001160 -0.005048 0.000000 0.000000 0.000000
# 2 -0.001160 0.011918 -0.003406 0.000000 0.000000 0.000000
# 3 -0.005048 -0.003406 0.013203 0.000000 0.000000 0.000000
# 4 0.000000 0.000000 0.000000 0.037121 0.000000 0.000000
# 5 0.000000 0.000000 0.000000 0.000000 0.017523 0.000000
# 6 0.000000 0.000000 0.000000 0.000000 0.000000 -0.127975
#
#
# Mechanical properties :
#
#
# Convention : Reuss Voigt Hill
#
# Bulk Modulus (GPa) = 64.35360 67.21453 65.78406
# Shear Modulus (GPa) = -353.18607 29.65665 -161.76471
#
# Velocity S-wave (km/s) = -13.32483 3.86119 -9.01782
# Velocity P-wave (km/s) = 14.29627 7.32584 8.68088
#
# Compressibility (1/GPa) = 0.01553915
#
# Stress axis : x y z
#
# Youngs Moduli (GPa) = 103.66454 83.90977 75.73969
#
# Poissons Ratio (x) = 0.09731 0.38237
# Poissons Ratio (y) = 0.12022 0.25796
# Poissons Ratio (z) = 0.52335 0.28579
#
# Static dielectric constant tensor:
#      x y z
#    x 3.712390 0.000000 0.000000 
#    y 0.000000 3.426590 0.000000 
#    z 0.000000 0.000000 3.900830 
# 
# 
# High freq. dielectric constant tensor:
#      x y z
#    x 1.787290 0.000000 0.000000 
#    y 0.000000 1.750900 0.000000 
#    z 0.000000 0.000000 1.798840 
# 
# From -- ./inp_files/17864.got.cif
#   From: 2010.03.12/outbox.cif.g09.slc.cpg/sg68_9_cif.got.tgz:17864.got - 2010.04.10 23:14:56.
