data_PCOD8283135
_publ_section_title
;
Structure prediction by ZEFSAII (Michael W. Deem and Ramdas Pophale) SiO2 
 PCOD8283135
Probable space group: C C C A
;
_chemical_formula_sum "Si O2"
_cell_formula_units_Z 104
_cell_length_a 24.385389
_cell_length_b 9.438018
_cell_length_c 21.184297
_cell_angle_alpha 90.000000
_cell_angle_beta 90.000000
_cell_angle_gamma 90.000000
_cell_volume 4875.560453
_symmetry_space_group_name_H-M "C C C A"
_symmetry_group_IT_number 68
_space_group.IT_coordinate_system_code '2'
_symmetry_cell_setting 'orthorhombic'
loop_
_space_group_symop_operation_xyz
x,y,z
-x,1/2-y,z
x,1/2-y,1/2-z
-x,y,1/2-z
-x,-y,-z
x,1/2+y,-z
-x,1/2+y,1/2+z
x,-y,1/2+z
1/2+x,1/2+y,z
1/2-x,-y,z
1/2+x,-y,1/2-z
1/2-x,1/2+y,1/2-z
1/2-x,1/2-y,-z
1/2+x,y,-z
1/2-x,y,1/2+z
1/2+x,1/2-y,1/2+z
loop_
_atom_site_type_symbol
_atom_site_label
_atom_site_fract_x
_atom_site_fract_y
_atom_site_fract_z
Si Si1 0.414629 0.196204 0.895554
Si Si2 0.000000 0.750000 0.499996
Si Si3 0.451944 0.089452 0.387318
Si Si4 0.461696 0.928032 0.189524
Si Si5 0.113471 0.682740 0.314837
Si Si6 0.317565 0.854019 0.045330
Si Si7 0.807193 0.332525 0.570741
O O1 0.444387 0.272339 0.835960
O O2 0.359222 0.280958 0.906918
O O3 0.403392 0.029441 0.881302
O O4 0.453364 0.182582 0.956594
O O5 0.966865 0.636568 0.457981
O O6 0.506710 0.011596 0.364667
O O7 0.435991 0.225097 0.345177
O O8 0.500000 0.910850 0.250000
O O9 0.407849 0.024755 0.201845
O O10 0.134379 0.750000 0.250000
O O11 0.165763 0.683211 0.360983
O O12 0.258283 0.825850 0.075994
O O13 0.328157 0.021179 0.039715
O O14 0.326173 0.793601 0.975098
#
# Coordination Sequence:
#
# PCOD8283135 Si02
#       7
#    16   8  16  16  16  16  16
#     4  12  26  40  65  98 135 176 219 280 335 397
#     4  12  24  38  62  98 136 172 218 264 336 400
#     4  12  25  40  62  96 135 172 216 272 326 401
#     4  12  24  46  63  92 133 182 222 266 324 399
#     4  12  24  44  71  93 128 180 228 267 326 402
#     4  10  23  43  73 100 134 169 223 275 352 396
#     4  10  23  45  71 101 133 174 219 286 336 410
#
# _framework density 21.330881000000002
#
# number of rings (size 3 to 8) (size 9 to 14) (size 15 to 20)
#    0.000    0.615    6.154    1.385    4.308    1.231 
#    0.000    0.000   10.154    0.000    0.000    0.000 
#    0.000    0.000    0.000    0.000    0.000    0.000 
#
# Total GULP energy -644753.550415 kJ/mol
# GULP energy per Si atom -12399.106739 kJ/mol
# Density = 2.128233 g / cm^3
# Si number density = 21.330881 Si / 1000 Ang^3
#
#
#
# Elastic Constant Matrix: (Units=GPa)
#
#
# Indices 1 2 3 4 5 6 
#
# 1 79.3266 33.8401 42.8260 0.0000 0.0000 0.0000
# 2 33.8401 144.1827 51.8351 0.0000 0.0000 0.0000
# 3 42.8260 51.8351 139.5436 0.0000 0.0000 0.0000
# 4 0.0000 0.0000 0.0000 25.7194 0.0000 0.0000
# 5 0.0000 0.0000 0.0000 0.0000 29.4451 0.0000
# 6 0.0000 0.0000 0.0000 0.0000 0.0000 29.4285
#
#
#
# Elastic Compliance Matrix: (Units=1/GPa)
#
#
# Indices 1 2 3 4 5 6 
#
# 1 0.015721 -0.002257 -0.003987 0.000000 0.000000 0.000000
# 2 -0.002257 0.008329 -0.002401 0.000000 0.000000 0.000000
# 3 -0.003987 -0.002401 0.009282 0.000000 0.000000 0.000000
# 4 0.000000 0.000000 0.000000 0.038881 0.000000 0.000000
# 5 0.000000 0.000000 0.000000 0.000000 0.033962 0.000000
# 6 0.000000 0.000000 0.000000 0.000000 0.000000 0.033981
#
#
# Mechanical properties :
#
#
# Convention : Reuss Voigt Hill
#
# Bulk Modulus (GPa) = 62.33429 68.89505 65.61467
# Shear Modulus (GPa) = 30.71432 32.55538 31.63485
#
# Velocity S-wave (km/s) = 3.79872 3.91091 3.85522
# Velocity P-wave (km/s) = 6.96608 7.26375 7.11647
#
# Compressibility (1/GPa) = 0.01604253
#
# Stress axis : x y z
#
# Youngs Moduli (GPa) = 63.60939 120.06944 107.73957
#
# Poissons Ratio (x) = 0.27094 0.42951
# Poissons Ratio (y) = 0.14354 0.25870
# Poissons Ratio (z) = 0.25358 0.28831
#
# Static dielectric constant tensor:
#      x y z
#    x 3.719760 0.000000 0.000000 
#    y 0.000000 4.392990 0.000000 
#    z 0.000000 0.000000 3.762200 
# 
# 
# High freq. dielectric constant tensor:
#      x y z
#    x 1.817140 0.000000 0.000000 
#    y 0.000000 1.861100 0.000000 
#    z 0.000000 0.000000 1.831260 
# 
# From -- ./inp_files/41313.got.cif
#   From: 2010.03.12/outbox.cif.g09.slc.cpg/sg68_21_cif.got.tgz:41313.got - 2010.04.10 23:14:56.
