data_PCOD8283093
_publ_section_title
;
Structure prediction by ZEFSAII (Michael W. Deem and Ramdas Pophale) SiO2 
 PCOD8283093
Probable space group: C C C A
;
_chemical_formula_sum "Si O2"
_cell_formula_units_Z 80
_cell_length_a 25.186589
_cell_length_b 29.222446
_cell_length_c 5.177636
_cell_angle_alpha 90.000000
_cell_angle_beta 90.000000
_cell_angle_gamma 90.000000
_cell_volume 3810.811221
_symmetry_space_group_name_H-M "C C C A"
_symmetry_group_IT_number 68
_space_group.IT_coordinate_system_code '2'
_symmetry_cell_setting 'orthorhombic'
loop_
_space_group_symop_operation_xyz
x,y,z
-x,1/2-y,z
x,1/2-y,1/2-z
-x,y,1/2-z
-x,-y,-z
x,1/2+y,-z
-x,1/2+y,1/2+z
x,-y,1/2+z
1/2+x,1/2+y,z
1/2-x,-y,z
1/2+x,-y,1/2-z
1/2-x,1/2+y,1/2-z
1/2-x,1/2-y,-z
1/2+x,y,-z
1/2-x,y,1/2+z
1/2+x,1/2-y,1/2+z
loop_
_atom_site_type_symbol
_atom_site_label
_atom_site_fract_x
_atom_site_fract_y
_atom_site_fract_z
Si Si1 0.716990 0.649909 0.775943
Si Si2 0.439523 0.981091 0.546375
Si Si3 0.896799 0.114599 0.762742
Si Si4 0.829428 0.750000 0.250000
Si Si5 0.600875 0.750000 0.250000
Si Si6 0.440486 0.654980 0.252586
O O1 0.758149 0.637646 0.551677
O O2 0.666982 0.615836 0.730723
O O3 0.704931 0.704168 0.786492
O O4 0.429456 0.929938 0.643109
O O5 0.500000 0.000000 0.500000
O O6 0.411800 0.012738 0.767439
O O7 0.911230 0.124987 0.467842
O O8 0.915371 0.152368 0.967772
O O9 0.863189 0.760203 0.503792
O O10 0.563091 0.791999 0.327073
O O11 0.500000 0.637022 0.250000
#
# Coordination Sequence:
#
# PCOD8283093 Si02
#       6
#    16  16  16   8   8  16
#     4  12  24  42  67  96 133 182 229 286 340 388
#     4  10  23  41  68  99 132 165 208 273 347 416
#     4  12  25  44  66 100 136 172 224 285 336 412
#     4  12  22  41  65  93 134 179 239 291 330 372
#     4  12  21  43  58  91 140 185 226 273 327 394
#     4  12  25  39  65  93 137 188 221 266 334 405
#
# _framework density 20.992906999999999
#
# number of rings (size 3 to 8) (size 9 to 14) (size 15 to 20)
#    0.000    0.400    4.000    5.100    8.400    0.000 
#    0.000    3.000    0.000    3.600    0.000    0.000 
#    0.000    0.000    0.000    0.000    0.000    0.000 
#
# Total GULP energy -495583.554719 kJ/mol
# GULP energy per Si atom -12389.588868 kJ/mol
# Density = 2.094513 g / cm^3
# Si number density = 20.992907 Si / 1000 Ang^3
#
#
#
# Elastic Constant Matrix: (Units=GPa)
#
#
# Indices 1 2 3 4 5 6 
#
# 1 103.9371 27.6677 22.3228 0.0000 0.0000 0.0000
# 2 27.6677 100.5168 4.4801 0.0000 0.0000 0.0000
# 3 22.3228 4.4801 127.4534 0.0000 0.0000 0.0000
# 4 0.0000 0.0000 0.0000 25.1034 0.0000 0.0000
# 5 0.0000 0.0000 0.0000 0.0000 35.2263 0.0000
# 6 0.0000 0.0000 0.0000 0.0000 0.0000 32.0130
#
#
#
# Elastic Compliance Matrix: (Units=1/GPa)
#
#
# Indices 1 2 3 4 5 6 
#
# 1 0.010773 -0.002886 -0.001785 0.000000 0.000000 0.000000
# 2 -0.002886 0.010737 0.000128 0.000000 0.000000 0.000000
# 3 -0.001785 0.000128 0.008154 0.000000 0.000000 0.000000
# 4 0.000000 0.000000 0.000000 0.039835 0.000000 0.000000
# 5 0.000000 0.000000 0.000000 0.000000 0.028388 0.000000
# 6 0.000000 0.000000 0.000000 0.000000 0.000000 0.031237
#
#
# Mechanical properties :
#
#
# Convention : Reuss Voigt Hill
#
# Bulk Modulus (GPa) = 48.59544 48.98317 48.78931
# Shear Modulus (GPa) = 34.46610 36.96432 35.71521
#
# Velocity S-wave (km/s) = 4.05631 4.20074 4.12916
# Velocity P-wave (km/s) = 6.71840 6.84925 6.78414
#
# Compressibility (1/GPa) = 0.02057806
#
# Stress axis : x y z
#
# Youngs Moduli (GPa) = 92.82628 93.13427 122.63614
#
# Poissons Ratio (x) = 0.26876 0.21895
# Poissons Ratio (y) = 0.26787 -0.01570
# Poissons Ratio (z) = 0.16573 -0.01192
#
# Static dielectric constant tensor:
#      x y z
#    x 3.704450 0.000000 0.000000 
#    y 0.000000 3.781950 0.000000 
#    z 0.000000 0.000000 11.009560 
# 
# 
# High freq. dielectric constant tensor:
#      x y z
#    x 1.799130 0.000000 0.000000 
#    y 0.000000 1.806990 0.000000 
#    z 0.000000 0.000000 1.861560 
# 
# From -- ./inp_files/2406.got.cif
#   From: 2010.03.12/outbox.cif.g09.slc.cpg/sg68_2_cif.got.tgz:2406.got - 2010.04.10 23:14:56.
