data_PCOD8283815
_publ_section_title
;
Structure prediction by ZEFSAII (Michael W. Deem and Ramdas Pophale) SiO2 
 PCOD8283815
Probable space group: F M M M
;
_chemical_formula_sum "Si O2"
_cell_formula_units_Z 192
_cell_length_a 20.672332
_cell_length_b 19.401322
_cell_length_c 27.404426
_cell_angle_alpha 90.000000
_cell_angle_beta 90.000000
_cell_angle_gamma 90.000000
_cell_volume 10991.108746
_symmetry_space_group_name_H-M "F M M M"
_symmetry_group_IT_number 69
_symmetry_cell_setting 'orthorhombic'
loop_
_space_group_symop_operation_xyz
x,y,z
-x,-y,z
x,-y,-z
-x,y,-z
-x,-y,-z
x,y,-z
-x,y,z
x,-y,z
x,1/2+y,1/2+z
-x,1/2-y,1/2+z
x,1/2-y,1/2-z
-x,1/2+y,1/2-z
-x,1/2-y,1/2-z
x,1/2+y,1/2-z
-x,1/2+y,1/2+z
x,1/2-y,1/2+z
1/2+x,y,1/2+z
1/2-x,-y,1/2+z
1/2+x,-y,1/2-z
1/2-x,y,1/2-z
1/2-x,-y,1/2-z
1/2+x,y,1/2-z
1/2-x,y,1/2+z
1/2+x,-y,1/2+z
1/2+x,1/2+y,z
1/2-x,1/2-y,z
1/2+x,1/2-y,-z
1/2-x,1/2+y,-z
1/2-x,1/2-y,-z
1/2+x,1/2+y,-z
1/2-x,1/2+y,z
1/2+x,1/2-y,z
loop_
_atom_site_type_symbol
_atom_site_label
_atom_site_fract_x
_atom_site_fract_y
_atom_site_fract_z
Si Si1 0.074376 0.316894 0.220294
Si Si2 0.622225 0.186617 0.115141
Si Si3 0.256514 0.331780 0.444887
Si Si4 0.500000 0.849730 0.553904
Si Si5 0.573662 0.420068 0.804744
Si Si6 0.627857 0.150223 0.606318
Si Si7 0.500000 0.814446 0.055168
O O1 0.099866 0.250000 0.250000
O O2 0.116350 0.331797 0.172091
O O3 0.082223 0.384957 0.252387
O O4 0.000000 0.303067 0.204579
O O5 0.684998 0.150158 0.091764
O O6 0.625331 0.268494 0.112476
O O7 0.562434 0.157845 0.083756
O O8 0.269274 0.359309 0.500000
O O9 0.250000 0.250000 0.447126
O O10 0.192416 0.368769 0.423680
O O11 0.500000 0.879943 0.500000
O O12 0.435111 0.878308 0.578585
O O13 0.500000 0.767603 0.554105
O O14 0.500000 0.407111 0.823514
O O15 0.588980 0.500000 0.798280
O O16 0.626053 0.386756 0.841240
O O17 0.500000 0.843637 0.000000
#
# Coordination Sequence:
#
# PCOD8283815 Si02
#       7
#    32  32  32  16  32  32  16
#     4  10  18  29  51  76 102 133 173 220 260 311
#     4  10  17  28  47  74 101 135 171 208 259 311
#     4   9  18  30  46  70 104 136 167 211 262 307
#     4   9  16  24  42  68  92 126 173 208 246 299
#     4  10  20  33  51  76 105 137 172 213 260 309
#     4  10  17  29  48  69 100 138 171 208 255 304
#     4   9  16  24  40  70 103 127 159 207 257 307
#
# _framework density 17.468665000000001
#
# number of rings (size 3 to 8) (size 9 to 14) (size 15 to 20)
#    0.000    2.333    3.333    1.000    0.000    4.000 
#    0.000    0.833    0.000    4.500    0.000    0.000 
#    0.000    2.667    0.000    0.000    0.000    0.000 
#
# Total GULP energy -595069.738448 kJ/mol
# GULP energy per Si atom -12397.286218 kJ/mol
# Density = 1.742891 g / cm^3
# Si number density = 17.468665 Si / 1000 Ang^3
#
#
#
# Elastic Constant Matrix: (Units=GPa)
#
#
# Indices 1 2 3 4 5 6 
#
# 1 128.4986 26.0912 79.0113 0.0000 0.0000 0.0000
# 2 26.0912 34.0562 21.4834 0.0000 0.0000 0.0000
# 3 79.0113 21.4834 153.2655 0.0000 0.0000 0.0000
# 4 0.0000 0.0000 0.0000 10.4802 0.0000 0.0000
# 5 0.0000 0.0000 0.0000 0.0000 34.5787 0.0000
# 6 0.0000 0.0000 0.0000 0.0000 0.0000 10.0636
#
#
#
# Elastic Compliance Matrix: (Units=1/GPa)
#
#
# Indices 1 2 3 4 5 6 
#
# 1 0.012422 -0.006008 -0.005561 0.000000 0.000000 0.000000
# 2 -0.006008 0.035118 -0.001825 0.000000 0.000000 0.000000
# 3 -0.005561 -0.001825 0.009648 0.000000 0.000000 0.000000
# 4 0.000000 0.000000 0.000000 0.095418 0.000000 0.000000
# 5 0.000000 0.000000 0.000000 0.000000 0.028920 0.000000
# 6 0.000000 0.000000 0.000000 0.000000 0.000000 0.099368
#
#
# Mechanical properties :
#
#
# Convention : Reuss Voigt Hill
#
# Bulk Modulus (GPa) = 32.89775 63.22132 48.05954
# Shear Modulus (GPa) = 15.73245 23.64013 19.68629
#
# Velocity S-wave (km/s) = 3.00427 3.68270 3.36065
# Velocity P-wave (km/s) = 5.55945 7.37244 6.52918
#
# Compressibility (1/GPa) = 0.03039721
#
# Stress axis : x y z
#
# Youngs Moduli (GPa) = 80.50364 28.47569 103.65380
#
# Poissons Ratio (x) = 0.17109 0.57647
# Poissons Ratio (y) = 0.48369 0.18918
# Poissons Ratio (z) = 0.44772 0.05197
#
# Static dielectric constant tensor:
#      x y z
#    x 3.328820 0.000000 0.000000 
#    y 0.000000 2.656120 0.000000 
#    z 0.000000 0.000000 3.380670 
# 
# 
# High freq. dielectric constant tensor:
#      x y z
#    x 1.664100 0.000000 0.000000 
#    y 0.000000 1.610760 0.000000 
#    z 0.000000 0.000000 1.691320 
# 
# From -- ./inp_files/42805.got.cif
#   From: 2010.03.12/outbox.cif.g09.slc.cpg/sg69_22_cif.got.tgz:42805.got - 2010.04.10 23:52:46.
