data_PCOD8283343
_publ_section_title
;
Structure prediction by ZEFSAII (Michael W. Deem and Ramdas Pophale) SiO2 
 PCOD8283343
Probable space group: C C C A
;
_chemical_formula_sum "Si O2"
_cell_formula_units_Z 116
_cell_length_a 13.960809
_cell_length_b 22.042467
_cell_length_c 17.502616
_cell_angle_alpha 90.000000
_cell_angle_beta 90.000000
_cell_angle_gamma 90.000000
_cell_volume 5386.091778
_symmetry_space_group_name_H-M "C C C A"
_symmetry_group_IT_number 68
_space_group.IT_coordinate_system_code '2'
_symmetry_cell_setting 'orthorhombic'
loop_
_space_group_symop_operation_xyz
x,y,z
-x,1/2-y,z
x,1/2-y,1/2-z
-x,y,1/2-z
-x,-y,-z
x,1/2+y,-z
-x,1/2+y,1/2+z
x,-y,1/2+z
1/2+x,1/2+y,z
1/2-x,-y,z
1/2+x,-y,1/2-z
1/2-x,1/2+y,1/2-z
1/2-x,1/2-y,-z
1/2+x,y,-z
1/2-x,y,1/2+z
1/2+x,1/2-y,1/2+z
loop_
_atom_site_type_symbol
_atom_site_label
_atom_site_fract_x
_atom_site_fract_y
_atom_site_fract_z
Si Si1 0.441719 0.375126 0.981528
Si Si2 0.262562 0.570978 0.715663
Si Si3 0.000000 0.250000 0.750000
Si Si4 0.359729 0.393171 0.360172
Si Si5 0.248215 0.318804 0.975099
Si Si6 0.365509 0.392771 0.592004
Si Si7 0.859935 0.492503 0.520109
Si Si8 0.058140 0.143272 0.841737
O O1 0.353035 0.338636 0.946280
O O2 0.532658 0.360793 0.926044
O O3 0.422005 0.447051 0.978521
O O4 0.459169 0.350983 0.067053
O O5 0.250000 0.500000 0.701800
O O6 0.273051 0.584518 0.805691
O O7 0.167466 0.604507 0.680951
O O8 0.356751 0.595978 0.672600
O O9 0.072115 0.209706 0.803549
O O10 0.324707 0.333578 0.406306
O O11 0.398921 0.444739 0.417626
O O12 0.452777 0.377413 0.308546
O O13 0.250000 0.250000 0.000000
O O14 0.220662 0.358430 0.048800
O O15 0.369172 0.462375 0.563154
O O16 0.750000 0.500000 0.542502
#
# Coordination Sequence:
#
# PCOD8283343 Si02
#       8
#    16  16   4  16  16  16  16  16
#     4  12  23  40  70  98 132 171 234 281 347 408
#     4  12  25  42  64 102 145 180 224 284 354 436
#     4  12  28  44  68 104 148 178 234 294 364 416
#     4  11  24  44  64 101 138 178 229 278 361 409
#     4  11  25  43  67  95 129 176 231 288 338 406
#     4  11  23  39  62  99 130 177 222 274 343 405
#     4  11  19  39  66  94 133 173 217 284 331 406
#     4  12  24  43  69 102 133 184 231 291 348 414
#
# _framework density 21.536951999999999
#
# number of rings (size 3 to 8) (size 9 to 14) (size 15 to 20)
#    0.000    0.552    8.276    2.069    3.862    0.552 
#    0.000    0.690    0.000    0.000    0.000    1.931 
#    0.000    0.000    0.000    0.000    0.000    0.000 
#
# Total GULP energy -718946.359231 kJ/mol
# GULP energy per Si atom -12395.626883 kJ/mol
# Density = 2.148793 g / cm^3
# Si number density = 21.536952 Si / 1000 Ang^3
#
#
#
# Elastic Constant Matrix: (Units=GPa)
#
#
# Indices 1 2 3 4 5 6 
#
# 1 115.6722 56.6313 33.7330 0.0000 0.0000 0.0000
# 2 56.6313 121.9587 48.8279 0.0000 0.0000 0.0000
# 3 33.7330 48.8279 95.5551 0.0000 0.0000 0.0000
# 4 0.0000 0.0000 0.0000 18.9771 0.0000 0.0000
# 5 0.0000 0.0000 0.0000 0.0000 32.4780 0.0000
# 6 0.0000 0.0000 0.0000 0.0000 0.0000 25.2088
#
#
#
# Elastic Compliance Matrix: (Units=1/GPa)
#
#
# Indices 1 2 3 4 5 6 
#
# 1 0.011394 -0.004627 -0.001658 0.000000 0.000000 0.000000
# 2 -0.004627 0.012187 -0.004594 0.000000 0.000000 0.000000
# 3 -0.001658 -0.004594 0.013398 0.000000 0.000000 0.000000
# 4 0.000000 0.000000 0.000000 0.052695 0.000000 0.000000
# 5 0.000000 0.000000 0.000000 0.000000 0.030790 0.000000
# 6 0.000000 0.000000 0.000000 0.000000 0.000000 0.039669
#
#
# Mechanical properties :
#
#
# Convention : Reuss Voigt Hill
#
# Bulk Modulus (GPa) = 65.69842 67.95227 66.82534
# Shear Modulus (GPa) = 26.74294 28.26570 27.50432
#
# Velocity S-wave (km/s) = 3.52763 3.62668 3.57750
# Velocity P-wave (km/s) = 6.86757 7.01121 6.93976
#
# Compressibility (1/GPa) = 0.01522107
#
# Stress axis : x y z
#
# Youngs Moduli (GPa) = 87.76617 82.05201 74.63755
#
# Poissons Ratio (x) = 0.37965 0.12375
# Poissons Ratio (y) = 0.40609 0.34290
# Poissons Ratio (z) = 0.14551 0.37697
#
# Static dielectric constant tensor:
#      x y z
#    x 4.103060 0.000000 0.000000 
#    y 0.000000 3.843950 0.000000 
#    z 0.000000 0.000000 3.825050 
# 
# 
# High freq. dielectric constant tensor:
#      x y z
#    x 1.853720 0.000000 0.000000 
#    y 0.000000 1.831090 0.000000 
#    z 0.000000 0.000000 1.837230 
# 
# From -- ./inp_files/31266.got.cif
#   From: 2010.03.12/outbox.cif.g09.slc.cpg/sg68_16_cif.got.tgz:31266.got - 2010.04.10 23:14:56.
