data_PCOD8283608
_publ_section_title
;
Structure prediction by ZEFSAII (Michael W. Deem and Ramdas Pophale) SiO2 
 PCOD8283608
Probable space group: C C C A
;
_chemical_formula_sum "Si O2"
_cell_formula_units_Z 120
_cell_length_a 8.791806
_cell_length_b 26.468998
_cell_length_c 23.243186
_cell_angle_alpha 90.000000
_cell_angle_beta 90.000000
_cell_angle_gamma 90.000000
_cell_volume 5408.928681
_symmetry_space_group_name_H-M "C C C A"
_symmetry_group_IT_number 68
_space_group.IT_coordinate_system_code '2'
_symmetry_cell_setting 'orthorhombic'
loop_
_space_group_symop_operation_xyz
x,y,z
-x,1/2-y,z
x,1/2-y,1/2-z
-x,y,1/2-z
-x,-y,-z
x,1/2+y,-z
-x,1/2+y,1/2+z
x,-y,1/2+z
1/2+x,1/2+y,z
1/2-x,-y,z
1/2+x,-y,1/2-z
1/2-x,1/2+y,1/2-z
1/2-x,1/2-y,-z
1/2+x,y,-z
1/2-x,y,1/2+z
1/2+x,1/2-y,1/2+z
loop_
_atom_site_type_symbol
_atom_site_label
_atom_site_fract_x
_atom_site_fract_y
_atom_site_fract_z
Si Si1 0.953924 0.365370 0.913659
Si Si2 0.000000 0.854910 0.250000
Si Si3 0.569619 0.804945 0.468410
Si Si4 0.769820 0.788139 0.704858
Si Si5 0.611136 0.863892 0.127365
Si Si6 0.552318 0.048691 0.814596
Si Si7 0.858284 0.778609 0.399256
Si Si8 0.095927 0.435878 0.840201
O O1 0.784650 0.369879 0.890711
O O2 0.059878 0.328360 0.873250
O O3 0.045023 0.419150 0.905818
O O4 0.945330 0.342568 0.977427
O O5 0.139732 0.817661 0.260968
O O6 0.014780 0.893130 0.197012
O O7 0.500000 0.750000 0.476052
O O8 0.489303 0.836455 0.419188
O O9 0.744480 0.795311 0.450145
O O10 0.846796 0.750000 0.750000
O O11 0.896200 0.827919 0.683751
O O12 0.713014 0.756671 0.649203
O O13 0.548259 0.919088 0.141470
O O14 0.500000 0.061106 0.750000
O O15 0.725960 0.063470 0.826806
O O16 0.522303 0.990142 0.827587
O O17 0.000000 0.750000 0.430721
#
# Coordination Sequence:
#
# PCOD8283608 Si02
#       8
#    16   8  16  16  16  16  16  16
#     4  12  25  43  70 101 139 190 248 304 363 442
#     4  12  21  40  70 102 142 190 247 282 356 448
#     4  12  26  45  72 101 146 195 251 317 365 433
#     4  12  24  39  65 102 150 195 238 293 357 437
#     4  12  26  45  66 109 140 189 250 300 369 436
#     4  11  26  47  75 108 148 188 236 309 382 444
#     4  12  22  43  64  99 144 193 246 289 369 444
#     4  11  24  46  74 106 140 190 243 303 375 451
#
# _framework density 22.185541000000001
#
# number of rings (size 3 to 8) (size 9 to 14) (size 15 to 20)
#    0.000    0.267    4.667    4.600    0.000    3.200 
#    0.000    2.667    0.000    1.600    0.000    0.000 
#    0.000    0.000    0.000    0.000    0.000    0.000 
#
# Total GULP energy -743427.127257 kJ/mol
# GULP energy per Si atom -12390.452121 kJ/mol
# Density = 2.213505 g / cm^3
# Si number density = 22.185541 Si / 1000 Ang^3
#
#
#
# Elastic Constant Matrix: (Units=GPa)
#
#
# Indices 1 2 3 4 5 6 
#
# 1 110.6722 57.1353 44.9748 0.0000 0.0000 0.0000
# 2 57.1353 134.0706 72.6146 0.0000 0.0000 0.0000
# 3 44.9748 72.6146 112.8211 0.0000 0.0000 0.0000
# 4 0.0000 0.0000 0.0000 42.4240 0.0000 0.0000
# 5 0.0000 0.0000 0.0000 0.0000 32.5107 0.0000
# 6 0.0000 0.0000 0.0000 0.0000 0.0000 47.0391
#
#
#
# Elastic Compliance Matrix: (Units=1/GPa)
#
#
# Indices 1 2 3 4 5 6 
#
# 1 0.011955 -0.003859 -0.002282 0.000000 0.000000 0.000000
# 2 -0.003859 0.012696 -0.006633 0.000000 0.000000 0.000000
# 3 -0.002282 -0.006633 0.014043 0.000000 0.000000 0.000000
# 4 0.000000 0.000000 0.000000 0.023572 0.000000 0.000000
# 5 0.000000 0.000000 0.000000 0.000000 0.030759 0.000000
# 6 0.000000 0.000000 0.000000 0.000000 0.000000 0.021259
#
#
# Mechanical properties :
#
#
# Convention : Reuss Voigt Hill
#
# Bulk Modulus (GPa) = 76.07167 78.55705 77.31436
# Shear Modulus (GPa) = 34.67089 36.58404 35.62747
#
# Velocity S-wave (km/s) = 3.95748 4.06520 4.01170
# Velocity P-wave (km/s) = 7.43273 7.58422 7.50886
#
# Compressibility (1/GPa) = 0.01314550
#
# Stress axis : x y z
#
# Youngs Moduli (GPa) = 83.64531 78.76635 71.21177
#
# Poissons Ratio (x) = 0.30394 0.16252
# Poissons Ratio (y) = 0.32277 0.47235
# Poissons Ratio (z) = 0.19090 0.52247
#
# Static dielectric constant tensor:
#      x y z
#    x 4.223100 0.000000 0.000000 
#    y 0.000000 4.434770 0.000000 
#    z 0.000000 0.000000 4.225060 
# 
# 
# High freq. dielectric constant tensor:
#      x y z
#    x 1.881980 0.000000 0.000000 
#    y 0.000000 1.882290 0.000000 
#    z 0.000000 0.000000 1.876320 
# 
# From -- ./inp_files/49717.got.cif
#   From: 2010.03.12/outbox.cif.g09.slc.cpg/sg68_25_cif.got.tgz:49717.got - 2010.04.10 23:14:56.
