data_PCOD8283528
_publ_section_title
;
Structure prediction by ZEFSAII (Michael W. Deem and Ramdas Pophale) SiO2 
 PCOD8283528
Probable space group: C C C A
;
_chemical_formula_sum "Si O2"
_cell_formula_units_Z 112
_cell_length_a 14.590226
_cell_length_b 23.371142
_cell_length_c 13.799125
_cell_angle_alpha 90.000000
_cell_angle_beta 90.000000
_cell_angle_gamma 90.000000
_cell_volume 4705.366996
_symmetry_space_group_name_H-M "C C C A"
_symmetry_group_IT_number 68
_space_group.IT_coordinate_system_code '2'
_symmetry_cell_setting 'orthorhombic'
loop_
_space_group_symop_operation_xyz
x,y,z
-x,1/2-y,z
x,1/2-y,1/2-z
-x,y,1/2-z
-x,-y,-z
x,1/2+y,-z
-x,1/2+y,1/2+z
x,-y,1/2+z
1/2+x,1/2+y,z
1/2-x,-y,z
1/2+x,-y,1/2-z
1/2-x,1/2+y,1/2-z
1/2-x,1/2-y,-z
1/2+x,y,-z
1/2-x,y,1/2+z
1/2+x,1/2-y,1/2+z
loop_
_atom_site_type_symbol
_atom_site_label
_atom_site_fract_x
_atom_site_fract_y
_atom_site_fract_z
Si Si1 0.260726 0.064708 0.228833
Si Si2 0.167551 0.738104 0.359992
Si Si3 0.739045 0.937534 0.053795
Si Si4 0.924216 0.125635 0.323472
Si Si5 0.322700 0.676193 0.479911
Si Si6 0.970565 0.937392 0.527020
Si Si7 0.937867 0.372028 0.657645
O O1 0.287948 0.061933 0.341587
O O2 0.169674 0.103795 0.224704
O O3 0.341168 0.094616 0.167460
O O4 0.250000 0.000000 0.188637
O O5 0.202532 0.750000 0.250000
O O6 0.243614 0.711583 0.428552
O O7 0.144166 0.797640 0.416317
O O8 0.080301 0.695962 0.353867
O O9 0.750000 0.000000 0.004055
O O10 0.789357 0.889632 0.990108
O O11 0.631938 0.925543 0.062176
O O12 0.905810 0.175561 0.402871
O O13 0.000000 0.150819 0.250000
O O14 0.968063 0.072598 0.379263
O O15 0.991431 0.895178 0.436625
O O16 0.000000 0.000000 0.500000
O O17 0.000000 0.383780 0.750000
#
# Coordination Sequence:
#
# PCOD8283528 Si02
#       7
#    16  16  16  16  16  16  16
#     4  11  24  44  72 106 153 200 247 307 381 453
#     4  11  25  49  81 104 144 197 253 316 380 441
#     4  11  23  44  75 109 148 203 249 305 385 457
#     4  12  25  45  72 105 151 194 243 308 378 457
#     4  11  25  48  78 108 148 198 253 313 383 460
#     4  12  26  42  70 111 154 194 252 310 379 462
#     4  12  28  49  75 110 148 198 264 316 378 456
#
# _framework density 23.802606999999998
#
# number of rings (size 3 to 8) (size 9 to 14) (size 15 to 20)
#    0.000    0.571    4.286    2.571    8.000    2.571 
#    0.000    0.000    0.000    0.000    0.000    0.000 
#    0.000    0.000    0.000    0.000    0.000    0.000 
#
# Total GULP energy -694319.251782 kJ/mol
# GULP energy per Si atom -12398.558068 kJ/mol
# Density = 2.374843 g / cm^3
# Si number density = 23.802607 Si / 1000 Ang^3
#
#
#
# Elastic Constant Matrix: (Units=GPa)
#
#
# Indices 1 2 3 4 5 6 
#
# 1 80.9963 19.8827 22.7602 0.0000 0.0000 0.0000
# 2 19.8827 126.2061 41.1544 0.0000 0.0000 0.0000
# 3 22.7602 41.1544 136.0561 0.0000 0.0000 0.0000
# 4 0.0000 0.0000 0.0000 34.6211 0.0000 0.0000
# 5 0.0000 0.0000 0.0000 0.0000 36.2929 0.0000
# 6 0.0000 0.0000 0.0000 0.0000 0.0000 13.7345
#
#
#
# Elastic Compliance Matrix: (Units=1/GPa)
#
#
# Indices 1 2 3 4 5 6 
#
# 1 0.013209 -0.001509 -0.001753 0.000000 0.000000 0.000000
# 2 -0.001509 0.008963 -0.002459 0.000000 0.000000 0.000000
# 3 -0.001753 -0.002459 0.008387 0.000000 0.000000 0.000000
# 4 0.000000 0.000000 0.000000 0.028884 0.000000 0.000000
# 5 0.000000 0.000000 0.000000 0.000000 0.027554 0.000000
# 6 0.000000 0.000000 0.000000 0.000000 0.000000 0.072809
#
#
# Mechanical properties :
#
#
# Convention : Reuss Voigt Hill
#
# Bulk Modulus (GPa) = 52.30951 56.76144 54.53548
# Shear Modulus (GPa) = 28.14979 34.22712 31.18846
#
# Velocity S-wave (km/s) = 3.44268 3.79615 3.62373
# Velocity P-wave (km/s) = 6.15035 6.56604 6.36159
#
# Compressibility (1/GPa) = 0.01911698
#
# Stress axis : x y z
#
# Youngs Moduli (GPa) = 75.70367 111.56888 119.23364
#
# Poissons Ratio (x) = 0.16839 0.20904
# Poissons Ratio (y) = 0.11426 0.29316
# Poissons Ratio (z) = 0.13272 0.27431
#
# Static dielectric constant tensor:
#      x y z
#    x 4.287300 0.000000 0.000000 
#    y 0.000000 4.426430 0.000000 
#    z 0.000000 0.000000 4.627720 
# 
# 
# High freq. dielectric constant tensor:
#      x y z
#    x 1.939600 0.000000 0.000000 
#    y 0.000000 1.936130 0.000000 
#    z 0.000000 0.000000 1.967700 
# 
# From -- ./inp_files/22578.got.cif
#   From: 2010.03.12/outbox.cif.g09.slc.cpg/sg68_12_cif.got.tgz:22578.got - 2010.04.10 23:14:56.
