data_PCOD8283545
_publ_section_title
;
Structure prediction by ZEFSAII (Michael W. Deem and Ramdas Pophale) SiO2 
 PCOD8283545
Probable space group: C C C A
;
_chemical_formula_sum "Si O2"
_cell_formula_units_Z 56
_cell_length_a 16.332575
_cell_length_b 10.438870
_cell_length_c 14.169052
_cell_angle_alpha 90.000000
_cell_angle_beta 90.000000
_cell_angle_gamma 90.000000
_cell_volume 2415.733069
_symmetry_space_group_name_H-M "C C C A"
_symmetry_group_IT_number 68
_space_group.IT_coordinate_system_code '2'
_symmetry_cell_setting 'orthorhombic'
loop_
_space_group_symop_operation_xyz
x,y,z
-x,1/2-y,z
x,1/2-y,1/2-z
-x,y,1/2-z
-x,-y,-z
x,1/2+y,-z
-x,1/2+y,1/2+z
x,-y,1/2+z
1/2+x,1/2+y,z
1/2-x,-y,z
1/2+x,-y,1/2-z
1/2-x,1/2+y,1/2-z
1/2-x,1/2-y,-z
1/2+x,y,-z
1/2-x,y,1/2+z
1/2+x,1/2-y,1/2+z
loop_
_atom_site_type_symbol
_atom_site_label
_atom_site_fract_x
_atom_site_fract_y
_atom_site_fract_z
Si Si1 0.790850 0.803298 0.353323
Si Si2 0.566589 0.641380 0.921819
Si Si3 0.500000 0.474451 0.750000
Si Si4 0.128534 0.426774 0.386727
O O1 0.777701 0.750000 0.250000
O O2 0.842996 0.700832 0.410753
O O3 0.700522 0.822295 0.398299
O O4 0.838242 0.936989 0.352805
O O5 0.500000 0.750000 0.941543
O O6 0.542596 0.563141 0.829264
O O7 0.577137 0.555429 0.016251
O O8 0.566304 0.385115 0.697208
#
# Coordination Sequence:
#
# PCOD8283545 Si02
#       4
#    16  16   8  16
#     4  11  23  48  68 101 143 189 231 295 364 419
#     4  12  23  44  74  98 140 189 234 289 360 427
#     4  12  23  46  71 102 140 182 235 292 349 430
#     4  11  26  42  71 107 135 180 247 289 351 423
#
# _framework density 23.181370999999999
#
# number of rings (size 3 to 8) (size 9 to 14) (size 15 to 20)
#    0.000    0.571    5.714    2.143    0.000    2.286 
#   10.286    0.000    0.000    0.000    0.000    0.000 
#    0.000    0.000    0.000    0.000    0.000    0.000 
#
# Total GULP energy -347109.703705 kJ/mol
# GULP energy per Si atom -12396.775132 kJ/mol
# Density = 2.312861 g / cm^3
# Si number density = 23.181371 Si / 1000 Ang^3
#
#
#
# Elastic Constant Matrix: (Units=GPa)
#
#
# Indices 1 2 3 4 5 6 
#
# 1 154.9428 21.5959 69.2272 0.0000 0.0000 0.0000
# 2 21.5959 28.9520 26.3618 0.0000 0.0000 0.0000
# 3 69.2272 26.3618 175.3763 0.0000 0.0000 0.0000
# 4 0.0000 0.0000 0.0000 42.6161 0.0000 0.0000
# 5 0.0000 0.0000 0.0000 0.0000 57.1715 0.0000
# 6 0.0000 0.0000 0.0000 0.0000 0.0000 21.0522
#
#
#
# Elastic Compliance Matrix: (Units=1/GPa)
#
#
# Indices 1 2 3 4 5 6 
#
# 1 0.008156 -0.003652 -0.002671 0.000000 0.000000 0.000000
# 2 -0.003652 0.041652 -0.004819 0.000000 0.000000 0.000000
# 3 -0.002671 -0.004819 0.007481 0.000000 0.000000 0.000000
# 4 0.000000 0.000000 0.000000 0.023465 0.000000 0.000000
# 5 0.000000 0.000000 0.000000 0.000000 0.017491 0.000000
# 6 0.000000 0.000000 0.000000 0.000000 0.000000 0.047501
#
#
# Mechanical properties :
#
#
# Convention : Reuss Voigt Hill
#
# Bulk Modulus (GPa) = 28.56736 65.96008 47.26372
# Shear Modulus (GPa) = 27.82423 40.30704 34.06563
#
# Velocity S-wave (km/s) = 3.46827 4.17438 3.83760
# Velocity P-wave (km/s) = 5.32810 7.19372 6.33002
#
# Compressibility (1/GPa) = 0.03500499
#
# Stress axis : x y z
#
# Youngs Moduli (GPa) = 122.60566 24.00817 133.67897
#
# Poissons Ratio (x) = 0.08768 0.35700
# Poissons Ratio (y) = 0.44779 0.64425
# Poissons Ratio (z) = 0.32743 0.11570
#
# Static dielectric constant tensor:
#      x y z
#    x 4.916350 0.000000 0.000000 
#    y 0.000000 3.835530 0.000000 
#    z 0.000000 0.000000 4.175130 
# 
# 
# High freq. dielectric constant tensor:
#      x y z
#    x 1.944740 0.000000 0.000000 
#    y 0.000000 1.886910 0.000000 
#    z 0.000000 0.000000 1.931270 
# 
# From -- ./inp_files/20163.got.cif
#   From: 2010.03.12/outbox.cif.g09.slc.cpg/sg68_11_cif.got.tgz:20163.got - 2010.04.10 23:14:56.
