data_PCOD8283939
_publ_section_title
;
Structure prediction by ZEFSAII (Michael W. Deem and Ramdas Pophale) SiO2 
 PCOD8283939
Probable space group: F M M M
;
_chemical_formula_sum "Si O2"
_cell_formula_units_Z 112
_cell_length_a 8.730510
_cell_length_b 25.256236
_cell_length_c 30.848056
_cell_angle_alpha 90.000000
_cell_angle_beta 90.000000
_cell_angle_gamma 90.000000
_cell_volume 6801.990825
_symmetry_space_group_name_H-M "F M M M"
_symmetry_group_IT_number 69
_symmetry_cell_setting 'orthorhombic'
loop_
_space_group_symop_operation_xyz
x,y,z
-x,-y,z
x,-y,-z
-x,y,-z
-x,-y,-z
x,y,-z
-x,y,z
x,-y,z
x,1/2+y,1/2+z
-x,1/2-y,1/2+z
x,1/2-y,1/2-z
-x,1/2+y,1/2-z
-x,1/2-y,1/2-z
x,1/2+y,1/2-z
-x,1/2+y,1/2+z
x,1/2-y,1/2+z
1/2+x,y,1/2+z
1/2-x,-y,1/2+z
1/2+x,-y,1/2-z
1/2-x,y,1/2-z
1/2-x,-y,1/2-z
1/2+x,y,1/2-z
1/2-x,y,1/2+z
1/2+x,-y,1/2+z
1/2+x,1/2+y,z
1/2-x,1/2-y,z
1/2+x,1/2-y,-z
1/2-x,1/2+y,-z
1/2-x,1/2-y,-z
1/2+x,1/2+y,-z
1/2-x,1/2+y,z
1/2+x,1/2-y,z
loop_
_atom_site_type_symbol
_atom_site_label
_atom_site_fract_x
_atom_site_fract_y
_atom_site_fract_z
Si Si1 0.179653 0.307735 0.132587
Si Si2 0.820491 0.692149 0.546876
Si Si3 0.819207 0.393577 0.797171
Si Si4 0.317822 0.500000 0.202068
O O1 0.250000 0.250000 0.140465
O O2 0.243448 0.336046 0.088478
O O3 0.225464 0.344174 0.172940
O O4 0.000000 0.301715 0.127942
O O5 0.787410 0.663880 0.500000
O O6 0.750000 0.750000 0.545093
O O7 0.000000 0.696385 0.555180
O O8 0.750000 0.382300 0.750000
O O9 0.746127 0.446166 0.819635
O O10 0.000000 0.401557 0.793003
O O11 0.500000 0.500000 0.201847
O O12 0.250000 0.500000 0.250000
#
# Coordination Sequence:
#
# PCOD8283939 Si02
#       4
#    32  32  32  16
#     4  10  20  31  45  66  93 124 154 185 222 267
#     4   9  16  26  42  63  87 116 149 185 223 263
#     4  10  20  33  48  67  91 120 153 188 226 266
#     4  10  18  30  50  70  87 112 147 190 232 265
#
# _framework density 16.465768000000001
#
# number of rings (size 3 to 8) (size 9 to 14) (size 15 to 20)
#    0.000    2.286    0.000    7.286    0.000    6.857 
#    0.000    2.857    0.000    0.000    0.000    1.000 
#    0.000    8.000    0.000    0.000    0.000    0.000 
#
# Total GULP energy -346918.371820 kJ/mol
# GULP energy per Si atom -12389.941851 kJ/mol
# Density = 1.642829 g / cm^3
# Si number density = 16.465768 Si / 1000 Ang^3
#
#
#
# Elastic Constant Matrix: (Units=GPa)
#
#
# Indices 1 2 3 4 5 6 
#
# 1 108.7740 51.2874 59.0494 0.0000 0.0000 0.0000
# 2 51.2874 87.4280 61.8965 0.0000 0.0000 0.0000
# 3 59.0494 61.8965 123.7040 0.0000 0.0000 0.0000
# 4 0.0000 0.0000 0.0000 1.2447 0.0000 0.0000
# 5 0.0000 0.0000 0.0000 0.0000 27.6310 0.0000
# 6 0.0000 0.0000 0.0000 0.0000 0.0000 23.3885
#
#
#
# Elastic Compliance Matrix: (Units=1/GPa)
#
#
# Indices 1 2 3 4 5 6 
#
# 1 0.013848 -0.005333 -0.003942 0.000000 0.000000 0.000000
# 2 -0.005333 0.019766 -0.007345 0.000000 0.000000 0.000000
# 3 -0.003942 -0.007345 0.013640 0.000000 0.000000 0.000000
# 4 0.000000 0.000000 0.000000 0.803400 0.000000 0.000000
# 5 0.000000 0.000000 0.000000 0.000000 0.036191 0.000000
# 6 0.000000 0.000000 0.000000 0.000000 0.000000 0.042756
#
#
# Mechanical properties :
#
#
# Convention : Reuss Voigt Hill
#
# Bulk Modulus (GPa) = 71.34795 73.81918 72.58356
# Shear Modulus (GPa) = 5.16790 20.29769 12.73279
#
# Velocity S-wave (km/s) = 1.77352 3.51482 2.78382
# Velocity P-wave (km/s) = 6.90065 7.83589 7.38309
#
# Compressibility (1/GPa) = 0.01401582
#
# Stress axis : x y z
#
# Youngs Moduli (GPa) = 72.21453 50.59185 73.31177
#
# Poissons Ratio (x) = 0.26979 0.28898
# Poissons Ratio (y) = 0.38510 0.53845
# Poissons Ratio (z) = 0.28466 0.37158
#
# Static dielectric constant tensor:
#      x y z
#    x 3.344900 0.000000 0.000000 
#    y 0.000000 3.303710 0.000000 
#    z 0.000000 0.000000 3.706570 
# 
# 
# High freq. dielectric constant tensor:
#      x y z
#    x 1.657580 0.000000 0.000000 
#    y 0.000000 1.595010 0.000000 
#    z 0.000000 0.000000 1.630880 
# 
# From -- ./inp_files/4726.got.cif
#   From: 2010.03.12/outbox.cif.g09.slc.cpg/sg69_3_cif.got.tgz:4726.got - 2010.04.10 23:52:46.
