data_PCOD8283658
_publ_section_title
;
Structure prediction by ZEFSAII (Michael W. Deem and Ramdas Pophale) SiO2 
 PCOD8283658
Probable space group: C C C A
;
_chemical_formula_sum "Si O2"
_cell_formula_units_Z 64
_cell_length_a 17.940556
_cell_length_b 17.114888
_cell_length_c 9.365969
_cell_angle_alpha 90.000000
_cell_angle_beta 90.000000
_cell_angle_gamma 90.000000
_cell_volume 2875.826463
_symmetry_space_group_name_H-M "C C C A"
_symmetry_group_IT_number 68
_space_group.IT_coordinate_system_code '2'
_symmetry_cell_setting 'orthorhombic'
loop_
_space_group_symop_operation_xyz
x,y,z
-x,1/2-y,z
x,1/2-y,1/2-z
-x,y,1/2-z
-x,-y,-z
x,1/2+y,-z
-x,1/2+y,1/2+z
x,-y,1/2+z
1/2+x,1/2+y,z
1/2-x,-y,z
1/2+x,-y,1/2-z
1/2-x,1/2+y,1/2-z
1/2-x,1/2-y,-z
1/2+x,y,-z
1/2-x,y,1/2+z
1/2+x,1/2-y,1/2+z
loop_
_atom_site_type_symbol
_atom_site_label
_atom_site_fract_x
_atom_site_fract_y
_atom_site_fract_z
Si Si1 0.079329 0.547190 0.503075
Si Si2 0.323789 0.956886 0.215712
Si Si3 0.918525 0.723367 0.102727
Si Si4 0.690351 0.709850 0.101790
O O1 0.139577 0.502694 0.412244
O O2 0.113303 0.556269 0.662706
O O3 0.077035 0.631625 0.429663
O O4 0.000000 0.500000 0.500000
O O5 0.294584 0.879942 0.134625
O O6 0.250000 0.000000 0.277126
O O7 0.874862 0.750000 0.250000
O O8 0.000000 0.750000 0.128433
O O9 0.888704 0.774688 0.971630
O O10 0.691159 0.750000 0.250000
O O11 0.750000 0.750000 0.000000
#
# Coordination Sequence:
#
# PCOD8283658 Si02
#       4
#    16  16  16  16
#     4  12  27  48  74 111 149 198 251 316 384 461
#     4  12  28  47  75 108 152 193 253 311 388 456
#     4  11  26  47  74 107 148 197 254 309 382 454
#     4  12  26  48  73 104 146 195 252 310 376 454
#
# _framework density 22.254472
#
# number of rings (size 3 to 8) (size 9 to 14) (size 15 to 20)
#    0.000    0.250    2.500    5.250   14.000    0.500 
#    0.000    0.000    0.000    0.000    0.000    0.000 
#    0.000    0.000    0.000    0.000    0.000    0.000 
#
# Total GULP energy -396493.009575 kJ/mol
# GULP energy per Si atom -12390.406549 kJ/mol
# Density = 2.220382 g / cm^3
# Si number density = 22.254472 Si / 1000 Ang^3
#
#
#
# Elastic Constant Matrix: (Units=GPa)
#
#
# Indices 1 2 3 4 5 6 
#
# 1 104.7138 41.9109 50.2739 0.0000 0.0000 0.0000
# 2 41.9109 182.4981 70.2346 0.0000 0.0000 0.0000
# 3 50.2739 70.2346 165.9358 0.0000 0.0000 0.0000
# 4 0.0000 0.0000 0.0000 42.7958 0.0000 0.0000
# 5 0.0000 0.0000 0.0000 0.0000 42.1164 0.0000
# 6 0.0000 0.0000 0.0000 0.0000 0.0000 42.5351
#
#
#
# Elastic Compliance Matrix: (Units=1/GPa)
#
#
# Indices 1 2 3 4 5 6 
#
# 1 0.011535 -0.001558 -0.002835 0.000000 0.000000 0.000000
# 2 -0.001558 0.006756 -0.002388 0.000000 0.000000 0.000000
# 3 -0.002835 -0.002388 0.007896 0.000000 0.000000 0.000000
# 4 0.000000 0.000000 0.000000 0.023367 0.000000 0.000000
# 5 0.000000 0.000000 0.000000 0.000000 0.023744 0.000000
# 6 0.000000 0.000000 0.000000 0.000000 0.000000 0.023510
#
#
# Mechanical properties :
#
#
# Convention : Reuss Voigt Hill
#
# Bulk Modulus (GPa) = 79.20604 86.44295 82.82450
# Shear Modulus (GPa) = 43.63868 44.87133 44.25501
#
# Velocity S-wave (km/s) = 4.43300 4.49518 4.46420
# Velocity P-wave (km/s) = 7.86577 8.11600 7.99186
#
# Compressibility (1/GPa) = 0.01262530
#
# Stress axis : x y z
#
# Youngs Moduli (GPa) = 86.69583 148.01326 126.64534
#
# Poissons Ratio (x) = 0.23057 0.35908
# Poissons Ratio (y) = 0.13505 0.30239
# Poissons Ratio (z) = 0.24581 0.35341
#
# Static dielectric constant tensor:
#      x y z
#    x 4.272020 0.000000 0.000000 
#    y 0.000000 3.646100 0.000000 
#    z 0.000000 0.000000 0.984590 
# 
# 
# High freq. dielectric constant tensor:
#      x y z
#    x 1.887020 0.000000 0.000000 
#    y 0.000000 1.893400 0.000000 
#    z 0.000000 0.000000 1.902750 
# 
# From -- ./inp_files/7748.got.cif
#   From: 2010.03.12/outbox.cif.g09.slc.cpg/sg68_4_cif.got.tgz:7748.got - 2010.04.10 23:14:56.
