data_PCOD8283532
_publ_section_title
;
Structure prediction by ZEFSAII (Michael W. Deem and Ramdas Pophale) SiO2 
 PCOD8283532
Probable space group: C C C A
;
_chemical_formula_sum "Si O2"
_cell_formula_units_Z 80
_cell_length_a 25.195869
_cell_length_b 8.470160
_cell_length_c 17.578293
_cell_angle_alpha 90.000000
_cell_angle_beta 90.000000
_cell_angle_gamma 90.000000
_cell_volume 3751.436978
_symmetry_space_group_name_H-M "C C C A"
_symmetry_group_IT_number 68
_space_group.IT_coordinate_system_code '2'
_symmetry_cell_setting 'orthorhombic'
loop_
_space_group_symop_operation_xyz
x,y,z
-x,1/2-y,z
x,1/2-y,1/2-z
-x,y,1/2-z
-x,-y,-z
x,1/2+y,-z
-x,1/2+y,1/2+z
x,-y,1/2+z
1/2+x,1/2+y,z
1/2-x,-y,z
1/2+x,-y,1/2-z
1/2-x,1/2+y,1/2-z
1/2-x,1/2-y,-z
1/2+x,y,-z
1/2-x,y,1/2+z
1/2+x,1/2-y,1/2+z
loop_
_atom_site_type_symbol
_atom_site_label
_atom_site_fract_x
_atom_site_fract_y
_atom_site_fract_z
Si Si1 0.383332 0.460676 0.933470
Si Si2 0.550443 0.661032 0.448111
Si Si3 0.860962 0.263713 0.668831
Si Si4 0.788855 0.872235 0.037460
Si Si5 0.971045 0.400124 0.829622
O O1 0.406052 0.286099 0.916905
O O2 0.378459 0.557997 0.854378
O O3 0.423671 0.552349 0.988284
O O4 0.325978 0.449108 0.972803
O O5 0.500000 0.750000 0.484742
O O6 0.526402 0.556382 0.380130
O O7 0.830371 0.250000 0.750000
O O8 0.824405 0.202661 0.602028
O O9 0.910007 0.146022 0.681421
O O10 0.750000 0.000000 0.075478
O O11 0.750000 0.750000 0.000000
O O12 0.000000 0.250000 0.869164
O O13 0.000000 0.437110 0.750000
#
# Coordination Sequence:
#
# PCOD8283532 Si02
#       5
#    16  16  16  16  16
#     4  12  24  46  72 110 141 195 251 310 359 465
#     4  12  24  40  71 104 145 194 254 291 361 445
#     4  12  25  48  75 105 151 194 241 307 389 446
#     4  12  24  48  80 102 140 187 251 318 380 440
#     4  11  23  45  69 101 154 204 231 296 373 443
#
# _framework density 21.325161000000001
#
# number of rings (size 3 to 8) (size 9 to 14) (size 15 to 20)
#    0.000    0.200    8.000    1.800    0.000    2.000 
#    3.600    0.000    0.000    0.000    0.000    0.000 
#    0.000    0.000    0.000    0.000    0.000    0.000 
#
# Total GULP energy -495943.568619 kJ/mol
# GULP energy per Si atom -12398.589215 kJ/mol
# Density = 2.127662 g / cm^3
# Si number density = 21.325161 Si / 1000 Ang^3
#
#
#
# Elastic Constant Matrix: (Units=GPa)
#
#
# Indices 1 2 3 4 5 6 
#
# 1 115.6334 39.0855 43.7202 0.0000 0.0000 0.0000
# 2 39.0855 134.3587 63.0186 0.0000 0.0000 0.0000
# 3 43.7202 63.0186 139.0728 0.0000 0.0000 0.0000
# 4 0.0000 0.0000 0.0000 29.7099 0.0000 0.0000
# 5 0.0000 0.0000 0.0000 0.0000 29.8831 0.0000
# 6 0.0000 0.0000 0.0000 0.0000 0.0000 45.2282
#
#
#
# Elastic Compliance Matrix: (Units=1/GPa)
#
#
# Indices 1 2 3 4 5 6 
#
# 1 0.010165 -0.001852 -0.002356 0.000000 0.000000 0.000000
# 2 -0.001852 0.009789 -0.003854 0.000000 0.000000 0.000000
# 3 -0.002356 -0.003854 0.009677 0.000000 0.000000 0.000000
# 4 0.000000 0.000000 0.000000 0.033659 0.000000 0.000000
# 5 0.000000 0.000000 0.000000 0.000000 0.033464 0.000000
# 6 0.000000 0.000000 0.000000 0.000000 0.000000 0.022110
#
#
# Mechanical properties :
#
#
# Convention : Reuss Voigt Hill
#
# Bulk Modulus (GPa) = 74.03160 75.63483 74.83322
# Shear Modulus (GPa) = 35.84489 37.18028 36.51258
#
# Velocity S-wave (km/s) = 4.10429 4.18005 4.14234
# Velocity P-wave (km/s) = 7.56646 7.67082 7.61882
#
# Compressibility (1/GPa) = 0.01350774
#
# Stress axis : x y z
#
# Youngs Moduli (GPa) = 98.37785 102.15670 103.33311
#
# Poissons Ratio (x) = 0.18917 0.24350
# Poissons Ratio (y) = 0.18217 0.39820
# Poissons Ratio (z) = 0.23182 0.39366
#
# Static dielectric constant tensor:
#      x y z
#    x 3.625900 0.000000 0.000000 
#    y 0.000000 4.238460 0.000000 
#    z 0.000000 0.000000 3.373660 
# 
# 
# High freq. dielectric constant tensor:
#      x y z
#    x 1.847180 0.000000 0.000000 
#    y 0.000000 1.851280 0.000000 
#    z 0.000000 0.000000 1.821040 
# 
# From -- ./inp_files/33990.got.cif
#   From: 2010.03.12/outbox.cif.g09.slc.cpg/sg68_17_cif.got.tgz:33990.got - 2010.04.10 23:14:56.
