data_PCOD8283153
_publ_section_title
;
Structure prediction by ZEFSAII (Michael W. Deem and Ramdas Pophale) SiO2 
 PCOD8283153
Probable space group: C C C A
;
_chemical_formula_sum "Si O2"
_cell_formula_units_Z 64
_cell_length_a 17.904066
_cell_length_b 18.217677
_cell_length_c 7.624282
_cell_angle_alpha 90.000000
_cell_angle_beta 90.000000
_cell_angle_gamma 90.000000
_cell_volume 2486.815806
_symmetry_space_group_name_H-M "C C C A"
_symmetry_group_IT_number 68
_space_group.IT_coordinate_system_code '2'
_symmetry_cell_setting 'orthorhombic'
loop_
_space_group_symop_operation_xyz
x,y,z
-x,1/2-y,z
x,1/2-y,1/2-z
-x,y,1/2-z
-x,-y,-z
x,1/2+y,-z
-x,1/2+y,1/2+z
x,-y,1/2+z
1/2+x,1/2+y,z
1/2-x,-y,z
1/2+x,-y,1/2-z
1/2-x,1/2+y,1/2-z
1/2-x,1/2-y,-z
1/2+x,y,-z
1/2-x,y,1/2+z
1/2+x,1/2-y,1/2+z
loop_
_atom_site_type_symbol
_atom_site_label
_atom_site_fract_x
_atom_site_fract_y
_atom_site_fract_z
Si Si1 0.500000 0.921259 0.250000
Si Si2 0.322775 0.750000 0.750000
Si Si3 0.725533 0.904613 0.816443
Si Si4 0.649895 0.523359 0.357834
Si Si5 0.073894 0.210414 0.071805
O O1 0.439966 0.973811 0.347388
O O2 0.451102 0.873055 0.114436
O O3 0.270379 0.683425 0.813841
O O4 0.368522 0.717161 0.587079
O O5 0.810115 0.936767 0.812571
O O6 0.681285 0.939455 0.646130
O O7 0.675851 0.928740 0.979426
O O8 0.103983 0.250000 0.250000
O O9 0.000000 0.250000 0.003121
#
# Coordination Sequence:
#
# PCOD8283153 Si02
#       5
#     8   8  16  16  16
#     4  10  23  44  78  99 146 198 250 298 378 443
#     4  12  25  44  74 111 138 198 250 310 370 451
#     4  11  26  47  75 105 149 193 251 307 372 439
#     4  11  25  49  72 106 145 201 244 310 371 440
#     4   9  20  41  65 102 149 183 232 314 370 432
#
# _framework density 25.735723
#
# number of rings (size 3 to 8) (size 9 to 14) (size 15 to 20)
#    0.000    1.750    0.000    6.375    7.000    2.000 
#   13.500    0.000    0.000    0.000    0.000    0.000 
#    0.000    0.000    0.000    0.000    0.000    0.000 
#
# Total GULP energy -396449.897560 kJ/mol
# GULP energy per Si atom -12389.059299 kJ/mol
# Density = 2.567715 g / cm^3
# Si number density = 25.735723 Si / 1000 Ang^3
#
#
#
# Elastic Constant Matrix: (Units=GPa)
#
#
# Indices 1 2 3 4 5 6 
#
# 1 100.1120 8.0826 3.0093 0.0000 0.0000 0.0000
# 2 8.0826 127.3311 -23.6973 0.0000 0.0000 0.0000
# 3 3.0093 -23.6973 76.2718 0.0000 0.0000 0.0000
# 4 0.0000 0.0000 0.0000 15.0226 0.0000 0.0000
# 5 0.0000 0.0000 0.0000 0.0000 22.0029 0.0000
# 6 0.0000 0.0000 0.0000 0.0000 0.0000 17.5105
#
#
#
# Elastic Compliance Matrix: (Units=1/GPa)
#
#
# Indices 1 2 3 4 5 6 
#
# 1 0.010069 -0.000757 -0.000632 0.000000 0.000000 0.000000
# 2 -0.000757 0.008392 0.002637 0.000000 0.000000 0.000000
# 3 -0.000632 0.002637 0.013955 0.000000 0.000000 0.000000
# 4 0.000000 0.000000 0.000000 0.066566 0.000000 0.000000
# 5 0.000000 0.000000 0.000000 0.000000 0.045449 0.000000
# 6 0.000000 0.000000 0.000000 0.000000 0.000000 0.057108
#
#
# Mechanical properties :
#
#
# Convention : Reuss Voigt Hill
#
# Bulk Modulus (GPa) = 28.64273 30.94491 29.79382
# Shear Modulus (GPa) = 23.73249 31.99521 27.86385
#
# Velocity S-wave (km/s) = 3.04001 3.52976 3.29400
# Velocity P-wave (km/s) = 4.84519 5.35374 5.10580
#
# Compressibility (1/GPa) = 0.03491287
#
# Stress axis : x y z
#
# Youngs Moduli (GPa) = 99.31541 119.15518 71.65703
#
# Poissons Ratio (x) = 0.09018 0.04532
# Poissons Ratio (y) = 0.07517 -0.18898
# Poissons Ratio (z) = 0.06281 -0.31425
#
# Static dielectric constant tensor:
#      x y z
#    x 4.606070 0.000000 0.000000 
#    y 0.000000 4.723900 0.000000 
#    z 0.000000 0.000000 4.899240 
# 
# 
# High freq. dielectric constant tensor:
#      x y z
#    x 2.022910 0.000000 0.000000 
#    y 0.000000 2.025730 0.000000 
#    z 0.000000 0.000000 2.031590 
# 
# From -- ./inp_files/5841.got.cif
#   From: 2010.03.12/outbox.cif.g09.slc.cpg/sg68_3_cif.got.tgz:5841.got - 2010.04.10 23:14:56.
