data_PCOD8283632
_publ_section_title
;
Structure prediction by ZEFSAII (Michael W. Deem and Ramdas Pophale) SiO2 
 PCOD8283632
Probable space group: C C C A
;
_chemical_formula_sum "Si O2"
_cell_formula_units_Z 88
_cell_length_a 20.453191
_cell_length_b 12.604903
_cell_length_c 16.656429
_cell_angle_alpha 90.000000
_cell_angle_beta 90.000000
_cell_angle_gamma 90.000000
_cell_volume 4294.202099
_symmetry_space_group_name_H-M "C C C A"
_symmetry_group_IT_number 68
_space_group.IT_coordinate_system_code '2'
_symmetry_cell_setting 'orthorhombic'
loop_
_space_group_symop_operation_xyz
x,y,z
-x,1/2-y,z
x,1/2-y,1/2-z
-x,y,1/2-z
-x,-y,-z
x,1/2+y,-z
-x,1/2+y,1/2+z
x,-y,1/2+z
1/2+x,1/2+y,z
1/2-x,-y,z
1/2+x,-y,1/2-z
1/2-x,1/2+y,1/2-z
1/2-x,1/2-y,-z
1/2+x,y,-z
1/2-x,y,1/2+z
1/2+x,1/2-y,1/2+z
loop_
_atom_site_type_symbol
_atom_site_label
_atom_site_fract_x
_atom_site_fract_y
_atom_site_fract_z
Si Si1 0.691425 0.150106 0.289642
Si Si2 0.125608 0.006141 0.092019
Si Si3 0.710470 0.705408 0.075272
Si Si4 0.369182 0.905876 0.424438
Si Si5 0.499896 0.626697 0.344623
Si Si6 0.750000 0.500000 0.835281
O O1 0.651684 0.250000 0.250000
O O2 0.740027 0.204523 0.351870
O O3 0.644620 0.062983 0.329820
O O4 0.736252 0.099881 0.220759
O O5 0.182885 0.086693 0.065221
O O6 0.060680 0.069575 0.113280
O O7 0.116217 0.926181 0.018188
O O8 0.649840 0.783557 0.090932
O O9 0.750000 0.750000 0.000000
O O10 0.435030 0.930372 0.376289
O O11 0.312195 0.981511 0.392108
O O12 0.500000 0.750000 0.368890
O O13 0.500000 0.610902 0.250000
#
# Coordination Sequence:
#
# PCOD8283632 Si02
#       6
#    16  16  16  16  16   8
#     4  12  25  40  67 104 145 182 232 290 358 417
#     4  12  25  45  70  97 145 189 229 290 355 416
#     4  12  23  41  66 105 141 183 227 286 350 425
#     4  12  25  42  70 102 138 181 233 285 352 423
#     4  11  25  46  71  96 133 183 238 288 343 420
#     4  12  24  40  68 104 138 182 226 290 352 412
#
# _framework density 20.492747000000001
#
# number of rings (size 3 to 8) (size 9 to 14) (size 15 to 20)
#    0.000    0.182    7.273    2.727    0.000    0.000 
#    0.000    0.000    0.000    1.091    0.000    0.000 
#    0.000    0.000    0.000    0.000    0.000    0.000 
#
# Total GULP energy -545636.517972 kJ/mol
# GULP energy per Si atom -12400.829954 kJ/mol
# Density = 2.044610 g / cm^3
# Si number density = 20.492747 Si / 1000 Ang^3
#
#
#
# Elastic Constant Matrix: (Units=GPa)
#
#
# Indices 1 2 3 4 5 6 
#
# 1 129.6697 50.7606 50.3822 0.0000 0.0000 0.0000
# 2 50.7606 116.8937 39.9403 0.0000 0.0000 0.0000
# 3 50.3822 39.9403 85.5734 0.0000 0.0000 0.0000
# 4 0.0000 0.0000 0.0000 42.8822 0.0000 0.0000
# 5 0.0000 0.0000 0.0000 0.0000 26.3255 0.0000
# 6 0.0000 0.0000 0.0000 0.0000 0.0000 37.5755
#
#
#
# Elastic Compliance Matrix: (Units=1/GPa)
#
#
# Indices 1 2 3 4 5 6 
#
# 1 0.010816 -0.002999 -0.004968 0.000000 0.000000 0.000000
# 2 -0.002999 0.011010 -0.003373 0.000000 0.000000 0.000000
# 3 -0.004968 -0.003373 0.016185 0.000000 0.000000 0.000000
# 4 0.000000 0.000000 0.000000 0.023320 0.000000 0.000000
# 5 0.000000 0.000000 0.000000 0.000000 0.037986 0.000000
# 6 0.000000 0.000000 0.000000 0.000000 0.000000 0.026613
#
#
# Mechanical properties :
#
#
# Convention : Reuss Voigt Hill
#
# Bulk Modulus (GPa) = 65.22985 68.25589 66.74287
# Shear Modulus (GPa) = 32.52641 34.09353 33.30997
#
# Velocity S-wave (km/s) = 3.98831 4.08326 4.03606
# Velocity P-wave (km/s) = 7.28757 7.45723 7.37289
#
# Compressibility (1/GPa) = 0.01533040
#
# Stress axis : x y z
#
# Youngs Moduli (GPa) = 92.45144 90.82952 61.78481
#
# Poissons Ratio (x) = 0.27244 0.30697
# Poissons Ratio (y) = 0.27730 0.20838
# Poissons Ratio (z) = 0.45933 0.30634
#
# Static dielectric constant tensor:
#      x y z
#    x 3.579230 0.000000 0.000000 
#    y 0.000000 3.898890 0.000000 
#    z 0.000000 0.000000 4.086960 
# 
# 
# High freq. dielectric constant tensor:
#      x y z
#    x 1.789000 0.000000 0.000000 
#    y 0.000000 1.814220 0.000000 
#    z 0.000000 0.000000 1.816210 
# 
# From -- ./inp_files/32791.got.cif
#   From: 2010.03.12/outbox.cif.g09.slc.cpg/sg68_17_cif.got.tgz:32791.got - 2010.04.10 23:14:56.
