data_PCOD8283594
_publ_section_title
;
Structure prediction by ZEFSAII (Michael W. Deem and Ramdas Pophale) SiO2 
 PCOD8283594
Probable space group: C C C A
;
_chemical_formula_sum "Si O2"
_cell_formula_units_Z 68
_cell_length_a 15.029426
_cell_length_b 21.817884
_cell_length_c 9.464565
_cell_angle_alpha 90.000000
_cell_angle_beta 90.000000
_cell_angle_gamma 90.000000
_cell_volume 3103.528093
_symmetry_space_group_name_H-M "C C C A"
_symmetry_group_IT_number 68
_space_group.IT_coordinate_system_code '2'
_symmetry_cell_setting 'orthorhombic'
loop_
_space_group_symop_operation_xyz
x,y,z
-x,1/2-y,z
x,1/2-y,1/2-z
-x,y,1/2-z
-x,-y,-z
x,1/2+y,-z
-x,1/2+y,1/2+z
x,-y,1/2+z
1/2+x,1/2+y,z
1/2-x,-y,z
1/2+x,-y,1/2-z
1/2-x,1/2+y,1/2-z
1/2-x,1/2-y,-z
1/2+x,y,-z
1/2-x,y,1/2+z
1/2+x,1/2-y,1/2+z
loop_
_atom_site_type_symbol
_atom_site_label
_atom_site_fract_x
_atom_site_fract_y
_atom_site_fract_z
Si Si1 0.863793 0.660700 0.119753
Si Si2 0.894010 0.067706 0.260170
Si Si3 0.096175 0.528199 0.469772
Si Si4 0.500000 0.250000 0.250000
Si Si5 0.699905 0.183540 0.694827
O O1 0.906359 0.592548 0.115702
O O2 0.799790 0.666742 0.256302
O O3 0.942975 0.708394 0.143298
O O4 0.811138 0.678096 0.974917
O O5 0.865028 0.137511 0.279311
O O6 0.000000 0.064884 0.250000
O O7 0.853016 0.024586 0.382006
O O8 0.852522 0.040783 0.115295
O O9 0.000000 0.500000 0.500000
O O10 0.672453 0.250000 0.750000
#
# Coordination Sequence:
#
# PCOD8283594 Si02
#       5
#    16  16  16   4  16
#     4  11  26  45  70 100 139 185 235 294 353 435
#     4   9  20  38  63  96 128 175 224 277 350 415
#     4   9  20  39  64  97 132 173 225 281 339 408
#     4  12  28  44  74 104 130 196 240 280 384 416
#     4  11  24  45  66  98 141 177 232 293 352 415
#
# _framework density 21.910547000000001
#
# number of rings (size 3 to 8) (size 9 to 14) (size 15 to 20)
#    0.000    1.882    1.176    0.706    4.941    8.941 
#    0.000    4.706    0.000    0.000    0.000    0.000 
#    0.000    0.000    0.000    0.000    0.000    0.000 
#
# Total GULP energy -421348.431663 kJ/mol
# GULP energy per Si atom -12392.600931 kJ/mol
# Density = 2.186068 g / cm^3
# Si number density = 21.910547 Si / 1000 Ang^3
#
#
#
# Elastic Constant Matrix: (Units=GPa)
#
#
# Indices 1 2 3 4 5 6 
#
# 1 72.7858 52.9804 55.6411 0.0000 0.0000 0.0000
# 2 52.9804 200.5148 75.7082 0.0000 0.0000 0.0000
# 3 55.6411 75.7082 114.8072 0.0000 0.0000 0.0000
# 4 0.0000 0.0000 0.0000 30.6567 0.0000 0.0000
# 5 0.0000 0.0000 0.0000 0.0000 24.0279 0.0000
# 6 0.0000 0.0000 0.0000 0.0000 0.0000 41.6853
#
#
#
# Elastic Compliance Matrix: (Units=1/GPa)
#
#
# Indices 1 2 3 4 5 6 
#
# 1 0.022698 -0.002455 -0.009381 0.000000 0.000000 0.000000
# 2 -0.002455 0.006906 -0.003364 0.000000 0.000000 0.000000
# 3 -0.009381 -0.003364 0.015475 0.000000 0.000000 0.000000
# 4 0.000000 0.000000 0.000000 0.032619 0.000000 0.000000
# 5 0.000000 0.000000 0.000000 0.000000 0.041618 0.000000
# 6 0.000000 0.000000 0.000000 0.000000 0.000000 0.023989
#
#
# Mechanical properties :
#
#
# Convention : Reuss Voigt Hill
#
# Bulk Modulus (GPa) = 68.13079 84.08523 76.10801
# Shear Modulus (GPa) = 27.99553 32.85919 30.42736
#
# Velocity S-wave (km/s) = 3.57840 3.87679 3.73058
# Velocity P-wave (km/s) = 6.94519 7.64848 7.30531
#
# Compressibility (1/GPa) = 0.01467765
#
# Stress axis : x y z
#
# Youngs Moduli (GPa) = 44.05763 144.79946 64.61854
#
# Poissons Ratio (x) = 0.35550 0.60621
# Poissons Ratio (y) = 0.10817 0.21740
# Poissons Ratio (z) = 0.41332 0.48715
#
# Static dielectric constant tensor:
#      x y z
#    x 3.713650 0.000000 0.000000 
#    y 0.000000 4.448060 0.000000 
#    z 0.000000 0.000000 4.624810 
# 
# 
# High freq. dielectric constant tensor:
#      x y z
#    x 1.835180 0.000000 0.000000 
#    y 0.000000 1.885570 0.000000 
#    z 0.000000 0.000000 1.870180 
# 
# From -- ./inp_files/5924.got.cif
#   From: 2010.03.12/outbox.cif.g09.slc.cpg/sg68_3_cif.got.tgz:5924.got - 2010.04.10 23:14:56.
