data_PCOD8283579
_publ_section_title
;
Structure prediction by ZEFSAII (Michael W. Deem and Ramdas Pophale) SiO2 
 PCOD8283579
Probable space group: C C C A
;
_chemical_formula_sum "Si O2"
_cell_formula_units_Z 52
_cell_length_a 7.827573
_cell_length_b 13.177182
_cell_length_c 20.843065
_cell_angle_alpha 90.000000
_cell_angle_beta 90.000000
_cell_angle_gamma 90.000000
_cell_volume 2149.865319
_symmetry_space_group_name_H-M "C C C A"
_symmetry_group_IT_number 68
_space_group.IT_coordinate_system_code '2'
_symmetry_cell_setting 'orthorhombic'
loop_
_space_group_symop_operation_xyz
x,y,z
-x,1/2-y,z
x,1/2-y,1/2-z
-x,y,1/2-z
-x,-y,-z
x,1/2+y,-z
-x,1/2+y,1/2+z
x,-y,1/2+z
1/2+x,1/2+y,z
1/2-x,-y,z
1/2+x,-y,1/2-z
1/2-x,1/2+y,1/2-z
1/2-x,1/2-y,-z
1/2+x,y,-z
1/2-x,y,1/2+z
1/2+x,1/2-y,1/2+z
loop_
_atom_site_type_symbol
_atom_site_label
_atom_site_fract_x
_atom_site_fract_y
_atom_site_fract_z
Si Si1 0.210747 0.657225 0.546284
Si Si2 0.398335 0.637720 0.368273
Si Si3 0.929557 0.581806 0.074871
Si Si4 0.000000 0.250000 0.250000
O O1 0.250000 0.750000 0.500000
O O2 0.120916 0.569036 0.501339
O O3 0.379812 0.621542 0.582309
O O4 0.072073 0.688174 0.600345
O O5 0.211689 0.664462 0.398503
O O6 0.417734 0.517857 0.381467
O O7 0.390854 0.672427 0.294259
#
# Coordination Sequence:
#
# PCOD8283579 Si02
#       4
#    16  16  16   4
#     4  12  23  40  75 116 149 178 229 299 383 449
#     4  11  26  46  70 101 146 194 244 302 360 430
#     4  11  24  43  74 112 147 182 229 307 385 441
#     4  12  28  56  70  92 146 206 264 302 342 432
#
# _framework density 24.187560999999999
#
# number of rings (size 3 to 8) (size 9 to 14) (size 15 to 20)
#    0.000    0.615    3.077    4.615    4.308    0.000 
#   11.077    1.538    0.000    0.000    0.000    0.000 
#    0.000    0.000    0.000    0.000    0.000    0.000 
#
# Total GULP energy -322091.309054 kJ/mol
# GULP energy per Si atom -12388.127271 kJ/mol
# Density = 2.413251 g / cm^3
# Si number density = 24.187561 Si / 1000 Ang^3
#
#
#
# Elastic Constant Matrix: (Units=GPa)
#
#
# Indices 1 2 3 4 5 6 
#
# 1 234.1911 76.9809 67.1296 0.0000 0.0000 0.0000
# 2 76.9809 96.2468 58.3064 0.0000 0.0000 0.0000
# 3 67.1296 58.3064 168.4245 0.0000 0.0000 0.0000
# 4 0.0000 0.0000 0.0000 51.5851 0.0000 0.0000
# 5 0.0000 0.0000 0.0000 0.0000 19.7680 0.0000
# 6 0.0000 0.0000 0.0000 0.0000 0.0000 32.5342
#
#
#
# Elastic Compliance Matrix: (Units=1/GPa)
#
#
# Indices 1 2 3 4 5 6 
#
# 1 0.005901 -0.004169 -0.000909 0.000000 0.000000 0.000000
# 2 -0.004169 0.016093 -0.003909 0.000000 0.000000 0.000000
# 3 -0.000909 -0.003909 0.007653 0.000000 0.000000 0.000000
# 4 0.000000 0.000000 0.000000 0.019385 0.000000 0.000000
# 5 0.000000 0.000000 0.000000 0.000000 0.050587 0.000000
# 6 0.000000 0.000000 0.000000 0.000000 0.000000 0.030737
#
#
# Mechanical properties :
#
#
# Convention : Reuss Voigt Hill
#
# Bulk Modulus (GPa) = 85.67355 100.41070 93.04213
# Shear Modulus (GPa) = 32.84689 40.54049 36.69369
#
# Velocity S-wave (km/s) = 3.68911 4.09845 3.89916
# Velocity P-wave (km/s) = 7.32417 7.99999 7.66953
#
# Compressibility (1/GPa) = 0.01167221
#
# Stress axis : x y z
#
# Youngs Moduli (GPa) = 169.46399 62.13876 130.66915
#
# Poissons Ratio (x) = 0.25908 0.11873
# Poissons Ratio (y) = 0.70655 0.51084
# Poissons Ratio (z) = 0.15398 0.24293
#
# Static dielectric constant tensor:
#      x y z
#    x 5.418310 0.000000 0.000000 
#    y 0.000000 4.732020 0.000000 
#    z 0.000000 0.000000 4.087520 
# 
# 
# High freq. dielectric constant tensor:
#      x y z
#    x 1.988780 0.000000 0.000000 
#    y 0.000000 2.010000 0.000000 
#    z 0.000000 0.000000 1.902960 
# 
# From -- ./inp_files/35496.got.cif
#   From: 2010.03.12/outbox.cif.g09.slc.cpg/sg68_18_cif.got.tgz:35496.got - 2010.04.10 23:14:56.
