data_PCOD8283456
_publ_section_title
;
Structure prediction by ZEFSAII (Michael W. Deem and Ramdas Pophale) SiO2 
 PCOD8283456
Probable space group: C C C A
;
_chemical_formula_sum "Si O2"
_cell_formula_units_Z 60
_cell_length_a 11.903718
_cell_length_b 9.558304
_cell_length_c 22.316586
_cell_angle_alpha 90.000000
_cell_angle_beta 90.000000
_cell_angle_gamma 90.000000
_cell_volume 2539.166769
_symmetry_space_group_name_H-M "C C C A"
_symmetry_group_IT_number 68
_space_group.IT_coordinate_system_code '2'
_symmetry_cell_setting 'orthorhombic'
loop_
_space_group_symop_operation_xyz
x,y,z
-x,1/2-y,z
x,1/2-y,1/2-z
-x,y,1/2-z
-x,-y,-z
x,1/2+y,-z
-x,1/2+y,1/2+z
x,-y,1/2+z
1/2+x,1/2+y,z
1/2-x,-y,z
1/2+x,-y,1/2-z
1/2-x,1/2+y,1/2-z
1/2-x,1/2-y,-z
1/2+x,y,-z
1/2-x,y,1/2+z
1/2+x,1/2-y,1/2+z
loop_
_atom_site_type_symbol
_atom_site_label
_atom_site_fract_x
_atom_site_fract_y
_atom_site_fract_z
Si Si1 0.110888 0.156832 0.055301
Si Si2 0.878562 0.484016 0.176436
Si Si3 0.687543 0.634734 0.926917
Si Si4 0.000000 0.250000 0.250000
Si Si5 0.500000 0.750000 0.841389
O O1 0.104453 0.033196 0.104426
O O2 0.223214 0.242583 0.067768
O O3 0.000000 0.250000 0.058475
O O4 0.125515 0.091501 0.989148
O O5 0.750000 0.500000 0.194959
O O6 0.944811 0.624294 0.197585
O O7 0.922820 0.345330 0.208310
O O8 0.750000 0.500000 0.900545
O O9 0.595771 0.680056 0.880292
#
# Coordination Sequence:
#
# PCOD8283456 Si02
#       5
#    16  16  16   4   8
#     4  11  22  42  69 104 154 194 240 287 353 434
#     4  12  27  51  76 105 141 189 242 308 364 426
#     4  11  24  38  68 112 153 196 231 284 353 443
#     4  12  32  52  76 102 136 184 248 320 366 416
#     4  12  26  44  76 108 144 190 240 290 360 440
#
# _framework density 23.629798999999998
#
# number of rings (size 3 to 8) (size 9 to 14) (size 15 to 20)
#    0.000    0.533    5.333    2.400    3.733    4.800 
#    0.000    0.000    0.000    0.000    0.000    0.000 
#    0.000    0.000    0.000    0.000    0.000    0.000 
#
# Total GULP energy -372118.486376 kJ/mol
# GULP energy per Si atom -12403.949546 kJ/mol
# Density = 2.357602 g / cm^3
# Si number density = 23.629799 Si / 1000 Ang^3
#
#
#
# Elastic Constant Matrix: (Units=GPa)
#
#
# Indices 1 2 3 4 5 6 
#
# 1 168.4131 62.9008 32.9301 0.0000 0.0000 0.0000
# 2 62.9008 151.0265 33.0313 0.0000 0.0000 0.0000
# 3 32.9301 33.0313 63.2617 0.0000 0.0000 0.0000
# 4 0.0000 0.0000 0.0000 -24.9085 0.0000 0.0000
# 5 0.0000 0.0000 0.0000 0.0000 35.7326 0.0000
# 6 0.0000 0.0000 0.0000 0.0000 0.0000 51.4686
#
#
#
# Elastic Compliance Matrix: (Units=1/GPa)
#
#
# Indices 1 2 3 4 5 6 
#
# 1 0.007372 -0.002519 -0.002522 0.000000 0.000000 0.000000
# 2 -0.002519 0.008335 -0.003041 0.000000 0.000000 0.000000
# 3 -0.002522 -0.003041 0.018708 0.000000 0.000000 0.000000
# 4 0.000000 0.000000 0.000000 -0.040147 0.000000 0.000000
# 5 0.000000 0.000000 0.000000 0.000000 0.027986 0.000000
# 6 0.000000 0.000000 0.000000 0.000000 0.000000 0.019429
#
#
# Mechanical properties :
#
#
# Convention : Reuss Voigt Hill
#
# Bulk Modulus (GPa) = 54.79063 71.15841 62.97452
# Shear Modulus (GPa) = 78.20930 29.38114 53.79522
#
# Velocity S-wave (km/s) = 5.75931 3.53000 4.77653
# Velocity P-wave (km/s) = 8.21362 6.84060 7.55835
#
# Compressibility (1/GPa) = 0.01825130
#
# Stress axis : x y z
#
# Youngs Moduli (GPa) = 135.65570 119.96925 53.45257
#
# Poissons Ratio (x) = 0.30215 0.13482
# Poissons Ratio (y) = 0.34166 0.16256
# Poissons Ratio (z) = 0.34214 0.36486
#
# Static dielectric constant tensor:
#      x y z
#    x 4.639450 0.000000 0.000000 
#    y 0.000000 4.588570 0.000000 
#    z 0.000000 0.000000 4.163670 
# 
# 
# High freq. dielectric constant tensor:
#      x y z
#    x 1.963410 0.000000 0.000000 
#    y 0.000000 1.946070 0.000000 
#    z 0.000000 0.000000 1.915460 
# 
# From -- ./inp_files/48757.got.cif
#   From: 2010.03.12/outbox.cif.g09.slc.cpg/sg68_25_cif.got.tgz:48757.got - 2010.04.10 23:14:56.
