data_PCOD8283492
_publ_section_title
;
Structure prediction by ZEFSAII (Michael W. Deem and Ramdas Pophale) SiO2 
 PCOD8283492
Probable space group: C C C A
;
_chemical_formula_sum "Si O2"
_cell_formula_units_Z 80
_cell_length_a 18.946324
_cell_length_b 13.939805
_cell_length_c 13.781863
_cell_angle_alpha 90.000000
_cell_angle_beta 90.000000
_cell_angle_gamma 90.000000
_cell_volume 3639.901128
_symmetry_space_group_name_H-M "C C C A"
_symmetry_group_IT_number 68
_space_group.IT_coordinate_system_code '2'
_symmetry_cell_setting 'orthorhombic'
loop_
_space_group_symop_operation_xyz
x,y,z
-x,1/2-y,z
x,1/2-y,1/2-z
-x,y,1/2-z
-x,-y,-z
x,1/2+y,-z
-x,1/2+y,1/2+z
x,-y,1/2+z
1/2+x,1/2+y,z
1/2-x,-y,z
1/2+x,-y,1/2-z
1/2-x,1/2+y,1/2-z
1/2-x,1/2-y,-z
1/2+x,y,-z
1/2-x,y,1/2+z
1/2+x,1/2-y,1/2+z
loop_
_atom_site_type_symbol
_atom_site_label
_atom_site_fract_x
_atom_site_fract_y
_atom_site_fract_z
Si Si1 0.317501 0.892111 0.406262
Si Si2 0.674815 0.467831 0.698658
Si Si3 0.922810 0.733679 0.008505
Si Si4 0.922882 0.147798 0.790405
Si Si5 0.163739 0.591505 0.009620
O O1 0.368764 0.803345 0.427069
O O2 0.242760 0.876129 0.459792
O O3 0.310750 0.898840 0.290216
O O4 0.353721 0.988498 0.445936
O O5 0.750000 0.500000 0.657655
O O6 0.628760 0.559308 0.733080
O O7 0.645728 0.409583 0.606195
O O8 0.891595 0.832435 0.053231
O O9 0.000000 0.750000 0.961922
O O10 0.929194 0.656053 0.093717
O O11 0.894150 0.250000 0.750000
O O12 0.000000 0.123800 0.750000
#
# Coordination Sequence:
#
# PCOD8283492 Si02
#       5
#    16  16  16  16  16
#     4  11  24  42  68  98 131 171 218 271 328 381
#     4  12  23  43  67  99 131 169 218 271 326 387
#     4  12  25  43  66  95 135 174 216 267 325 390
#     4  11  23  41  65  98 127 170 224 266 311 385
#     4  11  23  44  68  97 133 169 220 272 327 384
#
# _framework density 21.978618999999998
#
# number of rings (size 3 to 8) (size 9 to 14) (size 15 to 20)
#    0.000    0.600    8.000    1.800    0.000    3.200 
#    0.000    1.000    0.000    0.000    0.000    0.000 
#    0.000    0.000    0.000    0.000    0.000    0.000 
#
# Total GULP energy -495972.112851 kJ/mol
# GULP energy per Si atom -12399.302821 kJ/mol
# Density = 2.192859 g / cm^3
# Si number density = 21.978619 Si / 1000 Ang^3
#
#
#
# Elastic Constant Matrix: (Units=GPa)
#
#
# Indices 1 2 3 4 5 6 
#
# 1 106.0301 51.9299 2.7809 0.0000 0.0000 0.0000
# 2 51.9299 63.5344 -2.8677 0.0000 0.0000 0.0000
# 3 2.7809 -2.8677 104.0138 0.0000 0.0000 0.0000
# 4 0.0000 0.0000 0.0000 19.7260 0.0000 0.0000
# 5 0.0000 0.0000 0.0000 0.0000 15.0257 0.0000
# 6 0.0000 0.0000 0.0000 0.0000 0.0000 32.3546
#
#
#
# Elastic Compliance Matrix: (Units=1/GPa)
#
#
# Indices 1 2 3 4 5 6 
#
# 1 0.015790 -0.012941 -0.000779 0.000000 0.000000 0.000000
# 2 -0.012941 0.026365 0.001073 0.000000 0.000000 0.000000
# 3 -0.000779 0.001073 0.009665 0.000000 0.000000 0.000000
# 4 0.000000 0.000000 0.000000 0.050694 0.000000 0.000000
# 5 0.000000 0.000000 0.000000 0.000000 0.066553 0.000000
# 6 0.000000 0.000000 0.000000 0.000000 0.000000 0.030907
#
#
# Mechanical properties :
#
#
# Convention : Reuss Voigt Hill
#
# Bulk Modulus (GPa) = 37.69956 41.91828 39.80892
# Shear Modulus (GPa) = 21.35751 28.20362 24.78056
#
# Velocity S-wave (km/s) = 3.12066 3.58611 3.36145
# Velocity P-wave (km/s) = 5.49315 6.02168 5.76348
#
# Compressibility (1/GPa) = 0.02652551
#
# Stress axis : x y z
#
# Youngs Moduli (GPa) = 63.33235 37.92885 103.47134
#
# Poissons Ratio (x) = 0.49083 0.08060
# Poissons Ratio (y) = 0.81958 -0.11101
# Poissons Ratio (z) = 0.04933 -0.04069
#
# Static dielectric constant tensor:
#      x y z
#    x 3.817610 0.000000 0.000000 
#    y 0.000000 3.826500 0.000000 
#    z 0.000000 0.000000 3.935880 
# 
# 
# High freq. dielectric constant tensor:
#      x y z
#    x 1.853960 0.000000 0.000000 
#    y 0.000000 1.855240 0.000000 
#    z 0.000000 0.000000 1.872360 
# 
# From -- ./inp_files/24528.got.cif
#   From: 2010.03.12/outbox.cif.g09.slc.cpg/sg68_13_cif.got.tgz:24528.got - 2010.04.10 23:14:56.
