data_PCOD8283673
_publ_section_title
;
Structure prediction by ZEFSAII (Michael W. Deem and Ramdas Pophale) SiO2 
 PCOD8283673
Probable space group: C C C A
;
_chemical_formula_sum "Si O2"
_cell_formula_units_Z 68
_cell_length_a 17.990080
_cell_length_b 16.805557
_cell_length_c 9.378000
_cell_angle_alpha 90.000000
_cell_angle_beta 90.000000
_cell_angle_gamma 90.000000
_cell_volume 2835.281827
_symmetry_space_group_name_H-M "C C C A"
_symmetry_group_IT_number 68
_space_group.IT_coordinate_system_code '2'
_symmetry_cell_setting 'orthorhombic'
loop_
_space_group_symop_operation_xyz
x,y,z
-x,1/2-y,z
x,1/2-y,1/2-z
-x,y,1/2-z
-x,-y,-z
x,1/2+y,-z
-x,1/2+y,1/2+z
x,-y,1/2+z
1/2+x,1/2+y,z
1/2-x,-y,z
1/2+x,-y,1/2-z
1/2-x,1/2+y,1/2-z
1/2-x,1/2-y,-z
1/2+x,y,-z
1/2-x,y,1/2+z
1/2+x,1/2-y,1/2+z
loop_
_atom_site_type_symbol
_atom_site_label
_atom_site_fract_x
_atom_site_fract_y
_atom_site_fract_z
Si Si1 0.995273 0.078766 0.089537
Si Si2 0.729680 0.908069 0.744027
Si Si3 0.000000 0.750000 0.250000
Si Si4 0.614304 0.670708 0.949382
Si Si5 0.660829 0.159681 0.532286
O O1 0.000000 0.050113 0.250000
O O2 0.923751 0.129412 0.040249
O O3 0.070698 0.130317 0.078523
O O4 0.000000 0.000000 0.000000
O O5 0.665026 0.894575 0.628686
O O6 0.706612 0.879694 0.901628
O O7 0.800477 0.858919 0.683947
O O8 0.750000 0.000000 0.751513
O O9 0.051558 0.692691 0.161747
O O10 0.661637 0.745615 0.004975
#
# Coordination Sequence:
#
# PCOD8283673 Si02
#       5
#    16  16   4  16  16
#     4  12  30  50  82 116 156 203 267 337 404 474
#     4  12  27  47  75 113 162 209 259 321 397 472
#     4  12  20  48  78 108 148 208 278 328 396 456
#     4  12  24  49  80 109 154 210 271 331 393 469
#     4  12  27  49  77 114 157 210 262 323 393 479
#
# _framework density 23.983506999999999
#
# number of rings (size 3 to 8) (size 9 to 14) (size 15 to 20)
#    0.000    0.000    4.706    2.824   11.529    1.882 
#    0.000    0.000    0.000    0.000    0.000    0.000 
#    0.000    0.000    0.000    0.000    0.000    0.000 
#
# Total GULP energy -421663.906107 kJ/mol
# GULP energy per Si atom -12401.879591 kJ/mol
# Density = 2.392892 g / cm^3
# Si number density = 23.983507 Si / 1000 Ang^3
#
#
#
# Elastic Constant Matrix: (Units=GPa)
#
#
# Indices 1 2 3 4 5 6 
#
# 1 117.9319 56.0165 43.6077 0.0000 0.0000 0.0000
# 2 56.0165 167.0862 72.1236 0.0000 0.0000 0.0000
# 3 43.6077 72.1236 134.5455 0.0000 0.0000 0.0000
# 4 0.0000 0.0000 0.0000 31.1640 0.0000 0.0000
# 5 0.0000 0.0000 0.0000 0.0000 63.0209 0.0000
# 6 0.0000 0.0000 0.0000 0.0000 0.0000 55.5638
#
#
#
# Elastic Compliance Matrix: (Units=1/GPa)
#
#
# Indices 1 2 3 4 5 6 
#
# 1 0.010471 -0.002661 -0.001967 0.000000 0.000000 0.000000
# 2 -0.002661 0.008463 -0.003674 0.000000 0.000000 0.000000
# 3 -0.001967 -0.003674 0.010040 0.000000 0.000000 0.000000
# 4 0.000000 0.000000 0.000000 0.032088 0.000000 0.000000
# 5 0.000000 0.000000 0.000000 0.000000 0.015868 0.000000
# 6 0.000000 0.000000 0.000000 0.000000 0.000000 0.017997
#
#
# Mechanical properties :
#
#
# Convention : Reuss Voigt Hill
#
# Bulk Modulus (GPa) = 80.85097 84.78436 82.81767
# Shear Modulus (GPa) = 43.23205 46.47080 44.85143
#
# Velocity S-wave (km/s) = 4.25028 4.40661 4.32915
# Velocity P-wave (km/s) = 7.60728 7.83063 7.71977
#
# Compressibility (1/GPa) = 0.01236844
#
# Stress axis : x y z
#
# Youngs Moduli (GPa) = 95.50222 118.15995 99.60630
#
# Poissons Ratio (x) = 0.31446 0.19594
# Poissons Ratio (y) = 0.25416 0.36596
# Poissons Ratio (z) = 0.18787 0.43413
#
# Static dielectric constant tensor:
#      x y z
#    x 4.490130 0.000000 0.000000 
#    y 0.000000 4.282110 0.000000 
#    z 0.000000 0.000000 4.177290 
# 
# 
# High freq. dielectric constant tensor:
#      x y z
#    x 1.978080 0.000000 0.000000 
#    y 0.000000 1.956290 0.000000 
#    z 0.000000 0.000000 1.963200 
# 
# From -- ./inp_files/6840.got.cif
#   From: 2010.03.12/outbox.cif.g09.slc.cpg/sg68_4_cif.got.tgz:6840.got - 2010.04.10 23:14:56.
