data_PCOD8283851
_publ_section_title
;
Structure prediction by ZEFSAII (Michael W. Deem and Ramdas Pophale) SiO2 
 PCOD8283851
Probable space group: F M M M
;
_chemical_formula_sum "Si O2"
_cell_formula_units_Z 144
_cell_length_a 22.864310
_cell_length_b 21.269057
_cell_length_c 17.207675
_cell_angle_alpha 90.000000
_cell_angle_beta 90.000000
_cell_angle_gamma 90.000000
_cell_volume 8368.132148
_symmetry_space_group_name_H-M "F M M M"
_symmetry_group_IT_number 69
_symmetry_cell_setting 'orthorhombic'
loop_
_space_group_symop_operation_xyz
x,y,z
-x,-y,z
x,-y,-z
-x,y,-z
-x,-y,-z
x,y,-z
-x,y,z
x,-y,z
x,1/2+y,1/2+z
-x,1/2-y,1/2+z
x,1/2-y,1/2-z
-x,1/2+y,1/2-z
-x,1/2-y,1/2-z
x,1/2+y,1/2-z
-x,1/2+y,1/2+z
x,1/2-y,1/2+z
1/2+x,y,1/2+z
1/2-x,-y,1/2+z
1/2+x,-y,1/2-z
1/2-x,y,1/2-z
1/2-x,-y,1/2-z
1/2+x,y,1/2-z
1/2-x,y,1/2+z
1/2+x,-y,1/2+z
1/2+x,1/2+y,z
1/2-x,1/2-y,z
1/2+x,1/2-y,-z
1/2-x,1/2+y,-z
1/2-x,1/2-y,-z
1/2+x,1/2+y,-z
1/2-x,1/2+y,z
1/2+x,1/2-y,z
loop_
_atom_site_type_symbol
_atom_site_label
_atom_site_fract_x
_atom_site_fract_y
_atom_site_fract_z
Si Si1 0.352758 0.108997 0.356859
Si Si2 0.265750 0.430625 0.587723
Si Si3 0.568824 0.000000 0.589103
Si Si4 0.812009 0.662910 0.793181
Si Si5 0.680189 0.241374 0.415205
O O1 0.297166 0.064594 0.371079
O O2 0.408755 0.065540 0.373598
O O3 0.356838 0.132743 0.267862
O O4 0.343618 0.170169 0.411248
O O5 0.259978 0.404639 0.500000
O O6 0.293526 0.500000 0.588176
O O7 0.306721 0.385000 0.635731
O O8 0.500000 0.000000 0.599621
O O9 0.588911 0.000000 0.500000
O O10 0.750000 0.677963 0.750000
O O11 0.841245 0.723442 0.836137
O O12 0.658629 0.267205 0.500000
O O13 0.750000 0.250000 0.411623
#
# Coordination Sequence:
#
# PCOD8283851 Si02
#       5
#    32  32  16  32  32
#     4  11  21  31  51  73 102 135 176 217 259 302
#     4  10  18  27  42  67 106 144 172 198 240 308
#     4  11  24  42  59  74  95 131 182 233 274 308
#     4  10  20  28  45  70 109 141 172 196 242 309
#     4  11  19  29  46  72 108 148 176 199 241 310
#
# _framework density 17.208141000000001
#
# number of rings (size 3 to 8) (size 9 to 14) (size 15 to 20)
#    0.000    1.444    5.556    3.333    1.556    1.333 
#    0.000    0.000    0.000    2.667    0.000    0.000 
#    0.000    6.222    0.000    0.000    0.000    0.000 
#
# Total GULP energy -445997.364323 kJ/mol
# GULP energy per Si atom -12388.815676 kJ/mol
# Density = 1.716897 g / cm^3
# Si number density = 17.208141 Si / 1000 Ang^3
#
#
#
# Elastic Constant Matrix: (Units=GPa)
#
#
# Indices 1 2 3 4 5 6 
#
# 1 36.9852 29.5321 19.1303 0.0000 0.0000 0.0000
# 2 29.5321 111.9203 51.8674 0.0000 0.0000 0.0000
# 3 19.1303 51.8674 140.9550 0.0000 0.0000 0.0000
# 4 0.0000 0.0000 0.0000 8.6727 0.0000 0.0000
# 5 0.0000 0.0000 0.0000 0.0000 13.4492 0.0000
# 6 0.0000 0.0000 0.0000 0.0000 0.0000 15.4272
#
#
#
# Elastic Compliance Matrix: (Units=1/GPa)
#
#
# Indices 1 2 3 4 5 6 
#
# 1 0.034555 -0.008372 -0.001609 0.000000 0.000000 0.000000
# 2 -0.008372 0.012800 -0.003574 0.000000 0.000000 0.000000
# 3 -0.001609 -0.003574 0.008628 0.000000 0.000000 0.000000
# 4 0.000000 0.000000 0.000000 0.115304 0.000000 0.000000
# 5 0.000000 0.000000 0.000000 0.000000 0.074354 0.000000
# 6 0.000000 0.000000 0.000000 0.000000 0.000000 0.064821
#
#
# Mechanical properties :
#
#
# Convention : Reuss Voigt Hill
#
# Bulk Modulus (GPa) = 34.63437 54.54667 44.59052
# Shear Modulus (GPa) = 14.40106 20.13188 17.26647
#
# Velocity S-wave (km/s) = 2.89602 3.42410 3.17107
# Velocity P-wave (km/s) = 5.59937 6.88474 6.27505
#
# Compressibility (1/GPa) = 0.02887306
#
# Stress axis : x y z
#
# Youngs Moduli (GPa) = 28.93917 78.12287 115.90274
#
# Poissons Ratio (x) = 0.65407 0.18649
# Poissons Ratio (y) = 0.24229 0.41422
# Poissons Ratio (z) = 0.04656 0.27920
#
# Static dielectric constant tensor:
#      x y z
#    x 2.477160 0.000000 0.000000 
#    y 0.000000 3.497200 0.000000 
#    z 0.000000 0.000000 3.673660 
# 
# 
# High freq. dielectric constant tensor:
#      x y z
#    x 1.557150 0.000000 0.000000 
#    y 0.000000 1.687250 0.000000 
#    z 0.000000 0.000000 1.694050 
# 
# From -- ./inp_files/24453.got.cif
#   From: 2010.03.12/outbox.cif.g09.slc.cpg/sg69_13_cif.got.tgz:24453.got - 2010.04.10 23:52:46.
