data_PCOD8283597
_publ_section_title
;
Structure prediction by ZEFSAII (Michael W. Deem and Ramdas Pophale) SiO2 
 PCOD8283597
Probable space group: C C C A
;
_chemical_formula_sum "Si O2"
_cell_formula_units_Z 48
_cell_length_a 25.141758
_cell_length_b 9.802692
_cell_length_c 8.834066
_cell_angle_alpha 90.000000
_cell_angle_beta 90.000000
_cell_angle_gamma 90.000000
_cell_volume 2177.216609
_symmetry_space_group_name_H-M "C C C A"
_symmetry_group_IT_number 68
_space_group.IT_coordinate_system_code '2'
_symmetry_cell_setting 'orthorhombic'
loop_
_space_group_symop_operation_xyz
x,y,z
-x,1/2-y,z
x,1/2-y,1/2-z
-x,y,1/2-z
-x,-y,-z
x,1/2+y,-z
-x,1/2+y,1/2+z
x,-y,1/2+z
1/2+x,1/2+y,z
1/2-x,-y,z
1/2+x,-y,1/2-z
1/2-x,1/2+y,1/2-z
1/2-x,1/2-y,-z
1/2+x,y,-z
1/2-x,y,1/2+z
1/2+x,1/2-y,1/2+z
loop_
_atom_site_type_symbol
_atom_site_label
_atom_site_fract_x
_atom_site_fract_y
_atom_site_fract_z
Si Si1 0.475419 0.879245 0.913833
Si Si2 0.852565 0.620203 0.355404
Si Si3 0.799533 0.102384 0.325391
O O1 0.500000 0.750000 0.000896
O O2 0.500000 0.883115 0.750000
O O3 0.412169 0.874417 0.915777
O O4 0.500000 0.000000 0.000000
O O5 0.839412 0.750000 0.250000
O O6 0.846277 0.477601 0.264172
O O7 0.813568 0.626050 0.499442
O O8 0.787963 0.250000 0.250000
O O9 0.750000 0.000000 0.312077
#
# Coordination Sequence:
#
# PCOD8283597 Si02
#       3
#    16  16  16
#     4  11  24  45  69 104 145 188 233 291 349 425
#     4  12  25  47  74 105 146 189 242 295 360 429
#     4  12  28  48  75 106 143 191 240 302 363 431
#
# _framework density 22.046496999999999
#
# number of rings (size 3 to 8) (size 9 to 14) (size 15 to 20)
#    0.000    0.333    3.333    6.000    4.667    4.667 
#    0.000    1.667    0.000    0.000    0.000    0.000 
#    0.000    0.000    0.000    0.000    0.000    0.000 
#
# Total GULP energy -297540.274505 kJ/mol
# GULP energy per Si atom -12397.511438 kJ/mol
# Density = 2.199632 g / cm^3
# Si number density = 22.046497 Si / 1000 Ang^3
#
#
#
# Elastic Constant Matrix: (Units=GPa)
#
#
# Indices 1 2 3 4 5 6 
#
# 1 118.5745 73.7240 30.7801 0.0000 0.0000 0.0000
# 2 73.7240 236.5457 86.7727 0.0000 0.0000 0.0000
# 3 30.7801 86.7727 121.2315 0.0000 0.0000 0.0000
# 4 0.0000 0.0000 0.0000 68.1452 0.0000 0.0000
# 5 0.0000 0.0000 0.0000 0.0000 13.3913 0.0000
# 6 0.0000 0.0000 0.0000 0.0000 0.0000 41.8216
#
#
#
# Elastic Compliance Matrix: (Units=1/GPa)
#
#
# Indices 1 2 3 4 5 6 
#
# 1 0.010478 -0.003105 -0.000438 0.000000 0.000000 0.000000
# 2 -0.003105 0.006653 -0.003974 0.000000 0.000000 0.000000
# 3 -0.000438 -0.003974 0.011204 0.000000 0.000000 0.000000
# 4 0.000000 0.000000 0.000000 0.014675 0.000000 0.000000
# 5 0.000000 0.000000 0.000000 0.000000 0.074675 0.000000
# 6 0.000000 0.000000 0.000000 0.000000 0.000000 0.023911
#
#
# Mechanical properties :
#
#
# Convention : Reuss Voigt Hill
#
# Bulk Modulus (GPa) = 75.17746 95.43393 85.30569
# Shear Modulus (GPa) = 31.04395 43.67663 37.36029
#
# Velocity S-wave (km/s) = 3.75655 4.45580 4.12103
# Velocity P-wave (km/s) = 7.27936 8.35786 7.83718
#
# Compressibility (1/GPa) = 0.01330186
#
# Stress axis : x y z
#
# Youngs Moduli (GPa) = 95.44088 150.31162 89.25448
#
# Poissons Ratio (x) = 0.46671 0.03908
# Poissons Ratio (y) = 0.29634 0.35465
# Poissons Ratio (z) = 0.04179 0.59726
#
# Static dielectric constant tensor:
#      x y z
#    x 4.173340 0.000000 0.000000 
#    y 0.000000 4.116440 0.000000 
#    z 0.000000 0.000000 4.128660 
# 
# 
# High freq. dielectric constant tensor:
#      x y z
#    x 1.880390 0.000000 0.000000 
#    y 0.000000 1.894530 0.000000 
#    z 0.000000 0.000000 1.873170 
# 
# From -- ./inp_files/3281.got.cif
#   From: 2010.03.12/outbox.cif.g09.slc.cpg/sg68_2_cif.got.tgz:3281.got - 2010.04.10 23:14:56.
