data_PCOD8283822
_publ_section_title
;
Structure prediction by ZEFSAII (Michael W. Deem and Ramdas Pophale) SiO2 
 PCOD8283822
Probable space group: F M M M
;
_chemical_formula_sum "Si O2"
_cell_formula_units_Z 160
_cell_length_a 18.508741
_cell_length_b 19.208404
_cell_length_c 26.491457
_cell_angle_alpha 90.000000
_cell_angle_beta 90.000000
_cell_angle_gamma 90.000000
_cell_volume 9418.332192
_symmetry_space_group_name_H-M "F M M M"
_symmetry_group_IT_number 69
_symmetry_cell_setting 'orthorhombic'
loop_
_space_group_symop_operation_xyz
x,y,z
-x,-y,z
x,-y,-z
-x,y,-z
-x,-y,-z
x,y,-z
-x,y,z
x,-y,z
x,1/2+y,1/2+z
-x,1/2-y,1/2+z
x,1/2-y,1/2-z
-x,1/2+y,1/2-z
-x,1/2-y,1/2-z
x,1/2+y,1/2-z
-x,1/2+y,1/2+z
x,1/2-y,1/2+z
1/2+x,y,1/2+z
1/2-x,-y,1/2+z
1/2+x,-y,1/2-z
1/2-x,y,1/2-z
1/2-x,-y,1/2-z
1/2+x,y,1/2-z
1/2-x,y,1/2+z
1/2+x,-y,1/2+z
1/2+x,1/2+y,z
1/2-x,1/2-y,z
1/2+x,1/2-y,-z
1/2-x,1/2+y,-z
1/2-x,1/2-y,-z
1/2+x,1/2+y,-z
1/2-x,1/2+y,z
1/2+x,1/2-y,z
loop_
_atom_site_type_symbol
_atom_site_label
_atom_site_fract_x
_atom_site_fract_y
_atom_site_fract_z
Si Si1 0.860237 0.227958 0.441878
Si Si2 0.580374 0.000000 0.109610
Si Si3 0.225589 0.171799 0.302374
Si Si4 0.578719 0.650690 0.649948
Si Si5 0.734292 0.000000 0.942313
Si Si6 0.277947 0.854582 0.590364
O O1 0.888088 0.226741 0.500000
O O2 0.915864 0.190279 0.404162
O O3 0.786839 0.184296 0.438034
O O4 0.848524 0.308355 0.423326
O O5 0.585973 0.931974 0.143963
O O6 0.651165 0.000000 0.075251
O O7 0.500000 0.000000 0.082185
O O8 0.250000 0.134046 0.250000
O O9 0.250000 0.250000 0.299853
O O10 0.139123 0.172657 0.309706
O O11 0.265272 0.137338 0.349800
O O12 0.500000 0.669325 0.672375
O O13 0.782880 0.066349 0.927669
O O14 0.722259 0.000000 0.000000
#
# Coordination Sequence:
#
# PCOD8283822 Si02
#       6
#    32  16  32  32  16  32
#     4  10  17  29  48  69  98 137 173 205 244 293
#     4  10  20  31  44  66 108 145 163 194 244 307
#     4  10  18  33  55  75  99 130 173 218 263 301
#     4  10  20  34  50  75 107 137 168 207 253 305
#     4  12  20  29  48  74 105 138 170 207 258 313
#     4  10  18  31  46  72 102 131 168 221 255 288
#
# _framework density 16.988144999999999
#
# number of rings (size 3 to 8) (size 9 to 14) (size 15 to 20)
#    0.000    1.800    8.000    2.400    0.000    0.600 
#    0.000    6.000    0.000    0.000    0.000    0.700 
#    0.000    2.400    0.000    0.000    0.000    0.000 
#
# Total GULP energy -495531.693173 kJ/mol
# GULP energy per Si atom -12388.292329 kJ/mol
# Density = 1.694948 g / cm^3
# Si number density = 16.988145 Si / 1000 Ang^3
#
#
#
# Elastic Constant Matrix: (Units=GPa)
#
#
# Indices 1 2 3 4 5 6 
#
# 1 82.5698 41.2066 51.1786 0.0000 0.0000 0.0000
# 2 41.2066 106.4354 2.1676 0.0000 0.0000 0.0000
# 3 51.1786 2.1676 85.4800 0.0000 0.0000 0.0000
# 4 0.0000 0.0000 0.0000 18.2668 0.0000 0.0000
# 5 0.0000 0.0000 0.0000 0.0000 15.5079 0.0000
# 6 0.0000 0.0000 0.0000 0.0000 0.0000 -11.8613
#
#
#
# Elastic Compliance Matrix: (Units=1/GPa)
#
#
# Indices 1 2 3 4 5 6 
#
# 1 0.027059 -0.010151 -0.015943 0.000000 0.000000 0.000000
# 2 -0.010151 0.013208 0.005743 0.000000 0.000000 0.000000
# 3 -0.015943 0.005743 0.021099 0.000000 0.000000 0.000000
# 4 0.000000 0.000000 0.000000 0.054744 0.000000 0.000000
# 5 0.000000 0.000000 0.000000 0.000000 0.064483 0.000000
# 6 0.000000 0.000000 0.000000 0.000000 0.000000 -0.084308
#
#
# Mechanical properties :
#
#
# Convention : Reuss Voigt Hill
#
# Bulk Modulus (GPa) = 48.39675 51.51009 49.95342
# Shear Modulus (GPa) = 34.75195 16.37817 25.56506
#
# Velocity S-wave (km/s) = 4.52780 3.10835 3.88348
# Velocity P-wave (km/s) = 7.47563 6.57796 7.04111
#
# Compressibility (1/GPa) = 0.02066254
#
# Stress axis : x y z
#
# Youngs Moduli (GPa) = 36.95621 75.70891 47.39637
#
# Poissons Ratio (x) = 0.76854 0.75566
# Poissons Ratio (y) = 0.37515 -0.27219
# Poissons Ratio (z) = 0.58921 -0.43478
#
# Static dielectric constant tensor:
#      x y z
#    x 3.144650 0.000000 0.000000 
#    y 0.000000 3.363690 0.000000 
#    z 0.000000 0.000000 10.192310 
# 
# 
# High freq. dielectric constant tensor:
#      x y z
#    x 1.623890 0.000000 0.000000 
#    y 0.000000 1.654830 0.000000 
#    z 0.000000 0.000000 1.645410 
# 
# From -- ./inp_files/42678.got.cif
#   From: 2010.03.12/outbox.cif.g09.slc.cpg/sg69_22_cif.got.tgz:42678.got - 2010.04.10 23:52:46.
