data_PCOD8283272
_publ_section_title
;
Structure prediction by ZEFSAII (Michael W. Deem and Ramdas Pophale) SiO2 
 PCOD8283272
Probable space group: C C C A
;
_chemical_formula_sum "Si O2"
_cell_formula_units_Z 104
_cell_length_a 27.122042
_cell_length_b 9.092227
_cell_length_c 19.501007
_cell_angle_alpha 90.000000
_cell_angle_beta 90.000000
_cell_angle_gamma 90.000000
_cell_volume 4808.943696
_symmetry_space_group_name_H-M "C C C A"
_symmetry_group_IT_number 68
_space_group.IT_coordinate_system_code '2'
_symmetry_cell_setting 'orthorhombic'
loop_
_space_group_symop_operation_xyz
x,y,z
-x,1/2-y,z
x,1/2-y,1/2-z
-x,y,1/2-z
-x,-y,-z
x,1/2+y,-z
-x,1/2+y,1/2+z
x,-y,1/2+z
1/2+x,1/2+y,z
1/2-x,-y,z
1/2+x,-y,1/2-z
1/2-x,1/2+y,1/2-z
1/2-x,1/2-y,-z
1/2+x,y,-z
1/2-x,y,1/2+z
1/2+x,1/2-y,1/2+z
loop_
_atom_site_type_symbol
_atom_site_label
_atom_site_fract_x
_atom_site_fract_y
_atom_site_fract_z
Si Si1 0.596782 0.148922 0.191060
Si Si2 0.686382 0.756337 0.051741
Si Si3 0.627044 0.181962 0.679223
Si Si4 0.099180 0.183778 0.556156
Si Si5 0.750000 0.000000 0.989948
Si Si6 0.555481 0.083243 0.872496
Si Si7 0.500000 0.568019 0.750000
Si Si8 0.500000 0.750000 0.476814
O O1 0.622479 0.250000 0.250000
O O2 0.610514 0.199972 0.115368
O O3 0.614966 0.984477 0.196840
O O4 0.537266 0.162287 0.202271
O O5 0.672293 0.797926 0.128414
O O6 0.729536 0.870172 0.036532
O O7 0.641435 0.790868 0.999670
O O8 0.706558 0.586242 0.052123
O O9 0.644346 0.250000 0.750000
O O10 0.579771 0.260356 0.645199
O O11 0.046121 0.210882 0.523512
O O12 0.096795 0.023147 0.592723
O O13 0.534388 0.025411 0.800837
O O14 0.512469 0.110481 0.928062
#
# Coordination Sequence:
#
# PCOD8283272 Si02
#       8
#    16  16  16  16   8  16   8   8
#     4  12  25  41  60  91 137 195 241 286 335 400
#     4  11  24  46  76 106 135 175 229 290 364 426
#     4  12  24  44  68  99 136 179 235 283 346 422
#     4  12  25  42  67  99 145 183 235 290 344 416
#     4  10  24  48  78 104 132 170 224 298 368 430
#     4  12  25  40  61  94 140 198 239 289 334 407
#     4  12  23  41  60  86 144 198 254 274 334 404
#     4  12  26  37  61 104 140 188 234 288 340 406
#
# _framework density 21.626372
#
# number of rings (size 3 to 8) (size 9 to 14) (size 15 to 20)
#    0.000    0.308    4.615    4.385    2.154    0.615 
#    0.000    0.769    0.000    3.692    0.000    0.000 
#    0.000    0.000    0.000    0.000    0.000    0.000 
#
# Total GULP energy -644638.985240 kJ/mol
# GULP energy per Si atom -12396.903562 kJ/mol
# Density = 2.157715 g / cm^3
# Si number density = 21.626372 Si / 1000 Ang^3
#
#
#
# Elastic Constant Matrix: (Units=GPa)
#
#
# Indices 1 2 3 4 5 6 
#
# 1 81.1391 35.0763 42.3013 0.0000 0.0000 0.0000
# 2 35.0763 153.4260 52.7486 0.0000 0.0000 0.0000
# 3 42.3013 52.7486 145.7424 0.0000 0.0000 0.0000
# 4 0.0000 0.0000 0.0000 16.6711 0.0000 0.0000
# 5 0.0000 0.0000 0.0000 0.0000 -6.9179 0.0000
# 6 0.0000 0.0000 0.0000 0.0000 0.0000 17.4484
#
#
#
# Elastic Compliance Matrix: (Units=1/GPa)
#
#
# Indices 1 2 3 4 5 6 
#
# 1 0.015162 -0.002231 -0.003593 0.000000 0.000000 0.000000
# 2 -0.002231 0.007772 -0.002166 0.000000 0.000000 0.000000
# 3 -0.003593 -0.002166 0.008688 0.000000 0.000000 0.000000
# 4 0.000000 0.000000 0.000000 0.059984 0.000000 0.000000
# 5 0.000000 0.000000 0.000000 0.000000 -0.144553 0.000000
# 6 0.000000 0.000000 0.000000 0.000000 0.000000 0.057312
#
#
# Mechanical properties :
#
#
# Convention : Reuss Voigt Hill
#
# Bulk Modulus (GPa) = 63.92591 71.17332 67.54961
# Shear Modulus (GPa) = 195.62286 22.11908 108.87097
#
# Velocity S-wave (km/s) = 9.52114 3.20157 7.10289
# Velocity P-wave (km/s) = 12.26755 6.82998 9.92828
#
# Compressibility (1/GPa) = 0.01564311
#
# Stress axis : x y z
#
# Youngs Moduli (GPa) = 65.95282 128.66085 115.09932
#
# Poissons Ratio (x) = 0.28704 0.41359
# Poissons Ratio (y) = 0.14714 0.24925
# Poissons Ratio (z) = 0.23699 0.27862
#
# Static dielectric constant tensor:
#      x y z
#    x 3.883080 0.000000 0.000000 
#    y 0.000000 4.204070 0.000000 
#    z 0.000000 0.000000 4.159490 
# 
# 
# High freq. dielectric constant tensor:
#      x y z
#    x 1.822170 0.000000 0.000000 
#    y 0.000000 1.870170 0.000000 
#    z 0.000000 0.000000 1.862990 
# 
# From -- ./inp_files/36618.got.cif
#   From: 2010.03.12/outbox.cif.g09.slc.cpg/sg68_19_cif.got.tgz:36618.got - 2010.04.10 23:14:56.
