data_PCOD8283694
_publ_section_title
;
Structure prediction by ZEFSAII (Michael W. Deem and Ramdas Pophale) SiO2 
 PCOD8283694
Probable space group: C C C A
;
_chemical_formula_sum "Si O2"
_cell_formula_units_Z 64
_cell_length_a 10.959960
_cell_length_b 17.716415
_cell_length_c 14.341665
_cell_angle_alpha 90.000000
_cell_angle_beta 90.000000
_cell_angle_gamma 90.000000
_cell_volume 2784.738299
_symmetry_space_group_name_H-M "C C C A"
_symmetry_group_IT_number 68
_space_group.IT_coordinate_system_code '2'
_symmetry_cell_setting 'orthorhombic'
loop_
_space_group_symop_operation_xyz
x,y,z
-x,1/2-y,z
x,1/2-y,1/2-z
-x,y,1/2-z
-x,-y,-z
x,1/2+y,-z
-x,1/2+y,1/2+z
x,-y,1/2+z
1/2+x,1/2+y,z
1/2-x,-y,z
1/2+x,-y,1/2-z
1/2-x,1/2+y,1/2-z
1/2-x,1/2-y,-z
1/2+x,y,-z
1/2-x,y,1/2+z
1/2+x,1/2-y,1/2+z
loop_
_atom_site_type_symbol
_atom_site_label
_atom_site_fract_x
_atom_site_fract_y
_atom_site_fract_z
Si Si1 0.061199 0.541998 0.088479
Si Si2 0.371834 0.901794 0.301483
Si Si3 0.241031 0.835031 0.966983
Si Si4 0.313290 0.424218 0.357417
O O1 0.143180 0.482321 0.146133
O O2 0.135739 0.617432 0.058726
O O3 0.955673 0.561982 0.164192
O O4 0.000000 0.500000 0.000000
O O5 0.500000 0.888992 0.250000
O O6 0.352502 0.837364 0.379589
O O7 0.259470 0.891675 0.230405
O O8 0.250000 0.750000 0.000000
O O9 0.178584 0.869550 0.056188
O O10 0.250000 0.500000 0.393784
#
# Coordination Sequence:
#
# PCOD8283694 Si02
#       4
#    16  16  16  16
#     4  12  23  46  77 110 146 198 264 328 379 457
#     4  12  25  45  82 113 143 198 270 327 377 464
#     4  12  28  47  70 112 161 200 246 322 405 473
#     4  12  23  44  74 110 144 194 264 323 382 457
#
# _framework density 22.982410999999999
#
# number of rings (size 3 to 8) (size 9 to 14) (size 15 to 20)
#    0.000    0.000    7.500    2.250    0.000    2.000 
#    0.000    3.750    0.000    3.000    0.000    0.000 
#    0.000    0.000    0.000    0.000    0.000    0.000 
#
# Total GULP energy -396463.962085 kJ/mol
# GULP energy per Si atom -12389.498815 kJ/mol
# Density = 2.293010 g / cm^3
# Si number density = 22.982411 Si / 1000 Ang^3
#
#
#
# Elastic Constant Matrix: (Units=GPa)
#
#
# Indices 1 2 3 4 5 6 
#
# 1 123.2005 45.5919 59.1695 0.0000 0.0000 0.0000
# 2 45.5919 133.2848 57.0382 0.0000 0.0000 0.0000
# 3 59.1695 57.0382 169.0984 0.0000 0.0000 0.0000
# 4 0.0000 0.0000 0.0000 4.2630 0.0000 0.0000
# 5 0.0000 0.0000 0.0000 0.0000 46.3008 0.0000
# 6 0.0000 0.0000 0.0000 0.0000 0.0000 24.6238
#
#
#
# Elastic Compliance Matrix: (Units=1/GPa)
#
#
# Indices 1 2 3 4 5 6 
#
# 1 0.010338 -0.002324 -0.002833 0.000000 0.000000 0.000000
# 2 -0.002324 0.009291 -0.002321 0.000000 0.000000 0.000000
# 3 -0.002833 -0.002321 0.007688 0.000000 0.000000 0.000000
# 4 0.000000 0.000000 0.000000 0.234579 0.000000 0.000000
# 5 0.000000 0.000000 0.000000 0.000000 0.021598 0.000000
# 6 0.000000 0.000000 0.000000 0.000000 0.000000 0.040611
#
#
# Mechanical properties :
#
#
# Convention : Reuss Voigt Hill
#
# Bulk Modulus (GPa) = 80.90202 83.24254 82.07228
# Shear Modulus (GPa) = 14.56963 32.62312 23.59637
#
# Velocity S-wave (km/s) = 2.52056 3.77169 3.20771
# Velocity P-wave (km/s) = 6.61431 7.43413 7.03617
#
# Compressibility (1/GPa) = 0.01236063
#
# Stress axis : x y z
#
# Youngs Moduli (GPa) = 96.73484 107.63462 130.07273
#
# Poissons Ratio (x) = 0.25009 0.36856
# Poissons Ratio (y) = 0.22477 0.30187
# Poissons Ratio (z) = 0.27410 0.24980
#
# Static dielectric constant tensor:
#      x y z
#    x 4.415510 0.000000 0.000000 
#    y 0.000000 3.582450 0.000000 
#    z 0.000000 0.000000 4.609800 
# 
# 
# High freq. dielectric constant tensor:
#      x y z
#    x 1.923650 0.000000 0.000000 
#    y 0.000000 1.869480 0.000000 
#    z 0.000000 0.000000 1.937360 
# 
# From -- ./inp_files/20471.got.cif
#   From: 2010.03.12/outbox.cif.g09.slc.cpg/sg68_11_cif.got.tgz:20471.got - 2010.04.10 23:14:56.
