data_PCOD8283305
_publ_section_title
;
Structure prediction by ZEFSAII (Michael W. Deem and Ramdas Pophale) SiO2 
 PCOD8283305
Probable space group: C C C A
;
_chemical_formula_sum "Si O2"
_cell_formula_units_Z 60
_cell_length_a 10.039689
_cell_length_b 11.519340
_cell_length_c 25.000733
_cell_angle_alpha 90.000000
_cell_angle_beta 90.000000
_cell_angle_gamma 90.000000
_cell_volume 2891.349549
_symmetry_space_group_name_H-M "C C C A"
_symmetry_group_IT_number 68
_space_group.IT_coordinate_system_code '2'
_symmetry_cell_setting 'orthorhombic'
loop_
_space_group_symop_operation_xyz
x,y,z
-x,1/2-y,z
x,1/2-y,1/2-z
-x,y,1/2-z
-x,-y,-z
x,1/2+y,-z
-x,1/2+y,1/2+z
x,-y,1/2+z
1/2+x,1/2+y,z
1/2-x,-y,z
1/2+x,-y,1/2-z
1/2-x,1/2+y,1/2-z
1/2-x,1/2-y,-z
1/2+x,y,-z
1/2-x,y,1/2+z
1/2+x,1/2-y,1/2+z
loop_
_atom_site_type_symbol
_atom_site_label
_atom_site_fract_x
_atom_site_fract_y
_atom_site_fract_z
Si Si1 0.997622 0.878577 0.885633
Si Si2 0.500000 0.750000 0.750000
Si Si3 0.750000 0.000000 0.925733
Si Si4 0.881450 0.673245 0.999908
Si Si5 0.602223 0.026599 0.207791
O O1 0.000000 0.750000 0.859077
O O2 0.073947 0.974059 0.850461
O O3 0.076690 0.871683 0.941480
O O4 0.841188 0.913620 0.890713
O O5 0.414171 0.832779 0.789848
O O6 0.858903 0.064168 0.962125
O O7 0.000000 0.750000 0.024692
O O8 0.750000 0.750000 0.000000
O O9 0.500000 0.967849 0.250000
O O10 0.750000 0.000000 0.226892
#
# Coordination Sequence:
#
# PCOD8283305 Si02
#       5
#    16   4   8  16  16
#     4  11  25  42  69 109 137 191 244 285 363 427
#     4   8  24  52  68 108 140 172 238 294 372 420
#     4  12  24  44  70  98 154 186 240 292 352 414
#     4  11  23  44  66  99 144 187 239 291 339 420
#     4  10  25  47  76 102 144 182 231 305 365 428
#
# _framework density 20.751555
#
# number of rings (size 3 to 8) (size 9 to 14) (size 15 to 20)
#    0.800    0.533    5.333    0.800    3.733    4.800 
#    2.400    0.000    0.000    0.000    0.000    0.000 
#    0.000    0.000    0.000    0.000    0.000    0.000 
#
# Total GULP energy -371852.446282 kJ/mol
# GULP energy per Si atom -12395.081543 kJ/mol
# Density = 2.070432 g / cm^3
# Si number density = 20.751555 Si / 1000 Ang^3
#
#
#
# Elastic Constant Matrix: (Units=GPa)
#
#
# Indices 1 2 3 4 5 6 
#
# 1 180.2288 66.9989 47.3892 0.0000 0.0000 0.0000
# 2 66.9989 158.8177 49.0723 0.0000 0.0000 0.0000
# 3 47.3892 49.0723 68.4132 0.0000 0.0000 0.0000
# 4 0.0000 0.0000 0.0000 32.7995 0.0000 0.0000
# 5 0.0000 0.0000 0.0000 0.0000 28.2954 0.0000
# 6 0.0000 0.0000 0.0000 0.0000 0.0000 54.9080
#
#
#
# Elastic Compliance Matrix: (Units=1/GPa)
#
#
# Indices 1 2 3 4 5 6 
#
# 1 0.007216 -0.001927 -0.003616 0.000000 0.000000 0.000000
# 2 -0.001927 0.008604 -0.004837 0.000000 0.000000 0.000000
# 3 -0.003616 -0.004837 0.020591 0.000000 0.000000 0.000000
# 4 0.000000 0.000000 0.000000 0.030488 0.000000 0.000000
# 5 0.000000 0.000000 0.000000 0.000000 0.035341 0.000000
# 6 0.000000 0.000000 0.000000 0.000000 0.000000 0.018212
#
#
# Mechanical properties :
#
#
# Convention : Reuss Voigt Hill
#
# Bulk Modulus (GPa) = 63.89214 81.59784 72.74499
# Shear Modulus (GPa) = 34.14613 39.46718 36.80666
#
# Velocity S-wave (km/s) = 4.06084 4.36580 4.21608
# Velocity P-wave (km/s) = 7.26933 8.05110 7.67018
#
# Compressibility (1/GPa) = 0.01565138
#
# Stress axis : x y z
#
# Youngs Moduli (GPa) = 138.58960 116.22748 48.56376
#
# Poissons Ratio (x) = 0.22392 0.17562
# Poissons Ratio (y) = 0.26701 0.23490
# Poissons Ratio (z) = 0.50117 0.56218
#
# Static dielectric constant tensor:
#      x y z
#    x 3.836090 0.000000 0.000000 
#    y 0.000000 3.962800 0.000000 
#    z 0.000000 0.000000 3.460650 
# 
# 
# High freq. dielectric constant tensor:
#      x y z
#    x 1.824270 0.000000 0.000000 
#    y 0.000000 1.823550 0.000000 
#    z 0.000000 0.000000 1.784720 
# 
# From -- ./inp_files/48761.got.cif
#   From: 2010.03.12/outbox.cif.g09.slc.cpg/sg68_25_cif.got.tgz:48761.got - 2010.04.10 23:14:56.
