data_PCOD8283035
_publ_section_title
;
Structure prediction by ZEFSAII (Michael W. Deem and Ramdas Pophale) SiO2 
 PCOD8283035
Probable space group: C C C A
;
_chemical_formula_sum "Si O2"
_cell_formula_units_Z 60
_cell_length_a 31.861514
_cell_length_b 16.308036
_cell_length_c 5.150095
_cell_angle_alpha 90.000000
_cell_angle_beta 90.000000
_cell_angle_gamma 90.000000
_cell_volume 2675.982756
_symmetry_space_group_name_H-M "C C C A"
_symmetry_group_IT_number 68
_space_group.IT_coordinate_system_code '2'
_symmetry_cell_setting 'orthorhombic'
loop_
_space_group_symop_operation_xyz
x,y,z
-x,1/2-y,z
x,1/2-y,1/2-z
-x,y,1/2-z
-x,-y,-z
x,1/2+y,-z
-x,1/2+y,1/2+z
x,-y,1/2+z
1/2+x,1/2+y,z
1/2-x,-y,z
1/2+x,-y,1/2-z
1/2-x,1/2+y,1/2-z
1/2-x,1/2-y,-z
1/2+x,y,-z
1/2-x,y,1/2+z
1/2+x,1/2-y,1/2+z
loop_
_atom_site_type_symbol
_atom_site_label
_atom_site_fract_x
_atom_site_fract_y
_atom_site_fract_z
Si Si1 0.500000 0.554547 0.250000
Si Si2 0.224848 0.654173 0.771595
Si Si3 0.642983 0.554911 0.101533
Si Si4 0.566718 0.331530 0.612544
Si Si5 0.500000 0.250000 0.250000
O O1 0.500000 0.500000 0.500000
O O2 0.458382 0.608602 0.196106
O O3 0.213678 0.750000 0.750000
O O4 0.238425 0.631002 0.478416
O O5 0.186092 0.604317 0.886945
O O6 0.639374 0.515385 0.385962
O O7 0.607411 0.620116 0.016499
O O8 0.583440 0.250000 0.750000
O O9 0.531192 0.309973 0.402414
#
# Coordination Sequence:
#
# PCOD8283035 Si02
#       5
#     8  16  16  16   4
#     4  12  24  42  67  97 134 172 220 288 360 416
#     4  10  22  45  74 106 143 188 238 286 345 422
#     4  12  28  46  69 108 147 189 235 295 364 419
#     4  12  26  46  70 101 136 187 243 295 351 432
#     4  12  24  48  76 100 132 186 254 290 366 418
#
# _framework density 22.421669999999999
#
# number of rings (size 3 to 8) (size 9 to 14) (size 15 to 20)
#    0.000    0.533    2.667    4.800    3.733    3.200 
#    7.200    0.000    0.000    0.000    0.000    0.000 
#    0.000    0.000    0.000    0.000    0.000    0.000 
#
# Total GULP energy -371720.889311 kJ/mol
# GULP energy per Si atom -12390.696310 kJ/mol
# Density = 2.237064 g / cm^3
# Si number density = 22.421670 Si / 1000 Ang^3
#
#
#
# Elastic Constant Matrix: (Units=GPa)
#
#
# Indices 1 2 3 4 5 6 
#
# 1 134.7201 63.7291 28.3535 0.0000 0.0000 0.0000
# 2 63.7291 109.7684 39.8443 0.0000 0.0000 0.0000
# 3 28.3535 39.8443 118.5637 0.0000 0.0000 0.0000
# 4 0.0000 0.0000 0.0000 21.6334 0.0000 0.0000
# 5 0.0000 0.0000 0.0000 0.0000 18.6496 0.0000
# 6 0.0000 0.0000 0.0000 0.0000 0.0000 56.0850
#
#
#
# Elastic Compliance Matrix: (Units=1/GPa)
#
#
# Indices 1 2 3 4 5 6 
#
# 1 0.010261 -0.005770 -0.000515 0.000000 0.000000 0.000000
# 2 -0.005770 0.013621 -0.003197 0.000000 0.000000 0.000000
# 3 -0.000515 -0.003197 0.009632 0.000000 0.000000 0.000000
# 4 0.000000 0.000000 0.000000 0.046225 0.000000 0.000000
# 5 0.000000 0.000000 0.000000 0.000000 0.053620 0.000000
# 6 0.000000 0.000000 0.000000 0.000000 0.000000 0.017830
#
#
# Mechanical properties :
#
#
# Convention : Reuss Voigt Hill
#
# Bulk Modulus (GPa) = 68.73493 69.65621 69.19557
# Shear Modulus (GPa) = 28.57089 34.68196 31.62642
#
# Velocity S-wave (km/s) = 3.57354 3.93721 3.75978
# Velocity P-wave (km/s) = 6.91007 7.19741 7.05520
#
# Compressibility (1/GPa) = 0.01454864
#
# Stress axis : x y z
#
# Youngs Moduli (GPa) = 97.45861 73.41671 103.82188
#
# Poissons Ratio (x) = 0.42364 0.05343
# Poissons Ratio (y) = 0.56237 0.33197
# Poissons Ratio (z) = 0.05015 0.23475
#
# Static dielectric constant tensor:
#      x y z
#    x 4.064090 0.000000 0.000000 
#    y 0.000000 4.586220 0.000000 
#    z 0.000000 0.000000 3.978000 
# 
# 
# High freq. dielectric constant tensor:
#      x y z
#    x 1.887270 0.000000 0.000000 
#    y 0.000000 1.907080 0.000000 
#    z 0.000000 0.000000 1.884760 
# 
# From -- ./inp_files/1000.got.cif
#   From: 2010.03.12/outbox.cif.g09.slc.cpg/sg68_1_cif.got.tgz:1000.got - 2010.04.10 23:14:56.
