data_PCOD8283205
_publ_section_title
;
Structure prediction by ZEFSAII (Michael W. Deem and Ramdas Pophale) SiO2 
 PCOD8283205
Probable space group: C C C A
;
_chemical_formula_sum "Si O2"
_cell_formula_units_Z 116
_cell_length_a 22.217099
_cell_length_b 8.811963
_cell_length_c 27.874013
_cell_angle_alpha 90.000000
_cell_angle_beta 90.000000
_cell_angle_gamma 90.000000
_cell_volume 5457.069859
_symmetry_space_group_name_H-M "C C C A"
_symmetry_group_IT_number 68
_space_group.IT_coordinate_system_code '2'
_symmetry_cell_setting 'orthorhombic'
loop_
_space_group_symop_operation_xyz
x,y,z
-x,1/2-y,z
x,1/2-y,1/2-z
-x,y,1/2-z
-x,-y,-z
x,1/2+y,-z
-x,1/2+y,1/2+z
x,-y,1/2+z
1/2+x,1/2+y,z
1/2-x,-y,z
1/2+x,-y,1/2-z
1/2-x,1/2+y,1/2-z
1/2-x,1/2-y,-z
1/2+x,y,-z
1/2-x,y,1/2+z
1/2+x,1/2-y,1/2+z
loop_
_atom_site_type_symbol
_atom_site_label
_atom_site_fract_x
_atom_site_fract_y
_atom_site_fract_z
Si Si1 0.388765 0.349909 0.100027
Si Si2 0.053168 0.154401 0.519092
Si Si3 0.210286 0.863024 0.206290
Si Si4 0.580605 0.616519 0.673490
Si Si5 0.255657 0.832057 0.881380
Si Si6 0.133066 0.667149 0.569056
Si Si7 0.542291 0.896246 0.408417
Si Si8 0.000000 0.250000 0.750000
O O1 0.427120 0.272983 0.059072
O O2 0.412761 0.284254 0.150119
O O3 0.318690 0.309840 0.091141
O O4 0.396458 0.532318 0.101416
O O5 0.110718 0.123947 0.484854
O O6 0.000000 0.250000 0.491210
O O7 0.026951 0.001271 0.544641
O O8 0.197016 0.750000 0.250000
O O9 0.147711 0.935524 0.187619
O O10 0.247804 0.784451 0.162912
O O11 0.250000 0.000000 0.226379
O O12 0.546172 0.499233 0.638811
O O13 0.540261 0.634286 0.719926
O O14 0.204453 0.815995 0.922647
O O15 0.250000 0.000000 0.858673
O O16 0.108987 0.831217 0.583872
O O17 0.500000 0.750000 0.401328
#
# Coordination Sequence:
#
# PCOD8283205 Si02
#       8
#    16  16  16  16  16  16  16   4
#     4   9  21  39  64  87 124 168 208 249 317 385
#     4  11  23  39  58  90 124 171 214 255 311 391
#     4  11  21  40  65  95 124 161 217 269 327 386
#     4  10  24  43  65  93 126 173 212 260 328 395
#     4   9  20  39  60  87 121 164 205 258 321 379
#     4  11  21  37  61  89 126 159 209 268 314 367
#     4  11  24  39  63  93 129 169 216 270 323 368
#     4  12  24  44  70  88 128 172 218 258 312 416
#
# _framework density 21.256830000000001
#
# number of rings (size 3 to 8) (size 9 to 14) (size 15 to 20)
#    0.000    1.655    0.690    3.310    5.793    2.207 
#    0.000    3.103    0.000    0.000    0.000    0.000 
#    0.000    0.000    0.000    0.000    0.000    0.000 
#
# Total GULP energy -718843.475960 kJ/mol
# GULP energy per Si atom -12393.853034 kJ/mol
# Density = 2.120845 g / cm^3
# Si number density = 21.256830 Si / 1000 Ang^3
#
#
#
# Elastic Constant Matrix: (Units=GPa)
#
#
# Indices 1 2 3 4 5 6 
#
# 1 96.2344 48.1508 46.7691 0.0000 0.0000 0.0000
# 2 48.1508 110.2830 34.4278 0.0000 0.0000 0.0000
# 3 46.7691 34.4278 94.7626 0.0000 0.0000 0.0000
# 4 0.0000 0.0000 0.0000 28.7464 0.0000 0.0000
# 5 0.0000 0.0000 0.0000 0.0000 37.1156 0.0000
# 6 0.0000 0.0000 0.0000 0.0000 0.0000 33.2102
#
#
#
# Elastic Compliance Matrix: (Units=1/GPa)
#
#
# Indices 1 2 3 4 5 6 
#
# 1 0.015817 -0.005041 -0.005975 0.000000 0.000000 0.000000
# 2 -0.005041 0.011834 -0.001812 0.000000 0.000000 0.000000
# 3 -0.005975 -0.001812 0.014160 0.000000 0.000000 0.000000
# 4 0.000000 0.000000 0.000000 0.034787 0.000000 0.000000
# 5 0.000000 0.000000 0.000000 0.000000 0.026943 0.000000
# 6 0.000000 0.000000 0.000000 0.000000 0.000000 0.030111
#
#
# Mechanical properties :
#
#
# Convention : Reuss Voigt Hill
#
# Bulk Modulus (GPa) = 61.89563 62.21949 62.05756
# Shear Modulus (GPa) = 30.35967 31.27661 30.81814
#
# Velocity S-wave (km/s) = 3.78329 3.84000 3.81175
# Velocity P-wave (km/s) = 6.94735 6.99962 6.97353
#
# Compressibility (1/GPa) = 0.01615623
#
# Stress axis : x y z
#
# Youngs Moduli (GPa) = 63.22201 84.50279 70.62246
#
# Poissons Ratio (x) = 0.42595 0.42198
# Poissons Ratio (y) = 0.31868 0.12794
# Poissons Ratio (z) = 0.37776 0.15308
#
# Static dielectric constant tensor:
#      x y z
#    x 3.981220 0.000000 0.000000 
#    y 0.000000 4.062550 0.000000 
#    z 0.000000 0.000000 3.709640 
# 
# 
# High freq. dielectric constant tensor:
#      x y z
#    x 1.843410 0.000000 0.000000 
#    y 0.000000 1.842240 0.000000 
#    z 0.000000 0.000000 1.819490 
# 
# From -- ./inp_files/49645.got.cif
#   From: 2010.03.12/outbox.cif.g09.slc.cpg/sg68_25_cif.got.tgz:49645.got - 2010.04.10 23:14:56.
