data_PCOD8283654
_publ_section_title
;
Structure prediction by ZEFSAII (Michael W. Deem and Ramdas Pophale) SiO2 
 PCOD8283654
Probable space group: C C C A
;
_chemical_formula_sum "Si O2"
_cell_formula_units_Z 64
_cell_length_a 18.154936
_cell_length_b 16.478099
_cell_length_c 8.607984
_cell_angle_alpha 90.000000
_cell_angle_beta 90.000000
_cell_angle_gamma 90.000000
_cell_volume 2575.154446
_symmetry_space_group_name_H-M "C C C A"
_symmetry_group_IT_number 68
_space_group.IT_coordinate_system_code '2'
_symmetry_cell_setting 'orthorhombic'
loop_
_space_group_symop_operation_xyz
x,y,z
-x,1/2-y,z
x,1/2-y,1/2-z
-x,y,1/2-z
-x,-y,-z
x,1/2+y,-z
-x,1/2+y,1/2+z
x,-y,1/2+z
1/2+x,1/2+y,z
1/2-x,-y,z
1/2+x,-y,1/2-z
1/2-x,1/2+y,1/2-z
1/2-x,1/2-y,-z
1/2+x,y,-z
1/2-x,y,1/2+z
1/2+x,1/2-y,1/2+z
loop_
_atom_site_type_symbol
_atom_site_label
_atom_site_fract_x
_atom_site_fract_y
_atom_site_fract_z
Si Si1 0.478848 0.837789 0.069805
Si Si2 0.606164 0.575644 0.554028
Si Si3 0.289265 0.191168 0.887989
Si Si4 0.148753 0.587580 0.098820
O O1 0.500000 0.750000 0.000390
O O2 0.500000 0.841844 0.250000
O O3 0.520270 0.914638 0.989802
O O4 0.393078 0.852136 0.022853
O O5 0.639701 0.654921 0.470628
O O6 0.650331 0.498419 0.489077
O O7 0.607129 0.577623 0.739068
O O8 0.316068 0.250000 0.750000
O O9 0.230105 0.119322 0.852658
O O10 0.250000 0.250000 0.000000
#
# Coordination Sequence:
#
# PCOD8283654 Si02
#       4
#    16  16  16  16
#     4  11  26  45  75 105 144 189 245 301 361 435
#     4  12  27  46  73 103 147 189 240 301 362 440
#     4  12  27  46  75 106 143 188 242 298 366 436
#     4  12  27  47  71 106 144 192 239 300 367 432
#
# _framework density 24.852876999999999
#
# number of rings (size 3 to 8) (size 9 to 14) (size 15 to 20)
#    0.000    0.250    2.500    5.250   10.500    3.000 
#    0.000    0.000    0.000    0.000    0.000    0.000 
#    0.000    0.000    0.000    0.000    0.000    0.000 
#
# Total GULP energy -396628.160652 kJ/mol
# GULP energy per Si atom -12394.630020 kJ/mol
# Density = 2.479631 g / cm^3
# Si number density = 24.852877 Si / 1000 Ang^3
#
#
#
# Elastic Constant Matrix: (Units=GPa)
#
#
# Indices 1 2 3 4 5 6 
#
# 1 59.0291 1.2894 3.2590 0.0000 0.0000 0.0000
# 2 1.2894 121.7972 22.8186 0.0000 0.0000 0.0000
# 3 3.2590 22.8186 143.8014 0.0000 0.0000 0.0000
# 4 0.0000 0.0000 0.0000 38.1700 0.0000 0.0000
# 5 0.0000 0.0000 0.0000 0.0000 42.4058 0.0000
# 6 0.0000 0.0000 0.0000 0.0000 0.0000 17.1915
#
#
#
# Elastic Compliance Matrix: (Units=1/GPa)
#
#
# Indices 1 2 3 4 5 6 
#
# 1 0.016963 -0.000111 -0.000367 0.000000 0.000000 0.000000
# 2 -0.000111 0.008463 -0.001340 0.000000 0.000000 0.000000
# 3 -0.000367 -0.001340 0.007175 0.000000 0.000000 0.000000
# 4 0.000000 0.000000 0.000000 0.026199 0.000000 0.000000
# 5 0.000000 0.000000 0.000000 0.000000 0.023582 0.000000
# 6 0.000000 0.000000 0.000000 0.000000 0.000000 0.058168
#
#
# Mechanical properties :
#
#
# Convention : Reuss Voigt Hill
#
# Bulk Modulus (GPa) = 34.52440 42.15132 38.33786
# Shear Modulus (GPa) = 32.50110 39.37084 35.93597
#
# Velocity S-wave (km/s) = 3.62019 3.98446 3.80669
# Velocity P-wave (km/s) = 5.60322 6.17779 5.89751
#
# Compressibility (1/GPa) = 0.02896502
#
# Stress axis : x y z
#
# Youngs Moduli (GPa) = 58.95024 118.16621 139.37209
#
# Poissons Ratio (x) = 0.01310 0.05113
# Poissons Ratio (y) = 0.00653 0.18681
# Poissons Ratio (z) = 0.02163 0.15838
#
# Static dielectric constant tensor:
#      x y z
#    x 9.687470 0.000000 0.000000 
#    y 0.000000 4.421690 0.000000 
#    z 0.000000 0.000000 4.217780 
# 
# 
# High freq. dielectric constant tensor:
#      x y z
#    x 1.998940 0.000000 0.000000 
#    y 0.000000 2.005850 0.000000 
#    z 0.000000 0.000000 1.991330 
# 
# From -- ./inp_files/7754.got.cif
#   From: 2010.03.12/outbox.cif.g09.slc.cpg/sg68_4_cif.got.tgz:7754.got - 2010.04.10 23:14:56.
