data_PCOD8283470
_publ_section_title
;
Structure prediction by ZEFSAII (Michael W. Deem and Ramdas Pophale) SiO2 
 PCOD8283470
Probable space group: C C C A
;
_chemical_formula_sum "Si O2"
_cell_formula_units_Z 96
_cell_length_a 19.577165
_cell_length_b 13.376951
_cell_length_c 18.020174
_cell_angle_alpha 90.000000
_cell_angle_beta 90.000000
_cell_angle_gamma 90.000000
_cell_volume 4719.173208
_symmetry_space_group_name_H-M "C C C A"
_symmetry_group_IT_number 68
_space_group.IT_coordinate_system_code '2'
_symmetry_cell_setting 'orthorhombic'
loop_
_space_group_symop_operation_xyz
x,y,z
-x,1/2-y,z
x,1/2-y,1/2-z
-x,y,1/2-z
-x,-y,-z
x,1/2+y,-z
-x,1/2+y,1/2+z
x,-y,1/2+z
1/2+x,1/2+y,z
1/2-x,-y,z
1/2+x,-y,1/2-z
1/2-x,1/2+y,1/2-z
1/2-x,1/2-y,-z
1/2+x,y,-z
1/2-x,y,1/2+z
1/2+x,1/2-y,1/2+z
loop_
_atom_site_type_symbol
_atom_site_label
_atom_site_fract_x
_atom_site_fract_y
_atom_site_fract_z
Si Si1 0.916499 0.577529 0.478505
Si Si2 0.324473 0.757586 0.034030
Si Si3 0.938118 0.870773 0.454497
Si Si4 0.574654 0.348865 0.217155
Si Si5 0.848649 0.466502 0.825979
Si Si6 0.722935 0.826944 0.182174
O O1 0.852667 0.632866 0.515919
O O2 0.934094 0.489704 0.535343
O O3 0.898712 0.533935 0.397055
O O4 0.981609 0.654486 0.472335
O O5 0.313474 0.741213 0.120765
O O6 0.250000 0.750000 0.000000
O O7 0.380150 0.678192 0.005134
O O8 0.921819 0.841973 0.370708
O O9 0.611053 0.250000 0.250000
O O10 0.500000 0.354723 0.250000
O O11 0.614402 0.443644 0.248442
O O12 0.793561 0.379078 0.843186
O O13 0.824273 0.576854 0.805013
O O14 0.732114 0.750000 0.250000
#
# Coordination Sequence:
#
# PCOD8283470 Si02
#       6
#    16  16  16  16  16  16
#     4  11  23  44  70  96 132 174 223 277 338 402
#     4  12  25  41  69  96 136 170 224 275 335 406
#     4  11  25  43  66 101 133 175 226 278 343 404
#     4  11  23  38  67  99 128 165 221 282 338 399
#     4  11  22  45  67  93 136 171 219 279 339 402
#     4  11  26  44  64  97 135 181 217 274 341 404
#
# _framework density 20.342545999999999
#
# number of rings (size 3 to 8) (size 9 to 14) (size 15 to 20)
#    0.000    0.833    5.000    2.000    7.000    0.667 
#    0.000    0.000    0.000    0.000    0.000    0.000 
#    0.000    0.000    0.000    0.000    0.000    0.000 
#
# Total GULP energy -594867.137866 kJ/mol
# GULP energy per Si atom -12393.065372 kJ/mol
# Density = 2.029625 g / cm^3
# Si number density = 20.342546 Si / 1000 Ang^3
#
#
#
# Elastic Constant Matrix: (Units=GPa)
#
#
# Indices 1 2 3 4 5 6 
#
# 1 101.7507 23.8178 24.0839 0.0000 0.0000 0.0000
# 2 23.8178 65.0320 26.5558 0.0000 0.0000 0.0000
# 3 24.0839 26.5558 112.2653 0.0000 0.0000 0.0000
# 4 0.0000 0.0000 0.0000 38.6442 0.0000 0.0000
# 5 0.0000 0.0000 0.0000 0.0000 27.7640 0.0000
# 6 0.0000 0.0000 0.0000 0.0000 0.0000 68.0575
#
#
#
# Elastic Compliance Matrix: (Units=1/GPa)
#
#
# Indices 1 2 3 4 5 6 
#
# 1 0.010990 -0.003390 -0.001556 0.000000 0.000000 0.000000
# 2 -0.003390 0.018067 -0.003546 0.000000 0.000000 0.000000
# 3 -0.001556 -0.003546 0.010080 0.000000 0.000000 0.000000
# 4 0.000000 0.000000 0.000000 0.025877 0.000000 0.000000
# 5 0.000000 0.000000 0.000000 0.000000 0.036018 0.000000
# 6 0.000000 0.000000 0.000000 0.000000 0.000000 0.014693
#
#
# Mechanical properties :
#
#
# Convention : Reuss Voigt Hill
#
# Bulk Modulus (GPa) = 45.14104 47.55143 46.34624
# Shear Modulus (GPa) = 35.69064 40.53250 38.11157
#
# Velocity S-wave (km/s) = 4.19320 4.46858 4.33308
# Velocity P-wave (km/s) = 6.75888 7.07463 6.91856
#
# Compressibility (1/GPa) = 0.02215279
#
# Stress axis : x y z
#
# Youngs Moduli (GPa) = 90.99484 55.35057 99.20526
#
# Poissons Ratio (x) = 0.18762 0.15434
# Poissons Ratio (y) = 0.30844 0.35182
# Poissons Ratio (z) = 0.14157 0.19630
#
# Static dielectric constant tensor:
#      x y z
#    x 4.158170 0.000000 0.000000 
#    y 0.000000 2.570040 0.000000 
#    z 0.000000 0.000000 3.956530 
# 
# 
# High freq. dielectric constant tensor:
#      x y z
#    x 1.810440 0.000000 0.000000 
#    y 0.000000 1.802160 0.000000 
#    z 0.000000 0.000000 1.789970 
# 
# From -- ./inp_files/24478.got.cif
#   From: 2010.03.12/outbox.cif.g09.slc.cpg/sg68_13_cif.got.tgz:24478.got - 2010.04.10 23:14:56.
