data_PCOD8283498
_publ_section_title
;
Structure prediction by ZEFSAII (Michael W. Deem and Ramdas Pophale) SiO2 
 PCOD8283498
Probable space group: C C C A
;
_chemical_formula_sum "Si O2"
_cell_formula_units_Z 72
_cell_length_a 17.361061
_cell_length_b 11.339020
_cell_length_c 18.219565
_cell_angle_alpha 90.000000
_cell_angle_beta 90.000000
_cell_angle_gamma 90.000000
_cell_volume 3586.656521
_symmetry_space_group_name_H-M "C C C A"
_symmetry_group_IT_number 68
_space_group.IT_coordinate_system_code '2'
_symmetry_cell_setting 'orthorhombic'
loop_
_space_group_symop_operation_xyz
x,y,z
-x,1/2-y,z
x,1/2-y,1/2-z
-x,y,1/2-z
-x,-y,-z
x,1/2+y,-z
-x,1/2+y,1/2+z
x,-y,1/2+z
1/2+x,1/2+y,z
1/2-x,-y,z
1/2+x,-y,1/2-z
1/2-x,1/2+y,1/2-z
1/2-x,1/2-y,-z
1/2+x,y,-z
1/2-x,y,1/2+z
1/2+x,1/2-y,1/2+z
loop_
_atom_site_type_symbol
_atom_site_label
_atom_site_fract_x
_atom_site_fract_y
_atom_site_fract_z
Si Si1 0.216365 0.376623 0.584324
Si Si2 0.500000 0.946191 0.250000
Si Si3 0.500000 0.250000 0.867416
Si Si4 0.138503 0.381403 0.738179
Si Si5 0.750000 0.000000 0.343289
Si Si6 0.160764 0.813059 0.569494
O O1 0.250000 0.500000 0.556648
O O2 0.161920 0.398838 0.653817
O O3 0.167502 0.319908 0.518358
O O4 0.285922 0.288840 0.604155
O O5 0.518093 0.864728 0.180594
O O6 0.425971 0.026576 0.237212
O O7 0.572637 0.220086 0.917551
O O8 0.106697 0.250000 0.750000
O O9 0.211101 0.401678 0.791507
O O10 0.814481 0.063616 0.393117
#
# Coordination Sequence:
#
# PCOD8283498 Si02
#       6
#    16   8   8  16   8  16
#     4  11  23  41  68  95 131 174 223 277 327 409
#     4  11  25  42  64  96 135 167 228 284 334 391
#     4  11  24  44  68  94 129 180 218 280 333 404
#     4  12  24  41  66  97 133 175 221 279 340 395
#     4  12  22  42  72  94 130 176 224 280 326 412
#     4  11  24  44  66  98 132 174 225 274 339 399
#
# _framework density 20.074406
#
# number of rings (size 3 to 8) (size 9 to 14) (size 15 to 20)
#    0.000    0.667    6.667    1.667    0.000    0.000 
#    4.000    2.222    0.000    0.000    0.000    0.000 
#    0.000    0.000    0.000    0.000    0.000    0.000 
#
# Total GULP energy -446588.546188 kJ/mol
# GULP energy per Si atom -12405.237394 kJ/mol
# Density = 2.002872 g / cm^3
# Si number density = 20.074406 Si / 1000 Ang^3
#
#
#
# Elastic Constant Matrix: (Units=GPa)
#
#
# Indices 1 2 3 4 5 6 
#
# 1 124.8015 43.8094 48.7069 0.0000 0.0000 0.0000
# 2 43.8094 119.9117 21.0806 0.0000 0.0000 0.0000
# 3 48.7069 21.0806 84.6187 0.0000 0.0000 0.0000
# 4 0.0000 0.0000 0.0000 28.7504 0.0000 0.0000
# 5 0.0000 0.0000 0.0000 0.0000 31.7120 0.0000
# 6 0.0000 0.0000 0.0000 0.0000 0.0000 42.5913
#
#
#
# Elastic Compliance Matrix: (Units=1/GPa)
#
#
# Indices 1 2 3 4 5 6 
#
# 1 0.011362 -0.003139 -0.005758 0.000000 0.000000 0.000000
# 2 -0.003139 0.009589 -0.000582 0.000000 0.000000 0.000000
# 3 -0.005758 -0.000582 0.015277 0.000000 0.000000 0.000000
# 4 0.000000 0.000000 0.000000 0.034782 0.000000 0.000000
# 5 0.000000 0.000000 0.000000 0.000000 0.031534 0.000000
# 6 0.000000 0.000000 0.000000 0.000000 0.000000 0.023479
#
#
# Mechanical properties :
#
#
# Convention : Reuss Voigt Hill
#
# Bulk Modulus (GPa) = 57.90449 61.83618 59.87034
# Shear Modulus (GPa) = 33.17056 34.99307 34.08182
#
# Velocity S-wave (km/s) = 4.06936 4.17966 4.12488
# Velocity P-wave (km/s) = 7.14053 7.35956 7.25087
#
# Compressibility (1/GPa) = 0.01726982
#
# Stress axis : x y z
#
# Youngs Moduli (GPa) = 88.01516 104.29137 65.45784
#
# Poissons Ratio (x) = 0.32734 0.37690
# Poissons Ratio (y) = 0.27625 0.03810
# Poissons Ratio (z) = 0.50678 0.06071
#
# Static dielectric constant tensor:
#      x y z
#    x 3.487090 0.000000 0.000000 
#    y 0.000000 3.802310 0.000000 
#    z 0.000000 0.000000 3.542570 
# 
# 
# High freq. dielectric constant tensor:
#      x y z
#    x 1.772080 0.000000 0.000000 
#    y 0.000000 1.802320 0.000000 
#    z 0.000000 0.000000 1.786900 
# 
# From -- ./inp_files/29436.got.cif
#   From: 2010.03.12/outbox.cif.g09.slc.cpg/sg68_15_cif.got.tgz:29436.got - 2010.04.10 23:14:56.
