data_PCOD8283018
_publ_section_title
;
Structure prediction by ZEFSAII (Michael W. Deem and Ramdas Pophale) SiO2 
 PCOD8283018
Probable space group: C C C A
;
_chemical_formula_sum "Si O2"
_cell_formula_units_Z 88
_cell_length_a 22.662565
_cell_length_b 17.402793
_cell_length_c 10.090867
_cell_angle_alpha 90.000000
_cell_angle_beta 90.000000
_cell_angle_gamma 90.000000
_cell_volume 3979.756487
_symmetry_space_group_name_H-M "C C C A"
_symmetry_group_IT_number 68
_space_group.IT_coordinate_system_code '2'
_symmetry_cell_setting 'orthorhombic'
loop_
_space_group_symop_operation_xyz
x,y,z
-x,1/2-y,z
x,1/2-y,1/2-z
-x,y,1/2-z
-x,-y,-z
x,1/2+y,-z
-x,1/2+y,1/2+z
x,-y,1/2+z
1/2+x,1/2+y,z
1/2-x,-y,z
1/2+x,-y,1/2-z
1/2-x,1/2+y,1/2-z
1/2-x,1/2-y,-z
1/2+x,y,-z
1/2-x,y,1/2+z
1/2+x,1/2-y,1/2+z
loop_
_atom_site_type_symbol
_atom_site_label
_atom_site_fract_x
_atom_site_fract_y
_atom_site_fract_z
Si Si1 0.177068 0.861386 0.191248
Si Si2 0.500000 0.935412 0.750000
Si Si3 0.384764 0.507483 0.370307
Si Si4 0.692047 0.134661 0.764757
Si Si5 0.843647 0.746268 0.959212
Si Si6 0.413984 0.135082 0.426157
O O1 0.239043 0.880227 0.263887
O O2 0.130442 0.849134 0.306330
O O3 0.152698 0.930568 0.097692
O O4 0.182128 0.785953 0.097767
O O5 0.520458 0.878682 0.630735
O O6 0.446537 0.988945 0.702044
O O7 0.343449 0.555709 0.271180
O O8 0.396569 0.555693 0.501898
O O9 0.694174 0.181339 0.904751
O O10 0.656438 0.181398 0.652552
O O11 0.908513 0.787350 0.983596
#
# Coordination Sequence:
#
# PCOD8283018 Si02
#       6
#    16   8  16  16  16  16
#     4  11  23  37  66  99 135 169 215 270 327 409
#     4  10  22  44  71  89 126 172 228 284 332 381
#     4  10  23  43  65  95 128 174 223 276 325 396
#     4  10  23  40  64  97 135 178 211 258 339 403
#     4  10  23  39  64  93 137 170 212 265 325 402
#     4  10  23  42  66  95 127 175 225 272 339 384
#
# _framework density 22.111906000000001
#
# number of rings (size 3 to 8) (size 9 to 14) (size 15 to 20)
#    0.000    1.818    0.000    2.182   15.273    0.000 
#    0.000    7.273    8.000    1.091    0.000    0.000 
#    0.000    0.000    0.000    0.000    0.000    0.000 
#
# Total GULP energy -545103.103544 kJ/mol
# GULP energy per Si atom -12388.706899 kJ/mol
# Density = 2.206158 g / cm^3
# Si number density = 22.111906 Si / 1000 Ang^3
#
#
#
# Elastic Constant Matrix: (Units=GPa)
#
#
# Indices 1 2 3 4 5 6 
#
# 1 104.2316 58.5326 25.7325 0.0000 0.0000 0.0000
# 2 58.5326 99.0472 34.0762 0.0000 0.0000 0.0000
# 3 25.7325 34.0762 81.3225 0.0000 0.0000 0.0000
# 4 0.0000 0.0000 0.0000 30.8985 0.0000 0.0000
# 5 0.0000 0.0000 0.0000 0.0000 28.3591 0.0000
# 6 0.0000 0.0000 0.0000 0.0000 0.0000 21.5386
#
#
#
# Elastic Compliance Matrix: (Units=1/GPa)
#
#
# Indices 1 2 3 4 5 6 
#
# 1 0.014453 -0.008141 -0.001162 0.000000 0.000000 0.000000
# 2 -0.008141 0.016383 -0.004289 0.000000 0.000000 0.000000
# 3 -0.001162 -0.004289 0.014461 0.000000 0.000000 0.000000
# 4 0.000000 0.000000 0.000000 0.032364 0.000000 0.000000
# 5 0.000000 0.000000 0.000000 0.000000 0.035262 0.000000
# 6 0.000000 0.000000 0.000000 0.000000 0.000000 0.046428
#
#
# Mechanical properties :
#
#
# Convention : Reuss Voigt Hill
#
# Bulk Modulus (GPa) = 55.20773 57.92042 56.56407
# Shear Modulus (GPa) = 25.96427 27.24325 26.60376
#
# Velocity S-wave (km/s) = 3.43041 3.51388 3.47240
# Velocity P-wave (km/s) = 6.38059 6.53561 6.45857
#
# Compressibility (1/GPa) = 0.01811341
#
# Stress axis : x y z
#
# Youngs Moduli (GPa) = 69.19168 61.03978 69.14948
#
# Poissons Ratio (x) = 0.49693 0.08034
# Poissons Ratio (y) = 0.56330 0.29656
# Poissons Ratio (z) = 0.08039 0.26178
#
# Static dielectric constant tensor:
#      x y z
#    x 3.939890 0.000000 0.000000 
#    y 0.000000 4.350430 0.000000 
#    z 0.000000 0.000000 4.130570 
# 
# 
# High freq. dielectric constant tensor:
#      x y z
#    x 1.850300 0.000000 0.000000 
#    y 0.000000 1.882030 0.000000 
#    z 0.000000 0.000000 1.870010 
# 
# From -- ./inp_files/15434.got.cif
#   From: 2010.03.12/outbox.cif.g09.slc.cpg/sg68_8_cif.got.tgz:15434.got - 2010.04.10 23:14:56.
