data_PCOD8283079
_publ_section_title
;
Structure prediction by ZEFSAII (Michael W. Deem and Ramdas Pophale) SiO2 
 PCOD8283079
Probable space group: C C C A
;
_chemical_formula_sum "Si O2"
_cell_formula_units_Z 80
_cell_length_a 12.714333
_cell_length_b 13.946460
_cell_length_c 23.224293
_cell_angle_alpha 90.000000
_cell_angle_beta 90.000000
_cell_angle_gamma 90.000000
_cell_volume 4118.130163
_symmetry_space_group_name_H-M "C C C A"
_symmetry_group_IT_number 68
_space_group.IT_coordinate_system_code '2'
_symmetry_cell_setting 'orthorhombic'
loop_
_space_group_symop_operation_xyz
x,y,z
-x,1/2-y,z
x,1/2-y,1/2-z
-x,y,1/2-z
-x,-y,-z
x,1/2+y,-z
-x,1/2+y,1/2+z
x,-y,1/2+z
1/2+x,1/2+y,z
1/2-x,-y,z
1/2+x,-y,1/2-z
1/2-x,1/2+y,1/2-z
1/2-x,1/2-y,-z
1/2+x,y,-z
1/2-x,y,1/2+z
1/2+x,1/2-y,1/2+z
loop_
_atom_site_type_symbol
_atom_site_label
_atom_site_fract_x
_atom_site_fract_y
_atom_site_fract_z
Si Si1 0.613487 0.205125 0.895040
Si Si2 0.803604 0.150784 0.608899
Si Si3 0.566928 0.905938 0.508002
Si Si4 0.750000 0.000000 0.701974
Si Si5 0.000000 0.750000 0.081786
Si Si6 0.380931 0.351322 0.770183
O O1 0.500000 0.250000 0.886809
O O2 0.694381 0.293928 0.900968
O O3 0.616092 0.134280 0.949100
O O4 0.635610 0.140930 0.838728
O O5 0.833596 0.087428 0.552135
O O6 0.805891 0.079405 0.662599
O O7 0.895979 0.230251 0.620164
O O8 0.479595 0.837387 0.537407
O O9 0.500000 0.000000 0.500000
O O10 0.668222 0.054358 0.742298
O O11 0.328261 0.250000 0.750000
O O12 0.500000 0.350543 0.750000
#
# Coordination Sequence:
#
# PCOD8283079 Si02
#       6
#    16  16  16   8   8  16
#     4  12  21  42  70  89 133 177 216 276 326 394
#     4  10  23  42  68  90 138 169 220 271 339 392
#     4  10  23  40  67 103 133 172 222 265 340 402
#     4  12  24  44  68 100 124 178 230 272 328 400
#     4   8  22  42  60  97 137 166 210 266 340 388
#     4  11  23  43  65  95 127 174 230 270 324 389
#
# _framework density 19.426292
#
# number of rings (size 3 to 8) (size 9 to 14) (size 15 to 20)
#    1.200    0.200    5.000    0.600    5.600    0.000 
#    7.200    0.000    0.000    0.000    0.000    0.000 
#    0.000    0.000    0.000    0.000    0.000    0.000 
#
# Total GULP energy -495537.468129 kJ/mol
# GULP energy per Si atom -12388.436703 kJ/mol
# Density = 1.938208 g / cm^3
# Si number density = 19.426292 Si / 1000 Ang^3
#
#
#
# Elastic Constant Matrix: (Units=GPa)
#
#
# Indices 1 2 3 4 5 6 
#
# 1 117.1895 66.8193 47.8541 0.0000 0.0000 0.0000
# 2 66.8193 131.6090 55.0360 0.0000 0.0000 0.0000
# 3 47.8541 55.0360 144.7737 0.0000 0.0000 0.0000
# 4 0.0000 0.0000 0.0000 48.5825 0.0000 0.0000
# 5 0.0000 0.0000 0.0000 0.0000 21.1602 0.0000
# 6 0.0000 0.0000 0.0000 0.0000 0.0000 31.3975
#
#
#
# Elastic Compliance Matrix: (Units=1/GPa)
#
#
# Indices 1 2 3 4 5 6 
#
# 1 0.012499 -0.005491 -0.002044 0.000000 0.000000 0.000000
# 2 -0.005491 0.011447 -0.002537 0.000000 0.000000 0.000000
# 3 -0.002044 -0.002537 0.008547 0.000000 0.000000 0.000000
# 4 0.000000 0.000000 0.000000 0.020584 0.000000 0.000000
# 5 0.000000 0.000000 0.000000 0.000000 0.047259 0.000000
# 6 0.000000 0.000000 0.000000 0.000000 0.000000 0.031850
#
#
# Mechanical properties :
#
#
# Convention : Reuss Voigt Hill
#
# Bulk Modulus (GPa) = 80.97296 81.44342 81.20819
# Shear Modulus (GPa) = 31.96034 35.15225 33.55630
#
# Velocity S-wave (km/s) = 4.06052 4.25846 4.16067
# Velocity P-wave (km/s) = 7.98476 8.13601 8.06074
#
# Compressibility (1/GPa) = 0.01234980
#
# Stress axis : x y z
#
# Youngs Moduli (GPa) = 80.00841 87.36064 116.99726
#
# Poissons Ratio (x) = 0.47969 0.23914
# Poissons Ratio (y) = 0.43932 0.29677
# Poissons Ratio (z) = 0.16353 0.22159
#
# Static dielectric constant tensor:
#      x y z
#    x 4.845880 0.000000 0.000000 
#    y 0.000000 3.607620 0.000000 
#    z 0.000000 0.000000 3.746280 
# 
# 
# High freq. dielectric constant tensor:
#      x y z
#    x 1.744220 0.000000 0.000000 
#    y 0.000000 1.753370 0.000000 
#    z 0.000000 0.000000 1.765010 
# 
# From -- ./inp_files/44182.got.cif
#   From: 2010.03.12/outbox.cif.g09.slc.cpg/sg68_23_cif.got.tgz:44182.got - 2010.04.10 23:14:56.
