data_PCOD8283921
_publ_section_title
;
Structure prediction by ZEFSAII (Michael W. Deem and Ramdas Pophale) SiO2 
 PCOD8283921
Probable space group: F M M M
;
_chemical_formula_sum "Si O2"
_cell_formula_units_Z 192
_cell_length_a 14.298225
_cell_length_b 29.619471
_cell_length_c 26.778311
_cell_angle_alpha 90.000000
_cell_angle_beta 90.000000
_cell_angle_gamma 90.000000
_cell_volume 11340.771649
_symmetry_space_group_name_H-M "F M M M"
_symmetry_group_IT_number 69
_symmetry_cell_setting 'orthorhombic'
loop_
_space_group_symop_operation_xyz
x,y,z
-x,-y,z
x,-y,-z
-x,y,-z
-x,-y,-z
x,y,-z
-x,y,z
x,-y,z
x,1/2+y,1/2+z
-x,1/2-y,1/2+z
x,1/2-y,1/2-z
-x,1/2+y,1/2-z
-x,1/2-y,1/2-z
x,1/2+y,1/2-z
-x,1/2+y,1/2+z
x,1/2-y,1/2+z
1/2+x,y,1/2+z
1/2-x,-y,1/2+z
1/2+x,-y,1/2-z
1/2-x,y,1/2-z
1/2-x,-y,1/2-z
1/2+x,y,1/2-z
1/2-x,y,1/2+z
1/2+x,-y,1/2+z
1/2+x,1/2+y,z
1/2-x,1/2-y,z
1/2+x,1/2-y,-z
1/2-x,1/2+y,-z
1/2-x,1/2-y,-z
1/2+x,1/2+y,-z
1/2-x,1/2+y,z
1/2+x,1/2-y,z
loop_
_atom_site_type_symbol
_atom_site_label
_atom_site_fract_x
_atom_site_fract_y
_atom_site_fract_z
Si Si1 0.657986 0.396416 0.402314
Si Si2 0.603401 0.195485 0.944179
Si Si3 0.765753 0.159770 0.168887
Si Si4 0.611570 0.446268 0.500000
Si Si5 0.394524 0.048544 0.809429
Si Si6 0.388670 0.364476 0.742549
Si Si7 0.250000 0.750000 0.614687
O O1 0.600087 0.351001 0.413191
O O2 0.753748 0.377726 0.375681
O O3 0.667412 0.425447 0.452839
O O4 0.606251 0.429322 0.364128
O O5 0.500000 0.215918 0.945444
O O6 0.666093 0.233725 0.919850
O O7 0.640195 0.184872 0.000000
O O8 0.670011 0.164330 0.201797
O O9 0.855816 0.146313 0.201610
O O10 0.788212 0.209113 0.148032
O O11 0.623231 0.500000 0.500000
O O12 0.500000 0.433220 0.500000
O O13 0.500000 0.038242 0.795715
O O14 0.357235 0.083648 0.768088
O O15 0.340096 0.000000 0.808135
O O16 0.500000 0.355827 0.736098
#
# Coordination Sequence:
#
# PCOD8283921 Si02
#       7
#    32  32  32  16  32  32  16
#     4  10  18  30  46  68 101 133 158 196 239 294
#     4  10  19  32  50  69  93 128 167 202 242 291
#     4   9  20  35  49  72  98 128 164 204 248 298
#     4  11  20  28  44  73 105 135 167 200 240 297
#     4   9  16  27  45  69  96 125 158 194 233 282
#     4   9  18  34  53  71  97 130 164 201 248 294
#     4  10  21  33  48  70  98 124 162 208 246 292
#
# _framework density 16.930064999999999
#
# number of rings (size 3 to 8) (size 9 to 14) (size 15 to 20)
#    0.000    2.417    0.833    2.250    0.000    8.000 
#    0.000    8.333    0.000    0.000    0.000    0.000 
#    0.000    0.667    0.000    0.000    0.000    0.000 
#
# Total GULP energy -594627.994581 kJ/mol
# GULP energy per Si atom -12388.083220 kJ/mol
# Density = 1.689153 g / cm^3
# Si number density = 16.930065 Si / 1000 Ang^3
#
#
#
# Elastic Constant Matrix: (Units=GPa)
#
#
# Indices 1 2 3 4 5 6 
#
# 1 59.6509 29.8183 30.8190 0.0000 0.0000 0.0000
# 2 29.8183 108.2877 46.7132 0.0000 0.0000 0.0000
# 3 30.8190 46.7132 99.6891 0.0000 0.0000 0.0000
# 4 0.0000 0.0000 0.0000 12.2344 0.0000 0.0000
# 5 0.0000 0.0000 0.0000 0.0000 24.6895 0.0000
# 6 0.0000 0.0000 0.0000 0.0000 0.0000 15.9019
#
#
#
# Elastic Compliance Matrix: (Units=1/GPa)
#
#
# Indices 1 2 3 4 5 6 
#
# 1 0.021103 -0.003756 -0.004764 0.000000 0.000000 0.000000
# 2 -0.003756 0.012243 -0.004576 0.000000 0.000000 0.000000
# 3 -0.004764 -0.004576 0.013648 0.000000 0.000000 0.000000
# 4 0.000000 0.000000 0.000000 0.081737 0.000000 0.000000
# 5 0.000000 0.000000 0.000000 0.000000 0.040503 0.000000
# 6 0.000000 0.000000 0.000000 0.000000 0.000000 0.062885
#
#
# Mechanical properties :
#
#
# Convention : Reuss Voigt Hill
#
# Bulk Modulus (GPa) = 48.07069 53.59208 50.83139
# Shear Modulus (GPa) = 18.85052 21.25031 20.05042
#
# Velocity S-wave (km/s) = 3.34044 3.54670 3.44511
# Velocity P-wave (km/s) = 6.58281 6.96389 6.77603
#
# Compressibility (1/GPa) = 0.02080270
#
# Stress axis : x y z
#
# Youngs Moduli (GPa) = 47.38644 81.68103 73.27009
#
# Poissons Ratio (x) = 0.30678 0.34907
# Poissons Ratio (y) = 0.17798 0.33526
# Poissons Ratio (z) = 0.22575 0.37375
#
# Static dielectric constant tensor:
#      x y z
#    x 2.911370 0.000000 0.000000 
#    y 0.000000 3.606510 0.000000 
#    z 0.000000 0.000000 3.334940 
# 
# 
# High freq. dielectric constant tensor:
#      x y z
#    x 1.611950 0.000000 0.000000 
#    y 0.000000 1.659600 0.000000 
#    z 0.000000 0.000000 1.661300 
# 
# From -- ./inp_files/41280.got.cif
#   From: 2010.03.12/outbox.cif.g09.slc.cpg/sg69_21_cif.got.tgz:41280.got - 2010.04.10 23:52:46.
