data_PCOD8283713
_publ_section_title
;
Structure prediction by ZEFSAII (Michael W. Deem and Ramdas Pophale) SiO2 
 PCOD8283713
Probable space group: C C C A
;
_chemical_formula_sum "Si O2"
_cell_formula_units_Z 72
_cell_length_a 20.212038
_cell_length_b 5.102856
_cell_length_c 26.783028
_cell_angle_alpha 90.000000
_cell_angle_beta 90.000000
_cell_angle_gamma 90.000000
_cell_volume 2762.377922
_symmetry_space_group_name_H-M "C C C A"
_symmetry_group_IT_number 68
_space_group.IT_coordinate_system_code '2'
_symmetry_cell_setting 'orthorhombic'
loop_
_space_group_symop_operation_xyz
x,y,z
-x,1/2-y,z
x,1/2-y,1/2-z
-x,y,1/2-z
-x,-y,-z
x,1/2+y,-z
-x,1/2+y,1/2+z
x,-y,1/2+z
1/2+x,1/2+y,z
1/2-x,-y,z
1/2+x,-y,1/2-z
1/2-x,1/2+y,1/2-z
1/2-x,1/2-y,-z
1/2+x,y,-z
1/2-x,y,1/2+z
1/2+x,1/2-y,1/2+z
loop_
_atom_site_type_symbol
_atom_site_label
_atom_site_fract_x
_atom_site_fract_y
_atom_site_fract_z
Si Si1 0.114254 0.115904 0.026279
Si Si2 0.137013 0.496399 0.282223
Si Si3 0.576017 0.255062 0.868994
Si Si4 0.250000 0.000000 0.548498
Si Si5 0.690305 0.321918 0.364957
O O1 0.107607 0.084037 0.086119
O O2 0.193666 0.143381 0.015317
O O3 0.080879 0.376062 0.003639
O O4 0.165370 0.250000 0.250000
O O5 0.075810 0.386048 0.314900
O O6 0.188999 0.586933 0.324340
O O7 0.115266 0.750000 0.250000
O O8 0.500000 0.250000 0.884949
O O9 0.618686 0.526015 0.866712
O O10 0.209655 0.213553 0.581126
O O11 0.750000 0.500000 0.344924
#
# Coordination Sequence:
#
# PCOD8283713 Si02
#       5
#    16  16  16   8  16
#     4  12  27  48  80 119 155 209 268 330 404 484
#     4  12  27  55  79 120 157 210 269 330 396 482
#     4  12  29  54  80 114 167 215 262 336 405 478
#     4  12  24  46  80 116 160 208 264 336 404 480
#     4  12  24  52  83 116 162 210 266 331 411 482
#
# _framework density 26.064502999999998
#
# number of rings (size 3 to 8) (size 9 to 14) (size 15 to 20)
#    0.000    0.000    6.667    2.000    0.000    2.222 
#   10.000    0.000    0.000    0.000    0.000    0.000 
#    0.000    0.000    0.000    0.000    0.000    0.000 
#
# Total GULP energy -446054.704659 kJ/mol
# GULP energy per Si atom -12390.408463 kJ/mol
# Density = 2.600518 g / cm^3
# Si number density = 26.064503 Si / 1000 Ang^3
#
#
#
# Elastic Constant Matrix: (Units=GPa)
#
#
# Indices 1 2 3 4 5 6 
#
# 1 106.6773 33.7655 -6.5620 0.0000 0.0000 0.0000
# 2 33.7655 178.0933 59.7304 0.0000 0.0000 0.0000
# 3 -6.5620 59.7304 141.1060 0.0000 0.0000 0.0000
# 4 0.0000 0.0000 0.0000 29.1920 0.0000 0.0000
# 5 0.0000 0.0000 0.0000 0.0000 1.9553 0.0000
# 6 0.0000 0.0000 0.0000 0.0000 0.0000 31.4882
#
#
#
# Elastic Compliance Matrix: (Units=1/GPa)
#
#
# Indices 1 2 3 4 5 6 
#
# 1 0.010242 -0.002449 0.001513 0.000000 0.000000 0.000000
# 2 -0.002449 0.007130 -0.003132 0.000000 0.000000 0.000000
# 3 0.001513 -0.003132 0.008483 0.000000 0.000000 0.000000
# 4 0.000000 0.000000 0.000000 0.034256 0.000000 0.000000
# 5 0.000000 0.000000 0.000000 0.000000 0.511434 0.000000
# 6 0.000000 0.000000 0.000000 0.000000 0.000000 0.031758
#
#
# Mechanical properties :
#
#
# Convention : Reuss Voigt Hill
#
# Bulk Modulus (GPa) = 56.43716 66.63827 61.53772
# Shear Modulus (GPa) = 8.09919 35.12329 21.61124
#
# Velocity S-wave (km/s) = 1.76468 3.67488 2.88261
# Velocity P-wave (km/s) = 5.08449 6.60519 5.89409
#
# Compressibility (1/GPa) = 0.01771882
#
# Stress axis : x y z
#
# Youngs Moduli (GPa) = 97.63311 140.25520 117.88265
#
# Poissons Ratio (x) = 0.34354 -0.17837
# Poissons Ratio (y) = 0.23914 0.36921
# Poissons Ratio (z) = -0.14773 0.43928
#
# Static dielectric constant tensor:
#      x y z
#    x 4.367440 0.000000 0.000000 
#    y 0.000000 5.027340 0.000000 
#    z 0.000000 0.000000 4.868020 
# 
# 
# High freq. dielectric constant tensor:
#      x y z
#    x 2.011020 0.000000 0.000000 
#    y 0.000000 2.059140 0.000000 
#    z 0.000000 0.000000 2.066230 
# 
# From -- ./inp_files/52042.got.cif
#   From: 2010.03.12/outbox.cif.g09.slc.cpg/sg68_27_cif.got.tgz:52042.got - 2010.04.10 23:14:56.
