data_PCOD8283849
_publ_section_title
;
Structure prediction by ZEFSAII (Michael W. Deem and Ramdas Pophale) SiO2 
 PCOD8283849
Probable space group: F M M M
;
_chemical_formula_sum "Si O2"
_cell_formula_units_Z 176
_cell_length_a 25.457038
_cell_length_b 18.022940
_cell_length_c 22.729886
_cell_angle_alpha 90.000000
_cell_angle_beta 90.000000
_cell_angle_gamma 90.000000
_cell_volume 10428.714189
_symmetry_space_group_name_H-M "F M M M"
_symmetry_group_IT_number 69
_symmetry_cell_setting 'orthorhombic'
loop_
_space_group_symop_operation_xyz
x,y,z
-x,-y,z
x,-y,-z
-x,y,-z
-x,-y,-z
x,y,-z
-x,y,z
x,-y,z
x,1/2+y,1/2+z
-x,1/2-y,1/2+z
x,1/2-y,1/2-z
-x,1/2+y,1/2-z
-x,1/2-y,1/2-z
x,1/2+y,1/2-z
-x,1/2+y,1/2+z
x,1/2-y,1/2+z
1/2+x,y,1/2+z
1/2-x,-y,1/2+z
1/2+x,-y,1/2-z
1/2-x,y,1/2-z
1/2-x,-y,1/2-z
1/2+x,y,1/2-z
1/2-x,y,1/2+z
1/2+x,-y,1/2+z
1/2+x,1/2+y,z
1/2-x,1/2-y,z
1/2+x,1/2-y,-z
1/2-x,1/2+y,-z
1/2-x,1/2-y,-z
1/2+x,1/2+y,-z
1/2-x,1/2+y,z
1/2+x,1/2-y,z
loop_
_atom_site_type_symbol
_atom_site_label
_atom_site_fract_x
_atom_site_fract_y
_atom_site_fract_z
Si Si1 0.146134 0.582964 0.185010
Si Si2 0.937880 0.415392 0.500000
Si Si3 0.152678 0.919528 0.178778
Si Si4 0.940314 0.154564 0.879046
Si Si5 0.059908 0.705089 0.191976
Si Si6 0.751919 0.833209 0.679683
O O1 0.137708 0.500000 0.157475
O O2 0.160821 0.572885 0.252338
O O3 0.094102 0.632703 0.177742
O O4 0.196048 0.624725 0.155671
O O5 0.915085 0.500000 0.500000
O O6 0.918918 0.368057 0.556489
O O7 0.000000 0.419865 0.500000
O O8 0.095462 0.885455 0.168862
O O9 0.200220 0.871540 0.152301
O O10 0.155202 0.000000 0.148501
O O11 0.936782 0.242479 0.865938
O O12 0.000000 0.126402 0.870205
O O13 0.080497 0.750000 0.250000
O O14 0.000000 0.679417 0.203467
O O15 0.750000 0.832433 0.750000
O O16 0.750000 0.750000 0.654900
#
# Coordination Sequence:
#
# PCOD8283849 Si02
#       6
#    32  16  32  32  32  32
#     4  10  19  29  43  65  96 128 160 198 242 289
#     4   9  18  32  48  70  98 127 167 211 247 291
#     4  10  18  27  41  64  93 123 159 195 236 292
#     4  10  19  31  48  68  95 132 165 199 246 295
#     4  10  19  31  46  67  96 128 164 199 239 299
#     4   9  17  27  42  60  86 124 160 197 235 285
#
# _framework density 16.876480999999998
#
# number of rings (size 3 to 8) (size 9 to 14) (size 15 to 20)
#    0.000    2.273    1.818    2.182    2.545    3.636 
#    0.000    1.818    0.000    0.000    0.000    6.364 
#    0.000    3.636    0.000    0.000    0.000    0.000 
#
# Total GULP energy -545314.099475 kJ/mol
# GULP energy per Si atom -12393.502261 kJ/mol
# Density = 1.683807 g / cm^3
# Si number density = 16.876481 Si / 1000 Ang^3
#
#
#
# Elastic Constant Matrix: (Units=GPa)
#
#
# Indices 1 2 3 4 5 6 
#
# 1 108.6204 68.7899 7.8592 0.0000 0.0000 0.0000
# 2 68.7899 146.9647 16.5064 0.0000 0.0000 0.0000
# 3 7.8592 16.5064 31.8122 0.0000 0.0000 0.0000
# 4 0.0000 0.0000 0.0000 17.4161 0.0000 0.0000
# 5 0.0000 0.0000 0.0000 0.0000 6.1713 0.0000
# 6 0.0000 0.0000 0.0000 0.0000 0.0000 27.3208
#
#
#
# Elastic Compliance Matrix: (Units=1/GPa)
#
#
# Indices 1 2 3 4 5 6 
#
# 1 0.013085 -0.006118 -0.000058 0.000000 0.000000 0.000000
# 2 -0.006118 0.010086 -0.003722 0.000000 0.000000 0.000000
# 3 -0.000058 -0.003722 0.033380 0.000000 0.000000 0.000000
# 4 0.000000 0.000000 0.000000 0.057418 0.000000 0.000000
# 5 0.000000 0.000000 0.000000 0.000000 0.162041 0.000000
# 6 0.000000 0.000000 0.000000 0.000000 0.000000 0.036602
#
#
# Mechanical properties :
#
#
# Convention : Reuss Voigt Hill
#
# Bulk Modulus (GPa) = 27.20728 52.63426 39.92077
# Shear Modulus (GPa) = 14.50702 23.13110 18.81906
#
# Velocity S-wave (km/s) = 2.93507 3.70619 3.34294
# Velocity P-wave (km/s) = 5.25763 7.04061 6.21340
#
# Compressibility (1/GPa) = 0.03675487
#
# Stress axis : x y z
#
# Youngs Moduli (GPa) = 76.42125 99.14529 29.95805
#
# Poissons Ratio (x) = 0.60661 0.00174
# Poissons Ratio (y) = 0.46757 0.11150
# Poissons Ratio (z) = 0.00444 0.36901
#
# Static dielectric constant tensor:
#      x y z
#    x 3.188510 0.000000 0.000000 
#    y 0.000000 3.465630 0.000000 
#    z 0.000000 0.000000 2.752130 
# 
# 
# High freq. dielectric constant tensor:
#      x y z
#    x 1.656040 0.000000 0.000000 
#    y 0.000000 1.661150 0.000000 
#    z 0.000000 0.000000 1.575590 
# 
# From -- ./inp_files/38319.got.cif
#   From: 2010.03.12/outbox.cif.g09.slc.cpg/sg69_20_cif.got.tgz:38319.got - 2010.04.10 23:52:46.
