data_PCOD8283698
_publ_section_title
;
Structure prediction by ZEFSAII (Michael W. Deem and Ramdas Pophale) SiO2 
 PCOD8283698
Probable space group: C C C A
;
_chemical_formula_sum "Si O2"
_cell_formula_units_Z 72
_cell_length_a 7.600732
_cell_length_b 25.759349
_cell_length_c 16.065546
_cell_angle_alpha 90.000000
_cell_angle_beta 90.000000
_cell_angle_gamma 90.000000
_cell_volume 3145.471777
_symmetry_space_group_name_H-M "C C C A"
_symmetry_group_IT_number 68
_space_group.IT_coordinate_system_code '2'
_symmetry_cell_setting 'orthorhombic'
loop_
_space_group_symop_operation_xyz
x,y,z
-x,1/2-y,z
x,1/2-y,1/2-z
-x,y,1/2-z
-x,-y,-z
x,1/2+y,-z
-x,1/2+y,1/2+z
x,-y,1/2+z
1/2+x,1/2+y,z
1/2-x,-y,z
1/2+x,-y,1/2-z
1/2-x,1/2+y,1/2-z
1/2-x,1/2-y,-z
1/2+x,y,-z
1/2-x,y,1/2+z
1/2+x,1/2-y,1/2+z
loop_
_atom_site_type_symbol
_atom_site_label
_atom_site_fract_x
_atom_site_fract_y
_atom_site_fract_z
Si Si1 0.150988 0.214604 0.565171
Si Si2 0.500000 0.912299 0.750000
Si Si3 0.056300 0.112747 0.462392
Si Si4 0.135513 0.449408 0.585536
Si Si5 0.160372 0.648594 0.813223
O O1 0.250000 0.250000 0.500000
O O2 0.068359 0.163904 0.519846
O O3 0.275845 0.201839 0.643604
O O4 0.000000 0.250000 0.604742
O O5 0.543669 0.951305 0.675139
O O6 0.671827 0.877832 0.769808
O O7 0.243292 0.102436 0.419230
O O8 0.012910 0.060788 0.515978
O O9 0.907972 0.114758 0.391130
O O10 0.250000 0.500000 0.569817
O O11 0.000000 0.659448 0.750000
#
# Coordination Sequence:
#
# PCOD8283698 Si02
#       5
#    16   8  16  16  16
#     4  12  24  45  78 110 146 204 260 316 393 474
#     4  12  26  46  73 112 158 204 247 330 400 458
#     4  12  23  47  74 106 152 201 257 322 381 463
#     4  12  25  44  77 112 152 205 260 319 392 474
#     4  12  26  47  78 107 160 202 252 325 401 454
#
# _framework density 22.890049000000001
#
# number of rings (size 3 to 8) (size 9 to 14) (size 15 to 20)
#    0.000    0.000    8.889    0.667    0.000    1.778 
#    0.000    8.333    0.000    0.000    0.000    0.000 
#    0.000    0.000    0.000    0.000    0.000    0.000 
#
# Total GULP energy -446262.375853 kJ/mol
# GULP energy per Si atom -12396.177107 kJ/mol
# Density = 2.283795 g / cm^3
# Si number density = 22.890049 Si / 1000 Ang^3
#
#
#
# Elastic Constant Matrix: (Units=GPa)
#
#
# Indices 1 2 3 4 5 6 
#
# 1 128.4469 39.0252 59.3073 0.0000 0.0000 0.0000
# 2 39.0252 98.7003 49.1840 0.0000 0.0000 0.0000
# 3 59.3073 49.1840 154.3679 0.0000 0.0000 0.0000
# 4 0.0000 0.0000 0.0000 21.2672 0.0000 0.0000
# 5 0.0000 0.0000 0.0000 0.0000 54.1749 0.0000
# 6 0.0000 0.0000 0.0000 0.0000 0.0000 54.1115
#
#
#
# Elastic Compliance Matrix: (Units=1/GPa)
#
#
# Indices 1 2 3 4 5 6 
#
# 1 0.009922 -0.002406 -0.003046 0.000000 0.000000 0.000000
# 2 -0.002406 0.012627 -0.003099 0.000000 0.000000 0.000000
# 3 -0.003046 -0.003099 0.008636 0.000000 0.000000 0.000000
# 4 0.000000 0.000000 0.000000 0.047021 0.000000 0.000000
# 5 0.000000 0.000000 0.000000 0.000000 0.018459 0.000000
# 6 0.000000 0.000000 0.000000 0.000000 0.000000 0.018480
#
#
# Mechanical properties :
#
#
# Convention : Reuss Voigt Hill
#
# Bulk Modulus (GPa) = 70.99931 75.17199 73.08565
# Shear Modulus (GPa) = 36.51226 41.51062 39.01144
#
# Velocity S-wave (km/s) = 3.99822 4.26312 4.13279
# Velocity P-wave (km/s) = 7.23873 7.55936 7.40078
#
# Compressibility (1/GPa) = 0.01408464
#
# Stress axis : x y z
#
# Youngs Moduli (GPa) = 100.78146 79.19487 115.80014
#
# Poissons Ratio (x) = 0.19050 0.35269
# Poissons Ratio (y) = 0.24243 0.35886
# Poissons Ratio (z) = 0.30695 0.24542
#
# Static dielectric constant tensor:
#      x y z
#    x 4.667800 0.000000 0.000000 
#    y 0.000000 3.968080 0.000000 
#    z 0.000000 0.000000 4.329140 
# 
# 
# High freq. dielectric constant tensor:
#      x y z
#    x 1.932150 0.000000 0.000000 
#    y 0.000000 1.885260 0.000000 
#    z 0.000000 0.000000 1.910370 
# 
# From -- ./inp_files/19450.got.cif
#   From: 2010.03.12/outbox.cif.g09.slc.cpg/sg68_10_cif.got.tgz:19450.got - 2010.04.10 23:14:56.
