data_PCOD8283675
_publ_section_title
;
Structure prediction by ZEFSAII (Michael W. Deem and Ramdas Pophale) SiO2 
 PCOD8283675
Probable space group: C C C A
;
_chemical_formula_sum "Si O2"
_cell_formula_units_Z 64
_cell_length_a 21.859427
_cell_length_b 8.220066
_cell_length_c 15.451644
_cell_angle_alpha 90.000000
_cell_angle_beta 90.000000
_cell_angle_gamma 90.000000
_cell_volume 2776.443063
_symmetry_space_group_name_H-M "C C C A"
_symmetry_group_IT_number 68
_space_group.IT_coordinate_system_code '2'
_symmetry_cell_setting 'orthorhombic'
loop_
_space_group_symop_operation_xyz
x,y,z
-x,1/2-y,z
x,1/2-y,1/2-z
-x,y,1/2-z
-x,-y,-z
x,1/2+y,-z
-x,1/2+y,1/2+z
x,-y,1/2+z
1/2+x,1/2+y,z
1/2-x,-y,z
1/2+x,-y,1/2-z
1/2-x,1/2+y,1/2-z
1/2-x,1/2-y,-z
1/2+x,y,-z
1/2-x,y,1/2+z
1/2+x,1/2-y,1/2+z
loop_
_atom_site_type_symbol
_atom_site_label
_atom_site_fract_x
_atom_site_fract_y
_atom_site_fract_z
Si Si1 0.136591 0.750000 0.250000
Si Si2 0.886202 0.750652 0.555294
Si Si3 0.817336 0.069858 0.586165
Si Si4 0.500000 0.750000 0.566762
Si Si5 0.045518 0.516477 0.818844
O O1 0.177869 0.810124 0.330915
O O2 0.094303 0.896160 0.221441
O O3 0.830563 0.662979 0.504464
O O4 0.938949 0.776062 0.486244
O O5 0.914485 0.651057 0.633909
O O6 0.864687 0.920907 0.595067
O O7 0.750000 0.000000 0.581225
O O8 0.497242 0.584743 0.622197
O O9 0.000000 0.600831 0.750000
#
# Coordination Sequence:
#
# PCOD8283675 Si02
#       5
#     8  16  16   8  16
#     4  12  25  46  66 102 148 199 246 312 378 440
#     4  12  26  45  75 112 142 194 258 307 380 467
#     4  12  27  50  76 104 150 204 259 318 373 450
#     4  12  21  44  71 106 150 184 242 304 385 451
#     4  12  23  43  73 109 157 195 237 310 392 454
#
# _framework density 23.051074
#
# number of rings (size 3 to 8) (size 9 to 14) (size 15 to 20)
#    0.000    0.000    7.500    1.500    3.500    3.000 
#    0.000    1.250    0.000    0.000    0.000    0.000 
#    0.000    0.000    0.000    0.000    0.000    0.000 
#
# Total GULP energy -396811.326080 kJ/mol
# GULP energy per Si atom -12400.353940 kJ/mol
# Density = 2.299861 g / cm^3
# Si number density = 23.051074 Si / 1000 Ang^3
#
#
#
# Elastic Constant Matrix: (Units=GPa)
#
#
# Indices 1 2 3 4 5 6 
#
# 1 109.7419 -5.8679 33.6435 0.0000 0.0000 0.0000
# 2 -5.8679 49.3332 9.4488 0.0000 0.0000 0.0000
# 3 33.6435 9.4488 106.4291 0.0000 0.0000 0.0000
# 4 0.0000 0.0000 0.0000 172.6362 0.0000 0.0000
# 5 0.0000 0.0000 0.0000 0.0000 25.0149 0.0000
# 6 0.0000 0.0000 0.0000 0.0000 0.0000 23.6237
#
#
#
# Elastic Compliance Matrix: (Units=1/GPa)
#
#
# Indices 1 2 3 4 5 6 
#
# 1 0.010257 0.001873 -0.003409 0.000000 0.000000 0.000000
# 2 0.001873 0.020963 -0.002453 0.000000 0.000000 0.000000
# 3 -0.003409 -0.002453 0.010691 0.000000 0.000000 0.000000
# 4 0.000000 0.000000 0.000000 0.005793 0.000000 0.000000
# 5 0.000000 0.000000 0.000000 0.000000 0.039976 0.000000
# 6 0.000000 0.000000 0.000000 0.000000 0.000000 0.042330
#
#
# Mechanical properties :
#
#
# Convention : Reuss Voigt Hill
#
# Bulk Modulus (GPa) = 29.46922 37.77257 33.62090
# Shear Modulus (GPa) = 33.48963 59.47362 46.48162
#
# Velocity S-wave (km/s) = 3.81576 5.08496 4.49538
# Velocity P-wave (km/s) = 5.67674 7.13427 6.44683
#
# Compressibility (1/GPa) = 0.03393371
#
# Stress axis : x y z
#
# Youngs Moduli (GPa) = 97.48992 47.70316 93.53418
#
# Poissons Ratio (x) = -0.08935 0.31884
# Poissons Ratio (y) = -0.18259 0.22946
# Poissons Ratio (z) = 0.33232 0.11702
#
# Static dielectric constant tensor:
#      x y z
#    x 3.999400 0.000000 0.000000 
#    y 0.000000 3.975320 0.000000 
#    z 0.000000 0.000000 5.314420 
# 
# 
# High freq. dielectric constant tensor:
#      x y z
#    x 1.907100 0.000000 0.000000 
#    y 0.000000 1.924340 0.000000 
#    z 0.000000 0.000000 1.923340 
# 
# From -- ./inp_files/25053.got.cif
#   From: 2010.03.12/outbox.cif.g09.slc.cpg/sg68_13_cif.got.tgz:25053.got - 2010.04.10 23:14:56.
