data_PCOD8283200
_publ_section_title
;
Structure prediction by ZEFSAII (Michael W. Deem and Ramdas Pophale) SiO2 
 PCOD8283200
Probable space group: C C C A
;
_chemical_formula_sum "Si O2"
_cell_formula_units_Z 44
_cell_length_a 12.743846
_cell_length_b 7.232068
_cell_length_c 22.234924
_cell_angle_alpha 90.000000
_cell_angle_beta 90.000000
_cell_angle_gamma 90.000000
_cell_volume 2049.267559
_symmetry_space_group_name_H-M "C C C A"
_symmetry_group_IT_number 68
_space_group.IT_coordinate_system_code '2'
_symmetry_cell_setting 'orthorhombic'
loop_
_space_group_symop_operation_xyz
x,y,z
-x,1/2-y,z
x,1/2-y,1/2-z
-x,y,1/2-z
-x,-y,-z
x,1/2+y,-z
-x,1/2+y,1/2+z
x,-y,1/2+z
1/2+x,1/2+y,z
1/2-x,-y,z
1/2+x,-y,1/2-z
1/2-x,1/2+y,1/2-z
1/2-x,1/2-y,-z
1/2+x,y,-z
1/2-x,y,1/2+z
1/2+x,1/2-y,1/2+z
loop_
_atom_site_type_symbol
_atom_site_label
_atom_site_fract_x
_atom_site_fract_y
_atom_site_fract_z
Si Si1 0.500000 0.250000 0.250000
Si Si2 0.250000 0.000000 0.981888
Si Si3 0.380294 0.691747 0.427034
Si Si4 0.861210 0.426648 0.208936
O O1 0.565725 0.391965 0.209424
O O2 0.147689 0.036767 0.023730
O O3 0.289564 0.157404 0.937521
O O4 0.500000 0.750000 0.436671
O O5 0.360161 0.631405 0.359610
O O6 0.897109 0.250000 0.250000
O O7 0.750000 0.500000 0.232578
#
# Coordination Sequence:
#
# PCOD8283200 Si02
#       4
#     4   8  16  16
#     4  12  26  48  72 100 140 184 230 284 366 412
#     4  10  24  42  68  98 134 184 230 284 336 408
#     4  11  23  44  67  99 136 179 232 283 344 409
#     4  12  26  46  73 105 139 182 231 290 351 416
#
# _framework density 21.471086
#
# number of rings (size 3 to 8) (size 9 to 14) (size 15 to 20)
#    0.000    0.727    3.636    3.818    2.545    2.909 
#    3.273    0.000    0.000    0.000    0.000    0.000 
#    0.000    0.000    0.000    0.000    0.000    0.000 
#
# Total GULP energy -272591.113958 kJ/mol
# GULP energy per Si atom -12390.505180 kJ/mol
# Density = 2.142222 g / cm^3
# Si number density = 21.471086 Si / 1000 Ang^3
#
#
#
# Elastic Constant Matrix: (Units=GPa)
#
#
# Indices 1 2 3 4 5 6 
#
# 1 112.3983 43.8151 44.1240 0.0000 0.0000 0.0000
# 2 43.8151 143.0934 78.0526 0.0000 0.0000 0.0000
# 3 44.1240 78.0526 147.8893 0.0000 0.0000 0.0000
# 4 0.0000 0.0000 0.0000 10.1079 0.0000 0.0000
# 5 0.0000 0.0000 0.0000 0.0000 26.6201 0.0000
# 6 0.0000 0.0000 0.0000 0.0000 0.0000 -17.8791
#
#
#
# Elastic Compliance Matrix: (Units=1/GPa)
#
#
# Indices 1 2 3 4 5 6 
#
# 1 0.010515 -0.002118 -0.002019 0.000000 0.000000 0.000000
# 2 -0.002118 0.010240 -0.004773 0.000000 0.000000 0.000000
# 3 -0.002019 -0.004773 0.009883 0.000000 0.000000 0.000000
# 4 0.000000 0.000000 0.000000 0.098932 0.000000 0.000000
# 5 0.000000 0.000000 0.000000 0.000000 0.037566 0.000000
# 6 0.000000 0.000000 0.000000 0.000000 0.000000 -0.055931
#
#
# Mechanical properties :
#
#
# Convention : Reuss Voigt Hill
#
# Bulk Modulus (GPa) = 78.01296 81.70717 79.86006
# Shear Modulus (GPa) = 37.50973 19.59576 28.55274
#
# Velocity S-wave (km/s) = 4.18423 3.02430 3.65063
# Velocity P-wave (km/s) = 7.73024 7.09453 7.41919
#
# Compressibility (1/GPa) = 0.01281838
#
# Stress axis : x y z
#
# Youngs Moduli (GPa) = 95.09834 97.65275 101.18199
#
# Poissons Ratio (x) = 0.20686 0.20432
# Poissons Ratio (y) = 0.20145 0.48290
# Poissons Ratio (z) = 0.19204 0.46606
#
# Static dielectric constant tensor:
#      x y z
#    x 4.106890 0.000000 0.000000 
#    y 0.000000 4.412890 0.000000 
#    z 0.000000 0.000000 3.743870 
# 
# 
# High freq. dielectric constant tensor:
#      x y z
#    x 1.859460 0.000000 0.000000 
#    y 0.000000 1.856250 0.000000 
#    z 0.000000 0.000000 1.844350 
# 
# From -- ./inp_files/27431.got.cif
#   From: 2010.03.12/outbox.cif.g09.slc.cpg/sg68_14_cif.got.tgz:27431.got - 2010.04.10 23:14:56.
