data_PCOD8283954
_publ_section_title
;
Structure prediction by ZEFSAII (Michael W. Deem and Ramdas Pophale) SiO2 
 PCOD8283954
Probable space group: F M M M
;
_chemical_formula_sum "Si O2"
_cell_formula_units_Z 160
_cell_length_a 19.314931
_cell_length_b 25.400137
_cell_length_c 19.024332
_cell_angle_alpha 90.000000
_cell_angle_beta 90.000000
_cell_angle_gamma 90.000000
_cell_volume 9333.373303
_symmetry_space_group_name_H-M "F M M M"
_symmetry_group_IT_number 69
_symmetry_cell_setting 'orthorhombic'
loop_
_space_group_symop_operation_xyz
x,y,z
-x,-y,z
x,-y,-z
-x,y,-z
-x,-y,-z
x,y,-z
-x,y,z
x,-y,z
x,1/2+y,1/2+z
-x,1/2-y,1/2+z
x,1/2-y,1/2-z
-x,1/2+y,1/2-z
-x,1/2-y,1/2-z
x,1/2+y,1/2-z
-x,1/2+y,1/2+z
x,1/2-y,1/2+z
1/2+x,y,1/2+z
1/2-x,-y,1/2+z
1/2+x,-y,1/2-z
1/2-x,y,1/2-z
1/2-x,-y,1/2-z
1/2+x,y,1/2-z
1/2-x,y,1/2+z
1/2+x,-y,1/2+z
1/2+x,1/2+y,z
1/2-x,1/2-y,z
1/2+x,1/2-y,-z
1/2-x,1/2+y,-z
1/2-x,1/2-y,-z
1/2+x,1/2+y,-z
1/2-x,1/2+y,z
1/2+x,1/2-y,z
loop_
_atom_site_type_symbol
_atom_site_label
_atom_site_fract_x
_atom_site_fract_y
_atom_site_fract_z
Si Si1 0.580004 0.896777 0.292847
Si Si2 0.245040 0.500000 0.363261
Si Si3 0.327269 0.191318 0.774523
Si Si4 0.777884 0.191484 0.577727
Si Si5 0.863124 0.000000 0.262322
Si Si6 0.324362 0.401899 0.078832
O O1 0.500000 0.882911 0.300381
O O2 0.617461 0.847463 0.258185
O O3 0.610183 0.907734 0.370193
O O4 0.589625 0.948179 0.244246
O O5 0.194876 0.500000 0.296962
O O6 0.324822 0.500000 0.337810
O O7 0.231820 0.447899 0.408913
O O8 0.345605 0.250000 0.750000
O O9 0.250000 0.175454 0.750000
O O10 0.333184 0.185169 0.859395
O O11 0.810695 0.180302 0.500000
O O12 0.750000 0.250000 0.581836
O O13 0.712898 0.153584 0.591515
O O14 0.353506 0.406124 0.000000
#
# Coordination Sequence:
#
# PCOD8283954 Si02
#       6
#    32  16  32  32  16  32
#     4  11  22  34  51  75 107 144 179 212 259 318
#     4   9  17  30  51  75  93 129 168 218 258 302
#     4  11  19  34  55  78 105 137 175 224 268 306
#     4  10  18  30  51  78 103 130 167 215 267 311
#     4   9  19  32  51  71 100 130 172 220 258 299
#     4  10  19  31  48  74 106 135 170 212 262 316
#
# _framework density 17.142783999999999
#
# number of rings (size 3 to 8) (size 9 to 14) (size 15 to 20)
#    0.000    1.800    4.000    1.800    2.800    0.800 
#    0.000    0.000    0.000    4.200    0.000    0.000 
#    0.000    8.000    0.000    0.000    0.000    0.000 
#
# Total GULP energy -495956.603161 kJ/mol
# GULP energy per Si atom -12398.915079 kJ/mol
# Density = 1.710377 g / cm^3
# Si number density = 17.142784 Si / 1000 Ang^3
#
#
#
# Elastic Constant Matrix: (Units=GPa)
#
#
# Indices 1 2 3 4 5 6 
#
# 1 90.1073 63.9743 54.8400 0.0000 0.0000 0.0000
# 2 63.9743 117.9888 38.4712 0.0000 0.0000 0.0000
# 3 54.8400 38.4712 122.1975 0.0000 0.0000 0.0000
# 4 0.0000 0.0000 0.0000 40.0837 0.0000 0.0000
# 5 0.0000 0.0000 0.0000 0.0000 16.0032 0.0000
# 6 0.0000 0.0000 0.0000 0.0000 0.0000 13.2886
#
#
#
# Elastic Compliance Matrix: (Units=1/GPa)
#
#
# Indices 1 2 3 4 5 6 
#
# 1 0.022277 -0.009828 -0.006903 0.000000 0.000000 0.000000
# 2 -0.009828 0.013781 0.000072 0.000000 0.000000 0.000000
# 3 -0.006903 0.000072 0.011259 0.000000 0.000000 0.000000
# 4 0.000000 0.000000 0.000000 0.024948 0.000000 0.000000
# 5 0.000000 0.000000 0.000000 0.000000 0.062487 0.000000
# 6 0.000000 0.000000 0.000000 0.000000 0.000000 0.075253
#
#
# Mechanical properties :
#
#
# Convention : Reuss Voigt Hill
#
# Bulk Modulus (GPa) = 71.43844 71.65163 71.54504
# Shear Modulus (GPa) = 20.16223 25.40897 22.78560
#
# Velocity S-wave (km/s) = 3.43320 3.85411 3.64973
# Velocity P-wave (km/s) = 7.58148 7.85450 7.71920
#
# Compressibility (1/GPa) = 0.01399807
#
# Stress axis : x y z
#
# Youngs Moduli (GPa) = 44.88975 72.56598 88.81841
#
# Poissons Ratio (x) = 0.71316 0.61315
# Poissons Ratio (y) = 0.44116 -0.00639
# Poissons Ratio (z) = 0.30989 -0.00522
#
# Static dielectric constant tensor:
#      x y z
#    x 2.795220 0.000000 0.000000 
#    y 0.000000 3.398980 0.000000 
#    z 0.000000 0.000000 3.614290 
# 
# 
# High freq. dielectric constant tensor:
#      x y z
#    x 1.607930 0.000000 0.000000 
#    y 0.000000 1.683700 0.000000 
#    z 0.000000 0.000000 1.670510 
# 
# From -- ./inp_files/23177.got.cif
#   From: 2010.03.12/outbox.cif.g09.slc.cpg/sg69_12_cif.got.tgz:23177.got - 2010.04.10 23:52:46.
