data_PCOD8283630
_publ_section_title
;
Structure prediction by ZEFSAII (Michael W. Deem and Ramdas Pophale) SiO2 
 PCOD8283630
Probable space group: C C C A
;
_chemical_formula_sum "Si O2"
_cell_formula_units_Z 64
_cell_length_a 16.787781
_cell_length_b 9.849665
_cell_length_c 16.122003
_cell_angle_alpha 90.000000
_cell_angle_beta 90.000000
_cell_angle_gamma 90.000000
_cell_volume 2665.837989
_symmetry_space_group_name_H-M "C C C A"
_symmetry_group_IT_number 68
_space_group.IT_coordinate_system_code '2'
_symmetry_cell_setting 'orthorhombic'
loop_
_space_group_symop_operation_xyz
x,y,z
-x,1/2-y,z
x,1/2-y,1/2-z
-x,y,1/2-z
-x,-y,-z
x,1/2+y,-z
-x,1/2+y,1/2+z
x,-y,1/2+z
1/2+x,1/2+y,z
1/2-x,-y,z
1/2+x,-y,1/2-z
1/2-x,1/2+y,1/2-z
1/2-x,1/2-y,-z
1/2+x,y,-z
1/2-x,y,1/2+z
1/2+x,1/2-y,1/2+z
loop_
_atom_site_type_symbol
_atom_site_label
_atom_site_fract_x
_atom_site_fract_y
_atom_site_fract_z
Si Si1 0.486557 0.097615 0.923984
Si Si2 0.720256 0.797317 0.910974
Si Si3 0.644500 0.955015 0.342592
Si Si4 0.837442 0.535504 0.343808
O O1 0.500000 0.250000 0.957053
O O2 0.551880 0.078009 0.851763
O O3 0.400614 0.066333 0.885192
O O4 0.500000 0.000000 0.000000
O O5 0.799514 0.821003 0.853262
O O6 0.655765 0.692554 0.871381
O O7 0.671246 0.938800 0.914781
O O8 0.750000 0.750000 0.000000
O O9 0.658083 0.025128 0.254692
O O10 0.750000 0.500000 0.377818
#
# Coordination Sequence:
#
# PCOD8283630 Si02
#       4
#    16  16  16  16
#     4  12  30  51  76 113 156 207 259 323 397 468
#     4  11  25  45  75 115 156 200 258 317 390 458
#     4  11  26  48  76 111 156 206 258 318 392 465
#     4  12  26  46  79 112 154 204 258 324 384 468
#
# _framework density 24.007459999999998
#
# number of rings (size 3 to 8) (size 9 to 14) (size 15 to 20)
#    0.000    0.500    2.500    4.500   14.000    4.000 
#    0.000    2.500    0.000    0.000    0.000    0.000 
#    0.000    0.000    0.000    0.000    0.000    0.000 
#
# Total GULP energy -396742.474687 kJ/mol
# GULP energy per Si atom -12398.202334 kJ/mol
# Density = 2.395282 g / cm^3
# Si number density = 24.007460 Si / 1000 Ang^3
#
#
#
# Elastic Constant Matrix: (Units=GPa)
#
#
# Indices 1 2 3 4 5 6 
#
# 1 170.0680 55.8660 30.6535 0.0000 0.0000 0.0000
# 2 55.8660 150.3433 58.8725 0.0000 0.0000 0.0000
# 3 30.6535 58.8725 127.3605 0.0000 0.0000 0.0000
# 4 0.0000 0.0000 0.0000 38.2321 0.0000 0.0000
# 5 0.0000 0.0000 0.0000 0.0000 32.9654 0.0000
# 6 0.0000 0.0000 0.0000 0.0000 0.0000 47.9283
#
#
#
# Elastic Compliance Matrix: (Units=1/GPa)
#
#
# Indices 1 2 3 4 5 6 
#
# 1 0.006731 -0.002279 -0.000566 0.000000 0.000000 0.000000
# 2 -0.002279 0.008893 -0.003562 0.000000 0.000000 0.000000
# 3 -0.000566 -0.003562 0.009635 0.000000 0.000000 0.000000
# 4 0.000000 0.000000 0.000000 0.026156 0.000000 0.000000
# 5 0.000000 0.000000 0.000000 0.000000 0.030335 0.000000
# 6 0.000000 0.000000 0.000000 0.000000 0.000000 0.020864
#
#
# Mechanical properties :
#
#
# Convention : Reuss Voigt Hill
#
# Bulk Modulus (GPa) = 80.36765 82.06176 81.21471
# Shear Modulus (GPa) = 41.81366 43.98380 42.89873
#
# Velocity S-wave (km/s) = 4.17789 4.28493 4.23175
# Velocity P-wave (km/s) = 7.53802 7.66400 7.60127
#
# Compressibility (1/GPa) = 0.01244282
#
# Stress axis : x y z
#
# Youngs Moduli (GPa) = 148.57020 112.44290 103.79080
#
# Poissons Ratio (x) = 0.25629 0.05878
# Poissons Ratio (y) = 0.33864 0.36974
# Poissons Ratio (z) = 0.08415 0.40057
#
# Static dielectric constant tensor:
#      x y z
#    x 4.964000 0.000000 0.000000 
#    y 0.000000 3.954790 0.000000 
#    z 0.000000 0.000000 4.176870 
# 
# 
# High freq. dielectric constant tensor:
#      x y z
#    x 1.958520 0.000000 0.000000 
#    y 0.000000 1.966510 0.000000 
#    z 0.000000 0.000000 1.947280 
# 
# From -- ./inp_files/23183.got.cif
#   From: 2010.03.12/outbox.cif.g09.slc.cpg/sg68_12_cif.got.tgz:23183.got - 2010.04.10 23:14:56.
