data_PCOD8283414
_publ_section_title
;
Structure prediction by ZEFSAII (Michael W. Deem and Ramdas Pophale) SiO2 
 PCOD8283414
Probable space group: C C C A
;
_chemical_formula_sum "Si O2"
_cell_formula_units_Z 56
_cell_length_a 11.901085
_cell_length_b 14.172313
_cell_length_c 13.987790
_cell_angle_alpha 90.000000
_cell_angle_beta 90.000000
_cell_angle_gamma 90.000000
_cell_volume 2359.263213
_symmetry_space_group_name_H-M "C C C A"
_symmetry_group_IT_number 68
_space_group.IT_coordinate_system_code '2'
_symmetry_cell_setting 'orthorhombic'
loop_
_space_group_symop_operation_xyz
x,y,z
-x,1/2-y,z
x,1/2-y,1/2-z
-x,y,1/2-z
-x,-y,-z
x,1/2+y,-z
-x,1/2+y,1/2+z
x,-y,1/2+z
1/2+x,1/2+y,z
1/2-x,-y,z
1/2+x,-y,1/2-z
1/2-x,1/2+y,1/2-z
1/2-x,1/2-y,-z
1/2+x,y,-z
1/2-x,y,1/2+z
1/2+x,1/2-y,1/2+z
loop_
_atom_site_type_symbol
_atom_site_label
_atom_site_fract_x
_atom_site_fract_y
_atom_site_fract_z
Si Si1 0.000000 0.538198 0.250000
Si Si2 0.177913 0.722017 0.642037
Si Si3 0.084510 0.162347 0.903435
Si Si4 0.470939 0.896480 0.096022
O O1 0.911685 0.606074 0.303303
O O2 0.932139 0.478105 0.169238
O O3 0.207135 0.750000 0.750000
O O4 0.289712 0.700429 0.581678
O O5 0.114245 0.808906 0.595300
O O6 0.095104 0.631722 0.633819
O O7 0.000000 0.250000 0.902534
O O8 0.040134 0.083430 0.981714
#
# Coordination Sequence:
#
# PCOD8283414 Si02
#       4
#     8  16  16  16
#     4  12  25  47  66 112 146 178 240 313 359 410
#     4  11  21  45  76  98 138 195 244 283 365 436
#     4  12  26  45  70 105 147 188 237 300 366 433
#     4  11  23  45  74 100 137 193 245 291 352 445
#
# _framework density 23.736224
#
# number of rings (size 3 to 8) (size 9 to 14) (size 15 to 20)
#    0.000    0.571    5.714    4.714    0.000    1.143 
#    5.143    0.000    0.000    0.000    0.000    0.000 
#    0.000    0.000    0.000    0.000    0.000    0.000 
#
# Total GULP energy -347042.517333 kJ/mol
# GULP energy per Si atom -12394.375619 kJ/mol
# Density = 2.368220 g / cm^3
# Si number density = 23.736224 Si / 1000 Ang^3
#
#
#
# Elastic Constant Matrix: (Units=GPa)
#
#
# Indices 1 2 3 4 5 6 
#
# 1 156.3627 45.7534 46.6205 0.0000 0.0000 0.0000
# 2 45.7534 51.5198 38.8260 0.0000 0.0000 0.0000
# 3 46.6205 38.8260 154.5579 0.0000 0.0000 0.0000
# 4 0.0000 0.0000 0.0000 41.1447 0.0000 0.0000
# 5 0.0000 0.0000 0.0000 0.0000 -19.9503 0.0000
# 6 0.0000 0.0000 0.0000 0.0000 0.0000 9.3673
#
#
#
# Elastic Compliance Matrix: (Units=1/GPa)
#
#
# Indices 1 2 3 4 5 6 
#
# 1 0.008730 -0.007115 -0.000846 0.000000 0.000000 0.000000
# 2 -0.007115 0.029742 -0.005325 0.000000 0.000000 0.000000
# 3 -0.000846 -0.005325 0.008063 0.000000 0.000000 0.000000
# 4 0.000000 0.000000 0.000000 0.024304 0.000000 0.000000
# 5 0.000000 0.000000 0.000000 0.000000 -0.050125 0.000000
# 6 0.000000 0.000000 0.000000 0.000000 0.000000 0.106754
#
#
# Mechanical properties :
#
#
# Convention : Reuss Voigt Hill
#
# Bulk Modulus (GPa) = 50.09468 69.42668 59.76068
# Shear Modulus (GPa) = 31.11495 21.52838 26.32166
#
# Velocity S-wave (km/s) = 3.62451 3.01489 3.33366
# Velocity P-wave (km/s) = 6.21825 6.43678 6.32846
#
# Compressibility (1/GPa) = 0.01996220
#
# Stress axis : x y z
#
# Youngs Moduli (GPa) = 114.55397 33.62267 124.02466
#
# Poissons Ratio (x) = 0.23923 0.10490
# Poissons Ratio (y) = 0.81506 0.66045
# Poissons Ratio (z) = 0.09689 0.17905
#
# Static dielectric constant tensor:
#      x y z
#    x 3.918780 0.000000 0.000000 
#    y 0.000000 4.261150 0.000000 
#    z 0.000000 0.000000 4.973410 
# 
# 
# High freq. dielectric constant tensor:
#      x y z
#    x 1.910770 0.000000 0.000000 
#    y 0.000000 1.940420 0.000000 
#    z 0.000000 0.000000 1.976460 
# 
# From -- ./inp_files/20089.got.cif
#   From: 2010.03.12/outbox.cif.g09.slc.cpg/sg68_11_cif.got.tgz:20089.got - 2010.04.10 23:14:56.
