data_PCOD8283198
_publ_section_title
;
Structure prediction by ZEFSAII (Michael W. Deem and Ramdas Pophale) SiO2 
 PCOD8283198
Probable space group: C C C A
;
_chemical_formula_sum "Si O2"
_cell_formula_units_Z 88
_cell_length_a 8.609847
_cell_length_b 24.701829
_cell_length_c 19.485781
_cell_angle_alpha 90.000000
_cell_angle_beta 90.000000
_cell_angle_gamma 90.000000
_cell_volume 4144.215800
_symmetry_space_group_name_H-M "C C C A"
_symmetry_group_IT_number 68
_space_group.IT_coordinate_system_code '2'
_symmetry_cell_setting 'orthorhombic'
loop_
_space_group_symop_operation_xyz
x,y,z
-x,1/2-y,z
x,1/2-y,1/2-z
-x,y,1/2-z
-x,-y,-z
x,1/2+y,-z
-x,1/2+y,1/2+z
x,-y,1/2+z
1/2+x,1/2+y,z
1/2-x,-y,z
1/2+x,-y,1/2-z
1/2-x,1/2+y,1/2-z
1/2-x,1/2-y,-z
1/2+x,y,-z
1/2-x,y,1/2+z
1/2+x,1/2-y,1/2+z
loop_
_atom_site_type_symbol
_atom_site_label
_atom_site_fract_x
_atom_site_fract_y
_atom_site_fract_z
Si Si1 0.042120 0.391509 0.570527
Si Si2 0.927601 0.308073 0.678609
Si Si3 0.939052 0.307774 0.175536
Si Si4 0.250000 0.500000 0.763291
Si Si5 0.530056 0.497110 0.349588
Si Si6 0.098922 0.894050 0.921133
O O1 0.986362 0.449593 0.598966
O O2 0.223256 0.376791 0.571680
O O3 0.958811 0.346449 0.614979
O O4 0.984798 0.391260 0.493392
O O5 0.744261 0.304167 0.683564
O O6 0.000000 0.250000 0.662373
O O7 0.000000 0.330880 0.750000
O O8 0.000000 0.250000 0.148365
O O9 0.000000 0.322408 0.250000
O O10 0.000168 0.354410 0.126249
O O11 0.358098 0.532339 0.708100
O O12 0.378077 0.473828 0.814069
O O13 0.609840 0.545280 0.391137
#
# Coordination Sequence:
#
# PCOD8283198 Si02
#       6
#    16  16  16   8  16  16
#     4  12  26  44  66  96 135 178 219 269 327 393
#     4  11  24  44  70 100 131 170 219 275 327 385
#     4  11  24  44  70 100 131 170 219 275 327 385
#     4  10  24  42  66 100 126 178 216 278 316 388
#     4  11  25  42  67  98 137 169 222 265 332 380
#     4  12  26  44  66  96 135 178 219 269 327 393
#
# _framework density 21.234414000000001
#
# number of rings (size 3 to 8) (size 9 to 14) (size 15 to 20)
#    0.000    0.727    1.818    6.000   10.182    0.727 
#    0.000    3.636    0.000    0.000    0.000    0.000 
#    0.000    0.000    0.000    0.000    0.000    0.000 
#
# Total GULP energy -545082.970892 kJ/mol
# GULP energy per Si atom -12388.249338 kJ/mol
# Density = 2.118608 g / cm^3
# Si number density = 21.234414 Si / 1000 Ang^3
#
#
#
# Elastic Constant Matrix: (Units=GPa)
#
#
# Indices 1 2 3 4 5 6 
#
# 1 184.3313 42.3389 59.7690 0.0000 0.0000 0.0000
# 2 42.3389 105.7712 70.1927 0.0000 0.0000 0.0000
# 3 59.7690 70.1927 128.9038 0.0000 0.0000 0.0000
# 4 0.0000 0.0000 0.0000 60.1467 0.0000 0.0000
# 5 0.0000 0.0000 0.0000 0.0000 44.4775 0.0000
# 6 0.0000 0.0000 0.0000 0.0000 0.0000 30.1557
#
#
#
# Elastic Compliance Matrix: (Units=1/GPa)
#
#
# Indices 1 2 3 4 5 6 
#
# 1 0.006443 -0.000934 -0.002479 0.000000 0.000000 0.000000
# 2 -0.000934 0.014940 -0.007702 0.000000 0.000000 0.000000
# 3 -0.002479 -0.007702 0.013101 0.000000 0.000000 0.000000
# 4 0.000000 0.000000 0.000000 0.016626 0.000000 0.000000
# 5 0.000000 0.000000 0.000000 0.000000 0.022483 0.000000
# 6 0.000000 0.000000 0.000000 0.000000 0.000000 0.033161
#
#
# Mechanical properties :
#
#
# Convention : Reuss Voigt Hill
#
# Bulk Modulus (GPa) = 81.60629 84.84530 83.22579
# Shear Modulus (GPa) = 37.57441 43.40303 40.48872
#
# Velocity S-wave (km/s) = 4.21111 4.52596 4.37137
# Velocity P-wave (km/s) = 7.88411 8.20705 8.04720
#
# Compressibility (1/GPa) = 0.01225396
#
# Stress axis : x y z
#
# Youngs Moduli (GPa) = 155.19852 66.93651 76.32915
#
# Poissons Ratio (x) = 0.06252 0.18922
# Poissons Ratio (y) = 0.14497 0.58789
# Poissons Ratio (z) = 0.38473 0.51554
#
# Static dielectric constant tensor:
#      x y z
#    x 4.263920 0.000000 0.000000 
#    y 0.000000 3.648210 0.000000 
#    z 0.000000 0.000000 4.015020 
# 
# 
# High freq. dielectric constant tensor:
#      x y z
#    x 1.864780 0.000000 0.000000 
#    y 0.000000 1.812770 0.000000 
#    z 0.000000 0.000000 1.848470 
# 
# From -- ./inp_files/36261.got.cif
#   From: 2010.03.12/outbox.cif.g09.slc.cpg/sg68_19_cif.got.tgz:36261.got - 2010.04.10 23:14:56.
