data_PCOD8283073
_publ_section_title
;
Structure prediction by ZEFSAII (Michael W. Deem and Ramdas Pophale) SiO2 
 PCOD8283073
Probable space group: C C C A
;
_chemical_formula_sum "Si O2"
_cell_formula_units_Z 96
_cell_length_a 20.471116
_cell_length_b 8.825159
_cell_length_c 24.188027
_cell_angle_alpha 90.000000
_cell_angle_beta 90.000000
_cell_angle_gamma 90.000000
_cell_volume 4369.829605
_symmetry_space_group_name_H-M "C C C A"
_symmetry_group_IT_number 68
_space_group.IT_coordinate_system_code '2'
_symmetry_cell_setting 'orthorhombic'
loop_
_space_group_symop_operation_xyz
x,y,z
-x,1/2-y,z
x,1/2-y,1/2-z
-x,y,1/2-z
-x,-y,-z
x,1/2+y,-z
-x,1/2+y,1/2+z
x,-y,1/2+z
1/2+x,1/2+y,z
1/2-x,-y,z
1/2+x,-y,1/2-z
1/2-x,1/2+y,1/2-z
1/2-x,1/2-y,-z
1/2+x,y,-z
1/2-x,y,1/2+z
1/2+x,1/2-y,1/2+z
loop_
_atom_site_type_symbol
_atom_site_label
_atom_site_fract_x
_atom_site_fract_y
_atom_site_fract_z
Si Si1 0.356451 0.275216 0.502545
Si Si2 0.319306 0.176535 0.880611
Si Si3 0.558810 0.472577 0.539377
Si Si4 0.825526 0.167916 0.615164
Si Si5 0.056530 0.130597 0.652650
Si Si6 0.430205 0.181350 0.691545
O O1 0.307662 0.291727 0.553934
O O2 0.376399 0.437578 0.478863
O O3 0.327160 0.180204 0.451576
O O4 0.421327 0.201981 0.531395
O O5 0.245715 0.205884 0.858706
O O6 0.372617 0.286460 0.852738
O O7 0.343286 0.005220 0.870079
O O8 0.500000 0.500000 0.500000
O O9 0.536986 0.527096 0.599906
O O10 0.876635 0.278627 0.644498
O O11 0.000000 0.250000 0.667255
O O12 0.064463 0.001886 0.699813
O O13 0.500000 0.250000 0.672299
O O14 0.408720 0.250000 0.750000
#
# Coordination Sequence:
#
# PCOD8283073 Si02
#       6
#    16  16  16  16  16  16
#     4  11  20  35  55  90 136 180 218 267 324 401
#     4  11  22  42  65  89 136 181 223 277 330 397
#     4  11  21  32  54  95 134 180 219 261 327 398
#     4  10  23  40  61 100 135 179 221 266 334 403
#     4  11  23  42  67  99 138 170 220 279 335 401
#     4  11  26  47  71  99 127 169 227 286 350 400
#
# _framework density 21.968819
#
# number of rings (size 3 to 8) (size 9 to 14) (size 15 to 20)
#    0.000    1.167    3.333    4.000    2.333    0.667 
#    0.000    9.167    0.000    0.000    0.000    0.000 
#    0.000    0.000    0.000    0.000    0.000    0.000 
#
# Total GULP energy -594918.739539 kJ/mol
# GULP energy per Si atom -12394.140407 kJ/mol
# Density = 2.191882 g / cm^3
# Si number density = 21.968819 Si / 1000 Ang^3
#
#
#
# Elastic Constant Matrix: (Units=GPa)
#
#
# Indices 1 2 3 4 5 6 
#
# 1 108.0573 42.5352 22.0876 0.0000 0.0000 0.0000
# 2 42.5352 122.8679 28.2762 0.0000 0.0000 0.0000
# 3 22.0876 28.2762 70.7021 0.0000 0.0000 0.0000
# 4 0.0000 0.0000 0.0000 29.3378 0.0000 0.0000
# 5 0.0000 0.0000 0.0000 0.0000 17.5318 0.0000
# 6 0.0000 0.0000 0.0000 0.0000 0.0000 34.9435
#
#
#
# Elastic Compliance Matrix: (Units=1/GPa)
#
#
# Indices 1 2 3 4 5 6 
#
# 1 0.010992 -0.003321 -0.002106 0.000000 0.000000 0.000000
# 2 -0.003321 0.009967 -0.002949 0.000000 0.000000 0.000000
# 3 -0.002106 -0.002949 0.015981 0.000000 0.000000 0.000000
# 4 0.000000 0.000000 0.000000 0.034086 0.000000 0.000000
# 5 0.000000 0.000000 0.000000 0.000000 0.057039 0.000000
# 6 0.000000 0.000000 0.000000 0.000000 0.000000 0.028618
#
#
# Mechanical properties :
#
#
# Convention : Reuss Voigt Hill
#
# Bulk Modulus (GPa) = 49.53092 54.15838 51.84465
# Shear Modulus (GPa) = 27.75268 30.27786 29.01527
#
# Velocity S-wave (km/s) = 3.55812 3.71647 3.63815
# Velocity P-wave (km/s) = 6.28293 6.56674 6.42640
#
# Compressibility (1/GPa) = 0.02018941
#
# Stress axis : x y z
#
# Youngs Moduli (GPa) = 90.97591 100.33117 62.57410
#
# Poissons Ratio (x) = 0.33316 0.13177
# Poissons Ratio (y) = 0.30210 0.18452
# Poissons Ratio (z) = 0.19159 0.29585
#
# Static dielectric constant tensor:
#      x y z
#    x 3.576090 0.000000 0.000000 
#    y 0.000000 4.514570 0.000000 
#    z 0.000000 0.000000 3.915420 
# 
# 
# High freq. dielectric constant tensor:
#      x y z
#    x 1.863200 0.000000 0.000000 
#    y 0.000000 1.878760 0.000000 
#    z 0.000000 0.000000 1.831870 
# 
# From -- ./inp_files/51745.got.cif
#   From: 2010.03.12/outbox.cif.g09.slc.cpg/sg68_26_cif.got.tgz:51745.got - 2010.04.10 23:14:56.
