data_PCOD8283170
_publ_section_title
;
Structure prediction by ZEFSAII (Michael W. Deem and Ramdas Pophale) SiO2 
 PCOD8283170
Probable space group: C C C A
;
_chemical_formula_sum "Si O2"
_cell_formula_units_Z 88
_cell_length_a 16.306862
_cell_length_b 11.328624
_cell_length_c 21.272062
_cell_angle_alpha 90.000000
_cell_angle_beta 90.000000
_cell_angle_gamma 90.000000
_cell_volume 3929.679658
_symmetry_space_group_name_H-M "C C C A"
_symmetry_group_IT_number 68
_space_group.IT_coordinate_system_code '2'
_symmetry_cell_setting 'orthorhombic'
loop_
_space_group_symop_operation_xyz
x,y,z
-x,1/2-y,z
x,1/2-y,1/2-z
-x,y,1/2-z
-x,-y,-z
x,1/2+y,-z
-x,1/2+y,1/2+z
x,-y,1/2+z
1/2+x,1/2+y,z
1/2-x,-y,z
1/2+x,-y,1/2-z
1/2-x,1/2+y,1/2-z
1/2-x,1/2-y,-z
1/2+x,y,-z
1/2-x,y,1/2+z
1/2+x,1/2-y,1/2+z
loop_
_atom_site_type_symbol
_atom_site_label
_atom_site_fract_x
_atom_site_fract_y
_atom_site_fract_z
Si Si1 0.669992 0.319417 0.975936
Si Si2 0.119246 0.248283 0.353085
Si Si3 0.750000 0.000000 0.117013
Si Si4 0.932872 0.652885 0.094836
Si Si5 0.301930 0.276381 0.180448
Si Si6 0.501697 0.052066 0.679737
O O1 0.617840 0.233297 0.929472
O O2 0.693844 0.423217 0.928419
O O3 0.750000 0.250000 0.000000
O O4 0.613597 0.377048 0.029644
O O5 0.209957 0.269615 0.327159
O O6 0.065871 0.345904 0.319524
O O7 0.088208 0.115553 0.335523
O O8 0.693813 0.085152 0.161062
O O9 0.862445 0.700833 0.138866
O O10 0.979056 0.542794 0.126351
O O11 0.000000 0.750000 0.079336
O O12 0.333208 0.250000 0.250000
O O13 0.500000 0.994930 0.750000
#
# Coordination Sequence:
#
# PCOD8283170 Si02
#       6
#    16  16   8  16  16  16
#     4  11  24  47  72 102 144 180 253 299 360 448
#     4  10  23  47  73 106 133 194 242 297 366 436
#     4  10  24  46  78 102 144 188 236 324 362 418
#     4  12  30  43  67 108 147 194 237 306 375 431
#     4  11  25  45  74 103 143 192 251 293 368 448
#     4  11  26  45  73 105 149 182 240 306 370 449
#
# _framework density 22.393682999999999
#
# number of rings (size 3 to 8) (size 9 to 14) (size 15 to 20)
#    0.000    1.091    3.636    2.182   12.727    2.909 
#    0.000    0.000    0.000    0.000    0.000    0.000 
#    0.000    0.000    0.000    0.000    0.000    0.000 
#
# Total GULP energy -545365.069118 kJ/mol
# GULP energy per Si atom -12394.660662 kJ/mol
# Density = 2.234271 g / cm^3
# Si number density = 22.393683 Si / 1000 Ang^3
#
#
#
# Elastic Constant Matrix: (Units=GPa)
#
#
# Indices 1 2 3 4 5 6 
#
# 1 85.4580 18.3397 26.0034 0.0000 0.0000 0.0000
# 2 18.3397 104.7479 39.3081 0.0000 0.0000 0.0000
# 3 26.0034 39.3081 164.2334 0.0000 0.0000 0.0000
# 4 0.0000 0.0000 0.0000 194.2029 0.0000 0.0000
# 5 0.0000 0.0000 0.0000 0.0000 -99.7354 0.0000
# 6 0.0000 0.0000 0.0000 0.0000 0.0000 30.3372
#
#
#
# Elastic Compliance Matrix: (Units=1/GPa)
#
#
# Indices 1 2 3 4 5 6 
#
# 1 0.012531 -0.001592 -0.001603 0.000000 0.000000 0.000000
# 2 -0.001592 0.010691 -0.002307 0.000000 0.000000 0.000000
# 3 -0.001603 -0.002307 0.006895 0.000000 0.000000 0.000000
# 4 0.000000 0.000000 0.000000 0.005149 0.000000 0.000000
# 5 0.000000 0.000000 0.000000 0.000000 -0.010027 0.000000
# 6 0.000000 0.000000 0.000000 0.000000 0.000000 0.032963
#
#
# Mechanical properties :
#
#
# Convention : Reuss Voigt Hill
#
# Bulk Modulus (GPa) = 52.32081 57.97129 55.14605
# Shear Modulus (GPa) = 66.15694 43.01348 54.58521
#
# Velocity S-wave (km/s) = 5.44121 4.38743 4.94249
# Velocity P-wave (km/s) = 7.93036 7.18398 7.56638
#
# Compressibility (1/GPa) = 0.01911285
#
# Stress axis : x y z
#
# Youngs Moduli (GPa) = 79.80112 93.53501 145.03710
#
# Poissons Ratio (x) = 0.14895 0.23248
# Poissons Ratio (y) = 0.12708 0.33456
# Poissons Ratio (z) = 0.12792 0.21576
#
# Static dielectric constant tensor:
#      x y z
#    x 4.373970 0.000000 0.000000 
#    y 0.000000 1.116440 0.000000 
#    z 0.000000 0.000000 4.463740 
# 
# 
# High freq. dielectric constant tensor:
#      x y z
#    x 1.896710 0.000000 0.000000 
#    y 0.000000 1.867470 0.000000 
#    z 0.000000 0.000000 1.902740 
# 
# From -- ./inp_files/39429.got.cif
#   From: 2010.03.12/outbox.cif.g09.slc.cpg/sg68_20_cif.got.tgz:39429.got - 2010.04.10 23:14:56.
