data_PCOD8283102
_publ_section_title
;
Structure prediction by ZEFSAII (Michael W. Deem and Ramdas Pophale) SiO2 
 PCOD8283102
Probable space group: C C C A
;
_chemical_formula_sum "Si O2"
_cell_formula_units_Z 112
_cell_length_a 15.950052
_cell_length_b 11.527273
_cell_length_c 28.319980
_cell_angle_alpha 90.000000
_cell_angle_beta 90.000000
_cell_angle_gamma 90.000000
_cell_volume 5206.928622
_symmetry_space_group_name_H-M "C C C A"
_symmetry_group_IT_number 68
_space_group.IT_coordinate_system_code '2'
_symmetry_cell_setting 'orthorhombic'
loop_
_space_group_symop_operation_xyz
x,y,z
-x,1/2-y,z
x,1/2-y,1/2-z
-x,y,1/2-z
-x,-y,-z
x,1/2+y,-z
-x,1/2+y,1/2+z
x,-y,1/2+z
1/2+x,1/2+y,z
1/2-x,-y,z
1/2+x,-y,1/2-z
1/2-x,1/2+y,1/2-z
1/2-x,1/2-y,-z
1/2+x,y,-z
1/2-x,y,1/2+z
1/2+x,1/2-y,1/2+z
loop_
_atom_site_type_symbol
_atom_site_label
_atom_site_fract_x
_atom_site_fract_y
_atom_site_fract_z
Si Si1 0.099070 0.117164 0.244380
Si Si2 0.661497 0.538151 0.479000
Si Si3 0.839554 0.437795 0.141084
Si Si4 0.598226 0.788388 0.095421
Si Si5 0.847326 0.510838 0.837809
Si Si6 0.604480 0.151378 0.089796
Si Si7 0.082001 0.398085 0.927542
O O1 0.128611 0.250000 0.250000
O O2 0.131610 0.073281 0.194557
O O3 0.142123 0.032149 0.282306
O O4 0.000000 0.106673 0.250000
O O5 0.750000 0.500000 0.501445
O O6 0.641042 0.661026 0.452655
O O7 0.657311 0.437177 0.440737
O O8 0.601111 0.534193 0.524087
O O9 0.750000 0.500000 0.136732
O O10 0.842578 0.315594 0.113529
O O11 0.908299 0.518075 0.116596
O O12 0.500000 0.750000 0.088134
O O13 0.602587 0.886251 0.135684
O O14 0.750000 0.500000 0.851111
O O15 0.887592 0.387946 0.855125
O O16 0.512078 0.142161 0.070000
O O17 0.638169 0.282053 0.081218
#
# Coordination Sequence:
#
# PCOD8283102 Si02
#       7
#    16  16  16  16  16  16  16
#     4  11  22  42  72 101 133 172 229 278 330 403
#     4  11  25  42  67  94 129 177 232 280 334 400
#     4  12  26  40  65 104 139 169 217 289 342 384
#     4  11  23  42  72  98 132 177 234 277 334 405
#     4  11  23  43  71  98 134 175 224 281 334 407
#     4  10  23  42  65  91 130 178 227 270 342 402
#     4  11  25  41  63  93 137 178 220 279 334 410
#
# _framework density 21.509799999999998
#
# number of rings (size 3 to 8) (size 9 to 14) (size 15 to 20)
#    0.000    1.000    1.429    6.429    8.000    0.571 
#    0.000    0.714    0.000    2.571    0.000    0.000 
#    0.000    0.000    0.000    0.000    0.000    0.000 
#
# Total GULP energy -693924.200110 kJ/mol
# GULP energy per Si atom -12391.503573 kJ/mol
# Density = 2.146084 g / cm^3
# Si number density = 21.509800 Si / 1000 Ang^3
#
#
#
# Elastic Constant Matrix: (Units=GPa)
#
#
# Indices 1 2 3 4 5 6 
#
# 1 80.3879 4.2897 19.1833 0.0000 0.0000 0.0000
# 2 4.2897 68.7864 29.5436 0.0000 0.0000 0.0000
# 3 19.1833 29.5436 128.6517 0.0000 0.0000 0.0000
# 4 0.0000 0.0000 0.0000 29.4412 0.0000 0.0000
# 5 0.0000 0.0000 0.0000 0.0000 58.6092 0.0000
# 6 0.0000 0.0000 0.0000 0.0000 0.0000 33.7240
#
#
#
# Elastic Compliance Matrix: (Units=1/GPa)
#
#
# Indices 1 2 3 4 5 6 
#
# 1 0.012899 0.000024 -0.001929 0.000000 0.000000 0.000000
# 2 0.000024 0.016129 -0.003707 0.000000 0.000000 0.000000
# 3 -0.001929 -0.003707 0.008912 0.000000 0.000000 0.000000
# 4 0.000000 0.000000 0.000000 0.033966 0.000000 0.000000
# 5 0.000000 0.000000 0.000000 0.000000 0.017062 0.000000
# 6 0.000000 0.000000 0.000000 0.000000 0.000000 0.029652
#
#
# Mechanical properties :
#
#
# Convention : Reuss Voigt Hill
#
# Bulk Modulus (GPa) = 37.43240 42.65102 40.04171
# Shear Modulus (GPa) = 36.03628 39.34216 37.68922
#
# Velocity S-wave (km/s) = 4.09753 4.28136 4.19046
# Velocity P-wave (km/s) = 6.31084 6.65671 6.48608
#
# Compressibility (1/GPa) = 0.02671482
#
# Stress axis : x y z
#
# Youngs Moduli (GPa) = 77.52723 62.00178 112.20953
#
# Poissons Ratio (x) = -0.00149 0.21644
# Poissons Ratio (y) = -0.00186 0.41600
# Poissons Ratio (z) = 0.14954 0.22986
#
# Static dielectric constant tensor:
#      x y z
#    x 3.513670 0.000000 0.000000 
#    y 0.000000 4.902360 0.000000 
#    z 0.000000 0.000000 4.071830 
# 
# 
# High freq. dielectric constant tensor:
#      x y z
#    x 1.847280 0.000000 0.000000 
#    y 0.000000 1.849990 0.000000 
#    z 0.000000 0.000000 1.847460 
# 
# From -- ./inp_files/54841.got.cif
#   From: 2010.03.12/outbox.cif.g09.slc.cpg/sg68_28_cif.got.tgz:54841.got - 2010.04.10 23:14:56.
