data_PCOD8283743
_publ_section_title
;
Structure prediction by ZEFSAII (Michael W. Deem and Ramdas Pophale) SiO2 
 PCOD8283743
Probable space group: C C C A
;
_chemical_formula_sum "Si O2"
_cell_formula_units_Z 56
_cell_length_a 23.584462
_cell_length_b 10.514098
_cell_length_c 9.607426
_cell_angle_alpha 90.000000
_cell_angle_beta 90.000000
_cell_angle_gamma 90.000000
_cell_volume 2382.347130
_symmetry_space_group_name_H-M "C C C A"
_symmetry_group_IT_number 68
_space_group.IT_coordinate_system_code '2'
_symmetry_cell_setting 'orthorhombic'
loop_
_space_group_symop_operation_xyz
x,y,z
-x,1/2-y,z
x,1/2-y,1/2-z
-x,y,1/2-z
-x,-y,-z
x,1/2+y,-z
-x,1/2+y,1/2+z
x,-y,1/2+z
1/2+x,1/2+y,z
1/2-x,-y,z
1/2+x,-y,1/2-z
1/2-x,1/2+y,1/2-z
1/2-x,1/2-y,-z
1/2+x,y,-z
1/2-x,y,1/2+z
1/2+x,1/2-y,1/2+z
loop_
_atom_site_type_symbol
_atom_site_label
_atom_site_fract_x
_atom_site_fract_y
_atom_site_fract_z
Si Si1 0.250000 0.500000 0.621854
Si Si2 0.647786 0.624350 0.510729
Si Si3 0.790161 0.750000 0.250000
Si Si4 0.461457 0.502514 0.367747
Si Si5 0.089402 0.250000 0.250000
O O1 0.305729 0.484055 0.525226
O O2 0.246832 0.375799 0.720853
O O3 0.673628 0.732343 0.609734
O O4 0.597656 0.565319 0.602727
O O5 0.628025 0.685325 0.366976
O O6 0.500000 0.432932 0.250000
O O7 0.500000 0.500000 0.500000
O O8 0.450444 0.646591 0.321890
#
# Coordination Sequence:
#
# PCOD8283743 Si02
#       5
#     8  16   8  16   8
#     4  12  26  52  78 122 162 210 266 336 398 474
#     4  12  27  48  79 114 161 205 267 322 400 472
#     4  12  27  48  80 120 153 219 265 324 402 478
#     4  12  27  49  76 111 154 204 263 321 395 464
#     4  12  26  50  73 112 155 206 253 335 390 458
#
# _framework density 23.506229999999999
#
# number of rings (size 3 to 8) (size 9 to 14) (size 15 to 20)
#    0.000    0.000    2.857    6.429    4.000    0.000 
#    0.000    0.000    0.000    0.000    0.000    0.000 
#    0.000    0.000    0.000    0.000    0.000    0.000 
#
# Total GULP energy -347225.861145 kJ/mol
# GULP energy per Si atom -12400.923612 kJ/mol
# Density = 2.345273 g / cm^3
# Si number density = 23.506230 Si / 1000 Ang^3
#
#
#
# Elastic Constant Matrix: (Units=GPa)
#
#
# Indices 1 2 3 4 5 6 
#
# 1 162.5083 64.7507 77.9849 0.0000 0.0000 0.0000
# 2 64.7507 143.7844 65.5512 0.0000 0.0000 0.0000
# 3 77.9849 65.5512 172.7606 0.0000 0.0000 0.0000
# 4 0.0000 0.0000 0.0000 52.3230 0.0000 0.0000
# 5 0.0000 0.0000 0.0000 0.0000 33.6107 0.0000
# 6 0.0000 0.0000 0.0000 0.0000 0.0000 7.7998
#
#
#
# Elastic Compliance Matrix: (Units=1/GPa)
#
#
# Indices 1 2 3 4 5 6 
#
# 1 0.008554 -0.002529 -0.002901 0.000000 0.000000 0.000000
# 2 -0.002529 0.009157 -0.002333 0.000000 0.000000 0.000000
# 3 -0.002901 -0.002333 0.007983 0.000000 0.000000 0.000000
# 4 0.000000 0.000000 0.000000 0.019112 0.000000 0.000000
# 5 0.000000 0.000000 0.000000 0.000000 0.029752 0.000000
# 6 0.000000 0.000000 0.000000 0.000000 0.000000 0.128208
#
#
# Mechanical properties :
#
#
# Convention : Reuss Voigt Hill
#
# Bulk Modulus (GPa) = 98.35637 99.51409 98.93523
# Shear Modulus (GPa) = 22.55475 36.79782 29.67628
#
# Velocity S-wave (km/s) = 3.10098 3.96087 3.55700
# Velocity P-wave (km/s) = 7.39966 7.95896 7.68440
#
# Compressibility (1/GPa) = 0.01016711
#
# Stress axis : x y z
#
# Youngs Moduli (GPa) = 116.90904 109.20102 125.26147
#
# Poissons Ratio (x) = 0.27619 0.36345
# Poissons Ratio (y) = 0.29569 0.29223
# Poissons Ratio (z) = 0.33921 0.25476
#
# Static dielectric constant tensor:
#      x y z
#    x 4.839500 0.000000 0.000000 
#    y 0.000000 4.481760 0.000000 
#    z 0.000000 0.000000 4.465050 
# 
# 
# High freq. dielectric constant tensor:
#      x y z
#    x 1.951140 0.000000 0.000000 
#    y 0.000000 1.923100 0.000000 
#    z 0.000000 0.000000 1.953080 
# 
# From -- ./inp_files/3928.got.cif
#   From: 2010.03.12/outbox.cif.g09.slc.cpg/sg68_2_cif.got.tgz:3928.got - 2010.04.10 23:14:56.
