data_PCOD8283649
_publ_section_title
;
Structure prediction by ZEFSAII (Michael W. Deem and Ramdas Pophale) SiO2 
 PCOD8283649
Probable space group: C C C A
;
_chemical_formula_sum "Si O2"
_cell_formula_units_Z 96
_cell_length_a 16.952388
_cell_length_b 24.672726
_cell_length_c 10.869563
_cell_angle_alpha 90.000000
_cell_angle_beta 90.000000
_cell_angle_gamma 90.000000
_cell_volume 4546.321074
_symmetry_space_group_name_H-M "C C C A"
_symmetry_group_IT_number 68
_space_group.IT_coordinate_system_code '2'
_symmetry_cell_setting 'orthorhombic'
loop_
_space_group_symop_operation_xyz
x,y,z
-x,1/2-y,z
x,1/2-y,1/2-z
-x,y,1/2-z
-x,-y,-z
x,1/2+y,-z
-x,1/2+y,1/2+z
x,-y,1/2+z
1/2+x,1/2+y,z
1/2-x,-y,z
1/2+x,-y,1/2-z
1/2-x,1/2+y,1/2-z
1/2-x,1/2-y,-z
1/2+x,y,-z
1/2-x,y,1/2+z
1/2+x,1/2-y,1/2+z
loop_
_atom_site_type_symbol
_atom_site_label
_atom_site_fract_x
_atom_site_fract_y
_atom_site_fract_z
Si Si1 0.061591 0.653482 0.356651
Si Si2 0.000000 0.250000 0.008742
Si Si3 0.035325 0.057471 0.465473
Si Si4 0.373850 0.197485 0.682732
Si Si5 0.787700 0.941788 0.593098
Si Si6 0.000000 0.623262 0.750000
Si Si7 0.764547 0.621026 0.160907
O O1 0.039960 0.596186 0.417623
O O2 0.151920 0.649725 0.312610
O O3 0.000000 0.662173 0.250000
O O4 0.054446 0.707723 0.436433
O O5 0.060668 0.212884 0.083158
O O6 0.118873 0.050265 0.398410
O O7 0.978097 0.086114 0.366884
O O8 0.000000 0.000000 0.500000
O O9 0.339851 0.250000 0.750000
O O10 0.422137 0.159598 0.779690
O O11 0.299387 0.166771 0.626631
O O12 0.765829 0.916201 0.460650
O O13 0.758584 0.908664 0.712219
O O14 0.750000 0.000000 0.600616
#
# Coordination Sequence:
#
# PCOD8283649 Si02
#       7
#    16   8  16  16  16   8  16
#     4  11  27  48  67 105 149 187 238 292 370 433
#     4  12  24  44  74 104 142 191 239 304 364 424
#     4  11  26  42  73 106 136 185 239 290 362 437
#     4  12  23  43  75 103 139 185 239 302 356 431
#     4  11  26  47  70 104 145 189 237 301 362 425
#     4  12  21  44  70 104 134 177 236 294 352 430
#     4  11  28  46  73 107 146 190 244 298 362 445
#
# _framework density 21.115974999999999
#
# number of rings (size 3 to 8) (size 9 to 14) (size 15 to 20)
#    0.000    0.667    5.000    0.750   10.500    3.333 
#    0.000    0.000    0.000    0.000    0.000    0.000 
#    0.000    0.000    0.000    0.000    0.000    0.000 
#
# Total GULP energy -595094.413286 kJ/mol
# GULP energy per Si atom -12397.800277 kJ/mol
# Density = 2.106791 g / cm^3
# Si number density = 21.115975 Si / 1000 Ang^3
#
#
#
# Elastic Constant Matrix: (Units=GPa)
#
#
# Indices 1 2 3 4 5 6 
#
# 1 142.5913 65.7142 51.4475 0.0000 0.0000 0.0000
# 2 65.7142 143.4257 42.3432 0.0000 0.0000 0.0000
# 3 51.4475 42.3432 112.8819 0.0000 0.0000 0.0000
# 4 0.0000 0.0000 0.0000 40.4618 0.0000 0.0000
# 5 0.0000 0.0000 0.0000 0.0000 25.8391 0.0000
# 6 0.0000 0.0000 0.0000 0.0000 0.0000 37.0724
#
#
#
# Elastic Compliance Matrix: (Units=1/GPa)
#
#
# Indices 1 2 3 4 5 6 
#
# 1 0.009780 -0.003559 -0.003122 0.000000 0.000000 0.000000
# 2 -0.003559 0.009136 -0.001805 0.000000 0.000000 0.000000
# 3 -0.003122 -0.001805 0.010959 0.000000 0.000000 0.000000
# 4 0.000000 0.000000 0.000000 0.024715 0.000000 0.000000
# 5 0.000000 0.000000 0.000000 0.000000 0.038701 0.000000
# 6 0.000000 0.000000 0.000000 0.000000 0.000000 0.026974
#
#
# Mechanical properties :
#
#
# Convention : Reuss Voigt Hill
#
# Bulk Modulus (GPa) = 77.50669 79.76763 78.63716
# Shear Modulus (GPa) = 35.32639 36.63428 35.98034
#
# Velocity S-wave (km/s) = 4.09463 4.16974 4.13236
# Velocity P-wave (km/s) = 7.69023 7.81283 7.75177
#
# Compressibility (1/GPa) = 0.01290211
#
# Stress axis : x y z
#
# Youngs Moduli (GPa) = 102.25158 109.45977 91.25073
#
# Poissons Ratio (x) = 0.38958 0.28491
# Poissons Ratio (y) = 0.36392 0.16469
# Poissons Ratio (z) = 0.31925 0.19755
#
# Static dielectric constant tensor:
#      x y z
#    x 3.975480 0.000000 0.000000 
#    y 0.000000 6.250880 0.000000 
#    z 0.000000 0.000000 3.839890 
# 
# 
# High freq. dielectric constant tensor:
#      x y z
#    x 1.835220 0.000000 0.000000 
#    y 0.000000 1.847120 0.000000 
#    z 0.000000 0.000000 1.827710 
# 
# From -- ./inp_files/14686.got.cif
#   From: 2010.03.12/outbox.cif.g09.slc.cpg/sg68_8_cif.got.tgz:14686.got - 2010.04.10 23:14:56.
