data_PCOD8283707
_publ_section_title
;
Structure prediction by ZEFSAII (Michael W. Deem and Ramdas Pophale) SiO2 
 PCOD8283707
Probable space group: C C C A
;
_chemical_formula_sum "Si O2"
_cell_formula_units_Z 60
_cell_length_a 19.262670
_cell_length_b 4.951019
_cell_length_c 26.389416
_cell_angle_alpha 90.000000
_cell_angle_beta 90.000000
_cell_angle_gamma 90.000000
_cell_volume 2516.754518
_symmetry_space_group_name_H-M "C C C A"
_symmetry_group_IT_number 68
_space_group.IT_coordinate_system_code '2'
_symmetry_cell_setting 'orthorhombic'
loop_
_space_group_symop_operation_xyz
x,y,z
-x,1/2-y,z
x,1/2-y,1/2-z
-x,y,1/2-z
-x,-y,-z
x,1/2+y,-z
-x,1/2+y,1/2+z
x,-y,1/2+z
1/2+x,1/2+y,z
1/2-x,-y,z
1/2+x,-y,1/2-z
1/2-x,1/2+y,1/2-z
1/2-x,1/2-y,-z
1/2+x,y,-z
1/2-x,y,1/2+z
1/2+x,1/2-y,1/2+z
loop_
_atom_site_type_symbol
_atom_site_label
_atom_site_fract_x
_atom_site_fract_y
_atom_site_fract_z
Si Si1 0.750000 0.500000 0.037343
Si Si2 0.000000 0.250000 0.463968
Si Si3 0.116573 0.448612 0.393598
Si Si4 0.250000 0.500000 0.719616
Si Si5 0.000000 0.250000 0.750000
Si Si6 0.609611 0.945411 0.671878
O O1 0.814438 0.499096 0.074922
O O2 0.750000 0.750000 0.000000
O O3 0.933726 0.220757 0.429160
O O4 0.000000 0.500000 0.500000
O O5 0.088487 0.737678 0.373462
O O6 0.122072 0.253623 0.345162
O O7 0.283822 0.250000 0.750000
O O8 0.313364 0.643049 0.689577
O O9 0.050166 0.436230 0.715131
#
# Coordination Sequence:
#
# PCOD8283707 Si02
#       6
#     8   8  16   8   4  16
#     4  12  24  44  74 106 140 182 236 292 364 446
#     4  12  24  43  68  97 138 183 230 281 360 434
#     4  12  25  45  68 104 139 184 232 299 357 419
#     4  12  24  46  68 102 132 188 232 286 358 420
#     4  12  28  48  72 106 140 200 252 300 356 422
#     4  12  26  45  71 100 145 184 244 295 356 424
#
# _framework density 23.840228
#
# number of rings (size 3 to 8) (size 9 to 14) (size 15 to 20)
#    0.000    0.000    1.333    9.600    0.000    1.067 
#    0.000    0.000    0.000    0.000    0.000    0.000 
#    0.000    0.000    0.000    0.000    0.000    0.000 
#
# Total GULP energy -371907.605180 kJ/mol
# GULP energy per Si atom -12396.920173 kJ/mol
# Density = 2.378597 g / cm^3
# Si number density = 23.840228 Si / 1000 Ang^3
#
#
#
# Elastic Constant Matrix: (Units=GPa)
#
#
# Indices 1 2 3 4 5 6 
#
# 1 170.0589 24.7231 67.0250 0.0000 0.0000 0.0000
# 2 24.7231 147.0255 49.4416 0.0000 0.0000 0.0000
# 3 67.0250 49.4416 126.3279 0.0000 0.0000 0.0000
# 4 0.0000 0.0000 0.0000 46.3209 0.0000 0.0000
# 5 0.0000 0.0000 0.0000 0.0000 56.3180 0.0000
# 6 0.0000 0.0000 0.0000 0.0000 0.0000 34.8553
#
#
#
# Elastic Compliance Matrix: (Units=1/GPa)
#
#
# Indices 1 2 3 4 5 6 
#
# 1 0.007436 0.000088 -0.003980 0.000000 0.000000 0.000000
# 2 0.000088 0.007833 -0.003112 0.000000 0.000000 0.000000
# 3 -0.003980 -0.003112 0.011246 0.000000 0.000000 0.000000
# 4 0.000000 0.000000 0.000000 0.021589 0.000000 0.000000
# 5 0.000000 0.000000 0.000000 0.000000 0.017756 0.000000
# 6 0.000000 0.000000 0.000000 0.000000 0.000000 0.028690
#
#
# Mechanical properties :
#
#
# Convention : Reuss Voigt Hill
#
# Bulk Modulus (GPa) = 79.95848 80.64353 80.30101
# Shear Modulus (GPa) = 44.35489 47.64702 46.00096
#
# Velocity S-wave (km/s) = 4.31804 4.47542 4.39743
# Velocity P-wave (km/s) = 7.64675 7.78498 7.71617
#
# Compressibility (1/GPa) = 0.01250649
#
# Stress axis : x y z
#
# Youngs Moduli (GPa) = 134.47999 127.65837 88.92428
#
# Poissons Ratio (x) = -0.01122 0.35389
# Poissons Ratio (y) = -0.01182 0.27677
# Poissons Ratio (z) = 0.53519 0.39733
#
# Static dielectric constant tensor:
#      x y z
#    x 4.189800 0.000000 0.000000 
#    y 0.000000 4.498610 0.000000 
#    z 0.000000 0.000000 5.115360 
# 
# 
# High freq. dielectric constant tensor:
#      x y z
#    x 1.955940 0.000000 0.000000 
#    y 0.000000 1.959910 0.000000 
#    z 0.000000 0.000000 1.961890 
# 
# From -- ./inp_files/42080.got.cif
#   From: 2010.03.12/outbox.cif.g09.slc.cpg/sg68_22_cif.got.tgz:42080.got - 2010.04.10 23:14:56.
