data_PCOD8283886
_publ_section_title
;
Structure prediction by ZEFSAII (Michael W. Deem and Ramdas Pophale) SiO2 
 PCOD8283886
Probable space group: F M M M
;
_chemical_formula_sum "Si O2"
_cell_formula_units_Z 192
_cell_length_a 22.722208
_cell_length_b 17.656876
_cell_length_c 27.872956
_cell_angle_alpha 90.000000
_cell_angle_beta 90.000000
_cell_angle_gamma 90.000000
_cell_volume 11182.719394
_symmetry_space_group_name_H-M "F M M M"
_symmetry_group_IT_number 69
_symmetry_cell_setting 'orthorhombic'
loop_
_space_group_symop_operation_xyz
x,y,z
-x,-y,z
x,-y,-z
-x,y,-z
-x,-y,-z
x,y,-z
-x,y,z
x,-y,z
x,1/2+y,1/2+z
-x,1/2-y,1/2+z
x,1/2-y,1/2-z
-x,1/2+y,1/2-z
-x,1/2-y,1/2-z
x,1/2+y,1/2-z
-x,1/2+y,1/2+z
x,1/2-y,1/2+z
1/2+x,y,1/2+z
1/2-x,-y,1/2+z
1/2+x,-y,1/2-z
1/2-x,y,1/2-z
1/2-x,-y,1/2-z
1/2+x,y,1/2-z
1/2-x,y,1/2+z
1/2+x,-y,1/2+z
1/2+x,1/2+y,z
1/2-x,1/2-y,z
1/2+x,1/2-y,-z
1/2-x,1/2+y,-z
1/2-x,1/2-y,-z
1/2+x,1/2+y,-z
1/2-x,1/2+y,z
1/2+x,1/2-y,z
loop_
_atom_site_type_symbol
_atom_site_label
_atom_site_fract_x
_atom_site_fract_y
_atom_site_fract_z
Si Si1 0.817147 0.151698 0.054198
Si Si2 0.797005 0.411042 0.103172
Si Si3 0.766517 0.411334 0.301007
Si Si4 0.500000 0.912820 0.376633
Si Si5 0.125733 0.413021 0.642700
Si Si6 0.620963 0.195316 0.054454
Si Si7 0.000000 0.272626 0.556522
O O1 0.752161 0.128837 0.070522
O O2 0.865881 0.114173 0.088223
O O3 0.827594 0.241724 0.057041
O O4 0.827724 0.122915 0.000000
O O5 0.798572 0.500000 0.091950
O O6 0.784060 0.395952 0.159442
O O7 0.859511 0.373880 0.088944
O O8 0.774973 0.500000 0.292242
O O9 0.750000 0.372618 0.250000
O O10 0.828290 0.374362 0.320101
O O11 0.442364 0.898740 0.343258
O O12 0.500000 0.855905 0.420953
O O13 0.500000 0.000000 0.395713
O O14 0.143410 0.500000 0.642844
O O15 0.558112 0.226717 0.072977
O O16 0.614331 0.165536 0.000000
O O17 0.000000 0.285727 0.500000
#
# Coordination Sequence:
#
# PCOD8283886 Si02
#       7
#    32  32  32  16  32  32  16
#     4  10  18  29  46  68  98 131 161 193 236 297
#     4  10  20  32  49  74  98 123 160 209 258 295
#     4   8  15  30  51  73  97 123 154 198 251 306
#     4  10  18  29  46  72 102 129 163 204 241 287
#     4   9  17  27  44  72 100 128 159 192 237 289
#     4  10  20  33  49  68  95 133 174 202 235 293
#     4  10  20  35  49  67  95 140 182 203 235 286
#
# _framework density 17.169346999999998
#
# number of rings (size 3 to 8) (size 9 to 14) (size 15 to 20)
#    0.000    2.500    1.667    2.500    0.000    3.833 
#    0.000    2.083    0.000   10.500    0.000    4.667 
#    0.000    0.000    0.000    0.000    0.000    0.000 
#
# Total GULP energy -594807.278432 kJ/mol
# GULP energy per Si atom -12391.818301 kJ/mol
# Density = 1.713027 g / cm^3
# Si number density = 17.169347 Si / 1000 Ang^3
#
#
#
# Elastic Constant Matrix: (Units=GPa)
#
#
# Indices 1 2 3 4 5 6 
#
# 1 111.2988 50.4186 56.8069 0.0000 0.0000 0.0000
# 2 50.4186 55.7487 30.7139 0.0000 0.0000 0.0000
# 3 56.8069 30.7139 112.2456 0.0000 0.0000 0.0000
# 4 0.0000 0.0000 0.0000 7.7937 0.0000 0.0000
# 5 0.0000 0.0000 0.0000 0.0000 14.9360 0.0000
# 6 0.0000 0.0000 0.0000 0.0000 0.0000 27.0751
#
#
#
# Elastic Compliance Matrix: (Units=1/GPa)
#
#
# Indices 1 2 3 4 5 6 
#
# 1 0.017587 -0.012955 -0.005356 0.000000 0.000000 0.000000
# 2 -0.012955 0.030664 -0.001834 0.000000 0.000000 0.000000
# 3 -0.005356 -0.001834 0.012122 0.000000 0.000000 0.000000
# 4 0.000000 0.000000 0.000000 0.128310 0.000000 0.000000
# 5 0.000000 0.000000 0.000000 0.000000 0.066952 0.000000
# 6 0.000000 0.000000 0.000000 0.000000 0.000000 0.036934
#
#
# Mechanical properties :
#
#
# Convention : Reuss Voigt Hill
#
# Bulk Modulus (GPa) = 49.79355 61.68575 55.73965
# Shear Modulus (GPa) = 14.72521 19.38452 17.05487
#
# Velocity S-wave (km/s) = 2.93174 3.36373 3.15514
# Velocity P-wave (km/s) = 6.36588 7.14787 6.76818
#
# Compressibility (1/GPa) = 0.02008292
#
# Stress axis : x y z
#
# Youngs Moduli (GPa) = 56.86020 32.61102 82.49766
#
# Poissons Ratio (x) = 0.42247 0.44184
# Poissons Ratio (y) = 0.73661 0.15134
# Poissons Ratio (z) = 0.30453 0.05982
#
# Static dielectric constant tensor:
#      x y z
#    x 3.433640 0.000000 0.000000 
#    y 0.000000 3.006210 0.000000 
#    z 0.000000 0.000000 3.205650 
# 
# 
# High freq. dielectric constant tensor:
#      x y z
#    x 1.664610 0.000000 0.000000 
#    y 0.000000 1.639750 0.000000 
#    z 0.000000 0.000000 1.637990 
# 
# From -- ./inp_files/42822.got.cif
#   From: 2010.03.12/outbox.cif.g09.slc.cpg/sg69_22_cif.got.tgz:42822.got - 2010.04.10 23:52:46.
