data_PCOD8283065
_publ_section_title
;
Structure prediction by ZEFSAII (Michael W. Deem and Ramdas Pophale) SiO2 
 PCOD8283065
Probable space group: C C C A
;
_chemical_formula_sum "Si O2"
_cell_formula_units_Z 116
_cell_length_a 13.671209
_cell_length_b 24.382509
_cell_length_c 18.909528
_cell_angle_alpha 90.000000
_cell_angle_beta 90.000000
_cell_angle_gamma 90.000000
_cell_volume 6303.271364
_symmetry_space_group_name_H-M "C C C A"
_symmetry_group_IT_number 68
_space_group.IT_coordinate_system_code '2'
_symmetry_cell_setting 'orthorhombic'
loop_
_space_group_symop_operation_xyz
x,y,z
-x,1/2-y,z
x,1/2-y,1/2-z
-x,y,1/2-z
-x,-y,-z
x,1/2+y,-z
-x,1/2+y,1/2+z
x,-y,1/2+z
1/2+x,1/2+y,z
1/2-x,-y,z
1/2+x,-y,1/2-z
1/2-x,1/2+y,1/2-z
1/2-x,1/2-y,-z
1/2+x,y,-z
1/2-x,y,1/2+z
1/2+x,1/2-y,1/2+z
loop_
_atom_site_type_symbol
_atom_site_label
_atom_site_fract_x
_atom_site_fract_y
_atom_site_fract_z
Si Si1 0.302247 0.444947 0.670092
Si Si2 0.169870 0.146750 0.580534
Si Si3 0.102987 0.262766 0.615438
Si Si4 0.000000 0.750000 0.250000
Si Si5 0.211116 0.558838 0.834502
Si Si6 0.005539 0.422496 0.544417
Si Si7 0.707494 0.367927 0.439978
Si Si8 0.496443 0.463513 0.891265
O O1 0.250000 0.500000 0.641310
O O2 0.276457 0.434805 0.751064
O O3 0.267604 0.392743 0.625138
O O4 0.418452 0.451782 0.664582
O O5 0.169572 0.207805 0.613041
O O6 0.225117 0.107515 0.634355
O O7 0.221997 0.142391 0.505339
O O8 0.056746 0.128910 0.571937
O O9 0.073173 0.282447 0.696087
O O10 0.164871 0.309259 0.579239
O O11 0.000000 0.250000 0.574478
O O12 0.250000 0.500000 0.861127
O O13 0.099969 0.564959 0.860375
O O14 0.120329 0.409347 0.540684
O O15 0.970683 0.438445 0.466169
O O16 0.983381 0.471335 0.599398
#
# Coordination Sequence:
#
# PCOD8283065 Si02
#       8
#    16  16  16   4  16  16  16  16
#     4  11  24  38  59  90 123 162 202 248 312 373
#     4  12  23  41  63  89 122 161 208 256 306 367
#     4  10  23  39  64  93 117 159 203 254 308 362
#     4   8  20  44  68  84 128 154 198 260 328 358
#     4  11  24  38  59  90 123 162 202 248 312 373
#     4  11  21  35  63  89 115 160 203 252 295 361
#     4  12  23  41  63  89 122 161 208 256 306 367
#     4  11  21  38  58  87 125 158 205 247 296 376
#
# _framework density 18.403143
#
# number of rings (size 3 to 8) (size 9 to 14) (size 15 to 20)
#    0.414    0.552    6.897    0.828    1.931    0.552 
#    0.000    0.000    0.000    0.000    0.000    1.931 
#    0.000    0.000    0.000    0.000    0.000    0.000 
#
# Total GULP energy -719104.320325 kJ/mol
# GULP energy per Si atom -12398.350350 kJ/mol
# Density = 1.836126 g / cm^3
# Si number density = 18.403143 Si / 1000 Ang^3
#
#
#
# Elastic Constant Matrix: (Units=GPa)
#
#
# Indices 1 2 3 4 5 6 
#
# 1 96.7657 24.1519 29.0917 0.0000 0.0000 0.0000
# 2 24.1519 97.3063 45.2868 0.0000 0.0000 0.0000
# 3 29.0917 45.2868 76.6146 0.0000 0.0000 0.0000
# 4 0.0000 0.0000 0.0000 17.1498 0.0000 0.0000
# 5 0.0000 0.0000 0.0000 0.0000 19.4735 0.0000
# 6 0.0000 0.0000 0.0000 0.0000 0.0000 28.4669
#
#
#
# Elastic Compliance Matrix: (Units=1/GPa)
#
#
# Indices 1 2 3 4 5 6 
#
# 1 0.011760 -0.001160 -0.003780 0.000000 0.000000 0.000000
# 2 -0.001160 0.014291 -0.008007 0.000000 0.000000 0.000000
# 3 -0.003780 -0.008007 0.019221 0.000000 0.000000 0.000000
# 4 0.000000 0.000000 0.000000 0.058310 0.000000 0.000000
# 5 0.000000 0.000000 0.000000 0.000000 0.051352 0.000000
# 6 0.000000 0.000000 0.000000 0.000000 0.000000 0.035129
#
#
# Mechanical properties :
#
#
# Convention : Reuss Voigt Hill
#
# Bulk Modulus (GPa) = 51.60410 51.97195 51.78803
# Shear Modulus (GPa) = 22.48045 24.49511 23.48778
#
# Velocity S-wave (km/s) = 3.49887 3.65228 3.57640
# Velocity P-wave (km/s) = 6.66517 6.78879 6.72727
#
# Compressibility (1/GPa) = 0.01937830
#
# Stress axis : x y z
#
# Youngs Moduli (GPa) = 85.03320 69.97296 52.02726
#
# Poissons Ratio (x) = 0.08115 0.19666
# Poissons Ratio (y) = 0.09861 0.41659
# Poissons Ratio (z) = 0.32143 0.56029
#
# Static dielectric constant tensor:
#      x y z
#    x 3.434250 0.000000 0.000000 
#    y 0.000000 3.244890 0.000000 
#    z 0.000000 0.000000 3.262500 
# 
# 
# High freq. dielectric constant tensor:
#      x y z
#    x 1.724190 0.000000 0.000000 
#    y 0.000000 1.703310 0.000000 
#    z 0.000000 0.000000 1.711130 
# 
# From -- ./inp_files/31252.got.cif
#   From: 2010.03.12/outbox.cif.g09.slc.cpg/sg68_16_cif.got.tgz:31252.got - 2010.04.10 23:14:56.
