data_PCOD8283671
_publ_section_title
;
Structure prediction by ZEFSAII (Michael W. Deem and Ramdas Pophale) SiO2 
 PCOD8283671
Probable space group: C C C A
;
_chemical_formula_sum "Si O2"
_cell_formula_units_Z 96
_cell_length_a 13.983845
_cell_length_b 18.152949
_cell_length_c 19.536737
_cell_angle_alpha 90.000000
_cell_angle_beta 90.000000
_cell_angle_gamma 90.000000
_cell_volume 4959.362105
_symmetry_space_group_name_H-M "C C C A"
_symmetry_group_IT_number 68
_space_group.IT_coordinate_system_code '2'
_symmetry_cell_setting 'orthorhombic'
loop_
_space_group_symop_operation_xyz
x,y,z
-x,1/2-y,z
x,1/2-y,1/2-z
-x,y,1/2-z
-x,-y,-z
x,1/2+y,-z
-x,1/2+y,1/2+z
x,-y,1/2+z
1/2+x,1/2+y,z
1/2-x,-y,z
1/2+x,-y,1/2-z
1/2-x,1/2+y,1/2-z
1/2-x,1/2-y,-z
1/2+x,y,-z
1/2-x,y,1/2+z
1/2+x,1/2-y,1/2+z
loop_
_atom_site_type_symbol
_atom_site_label
_atom_site_fract_x
_atom_site_fract_y
_atom_site_fract_z
Si Si1 0.201719 0.679146 0.206961
Si Si2 0.000000 0.478016 0.250000
Si Si3 0.250000 0.000000 0.074175
Si Si4 0.877394 0.411488 0.673020
Si Si5 0.903980 0.529655 0.467671
Si Si6 0.828781 0.558516 0.838447
Si Si7 0.034963 0.823565 0.395324
O O1 0.239525 0.750000 0.250000
O O2 0.173302 0.613895 0.258095
O O3 0.282654 0.640885 0.158243
O O4 0.111365 0.701953 0.161639
O O5 0.045425 0.525271 0.311255
O O6 0.083982 0.431211 0.214847
O O7 0.296854 0.062698 0.120453
O O8 0.172329 0.040256 0.027345
O O9 0.936725 0.346118 0.640347
O O10 0.865718 0.471015 0.411805
O O11 0.920275 0.611843 0.440192
O O12 0.000000 0.500000 0.500000
O O13 0.750000 0.500000 0.811144
O O14 0.000000 0.750000 0.436916
#
# Coordination Sequence:
#
# PCOD8283671 Si02
#       7
#    16   8   8  16  16  16  16
#     4  12  23  37  62  98 131 154 201 271 337 390
#     4  12  20  36  64  96 126 152 212 268 316 378
#     4  12  24  38  62  92 128 160 228 262 296 390
#     4  12  20  35  61  95 122 160 203 266 323 370
#     4  12  23  43  64  91 126 178 224 262 311 381
#     4  12  21  38  64  93 128 168 213 257 325 388
#     4  12  22  38  64  96 124 162 211 272 333 378
#
# _framework density 19.357327999999999
#
# number of rings (size 3 to 8) (size 9 to 14) (size 15 to 20)
#    0.000    0.000   10.833    1.000    0.000    0.000 
#    0.000    2.917    0.000    0.000    0.000    0.000 
#    0.000    0.000    0.000    0.000    0.000    0.000 
#
# Total GULP energy -594990.976405 kJ/mol
# GULP energy per Si atom -12395.645342 kJ/mol
# Density = 1.931327 g / cm^3
# Si number density = 19.357328 Si / 1000 Ang^3
#
#
#
# Elastic Constant Matrix: (Units=GPa)
#
#
# Indices 1 2 3 4 5 6 
#
# 1 124.2688 48.4708 46.0821 0.0000 0.0000 0.0000
# 2 48.4708 113.2791 32.3388 0.0000 0.0000 0.0000
# 3 46.0821 32.3388 65.0682 0.0000 0.0000 0.0000
# 4 0.0000 0.0000 0.0000 18.6425 0.0000 0.0000
# 5 0.0000 0.0000 0.0000 0.0000 47.1392 0.0000
# 6 0.0000 0.0000 0.0000 0.0000 0.0000 -0.0553
#
#
#
# Elastic Compliance Matrix: (Units=1/GPa)
#
#
# Indices 1 2 3 4 5 6 
#
# 1 0.011777 -0.003098 -0.006801 0.000000 0.000000 0.000000
# 2 -0.003098 0.011102 -0.003324 0.000000 0.000000 0.000000
# 3 -0.006801 -0.003324 0.021837 0.000000 0.000000 0.000000
# 4 0.000000 0.000000 0.000000 0.053641 0.000000 0.000000
# 5 0.000000 0.000000 0.000000 0.000000 0.021214 0.000000
# 6 0.000000 0.000000 0.000000 0.000000 0.000000-18.075846
#
#
# Mechanical properties :
#
#
# Convention : Reuss Voigt Hill
#
# Bulk Modulus (GPa) = 54.73197 61.82219 58.27708
# Shear Modulus (GPa) = -0.27896 24.86022 12.29063
#
# Velocity S-wave (km/s) = -0.38003 3.58757 2.52252
# Velocity P-wave (km/s) = 5.30503 7.01196 6.21735
#
# Compressibility (1/GPa) = 0.01827086
#
# Stress axis : x y z
#
# Youngs Moduli (GPa) = 84.90778 90.07260 45.79329
#
# Poissons Ratio (x) = 0.27903 0.31146
# Poissons Ratio (y) = 0.26303 0.15221
# Poissons Ratio (z) = 0.57749 0.29939
#
# Static dielectric constant tensor:
#      x y z
#    x 4.469560 0.000000 0.000000 
#    y 0.000000 3.396310 0.000000 
#    z 0.000000 0.000000 3.564330 
# 
# 
# High freq. dielectric constant tensor:
#      x y z
#    x 1.768680 0.000000 0.000000 
#    y 0.000000 1.735100 0.000000 
#    z 0.000000 0.000000 1.744460 
# 
# From -- ./inp_files/37696.got.cif
#   From: 2010.03.12/outbox.cif.g09.slc.cpg/sg68_19_cif.got.tgz:37696.got - 2010.04.10 23:14:56.
