data_PCOD8283372
_publ_section_title
;
Structure prediction by ZEFSAII (Michael W. Deem and Ramdas Pophale) SiO2 
 PCOD8283372
Probable space group: C C C A
;
_chemical_formula_sum "Si O2"
_cell_formula_units_Z 60
_cell_length_a 18.757036
_cell_length_b 4.996156
_cell_length_c 30.092667
_cell_angle_alpha 90.000000
_cell_angle_beta 90.000000
_cell_angle_gamma 90.000000
_cell_volume 2820.076448
_symmetry_space_group_name_H-M "C C C A"
_symmetry_group_IT_number 68
_space_group.IT_coordinate_system_code '2'
_symmetry_cell_setting 'orthorhombic'
loop_
_space_group_symop_operation_xyz
x,y,z
-x,1/2-y,z
x,1/2-y,1/2-z
-x,y,1/2-z
-x,-y,-z
x,1/2+y,-z
-x,1/2+y,1/2+z
x,-y,1/2+z
1/2+x,1/2+y,z
1/2-x,-y,z
1/2+x,-y,1/2-z
1/2-x,1/2+y,1/2-z
1/2-x,1/2-y,-z
1/2+x,y,-z
1/2-x,y,1/2+z
1/2+x,1/2-y,1/2+z
loop_
_atom_site_type_symbol
_atom_site_label
_atom_site_fract_x
_atom_site_fract_y
_atom_site_fract_z
Si Si1 0.084707 0.774342 0.525594
Si Si2 0.750000 0.000000 0.224222
Si Si3 0.078902 0.370085 0.375626
Si Si4 0.889919 0.107494 0.679275
Si Si5 0.000000 0.750000 0.250000
O O1 0.114838 0.488206 0.510134
O O2 0.110381 0.863409 0.574510
O O3 0.000000 0.750000 0.524311
O O4 0.787036 0.250000 0.250000
O O5 0.688595 0.164613 0.197994
O O6 0.083568 0.668185 0.355775
O O7 0.000000 0.250000 0.375486
O O8 0.123802 0.174058 0.344776
O O9 0.948608 0.072046 0.718520
#
# Coordination Sequence:
#
# PCOD8283372 Si02
#       5
#    16   8  16  16   4
#     4   9  17  30  52  82 120 154 186 240 315 377
#     4  12  26  44  62  88 124 170 222 258 316 376
#     4  11  21  37  58  91 122 155 204 258 309 370
#     4  12  25  39  62  88 123 165 206 260 309 372
#     4  12  24  42  64  90 120 164 216 254 324 354
#
# _framework density 21.276019999999999
#
# number of rings (size 3 to 8) (size 9 to 14) (size 15 to 20)
#    0.000    1.067    4.000    3.200    0.000    5.333 
#    0.000    0.000    0.000    0.000    0.000   18.667 
#    0.000    0.000    0.000    0.000    0.000    0.000 
#
# Total GULP energy -371778.783318 kJ/mol
# GULP energy per Si atom -12392.626111 kJ/mol
# Density = 2.122759 g / cm^3
# Si number density = 21.276020 Si / 1000 Ang^3
#
#
#
# Elastic Constant Matrix: (Units=GPa)
#
#
# Indices 1 2 3 4 5 6 
#
# 1 75.6627 3.8487 28.7862 0.0000 0.0000 0.0000
# 2 3.8487 104.0363 44.8840 0.0000 0.0000 0.0000
# 3 28.7862 44.8840 145.8130 0.0000 0.0000 0.0000
# 4 0.0000 0.0000 0.0000 35.6976 0.0000 0.0000
# 5 0.0000 0.0000 0.0000 0.0000 9.5915 0.0000
# 6 0.0000 0.0000 0.0000 0.0000 0.0000 23.5586
#
#
#
# Elastic Compliance Matrix: (Units=1/GPa)
#
#
# Indices 1 2 3 4 5 6 
#
# 1 0.014347 0.000797 -0.003078 0.000000 0.000000 0.000000
# 2 0.000797 0.011128 -0.003583 0.000000 0.000000 0.000000
# 3 -0.003078 -0.003583 0.008569 0.000000 0.000000 0.000000
# 4 0.000000 0.000000 0.000000 0.028013 0.000000 0.000000
# 5 0.000000 0.000000 0.000000 0.000000 0.104258 0.000000
# 6 0.000000 0.000000 0.000000 0.000000 0.000000 0.042447
#
#
# Mechanical properties :
#
#
# Convention : Reuss Voigt Hill
#
# Bulk Modulus (GPa) = 44.80931 53.39442 49.10187
# Shear Modulus (GPa) = 21.93670 30.30243 26.11956
#
# Velocity S-wave (km/s) = 3.21448 3.77802 3.50759
# Velocity P-wave (km/s) = 5.90626 6.64694 6.28751
#
# Compressibility (1/GPa) = 0.02231679
#
# Stress axis : x y z
#
# Youngs Moduli (GPa) = 69.70133 89.86116 116.70565
#
# Poissons Ratio (x) = -0.07162 0.35919
# Poissons Ratio (y) = -0.05556 0.41814
# Poissons Ratio (z) = 0.21452 0.32196
#
# Static dielectric constant tensor:
#      x y z
#    x 3.325840 0.000000 0.000000 
#    y 0.000000 4.169250 0.000000 
#    z 0.000000 0.000000 4.183060 
# 
# 
# High freq. dielectric constant tensor:
#      x y z
#    x 1.780670 0.000000 0.000000 
#    y 0.000000 1.845730 0.000000 
#    z 0.000000 0.000000 1.845130 
# 
# From -- ./inp_files/48018.got.cif
#   From: 2010.03.12/outbox.cif.g09.slc.cpg/sg68_25_cif.got.tgz:48018.got - 2010.04.10 23:14:56.
