data_PCOD8283482
_publ_section_title
;
Structure prediction by ZEFSAII (Michael W. Deem and Ramdas Pophale) SiO2 
 PCOD8283482
Probable space group: C C C A
;
_chemical_formula_sum "Si O2"
_cell_formula_units_Z 88
_cell_length_a 11.030986
_cell_length_b 11.603655
_cell_length_c 31.340366
_cell_angle_alpha 90.000000
_cell_angle_beta 90.000000
_cell_angle_gamma 90.000000
_cell_volume 4011.559196
_symmetry_space_group_name_H-M "C C C A"
_symmetry_group_IT_number 68
_space_group.IT_coordinate_system_code '2'
_symmetry_cell_setting 'orthorhombic'
loop_
_space_group_symop_operation_xyz
x,y,z
-x,1/2-y,z
x,1/2-y,1/2-z
-x,y,1/2-z
-x,-y,-z
x,1/2+y,-z
-x,1/2+y,1/2+z
x,-y,1/2+z
1/2+x,1/2+y,z
1/2-x,-y,z
1/2+x,-y,1/2-z
1/2-x,1/2+y,1/2-z
1/2-x,1/2-y,-z
1/2+x,y,-z
1/2-x,y,1/2+z
1/2+x,1/2-y,1/2+z
loop_
_atom_site_type_symbol
_atom_site_label
_atom_site_fract_x
_atom_site_fract_y
_atom_site_fract_z
Si Si1 0.250000 0.500000 0.331507
Si Si2 0.865481 0.568382 0.044530
Si Si3 0.520496 0.615121 0.203330
Si Si4 0.175625 0.611489 0.631780
Si Si5 0.871272 0.796776 0.375122
Si Si6 0.940557 0.369133 0.456603
O O1 0.339369 0.584680 0.305710
O O2 0.154545 0.575621 0.357864
O O3 0.750000 0.500000 0.061213
O O4 0.878455 0.684279 0.073491
O O5 0.977479 0.481785 0.049721
O O6 0.847263 0.604632 0.995115
O O7 0.500000 0.750000 0.205526
O O8 0.500000 0.558771 0.250000
O O9 0.421947 0.575222 0.167923
O O10 0.250000 0.500000 0.619226
O O11 0.268297 0.713033 0.644090
O O12 0.117002 0.658721 0.588733
O O13 0.000000 0.750000 0.358268
O O14 0.000000 0.250000 0.471573
#
# Coordination Sequence:
#
# PCOD8283482 Si02
#       6
#     8  16  16  16  16  16
#     4  12  24  48  74 104 144 186 226 296 350 422
#     4  11  23  40  61  94 136 180 233 286 344 405
#     4  11  25  47  74 104 141 183 232 291 356 425
#     4  12  25  44  70 101 140 180 238 288 352 423
#     4  12  25  43  70 103 140 188 235 286 347 421
#     4  11  24  39  62  93 133 182 231 286 345 412
#
# _framework density 21.936608
#
# number of rings (size 3 to 8) (size 9 to 14) (size 15 to 20)
#    0.000    0.545    2.727    6.000    1.273    5.818 
#    0.000    0.000    0.000    0.000    0.000    0.000 
#    0.000    0.000    0.000    0.000    0.000    0.000 
#
# Total GULP energy -545307.937172 kJ/mol
# GULP energy per Si atom -12393.362208 kJ/mol
# Density = 2.188668 g / cm^3
# Si number density = 21.936608 Si / 1000 Ang^3
#
#
#
# Elastic Constant Matrix: (Units=GPa)
#
#
# Indices 1 2 3 4 5 6 
#
# 1 132.5085 35.4040 49.4949 0.0000 0.0000 0.0000
# 2 35.4040 90.3729 20.9650 0.0000 0.0000 0.0000
# 3 49.4949 20.9650 108.4155 0.0000 0.0000 0.0000
# 4 0.0000 0.0000 0.0000 -27.7800 0.0000 0.0000
# 5 0.0000 0.0000 0.0000 0.0000 39.4902 0.0000
# 6 0.0000 0.0000 0.0000 0.0000 0.0000 48.4933
#
#
#
# Elastic Compliance Matrix: (Units=1/GPa)
#
#
# Indices 1 2 3 4 5 6 
#
# 1 0.009787 -0.002929 -0.003901 0.000000 0.000000 0.000000
# 2 -0.002929 0.012461 -0.001073 0.000000 0.000000 0.000000
# 3 -0.003901 -0.001073 0.011212 0.000000 0.000000 0.000000
# 4 0.000000 0.000000 0.000000 -0.035997 0.000000 0.000000
# 5 0.000000 0.000000 0.000000 0.000000 0.025323 0.000000
# 6 0.000000 0.000000 0.000000 0.000000 0.000000 0.020621
#
#
# Mechanical properties :
#
#
# Convention : Reuss Voigt Hill
#
# Bulk Modulus (GPa) = 56.64308 60.33609 58.48959
# Shear Modulus (GPa) = 76.80710 27.06955 51.93832
#
# Velocity S-wave (km/s) = 5.92362 3.51663 4.87113
# Velocity P-wave (km/s) = 8.52426 6.63727 7.63925
#
# Compressibility (1/GPa) = 0.01765441
#
# Stress axis : x y z
#
# Youngs Moduli (GPa) = 102.18149 80.24721 89.18752
#
# Poissons Ratio (x) = 0.23503 0.34796
# Poissons Ratio (y) = 0.29927 0.09567
# Poissons Ratio (z) = 0.39866 0.08608
#
# Static dielectric constant tensor:
#      x y z
#    x 5.877940 0.000000 0.000000 
#    y 0.000000 3.938850 0.000000 
#    z 0.000000 0.000000 4.250190 
# 
# 
# High freq. dielectric constant tensor:
#      x y z
#    x 1.865180 0.000000 0.000000 
#    y 0.000000 1.871420 0.000000 
#    z 0.000000 0.000000 1.855670 
# 
# From -- ./inp_files/54608.got.cif
#   From: 2010.03.12/outbox.cif.g09.slc.cpg/sg68_28_cif.got.tgz:54608.got - 2010.04.10 23:14:56.
