data_PCOD8283986
_publ_section_title
;
Structure prediction by ZEFSAII (Michael W. Deem and Ramdas Pophale) SiO2 
 PCOD8283986
Probable space group: F M M M
;
_chemical_formula_sum "Si O2"
_cell_formula_units_Z 160
_cell_length_a 19.185442
_cell_length_b 20.117343
_cell_length_c 23.227710
_cell_angle_alpha 90.000000
_cell_angle_beta 90.000000
_cell_angle_gamma 90.000000
_cell_volume 8964.969677
_symmetry_space_group_name_H-M "F M M M"
_symmetry_group_IT_number 69
_symmetry_cell_setting 'orthorhombic'
loop_
_space_group_symop_operation_xyz
x,y,z
-x,-y,z
x,-y,-z
-x,y,-z
-x,-y,-z
x,y,-z
-x,y,z
x,-y,z
x,1/2+y,1/2+z
-x,1/2-y,1/2+z
x,1/2-y,1/2-z
-x,1/2+y,1/2-z
-x,1/2-y,1/2-z
x,1/2+y,1/2-z
-x,1/2+y,1/2+z
x,1/2-y,1/2+z
1/2+x,y,1/2+z
1/2-x,-y,1/2+z
1/2+x,-y,1/2-z
1/2-x,y,1/2-z
1/2-x,-y,1/2-z
1/2+x,y,1/2-z
1/2-x,y,1/2+z
1/2+x,-y,1/2+z
1/2+x,1/2+y,z
1/2-x,1/2-y,z
1/2+x,1/2-y,-z
1/2-x,1/2+y,-z
1/2-x,1/2-y,-z
1/2+x,1/2+y,-z
1/2-x,1/2+y,z
1/2+x,1/2-y,z
loop_
_atom_site_type_symbol
_atom_site_label
_atom_site_fract_x
_atom_site_fract_y
_atom_site_fract_z
Si Si1 0.500000 0.834406 0.566980
Si Si2 0.352989 0.389493 0.263178
Si Si3 0.632693 0.422058 0.933651
Si Si4 0.000000 0.282695 0.154189
Si Si5 0.764024 0.426888 0.339186
Si Si6 0.891708 0.750000 0.250000
Si Si7 0.000000 0.575559 0.812586
O O1 0.500000 0.818014 0.500000
O O2 0.433704 0.878491 0.584567
O O3 0.500000 0.762315 0.597395
O O4 0.307248 0.389086 0.322106
O O5 0.317152 0.434161 0.214610
O O6 0.346921 0.315212 0.237474
O O7 0.431627 0.415299 0.272766
O O8 0.616238 0.500000 0.921767
O O9 0.697004 0.395684 0.894689
O O10 0.652594 0.410483 0.000000
O O11 0.066379 0.265578 0.192265
O O12 0.000000 0.363256 0.140686
O O13 0.739564 0.500000 0.356942
O O14 0.000000 0.500000 0.839098
#
# Coordination Sequence:
#
# PCOD8283986 Si02
#       7
#    16  32  32  16  32  16  16
#     4  10  18  31  52  74  99 130 164 200 238 290
#     4  10  19  31  48  72  99 128 161 196 242 290
#     4   9  18  31  48  72 101 134 168 200 238 286
#     4   9  18  31  48  75 102 126 159 199 251 297
#     4  10  19  30  45  69 102 131 159 198 242 288
#     4   9  18  31  48  70  98 128 160 198 236 290
#     4  10  19  33  53  73  96 126 163 204 244 295
#
# _framework density 17.847245000000001
#
# number of rings (size 3 to 8) (size 9 to 14) (size 15 to 20)
#    0.000    2.400    0.000    4.500    0.000    3.600 
#    0.000    1.000    0.000    5.100    0.000   12.600 
#    0.000    0.000    0.000    0.000    0.000    0.000 
#
# Total GULP energy -495600.552767 kJ/mol
# GULP energy per Si atom -12390.013819 kJ/mol
# Density = 1.780662 g / cm^3
# Si number density = 17.847245 Si / 1000 Ang^3
#
#
#
# Elastic Constant Matrix: (Units=GPa)
#
#
# Indices 1 2 3 4 5 6 
#
# 1 108.8185 30.0511 37.4569 0.0000 0.0000 0.0000
# 2 30.0511 124.3092 31.1027 0.0000 0.0000 0.0000
# 3 37.4569 31.1027 66.4739 0.0000 0.0000 0.0000
# 4 0.0000 0.0000 0.0000 29.3151 0.0000 0.0000
# 5 0.0000 0.0000 0.0000 0.0000 42.8843 0.0000
# 6 0.0000 0.0000 0.0000 0.0000 0.0000 17.4178
#
#
#
# Elastic Compliance Matrix: (Units=1/GPa)
#
#
# Indices 1 2 3 4 5 6 
#
# 1 0.011590 -0.001323 -0.005912 0.000000 0.000000 0.000000
# 2 -0.001323 0.009262 -0.003588 0.000000 0.000000 0.000000
# 3 -0.005912 -0.003588 0.020054 0.000000 0.000000 0.000000
# 4 0.000000 0.000000 0.000000 0.034112 0.000000 0.000000
# 5 0.000000 0.000000 0.000000 0.000000 0.023319 0.000000
# 6 0.000000 0.000000 0.000000 0.000000 0.000000 0.057413
#
#
# Mechanical properties :
#
#
# Convention : Reuss Voigt Hill
#
# Bulk Modulus (GPa) = 51.92130 55.20253 53.56192
# Shear Modulus (GPa) = 27.20137 31.32283 29.26210
#
# Velocity S-wave (km/s) = 3.90824 4.19388 4.05357
# Velocity P-wave (km/s) = 7.03711 7.37897 7.21007
#
# Compressibility (1/GPa) = 0.01925992
#
# Stress axis : x y z
#
# Youngs Moduli (GPa) = 86.28285 107.96786 49.86620
#
# Poissons Ratio (x) = 0.14280 0.29480
# Poissons Ratio (y) = 0.11412 0.17894
# Poissons Ratio (z) = 0.51009 0.38743
#
# Static dielectric constant tensor:
#      x y z
#    x 3.347310 0.000000 0.000000 
#    y 0.000000 3.518150 0.000000 
#    z 0.000000 0.000000 3.090640 
# 
# 
# High freq. dielectric constant tensor:
#      x y z
#    x 1.689700 0.000000 0.000000 
#    y 0.000000 1.694280 0.000000 
#    z 0.000000 0.000000 1.655750 
# 
# From -- ./inp_files/30878.got.cif
#   From: 2010.03.12/outbox.cif.g09.slc.cpg/sg69_16_cif.got.tgz:30878.got - 2010.04.10 23:52:46.
