data_PCOD8283319
_publ_section_title
;
Structure prediction by ZEFSAII (Michael W. Deem and Ramdas Pophale) SiO2 
 PCOD8283319
Probable space group: C C C A
;
_chemical_formula_sum "Si O2"
_cell_formula_units_Z 104
_cell_length_a 19.272912
_cell_length_b 8.744986
_cell_length_c 27.124861
_cell_angle_alpha 90.000000
_cell_angle_beta 90.000000
_cell_angle_gamma 90.000000
_cell_volume 4571.660573
_symmetry_space_group_name_H-M "C C C A"
_symmetry_group_IT_number 68
_space_group.IT_coordinate_system_code '2'
_symmetry_cell_setting 'orthorhombic'
loop_
_space_group_symop_operation_xyz
x,y,z
-x,1/2-y,z
x,1/2-y,1/2-z
-x,y,1/2-z
-x,-y,-z
x,1/2+y,-z
-x,1/2+y,1/2+z
x,-y,1/2+z
1/2+x,1/2+y,z
1/2-x,-y,z
1/2+x,-y,1/2-z
1/2-x,1/2+y,1/2-z
1/2-x,1/2-y,-z
1/2+x,y,-z
1/2-x,y,1/2+z
1/2+x,1/2-y,1/2+z
loop_
_atom_site_type_symbol
_atom_site_label
_atom_site_fract_x
_atom_site_fract_y
_atom_site_fract_z
Si Si1 0.577105 0.571024 0.749994
Si Si2 0.364687 0.366445 0.029060
Si Si3 0.673395 0.040318 0.830414
Si Si4 0.973567 0.090800 0.078786
Si Si5 0.250000 0.500000 0.091443
Si Si6 0.367419 0.377892 0.661561
Si Si7 0.618211 0.969550 0.932956
O O1 0.568374 0.750000 0.750000
O O2 0.500000 0.495154 0.750000
O O3 0.616282 0.552187 0.698923
O O4 0.622430 0.500849 0.794866
O O5 0.421741 0.491286 0.045704
O O6 0.290757 0.384378 0.055820
O O7 0.384494 0.192763 0.039666
O O8 0.358064 0.395878 0.970602
O O9 0.654081 0.214467 0.817628
O O10 0.750000 0.000000 0.810782
O O11 0.670474 0.986092 0.887312
O O12 0.938472 0.133193 0.130705
O O13 0.000000 0.250000 0.052822
O O14 0.041439 0.990935 0.088870
O O15 0.304790 0.581905 0.125800
#
# Coordination Sequence:
#
# PCOD8283319 Si02
#       7
#    16  16  16  16   8  16  16
#     4  11  28  49  76 110 147 188 240 299 370 437
#     4  11  26  43  70 102 148 194 242 302 364 432
#     4  12  28  46  75 110 143 190 244 299 364 438
#     4  11  22  44  72 106 139 186 245 297 360 428
#     4  10  26  46  72 102 144 194 238 298 368 424
#     4  11  25  48  76 104 147 188 238 297 362 443
#     4  12  25  44  69 106 147 190 247 301 365 432
#
# _framework density 22.748844999999999
#
# number of rings (size 3 to 8) (size 9 to 14) (size 15 to 20)
#    0.000    0.769    1.538    4.154   10.769    1.231 
#    0.000    0.000    0.000    0.000    0.000    0.000 
#    0.000    0.000    0.000    0.000    0.000    0.000 
#
# Total GULP energy -644716.891372 kJ/mol
# GULP energy per Si atom -12398.401757 kJ/mol
# Density = 2.269707 g / cm^3
# Si number density = 22.748845 Si / 1000 Ang^3
#
#
#
# Elastic Constant Matrix: (Units=GPa)
#
#
# Indices 1 2 3 4 5 6 
#
# 1 148.7168 50.9219 51.8555 0.0000 0.0000 0.0000
# 2 50.9219 124.8695 33.4068 0.0000 0.0000 0.0000
# 3 51.8555 33.4068 109.2799 0.0000 0.0000 0.0000
# 4 0.0000 0.0000 0.0000-1123.2292 0.0000 0.0000
# 5 0.0000 0.0000 0.0000 0.0000 19.2514 0.0000
# 6 0.0000 0.0000 0.0000 0.0000 0.0000 29.0468
#
#
#
# Elastic Compliance Matrix: (Units=1/GPa)
#
#
# Indices 1 2 3 4 5 6 
#
# 1 0.008820 -0.002698 -0.003360 0.000000 0.000000 0.000000
# 2 -0.002698 0.009547 -0.001638 0.000000 0.000000 0.000000
# 3 -0.003360 -0.001638 0.011246 0.000000 0.000000 0.000000
# 4 0.000000 0.000000 0.000000 -0.000890 0.000000 0.000000
# 5 0.000000 0.000000 0.000000 0.000000 0.051944 0.000000
# 6 0.000000 0.000000 0.000000 0.000000 0.000000 0.034427
#
#
# Mechanical properties :
#
#
# Convention : Reuss Voigt Hill
#
# Bulk Modulus (GPa) = 70.32443 72.80385 71.56414
# Shear Modulus (GPa) = 36.97502 -198.54073 -80.78285
#
# Velocity S-wave (km/s) = 4.03595 -9.35225 -5.96555
# Velocity P-wave (km/s) = 7.25941 9.19492 3.99046
#
# Compressibility (1/GPa) = 0.01421981
#
# Stress axis : x y z
#
# Youngs Moduli (GPa) = 113.38368 104.74751 88.91855
#
# Poissons Ratio (x) = 0.28257 0.29880
# Poissons Ratio (y) = 0.30587 0.14568
# Poissons Ratio (z) = 0.38102 0.17162
#
# Static dielectric constant tensor:
#      x y z
#    x 4.513150 0.000000 0.000000 
#    y 0.000000 5.244640 0.000000 
#    z 0.000000 0.000000 4.114130 
# 
# 
# High freq. dielectric constant tensor:
#      x y z
#    x 1.915150 0.000000 0.000000 
#    y 0.000000 1.902690 0.000000 
#    z 0.000000 0.000000 1.896890 
# 
# From -- ./inp_files/51827.got.cif
#   From: 2010.03.12/outbox.cif.g09.slc.cpg/sg68_26_cif.got.tgz:51827.got - 2010.04.10 23:14:56.
