data_PCOD8283230
_publ_section_title
;
Structure prediction by ZEFSAII (Michael W. Deem and Ramdas Pophale) SiO2 
 PCOD8283230
Probable space group: C C C A
;
_chemical_formula_sum "Si O2"
_cell_formula_units_Z 56
_cell_length_a 5.576443
_cell_length_b 13.885355
_cell_length_c 28.206213
_cell_angle_alpha 90.000000
_cell_angle_beta 90.000000
_cell_angle_gamma 90.000000
_cell_volume 2184.032196
_symmetry_space_group_name_H-M "C C C A"
_symmetry_group_IT_number 68
_space_group.IT_coordinate_system_code '2'
_symmetry_cell_setting 'orthorhombic'
loop_
_space_group_symop_operation_xyz
x,y,z
-x,1/2-y,z
x,1/2-y,1/2-z
-x,y,1/2-z
-x,-y,-z
x,1/2+y,-z
-x,1/2+y,1/2+z
x,-y,1/2+z
1/2+x,1/2+y,z
1/2-x,-y,z
1/2+x,-y,1/2-z
1/2-x,1/2+y,1/2-z
1/2-x,1/2-y,-z
1/2+x,y,-z
1/2-x,y,1/2+z
1/2+x,1/2-y,1/2+z
loop_
_atom_site_type_symbol
_atom_site_label
_atom_site_fract_x
_atom_site_fract_y
_atom_site_fract_z
Si Si1 0.250000 0.000000 0.366490
Si Si2 0.384820 0.645359 0.381748
Si Si3 0.787616 0.112066 0.978378
Si Si4 0.470089 0.636867 0.803156
O O1 0.324282 0.088993 0.333668
O O2 0.054115 0.054895 0.398419
O O3 0.500000 0.750000 0.378704
O O4 0.184481 0.643278 0.422892
O O5 0.282429 0.615313 0.329638
O O6 0.750000 0.000000 0.987573
O O7 0.531980 0.155835 0.998084
O O8 0.500000 0.750000 0.803545
O O9 0.500000 0.595872 0.750000
#
# Coordination Sequence:
#
# PCOD8283230 Si02
#       4
#     8  16  16  16
#     4  12  26  46  78 102 150 202 240 324 380 458
#     4  12  27  48  74 110 152 199 256 317 385 464
#     4  10  24  44  77 111 153 201 259 320 388 466
#     4  11  26  48  74 108 149 195 255 314 381 462
#
# _framework density 25.640646
#
# number of rings (size 3 to 8) (size 9 to 14) (size 15 to 20)
#    0.000    0.857    2.857    2.571   14.000    1.143 
#    0.000    0.000    0.000    0.000    0.000    0.000 
#    0.000    0.000    0.000    0.000    0.000    0.000 
#
# Total GULP energy -346895.147110 kJ/mol
# GULP energy per Si atom -12389.112397 kJ/mol
# Density = 2.558229 g / cm^3
# Si number density = 25.640646 Si / 1000 Ang^3
#
#
#
# Elastic Constant Matrix: (Units=GPa)
#
#
# Indices 1 2 3 4 5 6 
#
# 1 139.5591 8.2356 46.1467 0.0000 0.0000 0.0000
# 2 8.2356 73.9171 8.1307 0.0000 0.0000 0.0000
# 3 46.1467 8.1307 130.9131 0.0000 0.0000 0.0000
# 4 0.0000 0.0000 0.0000 14.3863 0.0000 0.0000
# 5 0.0000 0.0000 0.0000 0.0000 22.8238 0.0000
# 6 0.0000 0.0000 0.0000 0.0000 0.0000 27.2059
#
#
#
# Elastic Compliance Matrix: (Units=1/GPa)
#
#
# Indices 1 2 3 4 5 6 
#
# 1 0.008137 -0.000595 -0.002831 0.000000 0.000000 0.000000
# 2 -0.000595 0.013665 -0.000639 0.000000 0.000000 0.000000
# 3 -0.002831 -0.000639 0.008676 0.000000 0.000000 0.000000
# 4 0.000000 0.000000 0.000000 0.069511 0.000000 0.000000
# 5 0.000000 0.000000 0.000000 0.000000 0.043814 0.000000
# 6 0.000000 0.000000 0.000000 0.000000 0.000000 0.036757
#
#
# Mechanical properties :
#
#
# Convention : Reuss Voigt Hill
#
# Bulk Modulus (GPa) = 44.74725 52.15724 48.45225
# Shear Modulus (GPa) = 25.49209 31.67496 28.58352
#
# Velocity S-wave (km/s) = 3.15652 3.51856 3.34245
# Velocity P-wave (km/s) = 5.54747 6.07394 5.81667
#
# Compressibility (1/GPa) = 0.02234774
#
# Stress axis : x y z
#
# Youngs Moduli (GPa) = 122.89974 73.17823 115.25596
#
# Poissons Ratio (x) = 0.04355 0.32631
# Poissons Ratio (y) = 0.07314 0.07364
# Poissons Ratio (z) = 0.34796 0.04676
#
# Static dielectric constant tensor:
#      x y z
#    x 4.928040 0.000000 0.000000 
#    y 0.000000 4.572180 0.000000 
#    z 0.000000 0.000000 4.822020 
# 
# 
# High freq. dielectric constant tensor:
#      x y z
#    x 2.020560 0.000000 0.000000 
#    y 0.000000 2.038280 0.000000 
#    z 0.000000 0.000000 2.024740 
# 
# From -- ./inp_files/52743.got.cif
#   From: 2010.03.12/outbox.cif.g09.slc.cpg/sg68_27_cif.got.tgz:52743.got - 2010.04.10 23:14:56.
