data_PCOD8283508
_publ_section_title
;
Structure prediction by ZEFSAII (Michael W. Deem and Ramdas Pophale) SiO2 
 PCOD8283508
Probable space group: C C C A
;
_chemical_formula_sum "Si O2"
_cell_formula_units_Z 72
_cell_length_a 7.348811
_cell_length_b 26.936875
_cell_length_c 16.045480
_cell_angle_alpha 90.000000
_cell_angle_beta 90.000000
_cell_angle_gamma 90.000000
_cell_volume 3176.267001
_symmetry_space_group_name_H-M "C C C A"
_symmetry_group_IT_number 68
_space_group.IT_coordinate_system_code '2'
_symmetry_cell_setting 'orthorhombic'
loop_
_space_group_symop_operation_xyz
x,y,z
-x,1/2-y,z
x,1/2-y,1/2-z
-x,y,1/2-z
-x,-y,-z
x,1/2+y,-z
-x,1/2+y,1/2+z
x,-y,1/2+z
1/2+x,1/2+y,z
1/2-x,-y,z
1/2+x,-y,1/2-z
1/2-x,1/2+y,1/2-z
1/2-x,1/2-y,-z
1/2+x,y,-z
1/2-x,y,1/2+z
1/2+x,1/2-y,1/2+z
loop_
_atom_site_type_symbol
_atom_site_label
_atom_site_fract_x
_atom_site_fract_y
_atom_site_fract_z
Si Si1 0.837246 0.832927 0.098204
Si Si2 0.426329 0.358829 0.913434
Si Si3 0.173014 0.052197 0.191636
Si Si4 0.296050 0.762695 0.154421
Si Si5 0.500000 0.385564 0.250000
O O1 0.632033 0.850523 0.117499
O O2 0.837457 0.772325 0.099440
O O3 0.973708 0.851077 0.169484
O O4 0.915514 0.853290 0.012242
O O5 0.374539 0.414821 0.889199
O O6 0.281521 0.321253 0.867866
O O7 0.324185 0.079797 0.245657
O O8 0.000000 0.043125 0.250000
O O9 0.250000 0.000000 0.158111
O O10 0.500000 0.750000 0.128729
O O11 0.254360 0.750000 0.250000
#
# Coordination Sequence:
#
# PCOD8283508 Si02
#       5
#    16  16  16  16   8
#     4  11  23  42  67 106 146 187 234 291 358 432
#     4  11  23  42  68 102 147 189 237 299 354 420
#     4  12  25  47  74 103 138 184 243 302 360 427
#     4   9  19  36  65 100 143 193 236 281 347 422
#     4  12  24  44  75 102 136 188 237 290 368 424
#
# _framework density 22.668119000000001
#
# number of rings (size 3 to 8) (size 9 to 14) (size 15 to 20)
#    0.000    1.111    3.333    3.333    3.111    0.000 
#    0.000   15.000    0.000    0.000    0.000    0.000 
#    0.000    0.000    0.000    0.000    0.000    0.000 
#
# Total GULP energy -446396.465825 kJ/mol
# GULP energy per Si atom -12399.901828 kJ/mol
# Density = 2.261653 g / cm^3
# Si number density = 22.668119 Si / 1000 Ang^3
#
#
#
# Elastic Constant Matrix: (Units=GPa)
#
#
# Indices 1 2 3 4 5 6 
#
# 1 98.5616 51.7532 34.8562 0.0000 0.0000 0.0000
# 2 51.7532 169.0382 68.3357 0.0000 0.0000 0.0000
# 3 34.8562 68.3357 156.7023 0.0000 0.0000 0.0000
# 4 0.0000 0.0000 0.0000 26.4218 0.0000 0.0000
# 5 0.0000 0.0000 0.0000 0.0000 29.0073 0.0000
# 6 0.0000 0.0000 0.0000 0.0000 0.0000 19.5930
#
#
#
# Elastic Compliance Matrix: (Units=1/GPa)
#
#
# Indices 1 2 3 4 5 6 
#
# 1 0.012313 -0.003233 -0.001329 0.000000 0.000000 0.000000
# 2 -0.003233 0.008031 -0.002783 0.000000 0.000000 0.000000
# 3 -0.001329 -0.002783 0.007891 0.000000 0.000000 0.000000
# 4 0.000000 0.000000 0.000000 0.037847 0.000000 0.000000
# 5 0.000000 0.000000 0.000000 0.000000 0.034474 0.000000
# 6 0.000000 0.000000 0.000000 0.000000 0.000000 0.051039
#
#
# Mechanical properties :
#
#
# Convention : Reuss Voigt Hill
#
# Bulk Modulus (GPa) = 73.82692 81.57692 77.70192
# Shear Modulus (GPa) = 29.27406 32.96156 31.11781
#
# Velocity S-wave (km/s) = 3.59753 3.81739 3.70909
# Velocity P-wave (km/s) = 7.06368 7.44954 7.25918
#
# Compressibility (1/GPa) = 0.01354519
#
# Stress axis : x y z
#
# Youngs Moduli (GPa) = 81.21245 124.52442 126.72947
#
# Poissons Ratio (x) = 0.40253 0.16846
# Poissons Ratio (y) = 0.26252 0.35269
# Poissons Ratio (z) = 0.10795 0.34655
#
# Static dielectric constant tensor:
#      x y z
#    x 4.299280 0.000000 0.000000 
#    y 0.000000 4.266400 0.000000 
#    z 0.000000 0.000000 3.697040 
# 
# 
# High freq. dielectric constant tensor:
#      x y z
#    x 1.919920 0.000000 0.000000 
#    y 0.000000 1.889380 0.000000 
#    z 0.000000 0.000000 1.876200 
# 
# From -- ./inp_files/19472.got.cif
#   From: 2010.03.12/outbox.cif.g09.slc.cpg/sg68_10_cif.got.tgz:19472.got - 2010.04.10 23:14:56.
