data_PCOD8283442
_publ_section_title
;
Structure prediction by ZEFSAII (Michael W. Deem and Ramdas Pophale) SiO2 
 PCOD8283442
Probable space group: C C C A
;
_chemical_formula_sum "Si O2"
_cell_formula_units_Z 72
_cell_length_a 4.886069
_cell_length_b 28.114670
_cell_length_c 24.131981
_cell_angle_alpha 90.000000
_cell_angle_beta 90.000000
_cell_angle_gamma 90.000000
_cell_volume 3315.015479
_symmetry_space_group_name_H-M "C C C A"
_symmetry_group_IT_number 68
_space_group.IT_coordinate_system_code '2'
_symmetry_cell_setting 'orthorhombic'
loop_
_space_group_symop_operation_xyz
x,y,z
-x,1/2-y,z
x,1/2-y,1/2-z
-x,y,1/2-z
-x,-y,-z
x,1/2+y,-z
-x,1/2+y,1/2+z
x,-y,1/2+z
1/2+x,1/2+y,z
1/2-x,-y,z
1/2+x,-y,1/2-z
1/2-x,1/2+y,1/2-z
1/2-x,1/2-y,-z
1/2+x,y,-z
1/2-x,y,1/2+z
1/2+x,1/2-y,1/2+z
loop_
_atom_site_type_symbol
_atom_site_label
_atom_site_fract_x
_atom_site_fract_y
_atom_site_fract_z
Si Si1 0.751489 0.781871 0.402702
Si Si2 0.576890 0.625994 0.037147
Si Si3 0.042710 0.648515 0.311749
Si Si4 0.750000 0.000000 0.212196
Si Si5 0.973693 0.408197 0.345710
O O1 0.500000 0.750000 0.383654
O O2 0.640963 0.819163 0.447920
O O3 0.853337 0.807752 0.347615
O O4 0.000000 0.750000 0.427679
O O5 0.592274 0.592566 0.091543
O O6 0.284958 0.613642 0.011530
O O7 0.270129 0.606515 0.307140
O O8 0.000000 0.667509 0.250000
O O9 0.766184 0.630426 0.340696
O O10 0.500000 0.019171 0.250000
O O11 0.635156 0.959318 0.172136
#
# Coordination Sequence:
#
# PCOD8283442 Si02
#       5
#    16  16  16   8  16
#     4  11  23  39  59  90 121 154 211 264 300 358
#     4  11  23  41  63  85 119 165 205 252 310 355
#     4  11  22  40  63  86 125 169 198 242 311 372
#     4  12  24  40  68 100 128 156 194 246 302 362
#     4  11  23  41  63  94 125 156 205 250 295 366
#
# _framework density 21.719353999999999
#
# number of rings (size 3 to 8) (size 9 to 14) (size 15 to 20)
#    0.000    0.889    0.000   10.667    0.000    3.111 
#    0.000    4.444    0.000    0.000    0.000    0.000 
#    0.000    0.000    0.000    0.000    0.000    0.000 
#
# Total GULP energy -446451.516013 kJ/mol
# GULP energy per Si atom -12401.431000 kJ/mol
# Density = 2.166992 g / cm^3
# Si number density = 21.719354 Si / 1000 Ang^3
#
#
#
# Elastic Constant Matrix: (Units=GPa)
#
#
# Indices 1 2 3 4 5 6 
#
# 1 80.1267 20.9026 35.9824 0.0000 0.0000 0.0000
# 2 20.9026 73.0283 37.3538 0.0000 0.0000 0.0000
# 3 35.9824 37.3538 108.3396 0.0000 0.0000 0.0000
# 4 0.0000 0.0000 0.0000 17.4217 0.0000 0.0000
# 5 0.0000 0.0000 0.0000 0.0000 41.7079 0.0000
# 6 0.0000 0.0000 0.0000 0.0000 0.0000 42.1212
#
#
#
# Elastic Compliance Matrix: (Units=1/GPa)
#
#
# Indices 1 2 3 4 5 6 
#
# 1 0.014931 -0.002109 -0.004232 0.000000 0.000000 0.000000
# 2 -0.002109 0.016923 -0.005134 0.000000 0.000000 0.000000
# 3 -0.004232 -0.005134 0.012406 0.000000 0.000000 0.000000
# 4 0.000000 0.000000 0.000000 0.057400 0.000000 0.000000
# 5 0.000000 0.000000 0.000000 0.000000 0.023976 0.000000
# 6 0.000000 0.000000 0.000000 0.000000 0.000000 0.023741
#
#
# Mechanical properties :
#
#
# Convention : Reuss Voigt Hill
#
# Bulk Modulus (GPa) = 46.92721 49.99689 48.46205
# Shear Modulus (GPa) = 27.86594 31.40055 29.63325
#
# Velocity S-wave (km/s) = 3.58579 3.80641 3.69775
# Velocity P-wave (km/s) = 6.22871 6.51060 6.37121
#
# Compressibility (1/GPa) = 0.02130960
#
# Stress axis : x y z
#
# Youngs Moduli (GPa) = 66.97589 59.09039 80.60647
#
# Poissons Ratio (x) = 0.12463 0.34110
# Poissons Ratio (y) = 0.14126 0.41386
# Poissons Ratio (z) = 0.28342 0.30339
#
# Static dielectric constant tensor:
#      x y z
#    x 4.403220 0.000000 0.000000 
#    y 0.000000 3.707170 0.000000 
#    z 0.000000 0.000000 3.786190 
# 
# 
# High freq. dielectric constant tensor:
#      x y z
#    x 1.883230 0.000000 0.000000 
#    y 0.000000 1.828390 0.000000 
#    z 0.000000 0.000000 1.857340 
# 
# From -- ./inp_files/48388.got.cif
#   From: 2010.03.12/outbox.cif.g09.slc.cpg/sg68_25_cif.got.tgz:48388.got - 2010.04.10 23:14:56.
