data_PCOD8283692
_publ_section_title
;
Structure prediction by ZEFSAII (Michael W. Deem and Ramdas Pophale) SiO2 
 PCOD8283692
Probable space group: C C C A
;
_chemical_formula_sum "Si O2"
_cell_formula_units_Z 68
_cell_length_a 8.009231
_cell_length_b 22.712703
_cell_length_c 16.724889
_cell_angle_alpha 90.000000
_cell_angle_beta 90.000000
_cell_angle_gamma 90.000000
_cell_volume 3042.446049
_symmetry_space_group_name_H-M "C C C A"
_symmetry_group_IT_number 68
_space_group.IT_coordinate_system_code '2'
_symmetry_cell_setting 'orthorhombic'
loop_
_space_group_symop_operation_xyz
x,y,z
-x,1/2-y,z
x,1/2-y,1/2-z
-x,y,1/2-z
-x,-y,-z
x,1/2+y,-z
-x,1/2+y,1/2+z
x,-y,1/2+z
1/2+x,1/2+y,z
1/2-x,-y,z
1/2+x,-y,1/2-z
1/2-x,1/2+y,1/2-z
1/2-x,1/2-y,-z
1/2+x,y,-z
1/2-x,y,1/2+z
1/2+x,1/2-y,1/2+z
loop_
_atom_site_type_symbol
_atom_site_label
_atom_site_fract_x
_atom_site_fract_y
_atom_site_fract_z
Si Si1 0.500000 0.250000 0.250000
Si Si2 0.023549 0.625387 0.463377
Si Si3 0.301498 0.433192 0.603964
Si Si4 0.000000 0.612932 0.750000
Si Si5 0.500000 0.750000 0.456629
Si Si6 0.743811 0.184091 0.856159
O O1 0.607198 0.293146 0.196803
O O2 0.055351 0.582837 0.539007
O O3 0.011437 0.693080 0.488739
O O4 0.189317 0.628370 0.408470
O O5 0.861805 0.606746 0.412152
O O6 0.250000 0.500000 0.592258
O O7 0.375811 0.425554 0.693742
O O8 0.096785 0.657080 0.805843
O O9 0.332934 0.740034 0.403917
#
# Coordination Sequence:
#
# PCOD8283692 Si02
#       6
#     4  16  16   8   8  16
#     4  12  26  38  66 114 152 202 224 292 378 448
#     4  12  25  46  74 111 139 194 242 304 367 432
#     4  12  27  49  76 104 147 191 254 307 361 435
#     4  12  26  49  67 108 144 200 238 306 370 436
#     4  12  23  43  74 106 148 182 236 302 361 443
#     4  12  25  42  70 105 156 185 241 291 372 446
#
# _framework density 22.350436999999999
#
# number of rings (size 3 to 8) (size 9 to 14) (size 15 to 20)
#    0.000    0.000    4.706    4.941    3.294    1.882 
#    0.000    1.176    0.000    0.000    0.000    0.000 
#    0.000    0.000    0.000    0.000    0.000    0.000 
#
# Total GULP energy -421569.267465 kJ/mol
# GULP energy per Si atom -12399.096102 kJ/mol
# Density = 2.229957 g / cm^3
# Si number density = 22.350437 Si / 1000 Ang^3
#
#
#
# Elastic Constant Matrix: (Units=GPa)
#
#
# Indices 1 2 3 4 5 6 
#
# 1 128.1289 46.6152 53.5787 0.0000 0.0000 0.0000
# 2 46.6152 138.2963 52.4970 0.0000 0.0000 0.0000
# 3 53.5787 52.4970 117.3617 0.0000 0.0000 0.0000
# 4 0.0000 0.0000 0.0000 11.4511 0.0000 0.0000
# 5 0.0000 0.0000 0.0000 0.0000 40.4251 0.0000
# 6 0.0000 0.0000 0.0000 0.0000 0.0000 19.5426
#
#
#
# Elastic Compliance Matrix: (Units=1/GPa)
#
#
# Indices 1 2 3 4 5 6 
#
# 1 0.010081 -0.001989 -0.003713 0.000000 0.000000 0.000000
# 2 -0.001989 0.009102 -0.003164 0.000000 0.000000 0.000000
# 3 -0.003713 -0.003164 0.011631 0.000000 0.000000 0.000000
# 4 0.000000 0.000000 0.000000 0.087328 0.000000 0.000000
# 5 0.000000 0.000000 0.000000 0.000000 0.024737 0.000000
# 6 0.000000 0.000000 0.000000 0.000000 0.000000 0.051170
#
#
# Mechanical properties :
#
#
# Convention : Reuss Voigt Hill
#
# Bulk Modulus (GPa) = 76.43011 76.57428 76.50220
# Shear Modulus (GPa) = 23.13323 29.69016 26.41169
#
# Velocity S-wave (km/s) = 3.22067 3.64867 3.44133
# Velocity P-wave (km/s) = 6.93547 7.21703 7.07765
#
# Compressibility (1/GPa) = 0.01308385
#
# Stress axis : x y z
#
# Youngs Moduli (GPa) = 99.20088 109.86570 85.97969
#
# Poissons Ratio (x) = 0.21847 0.31920
# Poissons Ratio (y) = 0.19727 0.27200
# Poissons Ratio (z) = 0.36829 0.34757
#
# Static dielectric constant tensor:
#      x y z
#    x 4.638010 0.000000 0.000000 
#    y 0.000000 3.903130 0.000000 
#    z 0.000000 0.000000 4.660560 
# 
# 
# High freq. dielectric constant tensor:
#      x y z
#    x 1.905130 0.000000 0.000000 
#    y 0.000000 1.864160 0.000000 
#    z 0.000000 0.000000 1.897470 
# 
# From -- ./inp_files/28020.got.cif
#   From: 2010.03.12/outbox.cif.g09.slc.cpg/sg68_15_cif.got.tgz:28020.got - 2010.04.10 23:14:56.
