data_PCOD8283728
_publ_section_title
;
Structure prediction by ZEFSAII (Michael W. Deem and Ramdas Pophale) SiO2 
 PCOD8283728
Probable space group: C C C A
;
_chemical_formula_sum "Si O2"
_cell_formula_units_Z 56
_cell_length_a 20.319859
_cell_length_b 5.055670
_cell_length_c 22.276880
_cell_angle_alpha 90.000000
_cell_angle_beta 90.000000
_cell_angle_gamma 90.000000
_cell_volume 2288.515055
_symmetry_space_group_name_H-M "C C C A"
_symmetry_group_IT_number 68
_space_group.IT_coordinate_system_code '2'
_symmetry_cell_setting 'orthorhombic'
loop_
_space_group_symop_operation_xyz
x,y,z
-x,1/2-y,z
x,1/2-y,1/2-z
-x,y,1/2-z
-x,-y,-z
x,1/2+y,-z
-x,1/2+y,1/2+z
x,-y,1/2+z
1/2+x,1/2+y,z
1/2-x,-y,z
1/2+x,-y,1/2-z
1/2-x,1/2+y,1/2-z
1/2-x,1/2-y,-z
1/2+x,y,-z
1/2-x,y,1/2+z
1/2+x,1/2-y,1/2+z
loop_
_atom_site_type_symbol
_atom_site_label
_atom_site_fract_x
_atom_site_fract_y
_atom_site_fract_z
Si Si1 0.955284 0.996498 0.837556
Si Si2 0.890472 0.471418 0.536175
Si Si3 0.856309 0.750000 0.250000
Si Si4 0.750000 0.000000 0.915179
Si Si5 0.250000 0.000000 0.833184
O O1 0.899636 0.045043 0.787994
O O2 0.000000 0.250000 0.842302
O O3 0.921951 0.944606 0.901284
O O4 0.000000 0.750000 0.817938
O O5 0.913752 0.185209 0.513168
O O6 0.811778 0.452172 0.541885
O O7 0.812962 0.563843 0.292602
O O8 0.767297 0.750215 0.873781
#
# Coordination Sequence:
#
# PCOD8283728 Si02
#       5
#    16  16   8   8   8
#     4  12  30  51  76 111 155 209 260 311 376 461
#     4  12  26  49  79 110 150 197 258 321 386 457
#     4  12  29  52  80 120 155 206 260 324 398 464
#     4  12  25  49  76 116 156 191 255 322 404 456
#     4  12  27  47  82 112 156 197 245 332 392 470
#
# _framework density 24.470016999999999
#
# number of rings (size 3 to 8) (size 9 to 14) (size 15 to 20)
#    0.000    0.000    2.857    5.571    4.000    8.000 
#    0.000    0.000    0.000    0.000    0.000    0.000 
#    0.000    0.000    0.000    0.000    0.000    0.000 
#
# Total GULP energy -347454.261405 kJ/mol
# GULP energy per Si atom -12409.080764 kJ/mol
# Density = 2.441432 g / cm^3
# Si number density = 24.470017 Si / 1000 Ang^3
#
#
#
# Elastic Constant Matrix: (Units=GPa)
#
#
# Indices 1 2 3 4 5 6 
#
# 1 104.4085 36.7631 26.8973 0.0000 0.0000 0.0000
# 2 36.7631 169.2230 41.8882 0.0000 0.0000 0.0000
# 3 26.8973 41.8882 113.1905 0.0000 0.0000 0.0000
# 4 0.0000 0.0000 0.0000 16.8968 0.0000 0.0000
# 5 0.0000 0.0000 0.0000 0.0000 51.7525 0.0000
# 6 0.0000 0.0000 0.0000 0.0000 0.0000 31.3607
#
#
#
# Elastic Compliance Matrix: (Units=1/GPa)
#
#
# Indices 1 2 3 4 5 6 
#
# 1 0.010713 -0.001868 -0.001854 0.000000 0.000000 0.000000
# 2 -0.001868 0.006831 -0.002084 0.000000 0.000000 0.000000
# 3 -0.001854 -0.002084 0.010047 0.000000 0.000000 0.000000
# 4 0.000000 0.000000 0.000000 0.059183 0.000000 0.000000
# 5 0.000000 0.000000 0.000000 0.000000 0.019323 0.000000
# 6 0.000000 0.000000 0.000000 0.000000 0.000000 0.031887
#
#
# Mechanical properties :
#
#
# Convention : Reuss Voigt Hill
#
# Bulk Modulus (GPa) = 62.58810 66.43545 64.51178
# Shear Modulus (GPa) = 32.27407 38.75355 35.51381
#
# Velocity S-wave (km/s) = 3.63564 3.98391 3.81375
# Velocity P-wave (km/s) = 6.57699 6.95491 6.76859
#
# Compressibility (1/GPa) = 0.01597748
#
# Stress axis : x y z
#
# Youngs Moduli (GPa) = 93.34138 146.38875 99.53682
#
# Poissons Ratio (x) = 0.27352 0.18458
# Poissons Ratio (y) = 0.17440 0.20743
# Poissons Ratio (z) = 0.17309 0.30507
#
# Static dielectric constant tensor:
#      x y z
#    x 4.633000 0.000000 0.000000 
#    y 0.000000 4.376740 0.000000 
#    z 0.000000 0.000000 4.632830 
# 
# 
# High freq. dielectric constant tensor:
#      x y z
#    x 1.984540 0.000000 0.000000 
#    y 0.000000 1.987100 0.000000 
#    z 0.000000 0.000000 1.989090 
# 
# From -- ./inp_files/46300.got.cif
#   From: 2010.03.12/outbox.cif.g09.slc.cpg/sg68_24_cif.got.tgz:46300.got - 2010.04.10 23:14:56.
