data_PCOD8283829
_publ_section_title
;
Structure prediction by ZEFSAII (Michael W. Deem and Ramdas Pophale) SiO2 
 PCOD8283829
Probable space group: F M M M
;
_chemical_formula_sum "Si O2"
_cell_formula_units_Z 192
_cell_length_a 22.481604
_cell_length_b 15.004519
_cell_length_c 25.434014
_cell_angle_alpha 90.000000
_cell_angle_beta 90.000000
_cell_angle_gamma 90.000000
_cell_volume 8579.545416
_symmetry_space_group_name_H-M "F M M M"
_symmetry_group_IT_number 69
_symmetry_cell_setting 'orthorhombic'
loop_
_space_group_symop_operation_xyz
x,y,z
-x,-y,z
x,-y,-z
-x,y,-z
-x,-y,-z
x,y,-z
-x,y,z
x,-y,z
x,1/2+y,1/2+z
-x,1/2-y,1/2+z
x,1/2-y,1/2-z
-x,1/2+y,1/2-z
-x,1/2-y,1/2-z
x,1/2+y,1/2-z
-x,1/2+y,1/2+z
x,1/2-y,1/2+z
1/2+x,y,1/2+z
1/2-x,-y,1/2+z
1/2+x,-y,1/2-z
1/2-x,y,1/2-z
1/2-x,-y,1/2-z
1/2+x,y,1/2-z
1/2-x,y,1/2+z
1/2+x,-y,1/2+z
1/2+x,1/2+y,z
1/2-x,1/2-y,z
1/2+x,1/2-y,-z
1/2-x,1/2+y,-z
1/2-x,1/2-y,-z
1/2+x,1/2+y,-z
1/2-x,1/2+y,z
1/2+x,1/2-y,z
loop_
_atom_site_type_symbol
_atom_site_label
_atom_site_fract_x
_atom_site_fract_y
_atom_site_fract_z
Si Si1 0.625959 0.355030 0.745906
Si Si2 0.433504 0.606006 0.059418
Si Si3 0.793062 0.104826 0.648353
Si Si4 0.000000 0.159488 0.283423
Si Si5 0.875557 0.894535 0.442466
Si Si6 0.837704 0.399221 0.640103
Si Si7 0.000000 0.394644 0.896714
O O1 0.622613 0.250000 0.750000
O O2 0.678016 0.377882 0.705031
O O3 0.561214 0.393603 0.729020
O O4 0.637824 0.400059 0.801227
O O5 0.500000 0.641633 0.073454
O O6 0.434243 0.500000 0.064448
O O7 0.384509 0.647789 0.099774
O O8 0.416297 0.634474 0.000000
O O9 0.833549 0.147647 0.602449
O O10 0.727190 0.148468 0.642062
O O11 0.786998 0.000000 0.641364
O O12 0.000000 0.250000 0.250000
O O13 0.000000 0.170325 0.346301
O O14 0.857765 0.856943 0.500000
O O15 0.943441 0.868734 0.431518
O O16 0.868247 0.000000 0.441628
O O17 0.829902 0.500000 0.620475
O O18 0.000000 0.500000 0.880678
#
# Coordination Sequence:
#
# PCOD8283829 Si02
#       7
#    32  32  32  16  32  32  16
#     4  11  23  38  55  76 105 142 182 220 271 321
#     4   8  15  30  52  79 109 137 170 218 271 316
#     4  10  20  35  53  78 113 144 174 219 265 310
#     4  10  22  37  53  78 106 140 181 229 270 314
#     4   9  17  29  49  79 111 142 177 216 261 316
#     4  10  21  34  54  83 109 138 179 221 261 318
#     4  10  17  30  54  81 111 142 179 223 268 315
#
# _framework density 22.378807999999999
#
# number of rings (size 3 to 8) (size 9 to 14) (size 15 to 20)
#    0.000    2.333    1.667    1.750    1.167    5.000 
#    0.000    3.333    0.000    1.000    0.000    2.333 
#    0.000    0.000    0.000    0.000    0.000    0.333 
#
# Total GULP energy -594852.751907 kJ/mol
# GULP energy per Si atom -12392.765665 kJ/mol
# Density = 2.232787 g / cm^3
# Si number density = 22.378808 Si / 1000 Ang^3
#
#
#
# Elastic Constant Matrix: (Units=GPa)
#
#
# Indices 1 2 3 4 5 6 
#
# 1 216.7741 0.6235 99.6618 0.0000 0.0000 0.0000
# 2 0.6235 11.4857 -5.9931 0.0000 0.0000 0.0000
# 3 99.6618 -5.9931 189.9124 0.0000 0.0000 0.0000
# 4 0.0000 0.0000 0.0000 0.3094 0.0000 0.0000
# 5 0.0000 0.0000 0.0000 0.0000 35.4993 0.0000
# 6 0.0000 0.0000 0.0000 0.0000 0.0000 13.8964
#
#
#
# Elastic Compliance Matrix: (Units=1/GPa)
#
#
# Indices 1 2 3 4 5 6 
#
# 1 0.006127 -0.002044 -0.003280 0.000000 0.000000 0.000000
# 2 -0.002044 0.089204 0.003888 0.000000 0.000000 0.000000
# 3 -0.003280 0.003888 0.007109 0.000000 0.000000 0.000000
# 4 0.000000 0.000000 0.000000 3.231588 0.000000 0.000000
# 5 0.000000 0.000000 0.000000 0.000000 0.028170 0.000000
# 6 0.000000 0.000000 0.000000 0.000000 0.000000 0.071961
#
#
# Mechanical properties :
#
#
# Convention : Reuss Voigt Hill
#
# Bulk Modulus (GPa) = 10.04332 67.41740 38.73036
# Shear Modulus (GPa) = 1.44083 31.53304 16.48693
#
# Velocity S-wave (km/s) = 0.80327 3.75781 2.71720
# Velocity P-wave (km/s) = 2.31472 7.00137 5.21426
#
# Compressibility (1/GPa) = 0.09956867
#
# Stress axis : x y z
#
# Youngs Moduli (GPa) = 163.21661 11.21020 140.65894
#
# Poissons Ratio (x) = 0.02291 0.46132
# Poissons Ratio (y) = 0.33360 -0.54684
# Poissons Ratio (z) = 0.53531 -0.04358
#
# Static dielectric constant tensor:
#      x y z
#    x 4.806110 0.000000 0.000000 
#    y 0.000000 3.425750 0.000000 
#    z 0.000000 0.000000 3.990180 
# 
# 
# High freq. dielectric constant tensor:
#      x y z
#    x 1.899050 0.000000 0.000000 
#    y 0.000000 1.835030 0.000000 
#    z 0.000000 0.000000 1.886730 
# 
# From -- ./inp_files/37369.got.cif
#   From: 2010.03.12/outbox.cif.g09.slc.cpg/sg69_19_cif.got.tgz:37369.got - 2010.04.10 23:52:46.
