data_PCOD8283213
_publ_section_title
;
Structure prediction by ZEFSAII (Michael W. Deem and Ramdas Pophale) SiO2 
 PCOD8283213
Probable space group: C C C A
;
_chemical_formula_sum "Si O2"
_cell_formula_units_Z 104
_cell_length_a 8.826156
_cell_length_b 19.839986
_cell_length_c 28.080705
_cell_angle_alpha 90.000000
_cell_angle_beta 90.000000
_cell_angle_gamma 90.000000
_cell_volume 4917.235039
_symmetry_space_group_name_H-M "C C C A"
_symmetry_group_IT_number 68
_space_group.IT_coordinate_system_code '2'
_symmetry_cell_setting 'orthorhombic'
loop_
_space_group_symop_operation_xyz
x,y,z
-x,1/2-y,z
x,1/2-y,1/2-z
-x,y,1/2-z
-x,-y,-z
x,1/2+y,-z
-x,1/2+y,1/2+z
x,-y,1/2+z
1/2+x,1/2+y,z
1/2-x,-y,z
1/2+x,-y,1/2-z
1/2-x,1/2+y,1/2-z
1/2-x,1/2-y,-z
1/2+x,y,-z
1/2-x,y,1/2+z
1/2+x,1/2-y,1/2+z
loop_
_atom_site_type_symbol
_atom_site_label
_atom_site_fract_x
_atom_site_fract_y
_atom_site_fract_z
Si Si1 0.337752 0.817979 0.772589
Si Si2 0.232739 0.213055 0.369690
Si Si3 0.136025 0.705053 0.031337
Si Si4 0.250000 0.500000 0.504847
Si Si5 0.918570 0.848247 0.864370
Si Si6 0.155634 0.566805 0.773810
Si Si7 0.508355 0.911544 0.463825
O O1 0.264603 0.750000 0.750000
O O2 0.500000 0.831692 0.750000
O O3 0.356037 0.807221 0.829655
O O4 0.233294 0.881595 0.762461
O O5 0.274034 0.180641 0.421258
O O6 0.214483 0.293939 0.374565
O O7 0.074464 0.186382 0.348543
O O8 0.000000 0.750000 0.051222
O O9 0.250000 0.750000 0.000000
O O10 0.053590 0.645286 0.002502
O O11 0.383119 0.525267 0.471184
O O12 0.331728 0.437850 0.533725
O O13 0.862520 0.900023 0.825163
O O14 0.956991 0.886955 0.911938
O O15 0.250000 0.500000 0.781544
O O16 0.000000 0.544300 0.750000
#
# Coordination Sequence:
#
# PCOD8283213 Si02
#       7
#    16  16  16   8  16  16  16
#     4  11  24  44  70 101 140 175 233 292 346 422
#     4  11  23  41  70 108 132 181 225 282 363 425
#     4  12  24  40  69 105 146 174 224 297 360 410
#     4  10  24  44  64  86 134 192 234 272 326 412
#     4  11  23  41  73 100 137 172 232 283 356 423
#     4  12  26  48  70 101 137 184 230 293 354 422
#     4  11  23  44  64  96 135 182 232 280 340 411
#
# _framework density 21.150096999999999
#
# number of rings (size 3 to 8) (size 9 to 14) (size 15 to 20)
#    0.000    0.769    4.615    3.231    3.231    0.308 
#    1.385    1.538    0.000    0.000    0.000    0.000 
#    0.000    0.000    0.000    0.000    0.000    0.000 
#
# Total GULP energy -644630.922975 kJ/mol
# GULP energy per Si atom -12396.748519 kJ/mol
# Density = 2.110196 g / cm^3
# Si number density = 21.150097 Si / 1000 Ang^3
#
#
#
# Elastic Constant Matrix: (Units=GPa)
#
#
# Indices 1 2 3 4 5 6 
#
# 1 105.0973 43.4515 42.0204 0.0000 0.0000 0.0000
# 2 43.4515 118.3288 50.6447 0.0000 0.0000 0.0000
# 3 42.0204 50.6447 158.6626 0.0000 0.0000 0.0000
# 4 0.0000 0.0000 0.0000 11.4011 0.0000 0.0000
# 5 0.0000 0.0000 0.0000 0.0000 30.5560 0.0000
# 6 0.0000 0.0000 0.0000 0.0000 0.0000 45.3408
#
#
#
# Elastic Compliance Matrix: (Units=1/GPa)
#
#
# Indices 1 2 3 4 5 6 
#
# 1 0.011746 -0.003454 -0.002008 0.000000 0.000000 0.000000
# 2 -0.003454 0.010804 -0.002534 0.000000 0.000000 0.000000
# 3 -0.002008 -0.002534 0.007643 0.000000 0.000000 0.000000
# 4 0.000000 0.000000 0.000000 0.087711 0.000000 0.000000
# 5 0.000000 0.000000 0.000000 0.000000 0.032727 0.000000
# 6 0.000000 0.000000 0.000000 0.000000 0.000000 0.022055
#
#
# Mechanical properties :
#
#
# Convention : Reuss Voigt Hill
#
# Bulk Modulus (GPa) = 70.41642 72.70242 71.55942
# Shear Modulus (GPa) = 25.85164 33.85771 29.85468
#
# Velocity S-wave (km/s) = 3.49993 4.00538 3.76115
# Velocity P-wave (km/s) = 7.04972 7.47261 7.26424
#
# Compressibility (1/GPa) = 0.01420123
#
# Stress axis : x y z
#
# Youngs Moduli (GPa) = 85.13641 92.56076 130.83191
#
# Poissons Ratio (x) = 0.31967 0.26276
# Poissons Ratio (y) = 0.29403 0.33151
# Poissons Ratio (z) = 0.17099 0.23454
#
# Static dielectric constant tensor:
#      x y z
#    x 4.075740 0.000000 0.000000 
#    y 0.000000 4.170040 0.000000 
#    z 0.000000 0.000000 3.737660 
# 
# 
# High freq. dielectric constant tensor:
#      x y z
#    x 1.839290 0.000000 0.000000 
#    y 0.000000 1.832290 0.000000 
#    z 0.000000 0.000000 1.827830 
# 
# From -- ./inp_files/49430.got.cif
#   From: 2010.03.12/outbox.cif.g09.slc.cpg/sg68_25_cif.got.tgz:49430.got - 2010.04.10 23:14:56.
