data_PCOD8283155
_publ_section_title
;
Structure prediction by ZEFSAII (Michael W. Deem and Ramdas Pophale) SiO2 
 PCOD8283155
Probable space group: C C C A
;
_chemical_formula_sum "Si O2"
_cell_formula_units_Z 96
_cell_length_a 17.535385
_cell_length_b 10.694601
_cell_length_c 23.941199
_cell_angle_alpha 90.000000
_cell_angle_beta 90.000000
_cell_angle_gamma 90.000000
_cell_volume 4489.787519
_symmetry_space_group_name_H-M "C C C A"
_symmetry_group_IT_number 68
_space_group.IT_coordinate_system_code '2'
_symmetry_cell_setting 'orthorhombic'
loop_
_space_group_symop_operation_xyz
x,y,z
-x,1/2-y,z
x,1/2-y,1/2-z
-x,y,1/2-z
-x,-y,-z
x,1/2+y,-z
-x,1/2+y,1/2+z
x,-y,1/2+z
1/2+x,1/2+y,z
1/2-x,-y,z
1/2+x,-y,1/2-z
1/2-x,1/2+y,1/2-z
1/2-x,1/2-y,-z
1/2+x,y,-z
1/2-x,y,1/2+z
1/2+x,1/2-y,1/2+z
loop_
_atom_site_type_symbol
_atom_site_label
_atom_site_fract_x
_atom_site_fract_y
_atom_site_fract_z
Si Si1 0.950305 0.362864 0.388688
Si Si2 0.580426 0.107353 0.265995
Si Si3 0.336126 0.304306 0.944590
Si Si4 0.666137 0.225294 0.069729
Si Si5 0.588761 0.465722 0.106572
Si Si6 0.663557 0.029373 0.163954
O O1 0.900489 0.304382 0.439216
O O2 0.889310 0.408119 0.343496
O O3 0.000000 0.250000 0.361860
O O4 0.003977 0.480231 0.407196
O O5 0.569527 0.250000 0.250000
O O6 0.500000 0.039799 0.250000
O O7 0.651739 0.065057 0.228256
O O8 0.599255 0.077546 0.329653
O O9 0.254432 0.260374 0.922143
O O10 0.352202 0.424478 0.906676
O O11 0.338350 0.343169 0.009735
O O12 0.610010 0.345558 0.069255
O O13 0.638064 0.134910 0.119343
O O14 0.750000 0.000000 0.151646
#
# Coordination Sequence:
#
# PCOD8283155 Si02
#       6
#    16  16  16  16  16  16
#     4  10  23  45  65  98 139 177 222 282 347 410
#     4  11  23  44  68  98 133 178 232 288 351 402
#     4  10  24  44  66 101 144 181 223 287 350 417
#     4  11  24  41  71 101 136 184 229 282 350 410
#     4  11  23  44  69  97 138 180 231 283 343 417
#     4  12  24  43  71 101 137 179 233 286 338 417
#
# _framework density 21.381858999999999
#
# number of rings (size 3 to 8) (size 9 to 14) (size 15 to 20)
#    0.000    1.167    5.000    0.500    2.333    2.667 
#    6.000    5.833    0.000    0.000    0.000    0.000 
#    0.000    0.000    0.000    0.000    0.000    0.000 
#
# Total GULP energy -594891.117844 kJ/mol
# GULP energy per Si atom -12393.564955 kJ/mol
# Density = 2.133319 g / cm^3
# Si number density = 21.381859 Si / 1000 Ang^3
#
#
#
# Elastic Constant Matrix: (Units=GPa)
#
#
# Indices 1 2 3 4 5 6 
#
# 1 118.6177 58.2065 23.2750 0.0000 0.0000 0.0000
# 2 58.2065 95.7542 36.1269 0.0000 0.0000 0.0000
# 3 23.2750 36.1269 108.9140 0.0000 0.0000 0.0000
# 4 0.0000 0.0000 0.0000 34.0584 0.0000 0.0000
# 5 0.0000 0.0000 0.0000 0.0000 -11.8720 0.0000
# 6 0.0000 0.0000 0.0000 0.0000 0.0000 33.9157
#
#
#
# Elastic Compliance Matrix: (Units=1/GPa)
#
#
# Indices 1 2 3 4 5 6 
#
# 1 0.012017 -0.007242 -0.000166 0.000000 0.000000 0.000000
# 2 -0.007242 0.016302 -0.003860 0.000000 0.000000 0.000000
# 3 -0.000166 -0.003860 0.010497 0.000000 0.000000 0.000000
# 4 0.000000 0.000000 0.000000 0.029361 0.000000 0.000000
# 5 0.000000 0.000000 0.000000 0.000000 -0.084232 0.000000
# 6 0.000000 0.000000 0.000000 0.000000 0.000000 0.029485
#
#
# Mechanical properties :
#
#
# Convention : Reuss Voigt Hill
#
# Bulk Modulus (GPa) = 61.42240 62.05583 61.73911
# Shear Modulus (GPa) = 120.79468 24.93225 72.86346
#
# Velocity S-wave (km/s) = 7.52440 3.41845 5.84390
# Velocity P-wave (km/s) = 10.21164 6.68332 8.62973
#
# Compressibility (1/GPa) = 0.01628071
#
# Stress axis : x y z
#
# Youngs Moduli (GPa) = 83.21737 61.34244 95.26297
#
# Poissons Ratio (x) = 0.44425 0.01579
# Poissons Ratio (y) = 0.60267 0.36769
# Poissons Ratio (z) = 0.01379 0.23677
#
# Static dielectric constant tensor:
#      x y z
#    x 4.224180 0.000000 0.000000 
#    y 0.000000 3.932230 0.000000 
#    z 0.000000 0.000000 3.628830 
# 
# 
# High freq. dielectric constant tensor:
#      x y z
#    x 1.853640 0.000000 0.000000 
#    y 0.000000 1.838440 0.000000 
#    z 0.000000 0.000000 1.822870 
# 
# From -- ./inp_files/45988.got.cif
#   From: 2010.03.12/outbox.cif.g09.slc.cpg/sg68_23_cif.got.tgz:45988.got - 2010.04.10 23:14:56.
