data_PCOD8283859
_publ_section_title
;
Structure prediction by ZEFSAII (Michael W. Deem and Ramdas Pophale) SiO2 
 PCOD8283859
Probable space group: F M M M
;
_chemical_formula_sum "Si O2"
_cell_formula_units_Z 144
_cell_length_a 16.645884
_cell_length_b 23.145388
_cell_length_c 22.802050
_cell_angle_alpha 90.000000
_cell_angle_beta 90.000000
_cell_angle_gamma 90.000000
_cell_volume 8785.069933
_symmetry_space_group_name_H-M "F M M M"
_symmetry_group_IT_number 69
_symmetry_cell_setting 'orthorhombic'
loop_
_space_group_symop_operation_xyz
x,y,z
-x,-y,z
x,-y,-z
-x,y,-z
-x,-y,-z
x,y,-z
-x,y,z
x,-y,z
x,1/2+y,1/2+z
-x,1/2-y,1/2+z
x,1/2-y,1/2-z
-x,1/2+y,1/2-z
-x,1/2-y,1/2-z
x,1/2+y,1/2-z
-x,1/2+y,1/2+z
x,1/2-y,1/2+z
1/2+x,y,1/2+z
1/2-x,-y,1/2+z
1/2+x,-y,1/2-z
1/2-x,y,1/2-z
1/2-x,-y,1/2-z
1/2+x,y,1/2-z
1/2-x,y,1/2+z
1/2+x,-y,1/2+z
1/2+x,1/2+y,z
1/2-x,1/2-y,z
1/2+x,1/2-y,-z
1/2-x,1/2+y,-z
1/2-x,1/2-y,-z
1/2+x,1/2+y,-z
1/2-x,1/2+y,z
1/2+x,1/2-y,z
loop_
_atom_site_type_symbol
_atom_site_label
_atom_site_fract_x
_atom_site_fract_y
_atom_site_fract_z
Si Si1 0.878713 0.867488 0.145468
Si Si2 0.210899 0.144794 0.312870
Si Si3 0.000000 0.066668 0.930721
Si Si4 0.410932 0.758745 0.181244
Si Si5 0.089030 0.435052 0.238330
O O1 0.781776 0.871846 0.141890
O O2 0.919757 0.900814 0.091586
O O3 0.902604 0.800316 0.145181
O O4 0.912234 0.895651 0.204451
O O5 0.250000 0.162067 0.250000
O O6 0.158442 0.197213 0.339331
O O7 0.153686 0.089027 0.307614
O O8 0.000000 0.000000 0.908908
O O9 0.000000 0.069853 0.000000
O O10 0.500000 0.784559 0.169201
O O11 0.398917 0.750000 0.250000
O O12 0.113794 0.500000 0.255439
O O13 0.000000 0.433171 0.210225
#
# Coordination Sequence:
#
# PCOD8283859 Si02
#       5
#    32  32  16  32  32
#     4  11  20  32  48  73  97 130 171 218 251 297
#     4  10  20  27  44  71 107 136 169 196 243 308
#     4  11  24  42  59  72  92 132 184 229 264 297
#     4  11  18  28  46  71 107 140 171 194 241 310
#     4  10  18  28  42  65 104 141 166 196 240 302
#
# _framework density 16.391446999999999
#
# number of rings (size 3 to 8) (size 9 to 14) (size 15 to 20)
#    0.000    1.444    6.667    2.000    0.000    4.889 
#    0.000    0.000    0.000    2.667    0.000    0.000 
#    0.000    0.000    0.000    8.667    0.000    0.000 
#
# Total GULP energy -446271.682295 kJ/mol
# GULP energy per Si atom -12396.435619 kJ/mol
# Density = 1.635414 g / cm^3
# Si number density = 16.391447 Si / 1000 Ang^3
#
#
#
# Elastic Constant Matrix: (Units=GPa)
#
#
# Indices 1 2 3 4 5 6 
#
# 1 153.7817 61.3503 28.5623 0.0000 0.0000 0.0000
# 2 61.3503 116.0392 21.5140 0.0000 0.0000 0.0000
# 3 28.5623 21.5140 33.2457 0.0000 0.0000 0.0000
# 4 0.0000 0.0000 0.0000 13.8035 0.0000 0.0000
# 5 0.0000 0.0000 0.0000 0.0000 13.5092 0.0000
# 6 0.0000 0.0000 0.0000 0.0000 0.0000 16.3519
#
#
#
# Elastic Compliance Matrix: (Units=1/GPa)
#
#
# Indices 1 2 3 4 5 6 
#
# 1 0.008989 -0.003773 -0.005281 0.000000 0.000000 0.000000
# 2 -0.003773 0.011377 -0.004120 0.000000 0.000000 0.000000
# 3 -0.005281 -0.004120 0.037282 0.000000 0.000000 0.000000
# 4 0.000000 0.000000 0.000000 0.072446 0.000000 0.000000
# 5 0.000000 0.000000 0.000000 0.000000 0.074024 0.000000
# 6 0.000000 0.000000 0.000000 0.000000 0.000000 0.061155
#
#
# Mechanical properties :
#
#
# Convention : Reuss Voigt Hill
#
# Bulk Modulus (GPa) = 31.94996 58.43553 45.19275
# Shear Modulus (GPa) = 16.55334 21.50892 19.03113
#
# Velocity S-wave (km/s) = 3.18130 3.62637 3.41110
# Velocity P-wave (km/s) = 5.74704 7.29804 6.56848
#
# Compressibility (1/GPa) = 0.03129894
#
# Stress axis : x y z
#
# Youngs Moduli (GPa) = 111.24821 87.89906 26.82246
#
# Poissons Ratio (x) = 0.33168 0.14164
# Poissons Ratio (y) = 0.41978 0.11052
# Poissons Ratio (z) = 0.58748 0.36217
#
# Static dielectric constant tensor:
#      x y z
#    x 3.646910 0.000000 0.000000 
#    y 0.000000 3.392050 0.000000 
#    z 0.000000 0.000000 2.417780 
# 
# 
# High freq. dielectric constant tensor:
#      x y z
#    x 1.660010 0.000000 0.000000 
#    y 0.000000 1.647100 0.000000 
#    z 0.000000 0.000000 1.534110 
# 
# From -- ./inp_files/24778.got.cif
#   From: 2010.03.12/outbox.cif.g09.slc.cpg/sg69_13_cif.got.tgz:24778.got - 2010.04.10 23:52:46.
