data_PCOD8283285
_publ_section_title
;
Structure prediction by ZEFSAII (Michael W. Deem and Ramdas Pophale) SiO2 
 PCOD8283285
Probable space group: C C C A
;
_chemical_formula_sum "Si O2"
_cell_formula_units_Z 80
_cell_length_a 29.301570
_cell_length_b 12.278632
_cell_length_c 10.870554
_cell_angle_alpha 90.000000
_cell_angle_beta 90.000000
_cell_angle_gamma 90.000000
_cell_volume 3911.042650
_symmetry_space_group_name_H-M "C C C A"
_symmetry_group_IT_number 68
_space_group.IT_coordinate_system_code '2'
_symmetry_cell_setting 'orthorhombic'
loop_
_space_group_symop_operation_xyz
x,y,z
-x,1/2-y,z
x,1/2-y,1/2-z
-x,y,1/2-z
-x,-y,-z
x,1/2+y,-z
-x,1/2+y,1/2+z
x,-y,1/2+z
1/2+x,1/2+y,z
1/2-x,-y,z
1/2+x,-y,1/2-z
1/2-x,1/2+y,1/2-z
1/2-x,1/2-y,-z
1/2+x,y,-z
1/2-x,y,1/2+z
1/2+x,1/2-y,1/2+z
loop_
_atom_site_type_symbol
_atom_site_label
_atom_site_fract_x
_atom_site_fract_y
_atom_site_fract_z
Si Si1 0.792299 0.646046 0.822503
Si Si2 0.004681 0.421687 0.386125
Si Si3 0.661632 0.780875 0.947442
Si Si4 0.923694 0.250756 0.385025
Si Si5 0.687905 0.906079 0.712447
O O1 0.812509 0.750000 0.750000
O O2 0.741074 0.624189 0.779195
O O3 0.820953 0.535390 0.796307
O O4 0.797217 0.675710 0.966214
O O5 0.054422 0.367871 0.406810
O O6 0.000000 0.478375 0.250000
O O7 0.000000 0.500000 0.500000
O O8 0.964747 0.334669 0.391284
O O9 0.661056 0.860405 0.830158
O O10 0.669433 0.655127 0.908991
O O11 0.613340 0.785827 0.014906
O O12 0.900494 0.250000 0.250000
#
# Coordination Sequence:
#
# PCOD8283285 Si02
#       5
#    16  16  16  16  16
#     4  11  23  40  65  85 121 177 219 258 340 375
#     4   9  19  41  66  94 127 164 208 255 320 395
#     4  11  22  42  60  92 131 161 220 273 319 382
#     4   9  20  41  65  90 124 165 206 255 321 391
#     4  10  25  40  61  93 124 171 217 282 314 384
#
# _framework density 20.454903000000002
#
# number of rings (size 3 to 8) (size 9 to 14) (size 15 to 20)
#    0.000    2.000    2.000    2.400    2.800    3.200 
#   14.400    1.000    0.000    0.000    0.000    0.000 
#    0.000    0.000    0.000    0.000    0.000    0.000 
#
# Total GULP energy -495754.684193 kJ/mol
# GULP energy per Si atom -12393.867105 kJ/mol
# Density = 2.040835 g / cm^3
# Si number density = 20.454903 Si / 1000 Ang^3
#
#
#
# Elastic Constant Matrix: (Units=GPa)
#
#
# Indices 1 2 3 4 5 6 
#
# 1 83.2999 23.4142 49.1686 0.0000 0.0000 0.0000
# 2 23.4142 150.8276 76.9441 0.0000 0.0000 0.0000
# 3 49.1686 76.9441 157.5244 0.0000 0.0000 0.0000
# 4 0.0000 0.0000 0.0000 34.5416 0.0000 0.0000
# 5 0.0000 0.0000 0.0000 0.0000 35.5990 0.0000
# 6 0.0000 0.0000 0.0000 0.0000 0.0000 12.6419
#
#
#
# Elastic Compliance Matrix: (Units=1/GPa)
#
#
# Indices 1 2 3 4 5 6 
#
# 1 0.014717 0.000078 -0.004632 0.000000 0.000000 0.000000
# 2 0.000078 0.008831 -0.004338 0.000000 0.000000 0.000000
# 3 -0.004632 -0.004338 0.009913 0.000000 0.000000 0.000000
# 4 0.000000 0.000000 0.000000 0.028951 0.000000 0.000000
# 5 0.000000 0.000000 0.000000 0.000000 0.028091 0.000000
# 6 0.000000 0.000000 0.000000 0.000000 0.000000 0.079102
#
#
# Mechanical properties :
#
#
# Convention : Reuss Voigt Hill
#
# Bulk Modulus (GPa) = 63.78532 76.74506 70.26519
# Shear Modulus (GPa) = 25.95877 32.69816 29.32846
#
# Velocity S-wave (km/s) = 3.56627 4.00252 3.79068
# Velocity P-wave (km/s) = 6.94326 7.67860 7.32017
#
# Compressibility (1/GPa) = 0.01567759
#
# Stress axis : x y z
#
# Youngs Moduli (GPa) = 67.94955 113.23832 100.87863
#
# Poissons Ratio (x) = -0.00887 0.46726
# Poissons Ratio (y) = -0.00532 0.43761
# Poissons Ratio (z) = 0.31473 0.49123
#
# Static dielectric constant tensor:
#      x y z
#    x 4.251380 0.000000 0.000000 
#    y 0.000000 3.317210 0.000000 
#    z 0.000000 0.000000 3.595070 
# 
# 
# High freq. dielectric constant tensor:
#      x y z
#    x 1.789650 0.000000 0.000000 
#    y 0.000000 1.798490 0.000000 
#    z 0.000000 0.000000 1.807630 
# 
# From -- ./inp_files/11959.got.cif
#   From: 2010.03.12/outbox.cif.g09.slc.cpg/sg68_6_cif.got.tgz:11959.got - 2010.04.10 23:14:56.
