data_PCOD8283618
_publ_section_title
;
Structure prediction by ZEFSAII (Michael W. Deem and Ramdas Pophale) SiO2 
 PCOD8283618
Probable space group: C C C A
;
_chemical_formula_sum "Si O2"
_cell_formula_units_Z 84
_cell_length_a 19.770516
_cell_length_b 11.551610
_cell_length_c 16.079266
_cell_angle_alpha 90.000000
_cell_angle_beta 90.000000
_cell_angle_gamma 90.000000
_cell_volume 3672.203517
_symmetry_space_group_name_H-M "C C C A"
_symmetry_group_IT_number 68
_space_group.IT_coordinate_system_code '2'
_symmetry_cell_setting 'orthorhombic'
loop_
_space_group_symop_operation_xyz
x,y,z
-x,1/2-y,z
x,1/2-y,1/2-z
-x,y,1/2-z
-x,-y,-z
x,1/2+y,-z
-x,1/2+y,1/2+z
x,-y,1/2+z
1/2+x,1/2+y,z
1/2-x,-y,z
1/2+x,-y,1/2-z
1/2-x,1/2+y,1/2-z
1/2-x,1/2-y,-z
1/2+x,y,-z
1/2-x,y,1/2+z
1/2+x,1/2-y,1/2+z
loop_
_atom_site_type_symbol
_atom_site_label
_atom_site_fract_x
_atom_site_fract_y
_atom_site_fract_z
Si Si1 0.000000 0.750000 0.750000
Si Si2 0.273778 0.375505 0.594711
Si Si3 0.041247 0.428264 0.567902
Si Si4 0.425981 0.134372 0.192295
Si Si5 0.352040 0.741800 0.947065
Si Si6 0.393239 0.074079 0.809104
O O1 0.950077 0.672981 0.805482
O O2 0.250000 0.500000 0.561280
O O3 0.321797 0.309642 0.530106
O O4 0.204384 0.306961 0.607685
O O5 0.315804 0.378827 0.682540
O O6 0.081345 0.319062 0.529276
O O7 0.098068 0.514991 0.600888
O O8 0.000000 0.500000 0.500000
O O9 0.000590 0.387730 0.652190
O O10 0.425246 0.250000 0.250000
O O11 0.376540 0.141412 0.113912
O O12 0.400289 0.017854 0.235681
#
# Coordination Sequence:
#
# PCOD8283618 Si02
#       6
#     4  16  16  16  16  16
#     4  12  28  48  66 108 140 184 224 302 368 432
#     4  11  24  51  67 102 150 192 243 298 354 447
#     4  12  25  42  73 110 140 190 240 303 366 430
#     4  12  24  46  76 110 139 185 246 302 364 428
#     4  11  26  44  77 102 145 196 245 299 362 441
#     4  12  26  47  73  99 150 183 236 304 368 430
#
# _framework density 22.874548999999998
#
# number of rings (size 3 to 8) (size 9 to 14) (size 15 to 20)
#    0.000    0.381    5.714    1.714    5.333    0.000 
#    8.571    0.000    0.000    0.000    0.000    0.000 
#    0.000    0.000    0.000    0.000    0.000    0.000 
#
# Total GULP energy -520469.748041 kJ/mol
# GULP energy per Si atom -12392.136858 kJ/mol
# Density = 2.282249 g / cm^3
# Si number density = 22.874549 Si / 1000 Ang^3
#
#
#
# Elastic Constant Matrix: (Units=GPa)
#
#
# Indices 1 2 3 4 5 6 
#
# 1 139.9305 52.4968 34.5640 0.0000 0.0000 0.0000
# 2 52.4968 116.0272 32.5849 0.0000 0.0000 0.0000
# 3 34.5640 32.5849 58.8106 0.0000 0.0000 0.0000
# 4 0.0000 0.0000 0.0000 27.3645 0.0000 0.0000
# 5 0.0000 0.0000 0.0000 0.0000 39.6296 0.0000
# 6 0.0000 0.0000 0.0000 0.0000 0.0000 48.1792
#
#
#
# Elastic Compliance Matrix: (Units=1/GPa)
#
#
# Indices 1 2 3 4 5 6 
#
# 1 0.009236 -0.003144 -0.003687 0.000000 0.000000 0.000000
# 2 -0.003144 0.011277 -0.004401 0.000000 0.000000 0.000000
# 3 -0.003687 -0.004401 0.021609 0.000000 0.000000 0.000000
# 4 0.000000 0.000000 0.000000 0.036544 0.000000 0.000000
# 5 0.000000 0.000000 0.000000 0.000000 0.025234 0.000000
# 6 0.000000 0.000000 0.000000 0.000000 0.000000 0.020756
#
#
# Mechanical properties :
#
#
# Convention : Reuss Voigt Hill
#
# Bulk Modulus (GPa) = 50.86400 61.56217 56.21309
# Shear Modulus (GPa) = 32.53723 36.04283 34.29003
#
# Velocity S-wave (km/s) = 3.77559 3.97378 3.87595
# Velocity P-wave (km/s) = 6.42582 6.93008 6.68271
#
# Compressibility (1/GPa) = 0.01966027
#
# Stress axis : x y z
#
# Youngs Moduli (GPa) = 108.26703 88.67700 46.27795
#
# Poissons Ratio (x) = 0.27877 0.17061
# Poissons Ratio (y) = 0.34036 0.20365
# Poissons Ratio (z) = 0.39914 0.39022
#
# Static dielectric constant tensor:
#      x y z
#    x 4.614380 0.000000 0.000000 
#    y 0.000000 4.408860 0.000000 
#    z 0.000000 0.000000 3.958550 
# 
# 
# High freq. dielectric constant tensor:
#      x y z
#    x 1.926880 0.000000 0.000000 
#    y 0.000000 1.915860 0.000000 
#    z 0.000000 0.000000 1.881750 
# 
# From -- ./inp_files/32722.got.cif
#   From: 2010.03.12/outbox.cif.g09.slc.cpg/sg68_17_cif.got.tgz:32722.got - 2010.04.10 23:14:56.
