data_PCOD8283174
_publ_section_title
;
Structure prediction by ZEFSAII (Michael W. Deem and Ramdas Pophale) SiO2 
 PCOD8283174
Probable space group: C C C A
;
_chemical_formula_sum "Si O2"
_cell_formula_units_Z 88
_cell_length_a 25.361217
_cell_length_b 19.228739
_cell_length_c 8.942445
_cell_angle_alpha 90.000000
_cell_angle_beta 90.000000
_cell_angle_gamma 90.000000
_cell_volume 4360.910487
_symmetry_space_group_name_H-M "C C C A"
_symmetry_group_IT_number 68
_space_group.IT_coordinate_system_code '2'
_symmetry_cell_setting 'orthorhombic'
loop_
_space_group_symop_operation_xyz
x,y,z
-x,1/2-y,z
x,1/2-y,1/2-z
-x,y,1/2-z
-x,-y,-z
x,1/2+y,-z
-x,1/2+y,1/2+z
x,-y,1/2+z
1/2+x,1/2+y,z
1/2-x,-y,z
1/2+x,-y,1/2-z
1/2-x,1/2+y,1/2-z
1/2-x,1/2-y,-z
1/2+x,y,-z
1/2-x,y,1/2+z
1/2+x,1/2-y,1/2+z
loop_
_atom_site_type_symbol
_atom_site_label
_atom_site_fract_x
_atom_site_fract_y
_atom_site_fract_z
Si Si1 0.730989 0.847672 0.503294
Si Si2 0.444494 0.664853 0.420529
Si Si3 0.744852 0.250000 0.250000
Si Si4 0.855567 0.558193 0.603198
Si Si5 0.154515 0.413628 0.046872
Si Si6 0.060502 0.680930 0.567848
O O1 0.712198 0.806001 0.652202
O O2 0.719834 0.794828 0.365375
O O3 0.695780 0.914732 0.482843
O O4 0.791173 0.873458 0.514176
O O5 0.405621 0.601204 0.462336
O O6 0.429492 0.740168 0.489640
O O7 0.503583 0.649078 0.481208
O O8 0.440512 0.675992 0.245081
O O9 0.856874 0.477974 0.561280
O O10 0.848878 0.563970 0.780727
O O11 0.107821 0.362565 0.998828
#
# Coordination Sequence:
#
# PCOD8283174 Si02
#       6
#    16  16   8  16  16  16
#     4  11  23  40  60  88 118 150 190 240 288 344
#     4   8  16  33  58  84 109 143 191 244 290 335
#     4  10  24  38  62  90 110 152 192 242 288 336
#     4  11  24  38  57  84 120 157 193 235 284 345
#     4  11  24  38  57  84 120 157 193 235 284 345
#     4   8  16  33  58  84 109 143 191 244 290 335
#
# _framework density 20.179272999999998
#
# number of rings (size 3 to 8) (size 9 to 14) (size 15 to 20)
#    0.000    2.182    1.818    1.636    7.636    2.182 
#    0.000    0.000    0.000    0.000    0.000    3.818 
#    0.000    0.000    0.000    0.000    0.000    0.000 
#
# Total GULP energy -545144.154583 kJ/mol
# GULP energy per Si atom -12389.639877 kJ/mol
# Density = 2.013334 g / cm^3
# Si number density = 20.179273 Si / 1000 Ang^3
#
#
#
# Elastic Constant Matrix: (Units=GPa)
#
#
# Indices 1 2 3 4 5 6 
#
# 1 150.5346 75.0845 23.4037 0.0000 0.0000 0.0000
# 2 75.0845 128.3894 31.4908 0.0000 0.0000 0.0000
# 3 23.4037 31.4908 64.9337 0.0000 0.0000 0.0000
# 4 0.0000 0.0000 0.0000 32.2943 0.0000 0.0000
# 5 0.0000 0.0000 0.0000 0.0000 18.1122 0.0000
# 6 0.0000 0.0000 0.0000 0.0000 0.0000 27.8587
#
#
#
# Elastic Compliance Matrix: (Units=1/GPa)
#
#
# Indices 1 2 3 4 5 6 
#
# 1 0.009417 -0.005306 -0.000821 0.000000 0.000000 0.000000
# 2 -0.005306 0.011830 -0.003825 0.000000 0.000000 0.000000
# 3 -0.000821 -0.003825 0.017551 0.000000 0.000000 0.000000
# 4 0.000000 0.000000 0.000000 0.030965 0.000000 0.000000
# 5 0.000000 0.000000 0.000000 0.000000 0.055211 0.000000
# 6 0.000000 0.000000 0.000000 0.000000 0.000000 0.035895
#
#
# Mechanical properties :
#
#
# Convention : Reuss Voigt Hill
#
# Bulk Modulus (GPa) = 52.92441 67.09063 60.00752
# Shear Modulus (GPa) = 26.72769 29.91162 28.31966
#
# Velocity S-wave (km/s) = 3.64333 3.85423 3.75027
# Velocity P-wave (km/s) = 6.63193 7.28878 6.96810
#
# Compressibility (1/GPa) = 0.01889487
#
# Stress axis : x y z
#
# Youngs Moduli (GPa) = 106.18909 84.53119 56.97649
#
# Poissons Ratio (x) = 0.44852 0.04677
# Poissons Ratio (y) = 0.56344 0.21792
# Poissons Ratio (z) = 0.08718 0.32331
#
# Static dielectric constant tensor:
#      x y z
#    x 3.816350 0.000000 0.000000 
#    y 0.000000 3.864830 0.000000 
#    z 0.000000 0.000000 3.440520 
# 
# 
# High freq. dielectric constant tensor:
#      x y z
#    x 1.782110 0.000000 0.000000 
#    y 0.000000 1.799530 0.000000 
#    z 0.000000 0.000000 1.758000 
# 
# From -- ./inp_files/7999.got.cif
#   From: 2010.03.12/outbox.cif.g09.slc.cpg/sg68_4_cif.got.tgz:7999.got - 2010.04.10 23:14:56.
