data_PCOD8283266
_publ_section_title
;
Structure prediction by ZEFSAII (Michael W. Deem and Ramdas Pophale) SiO2 
 PCOD8283266
Probable space group: C C C A
;
_chemical_formula_sum "Si O2"
_cell_formula_units_Z 72
_cell_length_a 8.355944
_cell_length_b 13.029680
_cell_length_c 29.789183
_cell_angle_alpha 90.000000
_cell_angle_beta 90.000000
_cell_angle_gamma 90.000000
_cell_volume 3243.305533
_symmetry_space_group_name_H-M "C C C A"
_symmetry_group_IT_number 68
_space_group.IT_coordinate_system_code '2'
_symmetry_cell_setting 'orthorhombic'
loop_
_space_group_symop_operation_xyz
x,y,z
-x,1/2-y,z
x,1/2-y,1/2-z
-x,y,1/2-z
-x,-y,-z
x,1/2+y,-z
-x,1/2+y,1/2+z
x,-y,1/2+z
1/2+x,1/2+y,z
1/2-x,-y,z
1/2+x,-y,1/2-z
1/2-x,1/2+y,1/2-z
1/2-x,1/2-y,-z
1/2+x,y,-z
1/2-x,y,1/2+z
1/2+x,1/2-y,1/2+z
loop_
_atom_site_type_symbol
_atom_site_label
_atom_site_fract_x
_atom_site_fract_y
_atom_site_fract_z
Si Si1 0.685488 0.246842 0.802857
Si Si2 0.250000 0.000000 0.995789
Si Si3 0.893099 0.931953 0.207720
Si Si4 0.614247 0.932661 0.356208
Si Si5 0.486536 0.368068 0.949354
O O1 0.500000 0.250000 0.819553
O O2 0.692853 0.250000 0.750000
O O3 0.809821 0.335526 0.818687
O O4 0.731294 0.138214 0.824421
O O5 0.136716 0.935957 0.963258
O O6 0.332610 0.915546 0.026889
O O7 0.000000 0.894006 0.250000
O O8 0.750000 0.000000 0.228677
O O9 0.987338 0.003335 0.172946
O O10 0.523491 0.871778 0.395289
O O11 0.750000 0.000000 0.380311
O O12 0.500000 0.250000 0.964526
#
# Coordination Sequence:
#
# PCOD8283266 Si02
#       5
#    16   8  16  16  16
#     4  11  23  42  65  93 132 183 235 287 347 408
#     4  10  24  48  74 106 136 184 232 280 364 432
#     4  12  25  43  69  99 136 190 240 293 350 415
#     4  12  26  43  66 104 143 182 236 291 346 420
#     4  11  24  45  74 105 141 181 227 289 353 423
#
# _framework density 22.199576
#
# number of rings (size 3 to 8) (size 9 to 14) (size 15 to 20)
#    0.000    0.667    3.333    4.667    1.556    3.111 
#    0.000    0.000    0.000    0.000    0.000    0.000 
#    0.000    0.000    0.000    0.000    0.000    0.000 
#
# Total GULP energy -446115.408768 kJ/mol
# GULP energy per Si atom -12392.094688 kJ/mol
# Density = 2.214905 g / cm^3
# Si number density = 22.199576 Si / 1000 Ang^3
#
#
#
# Elastic Constant Matrix: (Units=GPa)
#
#
# Indices 1 2 3 4 5 6 
#
# 1 95.2741 56.4653 32.8017 0.0000 0.0000 0.0000
# 2 56.4653 164.3065 55.4823 0.0000 0.0000 0.0000
# 3 32.8017 55.4823 117.6039 0.0000 0.0000 0.0000
# 4 0.0000 0.0000 0.0000 58.4813 0.0000 0.0000
# 5 0.0000 0.0000 0.0000 0.0000 12.7770 0.0000
# 6 0.0000 0.0000 0.0000 0.0000 0.0000 48.0688
#
#
#
# Elastic Compliance Matrix: (Units=1/GPa)
#
#
# Indices 1 2 3 4 5 6 
#
# 1 0.013521 -0.004012 -0.001878 0.000000 0.000000 0.000000
# 2 -0.004012 0.008430 -0.002858 0.000000 0.000000 0.000000
# 3 -0.001878 -0.002858 0.010375 0.000000 0.000000 0.000000
# 4 0.000000 0.000000 0.000000 0.017099 0.000000 0.000000
# 5 0.000000 0.000000 0.000000 0.000000 0.078266 0.000000
# 6 0.000000 0.000000 0.000000 0.000000 0.000000 0.020804
#
#
# Mechanical properties :
#
#
# Convention : Reuss Voigt Hill
#
# Bulk Modulus (GPa) = 67.43531 74.07590 70.75561
# Shear Modulus (GPa) = 29.25091 39.36110 34.30601
#
# Velocity S-wave (km/s) = 3.63386 4.21534 3.93535
# Velocity P-wave (km/s) = 6.93177 7.55862 7.25197
#
# Compressibility (1/GPa) = 0.01482903
#
# Stress axis : x y z
#
# Youngs Moduli (GPa) = 73.96127 118.62253 96.38247
#
# Poissons Ratio (x) = 0.47594 0.18103
# Poissons Ratio (y) = 0.29675 0.27546
# Poissons Ratio (z) = 0.13892 0.33902
#
# Static dielectric constant tensor:
#      x y z
#    x 4.305990 0.000000 0.000000 
#    y 0.000000 4.588060 0.000000 
#    z 0.000000 0.000000 3.655850 
# 
# 
# High freq. dielectric constant tensor:
#      x y z
#    x 1.887470 0.000000 0.000000 
#    y 0.000000 1.892560 0.000000 
#    z 0.000000 0.000000 1.855400 
# 
# From -- ./inp_files/48934.got.cif
#   From: 2010.03.12/outbox.cif.g09.slc.cpg/sg68_25_cif.got.tgz:48934.got - 2010.04.10 23:14:56.
