data_PCOD8283166
_publ_section_title
;
Structure prediction by ZEFSAII (Michael W. Deem and Ramdas Pophale) SiO2 
 PCOD8283166
Probable space group: C C C A
;
_chemical_formula_sum "Si O2"
_cell_formula_units_Z 84
_cell_length_a 23.412345
_cell_length_b 19.782707
_cell_length_c 8.529383
_cell_angle_alpha 90.000000
_cell_angle_beta 90.000000
_cell_angle_gamma 90.000000
_cell_volume 3950.465289
_symmetry_space_group_name_H-M "C C C A"
_symmetry_group_IT_number 68
_space_group.IT_coordinate_system_code '2'
_symmetry_cell_setting 'orthorhombic'
loop_
_space_group_symop_operation_xyz
x,y,z
-x,1/2-y,z
x,1/2-y,1/2-z
-x,y,1/2-z
-x,-y,-z
x,1/2+y,-z
-x,1/2+y,1/2+z
x,-y,1/2+z
1/2+x,1/2+y,z
1/2-x,-y,z
1/2+x,-y,1/2-z
1/2-x,1/2+y,1/2-z
1/2-x,1/2-y,-z
1/2+x,y,-z
1/2-x,y,1/2+z
1/2+x,1/2-y,1/2+z
loop_
_atom_site_type_symbol
_atom_site_label
_atom_site_fract_x
_atom_site_fract_y
_atom_site_fract_z
Si Si1 0.910702 0.583816 0.549353
Si Si2 0.735611 0.750000 0.750000
Si Si3 0.420491 0.819358 0.506214
Si Si4 0.000000 0.250000 0.750000
Si Si5 0.000000 0.149183 0.250000
Si Si6 0.567187 0.553122 0.703132
Si Si7 0.828981 0.704967 0.521972
O O1 0.901840 0.515803 0.648301
O O2 0.903900 0.575311 0.364231
O O3 0.865791 0.642842 0.587771
O O4 0.973717 0.606978 0.604517
O O5 0.774937 0.706720 0.635301
O O6 0.695677 0.803147 0.654269
O O7 0.459844 0.795038 0.646313
O O8 0.450793 0.808469 0.336963
O O9 0.414096 0.897502 0.559024
O O10 0.362950 0.776567 0.485146
O O11 0.500000 0.545104 0.750000
#
# Coordination Sequence:
#
# PCOD8283166 Si02
#       7
#    16   8  16   4   8  16  16
#     4  12  24  39  63  93 136 178 222 246 328 390
#     4  10  23  46  70  88 124 152 227 298 358 362
#     4  12  23  38  64  95 137 176 221 256 329 384
#     4  12  22  36  56  94 144 182 210 262 292 410
#     4  12  22  36  56  93 138 171 210 262 288 408
#     4  12  22  41  59  94 145 192 200 250 306 406
#     4  11  24  43  68  96 116 170 218 290 331 394
#
# _framework density 21.263317000000001
#
# number of rings (size 3 to 8) (size 9 to 14) (size 15 to 20)
#    0.000    0.381    3.810    6.857    0.000    2.667 
#    0.000    0.000    0.000   19.429    0.000    0.000 
#    0.000    0.000    0.000    0.000    0.000    0.000 
#
# Total GULP energy -520314.784238 kJ/mol
# GULP energy per Si atom -12388.447244 kJ/mol
# Density = 2.121492 g / cm^3
# Si number density = 21.263317 Si / 1000 Ang^3
#
#
#
# Elastic Constant Matrix: (Units=GPa)
#
#
# Indices 1 2 3 4 5 6 
#
# 1 86.7970 52.2334 36.9121 0.0000 0.0000 0.0000
# 2 52.2334 121.7517 36.5107 0.0000 0.0000 0.0000
# 3 36.9121 36.5107 122.4367 0.0000 0.0000 0.0000
# 4 0.0000 0.0000 0.0000 40.1752 0.0000 0.0000
# 5 0.0000 0.0000 0.0000 0.0000 38.2712 0.0000
# 6 0.0000 0.0000 0.0000 0.0000 0.0000 15.9357
#
#
#
# Elastic Compliance Matrix: (Units=1/GPa)
#
#
# Indices 1 2 3 4 5 6 
#
# 1 0.016573 -0.006163 -0.003159 0.000000 0.000000 0.000000
# 2 -0.006163 0.011312 -0.001515 0.000000 0.000000 0.000000
# 3 -0.003159 -0.001515 0.009572 0.000000 0.000000 0.000000
# 4 0.000000 0.000000 0.000000 0.024891 0.000000 0.000000
# 5 0.000000 0.000000 0.000000 0.000000 0.026129 0.000000
# 6 0.000000 0.000000 0.000000 0.000000 0.000000 0.062752
#
#
# Mechanical properties :
#
#
# Convention : Reuss Voigt Hill
#
# Bulk Modulus (GPa) = 63.35939 64.69975 64.02957
# Shear Modulus (GPa) = 28.06404 32.56502 30.31453
#
# Velocity S-wave (km/s) = 3.63689 3.91770 3.77990
# Velocity P-wave (km/s) = 6.89189 7.13852 7.01629
#
# Compressibility (1/GPa) = 0.01578298
#
# Stress axis : x y z
#
# Youngs Moduli (GPa) = 60.33834 88.40325 104.47576
#
# Poissons Ratio (x) = 0.54482 0.33001
# Poissons Ratio (y) = 0.37186 0.15830
# Poissons Ratio (z) = 0.19059 0.13395
#
# Static dielectric constant tensor:
#      x y z
#    x 3.712280 0.000000 0.000000 
#    y 0.000000 3.946460 0.000000 
#    z 0.000000 0.000000 4.239670 
# 
# 
# High freq. dielectric constant tensor:
#      x y z
#    x 1.807170 0.000000 0.000000 
#    y 0.000000 1.823160 0.000000 
#    z 0.000000 0.000000 1.865640 
# 
# From -- ./inp_files/7097.got.cif
#   From: 2010.03.12/outbox.cif.g09.slc.cpg/sg68_4_cif.got.tgz:7097.got - 2010.04.10 23:14:56.
