data_PCOD8283992
_publ_section_title
;
Structure prediction by ZEFSAII (Michael W. Deem and Ramdas Pophale) SiO2 
 PCOD8283992
Probable space group: F M M M
;
_chemical_formula_sum "Si O2"
_cell_formula_units_Z 144
_cell_length_a 19.238814
_cell_length_b 18.856840
_cell_length_c 20.127125
_cell_angle_alpha 90.000000
_cell_angle_beta 90.000000
_cell_angle_gamma 90.000000
_cell_volume 7301.783567
_symmetry_space_group_name_H-M "F M M M"
_symmetry_group_IT_number 69
_symmetry_cell_setting 'orthorhombic'
loop_
_space_group_symop_operation_xyz
x,y,z
-x,-y,z
x,-y,-z
-x,y,-z
-x,-y,-z
x,y,-z
-x,y,z
x,-y,z
x,1/2+y,1/2+z
-x,1/2-y,1/2+z
x,1/2-y,1/2-z
-x,1/2+y,1/2-z
-x,1/2-y,1/2-z
x,1/2+y,1/2-z
-x,1/2+y,1/2+z
x,1/2-y,1/2+z
1/2+x,y,1/2+z
1/2-x,-y,1/2+z
1/2+x,-y,1/2-z
1/2-x,y,1/2-z
1/2-x,-y,1/2-z
1/2+x,y,1/2-z
1/2-x,y,1/2+z
1/2+x,-y,1/2+z
1/2+x,1/2+y,z
1/2-x,1/2-y,z
1/2+x,1/2-y,-z
1/2-x,1/2+y,-z
1/2-x,1/2-y,-z
1/2+x,1/2+y,-z
1/2-x,1/2+y,z
1/2+x,1/2-y,z
loop_
_atom_site_type_symbol
_atom_site_label
_atom_site_fract_x
_atom_site_fract_y
_atom_site_fract_z
Si Si1 0.422911 0.916690 0.500000
Si Si2 0.276308 0.328641 0.576279
Si Si3 0.422053 0.808548 0.300790
Si Si4 0.838991 0.083230 0.131470
Si Si5 0.924316 0.785717 0.574670
O O1 0.500000 0.881128 0.500000
O O2 0.381813 0.894955 0.433951
O O3 0.432314 0.000000 0.500000
O O4 0.258337 0.345076 0.500000
O O5 0.250000 0.250000 0.595848
O O6 0.238819 0.386523 0.622500
O O7 0.359299 0.337527 0.589417
O O8 0.500000 0.828846 0.277140
O O9 0.390763 0.750000 0.250000
O O10 0.374826 0.879255 0.304191
O O11 0.422274 0.779158 0.375266
O O12 0.835900 0.000000 0.145373
O O13 0.914886 0.754003 0.500000
O O14 0.000000 0.825054 0.580784
#
# Coordination Sequence:
#
# PCOD8283992 Si02
#       5
#    16  32  32  32  32
#     4   9  18  30  47  80 125 157 175 208 273 361
#     4  10  18  31  52  83 119 157 196 240 289 346
#     4  10  21  36  55  83 119 159 200 239 286 351
#     4  11  21  34  54  86 121 154 187 232 303 368
#     4   9  18  33  56  82 108 146 202 254 291 336
#
# _framework density 19.721209999999999
#
# number of rings (size 3 to 8) (size 9 to 14) (size 15 to 20)
#    0.000    2.111    3.333    0.667    1.556    1.333 
#    0.000    2.222    0.000    3.333    0.000    6.222 
#    0.000    0.000    0.000    0.000    0.000    0.000 
#
# Total GULP energy -446156.583511 kJ/mol
# GULP energy per Si atom -12393.238431 kJ/mol
# Density = 1.967632 g / cm^3
# Si number density = 19.721210 Si / 1000 Ang^3
#
#
#
# Elastic Constant Matrix: (Units=GPa)
#
#
# Indices 1 2 3 4 5 6 
#
# 1 146.7549 62.2407 29.8604 0.0000 0.0000 0.0000
# 2 62.2407 117.4239 45.6051 0.0000 0.0000 0.0000
# 3 29.8604 45.6051 54.9463 0.0000 0.0000 0.0000
# 4 0.0000 0.0000 0.0000 27.3761 0.0000 0.0000
# 5 0.0000 0.0000 0.0000 0.0000 31.0533 0.0000
# 6 0.0000 0.0000 0.0000 0.0000 0.0000 26.2286
#
#
#
# Elastic Compliance Matrix: (Units=1/GPa)
#
#
# Indices 1 2 3 4 5 6 
#
# 1 0.008858 -0.004170 -0.001353 0.000000 0.000000 0.000000
# 2 -0.004170 0.014530 -0.009794 0.000000 0.000000 0.000000
# 3 -0.001353 -0.009794 0.027064 0.000000 0.000000 0.000000
# 4 0.000000 0.000000 0.000000 0.036528 0.000000 0.000000
# 5 0.000000 0.000000 0.000000 0.000000 0.032203 0.000000
# 6 0.000000 0.000000 0.000000 0.000000 0.000000 0.038126
#
#
# Mechanical properties :
#
#
# Convention : Reuss Voigt Hill
#
# Bulk Modulus (GPa) = 50.45770 66.05972 58.25871
# Shear Modulus (GPa) = 25.70064 29.02620 27.36342
#
# Velocity S-wave (km/s) = 3.61390 3.84060 3.72897
# Velocity P-wave (km/s) = 6.56161 7.29633 6.93870
#
# Compressibility (1/GPa) = 0.01981858
#
# Stress axis : x y z
#
# Youngs Moduli (GPa) = 112.89543 68.82320 36.94988
#
# Poissons Ratio (x) = 0.28696 0.04999
# Poissons Ratio (y) = 0.47073 0.36188
# Poissons Ratio (z) = 0.15275 0.67404
#
# Static dielectric constant tensor:
#      x y z
#    x 4.017800 0.000000 0.000000 
#    y 0.000000 3.144020 0.000000 
#    z 0.000000 0.000000 3.400730 
# 
# 
# High freq. dielectric constant tensor:
#      x y z
#    x 1.783950 0.000000 0.000000 
#    y 0.000000 1.722560 0.000000 
#    z 0.000000 0.000000 1.743850 
# 
# From -- ./inp_files/30730.got.cif
#   From: 2010.03.12/outbox.cif.g09.slc.cpg/sg69_16_cif.got.tgz:30730.got - 2010.04.10 23:52:46.
