data_PCOD8283249
_publ_section_title
;
Structure prediction by ZEFSAII (Michael W. Deem and Ramdas Pophale) SiO2 
 PCOD8283249
Probable space group: C C C A
;
_chemical_formula_sum "Si O2"
_cell_formula_units_Z 64
_cell_length_a 24.278551
_cell_length_b 8.800465
_cell_length_c 13.178617
_cell_angle_alpha 90.000000
_cell_angle_beta 90.000000
_cell_angle_gamma 90.000000
_cell_volume 2815.776760
_symmetry_space_group_name_H-M "C C C A"
_symmetry_group_IT_number 68
_space_group.IT_coordinate_system_code '2'
_symmetry_cell_setting 'orthorhombic'
loop_
_space_group_symop_operation_xyz
x,y,z
-x,1/2-y,z
x,1/2-y,1/2-z
-x,y,1/2-z
-x,-y,-z
x,1/2+y,-z
-x,1/2+y,1/2+z
x,-y,1/2+z
1/2+x,1/2+y,z
1/2-x,-y,z
1/2+x,-y,1/2-z
1/2-x,1/2+y,1/2-z
1/2-x,1/2-y,-z
1/2+x,y,-z
1/2-x,y,1/2+z
1/2+x,1/2-y,1/2+z
loop_
_atom_site_type_symbol
_atom_site_label
_atom_site_fract_x
_atom_site_fract_y
_atom_site_fract_z
Si Si1 0.353913 0.743412 0.508982
Si Si2 0.465094 0.107039 0.574118
Si Si3 0.394928 0.404480 0.301371
Si Si4 0.811381 0.016231 0.136513
O O1 0.412671 0.669447 0.485888
O O2 0.362440 0.871771 0.594628
O O3 0.314438 0.612046 0.549975
O O4 0.325027 0.818931 0.411159
O O5 0.500000 0.250000 0.612799
O O6 0.500000 0.000000 0.500000
O O7 0.446914 0.011625 0.673391
O O8 0.416975 0.250000 0.250000
O O9 0.354155 0.491966 0.226740
O O10 0.750000 0.000000 0.181578
#
# Coordination Sequence:
#
# PCOD8283249 Si02
#       4
#    16  16  16  16
#     4  11  22  47  69 106 146 182 249 293 345 459
#     4  12  23  46  79 103 144 195 237 298 375 431
#     4  10  24  46  71 107 151 181 246 299 348 443
#     4  11  24  45  74 104 145 195 235 301 370 417
#
# _framework density 22.729075000000002
#
# number of rings (size 3 to 8) (size 9 to 14) (size 15 to 20)
#    0.000    1.000    5.000    0.750    0.000    2.000 
#   13.500   23.750    0.000    0.000    0.000    0.000 
#    0.000    0.000    0.000    0.000    0.000    0.000 
#
# Total GULP energy -396896.509357 kJ/mol
# GULP energy per Si atom -12403.015917 kJ/mol
# Density = 2.267734 g / cm^3
# Si number density = 22.729075 Si / 1000 Ang^3
#
#
#
# Elastic Constant Matrix: (Units=GPa)
#
#
# Indices 1 2 3 4 5 6 
#
# 1 141.5686 72.2861 59.6358 0.0000 0.0000 0.0000
# 2 72.2861 121.9199 58.4277 0.0000 0.0000 0.0000
# 3 59.6358 58.4277 112.2515 0.0000 0.0000 0.0000
# 4 0.0000 0.0000 0.0000 38.4778 0.0000 0.0000
# 5 0.0000 0.0000 0.0000 0.0000 26.9719 0.0000
# 6 0.0000 0.0000 0.0000 0.0000 0.0000 38.6167
#
#
#
# Elastic Compliance Matrix: (Units=1/GPa)
#
#
# Indices 1 2 3 4 5 6 
#
# 1 0.010953 -0.004937 -0.003249 0.000000 0.000000 0.000000
# 2 -0.004937 0.013153 -0.004223 0.000000 0.000000 0.000000
# 3 -0.003249 -0.004223 0.012833 0.000000 0.000000 0.000000
# 4 0.000000 0.000000 0.000000 0.025989 0.000000 0.000000
# 5 0.000000 0.000000 0.000000 0.000000 0.037076 0.000000
# 6 0.000000 0.000000 0.000000 0.000000 0.000000 0.025896
#
#
# Mechanical properties :
#
#
# Convention : Reuss Voigt Hill
#
# Bulk Modulus (GPa) = 82.50812 84.04881 83.27846
# Shear Modulus (GPa) = 32.30805 33.17264 32.74034
#
# Velocity S-wave (km/s) = 3.77429 3.82446 3.79946
# Velocity P-wave (km/s) = 7.44132 7.52069 7.48111
#
# Compressibility (1/GPa) = 0.01212002
#
# Stress axis : x y z
#
# Youngs Moduli (GPa) = 91.29551 76.02661 77.92254
#
# Poissons Ratio (x) = 0.37535 0.25321
# Poissons Ratio (y) = 0.45073 0.32910
# Poissons Ratio (z) = 0.29666 0.32110
#
# Static dielectric constant tensor:
#      x y z
#    x 4.060910 0.000000 0.000000 
#    y 0.000000 4.432210 0.000000 
#    z 0.000000 0.000000 4.058390 
# 
# 
# High freq. dielectric constant tensor:
#      x y z
#    x 1.889970 0.000000 0.000000 
#    y 0.000000 1.916540 0.000000 
#    z 0.000000 0.000000 1.892690 
# 
# From -- ./inp_files/24994.got.cif
#   From: 2010.03.12/outbox.cif.g09.slc.cpg/sg68_13_cif.got.tgz:24994.got - 2010.04.10 23:14:56.
