data_PCOD8283201
_publ_section_title
;
Structure prediction by ZEFSAII (Michael W. Deem and Ramdas Pophale) SiO2 
 PCOD8283201
Probable space group: C C C A
;
_chemical_formula_sum "Si O2"
_cell_formula_units_Z 68
_cell_length_a 18.822446
_cell_length_b 5.349794
_cell_length_c 29.572154
_cell_angle_alpha 90.000000
_cell_angle_beta 90.000000
_cell_angle_gamma 90.000000
_cell_volume 2977.803790
_symmetry_space_group_name_H-M "C C C A"
_symmetry_group_IT_number 68
_space_group.IT_coordinate_system_code '2'
_symmetry_cell_setting 'orthorhombic'
loop_
_space_group_symop_operation_xyz
x,y,z
-x,1/2-y,z
x,1/2-y,1/2-z
-x,y,1/2-z
-x,-y,-z
x,1/2+y,-z
-x,1/2+y,1/2+z
x,-y,1/2+z
1/2+x,1/2+y,z
1/2-x,-y,z
1/2+x,-y,1/2-z
1/2-x,1/2+y,1/2-z
1/2-x,1/2-y,-z
1/2+x,y,-z
1/2-x,y,1/2+z
1/2+x,1/2-y,1/2+z
loop_
_atom_site_type_symbol
_atom_site_label
_atom_site_fract_x
_atom_site_fract_y
_atom_site_fract_z
Si Si1 0.000000 0.250000 0.900963
Si Si2 0.500000 0.750000 0.750000
Si Si3 0.437182 0.935732 0.326644
Si Si4 0.750000 0.000000 0.425088
Si Si5 0.396963 0.938104 0.528183
Si Si6 0.714520 0.748181 0.161752
O O1 0.046570 0.441231 0.930809
O O2 0.939657 0.380245 0.869748
O O3 0.446768 0.584287 0.720036
O O4 0.500000 0.750000 0.334169
O O5 0.367480 0.765429 0.325156
O O6 0.815563 0.918407 0.455999
O O7 0.725026 0.770510 0.392704
O O8 0.411902 0.692078 0.498590
O O9 0.750000 0.500000 0.184745
O O10 0.750000 0.000000 0.180439
#
# Coordination Sequence:
#
# PCOD8283201 Si02
#       6
#     8   4  16   8  16  16
#     4  11  26  43  70 100 142 196 246 297 364 427
#     4  10  26  44  80 114 144 180 232 300 370 450
#     4  11  24  46  79 106 143 186 240 294 364 444
#     4  10  24  42  68  98 140 190 246 292 366 412
#     4  12  27  42  63  98 147 191 246 306 357 415
#     4  10  24  42  75 107 139 183 240 293 350 434
#
# _framework density 22.835619999999999
#
# number of rings (size 3 to 8) (size 9 to 14) (size 15 to 20)
#    0.706    0.471    0.000    4.588   16.471    0.000 
#    0.000    0.000    5.176    0.000    0.000    0.000 
#    0.000    0.000    0.000    0.000    0.000    0.000 
#
# Total GULP energy -421549.419970 kJ/mol
# GULP energy per Si atom -12398.512352 kJ/mol
# Density = 2.278364 g / cm^3
# Si number density = 22.835620 Si / 1000 Ang^3
#
#
#
# Elastic Constant Matrix: (Units=GPa)
#
#
# Indices 1 2 3 4 5 6 
#
# 1 162.0116 56.0667 43.9772 0.0000 0.0000 0.0000
# 2 56.0667 147.3170 36.9194 0.0000 0.0000 0.0000
# 3 43.9772 36.9194 102.9688 0.0000 0.0000 0.0000
# 4 0.0000 0.0000 0.0000 19.3132 0.0000 0.0000
# 5 0.0000 0.0000 0.0000 0.0000 22.4982 0.0000
# 6 0.0000 0.0000 0.0000 0.0000 0.0000 48.6742
#
#
#
# Elastic Compliance Matrix: (Units=1/GPa)
#
#
# Indices 1 2 3 4 5 6 
#
# 1 0.007627 -0.002292 -0.002435 0.000000 0.000000 0.000000
# 2 -0.002292 0.008147 -0.001942 0.000000 0.000000 0.000000
# 3 -0.002435 -0.001942 0.011448 0.000000 0.000000 0.000000
# 4 0.000000 0.000000 0.000000 0.051778 0.000000 0.000000
# 5 0.000000 0.000000 0.000000 0.000000 0.044448 0.000000
# 6 0.000000 0.000000 0.000000 0.000000 0.000000 0.020545
#
#
# Mechanical properties :
#
#
# Convention : Reuss Voigt Hill
#
# Bulk Modulus (GPa) = 72.03359 76.24712 74.14035
# Shear Modulus (GPa) = 30.87179 36.45273 33.66226
#
# Velocity S-wave (km/s) = 3.68083 3.99972 3.84358
# Velocity P-wave (km/s) = 7.04823 7.40219 7.22738
#
# Compressibility (1/GPa) = 0.01388241
#
# Stress axis : x y z
#
# Youngs Moduli (GPa) = 131.11717 122.74123 87.35005
#
# Poissons Ratio (x) = 0.28136 0.21274
# Poissons Ratio (y) = 0.30056 0.16965
# Poissons Ratio (z) = 0.31933 0.23838
#
# Static dielectric constant tensor:
#      x y z
#    x 3.890500 0.000000 0.000000 
#    y 0.000000 3.993690 0.000000 
#    z 0.000000 0.000000 3.895260 
# 
# 
# High freq. dielectric constant tensor:
#      x y z
#    x 1.909760 0.000000 0.000000 
#    y 0.000000 1.906850 0.000000 
#    z 0.000000 0.000000 1.891660 
# 
# From -- ./inp_files/55758.got.cif
#   From: 2010.03.12/outbox.cif.g09.slc.cpg/sg68_28_cif.got.tgz:55758.got - 2010.04.10 23:14:56.
