data_PCOD8283912
_publ_section_title
;
Structure prediction by ZEFSAII (Michael W. Deem and Ramdas Pophale) SiO2 
 PCOD8283912
Probable space group: F M M M
;
_chemical_formula_sum "Si O2"
_cell_formula_units_Z 240
_cell_length_a 31.798044
_cell_length_b 25.726384
_cell_length_c 18.450626
_cell_angle_alpha 90.000000
_cell_angle_beta 90.000000
_cell_angle_gamma 90.000000
_cell_volume 15093.510436
_symmetry_space_group_name_H-M "F M M M"
_symmetry_group_IT_number 69
_symmetry_cell_setting 'orthorhombic'
loop_
_space_group_symop_operation_xyz
x,y,z
-x,-y,z
x,-y,-z
-x,y,-z
-x,-y,-z
x,y,-z
-x,y,z
x,-y,z
x,1/2+y,1/2+z
-x,1/2-y,1/2+z
x,1/2-y,1/2-z
-x,1/2+y,1/2-z
-x,1/2-y,1/2-z
x,1/2+y,1/2-z
-x,1/2+y,1/2+z
x,1/2-y,1/2+z
1/2+x,y,1/2+z
1/2-x,-y,1/2+z
1/2+x,-y,1/2-z
1/2-x,y,1/2-z
1/2-x,-y,1/2-z
1/2+x,y,1/2-z
1/2-x,y,1/2+z
1/2+x,-y,1/2+z
1/2+x,1/2+y,z
1/2-x,1/2-y,z
1/2+x,1/2-y,-z
1/2-x,1/2+y,-z
1/2-x,1/2-y,-z
1/2+x,1/2+y,-z
1/2-x,1/2+y,z
1/2+x,1/2-y,z
loop_
_atom_site_type_symbol
_atom_site_label
_atom_site_fract_x
_atom_site_fract_y
_atom_site_fract_z
Si Si1 0.045848 0.794238 0.917329
Si Si2 0.869834 0.838792 0.249412
Si Si3 0.287471 0.122621 0.305898
Si Si4 0.126644 0.255819 0.141773
Si Si5 0.086640 0.396131 0.634123
Si Si6 0.450721 0.000000 0.582452
Si Si7 0.671098 0.559176 0.082265
Si Si8 0.790635 0.285168 0.419367
O O1 0.080882 0.753828 0.891669
O O2 0.060254 0.853790 0.909200
O O3 0.000000 0.786285 0.878173
O O4 0.038642 0.782536 0.000000
O O5 0.827372 0.872075 0.246994
O O6 0.865621 0.787268 0.202014
O O7 0.876546 0.815759 0.329926
O O8 0.907222 0.875768 0.217470
O O9 0.250000 0.114333 0.250000
O O10 0.292195 0.073159 0.360148
O O11 0.283816 0.172412 0.357402
O O12 0.166724 0.249351 0.088786
O O13 0.062818 0.450544 0.629692
O O14 0.132516 0.401363 0.596812
O O15 0.500000 0.000000 0.574230
O O16 0.430925 0.000000 0.500000
O O17 0.656025 0.500000 0.095375
O O18 0.687341 0.566475 0.000000
O O19 0.792740 0.310536 0.500000
O O20 0.750000 0.250000 0.412498
#
# Coordination Sequence:
#
# PCOD8283912 Si02
#       8
#    32  32  32  32  32  16  32  32
#     4  10  19  29  43  64  89 119 153 188 228 276
#     4   8  17  29  44  62  82 116 154 183 222 277
#     4  10  19  30  45  65  92 122 150 192 235 278
#     4   9  16  30  45  61  88 119 151 189 229 272
#     4  10  18  30  45  63  88 117 153 192 230 273
#     4  11  20  28  42  64  89 116 147 189 238 279
#     4  10  19  31  48  66  85 117 157 194 235 282
#     4  10  19  29  46  71  94 118 154 195 236 280
#
# _framework density 15.900873000000001
#
# number of rings (size 3 to 8) (size 9 to 14) (size 15 to 20)
#    0.000    2.333    0.667    4.000    0.000    2.667 
#    0.000    6.000    0.000    0.000    0.000    0.000 
#    0.000    0.000    0.000    0.000    0.000    5.467 
#
# Total GULP energy -743319.654419 kJ/mol
# GULP energy per Si atom -12388.660907 kJ/mol
# Density = 1.586468 g / cm^3
# Si number density = 15.900873 Si / 1000 Ang^3
#
#
#
# Elastic Constant Matrix: (Units=GPa)
#
#
# Indices 1 2 3 4 5 6 
#
# 1 107.6122 32.2989 44.0027 0.0000 0.0000 0.0000
# 2 32.2989 68.1108 34.5842 0.0000 0.0000 0.0000
# 3 44.0027 34.5842 63.8493 0.0000 0.0000 0.0000
# 4 0.0000 0.0000 0.0000 26.9773 0.0000 0.0000
# 5 0.0000 0.0000 0.0000 0.0000 20.6100 0.0000
# 6 0.0000 0.0000 0.0000 0.0000 0.0000 22.1141
#
#
#
# Elastic Compliance Matrix: (Units=1/GPa)
#
#
# Indices 1 2 3 4 5 6 
#
# 1 0.013186 -0.002260 -0.007863 0.000000 0.000000 0.000000
# 2 -0.002260 0.020639 -0.009622 0.000000 0.000000 0.000000
# 3 -0.007863 -0.009622 0.026292 0.000000 0.000000 0.000000
# 4 0.000000 0.000000 0.000000 0.037068 0.000000 0.000000
# 5 0.000000 0.000000 0.000000 0.000000 0.048520 0.000000
# 6 0.000000 0.000000 0.000000 0.000000 0.000000 0.045220
#
#
# Mechanical properties :
#
#
# Convention : Reuss Voigt Hill
#
# Bulk Modulus (GPa) = 48.47834 51.26042 49.86938
# Shear Modulus (GPa) = 21.07100 22.51937 21.79518
#
# Velocity S-wave (km/s) = 3.64421 3.76737 3.70630
# Velocity P-wave (km/s) = 6.94701 7.15763 7.05311
#
# Compressibility (1/GPa) = 0.02062777
#
# Stress axis : x y z
#
# Youngs Moduli (GPa) = 75.83603 48.45109 38.03372
#
# Poissons Ratio (x) = 0.10952 0.29907
# Poissons Ratio (y) = 0.17142 0.36594
# Poissons Ratio (z) = 0.59631 0.46618
#
# Static dielectric constant tensor:
#      x y z
#    x 3.570070 0.000000 0.000000 
#    y 0.000000 3.083760 0.000000 
#    z 0.000000 0.000000 3.085450 
# 
# 
# High freq. dielectric constant tensor:
#      x y z
#    x 1.612480 0.000000 0.000000 
#    y 0.000000 1.591810 0.000000 
#    z 0.000000 0.000000 1.590160 
# 
# From -- ./inp_files/34118.got.cif
#   From: 2010.03.12/outbox.cif.g09.slc.cpg/sg69_18_cif.got.tgz:34118.got - 2010.04.10 23:52:46.
