data_PCOD8283247
_publ_section_title
;
Structure prediction by ZEFSAII (Michael W. Deem and Ramdas Pophale) SiO2 
 PCOD8283247
Probable space group: C C C A
;
_chemical_formula_sum "Si O2"
_cell_formula_units_Z 60
_cell_length_a 26.860249
_cell_length_b 9.613317
_cell_length_c 10.879393
_cell_angle_alpha 90.000000
_cell_angle_beta 90.000000
_cell_angle_gamma 90.000000
_cell_volume 2809.234304
_symmetry_space_group_name_H-M "C C C A"
_symmetry_group_IT_number 68
_space_group.IT_coordinate_system_code '2'
_symmetry_cell_setting 'orthorhombic'
loop_
_space_group_symop_operation_xyz
x,y,z
-x,1/2-y,z
x,1/2-y,1/2-z
-x,y,1/2-z
-x,-y,-z
x,1/2+y,-z
-x,1/2+y,1/2+z
x,-y,1/2+z
1/2+x,1/2+y,z
1/2-x,-y,z
1/2+x,-y,1/2-z
1/2-x,1/2+y,1/2-z
1/2-x,1/2-y,-z
1/2+x,y,-z
1/2-x,y,1/2+z
1/2+x,1/2-y,1/2+z
loop_
_atom_site_type_symbol
_atom_site_label
_atom_site_fract_x
_atom_site_fract_y
_atom_site_fract_z
Si Si1 0.500000 0.250000 0.250000
Si Si2 0.582631 0.104182 0.403935
Si Si3 0.785834 0.370801 0.972389
Si Si4 0.885619 0.195877 0.388625
Si Si5 0.664000 0.750000 0.750000
O O1 0.532734 0.154257 0.338327
O O2 0.590383 0.174741 0.537303
O O3 0.631217 0.144686 0.328124
O O4 0.578103 0.936729 0.408702
O O5 0.750000 0.500000 0.992914
O O6 0.803745 0.355674 0.832017
O O7 0.750000 0.250000 0.000000
O O8 0.832476 0.360878 0.064329
O O9 0.880939 0.250000 0.250000
#
# Coordination Sequence:
#
# PCOD8283247 Si02
#       5
#     4  16  16  16   8
#     4  10  24  48  80 100 144 168 238 286 340 426
#     4  10  24  46  71 101 134 183 222 288 353 415
#     4  11  24  40  63  99 133 184 238 285 331 400
#     4  11  26  46  70 101 144 185 229 284 358 410
#     4   9  22  39  66  88 140 176 226 281 354 399
#
# _framework density 21.358132999999999
#
# number of rings (size 3 to 8) (size 9 to 14) (size 15 to 20)
#    0.000    1.600    0.000    3.200   16.800    2.133 
#    0.000    0.000    0.000    0.000    0.000    0.000 
#    0.000    0.000    0.000    0.000    0.000    0.000 
#
# Total GULP energy -371848.466983 kJ/mol
# GULP energy per Si atom -12394.948899 kJ/mol
# Density = 2.130952 g / cm^3
# Si number density = 21.358133 Si / 1000 Ang^3
#
#
#
# Elastic Constant Matrix: (Units=GPa)
#
#
# Indices 1 2 3 4 5 6 
#
# 1 119.9322 48.5813 59.3815 0.0000 0.0000 0.0000
# 2 48.5813 162.2600 67.2304 0.0000 0.0000 0.0000
# 3 59.3815 67.2304 174.8683 0.0000 0.0000 0.0000
# 4 0.0000 0.0000 0.0000 30.7087 0.0000 0.0000
# 5 0.0000 0.0000 0.0000 0.0000 6.6368 0.0000
# 6 0.0000 0.0000 0.0000 0.0000 0.0000 29.8263
#
#
#
# Elastic Compliance Matrix: (Units=1/GPa)
#
#
# Indices 1 2 3 4 5 6 
#
# 1 0.010537 -0.001989 -0.002813 0.000000 0.000000 0.000000
# 2 -0.001989 0.007706 -0.002287 0.000000 0.000000 0.000000
# 3 -0.002813 -0.002287 0.007553 0.000000 0.000000 0.000000
# 4 0.000000 0.000000 0.000000 0.032564 0.000000 0.000000
# 5 0.000000 0.000000 0.000000 0.000000 0.150676 0.000000
# 6 0.000000 0.000000 0.000000 0.000000 0.000000 0.033527
#
#
# Mechanical properties :
#
#
# Convention : Reuss Voigt Hill
#
# Bulk Modulus (GPa) = 86.08187 89.71630 87.89909
# Shear Modulus (GPa) = 19.18537 32.22551 25.70544
#
# Velocity S-wave (km/s) = 3.00037 3.88856 3.47298
# Velocity P-wave (km/s) = 7.23840 7.89038 7.57141
#
# Compressibility (1/GPa) = 0.01161685
#
# Stress axis : x y z
#
# Youngs Moduli (GPa) = 94.90632 129.76569 132.39225
#
# Poissons Ratio (x) = 0.25811 0.37246
# Poissons Ratio (y) = 0.18878 0.30282
# Poissons Ratio (z) = 0.26700 0.29681
#
# Static dielectric constant tensor:
#      x y z
#    x 3.903080 0.000000 0.000000 
#    y 0.000000 3.837310 0.000000 
#    z 0.000000 0.000000 4.017090 
# 
# 
# High freq. dielectric constant tensor:
#      x y z
#    x 1.839220 0.000000 0.000000 
#    y 0.000000 1.848610 0.000000 
#    z 0.000000 0.000000 1.848350 
# 
# From -- ./inp_files/10609.got.cif
#   From: 2010.03.12/outbox.cif.g09.slc.cpg/sg68_6_cif.got.tgz:10609.got - 2010.04.10 23:14:56.
