data_PCOD8283806
_publ_section_title
;
Structure prediction by ZEFSAII (Michael W. Deem and Ramdas Pophale) SiO2 
 PCOD8283806
Probable space group: F M M M
;
_chemical_formula_sum "Si O2"
_cell_formula_units_Z 176
_cell_length_a 23.484849
_cell_length_b 15.887017
_cell_length_c 28.779316
_cell_angle_alpha 90.000000
_cell_angle_beta 90.000000
_cell_angle_gamma 90.000000
_cell_volume 10737.683538
_symmetry_space_group_name_H-M "F M M M"
_symmetry_group_IT_number 69
_symmetry_cell_setting 'orthorhombic'
loop_
_space_group_symop_operation_xyz
x,y,z
-x,-y,z
x,-y,-z
-x,y,-z
-x,-y,-z
x,y,-z
-x,y,z
x,-y,z
x,1/2+y,1/2+z
-x,1/2-y,1/2+z
x,1/2-y,1/2-z
-x,1/2+y,1/2-z
-x,1/2-y,1/2-z
x,1/2+y,1/2-z
-x,1/2+y,1/2+z
x,1/2-y,1/2+z
1/2+x,y,1/2+z
1/2-x,-y,1/2+z
1/2+x,-y,1/2-z
1/2-x,y,1/2-z
1/2-x,-y,1/2-z
1/2+x,y,1/2-z
1/2-x,y,1/2+z
1/2+x,-y,1/2+z
1/2+x,1/2+y,z
1/2-x,1/2-y,z
1/2+x,1/2-y,-z
1/2-x,1/2+y,-z
1/2-x,1/2-y,-z
1/2+x,1/2+y,-z
1/2-x,1/2+y,z
1/2+x,1/2-y,z
loop_
_atom_site_type_symbol
_atom_site_label
_atom_site_fract_x
_atom_site_fract_y
_atom_site_fract_z
Si Si1 0.676906 0.590941 0.642272
Si Si2 0.318007 0.248394 0.697273
Si Si3 0.121672 0.350487 0.947561
Si Si4 0.195870 0.803970 0.051858
Si Si5 0.500000 0.093917 0.054793
Si Si6 0.190305 0.407312 0.638936
O O1 0.651989 0.500000 0.659425
O O2 0.653599 0.670782 0.671503
O O3 0.662532 0.599380 0.587597
O O4 0.743703 0.587802 0.650629
O O5 0.339990 0.250000 0.750000
O O6 0.250000 0.250000 0.694732
O O7 0.339339 0.162594 0.672095
O O8 0.139462 0.253112 0.948157
O O9 0.056717 0.356964 0.929044
O O10 0.128065 0.388460 0.000000
O O11 0.250000 0.750000 0.070964
O O12 0.183293 0.882228 0.085003
O O13 0.209900 0.837135 0.000000
O O14 0.500000 0.000000 0.076491
O O15 0.500000 0.087803 0.000000
O O16 0.162524 0.500000 0.646714
#
# Coordination Sequence:
#
# PCOD8283806 Si02
#       6
#    32  32  32  32  16  32
#     4  10  18  27  43  65  89 119 153 184 224 276
#     4   9  17  30  43  58  87 121 152 189 230 274
#     4  10  18  29  46  64  93 128 152 181 226 272
#     4  10  17  28  44  63  91 124 156 188 224 272
#     4   9  18  30  42  64  94 123 159 193 222 270
#     4  10  18  28  42  63  91 121 153 186 225 273
#
# _framework density 16.390872000000002
#
# number of rings (size 3 to 8) (size 9 to 14) (size 15 to 20)
#    0.000    2.273    3.636    1.091    0.000    2.182 
#    0.000    5.455    0.000    0.000    0.000    1.273 
#    0.000    3.636    0.000    0.000    0.000    0.000 
#
# Total GULP energy -545211.587964 kJ/mol
# GULP energy per Si atom -12391.172454 kJ/mol
# Density = 1.635357 g / cm^3
# Si number density = 16.390872 Si / 1000 Ang^3
#
#
#
# Elastic Constant Matrix: (Units=GPa)
#
#
# Indices 1 2 3 4 5 6 
#
# 1 35.5295 15.6762 3.5888 0.0000 0.0000 0.0000
# 2 15.6762 146.4752 63.7881 0.0000 0.0000 0.0000
# 3 3.5888 63.7881 102.8764 0.0000 0.0000 0.0000
# 4 0.0000 0.0000 0.0000 13.0226 0.0000 0.0000
# 5 0.0000 0.0000 0.0000 0.0000 5.6090 0.0000
# 6 0.0000 0.0000 0.0000 0.0000 0.0000 13.0674
#
#
#
# Elastic Compliance Matrix: (Units=1/GPa)
#
#
# Indices 1 2 3 4 5 6 
#
# 1 0.029663 -0.003732 0.001279 0.000000 0.000000 0.000000
# 2 -0.003732 0.009822 -0.005960 0.000000 0.000000 0.000000
# 3 0.001279 -0.005960 0.013371 0.000000 0.000000 0.000000
# 4 0.000000 0.000000 0.000000 0.076790 0.000000 0.000000
# 5 0.000000 0.000000 0.000000 0.000000 0.178284 0.000000
# 6 0.000000 0.000000 0.000000 0.000000 0.000000 0.076526
#
#
# Mechanical properties :
#
#
# Convention : Reuss Voigt Hill
#
# Bulk Modulus (GPa) = 27.75386 50.10971 38.93179
# Shear Modulus (GPa) = 12.09801 19.79501 15.94651
#
# Velocity S-wave (km/s) = 2.71974 3.47895 3.12250
# Velocity P-wave (km/s) = 5.17995 6.83926 6.06661
#
# Compressibility (1/GPa) = 0.03603102
#
# Stress axis : x y z
#
# Youngs Moduli (GPa) = 33.71217 101.81332 74.78780
#
# Poissons Ratio (x) = 0.37993 -0.09565
# Poissons Ratio (y) = 0.12580 0.44572
# Poissons Ratio (z) = -0.04312 0.60679
#
# Static dielectric constant tensor:
#      x y z
#    x 2.766740 0.000000 0.000000 
#    y 0.000000 3.539900 0.000000 
#    z 0.000000 0.000000 3.112730 
# 
# 
# High freq. dielectric constant tensor:
#      x y z
#    x 1.561610 0.000000 0.000000 
#    y 0.000000 1.633050 0.000000 
#    z 0.000000 0.000000 1.623870 
# 
# From -- ./inp_files/18244.got.cif
#   From: 2010.03.12/outbox.cif.g09.slc.cpg/sg69_10_cif.got.tgz:18244.got - 2010.04.10 23:52:46.
