data_PCOD8283521
_publ_section_title
;
Structure prediction by ZEFSAII (Michael W. Deem and Ramdas Pophale) SiO2 
 PCOD8283521
Probable space group: C C C A
;
_chemical_formula_sum "Si O2"
_cell_formula_units_Z 64
_cell_length_a 12.483515
_cell_length_b 12.585368
_cell_length_c 18.496822
_cell_angle_alpha 90.000000
_cell_angle_beta 90.000000
_cell_angle_gamma 90.000000
_cell_volume 2906.028864
_symmetry_space_group_name_H-M "C C C A"
_symmetry_group_IT_number 68
_space_group.IT_coordinate_system_code '2'
_symmetry_cell_setting 'orthorhombic'
loop_
_space_group_symop_operation_xyz
x,y,z
-x,1/2-y,z
x,1/2-y,1/2-z
-x,y,1/2-z
-x,-y,-z
x,1/2+y,-z
-x,1/2+y,1/2+z
x,-y,1/2+z
1/2+x,1/2+y,z
1/2-x,-y,z
1/2+x,-y,1/2-z
1/2-x,1/2+y,1/2-z
1/2-x,1/2-y,-z
1/2+x,y,-z
1/2-x,y,1/2+z
1/2+x,1/2-y,1/2+z
loop_
_atom_site_type_symbol
_atom_site_label
_atom_site_fract_x
_atom_site_fract_y
_atom_site_fract_z
Si Si1 0.545275 0.366237 0.572516
Si Si2 0.165952 0.638872 0.781960
Si Si3 0.885058 0.583066 0.273631
Si Si4 0.365777 0.544542 0.568764
O O1 0.500000 0.250000 0.579532
O O2 0.632001 0.382673 0.635841
O O3 0.450815 0.450786 0.579076
O O4 0.603403 0.376690 0.495684
O O5 0.121612 0.750000 0.750000
O O6 0.118381 0.545396 0.732034
O O7 0.295669 0.636418 0.777705
O O8 0.862029 0.612499 0.357135
O O9 0.000000 0.628286 0.250000
O O10 0.250000 0.500000 0.549704
#
# Coordination Sequence:
#
# PCOD8283521 Si02
#       4
#    16  16  16  16
#     4  11  26  44  69  98 131 179 226 274 333 403
#     4  11  24  42  70  99 126 176 225 275 323 395
#     4  11  23  44  67  99 137 174 219 275 337 393
#     4  11  24  44  66  98 138 174 218 280 338 397
#
# _framework density 22.02318
#
# number of rings (size 3 to 8) (size 9 to 14) (size 15 to 20)
#    0.000    1.000    5.000    1.500    3.500    1.500 
#    4.500    0.000    0.000    0.000    0.000    0.000 
#    0.000    0.000    0.000    0.000    0.000    0.000 
#
# Total GULP energy -396939.527484 kJ/mol
# GULP energy per Si atom -12404.360234 kJ/mol
# Density = 2.197305 g / cm^3
# Si number density = 22.023180 Si / 1000 Ang^3
#
#
#
# Elastic Constant Matrix: (Units=GPa)
#
#
# Indices 1 2 3 4 5 6 
#
# 1 153.6587 -0.9969 64.5025 0.0000 0.0000 0.0000
# 2 -0.9969 55.2739 30.7157 0.0000 0.0000 0.0000
# 3 64.5025 30.7157 172.8691 0.0000 0.0000 0.0000
# 4 0.0000 0.0000 0.0000 45.2536 0.0000 0.0000
# 5 0.0000 0.0000 0.0000 0.0000 47.1765 0.0000
# 6 0.0000 0.0000 0.0000 0.0000 0.0000 8.6493
#
#
#
# Elastic Compliance Matrix: (Units=1/GPa)
#
#
# Indices 1 2 3 4 5 6 
#
# 1 0.007907 0.001977 -0.003302 0.000000 0.000000 0.000000
# 2 0.001977 0.020568 -0.004392 0.000000 0.000000 0.000000
# 3 -0.003302 -0.004392 0.007797 0.000000 0.000000 0.000000
# 4 0.000000 0.000000 0.000000 0.022098 0.000000 0.000000
# 5 0.000000 0.000000 0.000000 0.000000 0.021197 0.000000
# 6 0.000000 0.000000 0.000000 0.000000 0.000000 0.115616
#
#
# Mechanical properties :
#
#
# Convention : Reuss Voigt Hill
#
# Bulk Modulus (GPa) = 40.25982 63.36050 51.81016
# Shear Modulus (GPa) = 23.26711 39.38792 31.32751
#
# Velocity S-wave (km/s) = 3.25388 4.23363 3.77567
# Velocity P-wave (km/s) = 5.69538 7.26158 6.52564
#
# Compressibility (1/GPa) = 0.02483866
#
# Stress axis : x y z
#
# Youngs Moduli (GPa) = 126.47549 48.61870 128.25335
#
# Poissons Ratio (x) = -0.09613 0.42343
# Poissons Ratio (y) = -0.25007 0.56334
# Poissons Ratio (z) = 0.41756 0.21355
#
# Static dielectric constant tensor:
#      x y z
#    x 3.688200 0.000000 0.000000 
#    y 0.000000 3.580960 0.000000 
#    z 0.000000 0.000000 4.137340 
# 
# 
# High freq. dielectric constant tensor:
#      x y z
#    x 1.882200 0.000000 0.000000 
#    y 0.000000 1.851530 0.000000 
#    z 0.000000 0.000000 1.876430 
# 
# From -- ./inp_files/29144.got.cif
#   From: 2010.03.12/outbox.cif.g09.slc.cpg/sg68_15_cif.got.tgz:29144.got - 2010.04.10 23:14:56.
