data_PCOD8283622
_publ_section_title
;
Structure prediction by ZEFSAII (Michael W. Deem and Ramdas Pophale) SiO2 
 PCOD8283622
Probable space group: C C C A
;
_chemical_formula_sum "Si O2"
_cell_formula_units_Z 52
_cell_length_a 9.201685
_cell_length_b 22.267513
_cell_length_c 11.073400
_cell_angle_alpha 90.000000
_cell_angle_beta 90.000000
_cell_angle_gamma 90.000000
_cell_volume 2268.924604
_symmetry_space_group_name_H-M "C C C A"
_symmetry_group_IT_number 68
_space_group.IT_coordinate_system_code '2'
_symmetry_cell_setting 'orthorhombic'
loop_
_space_group_symop_operation_xyz
x,y,z
-x,1/2-y,z
x,1/2-y,1/2-z
-x,y,1/2-z
-x,-y,-z
x,1/2+y,-z
-x,1/2+y,1/2+z
x,-y,1/2+z
1/2+x,1/2+y,z
1/2-x,-y,z
1/2+x,-y,1/2-z
1/2-x,1/2+y,1/2-z
1/2-x,1/2-y,-z
1/2+x,y,-z
1/2-x,y,1/2+z
1/2+x,1/2-y,1/2+z
loop_
_atom_site_type_symbol
_atom_site_label
_atom_site_fract_x
_atom_site_fract_y
_atom_site_fract_z
Si Si1 0.581312 0.518399 0.872347
Si Si2 0.475945 0.320504 0.618598
Si Si3 0.847921 0.149976 0.595699
Si Si4 0.000000 0.750000 0.250000
O O1 0.500000 0.492504 0.750000
O O2 0.750000 0.500000 0.880905
O O3 0.590083 0.589631 0.846373
O O4 0.500000 0.500000 0.000000
O O5 0.500000 0.250000 0.610641
O O6 0.500000 0.346320 0.750000
O O7 0.322419 0.344954 0.575673
O O8 0.597020 0.351799 0.540133
O O9 0.898123 0.208867 0.668034
#
# Coordination Sequence:
#
# PCOD8283622 Si02
#       4
#    16  16  16   4
#     4  12  28  51  76 109 147 203 260 314 372 445
#     4  11  25  42  67 106 148 188 237 290 372 445
#     4  12  26  45  74 104 148 190 239 306 370 443
#     4  12  24  44  76 108 144 180 242 296 384 432
#
# _framework density 22.918347000000001
#
# number of rings (size 3 to 8) (size 9 to 14) (size 15 to 20)
#    0.000    0.308    3.077    5.538    4.308    7.385 
#    0.000    0.000    0.000    0.000    0.000    0.000 
#    0.000    0.000    0.000    0.000    0.000    0.000 
#
# Total GULP energy -322159.845281 kJ/mol
# GULP energy per Si atom -12390.763280 kJ/mol
# Density = 2.286618 g / cm^3
# Si number density = 22.918347 Si / 1000 Ang^3
#
#
#
# Elastic Constant Matrix: (Units=GPa)
#
#
# Indices 1 2 3 4 5 6 
#
# 1 195.1024 27.6054 101.3392 0.0000 0.0000 0.0000
# 2 27.6054 111.1858 29.0353 0.0000 0.0000 0.0000
# 3 101.3392 29.0353 178.0846 0.0000 0.0000 0.0000
# 4 0.0000 0.0000 0.0000 9.9794 0.0000 0.0000
# 5 0.0000 0.0000 0.0000 0.0000 32.5845 0.0000
# 6 0.0000 0.0000 0.0000 0.0000 0.0000 40.8929
#
#
#
# Elastic Compliance Matrix: (Units=1/GPa)
#
#
# Indices 1 2 3 4 5 6 
#
# 1 0.007338 -0.000764 -0.004051 0.000000 0.000000 0.000000
# 2 -0.000764 0.009473 -0.001110 0.000000 0.000000 0.000000
# 3 -0.004051 -0.001110 0.008101 0.000000 0.000000 0.000000
# 4 0.000000 0.000000 0.000000 0.100206 0.000000 0.000000
# 5 0.000000 0.000000 0.000000 0.000000 0.030689 0.000000
# 6 0.000000 0.000000 0.000000 0.000000 0.000000 0.024454
#
#
# Mechanical properties :
#
#
# Convention : Reuss Voigt Hill
#
# Bulk Modulus (GPa) = 76.55146 88.92583 82.73865
# Shear Modulus (GPa) = 25.44962 38.45089 31.95026
#
# Velocity S-wave (km/s) = 3.33595 4.10046 3.73780
# Velocity P-wave (km/s) = 6.95072 7.82967 7.40325
#
# Compressibility (1/GPa) = 0.01306311
#
# Stress axis : x y z
#
# Youngs Moduli (GPa) = 136.28140 105.55815 123.43414
#
# Poissons Ratio (x) = 0.08064 0.50003
# Poissons Ratio (y) = 0.10411 0.13699
# Poissons Ratio (z) = 0.55208 0.11715
#
# Static dielectric constant tensor:
#      x y z
#    x 4.221730 0.000000 0.000000 
#    y 0.000000 4.288980 0.000000 
#    z 0.000000 0.000000 4.599400 
# 
# 
# High freq. dielectric constant tensor:
#      x y z
#    x 1.918970 0.000000 0.000000 
#    y 0.000000 1.913230 0.000000 
#    z 0.000000 0.000000 1.921900 
# 
# From -- ./inp_files/10519.got.cif
#   From: 2010.03.12/outbox.cif.g09.slc.cpg/sg68_6_cif.got.tgz:10519.got - 2010.04.10 23:14:56.
