data_PCOD8283487
_publ_section_title
;
Structure prediction by ZEFSAII (Michael W. Deem and Ramdas Pophale) SiO2 
 PCOD8283487
Probable space group: C C C A
;
_chemical_formula_sum "Si O2"
_cell_formula_units_Z 112
_cell_length_a 12.333000
_cell_length_b 30.560681
_cell_length_c 13.631664
_cell_angle_alpha 90.000000
_cell_angle_beta 90.000000
_cell_angle_gamma 90.000000
_cell_volume 5137.840667
_symmetry_space_group_name_H-M "C C C A"
_symmetry_group_IT_number 68
_space_group.IT_coordinate_system_code '2'
_symmetry_cell_setting 'orthorhombic'
loop_
_space_group_symop_operation_xyz
x,y,z
-x,1/2-y,z
x,1/2-y,1/2-z
-x,y,1/2-z
-x,-y,-z
x,1/2+y,-z
-x,1/2+y,1/2+z
x,-y,1/2+z
1/2+x,1/2+y,z
1/2-x,-y,z
1/2+x,-y,1/2-z
1/2-x,1/2+y,1/2-z
1/2-x,1/2-y,-z
1/2+x,y,-z
1/2-x,y,1/2+z
1/2+x,1/2-y,1/2+z
loop_
_atom_site_type_symbol
_atom_site_label
_atom_site_fract_x
_atom_site_fract_y
_atom_site_fract_z
Si Si1 0.234462 0.549922 0.671998
Si Si2 0.445432 0.046491 0.982856
Si Si3 0.112308 0.703141 0.038409
Si Si4 0.861063 0.604520 0.479748
Si Si5 0.313205 0.092746 0.133492
Si Si6 0.723555 0.765287 0.352885
Si Si7 0.926844 0.179207 0.841982
O O1 0.250000 0.500000 0.701629
O O2 0.117353 0.551896 0.620284
O O3 0.324685 0.567650 0.597410
O O4 0.248328 0.578570 0.769606
O O5 0.366039 0.051484 0.076910
O O6 0.529558 0.086111 0.973360
O O7 0.500000 0.000000 0.000000
O O8 0.205235 0.726337 0.101361
O O9 0.984210 0.707542 0.068903
O O10 0.124066 0.651913 0.068076
O O11 0.128324 0.717129 0.924880
O O12 0.774519 0.614691 0.563669
O O13 0.413153 0.126786 0.148172
O O14 0.669557 0.750000 0.250000
O O15 0.804811 0.804561 0.328613
O O16 0.000000 0.191312 0.750000
#
# Coordination Sequence:
#
# PCOD8283487 Si02
#       7
#    16  16  16  16  16  16  16
#     4  11  25  42  64 102 134 178 233 290 348 403
#     4  11  24  44  68  92 136 181 227 287 348 414
#     4  11  23  40  69 102 134 181 226 279 360 409
#     4  11  23  45  65  96 135 180 227 284 344 415
#     4  11  26  41  68  97 135 172 230 288 335 417
#     4  11  24  42  68 104 138 173 229 295 344 420
#     4  12  22  41  69 102 131 177 235 278 340 425
#
# _framework density 21.799040000000002
#
# number of rings (size 3 to 8) (size 9 to 14) (size 15 to 20)
#    0.000    0.857    5.714    1.286    2.000    0.571 
#    0.000    0.000    0.000    6.857    0.000    0.000 
#    0.000    0.000    0.000    0.000    0.000    0.000 
#
# Total GULP energy -694088.459009 kJ/mol
# GULP energy per Si atom -12394.436768 kJ/mol
# Density = 2.174942 g / cm^3
# Si number density = 21.799040 Si / 1000 Ang^3
#
#
#
# Elastic Constant Matrix: (Units=GPa)
#
#
# Indices 1 2 3 4 5 6 
#
# 1 53.8628 -3.5357 15.1288 0.0000 0.0000 0.0000
# 2 -3.5357 82.4583 9.5674 0.0000 0.0000 0.0000
# 3 15.1288 9.5674 111.6518 0.0000 0.0000 0.0000
# 4 0.0000 0.0000 0.0000 30.8162 0.0000 0.0000
# 5 0.0000 0.0000 0.0000 0.0000 32.4061 0.0000
# 6 0.0000 0.0000 0.0000 0.0000 0.0000 21.8643
#
#
#
# Elastic Compliance Matrix: (Units=1/GPa)
#
#
# Indices 1 2 3 4 5 6 
#
# 1 0.019407 0.001149 -0.002728 0.000000 0.000000 0.000000
# 2 0.001149 0.012317 -0.001211 0.000000 0.000000 0.000000
# 3 -0.002728 -0.001211 0.009430 0.000000 0.000000 0.000000
# 4 0.000000 0.000000 0.000000 0.032450 0.000000 0.000000
# 5 0.000000 0.000000 0.000000 0.000000 0.030858 0.000000
# 6 0.000000 0.000000 0.000000 0.000000 0.000000 0.045737
#
#
# Mechanical properties :
#
#
# Convention : Reuss Voigt Hill
#
# Bulk Modulus (GPa) = 28.11095 32.25485 30.18290
# Shear Modulus (GPa) = 29.82606 32.13815 30.98211
#
# Velocity S-wave (km/s) = 3.70297 3.84382 3.77405
# Velocity P-wave (km/s) = 5.58625 5.87609 5.73300
#
# Compressibility (1/GPa) = 0.03557332
#
# Stress axis : x y z
#
# Youngs Moduli (GPa) = 51.52683 81.18782 106.04618
#
# Poissons Ratio (x) = -0.09326 0.28931
# Poissons Ratio (y) = -0.05919 0.12843
# Poissons Ratio (z) = 0.14057 0.09833
#
# Static dielectric constant tensor:
#      x y z
#    x 4.019900 0.000000 0.000000 
#    y 0.000000 3.953410 0.000000 
#    z 0.000000 0.000000 4.000930 
# 
# 
# High freq. dielectric constant tensor:
#      x y z
#    x 1.850540 0.000000 0.000000 
#    y 0.000000 1.871350 0.000000 
#    z 0.000000 0.000000 1.851310 
# 
# From -- ./inp_files/21281.got.cif
#   From: 2010.03.12/outbox.cif.g09.slc.cpg/sg68_11_cif.got.tgz:21281.got - 2010.04.10 23:14:56.
