data_PCOD8283693
_publ_section_title
;
Structure prediction by ZEFSAII (Michael W. Deem and Ramdas Pophale) SiO2 
 PCOD8283693
Probable space group: C C C A
;
_chemical_formula_sum "Si O2"
_cell_formula_units_Z 68
_cell_length_a 20.597624
_cell_length_b 26.844916
_cell_length_c 5.218160
_cell_angle_alpha 90.000000
_cell_angle_beta 90.000000
_cell_angle_gamma 90.000000
_cell_volume 2885.337145
_symmetry_space_group_name_H-M "C C C A"
_symmetry_group_IT_number 68
_space_group.IT_coordinate_system_code '2'
_symmetry_cell_setting 'orthorhombic'
loop_
_space_group_symop_operation_xyz
x,y,z
-x,1/2-y,z
x,1/2-y,1/2-z
-x,y,1/2-z
-x,-y,-z
x,1/2+y,-z
-x,1/2+y,1/2+z
x,-y,1/2+z
1/2+x,1/2+y,z
1/2-x,-y,z
1/2+x,-y,1/2-z
1/2-x,1/2+y,1/2-z
1/2-x,1/2-y,-z
1/2+x,y,-z
1/2-x,y,1/2+z
1/2+x,1/2-y,1/2+z
loop_
_atom_site_type_symbol
_atom_site_label
_atom_site_fract_x
_atom_site_fract_y
_atom_site_fract_z
Si Si1 0.139576 0.527447 0.311567
Si Si2 0.602075 0.298753 0.903287
Si Si3 0.500000 0.750000 0.750000
Si Si4 0.206445 0.869325 0.086220
Si Si5 0.500000 0.871474 0.250000
Si Si6 0.500000 0.061736 0.250000
O O1 0.166541 0.490835 0.535703
O O2 0.161996 0.582385 0.386076
O O3 0.061856 0.525878 0.285400
O O4 0.626966 0.250000 0.750000
O O5 0.567750 0.340114 0.724231
O O6 0.543195 0.286242 0.086048
O O7 0.660754 0.320658 0.072646
O O8 0.254286 0.867760 0.323324
O O9 0.504392 0.904580 0.500566
#
# Coordination Sequence:
#
# PCOD8283693 Si02
#       6
#    16  16   4  16   8   8
#     4  12  26  47  77 110 147 193 249 315 382 448
#     4  12  27  45  79 113 151 196 253 309 382 455
#     4  12  24  48  76 120 148 188 248 312 398 462
#     4  12  31  51  74 106 150 206 257 303 364 444
#     4  12  23  43  76 112 150 196 236 311 383 466
#     4  12  25  43  77 115 156 183 241 321 397 446
#
# _framework density 23.567437000000002
#
# number of rings (size 3 to 8) (size 9 to 14) (size 15 to 20)
#    0.000    0.000    4.706    4.235    6.588    3.765 
#    0.000    0.000    0.000    0.000    0.000    0.000 
#    0.000    0.000    0.000    0.000    0.000    0.000 
#
# Total GULP energy -421634.909823 kJ/mol
# GULP energy per Si atom -12401.026759 kJ/mol
# Density = 2.351380 g / cm^3
# Si number density = 23.567437 Si / 1000 Ang^3
#
#
#
# Elastic Constant Matrix: (Units=GPa)
#
#
# Indices 1 2 3 4 5 6 
#
# 1 116.2314 30.6359 50.9267 0.0000 0.0000 0.0000
# 2 30.6359 112.1270 56.0193 0.0000 0.0000 0.0000
# 3 50.9267 56.0193 192.2942 0.0000 0.0000 0.0000
# 4 0.0000 0.0000 0.0000 87.2937 0.0000 0.0000
# 5 0.0000 0.0000 0.0000 0.0000 40.6374 0.0000
# 6 0.0000 0.0000 0.0000 0.0000 0.0000 25.8348
#
#
#
# Elastic Compliance Matrix: (Units=1/GPa)
#
#
# Indices 1 2 3 4 5 6 
#
# 1 0.009986 -0.001647 -0.002165 0.000000 0.000000 0.000000
# 2 -0.001647 0.010709 -0.002684 0.000000 0.000000 0.000000
# 3 -0.002165 -0.002684 0.006556 0.000000 0.000000 0.000000
# 4 0.000000 0.000000 0.000000 0.011456 0.000000 0.000000
# 5 0.000000 0.000000 0.000000 0.000000 0.024608 0.000000
# 6 0.000000 0.000000 0.000000 0.000000 0.000000 0.038708
#
#
# Mechanical properties :
#
#
# Convention : Reuss Voigt Hill
#
# Bulk Modulus (GPa) = 70.12640 77.31294 73.71967
# Shear Modulus (GPa) = 41.74802 49.62454 45.68628
#
# Velocity S-wave (km/s) = 4.21340 4.59370 4.40766
# Velocity P-wave (km/s) = 7.31372 7.81104 7.56647
#
# Compressibility (1/GPa) = 0.01425996
#
# Stress axis : x y z
#
# Youngs Moduli (GPa) = 100.13854 93.37765 152.54294
#
# Poissons Ratio (x) = 0.15378 0.33025
# Poissons Ratio (y) = 0.16491 0.40937
# Poissons Ratio (z) = 0.21679 0.25059
#
# Static dielectric constant tensor:
#      x y z
#    x 4.061500 0.000000 0.000000 
#    y 0.000000 4.371890 0.000000 
#    z 0.000000 0.000000 4.626200 
# 
# 
# High freq. dielectric constant tensor:
#      x y z
#    x 1.931360 0.000000 0.000000 
#    y 0.000000 1.944050 0.000000 
#    z 0.000000 0.000000 1.950910 
# 
# From -- ./inp_files/1561.got.cif
#   From: 2010.03.12/outbox.cif.g09.slc.cpg/sg68_1_cif.got.tgz:1561.got - 2010.04.10 23:14:56.
