data_PCOD8283342
_publ_section_title
;
Structure prediction by ZEFSAII (Michael W. Deem and Ramdas Pophale) SiO2 
 PCOD8283342
Probable space group: C C C A
;
_chemical_formula_sum "Si O2"
_cell_formula_units_Z 96
_cell_length_a 22.197320
_cell_length_b 14.400810
_cell_length_c 14.535172
_cell_angle_alpha 90.000000
_cell_angle_beta 90.000000
_cell_angle_gamma 90.000000
_cell_volume 4646.304184
_symmetry_space_group_name_H-M "C C C A"
_symmetry_group_IT_number 68
_space_group.IT_coordinate_system_code '2'
_symmetry_cell_setting 'orthorhombic'
loop_
_space_group_symop_operation_xyz
x,y,z
-x,1/2-y,z
x,1/2-y,1/2-z
-x,y,1/2-z
-x,-y,-z
x,1/2+y,-z
-x,1/2+y,1/2+z
x,-y,1/2+z
1/2+x,1/2+y,z
1/2-x,-y,z
1/2+x,-y,1/2-z
1/2-x,1/2+y,1/2-z
1/2-x,1/2-y,-z
1/2+x,y,-z
1/2-x,y,1/2+z
1/2+x,1/2-y,1/2+z
loop_
_atom_site_type_symbol
_atom_site_label
_atom_site_fract_x
_atom_site_fract_y
_atom_site_fract_z
Si Si1 0.820262 0.504398 0.288938
Si Si2 0.763151 0.815184 0.915767
Si Si3 0.070796 0.250257 0.515446
Si Si4 0.136578 0.099156 0.614594
Si Si5 0.860840 0.699427 0.833294
Si Si6 0.355349 0.932562 0.984055
O O1 0.750000 0.500000 0.257184
O O2 0.866145 0.548579 0.213468
O O3 0.847805 0.404639 0.306480
O O4 0.824745 0.559434 0.384437
O O5 0.702285 0.857056 0.879459
O O6 0.797242 0.754293 0.839845
O O7 0.750000 0.750000 0.000000
O O8 0.804832 0.900610 0.944725
O O9 0.090022 0.185394 0.602460
O O10 0.101461 0.204519 0.426442
O O11 0.091340 0.357127 0.525729
O O12 0.000000 0.250000 0.504456
O O13 0.122807 0.029654 0.528803
O O14 0.897052 0.750000 0.750000
#
# Coordination Sequence:
#
# PCOD8283342 Si02
#       6
#    16  16  16  16  16  16
#     4  12  23  37  66 105 135 171 212 274 346 422
#     4  11  19  37  64  95 138 177 202 270 345 426
#     4  11  26  47  69  89 131 188 234 286 331 397
#     4  12  23  42  65 101 137 177 224 274 350 407
#     4  11  22  41  65 101 132 170 224 277 344 407
#     4  11  22  41  66  96 133 172 224 275 343 405
#
# _framework density 20.661583
#
# number of rings (size 3 to 8) (size 9 to 14) (size 15 to 20)
#    0.000    0.667    5.000    6.500    0.000    1.667 
#    0.000    1.667    0.000    0.000    0.000    0.000 
#    0.000    0.000    0.000    0.000    0.000    0.000 
#
# Total GULP energy -595030.761529 kJ/mol
# GULP energy per Si atom -12396.474199 kJ/mol
# Density = 2.061456 g / cm^3
# Si number density = 20.661583 Si / 1000 Ang^3
#
#
#
# Elastic Constant Matrix: (Units=GPa)
#
#
# Indices 1 2 3 4 5 6 
#
# 1 101.7422 50.6983 13.4036 0.0000 0.0000 0.0000
# 2 50.6983 107.0108 25.7120 0.0000 0.0000 0.0000
# 3 13.4036 25.7120 88.4606 0.0000 0.0000 0.0000
# 4 0.0000 0.0000 0.0000 51.9785 0.0000 0.0000
# 5 0.0000 0.0000 0.0000 0.0000 1.9708 0.0000
# 6 0.0000 0.0000 0.0000 0.0000 0.0000 14.5181
#
#
#
# Elastic Compliance Matrix: (Units=1/GPa)
#
#
# Indices 1 2 3 4 5 6 
#
# 1 0.012869 -0.006051 -0.000191 0.000000 0.000000 0.000000
# 2 -0.006051 0.012892 -0.002830 0.000000 0.000000 0.000000
# 3 -0.000191 -0.002830 0.012156 0.000000 0.000000 0.000000
# 4 0.000000 0.000000 0.000000 0.019239 0.000000 0.000000
# 5 0.000000 0.000000 0.000000 0.000000 0.507412 0.000000
# 6 0.000000 0.000000 0.000000 0.000000 0.000000 0.068879
#
#
# Mechanical properties :
#
#
# Convention : Reuss Voigt Hill
#
# Bulk Modulus (GPa) = 50.57650 52.98239 51.77945
# Shear Modulus (GPa) = 7.59668 27.52012 17.55840
#
# Velocity S-wave (km/s) = 1.91956 3.65354 2.91831
# Velocity P-wave (km/s) = 5.42629 6.59518 6.03908
#
# Compressibility (1/GPa) = 0.01977203
#
# Stress axis : x y z
#
# Youngs Moduli (GPa) = 77.70476 77.56918 82.26346
#
# Poissons Ratio (x) = 0.46938 0.01572
# Poissons Ratio (y) = 0.47020 0.23283
# Poissons Ratio (z) = 0.01485 0.21954
#
# Static dielectric constant tensor:
#      x y z
#    x 3.376960 0.000000 0.000000 
#    y 0.000000 4.111340 0.000000 
#    z 0.000000 0.000000 3.762230 
# 
# 
# High freq. dielectric constant tensor:
#      x y z
#    x 1.762150 0.000000 0.000000 
#    y 0.000000 1.836410 0.000000 
#    z 0.000000 0.000000 1.818970 
# 
# From -- ./inp_files/24480.got.cif
#   From: 2010.03.12/outbox.cif.g09.slc.cpg/sg68_13_cif.got.tgz:24480.got - 2010.04.10 23:14:56.
