data_PCOD8283354
_publ_section_title
;
Structure prediction by ZEFSAII (Michael W. Deem and Ramdas Pophale) SiO2 
 PCOD8283354
Probable space group: C C C A
;
_chemical_formula_sum "Si O2"
_cell_formula_units_Z 112
_cell_length_a 13.944060
_cell_length_b 27.747153
_cell_length_c 13.515386
_cell_angle_alpha 90.000000
_cell_angle_beta 90.000000
_cell_angle_gamma 90.000000
_cell_volume 5229.210510
_symmetry_space_group_name_H-M "C C C A"
_symmetry_group_IT_number 68
_space_group.IT_coordinate_system_code '2'
_symmetry_cell_setting 'orthorhombic'
loop_
_space_group_symop_operation_xyz
x,y,z
-x,1/2-y,z
x,1/2-y,1/2-z
-x,y,1/2-z
-x,-y,-z
x,1/2+y,-z
-x,1/2+y,1/2+z
x,-y,1/2+z
1/2+x,1/2+y,z
1/2-x,-y,z
1/2+x,-y,1/2-z
1/2-x,1/2+y,1/2-z
1/2-x,1/2-y,-z
1/2+x,y,-z
1/2-x,y,1/2+z
1/2+x,1/2-y,1/2+z
loop_
_atom_site_type_symbol
_atom_site_label
_atom_site_fract_x
_atom_site_fract_y
_atom_site_fract_z
Si Si1 0.082754 0.137744 0.829947
Si Si2 0.310777 0.954865 0.551788
Si Si3 0.514070 0.959082 0.637193
Si Si4 0.171284 0.963473 0.833270
Si Si5 0.108604 0.266087 0.554987
Si Si6 0.208709 0.722480 0.850439
Si Si7 0.765799 0.383345 0.202202
O O1 0.059370 0.091355 0.901226
O O2 0.110352 0.179822 0.905377
O O3 0.180093 0.125176 0.776040
O O4 0.000000 0.152595 0.750000
O O5 0.419489 0.970374 0.575676
O O6 0.291485 0.942982 0.437302
O O7 0.278636 0.906646 0.604810
O O8 0.250000 0.000000 0.588587
O O9 0.500000 0.943545 0.750000
O O10 0.575192 0.007837 0.639056
O O11 0.157297 0.919448 0.755964
O O12 0.250000 0.000000 0.786900
O O13 0.140661 0.261495 0.440644
O O14 0.179728 0.232665 0.621257
O O15 0.000000 0.250000 0.566390
O O16 0.180314 0.750000 0.750000
O O17 0.186475 0.666477 0.829732
#
# Coordination Sequence:
#
# PCOD8283354 Si02
#       7
#    16  16  16  16  16  16  16
#     4  11  21  38  69 101 129 170 229 287 329 391
#     4  11  24  39  65  92 131 179 219 272 331 391
#     4  11  20  39  63  94 133 173 221 273 326 392
#     4  11  23  38  62  92 134 175 218 270 327 398
#     4  11  26  45  74 105 136 176 232 284 351 413
#     4  11  26  46  74 102 139 179 224 285 348 426
#     4  12  22  40  66  96 132 172 220 276 338 387
#
# _framework density 21.418147000000001
#
# number of rings (size 3 to 8) (size 9 to 14) (size 15 to 20)
#    0.000    0.857    5.714    2.571    2.000    0.286 
#    0.000    1.429    3.143    0.000    0.000    0.000 
#    0.000    0.000    0.000    0.000    0.000    0.000 
#
# Total GULP energy -694177.100600 kJ/mol
# GULP energy per Si atom -12396.019654 kJ/mol
# Density = 2.136940 g / cm^3
# Si number density = 21.418147 Si / 1000 Ang^3
#
#
#
# Elastic Constant Matrix: (Units=GPa)
#
#
# Indices 1 2 3 4 5 6 
#
# 1 34.9605 24.0000 6.7835 0.0000 0.0000 0.0000
# 2 24.0000 144.7147 50.4419 0.0000 0.0000 0.0000
# 3 6.7835 50.4419 96.8266 0.0000 0.0000 0.0000
# 4 0.0000 0.0000 0.0000 37.7189 0.0000 0.0000
# 5 0.0000 0.0000 0.0000 0.0000 22.2883 0.0000
# 6 0.0000 0.0000 0.0000 0.0000 0.0000 27.8499
#
#
#
# Elastic Compliance Matrix: (Units=1/GPa)
#
#
# Indices 1 2 3 4 5 6 
#
# 1 0.032312 -0.005583 0.000645 0.000000 0.000000 0.000000
# 2 -0.005583 0.009408 -0.004510 0.000000 0.000000 0.000000
# 3 0.000645 -0.004510 0.012632 0.000000 0.000000 0.000000
# 4 0.000000 0.000000 0.000000 0.026512 0.000000 0.000000
# 5 0.000000 0.000000 0.000000 0.000000 0.044867 0.000000
# 6 0.000000 0.000000 0.000000 0.000000 0.000000 0.035907
#
#
# Mechanical properties :
#
#
# Convention : Reuss Voigt Hill
#
# Bulk Modulus (GPa) = 28.20492 48.77251 38.48871
# Shear Modulus (GPa) = 25.99399 30.58986 28.29192
#
# Velocity S-wave (km/s) = 3.48752 3.78328 3.63841
# Velocity P-wave (km/s) = 5.42350 6.47343 5.97158
#
# Compressibility (1/GPa) = 0.03545481
#
# Stress axis : x y z
#
# Youngs Moduli (GPa) = 30.94870 106.29085 79.16374
#
# Poissons Ratio (x) = 0.59347 -0.05106
# Poissons Ratio (y) = 0.17280 0.35703
# Poissons Ratio (z) = -0.01996 0.47937
#
# Static dielectric constant tensor:
#      x y z
#    x 3.949770 0.000000 0.000000 
#    y 0.000000 3.109950 0.000000 
#    z 0.000000 0.000000 4.079760 
# 
# 
# High freq. dielectric constant tensor:
#      x y z
#    x 1.825180 0.000000 0.000000 
#    y 0.000000 1.847020 0.000000 
#    z 0.000000 0.000000 1.846190 
# 
# From -- ./inp_files/22596.got.cif
#   From: 2010.03.12/outbox.cif.g09.slc.cpg/sg68_12_cif.got.tgz:22596.got - 2010.04.10 23:14:56.
