data_PCOD8283430
_publ_section_title
;
Structure prediction by ZEFSAII (Michael W. Deem and Ramdas Pophale) SiO2 
 PCOD8283430
Probable space group: C C C A
;
_chemical_formula_sum "Si O2"
_cell_formula_units_Z 104
_cell_length_a 13.709124
_cell_length_b 18.388637
_cell_length_c 19.591904
_cell_angle_alpha 90.000000
_cell_angle_beta 90.000000
_cell_angle_gamma 90.000000
_cell_volume 4938.964317
_symmetry_space_group_name_H-M "C C C A"
_symmetry_group_IT_number 68
_space_group.IT_coordinate_system_code '2'
_symmetry_cell_setting 'orthorhombic'
loop_
_space_group_symop_operation_xyz
x,y,z
-x,1/2-y,z
x,1/2-y,1/2-z
-x,y,1/2-z
-x,-y,-z
x,1/2+y,-z
-x,1/2+y,1/2+z
x,-y,1/2+z
1/2+x,1/2+y,z
1/2-x,-y,z
1/2+x,-y,1/2-z
1/2-x,1/2+y,1/2-z
1/2-x,1/2-y,-z
1/2+x,y,-z
1/2-x,y,1/2+z
1/2+x,1/2-y,1/2+z
loop_
_atom_site_type_symbol
_atom_site_label
_atom_site_fract_x
_atom_site_fract_y
_atom_site_fract_z
Si Si1 0.419539 0.340633 0.510576
Si Si2 0.500000 0.903212 0.750000
Si Si3 0.580590 0.189606 0.364639
Si Si4 0.231335 0.227812 0.326144
Si Si5 0.380495 0.195477 0.561383
Si Si6 0.182669 0.068002 0.838261
Si Si7 0.265753 0.078273 0.485824
O O1 0.435851 0.361998 0.431072
O O2 0.382483 0.256657 0.502272
O O3 0.514014 0.344880 0.559976
O O4 0.337567 0.392237 0.543373
O O5 0.427507 0.857370 0.703378
O O6 0.421368 0.944282 0.799158
O O7 0.500000 0.250000 0.361899
O O8 0.684403 0.227461 0.363041
O O9 0.207975 0.250000 0.250000
O O10 0.137862 0.255857 0.370371
O O11 0.258940 0.142713 0.323385
O O12 0.302114 0.133471 0.544042
O O13 0.162838 0.068678 0.920476
O O14 0.250000 0.000000 0.817117
O O15 0.250000 0.000000 0.521435
#
# Coordination Sequence:
#
# PCOD8283430 Si02
#       7
#    16   8  16  16  16  16  16
#     4  11  22  38  67  97 126 174 223 267 339 387
#     4  12  23  40  66 100 131 162 220 282 335 388
#     4  12  19  34  66 103 122 155 218 290 327 381
#     4  12  22  40  67  98 130 170 225 273 333 399
#     4  11  22  40  66  94 131 172 216 281 324 400
#     4  11  24  41  65  95 136 178 215 269 339 408
#     4  11  23  42  67  96 136 178 219 279 346 399
#
# _framework density 21.057046
#
# number of rings (size 3 to 8) (size 9 to 14) (size 15 to 20)
#    0.000    0.615    7.692    2.538    0.000    0.615 
#    0.000    7.692    0.000    0.000    0.000    0.000 
#    0.000    0.000    0.000    0.000    0.000    0.000 
#
# Total GULP energy -644188.599204 kJ/mol
# GULP energy per Si atom -12388.242292 kJ/mol
# Density = 2.100912 g / cm^3
# Si number density = 21.057046 Si / 1000 Ang^3
#
#
#
# Elastic Constant Matrix: (Units=GPa)
#
#
# Indices 1 2 3 4 5 6 
#
# 1 112.1125 49.8668 30.4093 0.0000 0.0000 0.0000
# 2 49.8668 114.3269 25.3408 0.0000 0.0000 0.0000
# 3 30.4093 25.3408 100.4531 0.0000 0.0000 0.0000
# 4 0.0000 0.0000 0.0000 22.0194 0.0000 0.0000
# 5 0.0000 0.0000 0.0000 0.0000 25.4771 0.0000
# 6 0.0000 0.0000 0.0000 0.0000 0.0000 19.5202
#
#
#
# Elastic Compliance Matrix: (Units=1/GPa)
#
#
# Indices 1 2 3 4 5 6 
#
# 1 0.011573 -0.004524 -0.002362 0.000000 0.000000 0.000000
# 2 -0.004524 0.011034 -0.001414 0.000000 0.000000 0.000000
# 3 -0.002362 -0.001414 0.011027 0.000000 0.000000 0.000000
# 4 0.000000 0.000000 0.000000 0.045415 0.000000 0.000000
# 5 0.000000 0.000000 0.000000 0.000000 0.039251 0.000000
# 6 0.000000 0.000000 0.000000 0.000000 0.000000 0.051229
#
#
# Mechanical properties :
#
#
# Convention : Reuss Voigt Hill
#
# Bulk Modulus (GPa) = 58.71030 59.79183 59.25106
# Shear Modulus (GPa) = 26.06820 28.15506 27.11163
#
# Velocity S-wave (km/s) = 3.52231 3.66058 3.59211
# Velocity P-wave (km/s) = 6.66966 6.80612 6.73823
#
# Compressibility (1/GPa) = 0.01703279
#
# Stress axis : x y z
#
# Youngs Moduli (GPa) = 86.41115 90.63259 90.69001
#
# Poissons Ratio (x) = 0.41004 0.21421
# Poissons Ratio (y) = 0.39094 0.12822
# Poissons Ratio (z) = 0.20410 0.12814
#
# Static dielectric constant tensor:
#      x y z
#    x 3.776710 0.000000 0.000000 
#    y 0.000000 3.721060 0.000000 
#    z 0.000000 0.000000 0.958490 
# 
# 
# High freq. dielectric constant tensor:
#      x y z
#    x 1.825730 0.000000 0.000000 
#    y 0.000000 1.805910 0.000000 
#    z 0.000000 0.000000 1.819820 
# 
# From -- ./inp_files/38790.got.cif
#   From: 2010.03.12/outbox.cif.g09.slc.cpg/sg68_20_cif.got.tgz:38790.got - 2010.04.10 23:14:56.
