data_PCOD8283253
_publ_section_title
;
Structure prediction by ZEFSAII (Michael W. Deem and Ramdas Pophale) SiO2 
 PCOD8283253
Probable space group: C C C A
;
_chemical_formula_sum "Si O2"
_cell_formula_units_Z 104
_cell_length_a 8.582168
_cell_length_b 20.195039
_cell_length_c 27.425566
_cell_angle_alpha 90.000000
_cell_angle_beta 90.000000
_cell_angle_gamma 90.000000
_cell_volume 4753.322787
_symmetry_space_group_name_H-M "C C C A"
_symmetry_group_IT_number 68
_space_group.IT_coordinate_system_code '2'
_symmetry_cell_setting 'orthorhombic'
loop_
_space_group_symop_operation_xyz
x,y,z
-x,1/2-y,z
x,1/2-y,1/2-z
-x,y,1/2-z
-x,-y,-z
x,1/2+y,-z
-x,1/2+y,1/2+z
x,-y,1/2+z
1/2+x,1/2+y,z
1/2-x,-y,z
1/2+x,-y,1/2-z
1/2-x,1/2+y,1/2-z
1/2-x,1/2-y,-z
1/2+x,y,-z
1/2-x,y,1/2+z
1/2+x,1/2-y,1/2+z
loop_
_atom_site_type_symbol
_atom_site_label
_atom_site_fract_x
_atom_site_fract_y
_atom_site_fract_z
Si Si1 0.912055 0.901485 0.545950
Si Si2 0.250000 0.500000 0.118077
Si Si3 0.336657 0.714290 0.108209
Si Si4 0.737573 0.424828 0.056317
Si Si5 0.833429 0.624589 0.324521
Si Si6 0.344426 0.167825 0.139346
Si Si7 0.324205 0.826356 0.237192
O O1 0.832708 0.831008 0.559485
O O2 0.867603 0.920423 0.491571
O O3 0.096679 0.890512 0.547457
O O4 0.868016 0.960351 0.583172
O O5 0.155581 0.550613 0.153200
O O6 0.500000 0.750000 0.115772
O O7 0.314399 0.663757 0.153000
O O8 0.193220 0.766178 0.107628
O O9 0.750000 0.500000 0.071647
O O10 0.651744 0.392167 0.101734
O O11 0.795647 0.625697 0.266887
O O12 0.987599 0.667968 0.335082
O O13 0.209450 0.160929 0.180158
O O14 0.290144 0.750000 0.250000
O O15 0.500000 0.846852 0.250000
#
# Coordination Sequence:
#
# PCOD8283253 Si02
#       7
#    16   8  16  16  16  16  16
#     4  11  25  44  69  97 138 181 233 284 344 418
#     4  10  24  46  74  96 140 184 226 284 344 400
#     4  11  22  43  66  98 138 179 220 284 347 398
#     4  12  26  44  69  98 138 185 234 279 345 414
#     4  11  24  43  72 103 138 177 231 281 338 415
#     4  12  25  43  70 104 136 174 233 288 338 410
#     4  11  24  43  70 100 139 183 222 275 350 408
#
# _framework density 21.879432999999999
#
# number of rings (size 3 to 8) (size 9 to 14) (size 15 to 20)
#    0.000    0.769    3.846    3.231    6.462    1.231 
#    1.385    0.000    0.000    0.000    0.000    0.000 
#    0.000    0.000    0.000    0.000    0.000    0.000 
#
# Total GULP energy -644853.832098 kJ/mol
# GULP energy per Si atom -12401.035233 kJ/mol
# Density = 2.182963 g / cm^3
# Si number density = 21.879433 Si / 1000 Ang^3
#
#
#
# Elastic Constant Matrix: (Units=GPa)
#
#
# Indices 1 2 3 4 5 6 
#
# 1 88.6489 28.8760 12.8933 0.0000 0.0000 0.0000
# 2 28.8760 114.8137 49.8046 0.0000 0.0000 0.0000
# 3 12.8933 49.8046 99.2109 0.0000 0.0000 0.0000
# 4 0.0000 0.0000 0.0000 29.8538 0.0000 0.0000
# 5 0.0000 0.0000 0.0000 0.0000 31.3613 0.0000
# 6 0.0000 0.0000 0.0000 0.0000 0.0000 27.5604
#
#
#
# Elastic Compliance Matrix: (Units=1/GPa)
#
#
# Indices 1 2 3 4 5 6 
#
# 1 0.012287 -0.003065 -0.000058 0.000000 0.000000 0.000000
# 2 -0.003065 0.011899 -0.005575 0.000000 0.000000 0.000000
# 3 -0.000058 -0.005575 0.012886 0.000000 0.000000 0.000000
# 4 0.000000 0.000000 0.000000 0.033497 0.000000 0.000000
# 5 0.000000 0.000000 0.000000 0.000000 0.031886 0.000000
# 6 0.000000 0.000000 0.000000 0.000000 0.000000 0.036284
#
#
# Mechanical properties :
#
#
# Convention : Reuss Voigt Hill
#
# Bulk Modulus (GPa) = 50.82442 53.98014 52.40228
# Shear Modulus (GPa) = 30.73249 31.82840 31.28045
#
# Velocity S-wave (km/s) = 3.75190 3.81821 3.78520
# Velocity P-wave (km/s) = 6.48450 6.64557 6.56553
#
# Compressibility (1/GPa) = 0.01967558
#
# Stress axis : x y z
#
# Youngs Moduli (GPa) = 81.38475 84.04045 77.60470
#
# Poissons Ratio (x) = 0.25759 0.00451
# Poissons Ratio (y) = 0.24945 0.43265
# Poissons Ratio (z) = 0.00473 0.46853
#
# Static dielectric constant tensor:
#      x y z
#    x 3.865850 0.000000 0.000000 
#    y 0.000000 4.007760 0.000000 
#    z 0.000000 0.000000 3.981920 
# 
# 
# High freq. dielectric constant tensor:
#      x y z
#    x 1.862290 0.000000 0.000000 
#    y 0.000000 1.855850 0.000000 
#    z 0.000000 0.000000 1.859060 
# 
# From -- ./inp_files/49421.got.cif
#   From: 2010.03.12/outbox.cif.g09.slc.cpg/sg68_25_cif.got.tgz:49421.got - 2010.04.10 23:14:56.
