data_PCOD8283222
_publ_section_title
;
Structure prediction by ZEFSAII (Michael W. Deem and Ramdas Pophale) SiO2 
 PCOD8283222
Probable space group: C C C A
;
_chemical_formula_sum "Si O2"
_cell_formula_units_Z 64
_cell_length_a 10.213491
_cell_length_b 29.984497
_cell_length_c 8.805378
_cell_angle_alpha 90.000000
_cell_angle_beta 90.000000
_cell_angle_gamma 90.000000
_cell_volume 2696.615227
_symmetry_space_group_name_H-M "C C C A"
_symmetry_group_IT_number 68
_space_group.IT_coordinate_system_code '2'
_symmetry_cell_setting 'orthorhombic'
loop_
_space_group_symop_operation_xyz
x,y,z
-x,1/2-y,z
x,1/2-y,1/2-z
-x,y,1/2-z
-x,-y,-z
x,1/2+y,-z
-x,1/2+y,1/2+z
x,-y,1/2+z
1/2+x,1/2+y,z
1/2-x,-y,z
1/2+x,-y,1/2-z
1/2-x,1/2+y,1/2-z
1/2-x,1/2-y,-z
1/2+x,y,-z
1/2-x,y,1/2+z
1/2+x,1/2-y,1/2+z
loop_
_atom_site_type_symbol
_atom_site_label
_atom_site_fract_x
_atom_site_fract_y
_atom_site_fract_z
Si Si1 0.596891 0.787785 0.455948
Si Si2 0.750000 0.500000 0.310918
Si Si3 0.833323 0.562697 0.060910
Si Si4 0.444557 0.389332 0.912643
Si Si5 0.309584 0.750000 0.750000
O O1 0.500000 0.750000 0.390971
O O2 0.542901 0.836316 0.421846
O O3 0.607854 0.782297 0.639089
O O4 0.731856 0.782287 0.364866
O O5 0.840903 0.469387 0.415016
O O6 0.842189 0.531711 0.209013
O O7 0.962812 0.592758 0.048370
O O8 0.702453 0.593108 0.062222
O O9 0.500000 0.404990 0.750000
#
# Coordination Sequence:
#
# PCOD8283222 Si02
#       5
#    16   8  16  16   8
#     4  11  25  46  71 104 147 197 240 299 364 438
#     4  10  24  50  76 106 146 196 250 292 402 442
#     4  11  26  47  76 110 146 196 241 318 363 463
#     4  12  27  47  75 117 149 190 255 309 372 434
#     4  10  24  44  72 102 138 206 240 292 364 432
#
# _framework density 23.733456
#
# number of rings (size 3 to 8) (size 9 to 14) (size 15 to 20)
#    0.000    1.000    2.500    2.250   10.500    7.000 
#    4.500    0.000    0.000    0.000    0.000    0.000 
#    0.000    0.000    0.000    0.000    0.000    0.000 
#
# Total GULP energy -396804.947690 kJ/mol
# GULP energy per Si atom -12400.154615 kJ/mol
# Density = 2.367944 g / cm^3
# Si number density = 23.733456 Si / 1000 Ang^3
#
#
#
# Elastic Constant Matrix: (Units=GPa)
#
#
# Indices 1 2 3 4 5 6 
#
# 1 75.8422 24.8210 -0.9483 0.0000 0.0000 0.0000
# 2 24.8210 138.5939 15.9142 0.0000 0.0000 0.0000
# 3 -0.9483 15.9142 112.7236 0.0000 0.0000 0.0000
# 4 0.0000 0.0000 0.0000 59.5045 0.0000 0.0000
# 5 0.0000 0.0000 0.0000 0.0000 32.0556 0.0000
# 6 0.0000 0.0000 0.0000 0.0000 0.0000 25.0021
#
#
#
# Elastic Compliance Matrix: (Units=1/GPa)
#
#
# Indices 1 2 3 4 5 6 
#
# 1 0.014032 -0.002568 0.000481 0.000000 0.000000 0.000000
# 2 -0.002568 0.007804 -0.001123 0.000000 0.000000 0.000000
# 3 0.000481 -0.001123 0.009034 0.000000 0.000000 0.000000
# 4 0.000000 0.000000 0.000000 0.016805 0.000000 0.000000
# 5 0.000000 0.000000 0.000000 0.000000 0.031196 0.000000
# 6 0.000000 0.000000 0.000000 0.000000 0.000000 0.039997
#
#
# Mechanical properties :
#
#
# Convention : Reuss Voigt Hill
#
# Bulk Modulus (GPa) = 40.90310 45.19260 43.04785
# Shear Modulus (GPa) = 37.47028 42.47062 39.97045
#
# Velocity S-wave (km/s) = 3.97772 4.23482 4.10828
# Velocity P-wave (km/s) = 6.19420 6.55703 6.37819
#
# Compressibility (1/GPa) = 0.02444803
#
# Stress axis : x y z
#
# Youngs Moduli (GPa) = 71.26690 128.13521 110.69412
#
# Poissons Ratio (x) = 0.32907 -0.05320
# Poissons Ratio (y) = 0.18302 0.12435
# Poissons Ratio (z) = -0.03425 0.14395
#
# Static dielectric constant tensor:
#      x y z
#    x 4.049580 0.000000 0.000000 
#    y 0.000000 4.120020 0.000000 
#    z 0.000000 0.000000 4.545440 
# 
# 
# High freq. dielectric constant tensor:
#      x y z
#    x 1.928790 0.000000 0.000000 
#    y 0.000000 1.941410 0.000000 
#    z 0.000000 0.000000 1.960760 
# 
# From -- ./inp_files/4086.got.cif
#   From: 2010.03.12/outbox.cif.g09.slc.cpg/sg68_3_cif.got.tgz:4086.got - 2010.04.10 23:14:56.
