data_PCOD8283413
_publ_section_title
;
Structure prediction by ZEFSAII (Michael W. Deem and Ramdas Pophale) SiO2 
 PCOD8283413
Probable space group: C C C A
;
_chemical_formula_sum "Si O2"
_cell_formula_units_Z 108
_cell_length_a 29.868530
_cell_length_b 11.409815
_cell_length_c 14.213012
_cell_angle_alpha 90.000000
_cell_angle_beta 90.000000
_cell_angle_gamma 90.000000
_cell_volume 4843.714920
_symmetry_space_group_name_H-M "C C C A"
_symmetry_group_IT_number 68
_space_group.IT_coordinate_system_code '2'
_symmetry_cell_setting 'orthorhombic'
loop_
_space_group_symop_operation_xyz
x,y,z
-x,1/2-y,z
x,1/2-y,1/2-z
-x,y,1/2-z
-x,-y,-z
x,1/2+y,-z
-x,1/2+y,1/2+z
x,-y,1/2+z
1/2+x,1/2+y,z
1/2-x,-y,z
1/2+x,-y,1/2-z
1/2-x,1/2+y,1/2-z
1/2-x,1/2-y,-z
1/2+x,y,-z
1/2-x,y,1/2+z
1/2+x,1/2-y,1/2+z
loop_
_atom_site_type_symbol
_atom_site_label
_atom_site_fract_x
_atom_site_fract_y
_atom_site_fract_z
Si Si1 0.585170 0.750000 0.250000
Si Si2 0.523882 0.864913 0.407928
Si Si3 0.500000 0.250000 0.250000
Si Si4 0.182386 0.546532 0.368421
Si Si5 0.267394 0.308079 0.845315
Si Si6 0.207005 0.077748 0.435316
Si Si7 0.367803 0.023454 0.800068
Si Si8 0.544984 0.932648 0.613232
O O1 0.556394 0.828011 0.322891
O O2 0.617035 0.841502 0.198366
O O3 0.500000 0.750000 0.446081
O O4 0.548296 0.912862 0.500826
O O5 0.487970 0.957529 0.366746
O O6 0.470343 0.173730 0.321184
O O7 0.216584 0.646541 0.332891
O O8 0.201400 0.416076 0.368283
O O9 0.171865 0.577232 0.477188
O O10 0.138210 0.540158 0.302038
O O11 0.284085 0.250000 0.750000
O O12 0.274128 0.208921 0.924302
O O13 0.181555 0.021730 0.346540
O O14 0.250000 0.000000 0.461558
O O15 0.403980 0.952726 0.858631
#
# Coordination Sequence:
#
# PCOD8283413 Si02
#       8
#     8  16   4  16  16  16  16  16
#     4  12  25  46  78 109 146 185 246 302 362 435
#     4  11  23  49  81 107 138 199 242 285 362 458
#     4  12  24  52  66 108 156 190 224 282 384 434
#     4  11  25  44  68 100 134 183 241 294 361 427
#     4  11  21  45  71  95 130 186 239 292 356 427
#     4  12  25  46  73  96 140 193 245 295 364 427
#     4  12  26  45  67 115 142 182 243 311 356 426
#     4  11  26  46  77 108 151 189 236 298 363 442
#
# _framework density 22.296935999999999
#
# number of rings (size 3 to 8) (size 9 to 14) (size 15 to 20)
#    0.000    0.593    5.185    3.333    2.074    0.000 
#    6.667    0.000    0.000    0.000    0.000    0.000 
#    0.000    0.000    0.000    0.000    0.000    0.000 
#
# Total GULP energy -669369.260443 kJ/mol
# GULP energy per Si atom -12395.727045 kJ/mol
# Density = 2.224619 g / cm^3
# Si number density = 22.296936 Si / 1000 Ang^3
#
#
#
# Elastic Constant Matrix: (Units=GPa)
#
#
# Indices 1 2 3 4 5 6 
#
# 1 93.8926 38.1248 44.0363 0.0000 0.0000 0.0000
# 2 38.1248 123.5369 48.9441 0.0000 0.0000 0.0000
# 3 44.0363 48.9441 132.4665 0.0000 0.0000 0.0000
# 4 0.0000 0.0000 0.0000 29.8736 0.0000 0.0000
# 5 0.0000 0.0000 0.0000 0.0000 55.2418 0.0000
# 6 0.0000 0.0000 0.0000 0.0000 0.0000 17.6091
#
#
#
# Elastic Compliance Matrix: (Units=1/GPa)
#
#
# Indices 1 2 3 4 5 6 
#
# 1 0.013383 -0.002773 -0.003424 0.000000 0.000000 0.000000
# 2 -0.002773 0.010058 -0.002794 0.000000 0.000000 0.000000
# 3 -0.003424 -0.002794 0.009720 0.000000 0.000000 0.000000
# 4 0.000000 0.000000 0.000000 0.033474 0.000000 0.000000
# 5 0.000000 0.000000 0.000000 0.000000 0.018102 0.000000
# 6 0.000000 0.000000 0.000000 0.000000 0.000000 0.056789
#
#
# Mechanical properties :
#
#
# Convention : Reuss Voigt Hill
#
# Bulk Modulus (GPa) = 65.89069 68.01185 66.95127
# Shear Modulus (GPa) = 30.38264 35.13094 32.75679
#
# Velocity S-wave (km/s) = 3.69540 3.97368 3.83706
# Velocity P-wave (km/s) = 6.91546 7.18488 7.05146
#
# Compressibility (1/GPa) = 0.01517665
#
# Stress axis : x y z
#
# Youngs Moduli (GPa) = 74.72440 99.42661 102.88329
#
# Poissons Ratio (x) = 0.27575 0.35228
# Poissons Ratio (y) = 0.20724 0.28747
# Poissons Ratio (z) = 0.25586 0.27781
#
# Static dielectric constant tensor:
#      x y z
#    x 3.848910 0.000000 0.000000 
#    y 0.000000 4.435880 0.000000 
#    z 0.000000 0.000000 4.492640 
# 
# 
# High freq. dielectric constant tensor:
#      x y z
#    x 1.858440 0.000000 0.000000 
#    y 0.000000 1.889140 0.000000 
#    z 0.000000 0.000000 1.897880 
# 
# From -- ./inp_files/26447.got.cif
#   From: 2010.03.12/outbox.cif.g09.slc.cpg/sg68_14_cif.got.tgz:26447.got - 2010.04.10 23:14:56.
