data_PCOD8283779
_publ_section_title
;
Structure prediction by ZEFSAII (Michael W. Deem and Ramdas Pophale) SiO2 
 PCOD8283779
Probable space group: F M M M
;
_chemical_formula_sum "Si O2"
_cell_formula_units_Z 128
_cell_length_a 17.921501
_cell_length_b 18.339199
_cell_length_c 20.176936
_cell_angle_alpha 90.000000
_cell_angle_beta 90.000000
_cell_angle_gamma 90.000000
_cell_volume 6631.472307
_symmetry_space_group_name_H-M "F M M M"
_symmetry_group_IT_number 69
_symmetry_cell_setting 'orthorhombic'
loop_
_space_group_symop_operation_xyz
x,y,z
-x,-y,z
x,-y,-z
-x,y,-z
-x,-y,-z
x,y,-z
-x,y,z
x,-y,z
x,1/2+y,1/2+z
-x,1/2-y,1/2+z
x,1/2-y,1/2-z
-x,1/2+y,1/2-z
-x,1/2-y,1/2-z
x,1/2+y,1/2-z
-x,1/2+y,1/2+z
x,1/2-y,1/2+z
1/2+x,y,1/2+z
1/2-x,-y,1/2+z
1/2+x,-y,1/2-z
1/2-x,y,1/2-z
1/2-x,-y,1/2-z
1/2+x,y,1/2-z
1/2-x,y,1/2+z
1/2+x,-y,1/2+z
1/2+x,1/2+y,z
1/2-x,1/2-y,z
1/2+x,1/2-y,-z
1/2-x,1/2+y,-z
1/2-x,1/2-y,-z
1/2+x,1/2+y,-z
1/2-x,1/2+y,z
1/2+x,1/2-y,z
loop_
_atom_site_type_symbol
_atom_site_label
_atom_site_fract_x
_atom_site_fract_y
_atom_site_fract_z
Si Si1 0.850429 0.825332 0.141585
Si Si2 0.681943 0.658415 0.641790
Si Si3 0.818571 0.809741 0.500000
Si Si4 0.915549 0.417891 0.245651
Si Si5 0.412027 0.679429 0.000000
O O1 0.767475 0.846834 0.164501
O O2 0.855507 0.738089 0.149312
O O3 0.905537 0.863246 0.193089
O O4 0.873164 0.852028 0.067233
O O5 0.683809 0.638482 0.563787
O O6 0.635802 0.600330 0.682969
O O7 0.750000 0.750000 0.500000
O O8 0.896910 0.765992 0.500000
O O9 0.896930 0.500000 0.269037
O O10 0.000000 0.411169 0.220871
O O11 0.500000 0.662398 0.000000
#
# Coordination Sequence:
#
# PCOD8283779 Si02
#       5
#    32  32  16  32  16
#     4  10  19  36  59  87 115 145 187 242 293 347
#     4  10  19  35  62  86 112 145 188 236 294 350
#     4  10  16  36  57  88 118 142 170 238 287 336
#     4  11  25  40  52  76 118 159 197 241 284 337
#     4  10  18  30  57  90 116 145 182 230 292 347
#
# _framework density 19.301898000000001
#
# number of rings (size 3 to 8) (size 9 to 14) (size 15 to 20)
#    0.000    1.750    5.000    2.250    0.000   10.000 
#    0.000    1.250    0.000    6.750    0.000    0.000 
#    0.000    0.000    0.000    0.000    0.000    0.000 
#
# Total GULP energy -396599.435211 kJ/mol
# GULP energy per Si atom -12393.732350 kJ/mol
# Density = 1.925797 g / cm^3
# Si number density = 19.301898 Si / 1000 Ang^3
#
#
#
# Elastic Constant Matrix: (Units=GPa)
#
#
# Indices 1 2 3 4 5 6 
#
# 1 98.5342 39.5518 35.9057 0.0000 0.0000 0.0000
# 2 39.5518 51.0160 22.5547 0.0000 0.0000 0.0000
# 3 35.9057 22.5547 105.8708 0.0000 0.0000 0.0000
# 4 0.0000 0.0000 0.0000 7.4985 0.0000 0.0000
# 5 0.0000 0.0000 0.0000 0.0000 33.0063 0.0000
# 6 0.0000 0.0000 0.0000 0.0000 0.0000 26.2050
#
#
#
# Elastic Compliance Matrix: (Units=1/GPa)
#
#
# Indices 1 2 3 4 5 6 
#
# 1 0.015544 -0.010731 -0.002986 0.000000 0.000000 0.000000
# 2 -0.010731 0.029048 -0.002549 0.000000 0.000000 0.000000
# 3 -0.002986 -0.002549 0.011001 0.000000 0.000000 0.000000
# 4 0.000000 0.000000 0.000000 0.133360 0.000000 0.000000
# 5 0.000000 0.000000 0.000000 0.000000 0.030297 0.000000
# 6 0.000000 0.000000 0.000000 0.000000 0.000000 0.038161
#
#
# Mechanical properties :
#
#
# Convention : Reuss Voigt Hill
#
# Bulk Modulus (GPa) = 43.36128 50.16059 46.76094
# Shear Modulus (GPa) = 16.79936 23.83588 20.31762
#
# Velocity S-wave (km/s) = 2.95337 3.51792 3.24794
# Velocity P-wave (km/s) = 5.84323 6.52264 6.19226
#
# Compressibility (1/GPa) = 0.02306205
#
# Stress axis : x y z
#
# Youngs Moduli (GPa) = 64.33261 34.42536 90.90025
#
# Poissons Ratio (x) = 0.36943 0.27139
# Poissons Ratio (y) = 0.69037 0.23171
# Poissons Ratio (z) = 0.19207 0.08775
#
# Static dielectric constant tensor:
#      x y z
#    x 3.553500 0.000000 0.000000 
#    y 0.000000 3.119000 0.000000 
#    z 0.000000 0.000000 3.770410 
# 
# 
# High freq. dielectric constant tensor:
#      x y z
#    x 1.757720 0.000000 0.000000 
#    y 0.000000 1.699140 0.000000 
#    z 0.000000 0.000000 1.768160 
# 
# From -- ./inp_files/16318.got.cif
#   From: 2010.03.12/outbox.cif.g09.slc.cpg/sg69_9_cif.got.tgz:16318.got - 2010.04.10 23:52:46.
