data_PCOD8283531
_publ_section_title
;
Structure prediction by ZEFSAII (Michael W. Deem and Ramdas Pophale) SiO2 
 PCOD8283531
Probable space group: C C C A
;
_chemical_formula_sum "Si O2"
_cell_formula_units_Z 112
_cell_length_a 14.525213
_cell_length_b 23.693793
_cell_length_c 14.732910
_cell_angle_alpha 90.000000
_cell_angle_beta 90.000000
_cell_angle_gamma 90.000000
_cell_volume 5070.439854
_symmetry_space_group_name_H-M "C C C A"
_symmetry_group_IT_number 68
_space_group.IT_coordinate_system_code '2'
_symmetry_cell_setting 'orthorhombic'
loop_
_space_group_symop_operation_xyz
x,y,z
-x,1/2-y,z
x,1/2-y,1/2-z
-x,y,1/2-z
-x,-y,-z
x,1/2+y,-z
-x,1/2+y,1/2+z
x,-y,1/2+z
1/2+x,1/2+y,z
1/2-x,-y,z
1/2+x,-y,1/2-z
1/2-x,1/2+y,1/2-z
1/2-x,1/2-y,-z
1/2+x,y,-z
1/2-x,y,1/2+z
1/2+x,1/2-y,1/2+z
loop_
_atom_site_type_symbol
_atom_site_label
_atom_site_fract_x
_atom_site_fract_y
_atom_site_fract_z
Si Si1 0.645807 0.153487 0.955023
Si Si2 0.087497 0.772050 0.979870
Si Si3 0.944798 0.824023 0.335757
Si Si4 0.793958 0.870419 0.596051
Si Si5 0.986640 0.422579 0.940942
Si Si6 0.851559 0.517486 0.959831
Si Si7 0.739224 0.814186 0.277554
O O1 0.653978 0.218084 0.992346
O O2 0.665042 0.157498 0.846549
O O3 0.725014 0.121862 0.011434
O O4 0.550825 0.119370 0.977312
O O5 0.130136 0.824684 0.929482
O O6 0.000000 0.750000 0.919547
O O7 0.037939 0.789335 0.073560
O O8 0.836233 0.818008 0.326109
O O9 0.000000 0.798277 0.250000
O O10 0.984708 0.886929 0.352447
O O11 0.838583 0.931977 0.612834
O O12 0.746866 0.852029 0.688759
O O13 0.902888 0.464374 0.913267
O O14 0.078653 0.457904 0.964424
O O15 0.750000 0.500000 0.998612
O O16 0.711901 0.750000 0.250000
#
# Coordination Sequence:
#
# PCOD8283531 Si02
#       7
#    16  16  16  16  16  16  16
#     4  12  22  44  69 104 145 185 233 295 362 443
#     4  12  23  40  67  99 141 184 221 287 365 428
#     4  12  26  40  66 106 142 178 236 294 357 426
#     4  12  23  45  70 101 141 187 236 293 365 431
#     4  11  24  45  72 103 135 189 244 298 365 431
#     4  11  23  44  77  97 132 195 245 296 366 433
#     4  12  26  40  72 110 141 187 237 292 367 451
#
# _framework density 22.088813999999999
#
# number of rings (size 3 to 8) (size 9 to 14) (size 15 to 20)
#    0.000    0.286    7.143    2.143    2.000    0.000 
#    0.000    6.429    3.143    0.000    0.000    0.000 
#    0.000    0.000    0.000    0.000    0.000    0.000 
#
# Total GULP energy -693741.882256 kJ/mol
# GULP energy per Si atom -12388.247897 kJ/mol
# Density = 2.203854 g / cm^3
# Si number density = 22.088814 Si / 1000 Ang^3
#
#
#
# Elastic Constant Matrix: (Units=GPa)
#
#
# Indices 1 2 3 4 5 6 
#
# 1 110.8927 34.2472 13.9063 0.0000 0.0000 0.0000
# 2 34.2472 139.9572 24.6572 0.0000 0.0000 0.0000
# 3 13.9063 24.6572 69.8991 0.0000 0.0000 0.0000
# 4 0.0000 0.0000 0.0000 2312.4316 0.0000 0.0000
# 5 0.0000 0.0000 0.0000 0.0000 19.9603 0.0000
# 6 0.0000 0.0000 0.0000 0.0000 0.0000 45.2885
#
#
#
# Elastic Compliance Matrix: (Units=1/GPa)
#
#
# Indices 1 2 3 4 5 6 
#
# 1 0.009846 -0.002201 -0.001182 0.000000 0.000000 0.000000
# 2 -0.002201 0.008110 -0.002423 0.000000 0.000000 0.000000
# 3 -0.001182 -0.002423 0.015396 0.000000 0.000000 0.000000
# 4 0.000000 0.000000 0.000000 0.000432 0.000000 0.000000
# 5 0.000000 0.000000 0.000000 0.000000 0.050099 0.000000
# 6 0.000000 0.000000 0.000000 0.000000 0.000000 0.022081
#
#
# Mechanical properties :
#
#
# Convention : Reuss Voigt Hill
#
# Bulk Modulus (GPa) = 45.99890 51.81891 48.90891
# Shear Modulus (GPa) = 40.05625 492.06533 266.06079
#
# Velocity S-wave (km/s) = 4.26304 14.94156 10.98690
# Velocity P-wave (km/s) = 6.71574 17.92142 13.53290
#
# Compressibility (1/GPa) = 0.02173965
#
# Stress axis : x y z
#
# Youngs Moduli (GPa) = 101.56703 123.29699 64.95046
#
# Poissons Ratio (x) = 0.27137 0.07680
# Poissons Ratio (y) = 0.22354 0.15738
# Poissons Ratio (z) = 0.12009 0.29877
#
# Static dielectric constant tensor:
#      x y z
#    x 4.567250 0.000000 0.000000 
#    y 0.000000 4.427020 0.000000 
#    z 0.000000 0.000000 3.755480 
# 
# 
# High freq. dielectric constant tensor:
#      x y z
#    x 1.887660 0.000000 0.000000 
#    y 0.000000 1.892140 0.000000 
#    z 0.000000 0.000000 1.821370 
# 
# From -- ./inp_files/22599.got.cif
#   From: 2010.03.12/outbox.cif.g09.slc.cpg/sg68_12_cif.got.tgz:22599.got - 2010.04.10 23:14:56.
