data_PCOD8283946
_publ_section_title
;
Structure prediction by ZEFSAII (Michael W. Deem and Ramdas Pophale) SiO2 
 PCOD8283946
Probable space group: F M M M
;
_chemical_formula_sum "Si O2"
_cell_formula_units_Z 112
_cell_length_a 21.226119
_cell_length_b 29.123590
_cell_length_c 8.858524
_cell_angle_alpha 90.000000
_cell_angle_beta 90.000000
_cell_angle_gamma 90.000000
_cell_volume 5476.169338
_symmetry_space_group_name_H-M "F M M M"
_symmetry_group_IT_number 69
_symmetry_cell_setting 'orthorhombic'
loop_
_space_group_symop_operation_xyz
x,y,z
-x,-y,z
x,-y,-z
-x,y,-z
-x,-y,-z
x,y,-z
-x,y,z
x,-y,z
x,1/2+y,1/2+z
-x,1/2-y,1/2+z
x,1/2-y,1/2-z
-x,1/2+y,1/2-z
-x,1/2-y,1/2-z
x,1/2+y,1/2-z
-x,1/2+y,1/2+z
x,1/2-y,1/2+z
1/2+x,y,1/2+z
1/2-x,-y,1/2+z
1/2+x,-y,1/2-z
1/2-x,y,1/2-z
1/2-x,-y,1/2-z
1/2+x,y,1/2-z
1/2-x,y,1/2+z
1/2+x,-y,1/2+z
1/2+x,1/2+y,z
1/2-x,1/2-y,z
1/2+x,1/2-y,-z
1/2-x,1/2+y,-z
1/2-x,1/2-y,-z
1/2+x,1/2+y,-z
1/2-x,1/2+y,z
1/2+x,1/2-y,z
loop_
_atom_site_type_symbol
_atom_site_label
_atom_site_fract_x
_atom_site_fract_y
_atom_site_fract_z
Si Si1 0.185934 0.609690 0.326430
Si Si2 0.624194 0.298094 0.174439
Si Si3 0.569481 0.447736 0.179204
Si Si4 0.500000 0.300454 0.320260
O O1 0.190825 0.595778 0.500000
O O2 0.250000 0.592838 0.250000
O O3 0.179637 0.664824 0.307251
O O4 0.125402 0.583894 0.253327
O O5 0.644663 0.250000 0.250000
O O6 0.563902 0.322471 0.254856
O O7 0.608108 0.288422 0.000000
O O8 0.500000 0.432334 0.240710
O O9 0.582741 0.500000 0.228557
O O10 0.568496 0.443250 0.000000
O O11 0.500000 0.300938 0.500000
O O12 0.500000 0.250000 0.250000
#
# Coordination Sequence:
#
# PCOD8283946 Si02
#       4
#    32  32  32  16
#     4  10  22  36  54  80 111 146 182 225 272 322
#     4  10  20  34  52  75 106 145 185 227 269 318
#     4   8  15  31  57  85 108 135 177 224 269 322
#     4  10  18  30  50  76 103 134 175 225 274 319
#
# _framework density 20.452252999999999
#
# number of rings (size 3 to 8) (size 9 to 14) (size 15 to 20)
#    0.000    2.571    0.000    4.714    2.000    3.429 
#    0.000    2.857    0.000    0.000    0.000    2.000 
#    0.000    0.000    0.000    0.000    0.000    0.000 
#
# Total GULP energy -346982.304627 kJ/mol
# GULP energy per Si atom -12392.225165 kJ/mol
# Density = 2.040570 g / cm^3
# Si number density = 20.452253 Si / 1000 Ang^3
#
#
#
# Elastic Constant Matrix: (Units=GPa)
#
#
# Indices 1 2 3 4 5 6 
#
# 1 164.3840 68.5682 40.9538 -0.0002 0.0008 0.0003
# 2 68.5682 84.4156 25.2482 -0.0002 0.0006 0.0002
# 3 40.9538 25.2482 87.3236 -0.0003 0.0019 0.0003
# 4 -0.0002 -0.0002 -0.0003 12.3976 0.0002 0.0001
# 5 0.0008 0.0006 0.0019 0.0002 32.5336 -0.0003
# 6 0.0003 0.0002 0.0003 0.0001 -0.0003 26.8735
#
#
#
# Elastic Compliance Matrix: (Units=1/GPa)
#
#
# Indices 1 2 3 4 5 6 
#
# 1 0.009667 -0.007111 -0.002478 0.000000 0.000000 0.000000
# 2 -0.007111 0.018198 -0.001927 0.000000 0.000000 0.000000
# 3 -0.002478 -0.001927 0.013171 0.000000 -0.000001 0.000000
# 4 0.000000 0.000000 0.000000 0.080661 -0.000001 0.000000
# 5 0.000000 0.000000 -0.000001 -0.000001 0.030737 0.000000
# 6 0.000000 0.000000 0.000000 0.000000 0.000000 0.037211
#
#
# Mechanical properties :
#
#
# Convention : Reuss Voigt Hill
#
# Bulk Modulus (GPa) = 55.53951 67.29596 61.41773
# Shear Modulus (GPa) = 22.86466 27.78448 25.32457
#
# Velocity S-wave (km/s) = 3.34721 3.68979 3.52267
# Velocity P-wave (km/s) = 6.49254 7.15039 6.82939
#
# Compressibility (1/GPa) = 0.01800520
#
# Stress axis : x y z
#
# Youngs Moduli (GPa) = 103.44801 54.94973 75.92605
#
# Poissons Ratio (x) = 0.39074 0.18811
# Poissons Ratio (y) = 0.73561 0.14630
# Poissons Ratio (z) = 0.25630 0.10588
#
# Static dielectric constant tensor:
#      x y z
#    x 4.301350 0.000000 0.000000 
#    y 0.000000 3.639020 0.000000 
#    z 0.000000 0.000000 3.349100 
# 
# 
# High freq. dielectric constant tensor:
#      x y z
#    x 1.803550 0.000000 0.000000 
#    y 0.000000 1.790220 0.000000 
#    z 0.000000 0.000000 1.762540 
# 
# From -- ./inp_files/3731.got.cif
#   From: 2010.03.12/outbox.cif.g09.slc.cpg/sg69_2_cif.got.tgz:3731.got - 2010.04.10 23:52:46.
