data_PCOD8283345
_publ_section_title
;
Structure prediction by ZEFSAII (Michael W. Deem and Ramdas Pophale) SiO2 
 PCOD8283345
Probable space group: C C C A
;
_chemical_formula_sum "Si O2"
_cell_formula_units_Z 52
_cell_length_a 14.189149
_cell_length_b 7.273610
_cell_length_c 21.039155
_cell_angle_alpha 90.000000
_cell_angle_beta 90.000000
_cell_angle_gamma 90.000000
_cell_volume 2171.374101
_symmetry_space_group_name_H-M "C C C A"
_symmetry_group_IT_number 68
_space_group.IT_coordinate_system_code '2'
_symmetry_cell_setting 'orthorhombic'
loop_
_space_group_symop_operation_xyz
x,y,z
-x,1/2-y,z
x,1/2-y,1/2-z
-x,y,1/2-z
-x,-y,-z
x,1/2+y,-z
-x,1/2+y,1/2+z
x,-y,1/2+z
1/2+x,1/2+y,z
1/2-x,-y,z
1/2+x,-y,1/2-z
1/2-x,1/2+y,1/2-z
1/2-x,1/2-y,-z
1/2+x,y,-z
1/2-x,y,1/2+z
1/2+x,1/2-y,1/2+z
loop_
_atom_site_type_symbol
_atom_site_label
_atom_site_fract_x
_atom_site_fract_y
_atom_site_fract_z
Si Si1 0.609500 0.692461 0.562258
Si Si2 0.105972 0.776601 0.574191
Si Si3 0.000000 0.750000 0.250000
Si Si4 0.649968 0.036187 0.166091
O O1 0.500000 0.750000 0.568982
O O2 0.627356 0.488540 0.588878
O O3 0.654563 0.708041 0.491592
O O4 0.670573 0.823713 0.608037
O O5 0.122478 0.660855 0.637600
O O6 0.000000 0.750000 0.552745
O O7 0.066965 0.615072 0.209906
O O8 0.750000 0.000000 0.202476
#
# Coordination Sequence:
#
# PCOD8283345 Si02
#       4
#    16  16   4  16
#     4  11  19  40  72 111 155 187 235 306 386 459
#     4  11  19  39  74 111 151 195 229 303 396 447
#     4  12  28  64  70  98 166 200 264 336 332 434
#     4  12  27  49  76 108 145 200 253 304 378 445
#
# _framework density 23.947967999999999
#
# number of rings (size 3 to 8) (size 9 to 14) (size 15 to 20)
#    0.000    0.615    7.692    1.846    0.000    2.462 
#   11.077    1.538    0.000    0.000    0.000    0.000 
#    0.000    0.000    0.000    0.000    0.000    0.000 
#
# Total GULP energy -322171.925152 kJ/mol
# GULP energy per Si atom -12391.227890 kJ/mol
# Density = 2.389346 g / cm^3
# Si number density = 23.947968 Si / 1000 Ang^3
#
#
#
# Elastic Constant Matrix: (Units=GPa)
#
#
# Indices 1 2 3 4 5 6 
#
# 1 126.4566 42.6608 56.7588 0.0000 0.0000 0.0000
# 2 42.6608 196.7084 41.8820 0.0000 0.0000 0.0000
# 3 56.7588 41.8820 101.3672 0.0000 0.0000 0.0000
# 4 0.0000 0.0000 0.0000 21.5290 0.0000 0.0000
# 5 0.0000 0.0000 0.0000 0.0000 7.5142 0.0000
# 6 0.0000 0.0000 0.0000 0.0000 0.0000 10.6366
#
#
#
# Elastic Compliance Matrix: (Units=1/GPa)
#
#
# Indices 1 2 3 4 5 6 
#
# 1 0.010797 -0.001156 -0.005568 0.000000 0.000000 0.000000
# 2 -0.001156 0.005698 -0.001707 0.000000 0.000000 0.000000
# 3 -0.005568 -0.001707 0.013688 0.000000 0.000000 0.000000
# 4 0.000000 0.000000 0.000000 0.046449 0.000000 0.000000
# 5 0.000000 0.000000 0.000000 0.000000 0.133082 0.000000
# 6 0.000000 0.000000 0.000000 0.000000 0.000000 0.094015
#
#
# Mechanical properties :
#
#
# Convention : Reuss Voigt Hill
#
# Bulk Modulus (GPa) = 75.06891 78.57060 76.81976
# Shear Modulus (GPa) = 15.38318 26.81801 21.10059
#
# Velocity S-wave (km/s) = 2.53723 3.35004 2.97156
# Velocity P-wave (km/s) = 6.32440 6.91692 6.62729
#
# Compressibility (1/GPa) = 0.01332109
#
# Stress axis : x y z
#
# Youngs Moduli (GPa) = 92.61868 175.50629 73.05678
#
# Poissons Ratio (x) = 0.20290 0.40677
# Poissons Ratio (y) = 0.10708 0.12470
# Poissons Ratio (z) = 0.51569 0.29956
#
# Static dielectric constant tensor:
#      x y z
#    x 4.261050 0.000000 0.000000 
#    y 0.000000 4.394890 0.000000 
#    z 0.000000 0.000000 4.049330 
# 
# 
# High freq. dielectric constant tensor:
#      x y z
#    x 1.951520 0.000000 0.000000 
#    y 0.000000 1.963310 0.000000 
#    z 0.000000 0.000000 1.922920 
# 
# From -- ./inp_files/44876.got.cif
#   From: 2010.03.12/outbox.cif.g09.slc.cpg/sg68_23_cif.got.tgz:44876.got - 2010.04.10 23:14:56.
