data_PCOD8283022
_publ_section_title
;
Structure prediction by ZEFSAII (Michael W. Deem and Ramdas Pophale) SiO2 
 PCOD8283022
Probable space group: C C C A
;
_chemical_formula_sum "Si O2"
_cell_formula_units_Z 88
_cell_length_a 26.497767
_cell_length_b 8.864895
_cell_length_c 16.570105
_cell_angle_alpha 90.000000
_cell_angle_beta 90.000000
_cell_angle_gamma 90.000000
_cell_volume 3892.316375
_symmetry_space_group_name_H-M "C C C A"
_symmetry_group_IT_number 68
_space_group.IT_coordinate_system_code '2'
_symmetry_cell_setting 'orthorhombic'
loop_
_space_group_symop_operation_xyz
x,y,z
-x,1/2-y,z
x,1/2-y,1/2-z
-x,y,1/2-z
-x,-y,-z
x,1/2+y,-z
-x,1/2+y,1/2+z
x,-y,1/2+z
1/2+x,1/2+y,z
1/2-x,-y,z
1/2+x,-y,1/2-z
1/2-x,1/2+y,1/2-z
1/2-x,1/2-y,-z
1/2+x,y,-z
1/2-x,y,1/2+z
1/2+x,1/2-y,1/2+z
loop_
_atom_site_type_symbol
_atom_site_label
_atom_site_fract_x
_atom_site_fract_y
_atom_site_fract_z
Si Si1 0.802935 0.811313 0.970958
Si Si2 0.799001 0.082450 0.775272
Si Si3 0.000000 0.750000 0.486368
Si Si4 0.853180 0.147220 0.173842
Si Si5 0.853670 0.411467 0.568230
Si Si6 0.432879 0.507308 0.053506
O O1 0.819733 0.754647 0.882643
O O2 0.806571 0.992162 0.970376
O O3 0.750000 0.750000 0.000000
O O4 0.846038 0.756979 0.034677
O O5 0.782711 0.250000 0.750000
O O6 0.847409 0.087529 0.835462
O O7 0.750000 0.000000 0.815137
O O8 0.815828 0.987465 0.698276
O O9 0.021999 0.625959 0.546810
O O10 0.956769 0.661709 0.432793
O O11 0.871667 0.250000 0.250000
O O12 0.899065 0.063722 0.128141
O O13 0.904841 0.486775 0.534681
#
# Coordination Sequence:
#
# PCOD8283022 Si02
#       6
#    16  16   8  16  16  16
#     4  11  23  39  63  96 135 181 238 274 319 402
#     4  12  28  43  65  97 146 192 233 281 337 408
#     4  10  22  44  75 103 130 170 230 296 356 430
#     4  11  24  44  68  99 142 186 226 289 358 415
#     4  11  24  41  66  98 134 183 229 284 338 408
#     4  10  23  43  74 101 134 174 232 291 358 426
#
# _framework density 22.608647000000001
#
# number of rings (size 3 to 8) (size 9 to 14) (size 15 to 20)
#    0.000    1.091    1.818    4.364   10.182    0.000 
#    0.000    0.455    0.000    1.091    0.000    0.000 
#    0.000    0.000    0.000    0.000    0.000    0.000 
#
# Total GULP energy -545271.482532 kJ/mol
# GULP energy per Si atom -12392.533694 kJ/mol
# Density = 2.255719 g / cm^3
# Si number density = 22.608647 Si / 1000 Ang^3
#
#
#
# Elastic Constant Matrix: (Units=GPa)
#
#
# Indices 1 2 3 4 5 6 
#
# 1 85.1941 15.6072 37.0451 0.0000 0.0000 0.0000
# 2 15.6072 110.2873 25.2276 0.0000 0.0000 0.0000
# 3 37.0451 25.2276 104.6047 0.0000 0.0000 0.0000
# 4 0.0000 0.0000 0.0000 23.6476 0.0000 0.0000
# 5 0.0000 0.0000 0.0000 0.0000 28.1256 0.0000
# 6 0.0000 0.0000 0.0000 0.0000 0.0000 38.5984
#
#
#
# Elastic Compliance Matrix: (Units=1/GPa)
#
#
# Indices 1 2 3 4 5 6 
#
# 1 0.013957 -0.000894 -0.004727 0.000000 0.000000 0.000000
# 2 -0.000894 0.009654 -0.002012 0.000000 0.000000 0.000000
# 3 -0.004727 -0.002012 0.011719 0.000000 0.000000 0.000000
# 4 0.000000 0.000000 0.000000 0.042288 0.000000 0.000000
# 5 0.000000 0.000000 0.000000 0.000000 0.035555 0.000000
# 6 0.000000 0.000000 0.000000 0.000000 0.000000 0.025908
#
#
# Mechanical properties :
#
#
# Convention : Reuss Voigt Hill
#
# Bulk Modulus (GPa) = 49.83900 50.64953 50.24427
# Shear Modulus (GPa) = 31.04931 32.88808 31.96869
#
# Velocity S-wave (km/s) = 3.70988 3.81815 3.76440
# Velocity P-wave (km/s) = 6.35948 6.47217 6.41608
#
# Compressibility (1/GPa) = 0.02006461
#
# Stress axis : x y z
#
# Youngs Moduli (GPa) = 71.64753 103.58531 85.33070
#
# Poissons Ratio (x) = 0.09258 0.40338
# Poissons Ratio (y) = 0.06404 0.17166
# Poissons Ratio (z) = 0.33870 0.20838
#
# Static dielectric constant tensor:
#      x y z
#    x 4.104420 0.000000 0.000000 
#    y 0.000000 4.661750 0.000000 
#    z 0.000000 0.000000 3.935730 
# 
# 
# High freq. dielectric constant tensor:
#      x y z
#    x 1.878690 0.000000 0.000000 
#    y 0.000000 1.924950 0.000000 
#    z 0.000000 0.000000 1.866290 
# 
# From -- ./inp_files/34371.got.cif
#   From: 2010.03.12/outbox.cif.g09.slc.cpg/sg68_18_cif.got.tgz:34371.got - 2010.04.10 23:14:56.
