data_PCOD8283151
_publ_section_title
;
Structure prediction by ZEFSAII (Michael W. Deem and Ramdas Pophale) SiO2 
 PCOD8283151
Probable space group: C C C A
;
_chemical_formula_sum "Si O2"
_cell_formula_units_Z 84
_cell_length_a 17.370166
_cell_length_b 23.451215
_cell_length_c 9.210663
_cell_angle_alpha 90.000000
_cell_angle_beta 90.000000
_cell_angle_gamma 90.000000
_cell_volume 3751.977366
_symmetry_space_group_name_H-M "C C C A"
_symmetry_group_IT_number 68
_space_group.IT_coordinate_system_code '2'
_symmetry_cell_setting 'orthorhombic'
loop_
_space_group_symop_operation_xyz
x,y,z
-x,1/2-y,z
x,1/2-y,1/2-z
-x,y,1/2-z
-x,-y,-z
x,1/2+y,-z
-x,1/2+y,1/2+z
x,-y,1/2+z
1/2+x,1/2+y,z
1/2-x,-y,z
1/2+x,-y,1/2-z
1/2-x,1/2+y,1/2-z
1/2-x,1/2-y,-z
1/2+x,y,-z
1/2-x,y,1/2+z
1/2+x,1/2-y,1/2+z
loop_
_atom_site_type_symbol
_atom_site_label
_atom_site_fract_x
_atom_site_fract_y
_atom_site_fract_z
Si Si1 0.000000 0.750000 0.250000
Si Si2 0.773707 0.136832 0.654992
Si Si3 0.401780 0.802538 0.008895
Si Si4 0.674104 0.032242 0.323896
Si Si5 0.500000 0.362072 0.750000
Si Si6 0.807265 0.250000 0.250000
Si Si7 0.628465 0.062526 0.608962
O O1 0.943409 0.784627 0.141659
O O2 0.836966 0.150703 0.530871
O O3 0.811372 0.096672 0.774438
O O4 0.746153 0.194639 0.734287
O O5 0.703900 0.101510 0.586039
O O6 0.465572 0.825384 0.119602
O O7 0.358811 0.752860 0.101995
O O8 0.609681 0.038509 0.449293
O O9 0.750000 0.000000 0.386097
O O10 0.639537 0.994457 0.198517
O O11 0.436712 0.400710 0.678548
#
# Coordination Sequence:
#
# PCOD8283151 Si02
#       7
#     4  16  16  16   8   8  16
#     4  12  30  46  70 106 156 198 244 300 386 440
#     4  11  24  44  78 109 137 190 254 301 358 448
#     4  12  27  48  71 107 151 197 245 304 371 453
#     4  10  23  44  73 106 143 185 245 309 361 434
#     4  12  28  49  71 106 156 198 240 308 392 438
#     4  12  23  47  80 104 146 188 246 302 373 441
#     4  11  25  45  73 103 145 192 244 300 374 434
#
# _framework density 22.388193999999999
#
# number of rings (size 3 to 8) (size 9 to 14) (size 15 to 20)
#    0.000    0.762    1.905    5.143    8.000    0.762 
#    0.000    0.000    0.000    0.000    0.000    0.000 
#    0.000    0.000    0.000    0.000    0.000    0.000 
#
# Total GULP energy -520571.347519 kJ/mol
# GULP energy per Si atom -12394.555893 kJ/mol
# Density = 2.233724 g / cm^3
# Si number density = 22.388194 Si / 1000 Ang^3
#
#
#
# Elastic Constant Matrix: (Units=GPa)
#
#
# Indices 1 2 3 4 5 6 
#
# 1 84.9520 31.0957 75.0590 0.0000 0.0000 0.0000
# 2 31.0957 133.1591 80.6142 0.0000 0.0000 0.0000
# 3 75.0590 80.6142 172.4872 0.0000 0.0000 0.0000
# 4 0.0000 0.0000 0.0000 25.6488 0.0000 0.0000
# 5 0.0000 0.0000 0.0000 0.0000 33.6575 0.0000
# 6 0.0000 0.0000 0.0000 0.0000 0.0000 -47.2310
#
#
#
# Elastic Compliance Matrix: (Units=1/GPa)
#
#
# Indices 1 2 3 4 5 6 
#
# 1 0.019185 0.000801 -0.008723 0.000000 0.000000 0.000000
# 2 0.000801 0.010506 -0.005259 0.000000 0.000000 0.000000
# 3 -0.008723 -0.005259 0.012051 0.000000 0.000000 0.000000
# 4 0.000000 0.000000 0.000000 0.038988 0.000000 0.000000
# 5 0.000000 0.000000 0.000000 0.000000 0.029711 0.000000
# 6 0.000000 0.000000 0.000000 0.000000 0.000000 -0.021173
#
#
# Mechanical properties :
#
#
# Convention : Reuss Voigt Hill
#
# Bulk Modulus (GPa) = 65.01555 84.90404 74.95979
# Shear Modulus (GPa) = 41.40503 16.00368 28.70436
#
# Velocity S-wave (km/s) = 4.30515 2.67653 3.58456
# Velocity P-wave (km/s) = 7.33591 6.89620 7.11945
#
# Compressibility (1/GPa) = 0.01538094
#
# Stress axis : x y z
#
# Youngs Moduli (GPa) = 52.12332 95.17941 82.98055
#
# Poissons Ratio (x) = -0.07619 0.72382
# Poissons Ratio (y) = -0.04173 0.43637
# Poissons Ratio (z) = 0.45466 0.50052
#
# Static dielectric constant tensor:
#      x y z
#    x 4.393650 0.000000 0.000000 
#    y 0.000000 4.129210 0.000000 
#    z 0.000000 0.000000 4.162020 
# 
# 
# High freq. dielectric constant tensor:
#      x y z
#    x 1.872160 0.000000 0.000000 
#    y 0.000000 1.891190 0.000000 
#    z 0.000000 0.000000 1.902930 
# 
# From -- ./inp_files/7112.got.cif
#   From: 2010.03.12/outbox.cif.g09.slc.cpg/sg68_4_cif.got.tgz:7112.got - 2010.04.10 23:14:56.
