data_PCOD8283420
_publ_section_title
;
Structure prediction by ZEFSAII (Michael W. Deem and Ramdas Pophale) SiO2 
 PCOD8283420
Probable space group: C C C A
;
_chemical_formula_sum "Si O2"
_cell_formula_units_Z 80
_cell_length_a 16.483027
_cell_length_b 27.177650
_cell_length_c 8.719101
_cell_angle_alpha 90.000000
_cell_angle_beta 90.000000
_cell_angle_gamma 90.000000
_cell_volume 3905.895141
_symmetry_space_group_name_H-M "C C C A"
_symmetry_group_IT_number 68
_space_group.IT_coordinate_system_code '2'
_symmetry_cell_setting 'orthorhombic'
loop_
_space_group_symop_operation_xyz
x,y,z
-x,1/2-y,z
x,1/2-y,1/2-z
-x,y,1/2-z
-x,-y,-z
x,1/2+y,-z
-x,1/2+y,1/2+z
x,-y,1/2+z
1/2+x,1/2+y,z
1/2-x,-y,z
1/2+x,-y,1/2-z
1/2-x,1/2+y,1/2-z
1/2-x,1/2-y,-z
1/2+x,y,-z
1/2-x,y,1/2+z
1/2+x,1/2-y,1/2+z
loop_
_atom_site_type_symbol
_atom_site_label
_atom_site_fract_x
_atom_site_fract_y
_atom_site_fract_z
Si Si1 0.908411 0.800105 0.192324
Si Si2 0.461084 0.156119 0.600212
Si Si3 0.574159 0.607654 0.642668
Si Si4 0.339150 0.519797 0.009159
Si Si5 0.088960 0.055453 0.189330
O O1 0.863086 0.750000 0.250000
O O2 0.872718 0.849651 0.269816
O O3 0.000000 0.797828 0.250000
O O4 0.911808 0.804996 0.006369
O O5 0.500000 0.182963 0.750000
O O6 0.535435 0.129392 0.512618
O O7 0.399201 0.113413 0.655076
O O8 0.500000 0.588712 0.750000
O O9 0.637376 0.564741 0.604555
O O10 0.250000 0.500000 0.974982
O O11 0.346527 0.536605 0.184862
O O12 0.398721 0.474391 0.968913
O O13 0.000000 0.044165 0.250000
#
# Coordination Sequence:
#
# PCOD8283420 Si02
#       5
#    16  16  16  16  16
#     4   8  16  30  52  84 119 147 191 242 297 342
#     4   9  16  31  54  79 109 152 202 232 287 346
#     4   9  18  33  55  79 114 158 195 236 290 352
#     4  12  24  36  51  82 119 152 198 251 295 343
#     4  11  22  36  56  77 111 159 202 232 290 360
#
# _framework density 20.481862
#
# number of rings (size 3 to 8) (size 9 to 14) (size 15 to 20)
#    0.000    2.600    4.000    1.800    5.600    0.000 
#    0.000    8.000    0.000    0.000    0.000    1.400 
#    0.000    0.000    0.000    0.000    0.000    0.400 
#
# Total GULP energy -495576.125154 kJ/mol
# GULP energy per Si atom -12389.403129 kJ/mol
# Density = 2.043524 g / cm^3
# Si number density = 20.481862 Si / 1000 Ang^3
#
#
#
# Elastic Constant Matrix: (Units=GPa)
#
#
# Indices 1 2 3 4 5 6 
#
# 1 53.5074 27.7037 19.6957 0.0000 0.0000 0.0000
# 2 27.7037 117.5024 54.3050 0.0000 0.0000 0.0000
# 3 19.6957 54.3050 141.5025 0.0000 0.0000 0.0000
# 4 0.0000 0.0000 0.0000 33.0643 0.0000 0.0000
# 5 0.0000 0.0000 0.0000 0.0000 18.5720 0.0000
# 6 0.0000 0.0000 0.0000 0.0000 0.0000 8.1658
#
#
#
# Elastic Compliance Matrix: (Units=1/GPa)
#
#
# Indices 1 2 3 4 5 6 
#
# 1 0.021474 -0.004475 -0.001271 0.000000 0.000000 0.000000
# 2 -0.004475 0.011278 -0.003705 0.000000 0.000000 0.000000
# 3 -0.001271 -0.003705 0.008666 0.000000 0.000000 0.000000
# 4 0.000000 0.000000 0.000000 0.030244 0.000000 0.000000
# 5 0.000000 0.000000 0.000000 0.000000 0.053844 0.000000
# 6 0.000000 0.000000 0.000000 0.000000 0.000000 0.122462
#
#
# Mechanical properties :
#
#
# Convention : Reuss Voigt Hill
#
# Bulk Modulus (GPa) = 44.41690 57.32455 50.87072
# Shear Modulus (GPa) = 18.22304 26.01429 22.11867
#
# Velocity S-wave (km/s) = 2.98605 3.56773 3.28977
# Velocity P-wave (km/s) = 5.79842 6.70972 6.27065
#
# Compressibility (1/GPa) = 0.02251395
#
# Stress axis : x y z
#
# Youngs Moduli (GPa) = 46.56765 88.66761 115.39374
#
# Poissons Ratio (x) = 0.39682 0.14672
# Poissons Ratio (y) = 0.20841 0.42757
# Poissons Ratio (z) = 0.05921 0.32854
#
# Static dielectric constant tensor:
#      x y z
#    x 2.984290 0.000000 0.000000 
#    y 0.000000 4.799750 0.000000 
#    z 0.000000 0.000000 4.139030 
# 
# 
# High freq. dielectric constant tensor:
#      x y z
#    x 1.722070 0.000000 0.000000 
#    y 0.000000 1.798450 0.000000 
#    z 0.000000 0.000000 1.823270 
# 
# From -- ./inp_files/6357.got.cif
#   From: 2010.03.12/outbox.cif.g09.slc.cpg/sg68_4_cif.got.tgz:6357.got - 2010.04.10 23:14:56.
