data_PCOD8283925
_publ_section_title
;
Structure prediction by ZEFSAII (Michael W. Deem and Ramdas Pophale) SiO2 
 PCOD8283925
Probable space group: F M M M
;
_chemical_formula_sum "Si O2"
_cell_formula_units_Z 176
_cell_length_a 28.296658
_cell_length_b 16.106800
_cell_length_c 23.729579
_cell_angle_alpha 90.000000
_cell_angle_beta 90.000000
_cell_angle_gamma 90.000000
_cell_volume 10815.197262
_symmetry_space_group_name_H-M "F M M M"
_symmetry_group_IT_number 69
_symmetry_cell_setting 'orthorhombic'
loop_
_space_group_symop_operation_xyz
x,y,z
-x,-y,z
x,-y,-z
-x,y,-z
-x,-y,-z
x,y,-z
-x,y,z
x,-y,z
x,1/2+y,1/2+z
-x,1/2-y,1/2+z
x,1/2-y,1/2-z
-x,1/2+y,1/2-z
-x,1/2-y,1/2-z
x,1/2+y,1/2-z
-x,1/2+y,1/2+z
x,1/2-y,1/2+z
1/2+x,y,1/2+z
1/2-x,-y,1/2+z
1/2+x,-y,1/2-z
1/2-x,y,1/2-z
1/2-x,-y,1/2-z
1/2+x,y,1/2-z
1/2-x,y,1/2+z
1/2+x,-y,1/2+z
1/2+x,1/2+y,z
1/2-x,1/2-y,z
1/2+x,1/2-y,-z
1/2-x,1/2+y,-z
1/2-x,1/2-y,-z
1/2+x,1/2+y,-z
1/2-x,1/2+y,z
1/2+x,1/2-y,z
loop_
_atom_site_type_symbol
_atom_site_label
_atom_site_fract_x
_atom_site_fract_y
_atom_site_fract_z
Si Si1 0.726591 0.087048 0.807715
Si Si2 0.647758 0.216623 0.810456
Si Si3 0.899398 0.098818 0.393792
Si Si4 0.225714 0.599147 0.500000
Si Si5 0.789387 0.819948 0.887169
Si Si6 0.836618 0.402723 0.000000
Si Si7 0.500000 0.902075 0.061702
O O1 0.750000 0.065780 0.750000
O O2 0.694519 0.165772 0.797048
O O3 0.767016 0.104657 0.852786
O O4 0.700853 0.000000 0.827581
O O5 0.628101 0.250000 0.750000
O O6 0.611230 0.151835 0.837820
O O7 0.663042 0.288387 0.854996
O O8 0.863292 0.128740 0.443332
O O9 0.952709 0.126441 0.407050
O O10 0.895641 0.000000 0.382793
O O11 0.220116 0.500000 0.500000
O O12 0.198344 0.640605 0.447617
O O13 0.281806 0.624679 0.500000
O O14 0.750000 0.750000 0.895324
O O15 0.842180 0.500000 0.000000
O O16 0.500000 0.000000 0.055116
O O17 0.500000 0.860956 0.000000
#
# Coordination Sequence:
#
# PCOD8283925 Si02
#       7
#    32  32  32  16  32  16  16
#     4  10  18  30  48  65  87 128 176 210 234 267
#     4  11  21  33  45  67 100 131 167 204 234 272
#     4  10  19  32  53  76  96 122 151 189 243 305
#     4  11  21  33  44  64  96 134 172 201 231 274
#     4  10  20  31  46  63  95 126 166 206 247 272
#     4   9  16  28  47  71  93 113 148 196 239 284
#     4   9  16  32  55  78 100 114 139 187 246 307
#
# _framework density 16.273396000000002
#
# number of rings (size 3 to 8) (size 9 to 14) (size 15 to 20)
#    0.000    1.909    2.727    3.545    0.000    2.182 
#    0.000    0.455    0.000    0.000    0.000    0.000 
#    0.000    0.000    0.000    0.818    0.000    0.000 
#
# Total GULP energy -545138.653315 kJ/mol
# GULP energy per Si atom -12389.514848 kJ/mol
# Density = 1.623636 g / cm^3
# Si number density = 16.273396 Si / 1000 Ang^3
#
#
#
# Elastic Constant Matrix: (Units=GPa)
#
#
# Indices 1 2 3 4 5 6 
#
# 1 62.3663 19.6533 35.5789 0.0000 0.0000 0.0000
# 2 19.6533 67.4951 49.9319 0.0000 0.0000 0.0000
# 3 35.5789 49.9319 133.8024 0.0000 0.0000 0.0000
# 4 0.0000 0.0000 0.0000 32.7707 0.0000 0.0000
# 5 0.0000 0.0000 0.0000 0.0000 17.9283 0.0000
# 6 0.0000 0.0000 0.0000 0.0000 0.0000 9.5103
#
#
#
# Elastic Compliance Matrix: (Units=1/GPa)
#
#
# Indices 1 2 3 4 5 6 
#
# 1 0.019204 -0.002506 -0.004171 0.000000 0.000000 0.000000
# 2 -0.002506 0.020793 -0.007093 0.000000 0.000000 0.000000
# 3 -0.004171 -0.007093 0.011230 0.000000 0.000000 0.000000
# 4 0.000000 0.000000 0.000000 0.030515 0.000000 0.000000
# 5 0.000000 0.000000 0.000000 0.000000 0.055778 0.000000
# 6 0.000000 0.000000 0.000000 0.000000 0.000000 0.105150
#
#
# Mechanical properties :
#
#
# Convention : Reuss Voigt Hill
#
# Bulk Modulus (GPa) = 42.21917 52.66577 47.44247
# Shear Modulus (GPa) = 17.97885 22.60850 20.29368
#
# Velocity S-wave (km/s) = 3.32746 3.73136 3.53519
# Velocity P-wave (km/s) = 6.38456 7.14125 6.77348
#
# Compressibility (1/GPa) = 0.02368592
#
# Stress axis : x y z
#
# Youngs Moduli (GPa) = 52.07365 48.09324 89.04854
#
# Poissons Ratio (x) = 0.12052 0.37144
# Poissons Ratio (y) = 0.13049 0.63163
# Poissons Ratio (z) = 0.21721 0.34113
#
# Static dielectric constant tensor:
#      x y z
#    x 2.815400 0.000000 0.000000 
#    y 0.000000 3.141640 0.000000 
#    z 0.000000 0.000000 3.203760 
# 
# 
# High freq. dielectric constant tensor:
#      x y z
#    x 1.574390 0.000000 0.000000 
#    y 0.000000 1.619520 0.000000 
#    z 0.000000 0.000000 1.639760 
# 
# From -- ./inp_files/43645.got.cif
#   From: 2010.03.12/outbox.cif.g09.slc.cpg/sg69_22_cif.got.tgz:43645.got - 2010.04.10 23:52:46.
