data_PCOD8283241
_publ_section_title
;
Structure prediction by ZEFSAII (Michael W. Deem and Ramdas Pophale) SiO2 
 PCOD8283241
Probable space group: C C C A
;
_chemical_formula_sum "Si O2"
_cell_formula_units_Z 64
_cell_length_a 11.140288
_cell_length_b 26.245893
_cell_length_c 9.498329
_cell_angle_alpha 90.000000
_cell_angle_beta 90.000000
_cell_angle_gamma 90.000000
_cell_volume 2777.186087
_symmetry_space_group_name_H-M "C C C A"
_symmetry_group_IT_number 68
_space_group.IT_coordinate_system_code '2'
_symmetry_cell_setting 'orthorhombic'
loop_
_space_group_symop_operation_xyz
x,y,z
-x,1/2-y,z
x,1/2-y,1/2-z
-x,y,1/2-z
-x,-y,-z
x,1/2+y,-z
-x,1/2+y,1/2+z
x,-y,1/2+z
1/2+x,1/2+y,z
1/2-x,-y,z
1/2+x,-y,1/2-z
1/2-x,1/2+y,1/2-z
1/2-x,1/2-y,-z
1/2+x,y,-z
1/2-x,y,1/2+z
1/2+x,1/2-y,1/2+z
loop_
_atom_site_type_symbol
_atom_site_label
_atom_site_fract_x
_atom_site_fract_y
_atom_site_fract_z
Si Si1 0.180461 0.906154 0.944270
Si Si2 0.500000 0.549552 0.250000
Si Si3 0.631876 0.549613 0.730623
Si Si4 0.851688 0.791966 0.501928
Si Si5 0.000000 0.250000 0.750000
Si Si6 0.500000 0.250000 0.750000
O O1 0.046530 0.914204 0.876418
O O2 0.288923 0.927122 0.853157
O O3 0.204414 0.847801 0.987065
O O4 0.191786 0.937935 0.084456
O O5 0.383331 0.512524 0.273388
O O6 0.500000 0.574602 0.750000
O O7 0.750000 0.750000 0.500000
O O8 0.925248 0.786147 0.646333
O O9 0.924331 0.786558 0.354860
#
# Coordination Sequence:
#
# PCOD8283241 Si02
#       6
#    16   8  16  16   4   4
#     4  12  26  46  78 108 153 204 250 312 401 452
#     4  10  25  49  78 107 155 192 257 317 380 460
#     4  10  28  45  74 111 153 194 258 313 381 463
#     4  11  26  45  76 107 151 193 259 309 385 454
#     4  10  26  48  76 104 158 190 252 338 368 444
#     4  10  24  46  68 104 142 186 246 312 364 444
#
# _framework density 23.044908
#
# number of rings (size 3 to 8) (size 9 to 14) (size 15 to 20)
#    0.750    0.500    0.000    3.000   12.250    4.000 
#    0.000    0.000    0.000    0.000    0.000    0.000 
#    0.000    0.000    0.000    0.000    0.000    0.000 
#
# Total GULP energy -396535.864557 kJ/mol
# GULP energy per Si atom -12391.745767 kJ/mol
# Density = 2.299246 g / cm^3
# Si number density = 23.044908 Si / 1000 Ang^3
#
#
#
# Elastic Constant Matrix: (Units=GPa)
#
#
# Indices 1 2 3 4 5 6 
#
# 1 106.6862 57.6457 75.9916 0.0000 0.0000 0.0000
# 2 57.6457 150.7071 51.6366 0.0000 0.0000 0.0000
# 3 75.9916 51.6366 192.5499 0.0000 0.0000 0.0000
# 4 0.0000 0.0000 0.0000 30.3180 0.0000 0.0000
# 5 0.0000 0.0000 0.0000 0.0000 32.6840 0.0000
# 6 0.0000 0.0000 0.0000 0.0000 0.0000 35.7315
#
#
#
# Elastic Compliance Matrix: (Units=1/GPa)
#
#
# Indices 1 2 3 4 5 6 
#
# 1 0.015027 -0.004092 -0.004833 0.000000 0.000000 0.000000
# 2 -0.004092 0.008421 -0.000643 0.000000 0.000000 0.000000
# 3 -0.004833 -0.000643 0.007273 0.000000 0.000000 0.000000
# 4 0.000000 0.000000 0.000000 0.032984 0.000000 0.000000
# 5 0.000000 0.000000 0.000000 0.000000 0.030596 0.000000
# 6 0.000000 0.000000 0.000000 0.000000 0.000000 0.027987
#
#
# Mechanical properties :
#
#
# Convention : Reuss Voigt Hill
#
# Bulk Modulus (GPa) = 86.32228 91.16566 88.74397
# Shear Modulus (GPa) = 34.41495 37.39133 35.90314
#
# Velocity S-wave (km/s) = 3.86863 4.03245 3.95139
# Velocity P-wave (km/s) = 7.58252 7.83114 7.70783
#
# Compressibility (1/GPa) = 0.01158449
#
# Stress axis : x y z
#
# Youngs Moduli (GPa) = 66.54768 118.75136 137.48629
#
# Poissons Ratio (x) = 0.48591 0.66449
# Poissons Ratio (y) = 0.27230 0.08846
# Poissons Ratio (z) = 0.32164 0.07640
#
# Static dielectric constant tensor:
#      x y z
#    x 4.070270 0.000000 0.000000 
#    y 0.000000 4.071180 0.000000 
#    z 0.000000 0.000000 4.281810 
# 
# 
# High freq. dielectric constant tensor:
#      x y z
#    x 1.918290 0.000000 0.000000 
#    y 0.000000 1.907870 0.000000 
#    z 0.000000 0.000000 1.924950 
# 
# From -- ./inp_files/4135.got.cif
#   From: 2010.03.12/outbox.cif.g09.slc.cpg/sg68_3_cif.got.tgz:4135.got - 2010.04.10 23:14:56.
