data_PCOD8283192
_publ_section_title
;
Structure prediction by ZEFSAII (Michael W. Deem and Ramdas Pophale) SiO2 
 PCOD8283192
Probable space group: C C C A
;
_chemical_formula_sum "Si O2"
_cell_formula_units_Z 64
_cell_length_a 20.183190
_cell_length_b 5.264620
_cell_length_c 27.121721
_cell_angle_alpha 90.000000
_cell_angle_beta 90.000000
_cell_angle_gamma 90.000000
_cell_volume 2881.867982
_symmetry_space_group_name_H-M "C C C A"
_symmetry_group_IT_number 68
_space_group.IT_coordinate_system_code '2'
_symmetry_cell_setting 'orthorhombic'
loop_
_space_group_symop_operation_xyz
x,y,z
-x,1/2-y,z
x,1/2-y,1/2-z
-x,y,1/2-z
-x,-y,-z
x,1/2+y,-z
-x,1/2+y,1/2+z
x,-y,1/2+z
1/2+x,1/2+y,z
1/2-x,-y,z
1/2+x,-y,1/2-z
1/2-x,1/2+y,1/2-z
1/2-x,1/2-y,-z
1/2+x,y,-z
1/2-x,y,1/2+z
1/2+x,1/2-y,1/2+z
loop_
_atom_site_type_symbol
_atom_site_label
_atom_site_fract_x
_atom_site_fract_y
_atom_site_fract_z
Si Si1 0.429792 0.876443 0.614913
Si Si2 0.000000 0.750000 0.818713
Si Si3 0.111422 0.431411 0.704318
Si Si4 0.211397 0.250000 0.250000
Si Si5 0.825113 0.494957 0.031327
O O1 0.500000 0.750000 0.597119
O O2 0.387950 0.690332 0.650308
O O3 0.444814 0.124825 0.646632
O O4 0.382498 0.957911 0.570848
O O5 0.961656 0.546318 0.784894
O O6 0.128806 0.250000 0.750000
O O7 0.166333 0.654752 0.704205
O O8 0.250000 0.500000 0.269645
O O9 0.750000 0.500000 0.053360
O O10 0.835364 0.714612 0.990823
#
# Coordination Sequence:
#
# PCOD8283192 Si02
#       5
#    16   8  16   8  16
#     4  10  24  43  69 107 142 184 239 293 356 423
#     4  10  24  41  68 102 144 182 242 286 359 414
#     4  11  24  45  68 100 144 191 233 295 342 422
#     4  12  26  47  64  95 140 184 246 286 342 408
#     4  10  24  48  74 102 139 183 233 291 364 431
#
# _framework density 22.207820000000002
#
# number of rings (size 3 to 8) (size 9 to 14) (size 15 to 20)
#    0.000    1.500    1.250    1.500    7.000   13.000 
#    9.000    0.000    0.000    0.000    0.000    0.000 
#    0.000    0.000    0.000    0.000    0.000    0.000 
#
# Total GULP energy -396503.127283 kJ/mol
# GULP energy per Si atom -12390.722728 kJ/mol
# Density = 2.215727 g / cm^3
# Si number density = 22.207820 Si / 1000 Ang^3
#
#
#
# Elastic Constant Matrix: (Units=GPa)
#
#
# Indices 1 2 3 4 5 6 
#
# 1 150.1742 50.4537 74.4469 0.0000 0.0000 0.0000
# 2 50.4537 119.4322 30.4563 0.0000 0.0000 0.0000
# 3 74.4469 30.4563 61.2985 0.0000 0.0000 0.0000
# 4 0.0000 0.0000 0.0000 15.8332 0.0000 0.0000
# 5 0.0000 0.0000 0.0000 0.0000 26.4737 0.0000
# 6 0.0000 0.0000 0.0000 0.0000 0.0000 47.0932
#
#
#
# Elastic Compliance Matrix: (Units=1/GPa)
#
#
# Indices 1 2 3 4 5 6 
#
# 1 0.017235 -0.002225 -0.019827 0.000000 0.000000 0.000000
# 2 -0.002225 0.009875 -0.002204 0.000000 0.000000 0.000000
# 3 -0.019827 -0.002204 0.041488 0.000000 0.000000 0.000000
# 4 0.000000 0.000000 0.000000 0.063158 0.000000 0.000000
# 5 0.000000 0.000000 0.000000 0.000000 0.037773 0.000000
# 6 0.000000 0.000000 0.000000 0.000000 0.000000 0.021234
#
#
# Mechanical properties :
#
#
# Convention : Reuss Voigt Hill
#
# Bulk Modulus (GPa) = 49.78404 71.29098 60.53751
# Shear Modulus (GPa) = 20.32752 29.58324 24.95538
#
# Velocity S-wave (km/s) = 3.02873 3.65377 3.35583
# Velocity P-wave (km/s) = 5.89041 7.06905 6.50647
#
# Compressibility (1/GPa) = 0.02008676
#
# Stress axis : x y z
#
# Youngs Moduli (GPa) = 58.02048 101.26615 24.10321
#
# Poissons Ratio (x) = 0.22532 0.47789
# Poissons Ratio (y) = 0.12909 0.05313
# Poissons Ratio (z) = 1.15036 0.22321
#
# Static dielectric constant tensor:
#      x y z
#    x 4.334170 0.000000 0.000000 
#    y 0.000000 4.140670 0.000000 
#    z 0.000000 0.000000 3.576060 
# 
# 
# High freq. dielectric constant tensor:
#      x y z
#    x 1.893020 0.000000 0.000000 
#    y 0.000000 1.904440 0.000000 
#    z 0.000000 0.000000 1.831560 
# 
# From -- ./inp_files/48142.got.cif
#   From: 2010.03.12/outbox.cif.g09.slc.cpg/sg68_25_cif.got.tgz:48142.got - 2010.04.10 23:14:56.
