data_PCOD8283564
_publ_section_title
;
Structure prediction by ZEFSAII (Michael W. Deem and Ramdas Pophale) SiO2 
 PCOD8283564
Probable space group: C C C A
;
_chemical_formula_sum "Si O2"
_cell_formula_units_Z 100
_cell_length_a 21.527152
_cell_length_b 22.397690
_cell_length_c 9.369003
_cell_angle_alpha 90.000000
_cell_angle_beta 90.000000
_cell_angle_gamma 90.000000
_cell_volume 4517.344218
_symmetry_space_group_name_H-M "C C C A"
_symmetry_group_IT_number 68
_space_group.IT_coordinate_system_code '2'
_symmetry_cell_setting 'orthorhombic'
loop_
_space_group_symop_operation_xyz
x,y,z
-x,1/2-y,z
x,1/2-y,1/2-z
-x,y,1/2-z
-x,-y,-z
x,1/2+y,-z
-x,1/2+y,1/2+z
x,-y,1/2+z
1/2+x,1/2+y,z
1/2-x,-y,z
1/2+x,-y,1/2-z
1/2-x,1/2+y,1/2-z
1/2-x,1/2-y,-z
1/2+x,y,-z
1/2-x,y,1/2+z
1/2+x,1/2-y,1/2+z
loop_
_atom_site_type_symbol
_atom_site_label
_atom_site_fract_x
_atom_site_fract_y
_atom_site_fract_z
Si Si1 0.815346 0.248978 0.583218
Si Si2 0.196580 0.900052 0.741714
Si Si3 0.632070 0.985624 0.748708
Si Si4 0.059306 0.040372 0.477907
Si Si5 0.093711 0.166081 0.414773
Si Si6 0.184614 0.120194 0.918835
Si Si7 0.000000 0.750000 0.750000
O O1 0.800433 0.250000 0.750000
O O2 0.750000 0.250000 0.500000
O O3 0.862436 0.300740 0.531419
O O4 0.847965 0.184528 0.558807
O O5 0.136833 0.861751 0.790424
O O6 0.207036 0.900165 0.573030
O O7 0.255764 0.872290 0.817767
O O8 0.191504 0.971147 0.773483
O O9 0.615625 0.975574 0.913888
O O10 0.637868 0.924740 0.659144
O O11 0.575703 0.023117 0.683140
O O12 0.053232 0.112565 0.488200
O O13 0.000000 0.000000 0.500000
O O14 0.044045 0.210843 0.349853
#
# Coordination Sequence:
#
# PCOD8283564 Si02
#       7
#    16  16  16  16  16  16   4
#     4  12  25  44  72 109 152 194 239 301 370 459
#     4  11  25  41  68 103 144 182 236 294 362 448
#     4  11  24  42  66 102 138 181 233 292 367 432
#     4  11  25  45  70  97 138 183 241 306 360 433
#     4  11  27  47  72 106 144 194 258 298 382 441
#     4  12  24  40  69 101 145 186 227 288 368 435
#     4  12  28  48  78 104 148 204 258 328 352 468
#
# _framework density 22.136901000000002
#
# number of rings (size 3 to 8) (size 9 to 14) (size 15 to 20)
#    0.000    0.640    3.200    3.840   10.080    2.560 
#    0.000    2.000    0.000    0.000    0.000    0.000 
#    0.000    0.000    0.000    0.000    0.000    0.000 
#
# Total GULP energy -619531.727936 kJ/mol
# GULP energy per Si atom -12390.634559 kJ/mol
# Density = 2.208652 g / cm^3
# Si number density = 22.136901 Si / 1000 Ang^3
#
#
#
# Elastic Constant Matrix: (Units=GPa)
#
#
# Indices 1 2 3 4 5 6 
#
# 1 86.9536 53.8671 31.7397 0.0000 0.0000 0.0000
# 2 53.8671 180.0394 33.3947 0.0000 0.0000 0.0000
# 3 31.7397 33.3947 119.6839 0.0000 0.0000 0.0000
# 4 0.0000 0.0000 0.0000 38.6614 0.0000 0.0000
# 5 0.0000 0.0000 0.0000 0.0000 29.2109 0.0000
# 6 0.0000 0.0000 0.0000 0.0000 0.0000 36.4523
#
#
#
# Elastic Compliance Matrix: (Units=1/GPa)
#
#
# Indices 1 2 3 4 5 6 
#
# 1 0.014999 -0.003955 -0.002874 0.000000 0.000000 0.000000
# 2 -0.003955 0.006900 -0.000877 0.000000 0.000000 0.000000
# 3 -0.002874 -0.000877 0.009362 0.000000 0.000000 0.000000
# 4 0.000000 0.000000 0.000000 0.025866 0.000000 0.000000
# 5 0.000000 0.000000 0.000000 0.000000 0.034234 0.000000
# 6 0.000000 0.000000 0.000000 0.000000 0.000000 0.027433
#
#
# Mechanical properties :
#
#
# Convention : Reuss Voigt Hill
#
# Bulk Modulus (GPa) = 63.08871 69.40889 66.24880
# Shear Modulus (GPa) = 35.84515 38.70995 37.27755
#
# Velocity S-wave (km/s) = 4.02835 4.18624 4.10805
# Velocity P-wave (km/s) = 7.08506 7.40193 7.24523
#
# Compressibility (1/GPa) = 0.01585070
#
# Stress axis : x y z
#
# Youngs Moduli (GPa) = 66.66914 144.92463 106.81260
#
# Poissons Ratio (x) = 0.57312 0.30702
# Poissons Ratio (y) = 0.26365 0.09363
# Poissons Ratio (z) = 0.19163 0.12703
#
# Static dielectric constant tensor:
#      x y z
#    x 3.817750 0.000000 0.000000 
#    y 0.000000 4.599730 0.000000 
#    z 0.000000 0.000000 4.152250 
# 
# 
# High freq. dielectric constant tensor:
#      x y z
#    x 1.843320 0.000000 0.000000 
#    y 0.000000 1.900890 0.000000 
#    z 0.000000 0.000000 1.883060 
# 
# From -- ./inp_files/8997.got.cif
#   From: 2010.03.12/outbox.cif.g09.slc.cpg/sg68_5_cif.got.tgz:8997.got - 2010.04.10 23:14:56.
