data_PCOD8283747
_publ_section_title
;
Structure prediction by ZEFSAII (Michael W. Deem and Ramdas Pophale) SiO2 
 PCOD8283747
Probable space group: C C C A
;
_chemical_formula_sum "Si O2"
_cell_formula_units_Z 44
_cell_length_a 9.248264
_cell_length_b 17.958751
_cell_length_c 11.518190
_cell_angle_alpha 90.000000
_cell_angle_beta 90.000000
_cell_angle_gamma 90.000000
_cell_volume 1913.024737
_symmetry_space_group_name_H-M "C C C A"
_symmetry_group_IT_number 68
_space_group.IT_coordinate_system_code '2'
_symmetry_cell_setting 'orthorhombic'
loop_
_space_group_symop_operation_xyz
x,y,z
-x,1/2-y,z
x,1/2-y,1/2-z
-x,y,1/2-z
-x,-y,-z
x,1/2+y,-z
-x,1/2+y,1/2+z
x,-y,1/2+z
1/2+x,1/2+y,z
1/2-x,-y,z
1/2+x,-y,1/2-z
1/2-x,1/2+y,1/2-z
1/2-x,1/2-y,-z
1/2+x,y,-z
1/2-x,y,1/2+z
1/2+x,1/2-y,1/2+z
loop_
_atom_site_type_symbol
_atom_site_label
_atom_site_fract_x
_atom_site_fract_y
_atom_site_fract_z
Si Si1 0.500000 0.250000 0.750000
Si Si2 0.372281 0.948296 0.548687
Si Si3 0.737568 0.313670 0.903449
Si Si4 0.000000 0.851820 0.250000
O O1 0.595309 0.303293 0.828437
O O2 0.289313 0.895699 0.455373
O O3 0.421312 0.900854 0.656183
O O4 0.500000 0.000000 0.500000
O O5 0.250000 0.000000 0.601834
O O6 0.880104 0.304892 0.822081
O O7 0.750000 0.250000 0.000000
#
# Coordination Sequence:
#
# PCOD8283747 Si02
#       4
#     4  16  16   8
#     4  12  28  44  84 104 152 194 258 312 396 442
#     4  12  28  50  75 115 158 203 262 324 390 475
#     4  12  28  53  76 117 153 205 265 325 389 476
#     4  12  28  50  84 105 163 208 260 320 407 459
#
# _framework density 23.000225
#
# number of rings (size 3 to 8) (size 9 to 14) (size 15 to 20)
#    0.000    0.000    3.636    4.364   10.182    5.091 
#    0.000    0.000    0.000    0.000    0.000    0.000 
#    0.000    0.000    0.000    0.000    0.000    0.000 
#
# Total GULP energy -272724.742691 kJ/mol
# GULP energy per Si atom -12396.579213 kJ/mol
# Density = 2.294787 g / cm^3
# Si number density = 23.000225 Si / 1000 Ang^3
#
#
#
# Elastic Constant Matrix: (Units=GPa)
#
#
# Indices 1 2 3 4 5 6 
#
# 1 186.0970 62.6337 80.9348 0.0000 0.0000 0.0000
# 2 62.6337 116.9465 54.6353 0.0000 0.0000 0.0000
# 3 80.9348 54.6353 148.6607 0.0000 0.0000 0.0000
# 4 0.0000 0.0000 0.0000 267.5391 0.0000 0.0000
# 5 0.0000 0.0000 0.0000 0.0000 2.2174 0.0000
# 6 0.0000 0.0000 0.0000 0.0000 0.0000 56.8106
#
#
#
# Elastic Compliance Matrix: (Units=1/GPa)
#
#
# Indices 1 2 3 4 5 6 
#
# 1 0.007641 -0.002594 -0.003207 0.000000 0.000000 0.000000
# 2 -0.002594 0.011204 -0.002705 0.000000 0.000000 0.000000
# 3 -0.003207 -0.002705 0.009467 0.000000 0.000000 0.000000
# 4 0.000000 0.000000 0.000000 0.003738 0.000000 0.000000
# 5 0.000000 0.000000 0.000000 0.000000 0.450982 0.000000
# 6 0.000000 0.000000 0.000000 0.000000 0.000000 0.017602
#
#
# Mechanical properties :
#
#
# Convention : Reuss Voigt Hill
#
# Bulk Modulus (GPa) = 88.49834 94.23466 91.36650
# Shear Modulus (GPa) = 9.58931 82.21343 45.90137
#
# Velocity S-wave (km/s) = 2.04408 5.98517 4.47216
# Velocity P-wave (km/s) = 6.64317 9.42460 8.15337
#
# Compressibility (1/GPa) = 0.01129965
#
# Stress axis : x y z
#
# Youngs Moduli (GPa) = 130.86739 89.25147 105.63285
#
# Poissons Ratio (x) = 0.23156 0.33873
# Poissons Ratio (y) = 0.33953 0.28577
# Poissons Ratio (z) = 0.41965 0.24145
#
# Static dielectric constant tensor:
#      x y z
#    x 4.628540 0.000000 0.000000 
#    y 0.000000 4.311210 0.000000 
#    z 0.000000 0.000000 4.403430 
# 
# 
# High freq. dielectric constant tensor:
#      x y z
#    x 1.939020 0.000000 0.000000 
#    y 0.000000 1.924160 0.000000 
#    z 0.000000 0.000000 1.922270 
# 
# From -- ./inp_files/18788.got.cif
#   From: 2010.03.12/outbox.cif.g09.slc.cpg/sg68_10_cif.got.tgz:18788.got - 2010.04.10 23:14:56.
