data_PCOD8283429
_publ_section_title
;
Structure prediction by ZEFSAII (Michael W. Deem and Ramdas Pophale) SiO2 
 PCOD8283429
Probable space group: C C C A
;
_chemical_formula_sum "Si O2"
_cell_formula_units_Z 116
_cell_length_a 26.504116
_cell_length_b 21.605853
_cell_length_c 9.758638
_cell_angle_alpha 90.000000
_cell_angle_beta 90.000000
_cell_angle_gamma 90.000000
_cell_volume 5588.225833
_symmetry_space_group_name_H-M "C C C A"
_symmetry_group_IT_number 68
_space_group.IT_coordinate_system_code '2'
_symmetry_cell_setting 'orthorhombic'
loop_
_space_group_symop_operation_xyz
x,y,z
-x,1/2-y,z
x,1/2-y,1/2-z
-x,y,1/2-z
-x,-y,-z
x,1/2+y,-z
-x,1/2+y,1/2+z
x,-y,1/2+z
1/2+x,1/2+y,z
1/2-x,-y,z
1/2+x,-y,1/2-z
1/2-x,1/2+y,1/2-z
1/2-x,1/2-y,-z
1/2+x,y,-z
1/2-x,y,1/2+z
1/2+x,1/2-y,1/2+z
loop_
_atom_site_type_symbol
_atom_site_label
_atom_site_fract_x
_atom_site_fract_y
_atom_site_fract_z
Si Si1 0.337204 0.372264 0.849456
Si Si2 0.965389 0.988806 0.624767
Si Si3 0.347556 0.877654 0.577030
Si Si4 0.923097 0.350415 0.353766
Si Si5 0.255560 0.208521 0.128049
Si Si6 0.000000 0.250000 0.250000
Si Si7 0.127838 0.576136 0.140280
Si Si8 0.303413 0.469477 0.634240
O O1 0.390599 0.352802 0.785063
O O2 0.300862 0.313948 0.842993
O O3 0.305009 0.421938 0.761057
O O4 0.349237 0.391122 0.005754
O O5 0.946989 0.918204 0.628007
O O6 0.000000 0.005701 0.750000
O O7 0.923482 0.041301 0.608071
O O8 0.000000 0.000000 0.500000
O O9 0.385968 0.837703 0.482351
O O10 0.293797 0.846103 0.596108
O O11 0.376079 0.881253 0.723896
O O12 0.332775 0.941730 0.498903
O O13 0.964906 0.295542 0.343086
O O14 0.277246 0.250000 0.250000
O O15 0.250000 0.250000 0.000000
O O16 0.166552 0.526212 0.195442
O O17 0.250000 0.500000 0.593634
#
# Coordination Sequence:
#
# PCOD8283429 Si02
#       8
#    16  16  16  16  16   4  16  16
#     4  11  24  42  66  99 138 175 231 281 341 423
#     4  12  24  42  69 100 137 174 222 288 362 430
#     4  11  24  43  64 100 141 176 231 287 349 421
#     4  11  25  47  72  99 133 180 244 295 346 417
#     4  12  25  43  66  93 132 189 233 280 333 403
#     4  12  28  48  80  98 124 192 260 304 340 414
#     4  12  23  40  66 100 140 173 210 279 363 430
#     4  11  22  38  65  98 140 181 213 263 336 427
#
# _framework density 20.757930999999999
#
# number of rings (size 3 to 8) (size 9 to 14) (size 15 to 20)
#    0.000    0.552    3.448    6.621    2.897    1.103 
#    0.000    0.000    0.000    0.828    0.000    0.000 
#    0.000    0.000    0.000    0.000    0.000    0.000 
#
# Total GULP energy -718729.425283 kJ/mol
# GULP energy per Si atom -12391.886643 kJ/mol
# Density = 2.071068 g / cm^3
# Si number density = 20.757931 Si / 1000 Ang^3
#
#
#
# Elastic Constant Matrix: (Units=GPa)
#
#
# Indices 1 2 3 4 5 6 
#
# 1 124.9355 40.0161 39.2042 0.0000 0.0000 0.0000
# 2 40.0161 74.7905 35.5898 0.0000 0.0000 0.0000
# 3 39.2042 35.5898 155.3634 0.0000 0.0000 0.0000
# 4 0.0000 0.0000 0.0000 25.7041 0.0000 0.0000
# 5 0.0000 0.0000 0.0000 0.0000 42.5320 0.0000
# 6 0.0000 0.0000 0.0000 0.0000 0.0000 51.4039
#
#
#
# Elastic Compliance Matrix: (Units=1/GPa)
#
#
# Indices 1 2 3 4 5 6 
#
# 1 0.009941 -0.004630 -0.001448 0.000000 0.000000 0.000000
# 2 -0.004630 0.017163 -0.002763 0.000000 0.000000 0.000000
# 3 -0.001448 -0.002763 0.007435 0.000000 0.000000 0.000000
# 4 0.000000 0.000000 0.000000 0.038904 0.000000 0.000000
# 5 0.000000 0.000000 0.000000 0.000000 0.023512 0.000000
# 6 0.000000 0.000000 0.000000 0.000000 0.000000 0.019454
#
#
# Mechanical properties :
#
#
# Convention : Reuss Voigt Hill
#
# Bulk Modulus (GPa) = 59.32368 64.96770 62.14569
# Shear Modulus (GPa) = 35.78829 39.94662 37.86746
#
# Velocity S-wave (km/s) = 4.15671 4.39156 4.27575
# Velocity P-wave (km/s) = 7.18877 7.55514 7.37423
#
# Compressibility (1/GPa) = 0.01685667
#
# Stress axis : x y z
#
# Youngs Moduli (GPa) = 100.58855 58.26526 134.50093
#
# Poissons Ratio (x) = 0.26977 0.19476
# Poissons Ratio (y) = 0.46573 0.37166
# Poissons Ratio (z) = 0.14565 0.16100
#
# Static dielectric constant tensor:
#      x y z
#    x 4.641660 0.000000 0.000000 
#    y 0.000000 3.649480 0.000000 
#    z 0.000000 0.000000 3.898730 
# 
# 
# High freq. dielectric constant tensor:
#      x y z
#    x 1.824400 0.000000 0.000000 
#    y 0.000000 1.805170 0.000000 
#    z 0.000000 0.000000 1.826060 
# 
# From -- ./inp_files/9174.got.cif
#   From: 2010.03.12/outbox.cif.g09.slc.cpg/sg68_5_cif.got.tgz:9174.got - 2010.04.10 23:14:56.
