data_PCOD8283041
_publ_section_title
;
Structure prediction by ZEFSAII (Michael W. Deem and Ramdas Pophale) SiO2 
 PCOD8283041
Probable space group: C C C A
;
_chemical_formula_sum "Si O2"
_cell_formula_units_Z 96
_cell_length_a 30.173557
_cell_length_b 13.305065
_cell_length_c 11.340475
_cell_angle_alpha 90.000000
_cell_angle_beta 90.000000
_cell_angle_gamma 90.000000
_cell_volume 4552.759990
_symmetry_space_group_name_H-M "C C C A"
_symmetry_group_IT_number 68
_space_group.IT_coordinate_system_code '2'
_symmetry_cell_setting 'orthorhombic'
loop_
_space_group_symop_operation_xyz
x,y,z
-x,1/2-y,z
x,1/2-y,1/2-z
-x,y,1/2-z
-x,-y,-z
x,1/2+y,-z
-x,1/2+y,1/2+z
x,-y,1/2+z
1/2+x,1/2+y,z
1/2-x,-y,z
1/2+x,-y,1/2-z
1/2-x,1/2+y,1/2-z
1/2-x,1/2-y,-z
1/2+x,y,-z
1/2-x,y,1/2+z
1/2+x,1/2-y,1/2+z
loop_
_atom_site_type_symbol
_atom_site_label
_atom_site_fract_x
_atom_site_fract_y
_atom_site_fract_z
Si Si1 0.191754 0.257805 0.611092
Si Si2 0.461474 0.887772 0.569597
Si Si3 0.613536 0.269005 0.961720
Si Si4 0.767068 0.114635 0.425831
Si Si5 0.000000 0.250000 0.750000
Si Si6 0.823089 0.750000 0.750000
Si Si7 0.500000 0.750000 0.250000
Si Si8 0.451613 0.391782 0.922119
O O1 0.199436 0.250000 0.750000
O O2 0.141733 0.225167 0.581827
O O3 0.203441 0.365385 0.545663
O O4 0.222435 0.175201 0.550011
O O5 0.428030 0.846099 0.469252
O O6 0.464068 0.813789 0.678585
O O7 0.511838 0.893084 0.524389
O O8 0.443741 0.993991 0.617831
O O9 0.644542 0.296573 0.850049
O O10 0.595222 0.154594 0.960943
O O11 0.793188 0.161070 0.310367
O O12 0.750000 0.000000 0.407743
O O13 0.532757 0.678141 0.182158
#
# Coordination Sequence:
#
# PCOD8283041 Si02
#       8
#    16  16  16  16   4   8   4  16
#     4  10  23  42  67 100 132 173 221 275 336 415
#     4  11  24  40  64  92 131 178 229 276 339 406
#     4  11  22  42  63  96 141 171 220 293 336 396
#     4  10  22  46  73  97 135 180 226 277 346 414
#     4  12  20  44  62  88 128 182 224 294 330 402
#     4  10  23  44  68 104 138 178 231 283 344 421
#     4  12  18  40  68  84 116 182 220 276 324 406
#     4  11  23  41  63  95 124 178 227 268 339 405
#
# _framework density 21.086110999999999
#
# number of rings (size 3 to 8) (size 9 to 14) (size 15 to 20)
#    0.000    1.333    4.167    1.000    1.167    3.333 
#    3.000    0.000    0.000    0.000    0.000    0.000 
#    0.000    0.000    0.000    0.000    0.000    0.000 
#
# Total GULP energy -594700.230698 kJ/mol
# GULP energy per Si atom -12389.588140 kJ/mol
# Density = 2.103812 g / cm^3
# Si number density = 21.086111 Si / 1000 Ang^3
#
#
#
# Elastic Constant Matrix: (Units=GPa)
#
#
# Indices 1 2 3 4 5 6 
#
# 1 107.2255 43.2055 33.7698 0.0000 0.0000 0.0000
# 2 43.2055 160.7660 55.8060 0.0000 0.0000 0.0000
# 3 33.7698 55.8060 113.5499 0.0000 0.0000 0.0000
# 4 0.0000 0.0000 0.0000 37.9674 0.0000 0.0000
# 5 0.0000 0.0000 0.0000 0.0000 26.0609 0.0000
# 6 0.0000 0.0000 0.0000 0.0000 0.0000 19.3609
#
#
#
# Elastic Compliance Matrix: (Units=1/GPa)
#
#
# Indices 1 2 3 4 5 6 
#
# 1 0.010885 -0.002172 -0.002170 0.000000 0.000000 0.000000
# 2 -0.002172 0.007933 -0.003253 0.000000 0.000000 0.000000
# 3 -0.002170 -0.003253 0.011051 0.000000 0.000000 0.000000
# 4 0.000000 0.000000 0.000000 0.026338 0.000000 0.000000
# 5 0.000000 0.000000 0.000000 0.000000 0.038372 0.000000
# 6 0.000000 0.000000 0.000000 0.000000 0.000000 0.051650
#
#
# Mechanical properties :
#
#
# Convention : Reuss Voigt Hill
#
# Bulk Modulus (GPa) = 68.12333 71.90045 70.01189
# Shear Modulus (GPa) = 30.06414 33.26186 31.66300
#
# Velocity S-wave (km/s) = 3.78005 3.97600 3.87926
# Velocity P-wave (km/s) = 7.17140 7.43307 7.30341
#
# Compressibility (1/GPa) = 0.01467926
#
# Stress axis : x y z
#
# Youngs Moduli (GPa) = 91.87238 126.05367 90.49270
#
# Poissons Ratio (x) = 0.27380 0.19633
# Poissons Ratio (y) = 0.19956 0.29436
# Poissons Ratio (z) = 0.19932 0.41004
#
# Static dielectric constant tensor:
#      x y z
#    x 3.928330 0.000000 0.000000 
#    y 0.000000 3.928000 0.000000 
#    z 0.000000 0.000000 3.791420 
# 
# 
# High freq. dielectric constant tensor:
#      x y z
#    x 1.839780 0.000000 0.000000 
#    y 0.000000 1.810980 0.000000 
#    z 0.000000 0.000000 1.822450 
# 
# From -- ./inp_files/17748.got.cif
#   From: 2010.03.12/outbox.cif.g09.slc.cpg/sg68_9_cif.got.tgz:17748.got - 2010.04.10 23:14:56.
