data_PCOD8283832
_publ_section_title
;
Structure prediction by ZEFSAII (Michael W. Deem and Ramdas Pophale) SiO2 
 PCOD8283832
Probable space group: F M M M
;
_chemical_formula_sum "Si O2"
_cell_formula_units_Z 224
_cell_length_a 20.001381
_cell_length_b 32.367536
_cell_length_c 18.686552
_cell_angle_alpha 90.000000
_cell_angle_beta 90.000000
_cell_angle_gamma 90.000000
_cell_volume 12097.588172
_symmetry_space_group_name_H-M "F M M M"
_symmetry_group_IT_number 69
_symmetry_cell_setting 'orthorhombic'
loop_
_space_group_symop_operation_xyz
x,y,z
-x,-y,z
x,-y,-z
-x,y,-z
-x,-y,-z
x,y,-z
-x,y,z
x,-y,z
x,1/2+y,1/2+z
-x,1/2-y,1/2+z
x,1/2-y,1/2-z
-x,1/2+y,1/2-z
-x,1/2-y,1/2-z
x,1/2+y,1/2-z
-x,1/2+y,1/2+z
x,1/2-y,1/2+z
1/2+x,y,1/2+z
1/2-x,-y,1/2+z
1/2+x,-y,1/2-z
1/2-x,y,1/2-z
1/2-x,-y,1/2-z
1/2+x,y,1/2-z
1/2-x,y,1/2+z
1/2+x,-y,1/2+z
1/2+x,1/2+y,z
1/2-x,1/2-y,z
1/2+x,1/2-y,-z
1/2-x,1/2+y,-z
1/2-x,1/2-y,-z
1/2+x,1/2+y,-z
1/2-x,1/2+y,z
1/2+x,1/2-y,z
loop_
_atom_site_type_symbol
_atom_site_label
_atom_site_fract_x
_atom_site_fract_y
_atom_site_fract_z
Si Si1 0.261954 0.162213 0.172515
Si Si2 0.119283 0.812234 0.416920
Si Si3 0.000000 0.255573 0.085275
Si Si4 0.320780 0.428003 0.686455
Si Si5 0.358771 0.872989 0.415703
Si Si6 0.500000 0.337256 0.915415
Si Si7 0.821123 0.454195 0.657355
Si Si8 0.076101 0.095454 0.420069
O O1 0.250000 0.183649 0.250000
O O2 0.311345 0.191276 0.126634
O O3 0.297183 0.119048 0.189960
O O4 0.193940 0.154996 0.127857
O O5 0.136290 0.805051 0.500000
O O6 0.067276 0.778178 0.387345
O O7 0.084975 0.856297 0.403885
O O8 0.000000 0.209184 0.115974
O O9 0.000000 0.257613 0.000000
O O10 0.259470 0.455611 0.658799
O O11 0.347117 0.441768 0.763912
O O12 0.381481 0.433550 0.631957
O O13 0.348281 0.864879 0.500000
O O14 0.433302 0.860861 0.389609
O O15 0.348637 0.921612 0.400382
O O16 0.500000 0.334624 0.000000
O O17 0.847036 0.500000 0.636662
O O18 0.100902 0.085894 0.500000
O O19 0.000000 0.082871 0.409171
#
# Coordination Sequence:
#
# PCOD8283832 Si02
#       8
#    32  32  16  32  32  16  32  32
#     4  10  17  31  51  80 108 146 177 210 256 308
#     4   9  16  27  49  81 111 138 177 222 256 297
#     4   9  16  32  55  82 110 140 174 215 265 309
#     4   9  16  30  49  77 106 142 175 211 253 310
#     4  10  20  37  57  80 102 133 179 224 268 319
#     4   9  20  38  60  77 101 137 179 227 271 314
#     4  10  19  34  55  77 101 130 171 224 272 314
#     4   9  16  27  46  77 113 147 178 212 248 296
#
# _framework density 18.516088
#
# number of rings (size 3 to 8) (size 9 to 14) (size 15 to 20)
#    0.000    2.571    3.571    1.286    0.000    3.714 
#    1.286    1.786    0.000    9.857    0.000    4.000 
#    0.000    0.000    0.000    0.000    0.000    0.000 
#
# Total GULP energy -694232.598566 kJ/mol
# GULP energy per Si atom -12397.010689 kJ/mol
# Density = 1.847394 g / cm^3
# Si number density = 18.516088 Si / 1000 Ang^3
#
#
#
# Elastic Constant Matrix: (Units=GPa)
#
#
# Indices 1 2 3 4 5 6 
#
# 1 107.9713 38.1654 53.0869 0.0000 0.0000 0.0000
# 2 38.1654 63.0617 26.1374 0.0000 0.0000 0.0000
# 3 53.0869 26.1374 86.4625 0.0000 0.0000 0.0000
# 4 0.0000 0.0000 0.0000 12.9699 0.0000 0.0000
# 5 0.0000 0.0000 0.0000 0.0000 24.0532 0.0000
# 6 0.0000 0.0000 0.0000 0.0000 0.0000 16.9482
#
#
#
# Elastic Compliance Matrix: (Units=1/GPa)
#
#
# Indices 1 2 3 4 5 6 
#
# 1 0.015036 -0.006029 -0.007409 0.000000 0.000000 0.000000
# 2 -0.006029 0.020546 -0.002509 0.000000 0.000000 0.000000
# 3 -0.007409 -0.002509 0.016873 0.000000 0.000000 0.000000
# 4 0.000000 0.000000 0.000000 0.077102 0.000000 0.000000
# 5 0.000000 0.000000 0.000000 0.000000 0.041575 0.000000
# 6 0.000000 0.000000 0.000000 0.000000 0.000000 0.059003
#
#
# Mechanical properties :
#
#
# Convention : Reuss Voigt Hill
#
# Bulk Modulus (GPa) = 48.63711 54.69720 51.66715
# Shear Modulus (GPa) = 18.59543 20.13466 19.36504
#
# Velocity S-wave (km/s) = 3.17248 3.30117 3.23747
# Velocity P-wave (km/s) = 6.30429 6.64340 6.47607
#
# Compressibility (1/GPa) = 0.02056043
#
# Stress axis : x y z
#
# Youngs Moduli (GPa) = 66.50836 48.67071 59.26454
#
# Poissons Ratio (x) = 0.29342 0.43911
# Poissons Ratio (y) = 0.40096 0.14872
# Poissons Ratio (z) = 0.49278 0.12214
#
# Static dielectric constant tensor:
#      x y z
#    x 3.564990 0.000000 0.000000 
#    y 0.000000 3.196390 0.000000 
#    z 0.000000 0.000000 3.409320 
# 
# 
# High freq. dielectric constant tensor:
#      x y z
#    x 1.714310 0.000000 0.000000 
#    y 0.000000 1.691490 0.000000 
#    z 0.000000 0.000000 1.706700 
# 
# From -- ./inp_files/31228.got.cif
#   From: 2010.03.12/outbox.cif.g09.slc.cpg/sg69_16_cif.got.tgz:31228.got - 2010.04.10 23:52:46.
