data_PCOD8283645
_publ_section_title
;
Structure prediction by ZEFSAII (Michael W. Deem and Ramdas Pophale) SiO2 
 PCOD8283645
Probable space group: C C C A
;
_chemical_formula_sum "Si O2"
_cell_formula_units_Z 88
_cell_length_a 12.844104
_cell_length_b 22.832398
_cell_length_c 14.836802
_cell_angle_alpha 90.000000
_cell_angle_beta 90.000000
_cell_angle_gamma 90.000000
_cell_volume 4351.065695
_symmetry_space_group_name_H-M "C C C A"
_symmetry_group_IT_number 68
_space_group.IT_coordinate_system_code '2'
_symmetry_cell_setting 'orthorhombic'
loop_
_space_group_symop_operation_xyz
x,y,z
-x,1/2-y,z
x,1/2-y,1/2-z
-x,y,1/2-z
-x,-y,-z
x,1/2+y,-z
-x,1/2+y,1/2+z
x,-y,1/2+z
1/2+x,1/2+y,z
1/2-x,-y,z
1/2+x,-y,1/2-z
1/2-x,1/2+y,1/2-z
1/2-x,1/2-y,-z
1/2+x,y,-z
1/2-x,y,1/2+z
1/2+x,1/2-y,1/2+z
loop_
_atom_site_type_symbol
_atom_site_label
_atom_site_fract_x
_atom_site_fract_y
_atom_site_fract_z
Si Si1 0.453183 0.544430 0.928135
Si Si2 0.601321 0.548700 0.211570
Si Si3 0.259402 0.384362 0.412813
Si Si4 0.376827 0.682103 0.757546
Si Si5 0.750000 0.000000 0.642604
Si Si6 0.648376 0.386874 0.415685
O O1 0.441480 0.511794 0.832301
O O2 0.337700 0.566829 0.953589
O O3 0.523848 0.603457 0.922575
O O4 0.500000 0.500000 0.000000
O O5 0.500000 0.583378 0.250000
O O6 0.664514 0.586862 0.140953
O O7 0.670944 0.535553 0.296579
O O8 0.325726 0.340105 0.350711
O O9 0.201753 0.353780 0.498610
O O10 0.350240 0.750000 0.750000
O O11 0.500000 0.670794 0.750000
O O12 0.322403 0.648642 0.674252
O O13 0.810500 0.046463 0.582143
#
# Coordination Sequence:
#
# PCOD8283645 Si02
#       6
#    16  16  16  16   8  16
#     4  12  22  35  56  95 140 174 206 249 320 406
#     4  12  23  35  57  89 139 178 212 251 313 395
#     4  12  25  41  63  97 131 170 221 273 333 387
#     4  11  25  49  73  92 122 173 234 285 328 389
#     4  12  22  36  60  96 134 178 204 256 328 396
#     4  12  24  39  65  99 134 169 215 268 325 401
#
# _framework density 20.224930000000001
#
# number of rings (size 3 to 8) (size 9 to 14) (size 15 to 20)
#    0.000    0.182    9.091    1.091    0.000    0.727 
#    0.000    0.000    0.000    0.545    0.000    0.000 
#    0.000    0.000    0.000    0.000    0.000    0.000 
#
# Total GULP energy -545394.149753 kJ/mol
# GULP energy per Si atom -12395.321585 kJ/mol
# Density = 2.017890 g / cm^3
# Si number density = 20.224930 Si / 1000 Ang^3
#
#
#
# Elastic Constant Matrix: (Units=GPa)
#
#
# Indices 1 2 3 4 5 6 
#
# 1 89.1505 24.4921 32.7338 0.0000 0.0000 0.0000
# 2 24.4921 73.2691 28.5500 0.0000 0.0000 0.0000
# 3 32.7338 28.5500 89.5844 0.0000 0.0000 0.0000
# 4 0.0000 0.0000 0.0000 18.9013 0.0000 0.0000
# 5 0.0000 0.0000 0.0000 0.0000 41.4370 0.0000
# 6 0.0000 0.0000 0.0000 0.0000 0.0000 21.3275
#
#
#
# Elastic Compliance Matrix: (Units=1/GPa)
#
#
# Indices 1 2 3 4 5 6 
#
# 1 0.013494 -0.002957 -0.003988 0.000000 0.000000 0.000000
# 2 -0.002957 0.016231 -0.004093 0.000000 0.000000 0.000000
# 3 -0.003988 -0.004093 0.013924 0.000000 0.000000 0.000000
# 4 0.000000 0.000000 0.000000 0.052906 0.000000 0.000000
# 5 0.000000 0.000000 0.000000 0.000000 0.024133 0.000000
# 6 0.000000 0.000000 0.000000 0.000000 0.000000 0.046888
#
#
# Mechanical properties :
#
#
# Convention : Reuss Voigt Hill
#
# Bulk Modulus (GPa) = 46.35101 47.06174 46.70638
# Shear Modulus (GPa) = 25.40102 27.41504 26.40803
#
# Velocity S-wave (km/s) = 3.54775 3.68572 3.61739
# Velocity P-wave (km/s) = 6.30472 6.43680 6.37110
#
# Compressibility (1/GPa) = 0.02157450
#
# Stress axis : x y z
#
# Youngs Moduli (GPa) = 74.10911 61.60933 71.81725
#
# Poissons Ratio (x) = 0.18215 0.28643
# Poissons Ratio (y) = 0.21910 0.29391
# Poissons Ratio (z) = 0.29557 0.25214
#
# Static dielectric constant tensor:
#      x y z
#    x 4.208400 0.000000 0.000000 
#    y 0.000000 2.768360 0.000000 
#    z 0.000000 0.000000 3.752470 
# 
# 
# High freq. dielectric constant tensor:
#      x y z
#    x 1.814410 0.000000 0.000000 
#    y 0.000000 1.731350 0.000000 
#    z 0.000000 0.000000 1.806490 
# 
# From -- ./inp_files/20949.got.cif
#   From: 2010.03.12/outbox.cif.g09.slc.cpg/sg68_11_cif.got.tgz:20949.got - 2010.04.10 23:14:56.
