data_PCOD8283071
_publ_section_title
;
Structure prediction by ZEFSAII (Michael W. Deem and Ramdas Pophale) SiO2 
 PCOD8283071
Probable space group: C C C A
;
_chemical_formula_sum "Si O2"
_cell_formula_units_Z 48
_cell_length_a 13.697379
_cell_length_b 7.415576
_cell_length_c 23.379202
_cell_angle_alpha 90.000000
_cell_angle_beta 90.000000
_cell_angle_gamma 90.000000
_cell_volume 2374.718011
_symmetry_space_group_name_H-M "C C C A"
_symmetry_group_IT_number 68
_space_group.IT_coordinate_system_code '2'
_symmetry_cell_setting 'orthorhombic'
loop_
_space_group_symop_operation_xyz
x,y,z
-x,1/2-y,z
x,1/2-y,1/2-z
-x,y,1/2-z
-x,-y,-z
x,1/2+y,-z
-x,1/2+y,1/2+z
x,-y,1/2+z
1/2+x,1/2+y,z
1/2-x,-y,z
1/2+x,-y,1/2-z
1/2-x,1/2+y,1/2-z
1/2-x,1/2-y,-z
1/2+x,y,-z
1/2-x,y,1/2+z
1/2+x,1/2-y,1/2+z
loop_
_atom_site_type_symbol
_atom_site_label
_atom_site_fract_x
_atom_site_fract_y
_atom_site_fract_z
Si Si1 0.250000 0.000000 0.098592
Si Si2 0.709894 0.695993 0.812161
Si Si3 0.500000 0.750000 0.650230
Si Si4 0.959661 0.554234 0.561095
O O1 0.251677 0.174731 0.138454
O O2 0.157506 0.032416 0.057543
O O3 0.752240 0.750000 0.750000
O O4 0.750000 0.500000 0.828199
O O5 0.592909 0.716354 0.809549
O O6 0.503810 0.574531 0.610911
O O7 0.000000 0.750000 0.577554
O O8 0.000000 0.500000 0.500000
#
# Coordination Sequence:
#
# PCOD8283071 Si02
#       4
#     8  16   8  16
#     4  10  24  40  62  88 124 160 202 252 306 364
#     4  11  21  40  64  89 120 159 201 252 308 366
#     4  10  23  40  60  88 122 158 201 256 300 364
#     4  11  22  41  60  89 122 160 205 250 306 366
#
# _framework density 20.212926
#
# number of rings (size 3 to 8) (size 9 to 14) (size 15 to 20)
#    0.000    1.333    3.333    2.500    0.000    1.333 
#    3.000    0.000    0.000    0.000    0.000    0.000 
#    0.000    0.000    0.000    0.000    0.000    0.000 
#
# Total GULP energy -297591.042786 kJ/mol
# GULP energy per Si atom -12399.626783 kJ/mol
# Density = 2.016692 g / cm^3
# Si number density = 20.212926 Si / 1000 Ang^3
#
#
#
# Elastic Constant Matrix: (Units=GPa)
#
#
# Indices 1 2 3 4 5 6 
#
# 1 103.7919 51.1531 64.1210 0.0000 0.0000 0.0000
# 2 51.1531 178.0725 43.7642 0.0000 0.0000 0.0000
# 3 64.1210 43.7642 92.2393 0.0000 0.0000 0.0000
# 4 0.0000 0.0000 0.0000 -2.8782 0.0000 0.0000
# 5 0.0000 0.0000 0.0000 0.0000 27.0045 0.0000
# 6 0.0000 0.0000 0.0000 0.0000 0.0000 25.8630
#
#
#
# Elastic Compliance Matrix: (Units=1/GPa)
#
#
# Indices 1 2 3 4 5 6 
#
# 1 0.017704 -0.002333 -0.011200 0.000000 0.000000 0.000000
# 2 -0.002333 0.006664 -0.001540 0.000000 0.000000 0.000000
# 3 -0.011200 -0.001540 0.019358 0.000000 0.000000 0.000000
# 4 0.000000 0.000000 0.000000 -0.347436 0.000000 0.000000
# 5 0.000000 0.000000 0.000000 0.000000 0.037031 0.000000
# 6 0.000000 0.000000 0.000000 0.000000 0.000000 0.038665
#
#
# Mechanical properties :
#
#
# Convention : Reuss Voigt Hill
#
# Bulk Modulus (GPa) = 73.63961 76.90890 75.27426
# Shear Modulus (GPa) = -25.86096 24.33555 -0.76270
#
# Velocity S-wave (km/s) = -3.58079 3.47358 -0.61494
# Velocity P-wave (km/s) = 4.40624 7.36340 6.06773
#
# Compressibility (1/GPa) = 0.01357965
#
# Stress axis : x y z
#
# Youngs Moduli (GPa) = 56.48580 150.05118 51.65862
#
# Poissons Ratio (x) = 0.35007 0.57857
# Poissons Ratio (y) = 0.13178 0.07957
# Poissons Ratio (z) = 0.63263 0.23111
#
# Static dielectric constant tensor:
#      x y z
#    x 3.838620 0.000000 0.000000 
#    y 0.000000 3.506180 0.000000 
#    z 0.000000 0.000000 3.450060 
# 
# 
# High freq. dielectric constant tensor:
#      x y z
#    x 1.796080 0.000000 0.000000 
#    y 0.000000 1.806250 0.000000 
#    z 0.000000 0.000000 1.789570 
# 
# From -- ./inp_files/27498.got.cif
#   From: 2010.03.12/outbox.cif.g09.slc.cpg/sg68_14_cif.got.tgz:27498.got - 2010.04.10 23:14:56.
