data_PCOD8283907
_publ_section_title
;
Structure prediction by ZEFSAII (Michael W. Deem and Ramdas Pophale) SiO2 
 PCOD8283907
Probable space group: F M M M
;
_chemical_formula_sum "Si O2"
_cell_formula_units_Z 128
_cell_length_a 15.591206
_cell_length_b 24.060273
_cell_length_c 17.283357
_cell_angle_alpha 90.000000
_cell_angle_beta 90.000000
_cell_angle_gamma 90.000000
_cell_volume 6483.482772
_symmetry_space_group_name_H-M "F M M M"
_symmetry_group_IT_number 69
_symmetry_cell_setting 'orthorhombic'
loop_
_space_group_symop_operation_xyz
x,y,z
-x,-y,z
x,-y,-z
-x,y,-z
-x,-y,-z
x,y,-z
-x,y,z
x,-y,z
x,1/2+y,1/2+z
-x,1/2-y,1/2+z
x,1/2-y,1/2-z
-x,1/2+y,1/2-z
-x,1/2-y,1/2-z
x,1/2+y,1/2-z
-x,1/2+y,1/2+z
x,1/2-y,1/2+z
1/2+x,y,1/2+z
1/2-x,-y,1/2+z
1/2+x,-y,1/2-z
1/2-x,y,1/2-z
1/2-x,-y,1/2-z
1/2+x,y,1/2-z
1/2-x,y,1/2+z
1/2+x,-y,1/2+z
1/2+x,1/2+y,z
1/2-x,1/2-y,z
1/2+x,1/2-y,-z
1/2-x,1/2+y,-z
1/2-x,1/2-y,-z
1/2+x,1/2+y,-z
1/2-x,1/2+y,z
1/2+x,1/2-y,z
loop_
_atom_site_type_symbol
_atom_site_label
_atom_site_fract_x
_atom_site_fract_y
_atom_site_fract_z
Si Si1 0.641961 0.000000 0.910614
Si Si2 0.752648 0.813190 0.157465
Si Si3 0.692306 0.000000 0.672155
Si Si4 0.592442 0.881267 0.148252
Si Si5 0.904974 0.613845 0.328098
O O1 0.744378 0.000000 0.901085
O O2 0.603302 0.053824 0.869214
O O3 0.616356 0.000000 0.000000
O O4 0.750000 0.817430 0.250000
O O5 0.750000 0.750000 0.128411
O O6 0.672223 0.844890 0.116940
O O7 0.840814 0.842640 0.129608
O O8 0.750000 0.000000 0.750000
O O9 0.631646 0.052438 0.665189
O O10 0.500000 0.862031 0.112813
O O11 0.588267 0.870666 0.238931
O O12 0.000000 0.617401 0.366233
#
# Coordination Sequence:
#
# PCOD8283907 Si02
#       5
#    16  32  16  32  32
#     4  12  23  34  53  79 107 135 168 213 267 315
#     4   9  17  30  48  75 110 140 170 215 258 296
#     4  12  17  33  55  74 104 139 168 210 260 312
#     4  10  19  32  50  76 107 139 170 207 258 311
#     4  10  18  29  52  80 103 134 175 212 253 306
#
# _framework density 19.742476
#
# number of rings (size 3 to 8) (size 9 to 14) (size 15 to 20)
#    0.000    1.750    5.000    1.500    0.000    4.000 
#    0.000    5.000    0.000    2.250    0.000    0.000 
#    0.000    0.000    0.000    0.000    0.000    0.000 
#
# Total GULP energy -396576.379439 kJ/mol
# GULP energy per Si atom -12393.011857 kJ/mol
# Density = 1.969754 g / cm^3
# Si number density = 19.742476 Si / 1000 Ang^3
#
#
#
# Elastic Constant Matrix: (Units=GPa)
#
#
# Indices 1 2 3 4 5 6 
#
# 1 227.8771 102.8641 8.7827 0.0000 0.0000 0.0000
# 2 102.8641 167.4776 0.8404 0.0000 0.0000 0.0000
# 3 8.7827 0.8404 14.2624 0.0000 0.0000 0.0000
# 4 0.0000 0.0000 0.0000 0.6491 0.0000 0.0000
# 5 0.0000 0.0000 0.0000 0.0000 4.7639 0.0000
# 6 0.0000 0.0000 0.0000 0.0000 0.0000 -26.5760
#
#
#
# Elastic Compliance Matrix: (Units=1/GPa)
#
#
# Indices 1 2 3 4 5 6 
#
# 1 0.006254 -0.003823 -0.003626 0.000000 0.000000 0.000000
# 2 -0.003823 0.008310 0.001864 0.000000 0.000000 0.000000
# 3 -0.003626 0.001864 0.072237 0.000000 0.000000 0.000000
# 4 0.000000 0.000000 0.000000 1.540535 0.000000 0.000000
# 5 0.000000 0.000000 0.000000 0.000000 0.209911 0.000000
# 6 0.000000 0.000000 0.000000 0.000000 0.000000 -0.037628
#
#
# Mechanical properties :
#
#
# Convention : Reuss Voigt Hill
#
# Bulk Modulus (GPa) = 13.22187 70.51015 41.86601
# Shear Modulus (GPa) = 2.72332 15.57607 9.14969
#
# Velocity S-wave (km/s) = 1.17576 2.81189 2.15513
# Velocity P-wave (km/s) = 2.92488 6.80697 5.23879
#
# Compressibility (1/GPa) = 0.07563229
#
# Stress axis : x y z
#
# Youngs Moduli (GPa) = 159.90577 120.34367 13.84327
#
# Poissons Ratio (x) = 0.46005 0.05019
# Poissons Ratio (y) = 0.61129 -0.02581
# Poissons Ratio (z) = 0.57977 -0.22437
#
# Static dielectric constant tensor:
#      x y z
#    x 4.394700 0.000000 0.000000 
#    y 0.000000 3.585510 0.000000 
#    z 0.000000 0.000000 2.941430 
# 
# 
# High freq. dielectric constant tensor:
#      x y z
#    x 1.797130 0.000000 0.000000 
#    y 0.000000 1.768240 0.000000 
#    z 0.000000 0.000000 1.689850 
# 
# From -- ./inp_files/15369.got.cif
#   From: 2010.03.12/outbox.cif.g09.slc.cpg/sg69_8_cif.got.tgz:15369.got - 2010.04.10 23:52:46.
