data_PCOD8283913
_publ_section_title
;
Structure prediction by ZEFSAII (Michael W. Deem and Ramdas Pophale) SiO2 
 PCOD8283913
Probable space group: F M M M
;
_chemical_formula_sum "Si O2"
_cell_formula_units_Z 160
_cell_length_a 14.258563
_cell_length_b 31.678133
_cell_length_c 20.237764
_cell_angle_alpha 90.000000
_cell_angle_beta 90.000000
_cell_angle_gamma 90.000000
_cell_volume 9141.087452
_symmetry_space_group_name_H-M "F M M M"
_symmetry_group_IT_number 69
_symmetry_cell_setting 'orthorhombic'
loop_
_space_group_symop_operation_xyz
x,y,z
-x,-y,z
x,-y,-z
-x,y,-z
-x,-y,-z
x,y,-z
-x,y,z
x,-y,z
x,1/2+y,1/2+z
-x,1/2-y,1/2+z
x,1/2-y,1/2-z
-x,1/2+y,1/2-z
-x,1/2-y,1/2-z
x,1/2+y,1/2-z
-x,1/2+y,1/2+z
x,1/2-y,1/2+z
1/2+x,y,1/2+z
1/2-x,-y,1/2+z
1/2+x,-y,1/2-z
1/2-x,y,1/2-z
1/2-x,-y,1/2-z
1/2+x,y,1/2-z
1/2-x,y,1/2+z
1/2+x,-y,1/2+z
1/2+x,1/2+y,z
1/2-x,1/2-y,z
1/2+x,1/2-y,-z
1/2-x,1/2+y,-z
1/2-x,1/2-y,-z
1/2+x,1/2+y,-z
1/2-x,1/2+y,z
1/2+x,1/2-y,z
loop_
_atom_site_type_symbol
_atom_site_label
_atom_site_fract_x
_atom_site_fract_y
_atom_site_fract_z
Si Si1 0.000000 0.912220 0.118004
Si Si2 0.347024 0.678008 0.723230
Si Si3 0.309415 0.548351 0.075292
Si Si4 0.000000 0.451117 0.761435
Si Si5 0.313443 0.084303 0.188469
Si Si6 0.500000 0.324676 0.167512
Si Si7 0.500000 0.234018 0.824268
O O1 0.090000 0.929982 0.081362
O O2 0.000000 0.923516 0.195318
O O3 0.000000 0.861017 0.112012
O O4 0.250000 0.699025 0.750000
O O5 0.325382 0.634542 0.686171
O O6 0.408434 0.668839 0.787740
O O7 0.403676 0.706881 0.669405
O O8 0.319098 0.500000 0.098168
O O9 0.233396 0.571544 0.119907
O O10 0.274921 0.551784 0.000000
O O11 0.088777 0.439908 0.806236
O O12 0.000000 0.500000 0.741827
O O13 0.250000 0.069912 0.250000
O O14 0.500000 0.277504 0.132835
O O15 0.500000 0.250000 0.750000
#
# Coordination Sequence:
#
# PCOD8283913 Si02
#       7
#    16  32  32  16  32  16  16
#     4  12  19  35  55  79 106 140 175 221 271 318
#     4   9  15  28  45  70 104 139 169 207 260 317
#     4  11  24  39  54  77 109 144 182 220 264 319
#     4  12  21  30  52  81 105 136 180 221 267 313
#     4  11  20  34  54  80 110 140 177 224 268 312
#     4  10  18  30  45  77 110 132 168 216 266 317
#     4   8  17  26  43  71 108 137 161 208 267 318
#
# _framework density 17.503388000000001
#
# number of rings (size 3 to 8) (size 9 to 14) (size 15 to 20)
#    0.000    1.800    4.000    3.600    0.000    5.200 
#    0.000    0.500    0.000    1.800    0.000    4.200 
#    0.000    0.000    0.000    0.000    0.000    0.000 
#
# Total GULP energy -495885.529400 kJ/mol
# GULP energy per Si atom -12397.138235 kJ/mol
# Density = 1.746355 g / cm^3
# Si number density = 17.503388 Si / 1000 Ang^3
#
#
#
# Elastic Constant Matrix: (Units=GPa)
#
#
# Indices 1 2 3 4 5 6 
#
# 1 133.8327 49.4085 32.9108 0.0000 0.0000 0.0000
# 2 49.4085 138.9411 31.6130 0.0000 0.0000 0.0000
# 3 32.9108 31.6130 60.2785 0.0000 0.0000 0.0000
# 4 0.0000 0.0000 0.0000 15.0065 0.0000 0.0000
# 5 0.0000 0.0000 0.0000 0.0000 6.4947 0.0000
# 6 0.0000 0.0000 0.0000 0.0000 0.0000 16.4268
#
#
#
# Elastic Compliance Matrix: (Units=1/GPa)
#
#
# Indices 1 2 3 4 5 6 
#
# 1 0.009309 -0.002446 -0.003800 0.000000 0.000000 0.000000
# 2 -0.002446 0.008815 -0.003288 0.000000 0.000000 0.000000
# 3 -0.003800 -0.003288 0.020389 0.000000 0.000000 0.000000
# 4 0.000000 0.000000 0.000000 0.066638 0.000000 0.000000
# 5 0.000000 0.000000 0.000000 0.000000 0.153971 0.000000
# 6 0.000000 0.000000 0.000000 0.000000 0.000000 0.060876
#
#
# Mechanical properties :
#
#
# Convention : Reuss Voigt Hill
#
# Bulk Modulus (GPa) = 51.42443 62.32410 56.87427
# Shear Modulus (GPa) = 14.46978 22.19360 18.33169
#
# Velocity S-wave (km/s) = 2.87833 3.56471 3.23975
# Velocity P-wave (km/s) = 6.36317 7.25445 6.82337
#
# Compressibility (1/GPa) = 0.01944601
#
# Stress axis : x y z
#
# Youngs Moduli (GPa) = 107.41757 113.44159 49.04695
#
# Poissons Ratio (x) = 0.27747 0.18638
# Poissons Ratio (y) = 0.26273 0.16125
# Poissons Ratio (z) = 0.40819 0.37296
#
# Static dielectric constant tensor:
#      x y z
#    x 4.049140 0.000000 0.000000 
#    y 0.000000 3.972120 0.000000 
#    z 0.000000 0.000000 2.766940 
# 
# 
# High freq. dielectric constant tensor:
#      x y z
#    x 1.693240 0.000000 0.000000 
#    y 0.000000 1.695180 0.000000 
#    z 0.000000 0.000000 1.612690 
# 
# From -- ./inp_files/21921.got.cif
#   From: 2010.03.12/outbox.cif.g09.slc.cpg/sg69_11_cif.got.tgz:21921.got - 2010.04.10 23:52:46.
