data_PCOD8283585
_publ_section_title
;
Structure prediction by ZEFSAII (Michael W. Deem and Ramdas Pophale) SiO2 
 PCOD8283585
Probable space group: C C C A
;
_chemical_formula_sum "Si O2"
_cell_formula_units_Z 64
_cell_length_a 12.890127
_cell_length_b 17.758684
_cell_length_c 12.587142
_cell_angle_alpha 90.000000
_cell_angle_beta 90.000000
_cell_angle_gamma 90.000000
_cell_volume 2881.343974
_symmetry_space_group_name_H-M "C C C A"
_symmetry_group_IT_number 68
_space_group.IT_coordinate_system_code '2'
_symmetry_cell_setting 'orthorhombic'
loop_
_space_group_symop_operation_xyz
x,y,z
-x,1/2-y,z
x,1/2-y,1/2-z
-x,y,1/2-z
-x,-y,-z
x,1/2+y,-z
-x,1/2+y,1/2+z
x,-y,1/2+z
1/2+x,1/2+y,z
1/2-x,-y,z
1/2+x,-y,1/2-z
1/2-x,1/2+y,1/2-z
1/2-x,1/2-y,-z
1/2+x,y,-z
1/2-x,y,1/2+z
1/2+x,1/2-y,1/2+z
loop_
_atom_site_type_symbol
_atom_site_label
_atom_site_fract_x
_atom_site_fract_y
_atom_site_fract_z
Si Si1 0.898663 0.287404 0.568762
Si Si2 0.349643 0.054313 0.549756
Si Si3 0.323188 0.719301 0.362296
Si Si4 0.494277 0.433874 0.373248
O O1 0.797401 0.257063 0.628848
O O2 0.892698 0.263877 0.445947
O O3 0.912510 0.377027 0.572081
O O4 0.000000 0.250000 0.622677
O O5 0.327308 0.129664 0.616705
O O6 0.392206 0.072503 0.430147
O O7 0.250000 0.000000 0.543209
O O8 0.445321 0.016168 0.612064
O O9 0.364655 0.750000 0.250000
O O10 0.500000 0.413584 0.250000
#
# Coordination Sequence:
#
# PCOD8283585 Si02
#       4
#    16  16  16  16
#     4  11  24  44  66 104 136 174 235 280 330 413
#     4  11  24  48  68 105 141 175 237 287 338 420
#     4  11  26  44  73 102 137 185 226 286 347 405
#     4  11  26  44  71  99 137 186 226 287 347 404
#
# _framework density 22.211856000000001
#
# number of rings (size 3 to 8) (size 9 to 14) (size 15 to 20)
#    0.000    1.000    5.000    0.000    3.500    5.500 
#    0.000    0.000    0.000    0.000    0.000    0.000 
#    0.000    0.000    0.000    0.000    0.000    0.000 
#
# Total GULP energy -396746.452555 kJ/mol
# GULP energy per Si atom -12398.326642 kJ/mol
# Density = 2.216130 g / cm^3
# Si number density = 22.211856 Si / 1000 Ang^3
#
#
#
# Elastic Constant Matrix: (Units=GPa)
#
#
# Indices 1 2 3 4 5 6 
#
# 1 91.5073 34.9547 23.7602 0.0000 0.0000 0.0000
# 2 34.9547 125.5852 73.2949 0.0000 0.0000 0.0000
# 3 23.7602 73.2949 119.4936 0.0000 0.0000 0.0000
# 4 0.0000 0.0000 0.0000 24.7701 0.0000 0.0000
# 5 0.0000 0.0000 0.0000 0.0000 16.4094 0.0000
# 6 0.0000 0.0000 0.0000 0.0000 0.0000 42.0670
#
#
#
# Elastic Compliance Matrix: (Units=1/GPa)
#
#
# Indices 1 2 3 4 5 6 
#
# 1 0.012250 -0.003097 -0.000536 0.000000 0.000000 0.000000
# 2 -0.003097 0.013185 -0.007472 0.000000 0.000000 0.000000
# 3 -0.000536 -0.007472 0.013058 0.000000 0.000000 0.000000
# 4 0.000000 0.000000 0.000000 0.040371 0.000000 0.000000
# 5 0.000000 0.000000 0.000000 0.000000 0.060941 0.000000
# 6 0.000000 0.000000 0.000000 0.000000 0.000000 0.023772
#
#
# Mechanical properties :
#
#
# Convention : Reuss Voigt Hill
#
# Bulk Modulus (GPa) = 61.40940 66.73397 64.07168
# Shear Modulus (GPa) = 26.14848 30.28773 28.21810
#
# Velocity S-wave (km/s) = 3.43480 3.69668 3.56814
# Velocity P-wave (km/s) = 6.59072 6.95199 6.77376
#
# Compressibility (1/GPa) = 0.01628415
#
# Stress axis : x y z
#
# Youngs Moduli (GPa) = 81.63112 75.84131 76.57873
#
# Poissons Ratio (x) = 0.23485 0.04108
# Poissons Ratio (y) = 0.25278 0.57219
# Poissons Ratio (z) = 0.04379 0.56668
#
# Static dielectric constant tensor:
#      x y z
#    x 4.077520 0.000000 0.000000 
#    y 0.000000 4.106650 0.000000 
#    z 0.000000 0.000000 3.788950 
# 
# 
# High freq. dielectric constant tensor:
#      x y z
#    x 1.886770 0.000000 0.000000 
#    y 0.000000 1.886180 0.000000 
#    z 0.000000 0.000000 1.855950 
# 
# From -- ./inp_files/11555.got.cif
#   From: 2010.03.12/outbox.cif.g09.slc.cpg/sg68_6_cif.got.tgz:11555.got - 2010.04.10 23:14:56.
