data_PCOD8283550
_publ_section_title
;
Structure prediction by ZEFSAII (Michael W. Deem and Ramdas Pophale) SiO2 
 PCOD8283550
Probable space group: C C C A
;
_chemical_formula_sum "Si O2"
_cell_formula_units_Z 88
_cell_length_a 12.825923
_cell_length_b 26.304902
_cell_length_c 13.480482
_cell_angle_alpha 90.000000
_cell_angle_beta 90.000000
_cell_angle_gamma 90.000000
_cell_volume 4548.107669
_symmetry_space_group_name_H-M "C C C A"
_symmetry_group_IT_number 68
_space_group.IT_coordinate_system_code '2'
_symmetry_cell_setting 'orthorhombic'
loop_
_space_group_symop_operation_xyz
x,y,z
-x,1/2-y,z
x,1/2-y,1/2-z
-x,y,1/2-z
-x,-y,-z
x,1/2+y,-z
-x,1/2+y,1/2+z
x,-y,1/2+z
1/2+x,1/2+y,z
1/2-x,-y,z
1/2+x,-y,1/2-z
1/2-x,1/2+y,1/2-z
1/2-x,1/2-y,-z
1/2+x,y,-z
1/2-x,y,1/2+z
1/2+x,1/2-y,1/2+z
loop_
_atom_site_type_symbol
_atom_site_label
_atom_site_fract_x
_atom_site_fract_y
_atom_site_fract_z
Si Si1 0.758846 0.622587 0.481358
Si Si2 0.250000 0.500000 0.251966
Si Si3 0.889795 0.312004 0.131441
Si Si4 0.610555 0.968393 0.591232
Si Si5 0.624399 0.304567 0.860890
Si Si6 0.875142 0.045318 0.917055
O O1 0.825774 0.646743 0.569708
O O2 0.824074 0.583637 0.413335
O O3 0.719180 0.667129 0.412156
O O4 0.655250 0.595298 0.523008
O O5 0.347826 0.507919 0.176370
O O6 0.208074 0.543785 0.325940
O O7 0.852098 0.254295 0.116594
O O8 0.874548 0.322254 0.247309
O O9 0.009882 0.318183 0.097564
O O10 0.493834 0.952006 0.619773
O O11 0.627996 0.994500 0.484587
#
# Coordination Sequence:
#
# PCOD8283550 Si02
#       6
#    16   8  16  16  16  16
#     4  12  20  36  60  88 112 148 186 238 288 332
#     4  12  20  44  56  80 110 164 180 234 284 330
#     4   9  20  38  59  84 113 147 188 231 279 339
#     4  11  24  40  57  83 116 150 192 235 280 339
#     4   9  20  38  59  84 113 147 188 231 279 339
#     4  11  24  40  57  83 116 150 192 235 280 339
#
# _framework density 19.348706
#
# number of rings (size 3 to 8) (size 9 to 14) (size 15 to 20)
#    0.000    1.455    3.636    3.273    2.545    0.000 
#    0.000    0.000    0.000    0.000    0.000    7.636 
#    0.000    0.000    0.000    0.000    0.000    0.000 
#
# Total GULP energy -545110.316885 kJ/mol
# GULP energy per Si atom -12388.870838 kJ/mol
# Density = 1.930467 g / cm^3
# Si number density = 19.348706 Si / 1000 Ang^3
#
#
#
# Elastic Constant Matrix: (Units=GPa)
#
#
# Indices 1 2 3 4 5 6 
#
# 1 114.2147 48.1647 44.1617 0.0000 0.0000 0.0000
# 2 48.1647 72.3312 29.3523 0.0000 0.0000 0.0000
# 3 44.1617 29.3523 72.4564 0.0000 0.0000 0.0000
# 4 0.0000 0.0000 0.0000 21.6693 0.0000 0.0000
# 5 0.0000 0.0000 0.0000 0.0000 34.1789 0.0000
# 6 0.0000 0.0000 0.0000 0.0000 0.0000 34.7816
#
#
#
# Elastic Compliance Matrix: (Units=1/GPa)
#
#
# Indices 1 2 3 4 5 6 
#
# 1 0.013863 -0.006944 -0.005636 0.000000 0.000000 0.000000
# 2 -0.006944 0.020023 -0.003879 0.000000 0.000000 0.000000
# 3 -0.005636 -0.003879 0.018808 0.000000 0.000000 0.000000
# 4 0.000000 0.000000 0.000000 0.046148 0.000000 0.000000
# 5 0.000000 0.000000 0.000000 0.000000 0.029258 0.000000
# 6 0.000000 0.000000 0.000000 0.000000 0.000000 0.028751
#
#
# Mechanical properties :
#
#
# Convention : Reuss Voigt Hill
#
# Bulk Modulus (GPa) = 50.56773 55.81774 53.19274
# Shear Modulus (GPa) = 25.46307 27.28088 26.37198
#
# Velocity S-wave (km/s) = 3.63162 3.75902 3.69587
# Velocity P-wave (km/s) = 6.61639 6.91022 6.76490
#
# Compressibility (1/GPa) = 0.01977546
#
# Stress axis : x y z
#
# Youngs Moduli (GPa) = 72.13386 49.94138 53.16821
#
# Poissons Ratio (x) = 0.34680 0.29968
# Poissons Ratio (y) = 0.50090 0.20625
# Poissons Ratio (z) = 0.40658 0.19373
#
# Static dielectric constant tensor:
#      x y z
#    x 3.691030 0.000000 0.000000 
#    y 0.000000 3.319040 0.000000 
#    z 0.000000 0.000000 3.523320 
# 
# 
# High freq. dielectric constant tensor:
#      x y z
#    x 1.761300 0.000000 0.000000 
#    y 0.000000 1.737370 0.000000 
#    z 0.000000 0.000000 1.753490 
# 
# From -- ./inp_files/21149.got.cif
#   From: 2010.03.12/outbox.cif.g09.slc.cpg/sg68_11_cif.got.tgz:21149.got - 2010.04.10 23:14:56.
