data_PCOD8283768
_publ_section_title
;
Structure prediction by ZEFSAII (Michael W. Deem and Ramdas Pophale) SiO2 
 PCOD8283768
Probable space group: F M M M
;
_chemical_formula_sum "Si O2"
_cell_formula_units_Z 192
_cell_length_a 29.644669
_cell_length_b 29.644669
_cell_length_c 14.519308
_cell_angle_alpha 90.000000
_cell_angle_beta 90.000000
_cell_angle_gamma 90.000000
_cell_volume 12759.660796
_symmetry_space_group_name_H-M "F M M M"
_symmetry_group_IT_number 69
_symmetry_cell_setting 'orthorhombic'
loop_
_space_group_symop_operation_xyz
x,y,z
-x,-y,z
x,-y,-z
-x,y,-z
-x,-y,-z
x,y,-z
-x,y,z
x,-y,z
x,1/2+y,1/2+z
-x,1/2-y,1/2+z
x,1/2-y,1/2-z
-x,1/2+y,1/2-z
-x,1/2-y,1/2-z
x,1/2+y,1/2-z
-x,1/2+y,1/2+z
x,1/2-y,1/2+z
1/2+x,y,1/2+z
1/2-x,-y,1/2+z
1/2+x,-y,1/2-z
1/2-x,y,1/2-z
1/2-x,-y,1/2-z
1/2+x,y,1/2-z
1/2-x,y,1/2+z
1/2+x,-y,1/2+z
1/2+x,1/2+y,z
1/2-x,1/2-y,z
1/2+x,1/2-y,-z
1/2-x,1/2+y,-z
1/2-x,1/2-y,-z
1/2+x,1/2+y,-z
1/2-x,1/2+y,z
1/2+x,1/2-y,z
loop_
_atom_site_type_symbol
_atom_site_label
_atom_site_fract_x
_atom_site_fract_y
_atom_site_fract_z
Si Si1 0.553027 0.208122 0.805315
Si Si2 0.375902 0.551839 0.806412
Si Si3 0.744544 0.052926 0.000000
Si Si4 0.791878 0.553027 0.805315
Si Si5 0.084173 0.343252 0.500000
Si Si6 0.656748 0.084173 0.500000
Si Si7 0.051839 0.375902 0.306412
Si Si8 0.947074 0.744544 0.000000
O O1 0.500000 0.207798 0.786946
O O2 0.574769 0.250000 0.750000
O O3 0.572225 0.161727 0.763322
O O4 0.564639 0.213323 0.912771
O O5 0.386213 0.500000 0.785486
O O6 0.338273 0.572225 0.736678
O O7 0.359610 0.557026 0.911018
O O8 0.421788 0.578212 0.787596
O O9 0.713323 0.064639 0.087229
O O10 0.788805 0.084702 0.000000
O O11 0.759310 0.000000 0.000000
O O12 0.792202 0.500000 0.786946
O O13 0.750000 0.574769 0.750000
O O14 0.134888 0.365112 0.500000
O O15 0.057026 0.359610 0.411018
O O16 0.084702 0.288805 0.500000
O O17 0.000000 0.386213 0.285486
O O18 0.000000 0.759310 0.000000
#
# Coordination Sequence:
#
# PCOD8283768 Si02
#       8
#    32  32  16  32  16  16  32  16
#     4   9  16  26  43  64  85 111 144 186 231 267
#     4  10  19  30  43  63  92 124 156 185 216 260
#     4  10  16  26  45  65  87 113 144 182 234 277
#     4   9  16  26  43  64  85 111 144 186 231 267
#     4  10  18  26  41  66  95 121 148 180 217 266
#     4  10  18  26  41  66  95 121 148 180 217 266
#     4  10  19  30  43  63  92 124 156 185 216 260
#     4  10  16  26  45  65  87 113 144 182 234 277
#
# _framework density 15.047421999999999
#
# number of rings (size 3 to 8) (size 9 to 14) (size 15 to 20)
#    0.000    2.333    3.333    1.500    0.000    0.333 
#    0.000    0.833    0.000    3.000    0.000    0.000 
#    0.000   12.667    0.000    0.000    0.000    0.000 
#
# Total GULP energy -595024.212913 kJ/mol
# GULP energy per Si atom -12396.337769 kJ/mol
# Density = 1.501317 g / cm^3
# Si number density = 15.047422 Si / 1000 Ang^3
#
#
#
# Elastic Constant Matrix: (Units=GPa)
#
#
# Indices 1 2 3 4 5 6 
#
# 1 75.9364 42.7785 42.0384 0.0000 0.0000 0.0000
# 2 42.7785 75.9364 42.0384 0.0000 0.0000 0.0000
# 3 42.0384 42.0384 113.6329 -0.0001 0.0001 0.0000
# 4 0.0000 0.0000 -0.0001 17.1929 0.0000 0.0000
# 5 0.0000 0.0000 0.0001 0.0000 17.1929 0.0000
# 6 0.0000 0.0000 0.0000 0.0000 0.0000 12.0533
#
#
#
# Elastic Compliance Matrix: (Units=1/GPa)
#
#
# Indices 1 2 3 4 5 6 
#
# 1 0.020786 -0.009372 -0.004223 0.000000 0.000000 0.000000
# 2 -0.009372 0.020786 -0.004223 0.000000 0.000000 0.000000
# 3 -0.004223 -0.004223 0.011925 0.000000 0.000000 0.000000
# 4 0.000000 0.000000 0.000000 0.058164 0.000000 0.000000
# 5 0.000000 0.000000 0.000000 0.000000 0.058163 0.000000
# 6 0.000000 0.000000 0.000000 0.000000 0.000000 0.082965
#
#
# Mechanical properties :
#
#
# Convention : Reuss Voigt Hill
#
# Bulk Modulus (GPa) = 55.98394 57.69068 56.83731
# Shear Modulus (GPa) = 16.98492 18.53118 17.75805
#
# Velocity S-wave (km/s) = 3.36335 3.51311 3.43904
# Velocity P-wave (km/s) = 7.23661 7.40799 7.32281
#
# Compressibility (1/GPa) = 0.01786227
#
# Stress axis : x y z
#
# Youngs Moduli (GPa) = 48.10838 48.10832 83.86028
#
# Poissons Ratio (x) = 0.45089 0.35411
# Poissons Ratio (y) = 0.45089 0.35411
# Poissons Ratio (z) = 0.20314 0.20314
#
# Static dielectric constant tensor:
#      x y z
#    x 2.746870 0.000000 0.000000 
#    y 0.000000 2.746870 0.000000 
#    z 0.000000 0.000000 3.039280 
# 
# 
# High freq. dielectric constant tensor:
#      x y z
#    x 1.547330 0.000000 0.000000 
#    y 0.000000 1.547330 0.000000 
#    z 0.000000 0.000000 1.588930 
# 
# From -- ./inp_files/19945.got.cif
#   From: 2010.03.12/outbox.cif.g09.slc.cpg/sg69_10_cif.got.tgz:19945.got - 2010.04.10 23:52:46.
