data_PCOD8283451
_publ_section_title
;
Structure prediction by ZEFSAII (Michael W. Deem and Ramdas Pophale) SiO2 
 PCOD8283451
Probable space group: C C C A
;
_chemical_formula_sum "Si O2"
_cell_formula_units_Z 80
_cell_length_a 4.873703
_cell_length_b 29.209396
_cell_length_c 24.159754
_cell_angle_alpha 90.000000
_cell_angle_beta 90.000000
_cell_angle_gamma 90.000000
_cell_volume 3439.332349
_symmetry_space_group_name_H-M "C C C A"
_symmetry_group_IT_number 68
_space_group.IT_coordinate_system_code '2'
_symmetry_cell_setting 'orthorhombic'
loop_
_space_group_symop_operation_xyz
x,y,z
-x,1/2-y,z
x,1/2-y,1/2-z
-x,y,1/2-z
-x,-y,-z
x,1/2+y,-z
-x,1/2+y,1/2+z
x,-y,1/2+z
1/2+x,1/2+y,z
1/2-x,-y,z
1/2+x,-y,1/2-z
1/2-x,1/2+y,1/2-z
1/2-x,1/2-y,-z
1/2+x,y,-z
1/2-x,y,1/2+z
1/2+x,1/2-y,1/2+z
loop_
_atom_site_type_symbol
_atom_site_label
_atom_site_fract_x
_atom_site_fract_y
_atom_site_fract_z
Si Si1 0.396661 0.048314 0.375745
Si Si2 0.419458 0.201920 0.378492
Si Si3 0.100411 0.819254 0.691403
Si Si4 0.594890 0.075392 0.808718
Si Si5 0.464820 0.120383 0.037619
O O1 0.658827 0.044787 0.334464
O O2 0.493149 0.071375 0.432748
O O3 0.166749 0.079715 0.348378
O O4 0.250000 0.000000 0.387285
O O5 0.500000 0.250000 0.408818
O O6 0.109162 0.194877 0.357618
O O7 0.492155 0.161438 0.420171
O O8 0.610870 0.202795 0.324140
O O9 0.000000 0.799591 0.750000
O O10 0.182873 0.872421 0.698015
O O11 0.500000 0.053494 0.750000
O O12 0.154716 0.123518 0.016286
#
# Coordination Sequence:
#
# PCOD8283451 Si02
#       5
#    16  16  16  16  16
#     4  12  25  44  70 102 135 175 226 280 340 406
#     4  12  25  43  68 101 137 176 228 282 342 409
#     4  11  22  41  69 100 140 183 220 267 336 416
#     4  11  22  42  70 100 140 183 220 265 333 415
#     4  12  26  46  70  93 132 176 231 293 349 397
#
# _framework density 23.260328999999999
#
# number of rings (size 3 to 8) (size 9 to 14) (size 15 to 20)
#    0.000    0.400    4.000    4.800    0.000    8.800 
#    0.000    0.000    0.000    0.000    0.000    0.000 
#    0.000    0.000    0.000    0.000    0.000    0.000 
#
# Total GULP energy -495956.892291 kJ/mol
# GULP energy per Si atom -12398.922307 kJ/mol
# Density = 2.320739 g / cm^3
# Si number density = 23.260329 Si / 1000 Ang^3
#
#
#
# Elastic Constant Matrix: (Units=GPa)
#
#
# Indices 1 2 3 4 5 6 
#
# 1 102.5714 13.6780 22.5114 0.0000 0.0000 0.0000
# 2 13.6780 113.6311 36.1645 0.0000 0.0000 0.0000
# 3 22.5114 36.1645 91.2729 0.0000 0.0000 0.0000
# 4 0.0000 0.0000 0.0000 2.9302 0.0000 0.0000
# 5 0.0000 0.0000 0.0000 0.0000 51.5978 0.0000
# 6 0.0000 0.0000 0.0000 0.0000 0.0000 35.4413
#
#
#
# Elastic Compliance Matrix: (Units=1/GPa)
#
#
# Indices 1 2 3 4 5 6 
#
# 1 0.010332 -0.000495 -0.002352 0.000000 0.000000 0.000000
# 2 -0.000495 0.010094 -0.003877 0.000000 0.000000 0.000000
# 3 -0.002352 -0.003877 0.013073 0.000000 0.000000 0.000000
# 4 0.000000 0.000000 0.000000 0.341273 0.000000 0.000000
# 5 0.000000 0.000000 0.000000 0.000000 0.019381 0.000000
# 6 0.000000 0.000000 0.000000 0.000000 0.000000 0.028216
#
#
# Mechanical properties :
#
#
# Convention : Reuss Voigt Hill
#
# Bulk Modulus (GPa) = 49.87730 50.24257 50.05993
# Shear Modulus (GPa) = 11.29946 33.66863 22.48405
#
# Velocity S-wave (km/s) = 2.20644 3.80869 3.11243
# Velocity P-wave (km/s) = 5.28969 6.40223 5.87236
#
# Compressibility (1/GPa) = 0.02004920
#
# Stress axis : x y z
#
# Youngs Moduli (GPa) = 96.79119 99.06850 76.49613
#
# Poissons Ratio (x) = 0.04905 0.17992
# Poissons Ratio (y) = 0.04792 0.29661
# Poissons Ratio (z) = 0.22765 0.38413
#
# Static dielectric constant tensor:
#      x y z
#    x 4.385040 0.000000 0.000000 
#    y 0.000000 4.191410 0.000000 
#    z 0.000000 0.000000 4.105960 
# 
# 
# High freq. dielectric constant tensor:
#      x y z
#    x 1.937960 0.000000 0.000000 
#    y 0.000000 1.925010 0.000000 
#    z 0.000000 0.000000 1.906710 
# 
# From -- ./inp_files/42338.got.cif
#   From: 2010.03.12/outbox.cif.g09.slc.cpg/sg68_22_cif.got.tgz:42338.got - 2010.04.10 23:14:56.
