data_PCOD8283359
_publ_section_title
;
Structure prediction by ZEFSAII (Michael W. Deem and Ramdas Pophale) SiO2 
 PCOD8283359
Probable space group: C C C A
;
_chemical_formula_sum "Si O2"
_cell_formula_units_Z 88
_cell_length_a 18.395019
_cell_length_b 17.216892
_cell_length_c 12.556898
_cell_angle_alpha 90.000000
_cell_angle_beta 90.000000
_cell_angle_gamma 90.000000
_cell_volume 3976.833078
_symmetry_space_group_name_H-M "C C C A"
_symmetry_group_IT_number 68
_space_group.IT_coordinate_system_code '2'
_symmetry_cell_setting 'orthorhombic'
loop_
_space_group_symop_operation_xyz
x,y,z
-x,1/2-y,z
x,1/2-y,1/2-z
-x,y,1/2-z
-x,-y,-z
x,1/2+y,-z
-x,1/2+y,1/2+z
x,-y,1/2+z
1/2+x,1/2+y,z
1/2-x,-y,z
1/2+x,-y,1/2-z
1/2-x,1/2+y,1/2-z
1/2-x,1/2-y,-z
1/2+x,y,-z
1/2-x,y,1/2+z
1/2+x,1/2-y,1/2+z
loop_
_atom_site_type_symbol
_atom_site_label
_atom_site_fract_x
_atom_site_fract_y
_atom_site_fract_z
Si Si1 0.220795 0.677168 0.434050
Si Si2 0.358334 0.576157 0.406307
Si Si3 0.641072 0.750000 0.750000
Si Si4 0.575039 0.529808 0.300751
Si Si5 0.433491 0.373278 0.105619
Si Si6 0.585954 0.089300 0.476959
O O1 0.250000 0.750000 0.500000
O O2 0.276394 0.604934 0.426613
O O3 0.196833 0.696180 0.314100
O O4 0.147270 0.653486 0.493848
O O5 0.375726 0.581580 0.279275
O O6 0.407910 0.630808 0.482132
O O7 0.372911 0.486361 0.432584
O O8 0.588772 0.703531 0.831030
O O9 0.500000 0.506686 0.250000
O O10 0.608011 0.446296 0.337565
O O11 0.553457 0.577245 0.406141
O O12 0.478384 0.383579 0.396644
#
# Coordination Sequence:
#
# PCOD8283359 Si02
#       6
#    16  16   8  16  16  16
#     4  12  28  47  63  99 144 191 229 285 352 437
#     4  11  22  45  69 101 138 176 240 289 348 419
#     4  12  28  47  72  96 151 192 234 284 371 432
#     4  11  20  40  76 103 130 171 234 297 351 399
#     4  11  23  43  70 108 134 180 234 302 350 419
#     4  11  24  43  72 105 139 178 236 300 351 414
#
# _framework density 22.128159
#
# number of rings (size 3 to 8) (size 9 to 14) (size 15 to 20)
#    0.000    0.727    5.455    2.727    2.545    1.455 
#    0.000    1.818    0.000    1.091    0.000    0.000 
#    0.000    0.000    0.000    0.000    0.000    0.000 
#
# Total GULP energy -545271.265462 kJ/mol
# GULP energy per Si atom -12392.528760 kJ/mol
# Density = 2.207779 g / cm^3
# Si number density = 22.128159 Si / 1000 Ang^3
#
#
#
# Elastic Constant Matrix: (Units=GPa)
#
#
# Indices 1 2 3 4 5 6 
#
# 1 131.3400 56.5415 41.7987 0.0000 0.0000 0.0000
# 2 56.5415 89.1152 44.4153 0.0000 0.0000 0.0000
# 3 41.7987 44.4153 118.8164 0.0000 0.0000 0.0000
# 4 0.0000 0.0000 0.0000 38.7889 0.0000 0.0000
# 5 0.0000 0.0000 0.0000 0.0000 34.9837 0.0000
# 6 0.0000 0.0000 0.0000 0.0000 0.0000 36.5216
#
#
#
# Elastic Compliance Matrix: (Units=1/GPa)
#
#
# Indices 1 2 3 4 5 6 
#
# 1 0.010690 -0.006032 -0.001506 0.000000 0.000000 0.000000
# 2 -0.006032 0.017194 -0.004306 0.000000 0.000000 0.000000
# 3 -0.001506 -0.004306 0.010556 0.000000 0.000000 0.000000
# 4 0.000000 0.000000 0.000000 0.025781 0.000000 0.000000
# 5 0.000000 0.000000 0.000000 0.000000 0.028585 0.000000
# 6 0.000000 0.000000 0.000000 0.000000 0.000000 0.027381
#
#
# Mechanical properties :
#
#
# Convention : Reuss Voigt Hill
#
# Bulk Modulus (GPa) = 67.78151 69.42028 68.60089
# Shear Modulus (GPa) = 33.60433 35.15990 34.38211
#
# Velocity S-wave (km/s) = 3.90118 3.99045 3.94607
# Velocity P-wave (km/s) = 7.14074 7.25752 7.19937
#
# Compressibility (1/GPa) = 0.01475329
#
# Stress axis : x y z
#
# Youngs Moduli (GPa) = 93.54754 58.15831 94.73698
#
# Poissons Ratio (x) = 0.35081 0.14265
# Poissons Ratio (y) = 0.56427 0.40789
# Poissons Ratio (z) = 0.14086 0.25040
#
# Static dielectric constant tensor:
#      x y z
#    x 4.025100 0.000000 0.000000 
#    y 0.000000 4.038260 0.000000 
#    z 0.000000 0.000000 4.727020 
# 
# 
# High freq. dielectric constant tensor:
#      x y z
#    x 1.865830 0.000000 0.000000 
#    y 0.000000 1.856360 0.000000 
#    z 0.000000 0.000000 1.886790 
# 
# From -- ./inp_files/14470.got.cif
#   From: 2010.03.12/outbox.cif.g09.slc.cpg/sg68_8_cif.got.tgz:14470.got - 2010.04.10 23:14:56.
