data_PCOD8283819
_publ_section_title
;
Structure prediction by ZEFSAII (Michael W. Deem and Ramdas Pophale) SiO2 
 PCOD8283819
Probable space group: F M M M
;
_chemical_formula_sum "Si O2"
_cell_formula_units_Z 160
_cell_length_a 17.899885
_cell_length_b 22.971062
_cell_length_c 20.525883
_cell_angle_alpha 90.000000
_cell_angle_beta 90.000000
_cell_angle_gamma 90.000000
_cell_volume 8439.819602
_symmetry_space_group_name_H-M "F M M M"
_symmetry_group_IT_number 69
_symmetry_cell_setting 'orthorhombic'
loop_
_space_group_symop_operation_xyz
x,y,z
-x,-y,z
x,-y,-z
-x,y,-z
-x,-y,-z
x,y,-z
-x,y,z
x,-y,z
x,1/2+y,1/2+z
-x,1/2-y,1/2+z
x,1/2-y,1/2-z
-x,1/2+y,1/2-z
-x,1/2-y,1/2-z
x,1/2+y,1/2-z
-x,1/2+y,1/2+z
x,1/2-y,1/2+z
1/2+x,y,1/2+z
1/2-x,-y,1/2+z
1/2+x,-y,1/2-z
1/2-x,y,1/2-z
1/2-x,-y,1/2-z
1/2+x,y,1/2-z
1/2-x,y,1/2+z
1/2+x,-y,1/2+z
1/2+x,1/2+y,z
1/2-x,1/2-y,z
1/2+x,1/2-y,-z
1/2-x,1/2+y,-z
1/2-x,1/2-y,-z
1/2+x,1/2+y,-z
1/2-x,1/2+y,z
1/2+x,1/2-y,z
loop_
_atom_site_type_symbol
_atom_site_label
_atom_site_fract_x
_atom_site_fract_y
_atom_site_fract_z
Si Si1 0.345715 0.192728 0.000000
Si Si2 0.339417 0.685163 0.249061
Si Si3 0.148349 0.622187 0.876012
Si Si4 0.587914 0.500000 0.341065
Si Si5 0.327968 0.000000 0.709193
Si Si6 0.331215 0.173276 0.500000
Si Si7 0.175724 0.884182 0.869489
O O1 0.381190 0.160753 0.936637
O O2 0.367196 0.261543 0.000000
O O3 0.257159 0.183562 0.000000
O O4 0.369731 0.750000 0.250000
O O5 0.250000 0.681437 0.250000
O O6 0.378377 0.650601 0.308127
O O7 0.364891 0.658783 0.180775
O O8 0.119579 0.556070 0.879383
O O9 0.236748 0.624468 0.876121
O O10 0.500000 0.500000 0.346763
O O11 0.609093 0.500000 0.264672
O O12 0.250000 0.000000 0.750000
O O13 0.338548 0.947935 0.658617
O O14 0.358780 0.133596 0.439248
#
# Coordination Sequence:
#
# PCOD8283819 Si02
#       7
#    16  32  32  16  16  16  32
#     4   9  18  31  49  73 119 146 169 216 276 317
#     4   9  15  24  45  75 102 135 177 218 267 325
#     4  10  18  32  49  74 106 147 178 219 270 321
#     4  12  24  37  54  79 108 141 191 237 269 322
#     4  12  18  35  55  79 107 144 184 226 281 330
#     4   9  18  29  45  87 116 136 169 224 273 322
#     4  10  17  28  51  76 113 142 173 217 275 332
#
# _framework density 18.957750999999998
#
# number of rings (size 3 to 8) (size 9 to 14) (size 15 to 20)
#    0.000    2.000    4.000    1.800    0.000    5.600 
#    0.000    4.000    0.000    0.600    0.000    2.800 
#    0.000    0.000    0.000    0.000    0.000    0.000 
#
# Total GULP energy -495594.914909 kJ/mol
# GULP energy per Si atom -12389.872873 kJ/mol
# Density = 1.891460 g / cm^3
# Si number density = 18.957751 Si / 1000 Ang^3
#
#
#
# Elastic Constant Matrix: (Units=GPa)
#
#
# Indices 1 2 3 4 5 6 
#
# 1 13.7147 11.4572 19.6600 0.0000 0.0000 0.0000
# 2 11.4572 186.4352 99.8612 0.0000 0.0000 0.0000
# 3 19.6600 99.8612 185.5547 0.0000 0.0000 0.0000
# 4 0.0000 0.0000 0.0000 47.4954 0.0000 0.0000
# 5 0.0000 0.0000 0.0000 0.0000 6.7645 0.0000
# 6 0.0000 0.0000 0.0000 0.0000 0.0000 -3.3517
#
#
#
# Elastic Compliance Matrix: (Units=1/GPa)
#
#
# Indices 1 2 3 4 5 6 
#
# 1 0.086015 -0.000568 -0.008808 0.000000 0.000000 0.000000
# 2 -0.000568 0.007540 -0.003998 0.000000 0.000000 0.000000
# 3 -0.008808 -0.003998 0.008474 0.000000 0.000000 0.000000
# 4 0.000000 0.000000 0.000000 0.021055 0.000000 0.000000
# 5 0.000000 0.000000 0.000000 0.000000 0.147830 0.000000
# 6 0.000000 0.000000 0.000000 0.000000 0.000000 -0.298354
#
#
# Mechanical properties :
#
#
# Convention : Reuss Voigt Hill
#
# Bulk Modulus (GPa) = 13.28342 71.96238 42.62290
# Shear Modulus (GPa) = 204.91445 27.16339 116.03892
#
# Velocity S-wave (km/s) = 10.40792 3.78939 7.83212
# Velocity P-wave (km/s) = 12.30671 7.56226 10.21378
#
# Compressibility (1/GPa) = 0.07528181
#
# Stress axis : x y z
#
# Youngs Moduli (GPa) = 11.62586 132.62621 118.00973
#
# Poissons Ratio (x) = 0.07537 1.03939
# Poissons Ratio (y) = 0.00661 0.47176
# Poissons Ratio (z) = 0.10240 0.53019
#
# Static dielectric constant tensor:
#      x y z
#    x 2.716400 0.000000 0.000000 
#    y 0.000000 3.864890 0.000000 
#    z 0.000000 0.000000 4.482420 
# 
# 
# High freq. dielectric constant tensor:
#      x y z
#    x 1.651110 0.000000 0.000000 
#    y 0.000000 1.755570 0.000000 
#    z 0.000000 0.000000 1.751410 
# 
# From -- ./inp_files/30873.got.cif
#   From: 2010.03.12/outbox.cif.g09.slc.cpg/sg69_16_cif.got.tgz:30873.got - 2010.04.10 23:52:46.
