data_PCOD8283269
_publ_section_title
;
Structure prediction by ZEFSAII (Michael W. Deem and Ramdas Pophale) SiO2 
 PCOD8283269
Probable space group: C C C A
;
_chemical_formula_sum "Si O2"
_cell_formula_units_Z 72
_cell_length_a 13.696922
_cell_length_b 25.428970
_cell_length_c 7.978322
_cell_angle_alpha 90.000000
_cell_angle_beta 90.000000
_cell_angle_gamma 90.000000
_cell_volume 2778.838532
_symmetry_space_group_name_H-M "C C C A"
_symmetry_group_IT_number 68
_space_group.IT_coordinate_system_code '2'
_symmetry_cell_setting 'orthorhombic'
loop_
_space_group_symop_operation_xyz
x,y,z
-x,1/2-y,z
x,1/2-y,1/2-z
-x,y,1/2-z
-x,-y,-z
x,1/2+y,-z
-x,1/2+y,1/2+z
x,-y,1/2+z
1/2+x,1/2+y,z
1/2-x,-y,z
1/2+x,-y,1/2-z
1/2-x,1/2+y,1/2-z
1/2-x,1/2-y,-z
1/2+x,y,-z
1/2-x,y,1/2+z
1/2+x,1/2-y,1/2+z
loop_
_atom_site_type_symbol
_atom_site_label
_atom_site_fract_x
_atom_site_fract_y
_atom_site_fract_z
Si Si1 0.750000 0.000000 0.765692
Si Si2 0.636002 0.833050 0.576187
Si Si3 0.000000 0.414012 0.750000
Si Si4 0.000000 0.250000 0.456028
Si Si5 0.134310 0.059005 0.489006
Si Si6 0.347996 0.832480 0.309065
O O1 0.845813 0.983097 0.658272
O O2 0.722678 0.949403 0.877692
O O3 0.593252 0.879741 0.690677
O O4 0.563620 0.783953 0.583448
O O5 0.644837 0.850933 0.382821
O O6 0.738815 0.813100 0.650474
O O7 0.966108 0.450189 0.592453
O O8 0.927299 0.286506 0.341457
O O9 0.129269 0.118372 0.427149
#
# Coordination Sequence:
#
# PCOD8283269 Si02
#       6
#     8  16   8   8  16  16
#     4  10  24  48  76 104 146 196 262 308 394 444
#     4  12  26  46  73 110 154 199 252 304 377 456
#     4  12  26  45  74 110 146 206 252 305 390 452
#     4  12  27  47  74 115 150 199 258 307 374 469
#     4  11  24  46  73 108 145 194 247 319 374 458
#     4  12  25  49  75 107 156 201 245 315 384 451
#
# _framework density 25.910108000000001
#
# number of rings (size 3 to 8) (size 9 to 14) (size 15 to 20)
#    0.000    0.444    2.222    6.667    0.000    3.111 
#    0.000    0.000    0.000    0.000    0.000    0.000 
#    0.000    0.000    0.000    0.000    0.000    0.000 
#
# Total GULP energy -446213.275111 kJ/mol
# GULP energy per Si atom -12394.813198 kJ/mol
# Density = 2.585114 g / cm^3
# Si number density = 25.910108 Si / 1000 Ang^3
#
#
#
# Elastic Constant Matrix: (Units=GPa)
#
#
# Indices 1 2 3 4 5 6 
#
# 1 137.0331 28.7562 41.3729 0.0000 0.0000 0.0000
# 2 28.7562 100.1766 46.7408 0.0000 0.0000 0.0000
# 3 41.3729 46.7408 131.2572 0.0000 0.0000 0.0000
# 4 0.0000 0.0000 0.0000 24.2631 0.0000 0.0000
# 5 0.0000 0.0000 0.0000 0.0000 43.0563 0.0000
# 6 0.0000 0.0000 0.0000 0.0000 0.0000 31.1243
#
#
#
# Elastic Compliance Matrix: (Units=1/GPa)
#
#
# Indices 1 2 3 4 5 6 
#
# 1 0.008221 -0.001380 -0.002100 0.000000 0.000000 0.000000
# 2 -0.001380 0.012203 -0.003911 0.000000 0.000000 0.000000
# 3 -0.002100 -0.003911 0.009673 0.000000 0.000000 0.000000
# 4 0.000000 0.000000 0.000000 0.041215 0.000000 0.000000
# 5 0.000000 0.000000 0.000000 0.000000 0.023225 0.000000
# 6 0.000000 0.000000 0.000000 0.000000 0.000000 0.032129
#
#
# Mechanical properties :
#
#
# Convention : Reuss Voigt Hill
#
# Bulk Modulus (GPa) = 65.29015 66.91186 66.10100
# Shear Modulus (GPa) = 34.11727 36.46186 35.28957
#
# Velocity S-wave (km/s) = 3.63265 3.75540 3.69453
# Velocity P-wave (km/s) = 6.54586 6.68466 6.61562
#
# Compressibility (1/GPa) = 0.01531625
#
# Stress axis : x y z
#
# Youngs Moduli (GPa) = 121.63798 81.94612 103.37997
#
# Poissons Ratio (x) = 0.11310 0.21708
# Poissons Ratio (y) = 0.16788 0.40427
# Poissons Ratio (z) = 0.25542 0.32045
#
# Static dielectric constant tensor:
#      x y z
#    x 5.036970 0.000000 0.000000 
#    y 0.000000 4.437070 0.000000 
#    z 0.000000 0.000000 4.880330 
# 
# 
# High freq. dielectric constant tensor:
#      x y z
#    x 2.042780 0.000000 0.000000 
#    y 0.000000 2.024330 0.000000 
#    z 0.000000 0.000000 2.061320 
# 
# From -- ./inp_files/5326.got.cif
#   From: 2010.03.12/outbox.cif.g09.slc.cpg/sg68_3_cif.got.tgz:5326.got - 2010.04.10 23:14:56.
