data_PCOD8283582
_publ_section_title
;
Structure prediction by ZEFSAII (Michael W. Deem and Ramdas Pophale) SiO2 
 PCOD8283582
Probable space group: C C C A
;
_chemical_formula_sum "Si O2"
_cell_formula_units_Z 64
_cell_length_a 16.542608
_cell_length_b 9.970703
_cell_length_c 16.208597
_cell_angle_alpha 90.000000
_cell_angle_beta 90.000000
_cell_angle_gamma 90.000000
_cell_volume 2673.469187
_symmetry_space_group_name_H-M "C C C A"
_symmetry_group_IT_number 68
_space_group.IT_coordinate_system_code '2'
_symmetry_cell_setting 'orthorhombic'
loop_
_space_group_symop_operation_xyz
x,y,z
-x,1/2-y,z
x,1/2-y,1/2-z
-x,y,1/2-z
-x,-y,-z
x,1/2+y,-z
-x,1/2+y,1/2+z
x,-y,1/2+z
1/2+x,1/2+y,z
1/2-x,-y,z
1/2+x,-y,1/2-z
1/2-x,1/2+y,1/2-z
1/2-x,1/2-y,-z
1/2+x,y,-z
1/2-x,y,1/2+z
1/2+x,1/2-y,1/2+z
loop_
_atom_site_type_symbol
_atom_site_label
_atom_site_fract_x
_atom_site_fract_y
_atom_site_fract_z
Si Si1 0.531862 0.561084 0.842380
Si Si2 0.391872 0.813019 0.580319
Si Si3 0.589415 0.712050 0.390437
Si Si4 0.743038 0.149922 0.818764
O O1 0.500000 0.547062 0.750000
O O2 0.452238 0.560547 0.902794
O O3 0.580385 0.697975 0.856283
O O4 0.595946 0.444522 0.866191
O O5 0.397493 0.764081 0.487007
O O6 0.299254 0.848783 0.599737
O O7 0.500000 0.750000 0.361229
O O8 0.652501 0.804262 0.341341
O O9 0.778100 0.250000 0.750000
O O10 0.750000 0.000000 0.782001
#
# Coordination Sequence:
#
# PCOD8283582 Si02
#       4
#    16  16  16  16
#     4  11  24  43  78 108 149 196 250 308 379 457
#     4  11  24  48  74 105 150 196 248 307 387 452
#     4  12  27  45  75 110 146 194 254 318 373 452
#     4  12  30  49  74 107 153 199 254 311 381 453
#
# _framework density 23.938932999999999
#
# number of rings (size 3 to 8) (size 9 to 14) (size 15 to 20)
#    0.000    0.500    2.500    6.000   14.000    0.000 
#    0.000    0.000    0.000    0.000    0.000    0.000 
#    0.000    0.000    0.000    0.000    0.000    0.000 
#
# Total GULP energy -396831.895193 kJ/mol
# GULP energy per Si atom -12400.996725 kJ/mol
# Density = 2.388445 g / cm^3
# Si number density = 23.938933 Si / 1000 Ang^3
#
#
#
# Elastic Constant Matrix: (Units=GPa)
#
#
# Indices 1 2 3 4 5 6 
#
# 1 135.3513 50.2745 18.6081 0.0000 0.0000 0.0000
# 2 50.2745 144.7118 37.7875 0.0000 0.0000 0.0000
# 3 18.6081 37.7875 98.8594 0.0000 0.0000 0.0000
# 4 0.0000 0.0000 0.0000 28.4140 0.0000 0.0000
# 5 0.0000 0.0000 0.0000 0.0000 32.8629 0.0000
# 6 0.0000 0.0000 0.0000 0.0000 0.0000 43.2044
#
#
#
# Elastic Compliance Matrix: (Units=1/GPa)
#
#
# Indices 1 2 3 4 5 6 
#
# 1 0.008507 -0.002819 -0.000524 0.000000 0.000000 0.000000
# 2 -0.002819 0.008610 -0.002761 0.000000 0.000000 0.000000
# 3 -0.000524 -0.002761 0.011269 0.000000 0.000000 0.000000
# 4 0.000000 0.000000 0.000000 0.035194 0.000000 0.000000
# 5 0.000000 0.000000 0.000000 0.000000 0.030429 0.000000
# 6 0.000000 0.000000 0.000000 0.000000 0.000000 0.023146
#
#
# Mechanical properties :
#
#
# Convention : Reuss Voigt Hill
#
# Bulk Modulus (GPa) = 61.80339 65.80696 63.80517
# Shear Modulus (GPa) = 37.10413 39.04640 38.07527
#
# Velocity S-wave (km/s) = 3.94121 4.04305 3.99245
# Velocity P-wave (km/s) = 6.82525 7.02454 6.92561
#
# Compressibility (1/GPa) = 0.01618034
#
# Stress axis : x y z
#
# Youngs Moduli (GPa) = 117.54785 116.13865 88.73748
#
# Poissons Ratio (x) = 0.32736 0.04649
# Poissons Ratio (y) = 0.33133 0.24497
# Poissons Ratio (z) = 0.06158 0.32062
#
# Static dielectric constant tensor:
#      x y z
#    x 4.558460 0.000000 0.000000 
#    y 0.000000 4.557400 0.000000 
#    z 0.000000 0.000000 4.116000 
# 
# 
# High freq. dielectric constant tensor:
#      x y z
#    x 1.953300 0.000000 0.000000 
#    y 0.000000 1.954610 0.000000 
#    z 0.000000 0.000000 1.946490 
# 
# From -- ./inp_files/23174.got.cif
#   From: 2010.03.12/outbox.cif.g09.slc.cpg/sg68_12_cif.got.tgz:23174.got - 2010.04.10 23:14:56.
