data_PCOD8283453
_publ_section_title
;
Structure prediction by ZEFSAII (Michael W. Deem and Ramdas Pophale) SiO2 
 PCOD8283453
Probable space group: C C C A
;
_chemical_formula_sum "Si O2"
_cell_formula_units_Z 100
_cell_length_a 26.396822
_cell_length_b 20.606293
_cell_length_c 8.564836
_cell_angle_alpha 90.000000
_cell_angle_beta 90.000000
_cell_angle_gamma 90.000000
_cell_volume 4658.762447
_symmetry_space_group_name_H-M "C C C A"
_symmetry_group_IT_number 68
_space_group.IT_coordinate_system_code '2'
_symmetry_cell_setting 'orthorhombic'
loop_
_space_group_symop_operation_xyz
x,y,z
-x,1/2-y,z
x,1/2-y,1/2-z
-x,y,1/2-z
-x,-y,-z
x,1/2+y,-z
-x,1/2+y,1/2+z
x,-y,1/2+z
1/2+x,1/2+y,z
1/2-x,-y,z
1/2+x,-y,1/2-z
1/2-x,1/2+y,1/2-z
1/2-x,1/2-y,-z
1/2+x,y,-z
1/2-x,y,1/2+z
1/2+x,1/2-y,1/2+z
loop_
_atom_site_type_symbol
_atom_site_label
_atom_site_fract_x
_atom_site_fract_y
_atom_site_fract_z
Si Si1 0.809798 0.048239 0.308579
Si Si2 0.943409 0.910203 0.404003
Si Si3 0.500000 0.250000 0.750000
Si Si4 0.285367 0.915872 0.841097
Si Si5 0.041801 0.144520 0.028133
Si Si6 0.625961 0.325639 0.280095
Si Si7 0.924610 0.540384 0.755406
O O1 0.774752 0.093234 0.194586
O O2 0.793749 0.061155 0.484470
O O3 0.868116 0.063608 0.283397
O O4 0.803251 0.972042 0.276595
O O5 0.899083 0.858338 0.372138
O O6 0.933881 0.946903 0.564479
O O7 0.996051 0.869760 0.406507
O O8 0.939573 0.964947 0.268571
O O9 0.465206 0.292783 0.863234
O O10 0.316876 0.850895 0.805588
O O11 0.040855 0.082806 0.142163
O O12 0.092843 0.156010 0.931765
O O13 0.628846 0.250000 0.250000
#
# Coordination Sequence:
#
# PCOD8283453 Si02
#       7
#    16  16   4  16  16  16  16
#     4  11  22  41  72  99 135 166 222 287 360 411
#     4  12  25  43  70 104 143 183 232 291 351 416
#     4  12  24  48  70  96 140 204 248 264 340 444
#     4  11  23  42  69 104 129 171 226 284 350 427
#     4  12  25  45  66 101 139 188 238 280 340 420
#     4  12  27  46  68  96 141 188 236 286 348 422
#     4  12  23  42  71 107 137 177 224 298 355 404
#
# _framework density 21.464928
#
# number of rings (size 3 to 8) (size 9 to 14) (size 15 to 20)
#    0.000    0.320    4.800    5.760    2.240    1.920 
#    0.000    0.800    1.760    0.000    0.000    0.000 
#    0.000    0.000    0.000    0.000    0.000    0.000 
#
# Total GULP energy -620064.375693 kJ/mol
# GULP energy per Si atom -12401.287514 kJ/mol
# Density = 2.141607 g / cm^3
# Si number density = 21.464928 Si / 1000 Ang^3
#
#
#
# Elastic Constant Matrix: (Units=GPa)
#
#
# Indices 1 2 3 4 5 6 
#
# 1 103.9454 36.3313 21.5113 0.0000 0.0000 0.0000
# 2 36.3313 138.4804 42.0460 0.0000 0.0000 0.0000
# 3 21.5113 42.0460 85.6583 0.0000 0.0000 0.0000
# 4 0.0000 0.0000 0.0000 59.7680 0.0000 0.0000
# 5 0.0000 0.0000 0.0000 0.0000 28.9391 0.0000
# 6 0.0000 0.0000 0.0000 0.0000 0.0000 32.7943
#
#
#
# Elastic Compliance Matrix: (Units=1/GPa)
#
#
# Indices 1 2 3 4 5 6 
#
# 1 0.010763 -0.002354 -0.001548 0.000000 0.000000 0.000000
# 2 -0.002354 0.009001 -0.003827 0.000000 0.000000 0.000000
# 3 -0.001548 -0.003827 0.013941 0.000000 0.000000 0.000000
# 4 0.000000 0.000000 0.000000 0.016731 0.000000 0.000000
# 5 0.000000 0.000000 0.000000 0.000000 0.034555 0.000000
# 6 0.000000 0.000000 0.000000 0.000000 0.000000 0.030493
#
#
# Mechanical properties :
#
#
# Convention : Reuss Voigt Hill
#
# Bulk Modulus (GPa) = 54.79846 58.65126 56.72486
# Shear Modulus (GPa) = 36.48960 39.51330 38.00145
#
# Velocity S-wave (km/s) = 4.12753 4.29515 4.21217
# Velocity P-wave (km/s) = 6.94983 7.20980 7.08101
#
# Compressibility (1/GPa) = 0.01824869
#
# Stress axis : x y z
#
# Youngs Moduli (GPa) = 92.90677 111.10155 71.72879
#
# Poissons Ratio (x) = 0.26153 0.11100
# Poissons Ratio (y) = 0.21870 0.27450
# Poissons Ratio (z) = 0.14378 0.42518
#
# Static dielectric constant tensor:
#      x y z
#    x 4.407070 0.000000 0.000000 
#    y 0.000000 3.831120 0.000000 
#    z 0.000000 0.000000 4.006560 
# 
# 
# High freq. dielectric constant tensor:
#      x y z
#    x 1.851390 0.000000 0.000000 
#    y 0.000000 1.822790 0.000000 
#    z 0.000000 0.000000 1.861950 
# 
# From -- ./inp_files/9019.got.cif
#   From: 2010.03.12/outbox.cif.g09.slc.cpg/sg68_5_cif.got.tgz:9019.got - 2010.04.10 23:14:56.
