data_PCOD8283138
_publ_section_title
;
Structure prediction by ZEFSAII (Michael W. Deem and Ramdas Pophale) SiO2 
 PCOD8283138
Probable space group: C C C A
;
_chemical_formula_sum "Si O2"
_cell_formula_units_Z 88
_cell_length_a 12.873081
_cell_length_b 27.559505
_cell_length_c 11.189348
_cell_angle_alpha 90.000000
_cell_angle_beta 90.000000
_cell_angle_gamma 90.000000
_cell_volume 3969.709219
_symmetry_space_group_name_H-M "C C C A"
_symmetry_group_IT_number 68
_space_group.IT_coordinate_system_code '2'
_symmetry_cell_setting 'orthorhombic'
loop_
_space_group_symop_operation_xyz
x,y,z
-x,1/2-y,z
x,1/2-y,1/2-z
-x,y,1/2-z
-x,-y,-z
x,1/2+y,-z
-x,1/2+y,1/2+z
x,-y,1/2+z
1/2+x,1/2+y,z
1/2-x,-y,z
1/2+x,-y,1/2-z
1/2-x,1/2+y,1/2-z
1/2-x,1/2-y,-z
1/2+x,y,-z
1/2-x,y,1/2+z
1/2+x,1/2-y,1/2+z
loop_
_atom_site_type_symbol
_atom_site_label
_atom_site_fract_x
_atom_site_fract_y
_atom_site_fract_z
Si Si1 0.243427 0.328454 0.527309
Si Si2 0.417627 0.112701 0.336844
Si Si3 0.000000 0.558286 0.750000
Si Si4 0.088434 0.906810 0.982433
Si Si5 0.385052 0.757516 0.111310
Si Si6 0.141562 0.022283 0.671548
O O1 0.181588 0.353816 0.636946
O O2 0.329726 0.365382 0.478484
O O3 0.302739 0.281915 0.572287
O O4 0.160787 0.310565 0.425881
O O5 0.500000 0.140376 0.250000
O O6 0.474840 0.101854 0.461673
O O7 0.387249 0.062351 0.271503
O O8 0.072184 0.590607 0.661273
O O9 0.065951 0.523593 0.835152
O O10 0.138818 0.955461 0.038099
O O11 0.500000 0.750000 0.052222
O O12 0.398658 0.750000 0.250000
O O13 0.250000 0.000000 0.707679
#
# Coordination Sequence:
#
# PCOD8283138 Si02
#       6
#    16  16   8  16  16  16
#     4  11  24  42  72 102 133 179 229 276 361 419
#     4  10  23  44  65 100 139 176 234 292 339 424
#     4  12  24  44  64 100 143 189 232 292 346 400
#     4  11  25  41  68  99 138 182 234 287 347 424
#     4  10  24  46  70  99 140 172 219 288 349 433
#     4  11  24  42  66  94 140 186 236 289 345 407
#
# _framework density 22.167871000000002
#
# number of rings (size 3 to 8) (size 9 to 14) (size 15 to 20)
#    0.000    1.273    2.727    2.727    7.636    3.636 
#    0.000    0.000    0.000    0.000    0.000    0.000 
#    0.000    0.000    0.000    0.000    0.000    0.000 
#
# Total GULP energy -545324.320415 kJ/mol
# GULP energy per Si atom -12393.734555 kJ/mol
# Density = 2.211742 g / cm^3
# Si number density = 22.167871 Si / 1000 Ang^3
#
#
#
# Elastic Constant Matrix: (Units=GPa)
#
#
# Indices 1 2 3 4 5 6 
#
# 1 133.6293 53.8329 36.8971 0.0000 0.0000 0.0000
# 2 53.8329 87.2000 40.8262 0.0000 0.0000 0.0000
# 3 36.8971 40.8262 104.2011 0.0000 0.0000 0.0000
# 4 0.0000 0.0000 0.0000 25.2222 0.0000 0.0000
# 5 0.0000 0.0000 0.0000 0.0000 34.9527 0.0000
# 6 0.0000 0.0000 0.0000 0.0000 0.0000 39.2300
#
#
#
# Elastic Compliance Matrix: (Units=1/GPa)
#
#
# Indices 1 2 3 4 5 6 
#
# 1 0.010123 -0.005598 -0.001391 0.000000 0.000000 0.000000
# 2 -0.005598 0.017140 -0.004733 0.000000 0.000000 0.000000
# 3 -0.001391 -0.004733 0.011944 0.000000 0.000000 0.000000
# 4 0.000000 0.000000 0.000000 0.039648 0.000000 0.000000
# 5 0.000000 0.000000 0.000000 0.000000 0.028610 0.000000
# 6 0.000000 0.000000 0.000000 0.000000 0.000000 0.025491
#
#
# Mechanical properties :
#
#
# Convention : Reuss Voigt Hill
#
# Bulk Modulus (GPa) = 63.44423 65.34920 64.39672
# Shear Modulus (GPa) = 30.93042 32.77925 31.85483
#
# Velocity S-wave (km/s) = 3.73940 3.84954 3.79487
# Velocity P-wave (km/s) = 6.87940 7.02152 6.95083
#
# Compressibility (1/GPa) = 0.01576188
#
# Stress axis : x y z
#
# Youngs Moduli (GPa) = 98.78857 58.34370 83.72483
#
# Poissons Ratio (x) = 0.32660 0.11647
# Poissons Ratio (y) = 0.55301 0.39629
# Poissons Ratio (z) = 0.13743 0.27615
#
# Static dielectric constant tensor:
#      x y z
#    x 4.398640 0.000000 0.000000 
#    y 0.000000 4.067810 0.000000 
#    z 0.000000 0.000000 4.074570 
# 
# 
# High freq. dielectric constant tensor:
#      x y z
#    x 1.893880 0.000000 0.000000 
#    y 0.000000 1.864850 0.000000 
#    z 0.000000 0.000000 1.858920 
# 
# From -- ./inp_files/12063.got.cif
#   From: 2010.03.12/outbox.cif.g09.slc.cpg/sg68_7_cif.got.tgz:12063.got - 2010.04.10 23:14:56.
