data_PCOD8283609
_publ_section_title
;
Structure prediction by ZEFSAII (Michael W. Deem and Ramdas Pophale) SiO2 
 PCOD8283609
Probable space group: C C C A
;
_chemical_formula_sum "Si O2"
_cell_formula_units_Z 96
_cell_length_a 21.368300
_cell_length_b 14.892346
_cell_length_c 13.034097
_cell_angle_alpha 90.000000
_cell_angle_beta 90.000000
_cell_angle_gamma 90.000000
_cell_volume 4147.764009
_symmetry_space_group_name_H-M "C C C A"
_symmetry_group_IT_number 68
_space_group.IT_coordinate_system_code '2'
_symmetry_cell_setting 'orthorhombic'
loop_
_space_group_symop_operation_xyz
x,y,z
-x,1/2-y,z
x,1/2-y,1/2-z
-x,y,1/2-z
-x,-y,-z
x,1/2+y,-z
-x,1/2+y,1/2+z
x,-y,1/2+z
1/2+x,1/2+y,z
1/2-x,-y,z
1/2+x,-y,1/2-z
1/2-x,1/2+y,1/2-z
1/2-x,1/2-y,-z
1/2+x,y,-z
1/2-x,y,1/2+z
1/2+x,1/2-y,1/2+z
loop_
_atom_site_type_symbol
_atom_site_label
_atom_site_fract_x
_atom_site_fract_y
_atom_site_fract_z
Si Si1 0.155049 0.339797 0.300642
Si Si2 0.945207 0.978381 0.099507
Si Si3 0.755460 0.105841 0.128535
Si Si4 0.137410 0.823310 0.472484
Si Si5 0.420678 0.489251 0.326537
Si Si6 0.368884 0.375680 0.489896
O O1 0.126691 0.250000 0.250000
O O2 0.217466 0.367399 0.239321
O O3 0.173763 0.325662 0.418781
O O4 0.099553 0.411156 0.297136
O O5 0.917630 0.898226 0.028859
O O6 0.935360 0.945457 0.217030
O O7 0.020951 0.988723 0.091181
O O8 0.911301 0.073380 0.075281
O O9 0.688174 0.153102 0.115169
O O10 0.750000 0.000000 0.123709
O O11 0.799915 0.136086 0.035414
O O12 0.106697 0.724306 0.460123
O O13 0.366482 0.433767 0.384740
#
# Coordination Sequence:
#
# PCOD8283609 Si02
#       6
#    16  16  16  16  16  16
#     4  12  24  45  71 104 143 185 245 300 363 432
#     4  11  24  48  70 104 147 185 243 296 363 433
#     4  12  24  46  68 100 143 187 238 297 361 439
#     4  12  26  45  71 105 145 187 242 293 365 442
#     4  11  24  46  75 100 144 190 234 306 359 430
#     4  12  24  44  70 103 142 189 235 299 364 429
#
# _framework density 23.144998999999999
#
# number of rings (size 3 to 8) (size 9 to 14) (size 15 to 20)
#    0.000    0.333    6.667    1.000    0.000    4.667 
#    0.000    6.667    0.000    0.000    0.000    0.000 
#    0.000    0.000    0.000    0.000    0.000    0.000 
#
# Total GULP energy -595181.867104 kJ/mol
# GULP energy per Si atom -12399.622231 kJ/mol
# Density = 2.309232 g / cm^3
# Si number density = 23.144999 Si / 1000 Ang^3
#
#
#
# Elastic Constant Matrix: (Units=GPa)
#
#
# Indices 1 2 3 4 5 6 
#
# 1 94.0169 54.5589 40.3164 0.0000 0.0000 0.0000
# 2 54.5589 182.8426 46.9282 0.0000 0.0000 0.0000
# 3 40.3164 46.9282 92.9113 0.0000 0.0000 0.0000
# 4 0.0000 0.0000 0.0000 35.6330 0.0000 0.0000
# 5 0.0000 0.0000 0.0000 0.0000 37.0612 0.0000
# 6 0.0000 0.0000 0.0000 0.0000 0.0000 20.6599
#
#
#
# Elastic Compliance Matrix: (Units=1/GPa)
#
#
# Indices 1 2 3 4 5 6 
#
# 1 0.014456 -0.003106 -0.004704 0.000000 0.000000 0.000000
# 2 -0.003106 0.006951 -0.002163 0.000000 0.000000 0.000000
# 3 -0.004704 -0.002163 0.013897 0.000000 0.000000 0.000000
# 4 0.000000 0.000000 0.000000 0.028064 0.000000 0.000000
# 5 0.000000 0.000000 0.000000 0.000000 0.026982 0.000000
# 6 0.000000 0.000000 0.000000 0.000000 0.000000 0.048403
#
#
# Mechanical properties :
#
#
# Convention : Reuss Voigt Hill
#
# Bulk Modulus (GPa) = 65.11505 72.59754 68.85630
# Shear Modulus (GPa) = 30.52149 33.86865 32.19507
#
# Velocity S-wave (km/s) = 3.63534 3.82949 3.73368
# Velocity P-wave (km/s) = 6.76872 7.14058 6.95713
#
# Compressibility (1/GPa) = 0.01535743
#
# Stress axis : x y z
#
# Youngs Moduli (GPa) = 69.17478 143.85886 71.95988
#
# Poissons Ratio (x) = 0.44687 0.33849
# Poissons Ratio (y) = 0.21488 0.15566
# Poissons Ratio (z) = 0.32539 0.31118
#
# Static dielectric constant tensor:
#      x y z
#    x 4.120800 0.000000 0.000000 
#    y 0.000000 4.309760 0.000000 
#    z 0.000000 0.000000 4.497690 
# 
# 
# High freq. dielectric constant tensor:
#      x y z
#    x 1.891780 0.000000 0.000000 
#    y 0.000000 1.918360 0.000000 
#    z 0.000000 0.000000 1.939970 
# 
# From -- ./inp_files/24430.got.cif
#   From: 2010.03.12/outbox.cif.g09.slc.cpg/sg68_13_cif.got.tgz:24430.got - 2010.04.10 23:14:56.
