data_PCOD8283555
_publ_section_title
;
Structure prediction by ZEFSAII (Michael W. Deem and Ramdas Pophale) SiO2 
 PCOD8283555
Probable space group: C C C A
;
_chemical_formula_sum "Si O2"
_cell_formula_units_Z 48
_cell_length_a 8.710871
_cell_length_b 24.806608
_cell_length_c 10.463317
_cell_angle_alpha 90.000000
_cell_angle_beta 90.000000
_cell_angle_gamma 90.000000
_cell_volume 2260.988478
_symmetry_space_group_name_H-M "C C C A"
_symmetry_group_IT_number 68
_space_group.IT_coordinate_system_code '2'
_symmetry_cell_setting 'orthorhombic'
loop_
_space_group_symop_operation_xyz
x,y,z
-x,1/2-y,z
x,1/2-y,1/2-z
-x,y,1/2-z
-x,-y,-z
x,1/2+y,-z
-x,1/2+y,1/2+z
x,-y,1/2+z
1/2+x,1/2+y,z
1/2-x,-y,z
1/2+x,-y,1/2-z
1/2-x,1/2+y,1/2-z
1/2-x,1/2-y,-z
1/2+x,y,-z
1/2-x,y,1/2+z
1/2+x,1/2-y,1/2+z
loop_
_atom_site_type_symbol
_atom_site_label
_atom_site_fract_x
_atom_site_fract_y
_atom_site_fract_z
Si Si1 0.932930 0.190050 0.621327
Si Si2 0.914153 0.524293 0.877956
Si Si3 0.592833 0.650912 0.374458
O O1 0.748238 0.186260 0.622424
O O2 0.000000 0.250000 0.616129
O O3 0.000000 0.162030 0.750000
O O4 0.989305 0.159625 0.497556
O O5 0.750000 0.500000 0.874794
O O6 0.880705 0.587608 0.876916
O O7 0.000000 0.506215 0.750000
O O8 0.000000 0.500000 0.000000
O O9 0.500000 0.670030 0.250000
#
# Coordination Sequence:
#
# PCOD8283555 Si02
#       3
#    16  16  16
#     4  11  24  42  64  94 127 165 211 263 316 375
#     4  11  24  41  64  94 128 167 211 260 315 375
#     4  11  24  42  66  94 126 167 212 260 315 376
#
# _framework density 21.229652000000002
#
# number of rings (size 3 to 8) (size 9 to 14) (size 15 to 20)
#    0.000    1.000    0.000    6.000    0.000   14.000 
#    0.000    0.000    0.000    0.000    0.000    0.000 
#    0.000    0.000    0.000    0.000    0.000    0.000 
#
# Total GULP energy -297562.837480 kJ/mol
# GULP energy per Si atom -12398.451562 kJ/mol
# Density = 2.118133 g / cm^3
# Si number density = 21.229652 Si / 1000 Ang^3
#
#
#
# Elastic Constant Matrix: (Units=GPa)
#
#
# Indices 1 2 3 4 5 6 
#
# 1 213.5723 65.9097 92.3377 0.0000 0.0000 0.0000
# 2 65.9097 66.5497 41.2291 0.0000 0.0000 0.0000
# 3 92.3377 41.2291 210.1874 0.0000 0.0000 0.0000
# 4 0.0000 0.0000 0.0000 24.7420 0.0000 0.0000
# 5 0.0000 0.0000 0.0000 0.0000 39.7028 0.0000
# 6 0.0000 0.0000 0.0000 0.0000 0.0000 37.9677
#
#
#
# Elastic Compliance Matrix: (Units=1/GPa)
#
#
# Indices 1 2 3 4 5 6 
#
# 1 0.007467 -0.006104 -0.002083 0.000000 0.000000 0.000000
# 2 -0.006104 0.022096 -0.001652 0.000000 0.000000 0.000000
# 3 -0.002083 -0.001652 0.005997 0.000000 0.000000 0.000000
# 4 0.000000 0.000000 0.000000 0.040417 0.000000 0.000000
# 5 0.000000 0.000000 0.000000 0.000000 0.025187 0.000000
# 6 0.000000 0.000000 0.000000 0.000000 0.000000 0.026338
#
#
# Mechanical properties :
#
#
# Convention : Reuss Voigt Hill
#
# Bulk Modulus (GPa) = 62.97262 98.80693 80.88978
# Shear Modulus (GPa) = 32.79240 39.87135 36.33188
#
# Velocity S-wave (km/s) = 3.93447 4.33840 4.14136
# Velocity P-wave (km/s) = 7.09697 8.46987 7.81363
#
# Compressibility (1/GPa) = 0.01587992
#
# Stress axis : x y z
#
# Youngs Moduli (GPa) = 133.92957 45.25733 166.75663
#
# Poissons Ratio (x) = 0.27627 0.34731
# Poissons Ratio (y) = 0.81757 0.27555
# Poissons Ratio (z) = 0.27894 0.07478
#
# Static dielectric constant tensor:
#      x y z
#    x 4.157540 0.000000 0.000000 
#    y 0.000000 3.521370 0.000000 
#    z 0.000000 0.000000 4.563620 
# 
# 
# High freq. dielectric constant tensor:
#      x y z
#    x 1.849860 0.000000 0.000000 
#    y 0.000000 1.834500 0.000000 
#    z 0.000000 0.000000 1.862650 
# 
# From -- ./inp_files/3275.got.cif
#   From: 2010.03.12/outbox.cif.g09.slc.cpg/sg68_2_cif.got.tgz:3275.got - 2010.04.10 23:14:56.
