data_PCOD8283072
_publ_section_title
;
Structure prediction by ZEFSAII (Michael W. Deem and Ramdas Pophale) SiO2 
 PCOD8283072
Probable space group: C C C A
;
_chemical_formula_sum "Si O2"
_cell_formula_units_Z 64
_cell_length_a 25.064883
_cell_length_b 7.923687
_cell_length_c 16.067118
_cell_angle_alpha 90.000000
_cell_angle_beta 90.000000
_cell_angle_gamma 90.000000
_cell_volume 3191.030658
_symmetry_space_group_name_H-M "C C C A"
_symmetry_group_IT_number 68
_space_group.IT_coordinate_system_code '2'
_symmetry_cell_setting 'orthorhombic'
loop_
_space_group_symop_operation_xyz
x,y,z
-x,1/2-y,z
x,1/2-y,1/2-z
-x,y,1/2-z
-x,-y,-z
x,1/2+y,-z
-x,1/2+y,1/2+z
x,-y,1/2+z
1/2+x,1/2+y,z
1/2-x,-y,z
1/2+x,-y,1/2-z
1/2-x,1/2+y,1/2-z
1/2-x,1/2-y,-z
1/2+x,y,-z
1/2-x,y,1/2+z
1/2+x,1/2-y,1/2+z
loop_
_atom_site_type_symbol
_atom_site_label
_atom_site_fract_x
_atom_site_fract_y
_atom_site_fract_z
Si Si1 0.940554 0.279207 0.152458
Si Si2 0.154771 0.807736 0.944320
Si Si3 0.361733 0.456893 0.386161
Si Si4 0.195449 0.750000 0.250000
Si Si5 0.750000 0.000000 0.630384
O O1 0.937935 0.250000 0.250000
O O2 0.899254 0.148452 0.108073
O O3 0.921691 0.471465 0.130872
O O4 0.000000 0.250000 0.117767
O O5 0.173419 0.617966 0.918930
O O6 0.200985 0.941857 0.926657
O O7 0.139830 0.814109 0.042422
O O8 0.340431 0.384733 0.299298
O O9 0.233716 0.657313 0.186021
#
# Coordination Sequence:
#
# PCOD8283072 Si02
#       5
#    16  16  16   8   8
#     4   9  20  41  66  90 125 165 209 265 320 372
#     4  10  23  40  60  95 125 168 206 262 318 376
#     4  10  23  41  64  93 128 166 213 263 314 392
#     4  12  24  38  64  95 127 176 214 258 322 376
#     4  12  24  38  64  90 134 168 212 266 310 394
#
# _framework density 20.056218000000001
#
# number of rings (size 3 to 8) (size 9 to 14) (size 15 to 20)
#    1.500    0.250    0.000    4.500    1.750    6.000 
#    0.000    0.000    0.000    1.500    0.000    0.000 
#    0.000    0.000    0.000    0.000    0.000    0.000 
#
# Total GULP energy -396531.824740 kJ/mol
# GULP energy per Si atom -12391.619523 kJ/mol
# Density = 2.001057 g / cm^3
# Si number density = 20.056218 Si / 1000 Ang^3
#
#
#
# Elastic Constant Matrix: (Units=GPa)
#
#
# Indices 1 2 3 4 5 6 
#
# 1 139.1135 34.4007 44.6889 0.0000 0.0000 0.0000
# 2 34.4007 85.2712 31.2701 0.0000 0.0000 0.0000
# 3 44.6889 31.2701 105.4896 0.0000 0.0000 0.0000
# 4 0.0000 0.0000 0.0000 45.3216 0.0000 0.0000
# 5 0.0000 0.0000 0.0000 0.0000 -47.8594 0.0000
# 6 0.0000 0.0000 0.0000 0.0000 0.0000 19.3612
#
#
#
# Elastic Compliance Matrix: (Units=1/GPa)
#
#
# Indices 1 2 3 4 5 6 
#
# 1 0.008749 -0.002435 -0.002985 0.000000 0.000000 0.000000
# 2 -0.002435 0.013835 -0.003070 0.000000 0.000000 0.000000
# 3 -0.002985 -0.003070 0.011654 0.000000 0.000000 0.000000
# 4 0.000000 0.000000 0.000000 0.022065 0.000000 0.000000
# 5 0.000000 0.000000 0.000000 0.000000 -0.020895 0.000000
# 6 0.000000 0.000000 0.000000 0.000000 0.000000 0.051650
#
#
# Mechanical properties :
#
#
# Convention : Reuss Voigt Hill
#
# Bulk Modulus (GPa) = 57.93813 61.17707 59.55760
# Shear Modulus (GPa) = 45.54135 17.99899 31.77017
#
# Velocity S-wave (km/s) = 4.77034 2.99896 3.98434
# Velocity P-wave (km/s) = 7.70014 6.52386 7.13627
#
# Compressibility (1/GPa) = 0.01725979
#
# Stress axis : x y z
#
# Youngs Moduli (GPa) = 114.29411 72.27850 85.80810
#
# Poissons Ratio (x) = 0.17601 0.25611
# Poissons Ratio (y) = 0.27833 0.26339
# Poissons Ratio (z) = 0.34113 0.22186
#
# Static dielectric constant tensor:
#      x y z
#    x 3.604800 0.000000 0.000000 
#    y 0.000000 3.497820 0.000000 
#    z 0.000000 0.000000 3.635920 
# 
# 
# High freq. dielectric constant tensor:
#      x y z
#    x 1.765680 0.000000 0.000000 
#    y 0.000000 1.769980 0.000000 
#    z 0.000000 0.000000 1.796300 
# 
# From -- ./inp_files/19381.got.cif
#   From: 2010.03.12/outbox.cif.g09.slc.cpg/sg68_10_cif.got.tgz:19381.got - 2010.04.10 23:14:56.
