data_PCOD8283152
_publ_section_title
;
Structure prediction by ZEFSAII (Michael W. Deem and Ramdas Pophale) SiO2 
 PCOD8283152
Probable space group: C C C A
;
_chemical_formula_sum "Si O2"
_cell_formula_units_Z 36
_cell_length_a 20.523936
_cell_length_b 12.262286
_cell_length_c 4.904565
_cell_angle_alpha 90.000000
_cell_angle_beta 90.000000
_cell_angle_gamma 90.000000
_cell_volume 1234.333703
_symmetry_space_group_name_H-M "C C C A"
_symmetry_group_IT_number 68
_space_group.IT_coordinate_system_code '2'
_symmetry_cell_setting 'orthorhombic'
loop_
_space_group_symop_operation_xyz
x,y,z
-x,1/2-y,z
x,1/2-y,1/2-z
-x,y,1/2-z
-x,-y,-z
x,1/2+y,-z
-x,1/2+y,1/2+z
x,-y,1/2+z
1/2+x,1/2+y,z
1/2-x,-y,z
1/2+x,-y,1/2-z
1/2-x,1/2+y,1/2-z
1/2-x,1/2-y,-z
1/2+x,y,-z
1/2-x,y,1/2+z
1/2+x,1/2-y,1/2+z
loop_
_atom_site_type_symbol
_atom_site_label
_atom_site_fract_x
_atom_site_fract_y
_atom_site_fract_z
Si Si1 0.500000 0.750000 0.750000
Si Si2 0.792204 0.376504 0.230317
Si Si3 0.932713 0.433708 0.079733
O O1 0.453865 0.819272 0.951350
O O2 0.809792 0.250000 0.250000
O O3 0.768811 0.407665 0.534691
O O4 0.855029 0.437928 0.110039
O O5 0.956074 0.540217 0.893540
#
# Coordination Sequence:
#
# PCOD8283152 Si02
#       3
#     4  16  16
#     4  12  32  54  80 104 168 210 272 348 376 464
#     4  10  23  44  78 114 154 197 246 314 399 470
#     4  12  29  50  80 116 151 209 268 323 401 471
#
# _framework density 29.165531000000001
#
# number of rings (size 3 to 8) (size 9 to 14) (size 15 to 20)
#    0.000    0.889    0.000    4.000   15.556    7.111 
#    0.000    0.000    0.000    0.000    0.000    0.000 
#    0.000    0.000    0.000    0.000    0.000    0.000 
#
# Total GULP energy -223185.336452 kJ/mol
# GULP energy per Si atom -12399.185358 kJ/mol
# Density = 2.909915 g / cm^3
# Si number density = 29.165531 Si / 1000 Ang^3
#
#
#
# Elastic Constant Matrix: (Units=GPa)
#
#
# Indices 1 2 3 4 5 6 
#
# 1 155.2097 35.8847 80.7806 0.0000 0.0000 0.0000
# 2 35.8847 133.0016 44.7320 0.0000 0.0000 0.0000
# 3 80.7806 44.7320 204.0528 0.0000 0.0000 0.0000
# 4 0.0000 0.0000 0.0000 27.0431 0.0000 0.0000
# 5 0.0000 0.0000 0.0000 0.0000 75.8747 0.0000
# 6 0.0000 0.0000 0.0000 0.0000 0.0000 45.0905
#
#
#
# Elastic Compliance Matrix: (Units=1/GPa)
#
#
# Indices 1 2 3 4 5 6 
#
# 1 0.008295 -0.001224 -0.003016 0.000000 0.000000 0.000000
# 2 -0.001224 0.008298 -0.001334 0.000000 0.000000 0.000000
# 3 -0.003016 -0.001334 0.006387 0.000000 0.000000 0.000000
# 4 0.000000 0.000000 0.000000 0.036978 0.000000 0.000000
# 5 0.000000 0.000000 0.000000 0.000000 0.013180 0.000000
# 6 0.000000 0.000000 0.000000 0.000000 0.000000 0.022178
#
#
# Mechanical properties :
#
#
# Convention : Reuss Voigt Hill
#
# Bulk Modulus (GPa) = 84.51599 90.56207 87.53903
# Shear Modulus (GPa) = 45.28668 51.65945 48.47306
#
# Velocity S-wave (km/s) = 3.94477 4.21319 4.08118
# Velocity P-wave (km/s) = 7.05614 7.40178 7.23103
#
# Compressibility (1/GPa) = 0.01183208
#
# Stress axis : x y z
#
# Youngs Moduli (GPa) = 120.54850 120.51458 156.56575
#
# Poissons Ratio (x) = 0.14750 0.47215
# Poissons Ratio (y) = 0.14754 0.20894
# Poissons Ratio (z) = 0.36354 0.16083
#
# Static dielectric constant tensor:
#      x y z
#    x 5.605310 0.000000 0.000000 
#    y 0.000000 4.390190 0.000000 
#    z 0.000000 0.000000 5.711240 
# 
# 
# High freq. dielectric constant tensor:
#      x y z
#    x 2.235900 0.000000 0.000000 
#    y 0.000000 2.198110 0.000000 
#    z 0.000000 0.000000 2.207300 
# 
# From -- ./inp_files/413.got.cif
#   From: 2010.03.12/outbox.cif.g09.slc.cpg/sg68_1_cif.got.tgz:413.got - 2010.04.10 23:14:56.
