data_PCOD8283330
_publ_section_title
;
Structure prediction by ZEFSAII (Michael W. Deem and Ramdas Pophale) SiO2 
 PCOD8283330
Probable space group: C C C A
;
_chemical_formula_sum "Si O2"
_cell_formula_units_Z 92
_cell_length_a 19.642402
_cell_length_b 8.762809
_cell_length_c 25.070331
_cell_angle_alpha 90.000000
_cell_angle_beta 90.000000
_cell_angle_gamma 90.000000
_cell_volume 4315.170981
_symmetry_space_group_name_H-M "C C C A"
_symmetry_group_IT_number 68
_space_group.IT_coordinate_system_code '2'
_symmetry_cell_setting 'orthorhombic'
loop_
_space_group_symop_operation_xyz
x,y,z
-x,1/2-y,z
x,1/2-y,1/2-z
-x,y,1/2-z
-x,-y,-z
x,1/2+y,-z
-x,1/2+y,1/2+z
x,-y,1/2+z
1/2+x,1/2+y,z
1/2-x,-y,z
1/2+x,-y,1/2-z
1/2-x,1/2+y,1/2-z
1/2-x,1/2-y,-z
1/2+x,y,-z
1/2-x,y,1/2+z
1/2+x,1/2-y,1/2+z
loop_
_atom_site_type_symbol
_atom_site_label
_atom_site_fract_x
_atom_site_fract_y
_atom_site_fract_z
Si Si1 0.449037 0.627517 0.519385
Si Si2 0.627837 0.681194 0.086375
Si Si3 0.894080 0.510754 0.374813
Si Si4 0.345354 0.779254 0.689613
Si Si5 0.500000 0.250000 0.750000
Si Si6 0.750000 0.000000 0.375870
Si Si7 0.457743 0.011910 0.669529
O O1 0.500000 0.750000 0.544657
O O2 0.500000 0.500000 0.500000
O O3 0.401619 0.701235 0.473161
O O4 0.399069 0.574045 0.565456
O O5 0.701432 0.599995 0.085698
O O6 0.574223 0.571405 0.114931
O O7 0.634032 0.839328 0.118991
O O8 0.842915 0.618553 0.342038
O O9 0.963598 0.518123 0.341676
O O10 0.322754 0.750000 0.750000
O O11 0.291972 0.891843 0.662940
O O12 0.420278 0.857604 0.688408
O O13 0.450748 0.142527 0.714691
#
# Coordination Sequence:
#
# PCOD8283330 Si02
#       7
#    16  16  16  16   4   8  16
#     4  12  22  39  71 106 137 175 211 273 351 426
#     4  11  23  44  64  98 135 179 228 269 335 410
#     4  12  23  41  71 102 138 173 222 281 351 413
#     4  11  26  45  66  94 132 179 230 283 336 402
#     4  12  20  32  66 100 140 172 202 288 352 404
#     4  10  28  48  66  88 136 182 242 290 314 404
#     4  11  21  38  62 102 135 168 213 277 351 408
#
# _framework density 21.320129000000001
#
# number of rings (size 3 to 8) (size 9 to 14) (size 15 to 20)
#    0.000    0.696    5.217    2.609    2.435    2.783 
#    3.130    3.478    0.000    0.000    0.000    0.000 
#    0.000    0.000    0.000    0.000    0.000    0.000 
#
# Total GULP energy -570469.156123 kJ/mol
# GULP energy per Si atom -12401.503394 kJ/mol
# Density = 2.127160 g / cm^3
# Si number density = 21.320129 Si / 1000 Ang^3
#
#
#
# Elastic Constant Matrix: (Units=GPa)
#
#
# Indices 1 2 3 4 5 6 
#
# 1 88.5187 33.3277 19.9589 0.0000 0.0000 0.0000
# 2 33.3277 113.1473 17.9931 0.0000 0.0000 0.0000
# 3 19.9589 17.9931 97.8175 0.0000 0.0000 0.0000
# 4 0.0000 0.0000 0.0000 41.4406 0.0000 0.0000
# 5 0.0000 0.0000 0.0000 0.0000 14.9307 0.0000
# 6 0.0000 0.0000 0.0000 0.0000 0.0000 27.2238
#
#
#
# Elastic Compliance Matrix: (Units=1/GPa)
#
#
# Indices 1 2 3 4 5 6 
#
# 1 0.013082 -0.003532 -0.002020 0.000000 0.000000 0.000000
# 2 -0.003532 0.010058 -0.001129 0.000000 0.000000 0.000000
# 3 -0.002020 -0.001129 0.010843 0.000000 0.000000 0.000000
# 4 0.000000 0.000000 0.000000 0.024131 0.000000 0.000000
# 5 0.000000 0.000000 0.000000 0.000000 0.066976 0.000000
# 6 0.000000 0.000000 0.000000 0.000000 0.000000 0.036733
#
#
# Mechanical properties :
#
#
# Convention : Reuss Voigt Hill
#
# Bulk Modulus (GPa) = 48.49470 49.11590 48.80530
# Shear Modulus (GPa) = 27.46361 31.93261 29.69811
#
# Velocity S-wave (km/s) = 3.59298 3.87430 3.73629
# Velocity P-wave (km/s) = 6.32519 6.56513 6.44628
#
# Compressibility (1/GPa) = 0.02062081
#
# Stress axis : x y z
#
# Youngs Moduli (GPa) = 76.43898 99.42268 92.22573
#
# Poissons Ratio (x) = 0.35119 0.18626
# Poissons Ratio (y) = 0.27000 0.10416
# Poissons Ratio (z) = 0.15438 0.11229
#
# Static dielectric constant tensor:
#      x y z
#    x 3.652990 0.000000 0.000000 
#    y 0.000000 4.606610 0.000000 
#    z 0.000000 0.000000 3.176720 
# 
# 
# High freq. dielectric constant tensor:
#      x y z
#    x 1.808160 0.000000 0.000000 
#    y 0.000000 1.857130 0.000000 
#    z 0.000000 0.000000 1.840730 
# 
# From -- ./inp_files/40784.got.cif
#   From: 2010.03.12/outbox.cif.g09.slc.cpg/sg68_21_cif.got.tgz:40784.got - 2010.04.10 23:14:56.
