data_PCOD8283005
_publ_section_title
;
Structure prediction by ZEFSAII (Michael W. Deem and Ramdas Pophale) SiO2 
 PCOD8283005
Probable space group: C C C A
;
_chemical_formula_sum "Si O2"
_cell_formula_units_Z 88
_cell_length_a 15.063796
_cell_length_b 15.297935
_cell_length_c 15.707889
_cell_angle_alpha 90.000000
_cell_angle_beta 90.000000
_cell_angle_gamma 90.000000
_cell_volume 3619.804042
_symmetry_space_group_name_H-M "C C C A"
_symmetry_group_IT_number 68
_space_group.IT_coordinate_system_code '2'
_symmetry_cell_setting 'orthorhombic'
loop_
_space_group_symop_operation_xyz
x,y,z
-x,1/2-y,z
x,1/2-y,1/2-z
-x,y,1/2-z
-x,-y,-z
x,1/2+y,-z
-x,1/2+y,1/2+z
x,-y,1/2+z
1/2+x,1/2+y,z
1/2-x,-y,z
1/2+x,-y,1/2-z
1/2-x,1/2+y,1/2-z
1/2-x,1/2-y,-z
1/2+x,y,-z
1/2-x,y,1/2+z
1/2+x,1/2-y,1/2+z
loop_
_atom_site_type_symbol
_atom_site_label
_atom_site_fract_x
_atom_site_fract_y
_atom_site_fract_z
Si Si1 0.835391 0.442433 0.336580
Si Si2 0.406641 0.783933 0.552976
Si Si3 0.396128 0.604847 0.336932
Si Si4 0.500000 0.250000 0.892514
Si Si5 0.353788 0.476314 0.476230
Si Si6 0.254497 0.255565 0.657605
O O1 0.750000 0.500000 0.316802
O O2 0.894270 0.451488 0.250456
O O3 0.881415 0.478803 0.423455
O O4 0.816420 0.340152 0.350907
O O5 0.500000 0.750000 0.595698
O O6 0.412495 0.762554 0.452095
O O7 0.383415 0.885337 0.566845
O O8 0.322870 0.730924 0.588548
O O9 0.484770 0.665142 0.333941
O O10 0.407821 0.546826 0.421680
O O11 0.310133 0.666133 0.348823
O O12 0.250000 0.500000 0.466302
O O13 0.207864 0.250000 0.750000
#
# Coordination Sequence:
#
# PCOD8283005 Si02
#       6
#    16  16  16   8  16  16
#     4  10  24  40  70 117 135 182 259 297 368 439
#     4  10  24  43  65 111 143 188 250 292 384 447
#     4  11  23  46  72 106 145 189 254 301 375 449
#     4  10  26  42  68 100 148 196 236 308 383 442
#     4  11  22  41  77 105 140 190 239 307 368 431
#     4  10  22  43  74 101 142 195 249 305 364 453
#
# _framework density 24.310708999999999
#
# number of rings (size 3 to 8) (size 9 to 14) (size 15 to 20)
#    0.545    1.091    1.818    1.636    7.636    2.545 
#    1.636    6.818    0.000    0.000    0.000    0.000 
#    0.000    0.000    0.000    0.000    0.000    0.000 
#
# Total GULP energy -545193.475883 kJ/mol
# GULP energy per Si atom -12390.760816 kJ/mol
# Density = 2.425538 g / cm^3
# Si number density = 24.310709 Si / 1000 Ang^3
#
#
#
# Elastic Constant Matrix: (Units=GPa)
#
#
# Indices 1 2 3 4 5 6 
#
# 1 65.9238 9.1052 50.6297 0.0000 0.0000 0.0000
# 2 9.1052 107.4734 68.5100 0.0000 0.0000 0.0000
# 3 50.6297 68.5100 190.8998 0.0000 0.0000 0.0000
# 4 0.0000 0.0000 0.0000 39.0255 0.0000 0.0000
# 5 0.0000 0.0000 0.0000 0.0000 -4.7513 0.0000
# 6 0.0000 0.0000 0.0000 0.0000 0.0000 46.0710
#
#
#
# Elastic Compliance Matrix: (Units=1/GPa)
#
#
# Indices 1 2 3 4 5 6 
#
# 1 0.019416 0.002123 -0.005911 0.000000 0.000000 0.000000
# 2 0.002123 0.012297 -0.004976 0.000000 0.000000 0.000000
# 3 -0.005911 -0.004976 0.008592 0.000000 0.000000 0.000000
# 4 0.000000 0.000000 0.000000 0.025624 0.000000 0.000000
# 5 0.000000 0.000000 0.000000 0.000000 -0.210470 0.000000
# 6 0.000000 0.000000 0.000000 0.000000 0.000000 0.021706
#
#
# Mechanical properties :
#
#
# Convention : Reuss Voigt Hill
#
# Bulk Modulus (GPa) = 43.90571 68.97632 56.44101
# Shear Modulus (GPa) = -51.16952 31.80585 -9.68184
#
# Velocity S-wave (km/s) = -4.59280 3.62098 -1.99780
# Velocity P-wave (km/s) = 3.16633 6.77616 4.23619
#
# Compressibility (1/GPa) = 0.02277608
#
# Stress axis : x y z
#
# Youngs Moduli (GPa) = 51.50466 81.32124 116.38697
#
# Poissons Ratio (x) = -0.17268 0.68801
# Poissons Ratio (y) = -0.10936 0.57917
# Poissons Ratio (z) = 0.30446 0.40468
#
# Static dielectric constant tensor:
#      x y z
#    x 4.100310 0.000000 0.000000 
#    y 0.000000 4.423050 0.000000 
#    z 0.000000 0.000000 4.618580 
# 
# 
# High freq. dielectric constant tensor:
#      x y z
#    x 1.949150 0.000000 0.000000 
#    y 0.000000 1.962850 0.000000 
#    z 0.000000 0.000000 1.974800 
# 
# From -- ./inp_files/30933.got.cif
#   From: 2010.03.12/outbox.cif.g09.slc.cpg/sg68_16_cif.got.tgz:30933.got - 2010.04.10 23:14:56.
