data_PCOD8283872
_publ_section_title
;
Structure prediction by ZEFSAII (Michael W. Deem and Ramdas Pophale) SiO2 
 PCOD8283872
Probable space group: F M M M
;
_chemical_formula_sum "Si O2"
_cell_formula_units_Z 144
_cell_length_a 32.587168
_cell_length_b 27.236355
_cell_length_c 10.217903
_cell_angle_alpha 90.000000
_cell_angle_beta 90.000000
_cell_angle_gamma 90.000000
_cell_volume 9068.957805
_symmetry_space_group_name_H-M "F M M M"
_symmetry_group_IT_number 69
_symmetry_cell_setting 'orthorhombic'
loop_
_space_group_symop_operation_xyz
x,y,z
-x,-y,z
x,-y,-z
-x,y,-z
-x,-y,-z
x,y,-z
-x,y,z
x,-y,z
x,1/2+y,1/2+z
-x,1/2-y,1/2+z
x,1/2-y,1/2-z
-x,1/2+y,1/2-z
-x,1/2-y,1/2-z
x,1/2+y,1/2-z
-x,1/2+y,1/2+z
x,1/2-y,1/2+z
1/2+x,y,1/2+z
1/2-x,-y,1/2+z
1/2+x,-y,1/2-z
1/2-x,y,1/2-z
1/2-x,-y,1/2-z
1/2+x,y,1/2-z
1/2-x,y,1/2+z
1/2+x,-y,1/2+z
1/2+x,1/2+y,z
1/2-x,1/2-y,z
1/2+x,1/2-y,-z
1/2-x,1/2+y,-z
1/2-x,1/2-y,-z
1/2+x,1/2+y,-z
1/2-x,1/2+y,z
1/2+x,1/2-y,z
loop_
_atom_site_type_symbol
_atom_site_label
_atom_site_fract_x
_atom_site_fract_y
_atom_site_fract_z
Si Si1 0.500000 0.296993 0.156080
Si Si2 0.697131 0.390616 0.500000
Si Si3 0.798443 0.445505 0.258111
Si Si4 0.293740 0.880223 0.500000
Si Si5 0.585995 0.691966 0.762571
Si Si6 0.141354 0.802345 0.000000
Si Si7 0.128528 0.686700 0.000000
O O1 0.500000 0.250000 0.250000
O O2 0.540989 0.327994 0.193067
O O3 0.500000 0.283078 0.000000
O O4 0.684523 0.422965 0.375659
O O5 0.744754 0.374869 0.500000
O O6 0.671593 0.340841 0.500000
O O7 0.817265 0.500000 0.279473
O O8 0.750000 0.450159 0.250000
O O9 0.810740 0.409903 0.375832
O O10 0.312896 0.825371 0.500000
O O11 0.583002 0.750000 0.750000
O O12 0.618605 0.676971 0.872324
O O13 0.600971 0.670758 0.623999
O O14 0.141985 0.743517 0.000000
#
# Coordination Sequence:
#
# PCOD8283872 Si02
#       7
#    16  16  32  16  32  16  16
#     4  10  18  28  46  68  88 112 153 195 232 278
#     4  10  19  31  45  66  89 123 161 193 225 267
#     4   9  17  30  47  66  86 110 146 195 247 288
#     4  10  19  29  47  66  89 121 161 193 227 269
#     4   9  18  29  44  61  87 119 154 188 229 268
#     4  10  18  31  43  62  91 129 158 190 222 255
#     4  10  20  31  43  62  93 129 162 188 216 259
#
# _framework density 15.87834
#
# number of rings (size 3 to 8) (size 9 to 14) (size 15 to 20)
#    0.000    2.444    1.111    2.000    4.667    3.111 
#    0.000    0.000    0.000    8.000    0.000    0.000 
#    0.000    0.000    0.000   70.000    0.000    7.778 
#
# Total GULP energy -446175.229404 kJ/mol
# GULP energy per Si atom -12393.756372 kJ/mol
# Density = 1.584220 g / cm^3
# Si number density = 15.878340 Si / 1000 Ang^3
#
#
#
# Elastic Constant Matrix: (Units=GPa)
#
#
# Indices 1 2 3 4 5 6 
#
# 1 81.0007 36.0276 39.7969 -0.0002 -0.0011 -0.0004
# 2 36.0276 56.2168 32.7899 -0.0014 -0.0030 -0.0003
# 3 39.7969 32.7899 148.7309 -0.0024 -0.0062 -0.0007
# 4 -0.0002 -0.0014 -0.0024 25.3317 0.0019 0.0007
# 5 -0.0011 -0.0030 -0.0062 0.0019 14.1985 0.0012
# 6 -0.0004 -0.0003 -0.0007 0.0007 0.0012 4.3723
#
#
#
# Elastic Compliance Matrix: (Units=1/GPa)
#
#
# Indices 1 2 3 4 5 6 
#
# 1 0.018119 -0.010080 -0.002626 -0.000001 -0.000002 0.000001
# 2 -0.010080 0.026021 -0.003040 0.000001 0.000003 0.000000
# 3 -0.002626 -0.003040 0.008096 0.000001 0.000003 0.000001
# 4 -0.000001 0.000001 0.000001 0.039476 -0.000005 -0.000006
# 5 -0.000002 0.000003 0.000003 -0.000005 0.070430 -0.000020
# 6 0.000001 0.000000 0.000001 -0.000006 -0.000020 0.228710
#
#
# Mechanical properties :
#
#
# Convention : Reuss Voigt Hill
#
# Bulk Modulus (GPa) = 48.20382 55.90855 52.05618
# Shear Modulus (GPa) = 11.64794 20.60277 16.12535
#
# Velocity S-wave (km/s) = 2.71140 3.60605 3.19024
# Velocity P-wave (km/s) = 6.34242 7.25432 6.81364
#
# Compressibility (1/GPa) = 0.02074524
#
# Stress axis : x y z
#
# Youngs Moduli (GPa) = 55.18966 38.42989 123.51336
#
# Poissons Ratio (x) = 0.38739 0.32434
# Poissons Ratio (y) = 0.55634 0.37542
# Poissons Ratio (z) = 0.14492 0.11681
#
# Static dielectric constant tensor:
#      x y z
#    x 3.084350 0.000000 0.000000 
#    y 0.000000 2.711750 0.000000 
#    z 0.000000 0.000000 3.553540 
# 
# 
# High freq. dielectric constant tensor:
#      x y z
#    x 1.590360 0.000000 0.000000 
#    y 0.000000 1.563250 0.000000 
#    z 0.000000 0.000000 1.637210 
# 
# From -- ./inp_files/5700.got.cif
#   From: 2010.03.12/outbox.cif.g09.slc.cpg/sg69_3_cif.got.tgz:5700.got - 2010.04.10 23:52:46.
