data_PCOD8283845
_publ_section_title
;
Structure prediction by ZEFSAII (Michael W. Deem and Ramdas Pophale) SiO2 
 PCOD8283845
Probable space group: F M M M
;
_chemical_formula_sum "Si O2"
_cell_formula_units_Z 176
_cell_length_a 15.436871
_cell_length_b 30.815328
_cell_length_c 26.177296
_cell_angle_alpha 90.000000
_cell_angle_beta 90.000000
_cell_angle_gamma 90.000000
_cell_volume 12452.336654
_symmetry_space_group_name_H-M "F M M M"
_symmetry_group_IT_number 69
_symmetry_cell_setting 'orthorhombic'
loop_
_space_group_symop_operation_xyz
x,y,z
-x,-y,z
x,-y,-z
-x,y,-z
-x,-y,-z
x,y,-z
-x,y,z
x,-y,z
x,1/2+y,1/2+z
-x,1/2-y,1/2+z
x,1/2-y,1/2-z
-x,1/2+y,1/2-z
-x,1/2-y,1/2-z
x,1/2+y,1/2-z
-x,1/2+y,1/2+z
x,1/2-y,1/2+z
1/2+x,y,1/2+z
1/2-x,-y,1/2+z
1/2+x,-y,1/2-z
1/2-x,y,1/2-z
1/2-x,-y,1/2-z
1/2+x,y,1/2-z
1/2-x,y,1/2+z
1/2+x,-y,1/2+z
1/2+x,1/2+y,z
1/2-x,1/2-y,z
1/2+x,1/2-y,-z
1/2-x,1/2+y,-z
1/2-x,1/2-y,-z
1/2+x,1/2+y,-z
1/2-x,1/2+y,z
1/2+x,1/2-y,z
loop_
_atom_site_type_symbol
_atom_site_label
_atom_site_fract_x
_atom_site_fract_y
_atom_site_fract_z
Si Si1 0.673482 0.216903 0.359457
Si Si2 0.330203 0.864142 0.286847
Si Si3 0.597677 0.418481 0.123881
Si Si4 0.500000 0.673344 0.745792
Si Si5 0.402908 0.834580 0.557371
Si Si6 0.500000 0.751909 0.825048
Si Si7 0.103375 0.500000 0.440719
O O1 0.750000 0.250000 0.355255
O O2 0.687127 0.181097 0.315637
O O3 0.668881 0.194533 0.414663
O O4 0.586402 0.244819 0.356786
O O5 0.250000 0.875971 0.250000
O O6 0.344728 0.903660 0.327159
O O7 0.416447 0.857334 0.252968
O O8 0.500000 0.428413 0.143553
O O9 0.594441 0.381245 0.082342
O O10 0.637350 0.459185 0.092795
O O11 0.500000 0.714316 0.782991
O O12 0.500000 0.697376 0.691325
O O13 0.370854 0.839580 0.500000
O O14 0.500000 0.814399 0.561061
O O15 0.138705 0.500000 0.500000
O O16 0.000000 0.500000 0.443543
#
# Coordination Sequence:
#
# PCOD8283845 Si02
#       7
#    32  32  32  16  32  16  16
#     4  10  18  27  39  57  80 105 142 184 213 240
#     4  10  18  28  41  59  82 114 145 171 206 247
#     4   9  16  28  43  62  87 108 136 170 204 252
#     4   9  16  26  40  53  75 106 143 175 207 238
#     4   9  16  27  42  57  78 109 137 169 215 260
#     4   9  16  26  37  54  74 100 137 184 214 233
#     4   9  16  26  45  70  88 107 134 167 207 250
#
# _framework density 14.133894
#
# number of rings (size 3 to 8) (size 9 to 14) (size 15 to 20)
#    0.000    2.636    1.818    1.636    0.000    4.364 
#    0.000    0.455    0.000    0.000    0.000    0.000 
#    0.000    0.000    0.000    0.818    0.000    2.091 
#
# Total GULP energy -545144.407049 kJ/mol
# GULP energy per Si atom -12389.645615 kJ/mol
# Density = 1.410172 g / cm^3
# Si number density = 14.133894 Si / 1000 Ang^3
#
#
#
# Elastic Constant Matrix: (Units=GPa)
#
#
# Indices 1 2 3 4 5 6 
#
# 1 74.8599 29.3419 39.2834 0.0000 0.0000 0.0000
# 2 29.3419 63.9969 37.8116 0.0000 0.0000 0.0000
# 3 39.2834 37.8116 90.4526 0.0000 0.0000 0.0000
# 4 0.0000 0.0000 0.0000 10.2920 0.0000 0.0000
# 5 0.0000 0.0000 0.0000 0.0000 20.5020 0.0000
# 6 0.0000 0.0000 0.0000 0.0000 0.0000 11.7194
#
#
#
# Elastic Compliance Matrix: (Units=1/GPa)
#
#
# Indices 1 2 3 4 5 6 
#
# 1 0.018404 -0.004934 -0.005930 0.000000 0.000000 0.000000
# 2 -0.004934 0.022074 -0.007084 0.000000 0.000000 0.000000
# 3 -0.005930 -0.007084 0.016593 0.000000 0.000000 0.000000
# 4 0.000000 0.000000 0.000000 0.097163 0.000000 0.000000
# 5 0.000000 0.000000 0.000000 0.000000 0.048776 0.000000
# 6 0.000000 0.000000 0.000000 0.000000 0.000000 0.085329
#
#
# Mechanical properties :
#
#
# Convention : Reuss Voigt Hill
#
# Bulk Modulus (GPa) = 47.23112 49.13146 48.18129
# Shear Modulus (GPa) = 15.09233 16.69417 15.89325
#
# Velocity S-wave (km/s) = 3.27128 3.44051 3.35696
# Velocity P-wave (km/s) = 6.91071 7.11475 7.01347
#
# Compressibility (1/GPa) = 0.02117248
#
# Stress axis : x y z
#
# Youngs Moduli (GPa) = 54.33509 45.30251 60.26814
#
# Poissons Ratio (x) = 0.22354 0.35741
# Poissons Ratio (y) = 0.26811 0.42697
# Poissons Ratio (z) = 0.32222 0.32094
#
# Static dielectric constant tensor:
#      x y z
#    x 2.328680 0.000000 0.000000 
#    y 0.000000 2.718010 0.000000 
#    z 0.000000 0.000000 2.823050 
# 
# 
# High freq. dielectric constant tensor:
#      x y z
#    x 1.512910 0.000000 0.000000 
#    y 0.000000 1.522090 0.000000 
#    z 0.000000 0.000000 1.534300 
# 
# From -- ./inp_files/41258.got.cif
#   From: 2010.03.12/outbox.cif.g09.slc.cpg/sg69_21_cif.got.tgz:41258.got - 2010.04.10 23:52:46.
