data_PCOD8283476
_publ_section_title
;
Structure prediction by ZEFSAII (Michael W. Deem and Ramdas Pophale) SiO2 
 PCOD8283476
Probable space group: C C C A
;
_chemical_formula_sum "Si O2"
_cell_formula_units_Z 80
_cell_length_a 23.895910
_cell_length_b 9.551741
_cell_length_c 16.173738
_cell_angle_alpha 90.000000
_cell_angle_beta 90.000000
_cell_angle_gamma 90.000000
_cell_volume 3691.615964
_symmetry_space_group_name_H-M "C C C A"
_symmetry_group_IT_number 68
_space_group.IT_coordinate_system_code '2'
_symmetry_cell_setting 'orthorhombic'
loop_
_space_group_symop_operation_xyz
x,y,z
-x,1/2-y,z
x,1/2-y,1/2-z
-x,y,1/2-z
-x,-y,-z
x,1/2+y,-z
-x,1/2+y,1/2+z
x,-y,1/2+z
1/2+x,1/2+y,z
1/2-x,-y,z
1/2+x,-y,1/2-z
1/2-x,1/2+y,1/2-z
1/2-x,1/2-y,-z
1/2+x,y,-z
1/2-x,y,1/2+z
1/2+x,1/2-y,1/2+z
loop_
_atom_site_type_symbol
_atom_site_label
_atom_site_fract_x
_atom_site_fract_y
_atom_site_fract_z
Si Si1 0.212194 0.377029 0.031375
Si Si2 0.380730 0.164773 0.832981
Si Si3 0.439813 0.700511 0.475839
Si Si4 0.611900 0.069677 0.430065
Si Si5 0.566537 0.085356 0.253868
O O1 0.250000 0.500000 0.067746
O O2 0.173107 0.331330 0.107722
O O3 0.250000 0.250000 0.000000
O O4 0.177248 0.446133 0.954289
O O5 0.366862 0.250000 0.750000
O O6 0.429341 0.246414 0.882341
O O7 0.402865 0.006204 0.816725
O O8 0.500000 0.750000 0.505632
O O9 0.427314 0.535481 0.484279
O O10 0.400274 0.771403 0.544195
O O11 0.597292 0.033763 0.336533
O O12 0.578642 0.250000 0.250000
O O13 0.500000 0.055036 0.250000
#
# Coordination Sequence:
#
# PCOD8283476 Si02
#       5
#    16  16  16  16  16
#     4  11  26  48  72  95 131 179 238 294 347 399
#     4  11  24  45  67 101 135 175 231 282 346 416
#     4  11  23  38  68  99 140 182 225 271 342 424
#     4  11  24  43  68  99 136 182 232 282 340 419
#     4  11  26  42  69 104 148 179 218 279 352 425
#
# _framework density 21.670726999999999
#
# number of rings (size 3 to 8) (size 9 to 14) (size 15 to 20)
#    0.000    1.000    2.000    4.200   11.200    0.000 
#    3.600    0.000    0.000    0.000    0.000    0.000 
#    0.000    0.000    0.000    0.000    0.000    0.000 
#
# Total GULP energy -495721.555079 kJ/mol
# GULP energy per Si atom -12393.038877 kJ/mol
# Density = 2.162140 g / cm^3
# Si number density = 21.670727 Si / 1000 Ang^3
#
#
#
# Elastic Constant Matrix: (Units=GPa)
#
#
# Indices 1 2 3 4 5 6 
#
# 1 108.3039 31.3725 26.4405 0.0000 0.0000 0.0000
# 2 31.3725 109.3344 8.2166 0.0000 0.0000 0.0000
# 3 26.4405 8.2166 90.7547 0.0000 0.0000 0.0000
# 4 0.0000 0.0000 0.0000 29.0576 0.0000 0.0000
# 5 0.0000 0.0000 0.0000 0.0000 31.2575 0.0000
# 6 0.0000 0.0000 0.0000 0.0000 0.0000 37.2645
#
#
#
# Elastic Compliance Matrix: (Units=1/GPa)
#
#
# Indices 1 2 3 4 5 6 
#
# 1 0.010768 -0.002874 -0.002877 0.000000 0.000000 0.000000
# 2 -0.002874 0.009976 -0.000066 0.000000 0.000000 0.000000
# 3 -0.002877 -0.000066 0.011863 0.000000 0.000000 0.000000
# 4 0.000000 0.000000 0.000000 0.034414 0.000000 0.000000
# 5 0.000000 0.000000 0.000000 0.000000 0.031992 0.000000
# 6 0.000000 0.000000 0.000000 0.000000 0.000000 0.026835
#
#
# Mechanical properties :
#
#
# Convention : Reuss Voigt Hill
#
# Bulk Modulus (GPa) = 47.67910 48.93914 48.30912
# Shear Modulus (GPa) = 34.60860 35.67351 35.14105
#
# Velocity S-wave (km/s) = 4.00061 4.06169 4.03127
# Velocity P-wave (km/s) = 6.58705 6.68046 6.63392
#
# Compressibility (1/GPa) = 0.02097355
#
# Stress axis : x y z
#
# Youngs Moduli (GPa) = 92.86745 100.24303 84.29665
#
# Poissons Ratio (x) = 0.28806 0.24252
# Poissons Ratio (y) = 0.26686 0.00556
# Poissons Ratio (z) = 0.26718 0.00661
#
# Static dielectric constant tensor:
#      x y z
#    x 4.152700 0.000000 0.000000 
#    y 0.000000 4.134370 0.000000 
#    z 0.000000 0.000000 3.941810 
# 
# 
# High freq. dielectric constant tensor:
#      x y z
#    x 1.841680 0.000000 0.000000 
#    y 0.000000 1.875200 0.000000 
#    z 0.000000 0.000000 1.845810 
# 
# From -- ./inp_files/33961.got.cif
#   From: 2010.03.12/outbox.cif.g09.slc.cpg/sg68_17_cif.got.tgz:33961.got - 2010.04.10 23:14:56.
