data_PCOD8283184
_publ_section_title
;
Structure prediction by ZEFSAII (Michael W. Deem and Ramdas Pophale) SiO2 
 PCOD8283184
Probable space group: C C C A
;
_chemical_formula_sum "Si O2"
_cell_formula_units_Z 56
_cell_length_a 26.013482
_cell_length_b 8.472113
_cell_length_c 10.559011
_cell_angle_alpha 90.000000
_cell_angle_beta 90.000000
_cell_angle_gamma 90.000000
_cell_volume 2327.091554
_symmetry_space_group_name_H-M "C C C A"
_symmetry_group_IT_number 68
_space_group.IT_coordinate_system_code '2'
_symmetry_cell_setting 'orthorhombic'
loop_
_space_group_symop_operation_xyz
x,y,z
-x,1/2-y,z
x,1/2-y,1/2-z
-x,y,1/2-z
-x,-y,-z
x,1/2+y,-z
-x,1/2+y,1/2+z
x,-y,1/2+z
1/2+x,1/2+y,z
1/2-x,-y,z
1/2+x,-y,1/2-z
1/2-x,1/2+y,1/2-z
1/2-x,1/2-y,-z
1/2+x,y,-z
1/2-x,y,1/2+z
1/2+x,1/2-y,1/2+z
loop_
_atom_site_type_symbol
_atom_site_label
_atom_site_fract_x
_atom_site_fract_y
_atom_site_fract_z
Si Si1 0.500000 0.250000 0.930530
Si Si2 0.542060 0.943554 0.849109
Si Si3 0.694712 0.435550 0.396223
Si Si4 0.657074 0.586469 0.637538
O O1 0.462635 0.364258 0.848698
O O2 0.466005 0.129851 0.012408
O O3 0.500000 0.875495 0.750000
O O4 0.599070 0.889267 0.811176
O O5 0.750000 0.500000 0.440138
O O6 0.655921 0.487641 0.507910
O O7 0.688516 0.247393 0.386509
O O8 0.683219 0.506622 0.256211
#
# Coordination Sequence:
#
# PCOD8283184 Si02
#       4
#     8  16  16  16
#     4  10  24  40  66  94 144 184 234 280 344 402
#     4  11  24  42  67 100 144 183 236 286 345 428
#     4  11  25  47  71 103 141 183 243 299 358 424
#     4  11  26  44  74 105 140 190 235 291 369 419
#
# _framework density 24.064374999999998
#
# number of rings (size 3 to 8) (size 9 to 14) (size 15 to 20)
#    0.000    1.143    0.000    4.286   16.000    3.429 
#    5.143    0.000    0.000    0.000    0.000    0.000 
#    0.000    0.000    0.000    0.000    0.000    0.000 
#
# Total GULP energy -347005.561040 kJ/mol
# GULP energy per Si atom -12393.055751 kJ/mol
# Density = 2.400960 g / cm^3
# Si number density = 24.064375 Si / 1000 Ang^3
#
#
#
# Elastic Constant Matrix: (Units=GPa)
#
#
# Indices 1 2 3 4 5 6 
#
# 1 137.8378 24.4867 24.2287 0.0000 0.0000 0.0000
# 2 24.4867 106.3806 37.8224 0.0000 0.0000 0.0000
# 3 24.2287 37.8224 155.0058 0.0000 0.0000 0.0000
# 4 0.0000 0.0000 0.0000 50.5074 0.0000 0.0000
# 5 0.0000 0.0000 0.0000 0.0000 35.0995 0.0000
# 6 0.0000 0.0000 0.0000 0.0000 0.0000 10.2212
#
#
#
# Elastic Compliance Matrix: (Units=1/GPa)
#
#
# Indices 1 2 3 4 5 6 
#
# 1 0.007663 -0.001465 -0.000840 0.000000 0.000000 0.000000
# 2 -0.001465 0.010573 -0.002351 0.000000 0.000000 0.000000
# 3 -0.000840 -0.002351 0.007156 0.000000 0.000000 0.000000
# 4 0.000000 0.000000 0.000000 0.019799 0.000000 0.000000
# 5 0.000000 0.000000 0.000000 0.000000 0.028490 0.000000
# 6 0.000000 0.000000 0.000000 0.000000 0.000000 0.097836
#
#
# Mechanical properties :
#
#
# Convention : Reuss Voigt Hill
#
# Bulk Modulus (GPa) = 62.18943 63.58886 62.88914
# Shear Modulus (GPa) = 26.85424 40.01140 33.43282
#
# Velocity S-wave (km/s) = 3.34418 4.08202 3.73139
# Velocity P-wave (km/s) = 6.38831 6.97847 6.68990
#
# Compressibility (1/GPa) = 0.01607990
#
# Stress axis : x y z
#
# Youngs Moduli (GPa) = 130.49931 94.57785 139.73586
#
# Poissons Ratio (x) = 0.13857 0.11742
# Poissons Ratio (y) = 0.19119 0.32851
# Poissons Ratio (z) = 0.10966 0.22235
#
# Static dielectric constant tensor:
#      x y z
#    x 4.087000 0.000000 0.000000 
#    y 0.000000 4.236600 0.000000 
#    z 0.000000 0.000000 4.729210 
# 
# 
# High freq. dielectric constant tensor:
#      x y z
#    x 1.938970 0.000000 0.000000 
#    y 0.000000 1.953910 0.000000 
#    z 0.000000 0.000000 1.973440 
# 
# From -- ./inp_files/10569.got.cif
#   From: 2010.03.12/outbox.cif.g09.slc.cpg/sg68_6_cif.got.tgz:10569.got - 2010.04.10 23:14:56.
