data_PCOD8283145
_publ_section_title
;
Structure prediction by ZEFSAII (Michael W. Deem and Ramdas Pophale) SiO2 
 PCOD8283145
Probable space group: C C C A
;
_chemical_formula_sum "Si O2"
_cell_formula_units_Z 80
_cell_length_a 14.394926
_cell_length_b 21.235756
_cell_length_c 11.450572
_cell_angle_alpha 90.000000
_cell_angle_beta 90.000000
_cell_angle_gamma 90.000000
_cell_volume 3500.292562
_symmetry_space_group_name_H-M "C C C A"
_symmetry_group_IT_number 68
_space_group.IT_coordinate_system_code '2'
_symmetry_cell_setting 'orthorhombic'
loop_
_space_group_symop_operation_xyz
x,y,z
-x,1/2-y,z
x,1/2-y,1/2-z
-x,y,1/2-z
-x,-y,-z
x,1/2+y,-z
-x,1/2+y,1/2+z
x,-y,1/2+z
1/2+x,1/2+y,z
1/2-x,-y,z
1/2+x,-y,1/2-z
1/2-x,1/2+y,1/2-z
1/2-x,1/2-y,-z
1/2+x,y,-z
1/2-x,y,1/2+z
1/2+x,1/2-y,1/2+z
loop_
_atom_site_type_symbol
_atom_site_label
_atom_site_fract_x
_atom_site_fract_y
_atom_site_fract_z
Si Si1 0.317502 0.442719 0.484852
Si Si2 0.904982 0.278512 0.541952
Si Si3 0.158373 0.144032 0.973261
Si Si4 0.975709 0.381385 0.385808
Si Si5 0.893259 0.114279 0.778128
O O1 0.250000 0.500000 0.517857
O O2 0.255461 0.379348 0.475942
O O3 0.402553 0.436746 0.578190
O O4 0.360987 0.447070 0.353977
O O5 0.836883 0.219823 0.516931
O O6 0.925965 0.315513 0.420375
O O7 0.870941 0.324588 0.643326
O O8 0.000000 0.250000 0.592539
O O9 0.162754 0.120132 0.840445
O O10 0.070706 0.112683 0.039783
O O11 0.000000 0.384276 0.250000
O O12 0.000000 0.106054 0.750000
#
# Coordination Sequence:
#
# PCOD8283145 Si02
#       5
#    16  16  16  16  16
#     4  11  27  47  68 100 139 186 249 298 337 410
#     4   9  18  36  71 101 137 175 223 284 356 429
#     4  11  23  40  71 104 139 180 230 291 360 425
#     4  10  23  44  68 103 143 184 229 282 359 424
#     4  11  20  42  70 101 133 180 231 290 360 420
#
# _framework density 22.855232999999998
#
# number of rings (size 3 to 8) (size 9 to 14) (size 15 to 20)
#    0.000    1.600    6.000    0.600    2.800    8.400 
#    0.000    0.000    4.400    0.000    0.000    0.000 
#    0.000    0.000    0.000    0.000    0.000    0.000 
#
# Total GULP energy -495691.064040 kJ/mol
# GULP energy per Si atom -12392.276601 kJ/mol
# Density = 2.280321 g / cm^3
# Si number density = 22.855233 Si / 1000 Ang^3
#
#
#
# Elastic Constant Matrix: (Units=GPa)
#
#
# Indices 1 2 3 4 5 6 
#
# 1 112.6649 33.3079 56.8735 0.0000 0.0000 0.0000
# 2 33.3079 43.6626 46.5686 0.0000 0.0000 0.0000
# 3 56.8735 46.5686 185.0814 0.0000 0.0000 0.0000
# 4 0.0000 0.0000 0.0000 18.8448 0.0000 0.0000
# 5 0.0000 0.0000 0.0000 0.0000 26.0732 0.0000
# 6 0.0000 0.0000 0.0000 0.0000 0.0000 46.6186
#
#
#
# Elastic Compliance Matrix: (Units=1/GPa)
#
#
# Indices 1 2 3 4 5 6 
#
# 1 0.011920 -0.007089 -0.001879 0.000000 0.000000 0.000000
# 2 -0.007089 0.035519 -0.006759 0.000000 0.000000 0.000000
# 3 -0.001879 -0.006759 0.007681 0.000000 0.000000 0.000000
# 4 0.000000 0.000000 0.000000 0.053065 0.000000 0.000000
# 5 0.000000 0.000000 0.000000 0.000000 0.038354 0.000000
# 6 0.000000 0.000000 0.000000 0.000000 0.000000 0.021451
#
#
# Mechanical properties :
#
#
# Convention : Reuss Voigt Hill
#
# Bulk Modulus (GPa) = 42.25352 68.32319 55.28836
# Shear Modulus (GPa) = 24.11583 31.95125 28.03354
#
# Velocity S-wave (km/s) = 3.25184 3.74302 3.50604
# Velocity P-wave (km/s) = 5.71199 6.97417 6.37440
#
# Compressibility (1/GPa) = 0.02366667
#
# Stress axis : x y z
#
# Youngs Moduli (GPa) = 83.89033 28.15380 130.19011
#
# Poissons Ratio (x) = 0.19958 0.24467
# Poissons Ratio (y) = 0.59470 0.87991
# Poissons Ratio (z) = 0.15766 0.19028
#
# Static dielectric constant tensor:
#      x y z
#    x 4.265890 0.000000 0.000000 
#    y 0.000000 4.268760 0.000000 
#    z 0.000000 0.000000 4.377840 
# 
# 
# High freq. dielectric constant tensor:
#      x y z
#    x 1.916280 0.000000 0.000000 
#    y 0.000000 1.886100 0.000000 
#    z 0.000000 0.000000 1.895300 
# 
# From -- ./inp_files/13168.got.cif
#   From: 2010.03.12/outbox.cif.g09.slc.cpg/sg68_7_cif.got.tgz:13168.got - 2010.04.10 23:14:56.
