data_PCOD8283499
_publ_section_title
;
Structure prediction by ZEFSAII (Michael W. Deem and Ramdas Pophale) SiO2 
 PCOD8283499
Probable space group: C C C A
;
_chemical_formula_sum "Si O2"
_cell_formula_units_Z 68
_cell_length_a 16.987557
_cell_length_b 20.553771
_cell_length_c 8.643706
_cell_angle_alpha 90.000000
_cell_angle_beta 90.000000
_cell_angle_gamma 90.000000
_cell_volume 3018.022180
_symmetry_space_group_name_H-M "C C C A"
_symmetry_group_IT_number 68
_space_group.IT_coordinate_system_code '2'
_symmetry_cell_setting 'orthorhombic'
loop_
_space_group_symop_operation_xyz
x,y,z
-x,1/2-y,z
x,1/2-y,1/2-z
-x,y,1/2-z
-x,-y,-z
x,1/2+y,-z
-x,1/2+y,1/2+z
x,-y,1/2+z
1/2+x,1/2+y,z
1/2-x,-y,z
1/2+x,-y,1/2-z
1/2-x,1/2+y,1/2-z
1/2-x,1/2-y,-z
1/2+x,y,-z
1/2-x,y,1/2+z
1/2+x,1/2-y,1/2+z
loop_
_atom_site_type_symbol
_atom_site_label
_atom_site_fract_x
_atom_site_fract_y
_atom_site_fract_z
Si Si1 0.868398 0.662715 0.134898
Si Si2 0.819492 0.048368 0.283366
Si Si3 0.086332 0.527890 0.496855
Si Si4 0.500000 0.250000 0.250000
Si Si5 0.726701 0.183182 0.679823
O O1 0.898917 0.588377 0.120681
O O2 0.822538 0.679512 0.297394
O O3 0.946799 0.706385 0.134491
O O4 0.806487 0.677981 0.994275
O O5 0.795289 0.123105 0.291364
O O6 0.750000 0.000000 0.229247
O O7 0.851828 0.028280 0.450413
O O8 0.894095 0.046764 0.170250
O O9 0.000000 0.500000 0.500000
O O10 0.692726 0.250000 0.750000
#
# Coordination Sequence:
#
# PCOD8283499 Si02
#       5
#    16  16  16   4  16
#     4  11  26  45  72 101 138 187 233 290 346 430
#     4  11  23  41  68  98 130 177 229 282 331 414
#     4  11  25  42  66 101 139 177 222 288 354 402
#     4  12  28  44  70 108 144 182 232 288 376 408
#     4  11  24  45  72 100 135 183 238 283 344 418
#
# _framework density 22.531312
#
# number of rings (size 3 to 8) (size 9 to 14) (size 15 to 20)
#    0.000    0.941    3.529    2.118    6.588    1.882 
#    0.000    2.941    0.000    0.000    0.000    0.000 
#    0.000    0.000    0.000    0.000    0.000    0.000 
#
# Total GULP energy -421265.067211 kJ/mol
# GULP energy per Si atom -12390.149036 kJ/mol
# Density = 2.248003 g / cm^3
# Si number density = 22.531312 Si / 1000 Ang^3
#
#
#
# Elastic Constant Matrix: (Units=GPa)
#
#
# Indices 1 2 3 4 5 6 
#
# 1 146.8257 59.4991 41.6369 0.0000 0.0000 0.0000
# 2 59.4991 163.4023 28.5774 0.0000 0.0000 0.0000
# 3 41.6369 28.5774 62.6707 0.0000 0.0000 0.0000
# 4 0.0000 0.0000 0.0000 21.5082 0.0000 0.0000
# 5 0.0000 0.0000 0.0000 0.0000 28.5636 0.0000
# 6 0.0000 0.0000 0.0000 0.0000 0.0000 48.8326
#
#
#
# Elastic Compliance Matrix: (Units=1/GPa)
#
#
# Indices 1 2 3 4 5 6 
#
# 1 0.009238 -0.002489 -0.005003 0.000000 0.000000 0.000000
# 2 -0.002489 0.007321 -0.001685 0.000000 0.000000 0.000000
# 3 -0.005003 -0.001685 0.020048 0.000000 0.000000 0.000000
# 4 0.000000 0.000000 0.000000 0.046494 0.000000 0.000000
# 5 0.000000 0.000000 0.000000 0.000000 0.035010 0.000000
# 6 0.000000 0.000000 0.000000 0.000000 0.000000 0.020478
#
#
# Mechanical properties :
#
#
# Convention : Reuss Voigt Hill
#
# Bulk Modulus (GPa) = 54.78040 70.25839 62.51940
# Shear Modulus (GPa) = 30.66996 35.99322 33.33159
#
# Velocity S-wave (km/s) = 3.69347 4.00118 3.85040
# Velocity P-wave (km/s) = 6.52340 7.25232 6.89750
#
# Compressibility (1/GPa) = 0.01825470
#
# Stress axis : x y z
#
# Youngs Moduli (GPa) = 108.24814 136.59765 49.87972
#
# Poissons Ratio (x) = 0.33998 0.24953
# Poissons Ratio (y) = 0.26942 0.08403
# Poissons Ratio (z) = 0.54152 0.23012
#
# Static dielectric constant tensor:
#      x y z
#    x 4.280610 0.000000 0.000000 
#    y 0.000000 4.611380 0.000000 
#    z 0.000000 0.000000 3.805280 
# 
# 
# High freq. dielectric constant tensor:
#      x y z
#    x 1.888930 0.000000 0.000000 
#    y 0.000000 1.912560 0.000000 
#    z 0.000000 0.000000 1.870260 
# 
# From -- ./inp_files/5912.got.cif
#   From: 2010.03.12/outbox.cif.g09.slc.cpg/sg68_3_cif.got.tgz:5912.got - 2010.04.10 23:14:56.
