data_PCOD8283965
_publ_section_title
;
Structure prediction by ZEFSAII (Michael W. Deem and Ramdas Pophale) SiO2 
 PCOD8283965
Probable space group: F M M M
;
_chemical_formula_sum "Si O2"
_cell_formula_units_Z 160
_cell_length_a 28.327157
_cell_length_b 15.529957
_cell_length_c 19.655101
_cell_angle_alpha 90.000000
_cell_angle_beta 90.000000
_cell_angle_gamma 90.000000
_cell_volume 8646.662797
_symmetry_space_group_name_H-M "F M M M"
_symmetry_group_IT_number 69
_symmetry_cell_setting 'orthorhombic'
loop_
_space_group_symop_operation_xyz
x,y,z
-x,-y,z
x,-y,-z
-x,y,-z
-x,-y,-z
x,y,-z
-x,y,z
x,-y,z
x,1/2+y,1/2+z
-x,1/2-y,1/2+z
x,1/2-y,1/2-z
-x,1/2+y,1/2-z
-x,1/2-y,1/2-z
x,1/2+y,1/2-z
-x,1/2+y,1/2+z
x,1/2-y,1/2+z
1/2+x,y,1/2+z
1/2-x,-y,1/2+z
1/2+x,-y,1/2-z
1/2-x,y,1/2-z
1/2-x,-y,1/2-z
1/2+x,y,1/2-z
1/2-x,y,1/2+z
1/2+x,-y,1/2+z
1/2+x,1/2+y,z
1/2-x,1/2-y,z
1/2+x,1/2-y,-z
1/2-x,1/2+y,-z
1/2-x,1/2-y,-z
1/2+x,1/2+y,-z
1/2-x,1/2+y,z
1/2+x,1/2-y,z
loop_
_atom_site_type_symbol
_atom_site_label
_atom_site_fract_x
_atom_site_fract_y
_atom_site_fract_z
Si Si1 0.113327 0.341609 0.160185
Si Si2 0.947977 0.500000 0.840015
Si Si3 0.380664 0.848689 0.316531
Si Si4 0.553555 0.000000 0.678051
Si Si5 0.222287 0.400641 0.316680
Si Si6 0.801993 0.901211 0.422428
O O1 0.075882 0.411706 0.132497
O O2 0.095782 0.242552 0.162492
O O3 0.125541 0.367745 0.236689
O O4 0.158592 0.342632 0.112082
O O5 0.950017 0.500000 0.758914
O O6 0.000000 0.500000 0.871415
O O7 0.326116 0.853701 0.339167
O O8 0.416853 0.917627 0.348588
O O9 0.500000 0.000000 0.647770
O O10 0.210353 0.500000 0.301276
O O11 0.250000 0.362646 0.250000
O O12 0.253331 0.387275 0.383433
O O13 0.794614 0.872362 0.500000
O O14 0.818576 0.000000 0.416805
#
# Coordination Sequence:
#
# PCOD8283965 Si02
#       6
#    32  16  32  16  32  32
#     4  10  19  32  51  76 108 140 180 220 264 322
#     4   9  18  32  52  74 104 140 177 224 278 323
#     4  10  19  31  51  79 107 141 181 221 261 321
#     4   9  18  32  50  76 109 137 169 225 285 321
#     4  10  18  30  53  76 104 144 185 222 256 309
#     4  10  20  34  53  77 110 146 178 219 271 320
#
# _framework density 18.504249000000002
#
# number of rings (size 3 to 8) (size 9 to 14) (size 15 to 20)
#    0.000    2.200    4.000    0.000    0.000    1.600 
#    0.000    6.000    0.000    1.200    0.000    0.000 
#    0.000    5.600    0.000    0.000    0.000    0.000 
#
# Total GULP energy -495726.546815 kJ/mol
# GULP energy per Si atom -12393.163670 kJ/mol
# Density = 1.846213 g / cm^3
# Si number density = 18.504249 Si / 1000 Ang^3
#
#
#
# Elastic Constant Matrix: (Units=GPa)
#
#
# Indices 1 2 3 4 5 6 
#
# 1 133.4035 69.1684 21.8289 0.0000 0.0000 0.0000
# 2 69.1684 113.6693 29.7748 0.0000 0.0000 0.0000
# 3 21.8289 29.7748 62.1860 0.0000 0.0000 0.0000
# 4 0.0000 0.0000 0.0000 12.9042 0.0000 0.0000
# 5 0.0000 0.0000 0.0000 0.0000 12.0142 0.0000
# 6 0.0000 0.0000 0.0000 0.0000 0.0000 15.8674
#
#
#
# Elastic Compliance Matrix: (Units=1/GPa)
#
#
# Indices 1 2 3 4 5 6 
#
# 1 0.010982 -0.006486 -0.000749 0.000000 0.000000 0.000000
# 2 -0.006486 0.013890 -0.004374 0.000000 0.000000 0.000000
# 3 -0.000749 -0.004374 0.018438 0.000000 0.000000 0.000000
# 4 0.000000 0.000000 0.000000 0.077494 0.000000 0.000000
# 5 0.000000 0.000000 0.000000 0.000000 0.083235 0.000000
# 6 0.000000 0.000000 0.000000 0.000000 0.000000 0.063022
#
#
# Mechanical properties :
#
#
# Convention : Reuss Voigt Hill
#
# Bulk Modulus (GPa) = 49.77283 61.20034 55.48659
# Shear Modulus (GPa) = 16.83637 20.72294 18.77965
#
# Velocity S-wave (km/s) = 3.01967 3.35012 3.18918
# Velocity P-wave (km/s) = 6.25414 6.93613 6.60395
#
# Compressibility (1/GPa) = 0.02009128
#
# Stress axis : x y z
#
# Youngs Moduli (GPa) = 91.06085 71.99430 54.23590
#
# Poissons Ratio (x) = 0.46697 0.04064
# Poissons Ratio (y) = 0.59063 0.23722
# Poissons Ratio (z) = 0.06823 0.31489
#
# Static dielectric constant tensor:
#      x y z
#    x 3.444980 0.000000 0.000000 
#    y 0.000000 3.444640 0.000000 
#    z 0.000000 0.000000 2.959160 
# 
# 
# High freq. dielectric constant tensor:
#      x y z
#    x 1.713460 0.000000 0.000000 
#    y 0.000000 1.720950 0.000000 
#    z 0.000000 0.000000 1.663790 
# 
# From -- ./inp_files/27511.got.cif
#   From: 2010.03.12/outbox.cif.g09.slc.cpg/sg69_14_cif.got.tgz:27511.got - 2010.04.10 23:52:46.
