data_PCOD8283636
_publ_section_title
;
Structure prediction by ZEFSAII (Michael W. Deem and Ramdas Pophale) SiO2 
 PCOD8283636
Probable space group: C C C A
;
_chemical_formula_sum "Si O2"
_cell_formula_units_Z 108
_cell_length_a 14.526975
_cell_length_b 23.713583
_cell_length_c 13.904643
_cell_angle_alpha 90.000000
_cell_angle_beta 90.000000
_cell_angle_gamma 90.000000
_cell_volume 4789.963572
_symmetry_space_group_name_H-M "C C C A"
_symmetry_group_IT_number 68
_space_group.IT_coordinate_system_code '2'
_symmetry_cell_setting 'orthorhombic'
loop_
_space_group_symop_operation_xyz
x,y,z
-x,1/2-y,z
x,1/2-y,1/2-z
-x,y,1/2-z
-x,-y,-z
x,1/2+y,-z
-x,1/2+y,1/2+z
x,-y,1/2+z
1/2+x,1/2+y,z
1/2-x,-y,z
1/2+x,-y,1/2-z
1/2-x,1/2+y,1/2-z
1/2-x,1/2-y,-z
1/2+x,y,-z
1/2-x,y,1/2+z
1/2+x,1/2-y,1/2+z
loop_
_atom_site_type_symbol
_atom_site_label
_atom_site_fract_x
_atom_site_fract_y
_atom_site_fract_z
Si Si1 0.000000 0.980726 0.750000
Si Si2 0.882823 0.146555 0.038445
Si Si3 0.766165 0.437152 0.969673
Si Si4 0.656618 0.189711 0.744774
Si Si5 0.821459 0.451452 0.755930
Si Si6 0.000000 0.250000 0.750000
Si Si7 0.570921 0.393146 0.603877
Si Si8 0.346349 0.328865 0.334305
O O1 0.024675 0.947019 0.653250
O O2 0.083538 0.019401 0.780416
O O3 0.835202 0.087217 0.016277
O O4 0.839900 0.172084 0.134430
O O5 0.993383 0.139402 0.042424
O O6 0.851136 0.184025 0.948200
O O7 0.750000 0.500000 0.004404
O O8 0.786979 0.428443 0.857591
O O9 0.843858 0.407381 0.035079
O O10 0.605380 0.250000 0.750000
O O11 0.602053 0.144345 0.806444
O O12 0.758070 0.199543 0.787013
O O13 0.750000 0.500000 0.714498
O O14 0.838454 0.397059 0.687477
O O15 0.062982 0.204468 0.696337
#
# Coordination Sequence:
#
# PCOD8283636 Si02
#       8
#     8  16  16  16  16   4  16  16
#     4  12  25  42  69 105 150 193 240 306 370 446
#     4  12  27  47  76 110 145 191 254 310 376 452
#     4  11  26  44  72 106 152 196 243 307 382 467
#     4  12  26  52  78 103 144 196 251 314 376 434
#     4  11  25  46  74 106 151 200 248 310 386 453
#     4  12  30  52  72 116 160 202 260 314 392 464
#     4  12  26  46  72 110 147 190 252 311 370 453
#     4  12  27  49  76 110 154 199 249 316 376 460
#
# _framework density 22.547145
#
# number of rings (size 3 to 8) (size 9 to 14) (size 15 to 20)
#    0.000    0.296    5.185    3.111    6.222    4.148 
#    0.000    0.000    0.000    0.000    0.000    0.000 
#    0.000    0.000    0.000    0.000    0.000    0.000 
#
# Total GULP energy -669155.946048 kJ/mol
# GULP energy per Si atom -12391.776779 kJ/mol
# Density = 2.249583 g / cm^3
# Si number density = 22.547145 Si / 1000 Ang^3
#
#
#
# Elastic Constant Matrix: (Units=GPa)
#
#
# Indices 1 2 3 4 5 6 
#
# 1 134.9776 35.8752 50.4230 0.0000 0.0000 0.0000
# 2 35.8752 109.8548 41.2433 0.0000 0.0000 0.0000
# 3 50.4230 41.2433 158.0460 0.0000 0.0000 0.0000
# 4 0.0000 0.0000 0.0000 -0.0554 0.0000 0.0000
# 5 0.0000 0.0000 0.0000 0.0000 69.7517 0.0000
# 6 0.0000 0.0000 0.0000 0.0000 0.0000 17.3540
#
#
#
# Elastic Compliance Matrix: (Units=1/GPa)
#
#
# Indices 1 2 3 4 5 6 
#
# 1 0.008796 -0.002017 -0.002280 0.000000 0.000000 0.000000
# 2 -0.002017 0.010554 -0.002111 0.000000 0.000000 0.000000
# 3 -0.002280 -0.002111 0.007606 0.000000 0.000000 0.000000
# 4 0.000000 0.000000 0.000000-18.040397 0.000000 0.000000
# 5 0.000000 0.000000 0.000000 0.000000 0.014337 0.000000
# 6 0.000000 0.000000 0.000000 0.000000 0.000000 0.057623
#
#
# Mechanical properties :
#
#
# Convention : Reuss Voigt Hill
#
# Bulk Modulus (GPa) = 70.71693 73.10681 71.91187
# Shear Modulus (GPa) = -0.27896 35.76585 17.74345
#
# Velocity S-wave (km/s) = -0.35212 3.98712 2.80830
# Velocity P-wave (km/s) = 5.59167 7.32738 6.51757
#
# Compressibility (1/GPa) = 0.01414089
#
# Stress axis : x y z
#
# Youngs Moduli (GPa) = 113.68282 94.75138 131.48286
#
# Poissons Ratio (x) = 0.19107 0.29980
# Poissons Ratio (y) = 0.22925 0.27753
# Poissons Ratio (z) = 0.25922 0.20000
#
# Static dielectric constant tensor:
#      x y z
#    x 4.363290 0.000000 0.000000 
#    y 0.000000 4.207350 0.000000 
#    z 0.000000 0.000000 4.276960 
# 
# 
# High freq. dielectric constant tensor:
#      x y z
#    x 1.904500 0.000000 0.000000 
#    y 0.000000 1.890110 0.000000 
#    z 0.000000 0.000000 1.898950 
# 
# From -- ./inp_files/22651.got.cif
#   From: 2010.03.12/outbox.cif.g09.slc.cpg/sg68_12_cif.got.tgz:22651.got - 2010.04.10 23:14:56.
