data_PCOD8283154
_publ_section_title
;
Structure prediction by ZEFSAII (Michael W. Deem and Ramdas Pophale) SiO2 
 PCOD8283154
Probable space group: C C C A
;
_chemical_formula_sum "Si O2"
_cell_formula_units_Z 48
_cell_length_a 15.246112
_cell_length_b 13.858688
_cell_length_c 11.410271
_cell_angle_alpha 90.000000
_cell_angle_beta 90.000000
_cell_angle_gamma 90.000000
_cell_volume 2410.888818
_symmetry_space_group_name_H-M "C C C A"
_symmetry_group_IT_number 68
_space_group.IT_coordinate_system_code '2'
_symmetry_cell_setting 'orthorhombic'
loop_
_space_group_symop_operation_xyz
x,y,z
-x,1/2-y,z
x,1/2-y,1/2-z
-x,y,1/2-z
-x,-y,-z
x,1/2+y,-z
-x,1/2+y,1/2+z
x,-y,1/2+z
1/2+x,1/2+y,z
1/2-x,-y,z
1/2+x,-y,1/2-z
1/2-x,1/2+y,1/2-z
1/2-x,1/2-y,-z
1/2+x,y,-z
1/2-x,y,1/2+z
1/2+x,1/2-y,1/2+z
loop_
_atom_site_type_symbol
_atom_site_label
_atom_site_fract_x
_atom_site_fract_y
_atom_site_fract_z
Si Si1 0.614412 0.335360 0.169710
Si Si2 0.931966 0.830968 0.599181
Si Si3 0.281818 0.250000 0.750000
Si Si4 0.000000 0.496967 0.250000
O O1 0.572812 0.250000 0.250000
O O2 0.720618 0.325413 0.176861
O O3 0.584370 0.438315 0.219470
O O4 0.580337 0.326009 0.038719
O O5 0.839159 0.812807 0.661059
O O6 0.000000 0.750000 0.640141
O O7 0.972645 0.933045 0.638056
#
# Coordination Sequence:
#
# PCOD8283154 Si02
#       4
#    16  16   8   8
#     4  10  25  42  68  95 136 170 217 267 331 379
#     4  12  22  45  69  94 135 174 218 266 323 397
#     4  10  23  45  64 100 128 174 216 265 333 372
#     4  12  22  42  66 104 124 174 224 260 330 386
#
# _framework density 19.909669000000001
#
# number of rings (size 3 to 8) (size 9 to 14) (size 15 to 20)
#    1.000    0.000    3.333    4.500    0.000    1.333 
#    0.000    3.333    0.000    0.000    0.000    0.000 
#    0.000    0.000    0.000    0.000    0.000    0.000 
#
# Total GULP energy -297542.877659 kJ/mol
# GULP energy per Si atom -12397.619902 kJ/mol
# Density = 1.986435 g / cm^3
# Si number density = 19.909669 Si / 1000 Ang^3
#
#
#
# Elastic Constant Matrix: (Units=GPa)
#
#
# Indices 1 2 3 4 5 6 
#
# 1 125.0672 64.4460 40.6063 0.0000 0.0000 0.0000
# 2 64.4460 150.7441 64.6411 0.0000 0.0000 0.0000
# 3 40.6063 64.6411 153.4968 0.0000 0.0000 0.0000
# 4 0.0000 0.0000 0.0000 17.2862 0.0000 0.0000
# 5 0.0000 0.0000 0.0000 0.0000 30.0242 0.0000
# 6 0.0000 0.0000 0.0000 0.0000 0.0000 -5.2174
#
#
#
# Elastic Compliance Matrix: (Units=1/GPa)
#
#
# Indices 1 2 3 4 5 6 
#
# 1 0.010397 -0.003985 -0.001072 0.000000 0.000000 0.000000
# 2 -0.003985 0.009623 -0.002998 0.000000 0.000000 0.000000
# 3 -0.001072 -0.002998 0.008061 0.000000 0.000000 0.000000
# 4 0.000000 0.000000 0.000000 0.057850 0.000000 0.000000
# 5 0.000000 0.000000 0.000000 0.000000 0.033306 0.000000
# 6 0.000000 0.000000 0.000000 0.000000 0.000000 -0.191666
#
#
# Mechanical properties :
#
#
# Convention : Reuss Voigt Hill
#
# Bulk Modulus (GPa) = 83.54162 85.41056 84.47609
# Shear Modulus (GPa) = -95.55468 25.72623 -34.91422
#
# Velocity S-wave (km/s) = -6.93529 3.59855 -4.19218
# Velocity P-wave (km/s) = 4.69890 7.76262 4.36913
#
# Compressibility (1/GPa) = 0.01197008
#
# Stress axis : x y z
#
# Youngs Moduli (GPa) = 96.17763 103.91475 124.05245
#
# Poissons Ratio (x) = 0.41413 0.13301
# Poissons Ratio (y) = 0.38330 0.37195
# Poissons Ratio (z) = 0.10313 0.31157
#
# Static dielectric constant tensor:
#      x y z
#    x 3.668900 0.000000 0.000000 
#    y 0.000000 3.529880 0.000000 
#    z 0.000000 0.000000 3.614110 
# 
# 
# High freq. dielectric constant tensor:
#      x y z
#    x 1.786620 0.000000 0.000000 
#    y 0.000000 1.768950 0.000000 
#    z 0.000000 0.000000 1.785800 
# 
# From -- ./inp_files/11276.got.cif
#   From: 2010.03.12/outbox.cif.g09.slc.cpg/sg68_6_cif.got.tgz:11276.got - 2010.04.10 23:14:56.
