data_PCOD8283593
_publ_section_title
;
Structure prediction by ZEFSAII (Michael W. Deem and Ramdas Pophale) SiO2 
 PCOD8283593
Probable space group: C C C A
;
_chemical_formula_sum "Si O2"
_cell_formula_units_Z 88
_cell_length_a 14.212867
_cell_length_b 11.541453
_cell_length_c 26.117687
_cell_angle_alpha 90.000000
_cell_angle_beta 90.000000
_cell_angle_gamma 90.000000
_cell_volume 4284.270587
_symmetry_space_group_name_H-M "C C C A"
_symmetry_group_IT_number 68
_space_group.IT_coordinate_system_code '2'
_symmetry_cell_setting 'orthorhombic'
loop_
_space_group_symop_operation_xyz
x,y,z
-x,1/2-y,z
x,1/2-y,1/2-z
-x,y,1/2-z
-x,-y,-z
x,1/2+y,-z
-x,1/2+y,1/2+z
x,-y,1/2+z
1/2+x,1/2+y,z
1/2-x,-y,z
1/2+x,-y,1/2-z
1/2-x,1/2+y,1/2-z
1/2-x,1/2-y,-z
1/2+x,y,-z
1/2-x,y,1/2+z
1/2+x,1/2-y,1/2+z
loop_
_atom_site_type_symbol
_atom_site_label
_atom_site_fract_x
_atom_site_fract_y
_atom_site_fract_z
Si Si1 0.750000 0.000000 0.035139
Si Si2 0.322544 0.600552 0.877575
Si Si3 0.500000 0.250000 0.596102
Si Si4 0.195928 0.675941 0.619750
Si Si5 0.250000 0.000000 0.795709
Si Si6 0.583760 0.037922 0.964528
Si Si7 0.394315 0.373344 0.267667
O O1 0.698953 0.904377 0.069692
O O2 0.825562 0.935640 0.999337
O O3 0.250000 0.500000 0.864056
O O4 0.261150 0.713265 0.891201
O O5 0.390454 0.564385 0.924389
O O6 0.389547 0.620212 0.828996
O O7 0.585252 0.201042 0.630673
O O8 0.552509 0.344878 0.562166
O O9 0.233496 0.612589 0.669910
O O10 0.337961 0.977239 0.758862
O O11 0.500000 0.000000 0.000000
O O12 0.352289 0.250000 0.250000
O O13 0.500000 0.387218 0.250000
#
# Coordination Sequence:
#
# PCOD8283593 Si02
#       7
#     8  16   8  16   8  16  16
#     4  11  24  45  64  96 138 185 224 285 344 402
#     4  12  24  44  70  96 136 182 225 281 350 410
#     4  12  24  42  64 101 138 170 235 280 334 408
#     4  11  25  42  69  98 139 179 228 286 342 410
#     4  11  24  45  70 104 138 173 226 289 346 408
#     4  12  26  42  66 100 136 182 230 280 343 408
#     4  11  25  45  71  99 134 176 225 279 344 416
#
# _framework density 20.540253
#
# number of rings (size 3 to 8) (size 9 to 14) (size 15 to 20)
#    0.000    0.545    7.273    0.000    5.091    1.455 
#    0.000    0.000    0.000    1.091    0.000    0.000 
#    0.000    0.000    0.000    0.000    0.000    0.000 
#
# Total GULP energy -545687.284254 kJ/mol
# GULP energy per Si atom -12401.983733 kJ/mol
# Density = 2.049350 g / cm^3
# Si number density = 20.540253 Si / 1000 Ang^3
#
#
#
# Elastic Constant Matrix: (Units=GPa)
#
#
# Indices 1 2 3 4 5 6 
#
# 1 138.3065 39.5864 52.2420 0.0000 0.0000 0.0000
# 2 39.5864 106.2589 29.9704 0.0000 0.0000 0.0000
# 3 52.2420 29.9704 116.2356 0.0000 0.0000 0.0000
# 4 0.0000 0.0000 0.0000 6.7925 0.0000 0.0000
# 5 0.0000 0.0000 0.0000 0.0000 33.7170 0.0000
# 6 0.0000 0.0000 0.0000 0.0000 0.0000 40.5221
#
#
#
# Elastic Compliance Matrix: (Units=1/GPa)
#
#
# Indices 1 2 3 4 5 6 
#
# 1 0.009267 -0.002456 -0.003532 0.000000 0.000000 0.000000
# 2 -0.002456 0.010800 -0.001681 0.000000 0.000000 0.000000
# 3 -0.003532 -0.001681 0.010624 0.000000 0.000000 0.000000
# 4 0.000000 0.000000 0.000000 0.147221 0.000000 0.000000
# 5 0.000000 0.000000 0.000000 0.000000 0.029659 0.000000
# 6 0.000000 0.000000 0.000000 0.000000 0.000000 0.024678
#
#
# Mechanical properties :
#
#
# Convention : Reuss Voigt Hill
#
# Bulk Modulus (GPa) = 65.13127 67.15540 66.14333
# Shear Modulus (GPa) = 19.78595 32.13980 25.96287
#
# Velocity S-wave (km/s) = 3.10704 3.95995 3.55913
# Velocity P-wave (km/s) = 6.68203 7.32624 7.01154
#
# Compressibility (1/GPa) = 0.01535361
#
# Stress axis : x y z
#
# Youngs Moduli (GPa) = 107.90415 92.59132 94.12668
#
# Poissons Ratio (x) = 0.22744 0.33245
# Poissons Ratio (y) = 0.26506 0.15820
# Poissons Ratio (z) = 0.38111 0.15562
#
# Static dielectric constant tensor:
#      x y z
#    x 8.238120 0.000000 0.000000 
#    y 0.000000 4.612130 0.000000 
#    z 0.000000 0.000000 3.861780 
# 
# 
# High freq. dielectric constant tensor:
#      x y z
#    x 1.815620 0.000000 0.000000 
#    y 0.000000 1.808130 0.000000 
#    z 0.000000 0.000000 1.808490 
# 
# From -- ./inp_files/44286.got.cif
#   From: 2010.03.12/outbox.cif.g09.slc.cpg/sg68_23_cif.got.tgz:44286.got - 2010.04.10 23:14:56.
