data_PCOD8283968
_publ_section_title
;
Structure prediction by ZEFSAII (Michael W. Deem and Ramdas Pophale) SiO2 
 PCOD8283968
Probable space group: F M M M
;
_chemical_formula_sum "Si O2"
_cell_formula_units_Z 176
_cell_length_a 26.868638
_cell_length_b 17.924582
_cell_length_c 17.593360
_cell_angle_alpha 90.000000
_cell_angle_beta 90.000000
_cell_angle_gamma 90.000000
_cell_volume 8473.122365
_symmetry_space_group_name_H-M "F M M M"
_symmetry_group_IT_number 69
_symmetry_cell_setting 'orthorhombic'
loop_
_space_group_symop_operation_xyz
x,y,z
-x,-y,z
x,-y,-z
-x,y,-z
-x,-y,-z
x,y,-z
-x,y,z
x,-y,z
x,1/2+y,1/2+z
-x,1/2-y,1/2+z
x,1/2-y,1/2-z
-x,1/2+y,1/2-z
-x,1/2-y,1/2-z
x,1/2+y,1/2-z
-x,1/2+y,1/2+z
x,1/2-y,1/2+z
1/2+x,y,1/2+z
1/2-x,-y,1/2+z
1/2+x,-y,1/2-z
1/2-x,y,1/2-z
1/2-x,-y,1/2-z
1/2+x,y,1/2-z
1/2-x,y,1/2+z
1/2+x,-y,1/2+z
1/2+x,1/2+y,z
1/2-x,1/2-y,z
1/2+x,1/2-y,-z
1/2-x,1/2+y,-z
1/2-x,1/2-y,-z
1/2+x,1/2+y,-z
1/2-x,1/2+y,z
1/2+x,1/2-y,z
loop_
_atom_site_type_symbol
_atom_site_label
_atom_site_fract_x
_atom_site_fract_y
_atom_site_fract_z
Si Si1 0.102589 0.657859 0.144965
Si Si2 0.441914 0.919081 0.000000
Si Si3 0.196533 0.586083 0.086920
Si Si4 0.558101 0.696742 0.911424
Si Si5 0.896240 0.588943 0.303257
Si Si6 0.715328 0.913374 0.315602
O O1 0.161228 0.638672 0.137669
O O2 0.091400 0.745648 0.138104
O O3 0.083436 0.624624 0.224754
O O4 0.072899 0.622551 0.075707
O O5 0.500000 0.927768 0.000000
O O6 0.415534 0.000000 0.000000
O O7 0.183514 0.500000 0.105781
O O8 0.254670 0.601031 0.105837
O O9 0.186636 0.605817 0.000000
O O10 0.500000 0.716416 0.903917
O O11 0.569636 0.616656 0.873339
O O12 0.573947 0.696120 0.000000
O O13 0.900298 0.500000 0.299317
O O14 0.840089 0.619744 0.318797
O O15 0.750000 0.877250 0.250000
O O16 0.708394 0.000000 0.297427
#
# Coordination Sequence:
#
# PCOD8283968 Si02
#       6
#    32  16  32  32  32  32
#     4  12  21  38  64  93 129 165 209 258 323 391
#     4  11  22  34  56  92 130 163 203 261 322 385
#     4  10  18  30  56  92 128 168 209 250 306 379
#     4  11  26  48  68  87 123 175 220 264 324 384
#     4  11  24  41  68 100 128 163 216 272 316 372
#     4   9  17  33  57  89 127 163 201 249 308 369
#
# _framework density 20.771564000000001
#
# number of rings (size 3 to 8) (size 9 to 14) (size 15 to 20)
#    0.000    1.364    3.636    2.727    0.000    3.636 
#    0.000    3.636    0.000    2.182    0.000    0.000 
#    0.000    0.000    0.000    0.000    0.000    0.000 
#
# Total GULP energy -545501.220662 kJ/mol
# GULP energy per Si atom -12397.755015 kJ/mol
# Density = 2.072429 g / cm^3
# Si number density = 20.771564 Si / 1000 Ang^3
#
#
#
# Elastic Constant Matrix: (Units=GPa)
#
#
# Indices 1 2 3 4 5 6 
#
# 1 76.0803 28.1396 38.5921 0.0000 0.0000 0.0000
# 2 28.1396 79.2671 52.5125 0.0000 0.0000 0.0000
# 3 38.5921 52.5125 106.0774 0.0000 0.0000 0.0000
# 4 0.0000 0.0000 0.0000 32.1407 0.0000 0.0000
# 5 0.0000 0.0000 0.0000 0.0000 19.6032 0.0000
# 6 0.0000 0.0000 0.0000 0.0000 0.0000 -70.7198
#
#
#
# Elastic Compliance Matrix: (Units=1/GPa)
#
#
# Indices 1 2 3 4 5 6 
#
# 1 0.016527 -0.002803 -0.004625 0.000000 0.000000 0.000000
# 2 -0.002803 0.019247 -0.008508 0.000000 0.000000 0.000000
# 3 -0.004625 -0.008508 0.015322 0.000000 0.000000 0.000000
# 4 0.000000 0.000000 0.000000 0.031113 0.000000 0.000000
# 5 0.000000 0.000000 0.000000 0.000000 0.051012 0.000000
# 6 0.000000 0.000000 0.000000 0.000000 0.000000 -0.014140
#
#
# Mechanical properties :
#
#
# Convention : Reuss Voigt Hill
#
# Bulk Modulus (GPa) = 52.02126 55.54590 53.78358
# Shear Modulus (GPa) = 31.77406 5.68354 18.72880
#
# Velocity S-wave (km/s) = 3.91537 1.65594 3.00602
# Velocity P-wave (km/s) = 6.74826 5.51866 6.16419
#
# Compressibility (1/GPa) = 0.01922291
#
# Stress axis : x y z
#
# Youngs Moduli (GPa) = 60.50775 51.95556 65.26694
#
# Poissons Ratio (x) = 0.14563 0.30186
# Poissons Ratio (y) = 0.16960 0.55532
# Poissons Ratio (z) = 0.27985 0.44206
#
# Static dielectric constant tensor:
#      x y z
#    x 3.868670 0.000000 0.000000 
#    y 0.000000 3.615800 0.000000 
#    z 0.000000 0.000000 3.782990 
# 
# 
# High freq. dielectric constant tensor:
#      x y z
#    x 1.814760 0.000000 0.000000 
#    y 0.000000 1.786380 0.000000 
#    z 0.000000 0.000000 1.820030 
# 
# From -- ./inp_files/26786.got.cif
#   From: 2010.03.12/outbox.cif.g09.slc.cpg/sg69_14_cif.got.tgz:26786.got - 2010.04.10 23:52:46.
