data_PCOD8283745
_publ_section_title
;
Structure prediction by ZEFSAII (Michael W. Deem and Ramdas Pophale) SiO2 
 PCOD8283745
Probable space group: C C C A
;
_chemical_formula_sum "Si O2"
_cell_formula_units_Z 64
_cell_length_a 18.061982
_cell_length_b 13.179440
_cell_length_c 12.039903
_cell_angle_alpha 90.000000
_cell_angle_beta 90.000000
_cell_angle_gamma 90.000000
_cell_volume 2866.060478
_symmetry_space_group_name_H-M "C C C A"
_symmetry_group_IT_number 68
_space_group.IT_coordinate_system_code '2'
_symmetry_cell_setting 'orthorhombic'
loop_
_space_group_symop_operation_xyz
x,y,z
-x,1/2-y,z
x,1/2-y,1/2-z
-x,y,1/2-z
-x,-y,-z
x,1/2+y,-z
-x,1/2+y,1/2+z
x,-y,1/2+z
1/2+x,1/2+y,z
1/2-x,-y,z
1/2+x,-y,1/2-z
1/2-x,1/2+y,1/2-z
1/2-x,1/2-y,-z
1/2+x,y,-z
1/2-x,y,1/2+z
1/2+x,1/2-y,1/2+z
loop_
_atom_site_type_symbol
_atom_site_label
_atom_site_fract_x
_atom_site_fract_y
_atom_site_fract_z
Si Si1 0.074276 0.910246 0.811742
Si Si2 0.000000 0.750000 0.954618
Si Si3 0.811512 0.750000 0.250000
Si Si4 0.613204 0.387032 0.424243
Si Si5 0.705912 0.602728 0.138509
O O1 0.061125 0.805274 0.877970
O O2 0.137662 0.891265 0.722555
O O3 0.000000 0.945499 0.750000
O O4 0.095581 0.996386 0.899287
O O5 0.039819 0.666622 0.029909
O O6 0.862529 0.668410 0.311787
O O7 0.761358 0.695402 0.158380
O O8 0.679330 0.387370 0.512516
O O9 0.750000 0.500000 0.159352
#
# Coordination Sequence:
#
# PCOD8283745 Si02
#       5
#    16   8   8  16  16
#     4  12  27  50  73 112 147 199 249 312 368 449
#     4  12  27  47  80 106 152 203 250 305 376 448
#     4  12  28  49  71 112 150 198 248 318 372 446
#     4  12  29  45  79 108 151 195 253 310 373 446
#     4  12  27  48  76 107 151 198 249 308 379 446
#
# _framework density 22.330303000000001
#
# number of rings (size 3 to 8) (size 9 to 14) (size 15 to 20)
#    0.000    0.000    5.000    3.375   10.500    0.000 
#    0.000    0.000    0.000    0.000    0.000    0.000 
#    0.000    0.000    0.000    0.000    0.000    0.000 
#
# Total GULP energy -397116.732217 kJ/mol
# GULP energy per Si atom -12409.897882 kJ/mol
# Density = 2.227948 g / cm^3
# Si number density = 22.330303 Si / 1000 Ang^3
#
#
#
# Elastic Constant Matrix: (Units=GPa)
#
#
# Indices 1 2 3 4 5 6 
#
# 1 83.5682 17.5782 29.6729 0.0000 0.0000 0.0000
# 2 17.5782 114.3510 35.7469 0.0000 0.0000 0.0000
# 3 29.6729 35.7469 109.8620 0.0000 0.0000 0.0000
# 4 0.0000 0.0000 0.0000 37.1098 0.0000 0.0000
# 5 0.0000 0.0000 0.0000 0.0000 388.4505 0.0000
# 6 0.0000 0.0000 0.0000 0.0000 0.0000 32.3316
#
#
#
# Elastic Compliance Matrix: (Units=1/GPa)
#
#
# Indices 1 2 3 4 5 6 
#
# 1 0.013344 -0.001029 -0.003269 0.000000 0.000000 0.000000
# 2 -0.001029 0.009815 -0.002915 0.000000 0.000000 0.000000
# 3 -0.003269 -0.002915 0.010934 0.000000 0.000000 0.000000
# 4 0.000000 0.000000 0.000000 0.026947 0.000000 0.000000
# 5 0.000000 0.000000 0.000000 0.000000 0.002574 0.000000
# 6 0.000000 0.000000 0.000000 0.000000 0.000000 0.030929
#
#
# Mechanical properties :
#
#
# Convention : Reuss Voigt Hill
#
# Bulk Modulus (GPa) = 50.85323 52.64191 51.74757
# Shear Modulus (GPa) = 43.28052 106.56394 74.92223
#
# Velocity S-wave (km/s) = 4.40727 6.91558 5.79868
# Velocity P-wave (km/s) = 6.98007 9.34839 8.24966
#
# Compressibility (1/GPa) = 0.01966443
#
# Stress axis : x y z
#
# Youngs Moduli (GPa) = 74.94263 101.88881 91.45843
#
# Poissons Ratio (x) = 0.10487 0.29899
# Poissons Ratio (y) = 0.07713 0.26665
# Poissons Ratio (z) = 0.24499 0.29706
#
# Static dielectric constant tensor:
#      x y z
#    x 4.215900 0.000000 0.000000 
#    y 0.000000 4.158980 0.000000 
#    z 0.000000 0.000000 4.074840 
# 
# 
# High freq. dielectric constant tensor:
#      x y z
#    x 1.888740 0.000000 0.000000 
#    y 0.000000 1.897670 0.000000 
#    z 0.000000 0.000000 1.888130 
# 
# From -- ./inp_files/12883.got.cif
#   From: 2010.03.12/outbox.cif.g09.slc.cpg/sg68_7_cif.got.tgz:12883.got - 2010.04.10 23:14:56.
