data_PCOD8283756
_publ_section_title
;
Structure prediction by ZEFSAII (Michael W. Deem and Ramdas Pophale) SiO2 
 PCOD8283756
Probable space group: F M M M
;
_chemical_formula_sum "Si O2"
_cell_formula_units_Z 240
_cell_length_a 28.166166
_cell_length_b 24.213408
_cell_length_c 21.307611
_cell_angle_alpha 90.000000
_cell_angle_beta 90.000000
_cell_angle_gamma 90.000000
_cell_volume 14531.766606
_symmetry_space_group_name_H-M "F M M M"
_symmetry_group_IT_number 69
_symmetry_cell_setting 'orthorhombic'
loop_
_space_group_symop_operation_xyz
x,y,z
-x,-y,z
x,-y,-z
-x,y,-z
-x,-y,-z
x,y,-z
-x,y,z
x,-y,z
x,1/2+y,1/2+z
-x,1/2-y,1/2+z
x,1/2-y,1/2-z
-x,1/2+y,1/2-z
-x,1/2-y,1/2-z
x,1/2+y,1/2-z
-x,1/2+y,1/2+z
x,1/2-y,1/2+z
1/2+x,y,1/2+z
1/2-x,-y,1/2+z
1/2+x,-y,1/2-z
1/2-x,y,1/2-z
1/2-x,-y,1/2-z
1/2+x,y,1/2-z
1/2-x,y,1/2+z
1/2+x,-y,1/2+z
1/2+x,1/2+y,z
1/2-x,1/2-y,z
1/2+x,1/2-y,-z
1/2-x,1/2+y,-z
1/2-x,1/2-y,-z
1/2+x,1/2+y,-z
1/2-x,1/2+y,z
1/2+x,1/2-y,z
loop_
_atom_site_type_symbol
_atom_site_label
_atom_site_fract_x
_atom_site_fract_y
_atom_site_fract_z
Si Si1 0.094996 0.823651 0.214104
Si Si2 0.944967 0.717541 0.158382
Si Si3 0.660106 0.059656 0.847535
Si Si4 0.778904 0.296708 0.124934
Si Si5 0.627125 0.841070 0.927374
Si Si6 0.178851 0.250000 0.250000
Si Si7 0.137385 0.436870 0.295875
Si Si8 0.760066 0.401690 0.322136
O O1 0.068117 0.782605 0.165947
O O2 0.067159 0.819055 0.280175
O O3 0.148023 0.801157 0.224223
O O4 0.099968 0.886982 0.186748
O O5 0.916784 0.693303 0.099468
O O6 0.000000 0.712123 0.143100
O O7 0.633217 0.100803 0.893224
O O8 0.643167 0.072125 0.777674
O O9 0.717578 0.059861 0.848177
O O10 0.643176 0.000000 0.870222
O O11 0.750000 0.250000 0.087519
O O12 0.824643 0.307774 0.083388
O O13 0.790747 0.274434 0.194092
O O14 0.743210 0.347610 0.134621
O O15 0.617771 0.851568 0.000000
O O16 0.119015 0.500000 0.310915
O O17 0.188305 0.429791 0.330667
O O18 0.750000 0.386771 0.250000
#
# Coordination Sequence:
#
# PCOD8283756 Si02
#       8
#    32  32  32  32  32  16  32  32
#     4  10  16  30  52  74 100 122 154 195 253 316
#     4  10  20  35  55  73  92 120 159 208 259 308
#     4   9  17  31  46  65  98 136 169 202 234 274
#     4  11  18  27  45  69 100 134 160 198 244 296
#     4  11  22  35  48  69  96 128 174 213 243 283
#     4  10  15  26  47  72  94 126 165 200 237 294
#     4  10  17  26  45  74 106 132 158 193 238 291
#     4   9  16  23  39  69 100 128 163 194 232 281
#
# _framework density 16.515540999999999
#
# number of rings (size 3 to 8) (size 9 to 14) (size 15 to 20)
#    0.000    2.133    4.000    4.600    0.000    2.400 
#    0.000    0.000    0.000    2.800    0.000    0.933 
#    0.000    0.533    0.000    1.200    0.000    0.000 
#
# Total GULP energy -743376.462971 kJ/mol
# GULP energy per Si atom -12389.607716 kJ/mol
# Density = 1.647795 g / cm^3
# Si number density = 16.515541 Si / 1000 Ang^3
#
#
#
# Elastic Constant Matrix: (Units=GPa)
#
#
# Indices 1 2 3 4 5 6 
#
# 1 63.1583 46.4118 20.9924 0.0000 0.0000 0.0000
# 2 46.4118 116.5170 24.6559 0.0000 0.0000 0.0000
# 3 20.9924 24.6559 56.0991 0.0000 0.0000 0.0000
# 4 0.0000 0.0000 0.0000 12.7583 0.0000 0.0000
# 5 0.0000 0.0000 0.0000 0.0000 4.1601 0.0000
# 6 0.0000 0.0000 0.0000 0.0000 0.0000 10.9579
#
#
#
# Elastic Compliance Matrix: (Units=1/GPa)
#
#
# Indices 1 2 3 4 5 6 
#
# 1 0.023686 -0.008334 -0.005200 0.000000 0.000000 0.000000
# 2 -0.008334 0.012395 -0.002329 0.000000 0.000000 0.000000
# 3 -0.005200 -0.002329 0.020795 0.000000 0.000000 0.000000
# 4 0.000000 0.000000 0.000000 0.078381 0.000000 0.000000
# 5 0.000000 0.000000 0.000000 0.000000 0.240380 0.000000
# 6 0.000000 0.000000 0.000000 0.000000 0.000000 0.091258
#
#
# Mechanical properties :
#
#
# Convention : Reuss Voigt Hill
#
# Bulk Modulus (GPa) = 39.76306 46.65493 43.20900
# Shear Modulus (GPa) = 9.86182 15.15621 12.50901
#
# Velocity S-wave (km/s) = 2.44626 3.03263 2.75509
# Velocity P-wave (km/s) = 5.66633 6.36969 6.02828
#
# Compressibility (1/GPa) = 0.02514897
#
# Stress axis : x y z
#
# Youngs Moduli (GPa) = 42.21855 80.67714 48.08804
#
# Poissons Ratio (x) = 0.67240 0.25008
# Poissons Ratio (y) = 0.35187 0.11200
# Poissons Ratio (z) = 0.21955 0.18789
#
# Static dielectric constant tensor:
#      x y z
#    x 3.001350 0.000000 0.000000 
#    y 0.000000 3.336600 0.000000 
#    z 0.000000 0.000000 2.634940 
# 
# 
# High freq. dielectric constant tensor:
#      x y z
#    x 1.617900 0.000000 0.000000 
#    y 0.000000 1.646600 0.000000 
#    z 0.000000 0.000000 1.579370 
# 
# From -- ./inp_files/34120.got.cif
#   From: 2010.03.12/outbox.cif.g09.slc.cpg/sg69_18_cif.got.tgz:34120.got - 2010.04.10 23:52:46.
