data_PCOD8283559
_publ_section_title
;
Structure prediction by ZEFSAII (Michael W. Deem and Ramdas Pophale) SiO2 
 PCOD8283559
Probable space group: C C C A
;
_chemical_formula_sum "Si O2"
_cell_formula_units_Z 64
_cell_length_a 16.530855
_cell_length_b 19.269473
_cell_length_c 9.312278
_cell_angle_alpha 90.000000
_cell_angle_beta 90.000000
_cell_angle_gamma 90.000000
_cell_volume 2966.341081
_symmetry_space_group_name_H-M "C C C A"
_symmetry_group_IT_number 68
_space_group.IT_coordinate_system_code '2'
_symmetry_cell_setting 'orthorhombic'
loop_
_space_group_symop_operation_xyz
x,y,z
-x,1/2-y,z
x,1/2-y,1/2-z
-x,y,1/2-z
-x,-y,-z
x,1/2+y,-z
-x,1/2+y,1/2+z
x,-y,1/2+z
1/2+x,1/2+y,z
1/2-x,-y,z
1/2+x,-y,1/2-z
1/2-x,1/2+y,1/2-z
1/2-x,1/2-y,-z
1/2+x,y,-z
1/2-x,y,1/2+z
1/2+x,1/2-y,1/2+z
loop_
_atom_site_type_symbol
_atom_site_label
_atom_site_fract_x
_atom_site_fract_y
_atom_site_fract_z
Si Si1 0.557076 0.469180 0.883158
Si Si2 0.588031 0.266142 0.416947
Si Si3 0.172682 0.635096 0.485156
Si Si4 0.832378 0.900878 0.154118
O O1 0.500000 0.451560 0.750000
O O2 0.630086 0.522599 0.850129
O O3 0.500000 0.500000 0.000000
O O4 0.593494 0.398788 0.945330
O O5 0.500000 0.250000 0.484235
O O6 0.587287 0.250000 0.250000
O O7 0.656309 0.218349 0.495500
O O8 0.608212 0.347575 0.429647
O O9 0.183313 0.615909 0.319400
O O10 0.248059 0.605974 0.572379
#
# Coordination Sequence:
#
# PCOD8283559 Si02
#       4
#    16  16  16  16
#     4  12  25  42  67  96 130 171 224 274 331 396
#     4   9  19  39  68  93 127 170 222 270 327 388
#     4  11  24  42  65  97 131 172 218 272 332 395
#     4  11  24  41  67  95 130 174 217 271 333 398
#
# _framework density 21.575400999999999
#
# number of rings (size 3 to 8) (size 9 to 14) (size 15 to 20)
#    0.000    1.250    2.500    3.000    7.000    2.000 
#    0.000    0.000    0.000    0.000    0.000    0.000 
#    0.000    0.000    0.000    0.000    0.000    0.000 
#
# Total GULP energy -396662.843782 kJ/mol
# GULP energy per Si atom -12395.713868 kJ/mol
# Density = 2.152629 g / cm^3
# Si number density = 21.575401 Si / 1000 Ang^3
#
#
#
# Elastic Constant Matrix: (Units=GPa)
#
#
# Indices 1 2 3 4 5 6 
#
# 1 118.5605 14.7860 47.3349 0.0000 0.0000 0.0000
# 2 14.7860 84.7684 19.9890 0.0000 0.0000 0.0000
# 3 47.3349 19.9890 110.4317 0.0000 0.0000 0.0000
# 4 0.0000 0.0000 0.0000 24.1716 0.0000 0.0000
# 5 0.0000 0.0000 0.0000 0.0000 48.3697 0.0000
# 6 0.0000 0.0000 0.0000 0.0000 0.0000 112.4283
#
#
#
# Elastic Compliance Matrix: (Units=1/GPa)
#
#
# Indices 1 2 3 4 5 6 
#
# 1 0.010226 -0.000784 -0.004241 0.000000 0.000000 0.000000
# 2 -0.000784 0.012383 -0.001906 0.000000 0.000000 0.000000
# 3 -0.004241 -0.001906 0.011218 0.000000 0.000000 0.000000
# 4 0.000000 0.000000 0.000000 0.041371 0.000000 0.000000
# 5 0.000000 0.000000 0.000000 0.000000 0.020674 0.000000
# 6 0.000000 0.000000 0.000000 0.000000 0.000000 0.008895
#
#
# Mechanical properties :
#
#
# Convention : Reuss Voigt Hill
#
# Bulk Modulus (GPa) = 50.08496 53.10892 51.59694
# Shear Modulus (GPa) = 39.90998 52.43731 46.17364
#
# Velocity S-wave (km/s) = 4.30559 4.93528 4.63115
# Velocity P-wave (km/s) = 6.92688 7.55942 7.25006
#
# Compressibility (1/GPa) = 0.01996607
#
# Stress axis : x y z
#
# Youngs Moduli (GPa) = 97.79468 80.75679 89.14074
#
# Poissons Ratio (x) = 0.06327 0.37806
# Poissons Ratio (y) = 0.07662 0.16986
# Poissons Ratio (z) = 0.41477 0.15389
#
# Static dielectric constant tensor:
#      x y z
#    x 3.965520 0.000000 0.000000 
#    y 0.000000 5.725410 0.000000 
#    z 0.000000 0.000000 3.608250 
# 
# 
# High freq. dielectric constant tensor:
#      x y z
#    x 1.860050 0.000000 0.000000 
#    y 0.000000 1.855280 0.000000 
#    z 0.000000 0.000000 1.833460 
# 
# From -- ./inp_files/5792.got.cif
#   From: 2010.03.12/outbox.cif.g09.slc.cpg/sg68_3_cif.got.tgz:5792.got - 2010.04.10 23:14:56.
