data_PCOD8283716
_publ_section_title
;
Structure prediction by ZEFSAII (Michael W. Deem and Ramdas Pophale) SiO2 
 PCOD8283716
Probable space group: C C C A
;
_chemical_formula_sum "Si O2"
_cell_formula_units_Z 60
_cell_length_a 5.301946
_cell_length_b 24.213952
_cell_length_c 19.992305
_cell_angle_alpha 90.000000
_cell_angle_beta 90.000000
_cell_angle_gamma 90.000000
_cell_volume 2566.633427
_symmetry_space_group_name_H-M "C C C A"
_symmetry_group_IT_number 68
_space_group.IT_coordinate_system_code '2'
_symmetry_cell_setting 'orthorhombic'
loop_
_space_group_symop_operation_xyz
x,y,z
-x,1/2-y,z
x,1/2-y,1/2-z
-x,y,1/2-z
-x,-y,-z
x,1/2+y,-z
-x,1/2+y,1/2+z
x,-y,1/2+z
1/2+x,1/2+y,z
1/2-x,-y,z
1/2+x,-y,1/2-z
1/2-x,1/2+y,1/2-z
1/2-x,1/2-y,-z
1/2+x,y,-z
1/2-x,y,1/2+z
1/2+x,1/2-y,1/2+z
loop_
_atom_site_type_symbol
_atom_site_label
_atom_site_fract_x
_atom_site_fract_y
_atom_site_fract_z
Si Si1 0.750000 0.500000 0.635364
Si Si2 0.500000 0.548387 0.750000
Si Si3 0.000000 0.750000 0.250000
Si Si4 0.500000 0.381294 0.750000
Si Si5 0.140247 0.304271 0.355158
Si Si6 0.253696 0.605247 0.957084
O O1 0.504087 0.509399 0.683679
O O2 0.796178 0.553623 0.590800
O O3 0.250488 0.583710 0.758634
O O4 0.842105 0.789570 0.298279
O O5 0.446917 0.344513 0.683633
O O6 0.256078 0.336535 0.417896
O O7 0.000000 0.250000 0.382850
O O8 0.529639 0.602535 0.989334
#
# Coordination Sequence:
#
# PCOD8283716 Si02
#       6
#     8   8   4   8  16  16
#     4  12  28  50  82 114 160 192 266 318 400 446
#     4  12  28  44  82 120 148 194 248 338 390 462
#     4  12  24  48  82 122 150 190 242 352 398 446
#     4  12  24  48  74 120 158 188 246 322 412 452
#     4  12  27  46  81 113 155 197 257 319 396 461
#     4  12  32  52  75 107 157 218 258 304 369 473
#
# _framework density 23.376926999999998
#
# number of rings (size 3 to 8) (size 9 to 14) (size 15 to 20)
#    0.000    0.000    5.333    2.400    7.467    3.200 
#    0.000    0.000    0.000    0.000    0.000    0.000 
#    0.000    0.000    0.000    0.000    0.000    0.000 
#
# Total GULP energy -371898.808804 kJ/mol
# GULP energy per Si atom -12396.626960 kJ/mol
# Density = 2.332372 g / cm^3
# Si number density = 23.376927 Si / 1000 Ang^3
#
#
#
# Elastic Constant Matrix: (Units=GPa)
#
#
# Indices 1 2 3 4 5 6 
#
# 1 92.6413 42.7344 22.4491 0.0000 0.0000 0.0000
# 2 42.7344 151.0847 62.0364 0.0000 0.0000 0.0000
# 3 22.4491 62.0364 123.4650 0.0000 0.0000 0.0000
# 4 0.0000 0.0000 0.0000 18.0673 0.0000 0.0000
# 5 0.0000 0.0000 0.0000 0.0000 34.4797 0.0000
# 6 0.0000 0.0000 0.0000 0.0000 0.0000 30.1366
#
#
#
# Elastic Compliance Matrix: (Units=1/GPa)
#
#
# Indices 1 2 3 4 5 6 
#
# 1 0.012452 -0.003266 -0.000623 0.000000 0.000000 0.000000
# 2 -0.003266 0.009196 -0.004027 0.000000 0.000000 0.000000
# 3 -0.000623 -0.004027 0.010236 0.000000 0.000000 0.000000
# 4 0.000000 0.000000 0.000000 0.055349 0.000000 0.000000
# 5 0.000000 0.000000 0.000000 0.000000 0.029003 0.000000
# 6 0.000000 0.000000 0.000000 0.000000 0.000000 0.033182
#
#
# Mechanical properties :
#
#
# Convention : Reuss Voigt Hill
#
# Bulk Modulus (GPa) = 62.29701 69.07012 65.68356
# Shear Modulus (GPa) = 29.30826 32.53477 30.92151
#
# Velocity S-wave (km/s) = 3.54464 3.73466 3.64089
# Velocity P-wave (km/s) = 6.59238 6.94315 6.77003
#
# Compressibility (1/GPa) = 0.01605214
#
# Stress axis : x y z
#
# Youngs Moduli (GPa) = 80.30864 108.74172 97.69413
#
# Poissons Ratio (x) = 0.35518 0.06085
# Poissons Ratio (y) = 0.26231 0.39339
# Poissons Ratio (z) = 0.05002 0.43788
#
# Static dielectric constant tensor:
#      x y z
#    x 11.152110 0.000000 0.000000 
#    y 0.000000 5.068340 0.000000 
#    z 0.000000 0.000000 4.534970 
# 
# 
# High freq. dielectric constant tensor:
#      x y z
#    x 1.920060 0.000000 0.000000 
#    y 0.000000 1.958520 0.000000 
#    z 0.000000 0.000000 1.927480 
# 
# From -- ./inp_files/27034.got.cif
#   From: 2010.03.12/outbox.cif.g09.slc.cpg/sg68_14_cif.got.tgz:27034.got - 2010.04.10 23:14:56.
