data_PCOD8283095
_publ_section_title
;
Structure prediction by ZEFSAII (Michael W. Deem and Ramdas Pophale) SiO2 
 PCOD8283095
Probable space group: C C C A
;
_chemical_formula_sum "Si O2"
_cell_formula_units_Z 52
_cell_length_a 9.019427
_cell_length_b 28.354999
_cell_length_c 9.207073
_cell_angle_alpha 90.000000
_cell_angle_beta 90.000000
_cell_angle_gamma 90.000000
_cell_volume 2354.670651
_symmetry_space_group_name_H-M "C C C A"
_symmetry_group_IT_number 68
_space_group.IT_coordinate_system_code '2'
_symmetry_cell_setting 'orthorhombic'
loop_
_space_group_symop_operation_xyz
x,y,z
-x,1/2-y,z
x,1/2-y,1/2-z
-x,y,1/2-z
-x,-y,-z
x,1/2+y,-z
-x,1/2+y,1/2+z
x,-y,1/2+z
1/2+x,1/2+y,z
1/2-x,-y,z
1/2+x,-y,1/2-z
1/2-x,1/2+y,1/2-z
1/2-x,1/2-y,-z
1/2+x,y,-z
1/2-x,y,1/2+z
1/2+x,1/2-y,1/2+z
loop_
_atom_site_type_symbol
_atom_site_label
_atom_site_fract_x
_atom_site_fract_y
_atom_site_fract_z
Si Si1 0.000000 0.750000 0.750000
Si Si2 0.399777 0.028325 0.390411
Si Si3 0.601698 0.626846 0.032589
Si Si4 0.823870 0.164098 0.157890
O O1 0.107356 0.783393 0.844357
O O2 0.500000 0.039598 0.250000
O O3 0.352226 0.075707 0.474203
O O4 0.500000 0.000000 0.500000
O O5 0.250000 0.000000 0.346905
O O6 0.425716 0.631972 0.050644
O O7 0.680098 0.639465 0.185345
O O8 0.661400 0.664563 0.913002
#
# Coordination Sequence:
#
# PCOD8283095 Si02
#       4
#     4  16  16  16
#     4   8  20  44  64 104 128 172 220 284 328 404
#     4  12  28  44  69  99 137 181 233 285 337 407
#     4  10  24  42  63  97 131 175 215 272 337 396
#     4  10  23  41  70  93 136 169 220 273 335 403
#
# _framework density 22.083769
#
# number of rings (size 3 to 8) (size 9 to 14) (size 15 to 20)
#    0.000    1.846    0.000    2.769   17.231    4.923 
#    0.000    0.000    0.000   14.769    0.000    0.000 
#    0.000    0.000    0.000    0.000    0.000    0.000 
#
# Total GULP energy -322227.457687 kJ/mol
# GULP energy per Si atom -12393.363757 kJ/mol
# Density = 2.203350 g / cm^3
# Si number density = 22.083769 Si / 1000 Ang^3
#
#
#
# Elastic Constant Matrix: (Units=GPa)
#
#
# Indices 1 2 3 4 5 6 
#
# 1 69.5688 35.5602 55.0086 0.0000 0.0000 0.0000
# 2 35.5602 146.6930 57.9392 0.0000 0.0000 0.0000
# 3 55.0086 57.9392 132.8609 0.0000 0.0000 0.0000
# 4 0.0000 0.0000 0.0000 15.1652 0.0000 0.0000
# 5 0.0000 0.0000 0.0000 0.0000 43.8269 0.0000
# 6 0.0000 0.0000 0.0000 0.0000 0.0000 31.8135
#
#
#
# Elastic Compliance Matrix: (Units=1/GPa)
#
#
# Indices 1 2 3 4 5 6 
#
# 1 0.021886 -0.002086 -0.008152 0.000000 0.000000 0.000000
# 2 -0.002086 0.008434 -0.002815 0.000000 0.000000 0.000000
# 3 -0.008152 -0.002815 0.012129 0.000000 0.000000 0.000000
# 4 0.000000 0.000000 0.000000 0.065940 0.000000 0.000000
# 5 0.000000 0.000000 0.000000 0.000000 0.022817 0.000000
# 6 0.000000 0.000000 0.000000 0.000000 0.000000 0.031433
#
#
# Mechanical properties :
#
#
# Convention : Reuss Voigt Hill
#
# Bulk Modulus (GPa) = 61.18010 71.79319 66.48665
# Shear Modulus (GPa) = 25.74754 31.53542 28.64148
#
# Velocity S-wave (km/s) = 3.41824 3.78298 3.60522
# Velocity P-wave (km/s) = 6.58353 7.18758 6.89218
#
# Compressibility (1/GPa) = 0.01634518
#
# Stress axis : x y z
#
# Youngs Moduli (GPa) = 45.69076 118.56479 82.44522
#
# Poissons Ratio (x) = 0.24729 0.67210
# Poissons Ratio (y) = 0.09530 0.23204
# Poissons Ratio (z) = 0.37247 0.33370
#
# Static dielectric constant tensor:
#      x y z
#    x 4.126950 0.000000 0.000000 
#    y 0.000000 4.158430 0.000000 
#    z 0.000000 0.000000 4.315660 
# 
# 
# High freq. dielectric constant tensor:
#      x y z
#    x 1.873750 0.000000 0.000000 
#    y 0.000000 1.865930 0.000000 
#    z 0.000000 0.000000 1.873260 
# 
# From -- ./inp_files/3824.got.cif
#   From: 2010.03.12/outbox.cif.g09.slc.cpg/sg68_2_cif.got.tgz:3824.got - 2010.04.10 23:14:56.
