data_PCOD8283183
_publ_section_title
;
Structure prediction by ZEFSAII (Michael W. Deem and Ramdas Pophale) SiO2 
 PCOD8283183
Probable space group: C C C A
;
_chemical_formula_sum "Si O2"
_cell_formula_units_Z 64
_cell_length_a 17.320096
_cell_length_b 16.322710
_cell_length_c 10.242052
_cell_angle_alpha 90.000000
_cell_angle_beta 90.000000
_cell_angle_gamma 90.000000
_cell_volume 2895.539782
_symmetry_space_group_name_H-M "C C C A"
_symmetry_group_IT_number 68
_space_group.IT_coordinate_system_code '2'
_symmetry_cell_setting 'orthorhombic'
loop_
_space_group_symop_operation_xyz
x,y,z
-x,1/2-y,z
x,1/2-y,1/2-z
-x,y,1/2-z
-x,-y,-z
x,1/2+y,-z
-x,1/2+y,1/2+z
x,-y,1/2+z
1/2+x,1/2+y,z
1/2-x,-y,z
1/2+x,-y,1/2-z
1/2-x,1/2+y,1/2-z
1/2-x,1/2-y,-z
1/2+x,y,-z
1/2-x,y,1/2+z
1/2+x,1/2-y,1/2+z
loop_
_atom_site_type_symbol
_atom_site_label
_atom_site_fract_x
_atom_site_fract_y
_atom_site_fract_z
Si Si1 0.404331 0.942357 0.409267
Si Si2 0.017742 0.104048 0.888709
Si Si3 0.318743 0.405082 0.034516
Si Si4 0.705661 0.653452 0.244420
O O1 0.442739 0.884292 0.519650
O O2 0.375550 0.885348 0.291385
O O3 0.468949 0.006465 0.359925
O O4 0.330831 0.995359 0.466396
O O5 0.096291 0.138888 0.954485
O O6 0.000000 0.147464 0.750000
O O7 0.273364 0.377772 0.162747
O O8 0.276649 0.375175 0.903278
O O9 0.699201 0.750000 0.250000
#
# Coordination Sequence:
#
# PCOD8283183 Si02
#       4
#    16  16  16  16
#     4   9  21  38  69  90 130 164 230 269 328 386
#     4   9  19  38  68  93 123 161 233 281 315 377
#     4  10  24  40  65  94 125 178 224 265 334 401
#     4  12  25  42  64  97 140 172 212 278 344 408
#
# _framework density 22.102958999999998
#
# number of rings (size 3 to 8) (size 9 to 14) (size 15 to 20)
#    1.500    0.500    0.000    3.000    3.500    2.000 
#    0.000    2.500    0.000    0.000    0.000    0.000 
#    0.000    0.000    0.000    0.000    0.000    0.000 
#
# Total GULP energy -396541.181945 kJ/mol
# GULP energy per Si atom -12391.911936 kJ/mol
# Density = 2.205265 g / cm^3
# Si number density = 22.102959 Si / 1000 Ang^3
#
#
#
# Elastic Constant Matrix: (Units=GPa)
#
#
# Indices 1 2 3 4 5 6 
#
# 1 84.4072 21.5100 55.1962 0.0000 0.0000 0.0000
# 2 21.5100 69.2960 32.2891 0.0000 0.0000 0.0000
# 3 55.1962 32.2891 166.0741 0.0000 0.0000 0.0000
# 4 0.0000 0.0000 0.0000 17.8701 0.0000 0.0000
# 5 0.0000 0.0000 0.0000 0.0000 47.9550 0.0000
# 6 0.0000 0.0000 0.0000 0.0000 0.0000 7.4468
#
#
#
# Elastic Compliance Matrix: (Units=1/GPa)
#
#
# Indices 1 2 3 4 5 6 
#
# 1 0.015572 -0.002663 -0.004658 0.000000 0.000000 0.000000
# 2 -0.002663 0.016324 -0.002289 0.000000 0.000000 0.000000
# 3 -0.004658 -0.002289 0.008014 0.000000 0.000000 0.000000
# 4 0.000000 0.000000 0.000000 0.055959 0.000000 0.000000
# 5 0.000000 0.000000 0.000000 0.000000 0.020853 0.000000
# 6 0.000000 0.000000 0.000000 0.000000 0.000000 0.134286
#
#
# Mechanical properties :
#
#
# Convention : Reuss Voigt Hill
#
# Bulk Modulus (GPa) = 48.33017 59.75196 54.04106
# Shear Modulus (GPa) = 18.04242 28.70652 23.37447
#
# Velocity S-wave (km/s) = 2.86018 3.60775 3.25549
# Velocity P-wave (km/s) = 5.72895 6.66683 6.21560
#
# Compressibility (1/GPa) = 0.02069101
#
# Stress axis : x y z
#
# Youngs Moduli (GPa) = 64.21877 61.25962 124.77594
#
# Poissons Ratio (x) = 0.16316 0.58116
# Poissons Ratio (y) = 0.17104 0.28556
# Poissons Ratio (z) = 0.29910 0.14020
#
# Static dielectric constant tensor:
#      x y z
#    x 3.933080 0.000000 0.000000 
#    y 0.000000 3.483610 0.000000 
#    z 0.000000 0.000000 3.871730 
# 
# 
# High freq. dielectric constant tensor:
#      x y z
#    x 1.876460 0.000000 0.000000 
#    y 0.000000 1.819700 0.000000 
#    z 0.000000 0.000000 1.872790 
# 
# From -- ./inp_files/6891.got.cif
#   From: 2010.03.12/outbox.cif.g09.slc.cpg/sg68_4_cif.got.tgz:6891.got - 2010.04.10 23:14:56.
