data_PCOD8283038
_publ_section_title
;
Structure prediction by ZEFSAII (Michael W. Deem and Ramdas Pophale) SiO2 
 PCOD8283038
Probable space group: C C C A
;
_chemical_formula_sum "Si O2"
_cell_formula_units_Z 48
_cell_length_a 9.810065
_cell_length_b 15.516972
_cell_length_c 14.615109
_cell_angle_alpha 90.000000
_cell_angle_beta 90.000000
_cell_angle_gamma 90.000000
_cell_volume 2224.748487
_symmetry_space_group_name_H-M "C C C A"
_symmetry_group_IT_number 68
_space_group.IT_coordinate_system_code '2'
_symmetry_cell_setting 'orthorhombic'
loop_
_space_group_symop_operation_xyz
x,y,z
-x,1/2-y,z
x,1/2-y,1/2-z
-x,y,1/2-z
-x,-y,-z
x,1/2+y,-z
-x,1/2+y,1/2+z
x,-y,1/2+z
1/2+x,1/2+y,z
1/2-x,-y,z
1/2+x,-y,1/2-z
1/2-x,1/2+y,1/2-z
1/2-x,1/2-y,-z
1/2+x,y,-z
1/2-x,y,1/2+z
1/2+x,1/2-y,1/2+z
loop_
_atom_site_type_symbol
_atom_site_label
_atom_site_fract_x
_atom_site_fract_y
_atom_site_fract_z
Si Si1 0.365416 0.696670 0.444616
Si Si2 0.943497 0.152779 0.626625
Si Si3 0.293373 0.096470 0.207508
O O1 0.500000 0.750000 0.415919
O O2 0.250000 0.750000 0.500000
O O3 0.407260 0.627091 0.522503
O O4 0.312980 0.649932 0.353808
O O5 0.813001 0.144559 0.694464
O O6 0.000000 0.250000 0.632296
O O7 0.061906 0.088323 0.656999
O O8 0.250000 0.000000 0.227595
#
# Coordination Sequence:
#
# PCOD8283038 Si02
#       3
#    16  16  16
#     4  11  22  43  72  97 124 176 226 261 318 395
#     4  10  22  46  70  84 134 182 211 263 332 389
#     4  11  23  41  65  98 131 171 213 271 334 378
#
# _framework density 21.575472000000001
#
# number of rings (size 3 to 8) (size 9 to 14) (size 15 to 20)
#    0.000    1.333    6.667    2.000    0.000    2.667 
#   12.000    1.667    0.000    0.000    0.000    0.000 
#    0.000    0.000    0.000    0.000    0.000    0.000 
#
# Total GULP energy -297346.815669 kJ/mol
# GULP energy per Si atom -12389.450653 kJ/mol
# Density = 2.152636 g / cm^3
# Si number density = 21.575472 Si / 1000 Ang^3
#
#
#
# Elastic Constant Matrix: (Units=GPa)
#
#
# Indices 1 2 3 4 5 6 
#
# 1 115.4211 39.4499 55.3153 0.0000 0.0000 0.0000
# 2 39.4499 83.3910 40.1344 0.0000 0.0000 0.0000
# 3 55.3153 40.1344 158.9312 0.0000 0.0000 0.0000
# 4 0.0000 0.0000 0.0000 9.4821 0.0000 0.0000
# 5 0.0000 0.0000 0.0000 0.0000 46.3677 0.0000
# 6 0.0000 0.0000 0.0000 0.0000 0.0000 39.2937
#
#
#
# Elastic Compliance Matrix: (Units=1/GPa)
#
#
# Indices 1 2 3 4 5 6 
#
# 1 0.011454 -0.003984 -0.002980 0.000000 0.000000 0.000000
# 2 -0.003984 0.015037 -0.002410 0.000000 0.000000 0.000000
# 3 -0.002980 -0.002410 0.007938 0.000000 0.000000 0.000000
# 4 0.000000 0.000000 0.000000 0.105461 0.000000 0.000000
# 5 0.000000 0.000000 0.000000 0.000000 0.021567 0.000000
# 6 0.000000 0.000000 0.000000 0.000000 0.000000 0.025449
#
#
# Mechanical properties :
#
#
# Convention : Reuss Voigt Hill
#
# Bulk Modulus (GPa) = 63.78125 69.72696 66.75411
# Shear Modulus (GPa) = 23.70988 33.88496 28.79742
#
# Velocity S-wave (km/s) = 3.31860 3.96729 3.65736
# Velocity P-wave (km/s) = 6.65660 7.30573 6.98871
#
# Compressibility (1/GPa) = 0.01567859
#
# Stress axis : x y z
#
# Youngs Moduli (GPa) = 87.30548 66.50431 125.97534
#
# Poissons Ratio (x) = 0.26496 0.37546
# Poissons Ratio (y) = 0.34784 0.30366
# Poissons Ratio (z) = 0.26021 0.16031
#
# Static dielectric constant tensor:
#      x y z
#    x 4.873750 0.000000 0.000000 
#    y 0.000000 3.467150 0.000000 
#    z 0.000000 0.000000 4.555640 
# 
# 
# High freq. dielectric constant tensor:
#      x y z
#    x 1.858250 0.000000 0.000000 
#    y 0.000000 1.807060 0.000000 
#    z 0.000000 0.000000 1.866090 
# 
# From -- ./inp_files/19912.got.cif
#   From: 2010.03.12/outbox.cif.g09.slc.cpg/sg68_10_cif.got.tgz:19912.got - 2010.04.10 23:14:56.
