data_PCOD8283770
_publ_section_title
;
Structure prediction by ZEFSAII (Michael W. Deem and Ramdas Pophale) SiO2 
 PCOD8283770
Probable space group: F M M M
;
_chemical_formula_sum "Si O2"
_cell_formula_units_Z 144
_cell_length_a 18.783611
_cell_length_b 20.313070
_cell_length_c 22.643020
_cell_angle_alpha 90.000000
_cell_angle_beta 90.000000
_cell_angle_gamma 90.000000
_cell_volume 8639.507797
_symmetry_space_group_name_H-M "F M M M"
_symmetry_group_IT_number 69
_symmetry_cell_setting 'orthorhombic'
loop_
_space_group_symop_operation_xyz
x,y,z
-x,-y,z
x,-y,-z
-x,y,-z
-x,-y,-z
x,y,-z
-x,y,z
x,-y,z
x,1/2+y,1/2+z
-x,1/2-y,1/2+z
x,1/2-y,1/2-z
-x,1/2+y,1/2-z
-x,1/2-y,1/2-z
x,1/2+y,1/2-z
-x,1/2+y,1/2+z
x,1/2-y,1/2+z
1/2+x,y,1/2+z
1/2-x,-y,1/2+z
1/2+x,-y,1/2-z
1/2-x,y,1/2-z
1/2-x,-y,1/2-z
1/2+x,y,1/2-z
1/2-x,y,1/2+z
1/2+x,-y,1/2+z
1/2+x,1/2+y,z
1/2-x,1/2-y,z
1/2+x,1/2-y,-z
1/2-x,1/2+y,-z
1/2-x,1/2-y,-z
1/2+x,1/2+y,-z
1/2-x,1/2+y,z
1/2+x,1/2-y,z
loop_
_atom_site_type_symbol
_atom_site_label
_atom_site_fract_x
_atom_site_fract_y
_atom_site_fract_z
Si Si1 0.624016 0.250000 0.750000
Si Si2 0.803377 0.306384 0.640035
Si Si3 0.222695 0.574347 0.816320
Si Si4 0.418306 0.246740 0.932401
Si Si5 0.921624 0.357014 0.835766
O O1 0.674748 0.291251 0.792991
O O2 0.575228 0.300013 0.713611
O O3 0.750000 0.250000 0.617130
O O4 0.765880 0.377641 0.639677
O O5 0.870951 0.305388 0.595977
O O6 0.235077 0.500000 0.838226
O O7 0.250000 0.583353 0.750000
O O8 0.138419 0.589745 0.820362
O O9 0.500000 0.269229 0.926120
O O10 0.404766 0.177878 0.898390
O O11 0.396512 0.235365 0.000000
O O12 0.000000 0.390809 0.837114
#
# Coordination Sequence:
#
# PCOD8283770 Si02
#       5
#    16  32  32  32  32
#     4  10  16  28  50  76 100 124 164 210 252 298
#     4  11  17  31  53  75 100 130 168 208 252 301
#     4  11  21  34  49  72 108 141 167 204 252 301
#     4   9  19  33  52  79 104 128 163 211 259 296
#     4  10  19  31  50  74 102 134 167 208 251 305
#
# _framework density 16.667615999999999
#
# number of rings (size 3 to 8) (size 9 to 14) (size 15 to 20)
#    0.000    1.778    6.667    0.667    0.000    1.778 
#    0.000    0.000    0.000    3.333    0.000    4.667 
#    0.000    0.000    0.000    0.000    0.000    0.000 
#
# Total GULP energy -446276.047965 kJ/mol
# GULP energy per Si atom -12396.556888 kJ/mol
# Density = 1.662968 g / cm^3
# Si number density = 16.667616 Si / 1000 Ang^3
#
#
#
# Elastic Constant Matrix: (Units=GPa)
#
#
# Indices 1 2 3 4 5 6 
#
# 1 117.8512 51.7570 43.2325 0.0000 0.0000 0.0000
# 2 51.7570 104.8677 29.8397 0.0000 0.0000 0.0000
# 3 43.2325 29.8397 93.5873 0.0000 0.0000 0.0000
# 4 0.0000 0.0000 0.0000 8.3637 0.0000 0.0000
# 5 0.0000 0.0000 0.0000 0.0000 22.6210 0.0000
# 6 0.0000 0.0000 0.0000 0.0000 0.0000 10.9694
#
#
#
# Elastic Compliance Matrix: (Units=1/GPa)
#
#
# Indices 1 2 3 4 5 6 
#
# 1 0.012083 -0.004812 -0.004048 0.000000 0.000000 0.000000
# 2 -0.004812 0.012404 -0.001732 0.000000 0.000000 0.000000
# 3 -0.004048 -0.001732 0.013107 0.000000 0.000000 0.000000
# 4 0.000000 0.000000 0.000000 0.119564 0.000000 0.000000
# 5 0.000000 0.000000 0.000000 0.000000 0.044207 0.000000
# 6 0.000000 0.000000 0.000000 0.000000 0.000000 0.091163
#
#
# Mechanical properties :
#
#
# Convention : Reuss Voigt Hill
#
# Bulk Modulus (GPa) = 60.93423 62.88495 61.90959
# Shear Modulus (GPa) = 15.66509 21.15596 18.41053
#
# Velocity S-wave (km/s) = 3.06903 3.56657 3.32711
# Velocity P-wave (km/s) = 7.01401 7.40076 7.20998
#
# Compressibility (1/GPa) = 0.01641114
#
# Stress axis : x y z
#
# Youngs Moduli (GPa) = 82.75820 80.62201 76.29382
#
# Poissons Ratio (x) = 0.38795 0.30881
# Poissons Ratio (y) = 0.39823 0.13213
# Poissons Ratio (z) = 0.33498 0.13963
#
# Static dielectric constant tensor:
#      x y z
#    x 3.379670 0.000000 0.000000 
#    y 0.000000 2.870900 0.000000 
#    z 0.000000 0.000000 3.074100 
# 
# 
# High freq. dielectric constant tensor:
#      x y z
#    x 1.660170 0.000000 0.000000 
#    y 0.000000 1.603370 0.000000 
#    z 0.000000 0.000000 1.626290 
# 
# From -- ./inp_files/24811.got.cif
#   From: 2010.03.12/outbox.cif.g09.slc.cpg/sg69_13_cif.got.tgz:24811.got - 2010.04.10 23:52:46.
