data_PCOD8283046
_publ_section_title
;
Structure prediction by ZEFSAII (Michael W. Deem and Ramdas Pophale) SiO2 
 PCOD8283046
Probable space group: C C C A
;
_chemical_formula_sum "Si O2"
_cell_formula_units_Z 104
_cell_length_a 17.582132
_cell_length_b 14.470357
_cell_length_c 21.108127
_cell_angle_alpha 90.000000
_cell_angle_beta 90.000000
_cell_angle_gamma 90.000000
_cell_volume 5370.323906
_symmetry_space_group_name_H-M "C C C A"
_symmetry_group_IT_number 68
_space_group.IT_coordinate_system_code '2'
_symmetry_cell_setting 'orthorhombic'
loop_
_space_group_symop_operation_xyz
x,y,z
-x,1/2-y,z
x,1/2-y,1/2-z
-x,y,1/2-z
-x,-y,-z
x,1/2+y,-z
-x,1/2+y,1/2+z
x,-y,1/2+z
1/2+x,1/2+y,z
1/2-x,-y,z
1/2+x,-y,1/2-z
1/2-x,1/2+y,1/2-z
1/2-x,1/2-y,-z
1/2+x,y,-z
1/2-x,y,1/2+z
1/2+x,1/2-y,1/2+z
loop_
_atom_site_type_symbol
_atom_site_label
_atom_site_fract_x
_atom_site_fract_y
_atom_site_fract_z
Si Si1 0.826223 0.112782 0.106489
Si Si2 0.491389 0.144507 0.862112
Si Si3 0.750000 0.500000 0.000840
Si Si4 0.148272 0.073610 0.106993
Si Si5 0.644458 0.090458 0.301083
Si Si6 0.759711 0.722991 0.679746
Si Si7 0.250000 0.000000 0.293479
Si Si8 0.000000 0.500270 0.750000
O O1 0.914185 0.140732 0.096848
O O2 0.773516 0.198749 0.127195
O O3 0.817938 0.038797 0.162887
O O4 0.797998 0.072011 0.040415
O O5 0.500000 0.250000 0.836550
O O6 0.563861 0.115358 0.905069
O O7 0.482206 0.069869 0.806735
O O8 0.806991 0.435630 0.041269
O O9 0.190304 0.135026 0.159165
O O10 0.146005 0.971582 0.136424
O O11 0.668639 0.195050 0.321973
O O12 0.712799 0.076945 0.250663
O O13 0.566122 0.073073 0.265078
O O14 0.788644 0.750000 0.750000
#
# Coordination Sequence:
#
# PCOD8283046 Si02
#       8
#    16  16   8  16  16  16   8   8
#     4  11  24  37  62  90 120 166 209 263 308 366
#     4  11  22  35  58  97 126 153 210 268 329 367
#     4  11  25  46  62  82 125 177 228 244 296 397
#     4  11  22  39  61  90 123 167 208 253 315 372
#     4  11  19  36  59  88 128 161 199 248 317 383
#     4  12  21  35  65  95 122 152 203 269 317 370
#     4  11  17  36  56  86 123 153 204 236 316 375
#     4  10  23  34  61  88 134 172 186 258 331 395
#
# _framework density 19.365684999999999
#
# number of rings (size 3 to 8) (size 9 to 14) (size 15 to 20)
#    0.000    0.923    7.692    0.231    2.154    1.231 
#    0.000    0.385    0.000    0.000    0.000    0.000 
#    0.000    0.000    0.000    0.000    0.000    0.000 
#
# Total GULP energy -644376.074830 kJ/mol
# GULP energy per Si atom -12391.847593 kJ/mol
# Density = 1.932161 g / cm^3
# Si number density = 19.365685 Si / 1000 Ang^3
#
#
#
# Elastic Constant Matrix: (Units=GPa)
#
#
# Indices 1 2 3 4 5 6 
#
# 1 150.2805 67.7914 63.1905 0.0000 0.0000 0.0000
# 2 67.7914 86.6301 36.6217 0.0000 0.0000 0.0000
# 3 63.1905 36.6217 93.7864 0.0000 0.0000 0.0000
# 4 0.0000 0.0000 0.0000 29.8870 0.0000 0.0000
# 5 0.0000 0.0000 0.0000 0.0000 20.2344 0.0000
# 6 0.0000 0.0000 0.0000 0.0000 0.0000 35.0468
#
#
#
# Elastic Compliance Matrix: (Units=1/GPa)
#
#
# Indices 1 2 3 4 5 6 
#
# 1 0.012195 -0.007269 -0.005378 0.000000 0.000000 0.000000
# 2 -0.007269 0.018159 -0.002193 0.000000 0.000000 0.000000
# 3 -0.005378 -0.002193 0.015142 0.000000 0.000000 0.000000
# 4 0.000000 0.000000 0.000000 0.033459 0.000000 0.000000
# 5 0.000000 0.000000 0.000000 0.000000 0.049421 0.000000
# 6 0.000000 0.000000 0.000000 0.000000 0.000000 0.028533
#
#
# Mechanical properties :
#
#
# Convention : Reuss Voigt Hill
#
# Bulk Modulus (GPa) = 63.22830 73.98934 68.60882
# Shear Modulus (GPa) = 26.06047 27.90654 26.98350
#
# Velocity S-wave (km/s) = 3.67236 3.80021 3.73683
# Velocity P-wave (km/s) = 7.12055 7.58583 7.35687
#
# Compressibility (1/GPa) = 0.01581570
#
# Stress axis : x y z
#
# Youngs Moduli (GPa) = 82.00225 55.06935 66.04053
#
# Poissons Ratio (x) = 0.40032 0.35516
# Poissons Ratio (y) = 0.59611 0.14481
# Poissons Ratio (z) = 0.44100 0.12075
#
# Static dielectric constant tensor:
#      x y z
#    x 3.766540 0.000000 0.000000 
#    y 0.000000 3.642480 0.000000 
#    z 0.000000 0.000000 3.251410 
# 
# 
# High freq. dielectric constant tensor:
#      x y z
#    x 1.755470 0.000000 0.000000 
#    y 0.000000 1.755240 0.000000 
#    z 0.000000 0.000000 1.728970 
# 
# From -- ./inp_files/39666.got.cif
#   From: 2010.03.12/outbox.cif.g09.slc.cpg/sg68_20_cif.got.tgz:39666.got - 2010.04.10 23:14:56.
