data_PCOD8283281
_publ_section_title
;
Structure prediction by ZEFSAII (Michael W. Deem and Ramdas Pophale) SiO2 
 PCOD8283281
Probable space group: C C C A
;
_chemical_formula_sum "Si O2"
_cell_formula_units_Z 100
_cell_length_a 16.692858
_cell_length_b 13.792408
_cell_length_c 18.799720
_cell_angle_alpha 90.000000
_cell_angle_beta 90.000000
_cell_angle_gamma 90.000000
_cell_volume 4328.348049
_symmetry_space_group_name_H-M "C C C A"
_symmetry_group_IT_number 68
_space_group.IT_coordinate_system_code '2'
_symmetry_cell_setting 'orthorhombic'
loop_
_space_group_symop_operation_xyz
x,y,z
-x,1/2-y,z
x,1/2-y,1/2-z
-x,y,1/2-z
-x,-y,-z
x,1/2+y,-z
-x,1/2+y,1/2+z
x,-y,1/2+z
1/2+x,1/2+y,z
1/2-x,-y,z
1/2+x,-y,1/2-z
1/2-x,1/2+y,1/2-z
1/2-x,1/2-y,-z
1/2+x,y,-z
1/2-x,y,1/2+z
1/2+x,1/2-y,1/2+z
loop_
_atom_site_type_symbol
_atom_site_label
_atom_site_fract_x
_atom_site_fract_y
_atom_site_fract_z
Si Si1 0.250000 0.000000 0.135027
Si Si2 0.161459 0.034363 0.458237
Si Si3 0.500000 0.250000 0.750000
Si Si4 0.393045 0.889383 0.054190
Si Si5 0.165214 0.722550 0.469023
Si Si6 0.953937 0.412874 0.346528
Si Si7 0.653373 0.178225 0.310999
Si Si8 0.500000 0.083248 0.250000
O O1 0.189836 0.067216 0.087616
O O2 0.296130 0.078011 0.184496
O O3 0.157208 0.106999 0.525198
O O4 0.127208 0.090040 0.390628
O O5 0.250000 0.000000 0.438970
O O6 0.100128 0.948708 0.479883
O O7 0.556633 0.180322 0.703856
O O8 0.465317 0.902116 0.107788
O O9 0.393868 0.779542 0.023501
O O10 0.250000 0.750000 0.500000
O O11 0.153590 0.741131 0.384719
O O12 0.954199 0.513929 0.305176
O O13 0.688601 0.250000 0.250000
O O14 0.562373 0.151203 0.291229
#
# Coordination Sequence:
#
# PCOD8283281 Si02
#       8
#     8  16   4  16  16  16  16   8
#     4  12  22  52  78 104 148 200 244 316 390 438
#     4  12  23  43  72 108 143 178 242 316 374 440
#     4  10  24  52  62 100 150 196 242 308 350 452
#     4  12  22  46  77 105 142 186 253 319 370 437
#     4  12  23  44  76 106 146 192 251 322 384 452
#     4  11  25  45  74 102 141 200 254 301 379 451
#     4  12  27  49  73 112 156 204 246 314 396 472
#     4  11  25  51  69  98 162 202 242 314 392 482
#
# _framework density 23.103503
#
# number of rings (size 3 to 8) (size 9 to 14) (size 15 to 20)
#    0.000    0.320    7.200    1.680    2.240    0.000 
#    8.640    0.800    0.000    0.000    0.000    0.000 
#    0.000    0.000    0.000    0.000    0.000    0.000 
#
# Total GULP energy -619654.092196 kJ/mol
# GULP energy per Si atom -12393.081844 kJ/mol
# Density = 2.305092 g / cm^3
# Si number density = 23.103503 Si / 1000 Ang^3
#
#
#
# Elastic Constant Matrix: (Units=GPa)
#
#
# Indices 1 2 3 4 5 6 
#
# 1 89.5788 43.4979 63.5415 0.0000 0.0000 0.0000
# 2 43.4979 117.6510 52.7250 0.0000 0.0000 0.0000
# 3 63.5415 52.7250 152.1310 0.0000 0.0000 0.0000
# 4 0.0000 0.0000 0.0000 -230.2415 0.0000 0.0000
# 5 0.0000 0.0000 0.0000 0.0000 32.9202 0.0000
# 6 0.0000 0.0000 0.0000 0.0000 0.0000 25.6202
#
#
#
# Elastic Compliance Matrix: (Units=1/GPa)
#
#
# Indices 1 2 3 4 5 6 
#
# 1 0.017124 -0.003701 -0.005870 0.000000 0.000000 0.000000
# 2 -0.003701 0.010862 -0.002219 0.000000 0.000000 0.000000
# 3 -0.005870 -0.002219 0.009794 0.000000 0.000000 0.000000
# 4 0.000000 0.000000 0.000000 -0.004343 0.000000 0.000000
# 5 0.000000 0.000000 0.000000 0.000000 0.030376 0.000000
# 6 0.000000 0.000000 0.000000 0.000000 0.000000 0.039032
#
#
# Mechanical properties :
#
#
# Convention : Reuss Voigt Hill
#
# Bulk Modulus (GPa) = 70.41428 75.43219 72.92323
# Shear Modulus (GPa) = 38.12213 -21.03379 8.54417
#
# Velocity S-wave (km/s) = 4.06650 -3.02058 1.92516
# Velocity P-wave (km/s) = 7.25207 4.53380 6.04764
#
# Compressibility (1/GPa) = 0.01420167
#
# Stress axis : x y z
#
# Youngs Moduli (GPa) = 58.39797 92.06140 102.10361
#
# Poissons Ratio (x) = 0.34068 0.59932
# Poissons Ratio (y) = 0.21610 0.22657
# Poissons Ratio (z) = 0.34278 0.20428
#
# Static dielectric constant tensor:
#      x y z
#    x 3.904180 0.000000 0.000000 
#    y 0.000000 6.001050 0.000000 
#    z 0.000000 0.000000 4.327750 
# 
# 
# High freq. dielectric constant tensor:
#      x y z
#    x 1.893510 0.000000 0.000000 
#    y 0.000000 1.936160 0.000000 
#    z 0.000000 0.000000 1.920300 
# 
# From -- ./inp_files/39668.got.cif
#   From: 2010.03.12/outbox.cif.g09.slc.cpg/sg68_20_cif.got.tgz:39668.got - 2010.04.10 23:14:56.
