data_PCOD8283697
_publ_section_title
;
Structure prediction by ZEFSAII (Michael W. Deem and Ramdas Pophale) SiO2 
 PCOD8283697
Probable space group: C C C A
;
_chemical_formula_sum "Si O2"
_cell_formula_units_Z 56
_cell_length_a 9.225965
_cell_length_b 19.112134
_cell_length_c 13.479248
_cell_angle_alpha 90.000000
_cell_angle_beta 90.000000
_cell_angle_gamma 90.000000
_cell_volume 2376.767215
_symmetry_space_group_name_H-M "C C C A"
_symmetry_group_IT_number 68
_space_group.IT_coordinate_system_code '2'
_symmetry_cell_setting 'orthorhombic'
loop_
_space_group_symop_operation_xyz
x,y,z
-x,1/2-y,z
x,1/2-y,1/2-z
-x,y,1/2-z
-x,-y,-z
x,1/2+y,-z
-x,1/2+y,1/2+z
x,-y,1/2+z
1/2+x,1/2+y,z
1/2-x,-y,z
1/2+x,-y,1/2-z
1/2-x,1/2+y,1/2-z
1/2-x,1/2-y,-z
1/2+x,y,-z
1/2-x,y,1/2+z
1/2+x,1/2-y,1/2+z
loop_
_atom_site_type_symbol
_atom_site_label
_atom_site_fract_x
_atom_site_fract_y
_atom_site_fract_z
Si Si1 0.437990 0.124646 0.448998
Si Si2 0.500000 0.250000 0.922400
Si Si3 0.261389 0.178692 0.788643
Si Si4 0.254415 0.577289 0.384798
O O1 0.413880 0.198577 0.504615
O O2 0.352750 0.130216 0.345624
O O3 0.363913 0.068516 0.522184
O O4 0.601388 0.104319 0.426022
O O5 0.397155 0.201892 0.855011
O O6 0.184606 0.250000 0.750000
O O7 0.316504 0.132337 0.695602
O O8 0.250000 0.500000 0.336178
#
# Coordination Sequence:
#
# PCOD8283697 Si02
#       4
#    16   8  16  16
#     4  12  25  49  73 105 150 194 248 303 369 443
#     4  12  23  46  77 108 144 194 243 312 369 436
#     4  12  25  46  75 110 146 191 252 310 367 438
#     4  12  28  48  73 109 150 198 245 302 375 447
#
# _framework density 23.561416000000001
#
# number of rings (size 3 to 8) (size 9 to 14) (size 15 to 20)
#    0.000    0.000    5.714    4.714    0.000    2.286 
#   10.286    0.000    0.000    0.000    0.000    0.000 
#    0.000    0.000    0.000    0.000    0.000    0.000 
#
# Total GULP energy -347267.311219 kJ/mol
# GULP energy per Si atom -12402.403972 kJ/mol
# Density = 2.350779 g / cm^3
# Si number density = 23.561416 Si / 1000 Ang^3
#
#
#
# Elastic Constant Matrix: (Units=GPa)
#
#
# Indices 1 2 3 4 5 6 
#
# 1 95.6893 3.6255 27.3291 0.0000 0.0000 0.0000
# 2 3.6255 123.9427 32.4370 0.0000 0.0000 0.0000
# 3 27.3291 32.4370 108.8254 0.0000 0.0000 0.0000
# 4 0.0000 0.0000 0.0000 34.9754 0.0000 0.0000
# 5 0.0000 0.0000 0.0000 0.0000 16.9106 0.0000
# 6 0.0000 0.0000 0.0000 0.0000 0.0000 21.8236
#
#
#
# Elastic Compliance Matrix: (Units=1/GPa)
#
#
# Indices 1 2 3 4 5 6 
#
# 1 0.011281 0.000446 -0.002966 0.000000 0.000000 0.000000
# 2 0.000446 0.008769 -0.002726 0.000000 0.000000 0.000000
# 3 -0.002966 -0.002726 0.010746 0.000000 0.000000 0.000000
# 4 0.000000 0.000000 0.000000 0.028592 0.000000 0.000000
# 5 0.000000 0.000000 0.000000 0.000000 0.059135 0.000000
# 6 0.000000 0.000000 0.000000 0.000000 0.000000 0.045822
#
#
# Mechanical properties :
#
#
# Convention : Reuss Voigt Hill
#
# Bulk Modulus (GPa) = 49.24939 50.58228 49.91583
# Shear Modulus (GPa) = 27.53266 32.41297 29.97282
#
# Velocity S-wave (km/s) = 3.42211 3.71304 3.57054
# Velocity P-wave (km/s) = 6.04669 6.31641 6.18302
#
# Compressibility (1/GPa) = 0.02030482
#
# Stress axis : x y z
#
# Youngs Moduli (GPa) = 88.64736 114.04439 93.05552
#
# Poissons Ratio (x) = -0.05089 0.27599
# Poissons Ratio (y) = -0.03956 0.25364
# Poissons Ratio (z) = 0.26292 0.31084
#
# Static dielectric constant tensor:
#      x y z
#    x 4.004610 0.000000 0.000000 
#    y 0.000000 4.205430 0.000000 
#    z 0.000000 0.000000 4.581880 
# 
# 
# High freq. dielectric constant tensor:
#      x y z
#    x 1.929280 0.000000 0.000000 
#    y 0.000000 1.928020 0.000000 
#    z 0.000000 0.000000 1.952100 
# 
# From -- ./inp_files/11405.got.cif
#   From: 2010.03.12/outbox.cif.g09.slc.cpg/sg68_6_cif.got.tgz:11405.got - 2010.04.10 23:14:56.
