data_PCOD8283020
_publ_section_title
;
Structure prediction by ZEFSAII (Michael W. Deem and Ramdas Pophale) SiO2 
 PCOD8283020
Probable space group: C C C A
;
_chemical_formula_sum "Si O2"
_cell_formula_units_Z 80
_cell_length_a 24.906445
_cell_length_b 13.771004
_cell_length_c 11.501343
_cell_angle_alpha 90.000000
_cell_angle_beta 90.000000
_cell_angle_gamma 90.000000
_cell_volume 3944.808299
_symmetry_space_group_name_H-M "C C C A"
_symmetry_group_IT_number 68
_space_group.IT_coordinate_system_code '2'
_symmetry_cell_setting 'orthorhombic'
loop_
_space_group_symop_operation_xyz
x,y,z
-x,1/2-y,z
x,1/2-y,1/2-z
-x,y,1/2-z
-x,-y,-z
x,1/2+y,-z
-x,1/2+y,1/2+z
x,-y,1/2+z
1/2+x,1/2+y,z
1/2-x,-y,z
1/2+x,-y,1/2-z
1/2-x,1/2+y,1/2-z
1/2-x,1/2-y,-z
1/2+x,y,-z
1/2-x,y,1/2+z
1/2+x,1/2-y,1/2+z
loop_
_atom_site_type_symbol
_atom_site_label
_atom_site_fract_x
_atom_site_fract_y
_atom_site_fract_z
Si Si1 0.439080 0.259101 0.112983
Si Si2 0.812729 0.714251 0.635180
Si Si3 0.217385 0.403342 0.767859
Si Si4 0.142096 0.088734 0.942522
Si Si5 0.648951 0.120279 0.483945
O O1 0.500000 0.250000 0.069619
O O2 0.434284 0.250000 0.250000
O O3 0.416127 0.365053 0.081257
O O4 0.405546 0.176757 0.045926
O O5 0.846456 0.750000 0.750000
O O6 0.755142 0.683098 0.687127
O O7 0.839256 0.623196 0.570528
O O8 0.809216 0.807833 0.549488
O O9 0.250000 0.500000 0.738043
O O10 0.185443 0.371890 0.651410
O O11 0.174600 0.423767 0.868291
O O12 0.136142 0.972553 0.935167
#
# Coordination Sequence:
#
# PCOD8283020 Si02
#       5
#    16  16  16  16  16
#     4  10  22  44  71  94 122 165 223 282 335 382
#     4  11  26  37  60  91 133 173 217 248 318 381
#     4  12  24  38  59  92 133 179 212 251 311 390
#     4  11  25  43  62  95 133 169 220 269 319 394
#     4  11  24  42  63  94 129 173 212 273 319 386
#
# _framework density 20.279819
#
# number of rings (size 3 to 8) (size 9 to 14) (size 15 to 20)
#    0.000    1.000    4.000    1.800   11.200    0.800 
#    0.000    0.000    0.000    9.600    0.000    0.000 
#    0.000    0.000    0.000    0.000    0.000    0.000 
#
# Total GULP energy -495895.040197 kJ/mol
# GULP energy per Si atom -12397.376005 kJ/mol
# Density = 2.023366 g / cm^3
# Si number density = 20.279819 Si / 1000 Ang^3
#
#
#
# Elastic Constant Matrix: (Units=GPa)
#
#
# Indices 1 2 3 4 5 6 
#
# 1 132.0130 62.5246 44.9868 0.0000 0.0000 0.0000
# 2 62.5246 142.4869 33.4730 0.0000 0.0000 0.0000
# 3 44.9868 33.4730 106.6741 0.0000 0.0000 0.0000
# 4 0.0000 0.0000 0.0000 31.7480 0.0000 0.0000
# 5 0.0000 0.0000 0.0000 0.0000 19.7065 0.0000
# 6 0.0000 0.0000 0.0000 0.0000 0.0000 26.0377
#
#
#
# Elastic Compliance Matrix: (Units=1/GPa)
#
#
# Indices 1 2 3 4 5 6 
#
# 1 0.010495 -0.003849 -0.003218 0.000000 0.000000 0.000000
# 2 -0.003849 0.008988 -0.001197 0.000000 0.000000 0.000000
# 3 -0.003218 -0.001197 0.011107 0.000000 0.000000 0.000000
# 4 0.000000 0.000000 0.000000 0.031498 0.000000 0.000000
# 5 0.000000 0.000000 0.000000 0.000000 0.050745 0.000000
# 6 0.000000 0.000000 0.000000 0.000000 0.000000 0.038406
#
#
# Mechanical properties :
#
#
# Convention : Reuss Voigt Hill
#
# Bulk Modulus (GPa) = 71.11607 73.68252 72.39929
# Shear Modulus (GPa) = 28.99309 31.51109 30.25209
#
# Velocity S-wave (km/s) = 3.78518 3.94612 3.86649
# Velocity P-wave (km/s) = 7.36525 7.56137 7.46396
#
# Compressibility (1/GPa) = 0.01406152
#
# Stress axis : x y z
#
# Youngs Moduli (GPa) = 95.28615 111.25329 90.03234
#
# Poissons Ratio (x) = 0.42824 0.28973
# Poissons Ratio (y) = 0.36678 0.10779
# Poissons Ratio (z) = 0.30663 0.13319
#
# Static dielectric constant tensor:
#      x y z
#    x 3.499880 0.000000 0.000000 
#    y 0.000000 3.698230 0.000000 
#    z 0.000000 0.000000 4.016310 
# 
# 
# High freq. dielectric constant tensor:
#      x y z
#    x 1.753580 0.000000 0.000000 
#    y 0.000000 1.808700 0.000000 
#    z 0.000000 0.000000 1.806890 
# 
# From -- ./inp_files/16208.got.cif
#   From: 2010.03.12/outbox.cif.g09.slc.cpg/sg68_9_cif.got.tgz:16208.got - 2010.04.10 23:14:56.
