data_PCOD8283883
_publ_section_title
;
Structure prediction by ZEFSAII (Michael W. Deem and Ramdas Pophale) SiO2 
 PCOD8283883
Probable space group: F M M M
;
_chemical_formula_sum "Si O2"
_cell_formula_units_Z 144
_cell_length_a 28.209790
_cell_length_b 35.645514
_cell_length_c 9.771381
_cell_angle_alpha 90.000000
_cell_angle_beta 90.000000
_cell_angle_gamma 90.000000
_cell_volume 9825.636245
_symmetry_space_group_name_H-M "F M M M"
_symmetry_group_IT_number 69
_symmetry_cell_setting 'orthorhombic'
loop_
_space_group_symop_operation_xyz
x,y,z
-x,-y,z
x,-y,-z
-x,y,-z
-x,-y,-z
x,y,-z
-x,y,z
x,-y,z
x,1/2+y,1/2+z
-x,1/2-y,1/2+z
x,1/2-y,1/2-z
-x,1/2+y,1/2-z
-x,1/2-y,1/2-z
x,1/2+y,1/2-z
-x,1/2+y,1/2+z
x,1/2-y,1/2+z
1/2+x,y,1/2+z
1/2-x,-y,1/2+z
1/2+x,-y,1/2-z
1/2-x,y,1/2-z
1/2-x,-y,1/2-z
1/2+x,y,1/2-z
1/2-x,y,1/2+z
1/2+x,-y,1/2+z
1/2+x,1/2+y,z
1/2-x,1/2-y,z
1/2+x,1/2-y,-z
1/2-x,1/2+y,-z
1/2-x,1/2-y,-z
1/2+x,1/2+y,-z
1/2-x,1/2+y,z
1/2+x,1/2-y,z
loop_
_atom_site_type_symbol
_atom_site_label
_atom_site_fract_x
_atom_site_fract_y
_atom_site_fract_z
Si Si1 0.105919 0.426082 0.340106
Si Si2 0.056073 0.781296 0.349497
Si Si3 0.946724 0.000000 0.837462
Si Si4 0.707295 0.456885 0.156174
Si Si5 0.445232 0.134076 0.839616
O O1 0.094475 0.419221 0.500000
O O2 0.079353 0.462939 0.283467
O O3 0.161795 0.431152 0.315776
O O4 0.088728 0.391141 0.252077
O O5 0.077878 0.774712 0.500000
O O6 0.078788 0.750000 0.250000
O O7 0.067784 0.823249 0.298997
O O8 0.000000 0.776327 0.357108
O O9 0.000000 0.000000 0.780071
O O10 0.945174 0.000000 0.000000
O O11 0.694142 0.500000 0.190276
O O12 0.750000 0.442176 0.250000
O O13 0.723978 0.453204 0.000000
O O14 0.500000 0.125355 0.804661
O O15 0.435723 0.127012 0.000000
#
# Coordination Sequence:
#
# PCOD8283883 Si02
#       5
#    32  32  16  32  32
#     4  10  18  29  44  62  82 108 145 182 211 247
#     4   8  14  25  40  57  79 108 140 173 207 242
#     4   9  16  26  40  57  79 109 143 177 208 235
#     4   9  17  30  46  63  82 103 134 178 223 261
#     4   9  18  30  41  58  88 119 143 173 212 249
#
# _framework density 14.65554
#
# number of rings (size 3 to 8) (size 9 to 14) (size 15 to 20)
#    0.000    3.000    1.111    2.000    0.000    3.111 
#    0.000    2.778    0.000    2.000    0.000    0.000 
#    0.000    0.889    0.000    9.778    0.000    7.556 
#
# Total GULP energy -446285.815807 kJ/mol
# GULP energy per Si atom -12396.828217 kJ/mol
# Density = 1.462218 g / cm^3
# Si number density = 14.655540 Si / 1000 Ang^3
#
#
#
# Elastic Constant Matrix: (Units=GPa)
#
#
# Indices 1 2 3 4 5 6 
#
# 1 72.1434 43.4402 46.2153 0.0027 -0.0021 -0.0012
# 2 43.4402 104.8504 59.6843 0.0056 -0.0042 -0.0020
# 3 46.2153 59.6843 70.4747 0.0077 -0.0035 0.0010
# 4 0.0027 0.0056 0.0077 27.2610 -0.0027 0.0001
# 5 -0.0021 -0.0042 -0.0035 -0.0027 22.4950 0.0002
# 6 -0.0012 -0.0020 0.0010 0.0001 0.0002 6.9748
#
#
#
# Elastic Compliance Matrix: (Units=1/GPa)
#
#
# Indices 1 2 3 4 5 6 
#
# 1 0.024099 -0.001909 -0.014187 0.000002 0.000000 0.000006
# 2 -0.001909 0.018566 -0.014472 0.000001 0.000001 0.000007
# 3 -0.014187 -0.014472 0.035749 -0.000006 0.000001 -0.000012
# 4 0.000002 0.000001 -0.000006 0.036682 0.000004 -0.000001
# 5 0.000000 0.000001 0.000001 0.000004 0.044454 -0.000001
# 6 0.000006 0.000007 -0.000012 -0.000001 -0.000001 0.143372
#
#
# Mechanical properties :
#
#
# Convention : Reuss Voigt Hill
#
# Bulk Modulus (GPa) = 57.87348 60.68310 59.27829
# Shear Modulus (GPa) = 13.52023 17.88809 15.70416
#
# Velocity S-wave (km/s) = 3.04062 3.49745 3.27701
# Velocity P-wave (km/s) = 7.20431 7.60301 7.40634
#
# Compressibility (1/GPa) = 0.01727907
#
# Stress axis : x y z
#
# Youngs Moduli (GPa) = 41.49610 53.86227 27.97305
#
# Poissons Ratio (x) = 0.10280 0.39685
# Poissons Ratio (y) = 0.07920 0.40482
# Poissons Ratio (z) = 0.58870 0.77947
#
# Static dielectric constant tensor:
#      x y z
#    x 2.618380 0.000000 0.000000 
#    y 0.000000 2.824260 -0.000010 
#    z 0.000000 -0.000010 2.899530 
# 
# 
# High freq. dielectric constant tensor:
#      x y z
#    x 1.527830 0.000000 0.000000 
#    y 0.000000 1.551770 0.000000 
#    z 0.000000 0.000000 1.555350 
# 
# From -- ./inp_files/10362.got.cif
#   From: 2010.03.12/outbox.cif.g09.slc.cpg/sg69_6_cif.got.tgz:10362.got - 2010.04.10 23:52:46.
