data_PCOD8283159
_publ_section_title
;
Structure prediction by ZEFSAII (Michael W. Deem and Ramdas Pophale) SiO2 
 PCOD8283159
Probable space group: C C C A
;
_chemical_formula_sum "Si O2"
_cell_formula_units_Z 44
_cell_length_a 5.175549
_cell_length_b 13.014467
_cell_length_c 24.937092
_cell_angle_alpha 90.000000
_cell_angle_beta 90.000000
_cell_angle_gamma 90.000000
_cell_volume 1679.687997
_symmetry_space_group_name_H-M "C C C A"
_symmetry_group_IT_number 68
_space_group.IT_coordinate_system_code '2'
_symmetry_cell_setting 'orthorhombic'
loop_
_space_group_symop_operation_xyz
x,y,z
-x,1/2-y,z
x,1/2-y,1/2-z
-x,y,1/2-z
-x,-y,-z
x,1/2+y,-z
-x,1/2+y,1/2+z
x,-y,1/2+z
1/2+x,1/2+y,z
1/2-x,-y,z
1/2+x,-y,1/2-z
1/2-x,1/2+y,1/2-z
1/2-x,1/2-y,-z
1/2+x,y,-z
1/2-x,y,1/2+z
1/2+x,1/2-y,1/2+z
loop_
_atom_site_type_symbol
_atom_site_label
_atom_site_fract_x
_atom_site_fract_y
_atom_site_fract_z
Si Si1 0.622852 0.901454 0.304836
Si Si2 0.000000 0.250000 0.750000
Si Si3 0.219086 0.116621 0.534509
Si Si4 0.500000 0.750000 0.384392
O O1 0.500000 0.943245 0.250000
O O2 0.831186 0.815890 0.290670
O O3 0.418064 0.846795 0.345636
O O4 0.750000 0.000000 0.333747
O O5 0.430974 0.134562 0.487604
O O6 0.266987 0.202940 0.580152
O O7 0.250000 0.000000 0.556473
#
# Coordination Sequence:
#
# PCOD8283159 Si02
#       4
#    16   4  16   8
#     4  12  25  44  66  99 138 182 236 291 355 426
#     4  12  22  44  70  88 136 190 222 292 356 412
#     4  10  23  45  69 102 145 184 233 299 365 430
#     4  12  23  42  69 104 130 187 245 290 360 434
#
# _framework density 26.195340000000002
#
# number of rings (size 3 to 8) (size 9 to 14) (size 15 to 20)
#    0.000    0.727    5.455    2.182    0.000    2.909 
#    0.000    5.455    0.000    0.000    0.000    0.000 
#    0.000    0.000    0.000    0.000    0.000    0.000 
#
# Total GULP energy -272555.176734 kJ/mol
# GULP energy per Si atom -12388.871670 kJ/mol
# Density = 2.613572 g / cm^3
# Si number density = 26.195340 Si / 1000 Ang^3
#
#
#
# Elastic Constant Matrix: (Units=GPa)
#
#
# Indices 1 2 3 4 5 6 
#
# 1 86.4176 33.8554 14.2031 0.0000 0.0000 0.0000
# 2 33.8554 196.8961 68.4910 0.0000 0.0000 0.0000
# 3 14.2031 68.4910 119.5036 0.0000 0.0000 0.0000
# 4 0.0000 0.0000 0.0000 -62.9742 0.0000 0.0000
# 5 0.0000 0.0000 0.0000 0.0000 44.7886 0.0000
# 6 0.0000 0.0000 0.0000 0.0000 0.0000 53.7733
#
#
#
# Elastic Compliance Matrix: (Units=1/GPa)
#
#
# Indices 1 2 3 4 5 6 
#
# 1 0.012417 -0.002026 -0.000315 0.000000 0.000000 0.000000
# 2 -0.002026 0.006674 -0.003584 0.000000 0.000000 0.000000
# 3 -0.000315 -0.003584 0.010460 0.000000 0.000000 0.000000
# 4 0.000000 0.000000 0.000000 -0.015880 0.000000 0.000000
# 5 0.000000 0.000000 0.000000 0.000000 0.022327 0.000000
# 6 0.000000 0.000000 0.000000 0.000000 0.000000 0.018597
#
#
# Mechanical properties :
#
#
# Convention : Reuss Voigt Hill
#
# Bulk Modulus (GPa) = 56.49343 70.65737 63.57540
# Shear Modulus (GPa) = 69.11377 26.20204 47.65791
#
# Velocity S-wave (km/s) = 5.14211 3.16611 4.26999
# Velocity P-wave (km/s) = 7.54109 6.35590 6.97372
#
# Compressibility (1/GPa) = 0.01770117
#
# Stress axis : x y z
#
# Youngs Moduli (GPa) = 80.53479 149.83737 95.60569
#
# Poissons Ratio (x) = 0.30350 0.03010
# Poissons Ratio (y) = 0.16312 0.34268
# Poissons Ratio (z) = 0.02536 0.53706
#
# Static dielectric constant tensor:
#      x y z
#    x 4.383240 0.000000 0.000000 
#    y 0.000000 5.186190 0.000000 
#    z 0.000000 0.000000 4.970180 
# 
# 
# High freq. dielectric constant tensor:
#      x y z
#    x 2.014460 0.000000 0.000000 
#    y 0.000000 2.082250 0.000000 
#    z 0.000000 0.000000 2.048280 
# 
# From -- ./inp_files/47787.got.cif
#   From: 2010.03.12/outbox.cif.g09.slc.cpg/sg68_24_cif.got.tgz:47787.got - 2010.04.10 23:14:56.
