data_PCOD8283962
_publ_section_title
;
Structure prediction by ZEFSAII (Michael W. Deem and Ramdas Pophale) SiO2 
 PCOD8283962
Probable space group: F M M M
;
_chemical_formula_sum "Si O2"
_cell_formula_units_Z 160
_cell_length_a 17.140148
_cell_length_b 22.893535
_cell_length_c 20.625663
_cell_angle_alpha 90.000000
_cell_angle_beta 90.000000
_cell_angle_gamma 90.000000
_cell_volume 8093.480834
_symmetry_space_group_name_H-M "F M M M"
_symmetry_group_IT_number 69
_symmetry_cell_setting 'orthorhombic'
loop_
_space_group_symop_operation_xyz
x,y,z
-x,-y,z
x,-y,-z
-x,y,-z
-x,-y,-z
x,y,-z
-x,y,z
x,-y,z
x,1/2+y,1/2+z
-x,1/2-y,1/2+z
x,1/2-y,1/2-z
-x,1/2+y,1/2-z
-x,1/2-y,1/2-z
x,1/2+y,1/2-z
-x,1/2+y,1/2+z
x,1/2-y,1/2+z
1/2+x,y,1/2+z
1/2-x,-y,1/2+z
1/2+x,-y,1/2-z
1/2-x,y,1/2-z
1/2-x,-y,1/2-z
1/2+x,y,1/2-z
1/2-x,y,1/2+z
1/2+x,-y,1/2+z
1/2+x,1/2+y,z
1/2-x,1/2-y,z
1/2+x,1/2-y,-z
1/2-x,1/2+y,-z
1/2-x,1/2-y,-z
1/2+x,1/2+y,-z
1/2-x,1/2+y,z
1/2+x,1/2-y,z
loop_
_atom_site_type_symbol
_atom_site_label
_atom_site_fract_x
_atom_site_fract_y
_atom_site_fract_z
Si Si1 0.143546 0.500000 0.573975
Si Si2 0.352306 0.120045 0.374112
Si Si3 0.827280 0.122510 0.621701
Si Si4 0.910339 0.317303 0.500000
Si Si5 0.156474 0.183824 0.251634
Si Si6 0.330461 0.500000 0.427129
Si Si7 0.174852 0.292905 0.000000
O O1 0.111963 0.500000 0.500000
O O2 0.110159 0.556482 0.611965
O O3 0.236879 0.500000 0.572264
O O4 0.261757 0.111290 0.360555
O O5 0.366393 0.159663 0.436647
O O6 0.384551 0.150529 0.308973
O O7 0.871646 0.151553 0.682691
O O8 0.864106 0.058713 0.606786
O O9 0.829739 0.166373 0.562022
O O10 0.902114 0.247421 0.500000
O O11 0.000000 0.336429 0.500000
O O12 0.124896 0.250000 0.250000
O O13 0.250000 0.184461 0.250000
O O14 0.362207 0.500000 0.500000
O O15 0.250000 0.250000 0.000000
#
# Coordination Sequence:
#
# PCOD8283962 Si02
#       7
#    16  32  32  16  32  16  16
#     4   9  16  27  49  71  99 143 183 222 265 322
#     4  10  18  33  49  72 108 141 182 226 274 318
#     4  10  18  30  52  80 104 143 177 227 277 325
#     4  12  24  35  52  79 112 146 185 230 272 323
#     4   9  18  28  45  73 107 138 180 224 268 325
#     4   9  16  27  43  77 115 131 168 222 280 322
#     4  12  20  31  57  79 103 141 191 227 274 322
#
# _framework density 19.768998
#
# number of rings (size 3 to 8) (size 9 to 14) (size 15 to 20)
#    0.000    2.000    4.000    1.200    2.800    0.800 
#    0.000    5.000    0.000    5.400    0.000    1.400 
#    0.000    0.000    0.000    0.000    0.000    0.000 
#
# Total GULP energy -495751.686026 kJ/mol
# GULP energy per Si atom -12393.792151 kJ/mol
# Density = 1.972400 g / cm^3
# Si number density = 19.768998 Si / 1000 Ang^3
#
#
#
# Elastic Constant Matrix: (Units=GPa)
#
#
# Indices 1 2 3 4 5 6 
#
# 1 11.5571 2.8711 0.9993 0.0000 0.0000 0.0000
# 2 2.8711 214.4527 111.0753 0.0000 0.0000 0.0000
# 3 0.9993 111.0753 197.4376 0.0000 0.0000 0.0000
# 4 0.0000 0.0000 0.0000 30.9610 0.0000 0.0000
# 5 0.0000 0.0000 0.0000 0.0000 -1.6600 0.0000
# 6 0.0000 0.0000 0.0000 0.0000 0.0000 4.3230
#
#
#
# Elastic Compliance Matrix: (Units=1/GPa)
#
#
# Indices 1 2 3 4 5 6 
#
# 1 0.086828 -0.001319 0.000303 0.000000 0.000000 0.000000
# 2 -0.001319 0.006601 -0.003707 0.000000 0.000000 0.000000
# 3 0.000303 -0.003707 0.007149 0.000000 0.000000 0.000000
# 4 0.000000 0.000000 0.000000 0.032299 0.000000 0.000000
# 5 0.000000 0.000000 0.000000 0.000000 -0.602411 0.000000
# 6 0.000000 0.000000 0.000000 0.000000 0.000000 0.231320
#
#
# Mechanical properties :
#
#
# Convention : Reuss Voigt Hill
#
# Bulk Modulus (GPa) = 10.97322 72.59321 41.78322
# Shear Modulus (GPa) = -25.20263 27.29160 1.04448
#
# Velocity S-wave (km/s) = -3.57439 3.71957 0.72766
# Velocity P-wave (km/s) = 3.38707 7.43286 4.67842
#
# Compressibility (1/GPa) = 0.09113093
#
# Stress axis : x y z
#
# Youngs Moduli (GPa) = 11.51701 151.50202 139.88574
#
# Poissons Ratio (x) = 0.19987 -0.04235
# Poissons Ratio (y) = 0.01519 0.51851
# Poissons Ratio (z) = -0.00349 0.56157
#
# Static dielectric constant tensor:
#      x y z
#    x 2.819830 0.000000 0.000000 
#    y 0.000000 4.088530 0.000000 
#    z 0.000000 0.000000 3.891510 
# 
# 
# High freq. dielectric constant tensor:
#      x y z
#    x 1.684470 0.000000 0.000000 
#    y 0.000000 1.794100 0.000000 
#    z 0.000000 0.000000 1.779550 
# 
# From -- ./inp_files/30863.got.cif
#   From: 2010.03.12/outbox.cif.g09.slc.cpg/sg69_16_cif.got.tgz:30863.got - 2010.04.10 23:52:46.
