data_PCOD8283460
_publ_section_title
;
Structure prediction by ZEFSAII (Michael W. Deem and Ramdas Pophale) SiO2 
 PCOD8283460
Probable space group: C C C A
;
_chemical_formula_sum "Si O2"
_cell_formula_units_Z 56
_cell_length_a 13.017066
_cell_length_b 11.536187
_cell_length_c 14.636863
_cell_angle_alpha 90.000000
_cell_angle_beta 90.000000
_cell_angle_gamma 90.000000
_cell_volume 2197.978308
_symmetry_space_group_name_H-M "C C C A"
_symmetry_group_IT_number 68
_space_group.IT_coordinate_system_code '2'
_symmetry_cell_setting 'orthorhombic'
loop_
_space_group_symop_operation_xyz
x,y,z
-x,1/2-y,z
x,1/2-y,1/2-z
-x,y,1/2-z
-x,-y,-z
x,1/2+y,-z
-x,1/2+y,1/2+z
x,-y,1/2+z
1/2+x,1/2+y,z
1/2-x,-y,z
1/2+x,-y,1/2-z
1/2-x,1/2+y,1/2-z
1/2-x,1/2-y,-z
1/2+x,y,-z
1/2-x,y,1/2+z
1/2+x,1/2-y,1/2+z
loop_
_atom_site_type_symbol
_atom_site_label
_atom_site_fract_x
_atom_site_fract_y
_atom_site_fract_z
Si Si1 0.935317 0.649720 0.587186
Si Si2 0.733393 0.740493 0.853683
Si Si3 0.750000 0.500000 0.441076
Si Si4 0.074933 0.094175 0.573181
O O1 0.817192 0.693982 0.581420
O O2 0.951099 0.522434 0.633476
O O3 0.000000 0.750000 0.640238
O O4 0.977549 0.643347 0.482178
O O5 0.772133 0.750000 0.750000
O O6 0.717304 0.606784 0.876779
O O7 0.624884 0.807360 0.863968
O O8 0.846160 0.460467 0.500239
#
# Coordination Sequence:
#
# PCOD8283460 Si02
#       4
#    16  16   8  16
#     4  11  22  42  74 104 140 191 250 304 363 456
#     4  12  27  45  71 112 155 190 245 324 388 431
#     4  12  22  42  74 100 138 210 246 294 376 452
#     4  11  23  44  74 104 144 193 257 305 364 467
#
# _framework density 25.477958000000001
#
# number of rings (size 3 to 8) (size 9 to 14) (size 15 to 20)
#    0.000    0.571    5.714    2.571    4.000    0.571 
#    0.000    0.000    0.000   11.143    0.000    0.000 
#    0.000    0.000    0.000    0.000    0.000    0.000 
#
# Total GULP energy -346980.898763 kJ/mol
# GULP energy per Si atom -12392.174956 kJ/mol
# Density = 2.541997 g / cm^3
# Si number density = 25.477958 Si / 1000 Ang^3
#
#
#
# Elastic Constant Matrix: (Units=GPa)
#
#
# Indices 1 2 3 4 5 6 
#
# 1 80.0656 20.4459 33.5274 0.0000 0.0000 0.0000
# 2 20.4459 226.6109 46.0119 0.0000 0.0000 0.0000
# 3 33.5274 46.0119 63.9927 0.0000 0.0000 0.0000
# 4 0.0000 0.0000 0.0000 19.0117 0.0000 0.0000
# 5 0.0000 0.0000 0.0000 0.0000 17.2970 0.0000
# 6 0.0000 0.0000 0.0000 0.0000 0.0000 49.3601
#
#
#
# Elastic Compliance Matrix: (Units=1/GPa)
#
#
# Indices 1 2 3 4 5 6 
#
# 1 0.016018 0.000303 -0.008610 0.000000 0.000000 0.000000
# 2 0.000303 0.005173 -0.003878 0.000000 0.000000 0.000000
# 3 -0.008610 -0.003878 0.022926 0.000000 0.000000 0.000000
# 4 0.000000 0.000000 0.000000 0.052599 0.000000 0.000000
# 5 0.000000 0.000000 0.000000 0.000000 0.057814 0.000000
# 6 0.000000 0.000000 0.000000 0.000000 0.000000 0.020259
#
#
# Mechanical properties :
#
#
# Convention : Reuss Voigt Hill
#
# Bulk Modulus (GPa) = 50.64149 63.40439 57.02294
# Shear Modulus (GPa) = 24.30230 35.17933 29.74082
#
# Velocity S-wave (km/s) = 3.09181 3.71991 3.42031
# Velocity P-wave (km/s) = 5.71537 6.58713 6.16667
#
# Compressibility (1/GPa) = 0.01974666
#
# Stress axis : x y z
#
# Youngs Moduli (GPa) = 62.43049 193.31302 43.61806
#
# Poissons Ratio (x) = -0.05857 0.37555
# Poissons Ratio (y) = -0.01892 0.16916
# Poissons Ratio (z) = 0.53753 0.74971
#
# Static dielectric constant tensor:
#      x y z
#    x 4.817540 0.000000 0.000000 
#    y 0.000000 6.082940 0.000000 
#    z 0.000000 0.000000 3.737690 
# 
# 
# High freq. dielectric constant tensor:
#      x y z
#    x 2.028300 0.000000 0.000000 
#    y 0.000000 2.072120 0.000000 
#    z 0.000000 0.000000 1.937460 
# 
# From -- ./inp_files/21603.got.cif
#   From: 2010.03.12/outbox.cif.g09.slc.cpg/sg68_11_cif.got.tgz:21603.got - 2010.04.10 23:14:56.
