data_PCOD8283953
_publ_section_title
;
Structure prediction by ZEFSAII (Michael W. Deem and Ramdas Pophale) SiO2 
 PCOD8283953
Probable space group: F M M M
;
_chemical_formula_sum "Si O2"
_cell_formula_units_Z 192
_cell_length_a 19.720190
_cell_length_b 19.100332
_cell_length_c 30.450187
_cell_angle_alpha 90.000000
_cell_angle_beta 90.000000
_cell_angle_gamma 90.000000
_cell_volume 11469.433698
_symmetry_space_group_name_H-M "F M M M"
_symmetry_group_IT_number 69
_symmetry_cell_setting 'orthorhombic'
loop_
_space_group_symop_operation_xyz
x,y,z
-x,-y,z
x,-y,-z
-x,y,-z
-x,-y,-z
x,y,-z
-x,y,z
x,-y,z
x,1/2+y,1/2+z
-x,1/2-y,1/2+z
x,1/2-y,1/2-z
-x,1/2+y,1/2-z
-x,1/2-y,1/2-z
x,1/2+y,1/2-z
-x,1/2+y,1/2+z
x,1/2-y,1/2+z
1/2+x,y,1/2+z
1/2-x,-y,1/2+z
1/2+x,-y,1/2-z
1/2-x,y,1/2-z
1/2-x,-y,1/2-z
1/2+x,y,1/2-z
1/2-x,y,1/2+z
1/2+x,-y,1/2+z
1/2+x,1/2+y,z
1/2-x,1/2-y,z
1/2+x,1/2-y,-z
1/2-x,1/2+y,-z
1/2-x,1/2-y,-z
1/2+x,1/2+y,-z
1/2-x,1/2+y,z
1/2+x,1/2-y,z
loop_
_atom_site_type_symbol
_atom_site_label
_atom_site_fract_x
_atom_site_fract_y
_atom_site_fract_z
Si Si1 0.758393 0.636872 0.451378
Si Si2 0.774803 0.577516 0.200675
Si Si3 0.324865 0.224645 0.799101
Si Si4 0.331899 0.577904 0.873203
Si Si5 0.577760 0.791459 0.630539
Si Si6 0.640101 0.765804 0.951334
O O1 0.763732 0.602788 0.500000
O O2 0.780479 0.581718 0.414577
O O3 0.681165 0.662153 0.442650
O O4 0.806864 0.703272 0.448194
O O5 0.805122 0.500000 0.188913
O O6 0.750000 0.578123 0.250000
O O7 0.829408 0.639962 0.196051
O O8 0.709981 0.594739 0.170648
O O9 0.340806 0.250000 0.750000
O O10 0.250000 0.250000 0.813663
O O11 0.381132 0.255442 0.830667
O O12 0.362551 0.500000 0.871545
O O13 0.394767 0.630366 0.877622
O O14 0.500000 0.796007 0.644705
O O15 0.583578 0.745371 0.586015
O O16 0.606373 0.767531 0.000000
#
# Coordination Sequence:
#
# PCOD8283953 Si02
#       6
#    32  32  32  32  32  32
#     4   8  14  26  46  70  90 117 158 207 252 289
#     4  10  18  30  51  78 100 122 159 205 252 298
#     4  11  19  34  55  76  99 131 168 210 253 301
#     4  10  19  30  45  67  99 134 164 202 250 301
#     4  11  22  32  48  72 100 136 173 209 247 296
#     4   8  15  28  47  68  92 121 159 207 254 293
#
# _framework density 16.740147
#
# number of rings (size 3 to 8) (size 9 to 14) (size 15 to 20)
#    0.000    2.333    3.333    2.000    2.333    1.333 
#    0.000    0.000    0.000    0.500    0.000    4.667 
#    0.000    0.000    0.000   14.333    0.000    1.333 
#
# Total GULP energy -594920.279688 kJ/mol
# GULP energy per Si atom -12394.172494 kJ/mol
# Density = 1.670205 g / cm^3
# Si number density = 16.740147 Si / 1000 Ang^3
#
#
#
# Elastic Constant Matrix: (Units=GPa)
#
#
# Indices 1 2 3 4 5 6 
#
# 1 79.6778 43.6789 61.0735 0.0000 0.0000 0.0000
# 2 43.6789 93.1681 32.7951 0.0000 0.0000 0.0000
# 3 61.0735 32.7951 109.3384 0.0000 0.0000 0.0000
# 4 0.0000 0.0000 0.0000 105.0170 0.0000 0.0000
# 5 0.0000 0.0000 0.0000 0.0000 12.8640 0.0000
# 6 0.0000 0.0000 0.0000 0.0000 0.0000 13.1915
#
#
#
# Elastic Compliance Matrix: (Units=1/GPa)
#
#
# Indices 1 2 3 4 5 6 
#
# 1 0.026423 -0.008041 -0.012347 0.000000 0.000000 0.000000
# 2 -0.008041 0.014448 0.000158 0.000000 0.000000 0.000000
# 3 -0.012347 0.000158 0.015995 0.000000 0.000000 0.000000
# 4 0.000000 0.000000 0.000000 0.009522 0.000000 0.000000
# 5 0.000000 0.000000 0.000000 0.000000 0.077736 0.000000
# 6 0.000000 0.000000 0.000000 0.000000 0.000000 0.075806
#
#
# Mechanical properties :
#
#
# Convention : Reuss Voigt Hill
#
# Bulk Modulus (GPa) = 60.95645 61.91991 61.43818
# Shear Modulus (GPa) = 18.80691 35.85696 27.33193
#
# Velocity S-wave (km/s) = 3.35544 4.63317 4.04507
# Velocity P-wave (km/s) = 7.17666 8.10499 7.65491
#
# Compressibility (1/GPa) = 0.01640515
#
# Stress axis : x y z
#
# Youngs Moduli (GPa) = 37.84575 69.21607 62.51842
#
# Poissons Ratio (x) = 0.55659 0.77193
# Poissons Ratio (y) = 0.30433 -0.00990
# Poissons Ratio (z) = 0.46729 -0.01096
#
# Static dielectric constant tensor:
#      x y z
#    x 2.709640 0.000000 0.000000 
#    y 0.000000 3.395390 0.000000 
#    z 0.000000 0.000000 3.474120 
# 
# 
# High freq. dielectric constant tensor:
#      x y z
#    x 1.588420 0.000000 0.000000 
#    y 0.000000 1.639570 0.000000 
#    z 0.000000 0.000000 1.666550 
# 
# From -- ./inp_files/42776.got.cif
#   From: 2010.03.12/outbox.cif.g09.slc.cpg/sg69_22_cif.got.tgz:42776.got - 2010.04.10 23:52:46.
