data_PCOD8283448
_publ_section_title
;
Structure prediction by ZEFSAII (Michael W. Deem and Ramdas Pophale) SiO2 
 PCOD8283448
Probable space group: C C C A
;
_chemical_formula_sum "Si O2"
_cell_formula_units_Z 104
_cell_length_a 24.405835
_cell_length_b 21.390530
_cell_length_c 9.646025
_cell_angle_alpha 90.000000
_cell_angle_beta 90.000000
_cell_angle_gamma 90.000000
_cell_volume 5035.743483
_symmetry_space_group_name_H-M "C C C A"
_symmetry_group_IT_number 68
_space_group.IT_coordinate_system_code '2'
_symmetry_cell_setting 'orthorhombic'
loop_
_space_group_symop_operation_xyz
x,y,z
-x,1/2-y,z
x,1/2-y,1/2-z
-x,y,1/2-z
-x,-y,-z
x,1/2+y,-z
-x,1/2+y,1/2+z
x,-y,1/2+z
1/2+x,1/2+y,z
1/2-x,-y,z
1/2+x,-y,1/2-z
1/2-x,1/2+y,1/2-z
1/2-x,1/2-y,-z
1/2+x,y,-z
1/2-x,y,1/2+z
1/2+x,1/2-y,1/2+z
loop_
_atom_site_type_symbol
_atom_site_label
_atom_site_fract_x
_atom_site_fract_y
_atom_site_fract_z
Si Si1 0.500534 0.180740 0.984883
Si Si2 0.745648 0.104273 0.023043
Si Si3 0.665619 0.007174 0.471831
Si Si4 0.579293 0.854519 0.251535
Si Si5 0.406811 0.507659 0.222616
Si Si6 0.500000 0.407788 0.250000
Si Si7 0.706186 0.176773 0.769734
O O1 0.500000 0.250000 0.049572
O O2 0.447709 0.173609 0.886459
O O3 0.555269 0.174667 0.892168
O O4 0.499923 0.132902 0.111462
O O5 0.802260 0.072501 0.975057
O O6 0.754518 0.136798 0.170196
O O7 0.700221 0.050462 0.031735
O O8 0.725542 0.159201 0.922833
O O9 0.610326 0.010409 0.561979
O O10 0.648782 0.996720 0.312928
O O11 0.563561 0.927592 0.259120
O O12 0.643499 0.841573 0.243202
O O13 0.446068 0.449951 0.252993
O O14 0.715277 0.250000 0.750000
#
# Coordination Sequence:
#
# PCOD8283448 Si02
#       7
#    16  16  16  16  16   8  16
#     4  11  24  45  66  93 132 173 212 252 310 399
#     4  11  23  42  66  94 123 177 216 264 322 371
#     4  11  22  41  68  90 132 165 212 267 322 380
#     4  11  22  43  70  93 125 173 220 255 316 378
#     4  12  23  41  64 100 130 157 208 275 319 380
#     4  12  27  38  68 104 131 158 204 268 338 362
#     4  12  24  42  65  97 132 170 219 265 311 375
#
# _framework density 20.652363000000001
#
# number of rings (size 3 to 8) (size 9 to 14) (size 15 to 20)
#    0.000    0.615    3.077    6.231    0.000    4.308 
#    0.000    0.000    0.000    0.000    0.000    0.000 
#    0.000    0.000    0.000    0.000    0.000    0.000 
#
# Total GULP energy -644997.071844 kJ/mol
# GULP energy per Si atom -12403.789843 kJ/mol
# Density = 2.060536 g / cm^3
# Si number density = 20.652363 Si / 1000 Ang^3
#
#
#
# Elastic Constant Matrix: (Units=GPa)
#
#
# Indices 1 2 3 4 5 6 
#
# 1 90.2403 33.8145 29.9631 0.0000 0.0000 0.0000
# 2 33.8145 144.8111 21.4757 0.0000 0.0000 0.0000
# 3 29.9631 21.4757 77.4252 0.0000 0.0000 0.0000
# 4 0.0000 0.0000 0.0000 16.2046 0.0000 0.0000
# 5 0.0000 0.0000 0.0000 0.0000 15.9714 0.0000
# 6 0.0000 0.0000 0.0000 0.0000 0.0000 23.2507
#
#
#
# Elastic Compliance Matrix: (Units=1/GPa)
#
#
# Indices 1 2 3 4 5 6 
#
# 1 0.013521 -0.002483 -0.004544 0.000000 0.000000 0.000000
# 2 -0.002483 0.007658 -0.001163 0.000000 0.000000 0.000000
# 3 -0.004544 -0.001163 0.014997 0.000000 0.000000 0.000000
# 4 0.000000 0.000000 0.000000 0.061711 0.000000 0.000000
# 5 0.000000 0.000000 0.000000 0.000000 0.062612 0.000000
# 6 0.000000 0.000000 0.000000 0.000000 0.000000 0.043009
#
#
# Mechanical properties :
#
#
# Convention : Reuss Voigt Hill
#
# Bulk Modulus (GPa) = 50.51728 53.66479 52.09104
# Shear Modulus (GPa) = 22.07644 26.23358 24.15501
#
# Velocity S-wave (km/s) = 3.27303 3.56792 3.42365
# Velocity P-wave (km/s) = 6.22877 6.55855 6.39579
#
# Compressibility (1/GPa) = 0.01979521
#
# Stress axis : x y z
#
# Youngs Moduli (GPa) = 73.96053 130.58384 66.68165
#
# Poissons Ratio (x) = 0.32429 0.30298
# Poissons Ratio (y) = 0.18367 0.07755
# Poissons Ratio (z) = 0.33605 0.15188
#
# Static dielectric constant tensor:
#      x y z
#    x 3.709300 0.000000 0.000000 
#    y 0.000000 3.914880 0.000000 
#    z 0.000000 0.000000 3.692990 
# 
# 
# High freq. dielectric constant tensor:
#      x y z
#    x 1.808090 0.000000 0.000000 
#    y 0.000000 1.822730 0.000000 
#    z 0.000000 0.000000 1.811100 
# 
# From -- ./inp_files/9112.got.cif
#   From: 2010.03.12/outbox.cif.g09.slc.cpg/sg68_5_cif.got.tgz:9112.got - 2010.04.10 23:14:56.
