data_PCOD8283186
_publ_section_title
;
Structure prediction by ZEFSAII (Michael W. Deem and Ramdas Pophale) SiO2 
 PCOD8283186
Probable space group: C C C A
;
_chemical_formula_sum "Si O2"
_cell_formula_units_Z 56
_cell_length_a 24.865509
_cell_length_b 9.688219
_cell_length_c 10.621835
_cell_angle_alpha 90.000000
_cell_angle_beta 90.000000
_cell_angle_gamma 90.000000
_cell_volume 2558.826571
_symmetry_space_group_name_H-M "C C C A"
_symmetry_group_IT_number 68
_space_group.IT_coordinate_system_code '2'
_symmetry_cell_setting 'orthorhombic'
loop_
_space_group_symop_operation_xyz
x,y,z
-x,1/2-y,z
x,1/2-y,1/2-z
-x,y,1/2-z
-x,-y,-z
x,1/2+y,-z
-x,1/2+y,1/2+z
x,-y,1/2+z
1/2+x,1/2+y,z
1/2-x,-y,z
1/2+x,-y,1/2-z
1/2-x,1/2+y,1/2-z
1/2-x,1/2-y,-z
1/2+x,y,-z
1/2-x,y,1/2+z
1/2+x,1/2-y,1/2+z
loop_
_atom_site_type_symbol
_atom_site_label
_atom_site_fract_x
_atom_site_fract_y
_atom_site_fract_z
Si Si1 0.214209 0.250000 0.750000
Si Si2 0.854234 0.936887 0.400945
Si Si3 0.816997 0.263454 0.111654
Si Si4 0.520067 0.593235 0.614779
O O1 0.176974 0.116804 0.724392
O O2 0.252309 0.233194 0.874085
O O3 0.843807 0.843809 0.521003
O O4 0.916566 0.924868 0.373900
O O5 0.831488 0.085341 0.438693
O O6 0.844008 0.250000 0.250000
O O7 0.500000 0.750000 0.591961
O O8 0.500000 0.538250 0.750000
O O9 0.500000 0.500000 0.500000
#
# Coordination Sequence:
#
# PCOD8283186 Si02
#       4
#     8  16  16  16
#     4  10  24  40  69 100 143 182 238 278 362 432
#     4  12  24  46  72  97 149 188 233 309 354 431
#     4  10  27  41  69 104 139 185 243 281 370 433
#     4  11  26  46  72 108 140 190 246 300 368 436
#
# _framework density 21.885033
#
# number of rings (size 3 to 8) (size 9 to 14) (size 15 to 20)
#    0.857    0.286    0.000    5.143    8.000    0.571 
#    0.000    0.000    0.000    0.000    0.000    0.000 
#    0.000    0.000    0.000    0.000    0.000    0.000 
#
# Total GULP energy -347064.050841 kJ/mol
# GULP energy per Si atom -12395.144673 kJ/mol
# Density = 2.183522 g / cm^3
# Si number density = 21.885033 Si / 1000 Ang^3
#
#
#
# Elastic Constant Matrix: (Units=GPa)
#
#
# Indices 1 2 3 4 5 6 
#
# 1 196.6107 56.2526 71.7235 0.0000 0.0000 0.0000
# 2 56.2526 156.6740 83.6867 0.0000 0.0000 0.0000
# 3 71.7235 83.6867 149.1910 0.0000 0.0000 0.0000
# 4 0.0000 0.0000 0.0000 50.2831 0.0000 0.0000
# 5 0.0000 0.0000 0.0000 0.0000 -244.6177 0.0000
# 6 0.0000 0.0000 0.0000 0.0000 0.0000 174.6939
#
#
#
# Elastic Compliance Matrix: (Units=1/GPa)
#
#
# Indices 1 2 3 4 5 6 
#
# 1 0.006258 -0.000914 -0.002496 0.000000 0.000000 0.000000
# 2 -0.000914 0.009247 -0.004748 0.000000 0.000000 0.000000
# 3 -0.002496 -0.004748 0.010566 0.000000 0.000000 0.000000
# 4 0.000000 0.000000 0.000000 0.019887 0.000000 0.000000
# 5 0.000000 0.000000 0.000000 0.000000 -0.004088 0.000000
# 6 0.000000 0.000000 0.000000 0.000000 0.000000 0.005724
#
#
# Mechanical properties :
#
#
# Convention : Reuss Voigt Hill
#
# Bulk Modulus (GPa) = 102.50019 102.86679 102.68349
# Shear Modulus (GPa) = 74.44807 15.45940 44.95373
#
# Velocity S-wave (km/s) = 5.83881 2.66069 4.53712
# Velocity P-wave (km/s) = 9.61213 7.51959 8.62952
#
# Compressibility (1/GPa) = 0.00975608
#
# Stress axis : x y z
#
# Youngs Moduli (GPa) = 159.79082 108.14806 94.64436
#
# Poissons Ratio (x) = 0.09881 0.23624
# Poissons Ratio (y) = 0.14600 0.44932
# Poissons Ratio (z) = 0.39886 0.51343
#
# Static dielectric constant tensor:
#      x y z
#    x 4.095090 0.000000 0.000000 
#    y 0.000000 4.449240 0.000000 
#    z 0.000000 0.000000 5.972990 
# 
# 
# High freq. dielectric constant tensor:
#      x y z
#    x 1.868270 0.000000 0.000000 
#    y 0.000000 1.858000 0.000000 
#    z 0.000000 0.000000 1.877730 
# 
# From -- ./inp_files/16839.got.cif
#   From: 2010.03.12/outbox.cif.g09.slc.cpg/sg68_9_cif.got.tgz:16839.got - 2010.04.10 23:14:56.
