data_PCOD8283438
_publ_section_title
;
Structure prediction by ZEFSAII (Michael W. Deem and Ramdas Pophale) SiO2 
 PCOD8283438
Probable space group: C C C A
;
_chemical_formula_sum "Si O2"
_cell_formula_units_Z 88
_cell_length_a 18.084744
_cell_length_b 16.076262
_cell_length_c 13.733653
_cell_angle_alpha 90.000000
_cell_angle_beta 90.000000
_cell_angle_gamma 90.000000
_cell_volume 3992.854741
_symmetry_space_group_name_H-M "C C C A"
_symmetry_group_IT_number 68
_space_group.IT_coordinate_system_code '2'
_symmetry_cell_setting 'orthorhombic'
loop_
_space_group_symop_operation_xyz
x,y,z
-x,1/2-y,z
x,1/2-y,1/2-z
-x,y,1/2-z
-x,-y,-z
x,1/2+y,-z
-x,1/2+y,1/2+z
x,-y,1/2+z
1/2+x,1/2+y,z
1/2-x,-y,z
1/2+x,-y,1/2-z
1/2-x,1/2+y,1/2-z
1/2-x,1/2-y,-z
1/2+x,y,-z
1/2-x,y,1/2+z
1/2+x,1/2-y,1/2+z
loop_
_atom_site_type_symbol
_atom_site_label
_atom_site_fract_x
_atom_site_fract_y
_atom_site_fract_z
Si Si1 0.622952 0.305862 0.658377
Si Si2 0.068744 0.987321 0.927373
Si Si3 0.702893 0.918566 0.628640
Si Si4 0.236674 0.092550 0.654790
Si Si5 0.829107 0.334812 0.474155
Si Si6 0.000000 0.591857 0.750000
O O1 0.642064 0.250000 0.750000
O O2 0.679249 0.380818 0.664964
O O3 0.631830 0.251788 0.558624
O O4 0.542936 0.348083 0.673456
O O5 0.112356 0.906644 0.959390
O O6 0.047651 0.970203 0.815540
O O7 0.122730 0.068873 0.924162
O O8 0.000000 0.000000 0.000000
O O9 0.692461 0.906898 0.743890
O O10 0.750551 0.842847 0.583599
O O11 0.750000 0.000000 0.607229
O O12 0.191953 0.157983 0.587716
O O13 0.250000 0.000000 0.610692
#
# Coordination Sequence:
#
# PCOD8283438 Si02
#       6
#    16  16  16  16  16   8
#     4  12  23  43  64  99 133 179 222 285 347 410
#     4  11  25  39  63 100 134 179 228 278 341 412
#     4   9  19  39  60  92 130 174 225 283 333 404
#     4  11  22  39  70  94 132 173 229 290 349 406
#     4  11  23  41  65  96 134 171 228 283 342 415
#     4  12  25  42  68  92 144 179 230 276 349 420
#
# _framework density 22.039370000000002
#
# number of rings (size 3 to 8) (size 9 to 14) (size 15 to 20)
#    0.000    1.091    3.636    4.636    7.636    0.000 
#    0.000    0.000    0.000    0.000    0.000    0.000 
#    0.000    0.000    0.000    0.000    0.000    0.000 
#
# Total GULP energy -545242.882884 kJ/mol
# GULP energy per Si atom -12391.883702 kJ/mol
# Density = 2.198921 g / cm^3
# Si number density = 22.039370 Si / 1000 Ang^3
#
#
#
# Elastic Constant Matrix: (Units=GPa)
#
#
# Indices 1 2 3 4 5 6 
#
# 1 131.2384 31.6041 41.1074 0.0000 0.0000 0.0000
# 2 31.6041 58.7183 0.9825 0.0000 0.0000 0.0000
# 3 41.1074 0.9825 95.2917 0.0000 0.0000 0.0000
# 4 0.0000 0.0000 0.0000-1288.5182 0.0000 0.0000
# 5 0.0000 0.0000 0.0000 0.0000 37.8516 0.0000
# 6 0.0000 0.0000 0.0000 0.0000 0.0000 24.5346
#
#
#
# Elastic Compliance Matrix: (Units=1/GPa)
#
#
# Indices 1 2 3 4 5 6 
#
# 1 0.010315 -0.005478 -0.004393 0.000000 0.000000 0.000000
# 2 -0.005478 0.019943 0.002158 0.000000 0.000000 0.000000
# 3 -0.004393 0.002158 0.012367 0.000000 0.000000 0.000000
# 4 0.000000 0.000000 0.000000 -0.000776 0.000000 0.000000
# 5 0.000000 0.000000 0.000000 0.000000 0.026419 0.000000
# 6 0.000000 0.000000 0.000000 0.000000 0.000000 0.040759
#
#
# Mechanical properties :
#
#
# Convention : Reuss Voigt Hill
#
# Bulk Modulus (GPa) = 36.76861 48.07071 42.41966
# Shear Modulus (GPa) = 37.44744 -231.12276 -96.83766
#
# Velocity S-wave (km/s) = 4.12650 -10.25162 -6.63580
# Velocity P-wave (km/s) = 6.27881 10.87516 6.27876
#
# Compressibility (1/GPa) = 0.02719711
#
# Stress axis : x y z
#
# Youngs Moduli (GPa) = 96.94531 50.14289 80.86007
#
# Poissons Ratio (x) = 0.27470 0.35524
# Poissons Ratio (y) = 0.53111 -0.17447
# Poissons Ratio (z) = 0.42591 -0.10819
#
# Static dielectric constant tensor:
#      x y z
#    x 4.076040 0.000000 0.000000 
#    y 0.000000 3.819990 0.000000 
#    z 0.000000 0.000000 3.554470 
# 
# 
# High freq. dielectric constant tensor:
#      x y z
#    x 1.863920 0.000000 0.000000 
#    y 0.000000 1.855230 0.000000 
#    z 0.000000 0.000000 1.869490 
# 
# From -- ./inp_files/23584.got.cif
#   From: 2010.03.12/outbox.cif.g09.slc.cpg/sg68_12_cif.got.tgz:23584.got - 2010.04.10 23:14:56.
