data_PCOD8283077
_publ_section_title
;
Structure prediction by ZEFSAII (Michael W. Deem and Ramdas Pophale) SiO2 
 PCOD8283077
Probable space group: C C C A
;
_chemical_formula_sum "Si O2"
_cell_formula_units_Z 116
_cell_length_a 17.035557
_cell_length_b 28.261886
_cell_length_c 10.950450
_cell_angle_alpha 90.000000
_cell_angle_beta 90.000000
_cell_angle_gamma 90.000000
_cell_volume 5272.170476
_symmetry_space_group_name_H-M "C C C A"
_symmetry_group_IT_number 68
_space_group.IT_coordinate_system_code '2'
_symmetry_cell_setting 'orthorhombic'
loop_
_space_group_symop_operation_xyz
x,y,z
-x,1/2-y,z
x,1/2-y,1/2-z
-x,y,1/2-z
-x,-y,-z
x,1/2+y,-z
-x,1/2+y,1/2+z
x,-y,1/2+z
1/2+x,1/2+y,z
1/2-x,-y,z
1/2+x,-y,1/2-z
1/2-x,1/2+y,1/2-z
1/2-x,1/2-y,-z
1/2+x,y,-z
1/2-x,y,1/2+z
1/2+x,1/2-y,1/2+z
loop_
_atom_site_type_symbol
_atom_site_label
_atom_site_fract_x
_atom_site_fract_y
_atom_site_fract_z
Si Si1 0.663511 0.595730 0.794333
Si Si2 0.070571 0.397601 0.070611
Si Si3 0.670724 0.528067 0.569688
Si Si4 0.500000 0.750000 0.750000
Si Si5 0.406184 0.331084 0.362676
Si Si6 0.253742 0.720512 0.872845
Si Si7 0.899029 0.566534 0.551397
Si Si8 0.676703 0.635189 0.226772
O O1 0.680989 0.554731 0.696946
O O2 0.597232 0.633630 0.752910
O O3 0.625026 0.571697 0.910822
O O4 0.745847 0.624166 0.809335
O O5 0.099667 0.369478 0.189542
O O6 0.138583 0.435016 0.031741
O O7 0.051186 0.358024 0.970845
O O8 0.986907 0.421396 0.092042
O O9 0.750000 0.500000 0.526980
O O10 0.605202 0.488139 0.589484
O O11 0.551375 0.717894 0.662336
O O12 0.318166 0.318961 0.402995
O O13 0.275908 0.750000 0.750000
O O14 0.178330 0.688112 0.835050
O O15 0.250000 0.750000 0.000000
O O16 0.832672 0.597164 0.619300
#
# Coordination Sequence:
#
# PCOD8283077 Si02
#       8
#    16  16  16   4  16  16  16  16
#     4  10  24  43  65  96 134 178 237 288 347 424
#     4  11  25  46  65 100 146 182 230 291 370 431
#     4  11  23  43  67 101 131 189 238 299 349 434
#     4  12  20  40  68 104 134 176 234 280 350 420
#     4  10  23  40  66  97 134 179 222 288 345 416
#     4  11  24  42  70 106 137 180 241 298 354 432
#     4  12  25  42  70 100 137 191 231 294 361 430
#     4  11  25  43  71  95 143 179 231 293 360 430
#
# _framework density 22.002323000000001
#
# number of rings (size 3 to 8) (size 9 to 14) (size 15 to 20)
#    0.000    1.103    2.069    3.310    9.655    3.310 
#    2.483    0.000    0.000    0.828    0.000    0.000 
#    0.000    0.000    0.000    0.000    0.000    0.000 
#
# Total GULP energy -718831.580002 kJ/mol
# GULP energy per Si atom -12393.647931 kJ/mol
# Density = 2.195224 g / cm^3
# Si number density = 22.002323 Si / 1000 Ang^3
#
#
#
# Elastic Constant Matrix: (Units=GPa)
#
#
# Indices 1 2 3 4 5 6 
#
# 1 94.7629 41.5853 41.2678 0.0000 0.0000 0.0000
# 2 41.5853 135.2327 35.1528 0.0000 0.0000 0.0000
# 3 41.2678 35.1528 82.1782 0.0000 0.0000 0.0000
# 4 0.0000 0.0000 0.0000 25.8535 0.0000 0.0000
# 5 0.0000 0.0000 0.0000 0.0000 21.7964 0.0000
# 6 0.0000 0.0000 0.0000 0.0000 0.0000 41.1319
#
#
#
# Elastic Compliance Matrix: (Units=1/GPa)
#
#
# Indices 1 2 3 4 5 6 
#
# 1 0.014435 -0.002874 -0.006020 0.000000 0.000000 0.000000
# 2 -0.002874 0.008892 -0.002360 0.000000 0.000000 0.000000
# 3 -0.006020 -0.002360 0.016201 0.000000 0.000000 0.000000
# 4 0.000000 0.000000 0.000000 0.038679 0.000000 0.000000
# 5 0.000000 0.000000 0.000000 0.000000 0.045879 0.000000
# 6 0.000000 0.000000 0.000000 0.000000 0.000000 0.024312
#
#
# Mechanical properties :
#
#
# Convention : Reuss Voigt Hill
#
# Bulk Modulus (GPa) = 58.75315 60.90948 59.83132
# Shear Modulus (GPa) = 28.31559 30.70089 29.50824
#
# Velocity S-wave (km/s) = 3.59128 3.73949 3.66613
# Velocity P-wave (km/s) = 6.63005 6.81090 6.72108
#
# Compressibility (1/GPa) = 0.01702036
#
# Stress axis : x y z
#
# Youngs Moduli (GPa) = 69.27404 112.45969 61.72373
#
# Poissons Ratio (x) = 0.32324 0.37155
# Poissons Ratio (y) = 0.19911 0.14569
# Poissons Ratio (z) = 0.41700 0.26544
#
# Static dielectric constant tensor:
#      x y z
#    x 3.912100 0.000000 0.000000 
#    y 0.000000 4.208040 0.000000 
#    z 0.000000 0.000000 3.851730 
# 
# 
# High freq. dielectric constant tensor:
#      x y z
#    x 1.861310 0.000000 0.000000 
#    y 0.000000 1.879870 0.000000 
#    z 0.000000 0.000000 1.859150 
# 
# From -- ./inp_files/14835.got.cif
#   From: 2010.03.12/outbox.cif.g09.slc.cpg/sg68_8_cif.got.tgz:14835.got - 2010.04.10 23:14:56.
