data_PCOD8283486
_publ_section_title
;
Structure prediction by ZEFSAII (Michael W. Deem and Ramdas Pophale) SiO2 
 PCOD8283486
Probable space group: C C C A
;
_chemical_formula_sum "Si O2"
_cell_formula_units_Z 112
_cell_length_a 12.782986
_cell_length_b 30.172577
_cell_length_c 13.351154
_cell_angle_alpha 90.000000
_cell_angle_beta 90.000000
_cell_angle_gamma 90.000000
_cell_volume 5149.481745
_symmetry_space_group_name_H-M "C C C A"
_symmetry_group_IT_number 68
_space_group.IT_coordinate_system_code '2'
_symmetry_cell_setting 'orthorhombic'
loop_
_space_group_symop_operation_xyz
x,y,z
-x,1/2-y,z
x,1/2-y,1/2-z
-x,y,1/2-z
-x,-y,-z
x,1/2+y,-z
-x,1/2+y,1/2+z
x,-y,1/2+z
1/2+x,1/2+y,z
1/2-x,-y,z
1/2+x,-y,1/2-z
1/2-x,1/2+y,1/2-z
1/2-x,1/2-y,-z
1/2+x,y,-z
1/2-x,y,1/2+z
1/2+x,1/2-y,1/2+z
loop_
_atom_site_type_symbol
_atom_site_label
_atom_site_fract_x
_atom_site_fract_y
_atom_site_fract_z
Si Si1 0.711263 0.300587 0.118068
Si Si2 0.950219 0.951687 0.996893
Si Si3 0.713913 0.548070 0.157589
Si Si4 0.397379 0.776964 0.993546
Si Si5 0.608610 0.167150 0.195577
Si Si6 0.216698 0.580563 0.142199
Si Si7 0.643595 0.890802 0.969044
O O1 0.669029 0.254824 0.077011
O O2 0.694663 0.304962 0.238410
O O3 0.645500 0.339496 0.062520
O O4 0.835212 0.298232 0.088659
O O5 0.902382 0.943206 0.885922
O O6 0.854792 0.952178 0.076182
O O7 0.027724 0.911415 0.023131
O O8 0.000000 0.000000 0.000000
O O9 0.750000 0.500000 0.121356
O O10 0.717501 0.551907 0.277646
O O11 0.794369 0.583564 0.115917
O O12 0.500000 0.750000 0.030915
O O13 0.414629 0.817666 0.917716
O O14 0.500000 0.172025 0.250000
O O15 0.643718 0.116346 0.196279
O O16 0.301893 0.605986 0.076351
#
# Coordination Sequence:
#
# PCOD8283486 Si02
#       7
#    16  16  16  16  16  16  16
#     4  11  23  40  67  98 138 172 222 279 343 396
#     4  11  25  44  67  95 135 180 229 286 347 415
#     4  11  24  41  65  96 130 175 227 278 343 405
#     4  11  24  41  67 102 132 178 221 278 340 418
#     4  12  22  41  70 104 129 177 232 276 335 418
#     4  11  26  41  68  96 134 172 225 282 340 410
#     4  11  23  45  63  95 136 177 219 282 338 408
#
# _framework density 21.749760999999999
#
# number of rings (size 3 to 8) (size 9 to 14) (size 15 to 20)
#    0.000    0.857    5.714    1.286    2.000    0.571 
#    0.000    0.000    0.000    6.857    0.000    0.000 
#    0.000    0.000    0.000    0.000    0.000    0.000 
#
# Total GULP energy -694200.555468 kJ/mol
# GULP energy per Si atom -12396.438491 kJ/mol
# Density = 2.170026 g / cm^3
# Si number density = 21.749761 Si / 1000 Ang^3
#
#
#
# Elastic Constant Matrix: (Units=GPa)
#
#
# Indices 1 2 3 4 5 6 
#
# 1 104.0483 11.8997 43.0445 0.0000 0.0000 0.0000
# 2 11.8997 69.6482 11.2400 0.0000 0.0000 0.0000
# 3 43.0445 11.2400 81.6605 0.0000 0.0000 0.0000
# 4 0.0000 0.0000 0.0000 46.2654 0.0000 0.0000
# 5 0.0000 0.0000 0.0000 0.0000 0.2926 0.0000
# 6 0.0000 0.0000 0.0000 0.0000 0.0000 37.3115
#
#
#
# Elastic Compliance Matrix: (Units=1/GPa)
#
#
# Indices 1 2 3 4 5 6 
#
# 1 0.012371 -0.001085 -0.006372 0.000000 0.000000 0.000000
# 2 -0.001085 0.014779 -0.001462 0.000000 0.000000 0.000000
# 3 -0.006372 -0.001462 0.015806 0.000000 0.000000 0.000000
# 4 0.000000 0.000000 0.000000 0.021614 0.000000 0.000000
# 5 0.000000 0.000000 0.000000 0.000000 3.417755 0.000000
# 6 0.000000 0.000000 0.000000 0.000000 0.000000 0.026801
#
#
# Mechanical properties :
#
#
# Convention : Reuss Voigt Hill
#
# Bulk Modulus (GPa) = 39.81252 43.08062 41.44657
# Shear Modulus (GPa) = 1.41429 29.38540 15.39985
#
# Velocity S-wave (km/s) = 0.80726 3.67968 2.66380
# Velocity P-wave (km/s) = 4.38331 6.15660 5.34402
#
# Compressibility (1/GPa) = 0.02511773
#
# Stress axis : x y z
#
# Youngs Moduli (GPa) = 80.83464 67.66231 63.26866
#
# Poissons Ratio (x) = 0.07344 0.40312
# Poissons Ratio (y) = 0.08774 0.09251
# Poissons Ratio (z) = 0.51504 0.09893
#
# Static dielectric constant tensor:
#      x y z
#    x 4.065570 0.000000 0.000000 
#    y 0.000000 3.913930 0.000000 
#    z 0.000000 0.000000 4.094030 
# 
# 
# High freq. dielectric constant tensor:
#      x y z
#    x 1.847860 0.000000 0.000000 
#    y 0.000000 1.864190 0.000000 
#    z 0.000000 0.000000 1.849940 
# 
# From -- ./inp_files/21238.got.cif
#   From: 2010.03.12/outbox.cif.g09.slc.cpg/sg68_11_cif.got.tgz:21238.got - 2010.04.10 23:14:56.
