data_PCOD8283310
_publ_section_title
;
Structure prediction by ZEFSAII (Michael W. Deem and Ramdas Pophale) SiO2 
 PCOD8283310
Probable space group: C C C A
;
_chemical_formula_sum "Si O2"
_cell_formula_units_Z 64
_cell_length_a 12.569945
_cell_length_b 10.151548
_cell_length_c 20.167790
_cell_angle_alpha 90.000000
_cell_angle_beta 90.000000
_cell_angle_gamma 90.000000
_cell_volume 2573.498743
_symmetry_space_group_name_H-M "C C C A"
_symmetry_group_IT_number 68
_space_group.IT_coordinate_system_code '2'
_symmetry_cell_setting 'orthorhombic'
loop_
_space_group_symop_operation_xyz
x,y,z
-x,1/2-y,z
x,1/2-y,1/2-z
-x,y,1/2-z
-x,-y,-z
x,1/2+y,-z
-x,1/2+y,1/2+z
x,-y,1/2+z
1/2+x,1/2+y,z
1/2-x,-y,z
1/2+x,-y,1/2-z
1/2-x,1/2+y,1/2-z
1/2-x,1/2-y,-z
1/2+x,y,-z
1/2-x,y,1/2+z
1/2+x,1/2-y,1/2+z
loop_
_atom_site_type_symbol
_atom_site_label
_atom_site_fract_x
_atom_site_fract_y
_atom_site_fract_z
Si Si1 0.250000 0.000000 0.052065
Si Si2 0.137708 0.293140 0.366185
Si Si3 0.326578 0.886750 0.836799
Si Si4 0.092144 0.445114 0.046288
Si Si5 0.500000 0.250000 0.250000
Si Si6 0.000000 0.250000 0.250000
O O1 0.342012 0.925812 0.093223
O O2 0.186349 0.900142 0.003759
O O3 0.254523 0.241391 0.347783
O O4 0.068322 0.181813 0.406956
O O5 0.075393 0.335319 0.298885
O O6 0.426556 0.848495 0.792078
O O7 0.250000 0.000000 0.804430
O O8 0.370751 0.935127 0.907213
O O9 0.000000 0.500000 0.000000
#
# Coordination Sequence:
#
# PCOD8283310 Si02
#       6
#     8  16  16  16   4   4
#     4  12  24  46  74 106 146 196 242 320 384 464
#     4  11  25  49  70 109 148 201 246 325 388 458
#     4  10  25  49  70 111 150 197 256 327 382 473
#     4  11  24  44  76 107 148 189 252 316 388 466
#     4  12  26  46  82 108 152 216 264 310 414 478
#     4  12  26  50  74 102 150 192 264 302 384 480
#
# _framework density 24.868867000000002
#
# number of rings (size 3 to 8) (size 9 to 14) (size 15 to 20)
#    0.000    1.000    3.750    3.000    3.500    4.000 
#   18.000    0.000    0.000    0.000    0.000    0.000 
#    0.000    0.000    0.000    0.000    0.000    0.000 
#
# Total GULP energy -396505.661451 kJ/mol
# GULP energy per Si atom -12390.801920 kJ/mol
# Density = 2.481226 g / cm^3
# Si number density = 24.868867 Si / 1000 Ang^3
#
#
#
# Elastic Constant Matrix: (Units=GPa)
#
#
# Indices 1 2 3 4 5 6 
#
# 1 149.4096 52.7053 104.6239 0.0000 0.0000 0.0000
# 2 52.7053 84.3548 63.1360 0.0000 0.0000 0.0000
# 3 104.6239 63.1360 181.0161 0.0000 0.0000 0.0000
# 4 0.0000 0.0000 0.0000 26.9355 0.0000 0.0000
# 5 0.0000 0.0000 0.0000 0.0000 81.3045 0.0000
# 6 0.0000 0.0000 0.0000 0.0000 0.0000 47.5676
#
#
#
# Elastic Compliance Matrix: (Units=1/GPa)
#
#
# Indices 1 2 3 4 5 6 
#
# 1 0.011803 -0.003070 -0.005751 0.000000 0.000000 0.000000
# 2 -0.003070 0.016841 -0.004099 0.000000 0.000000 0.000000
# 3 -0.005751 -0.004099 0.010278 0.000000 0.000000 0.000000
# 4 0.000000 0.000000 0.000000 0.037126 0.000000 0.000000
# 5 0.000000 0.000000 0.000000 0.000000 0.012299 0.000000
# 6 0.000000 0.000000 0.000000 0.000000 0.000000 0.021023
#
#
# Mechanical properties :
#
#
# Convention : Reuss Voigt Hill
#
# Bulk Modulus (GPa) = 76.44659 95.07900 85.76279
# Shear Modulus (GPa) = 35.82353 44.11590 39.96971
#
# Velocity S-wave (km/s) = 3.79951 4.21639 4.01336
# Velocity P-wave (km/s) = 7.07495 7.87522 7.48579
#
# Compressibility (1/GPa) = 0.01308103
#
# Stress axis : x y z
#
# Youngs Moduli (GPa) = 84.72156 59.37799 97.29201
#
# Poissons Ratio (x) = 0.18230 0.55955
# Poissons Ratio (y) = 0.26011 0.39885
# Poissons Ratio (z) = 0.48726 0.24342
#
# Static dielectric constant tensor:
#      x y z
#    x 4.916120 0.000000 0.000000 
#    y 0.000000 3.989840 0.000000 
#    z 0.000000 0.000000 4.724530 
# 
# 
# High freq. dielectric constant tensor:
#      x y z
#    x 2.027860 0.000000 0.000000 
#    y 0.000000 1.953240 0.000000 
#    z 0.000000 0.000000 2.002690 
# 
# From -- ./inp_files/30516.got.cif
#   From: 2010.03.12/outbox.cif.g09.slc.cpg/sg68_16_cif.got.tgz:30516.got - 2010.04.10 23:14:56.
