data_PCOD8283195
_publ_section_title
;
Structure prediction by ZEFSAII (Michael W. Deem and Ramdas Pophale) SiO2 
 PCOD8283195
Probable space group: C C C A
;
_chemical_formula_sum "Si O2"
_cell_formula_units_Z 72
_cell_length_a 7.314334
_cell_length_b 19.917705
_cell_length_c 23.906179
_cell_angle_alpha 90.000000
_cell_angle_beta 90.000000
_cell_angle_gamma 90.000000
_cell_volume 3482.765637
_symmetry_space_group_name_H-M "C C C A"
_symmetry_group_IT_number 68
_space_group.IT_coordinate_system_code '2'
_symmetry_cell_setting 'orthorhombic'
loop_
_space_group_symop_operation_xyz
x,y,z
-x,1/2-y,z
x,1/2-y,1/2-z
-x,y,1/2-z
-x,-y,-z
x,1/2+y,-z
-x,1/2+y,1/2+z
x,-y,1/2+z
1/2+x,1/2+y,z
1/2-x,-y,z
1/2+x,-y,1/2-z
1/2-x,1/2+y,1/2-z
1/2-x,1/2-y,-z
1/2+x,y,-z
1/2-x,y,1/2+z
1/2+x,1/2-y,1/2+z
loop_
_atom_site_type_symbol
_atom_site_label
_atom_site_fract_x
_atom_site_fract_y
_atom_site_fract_z
Si Si1 0.280238 0.632751 0.053089
Si Si2 0.937774 0.819306 0.862301
Si Si3 0.055422 0.032475 0.186533
Si Si4 0.402299 0.818787 0.562908
Si Si5 0.250000 0.000000 0.892880
O O1 0.421568 0.680130 0.085542
O O2 0.326777 0.556139 0.065115
O O3 0.073920 0.634656 0.077614
O O4 0.283062 0.650725 0.987761
O O5 0.954847 0.886967 0.825795
O O6 0.729139 0.812107 0.883710
O O7 0.000000 0.750000 0.829804
O O8 0.000000 0.021486 0.250000
O O9 0.250000 0.000000 0.174113
O O10 0.920520 0.987816 0.148559
O O11 0.500000 0.750000 0.544430
#
# Coordination Sequence:
#
# PCOD8283195 Si02
#       5
#    16  16  16  16   8
#     4  11  22  36  58  89 125 170 208 247 296 371
#     4  11  23  40  62  93 126 163 208 255 309 367
#     4  11  23  45  71  90 117 160 209 264 325 380
#     4  12  21  36  59  86 129 173 204 242 303 368
#     4  10  24  42  60  90 124 158 210 260 308 372
#
# _framework density 20.673224999999999
#
# number of rings (size 3 to 8) (size 9 to 14) (size 15 to 20)
#    0.000    0.889    5.556    2.667    0.000    1.333 
#    2.000    0.000    0.000    0.000    0.000    0.000 
#    0.000    0.000    0.000    0.000    0.000    0.000 
#
# Total GULP energy -446071.038674 kJ/mol
# GULP energy per Si atom -12390.862185 kJ/mol
# Density = 2.062617 g / cm^3
# Si number density = 20.673225 Si / 1000 Ang^3
#
#
#
# Elastic Constant Matrix: (Units=GPa)
#
#
# Indices 1 2 3 4 5 6 
#
# 1 125.9126 1.4703 8.4116 0.0000 0.0000 0.0000
# 2 1.4703 75.3529 13.6906 0.0000 0.0000 0.0000
# 3 8.4116 13.6906 48.3500 0.0000 0.0000 0.0000
# 4 0.0000 0.0000 0.0000 16.0754 0.0000 0.0000
# 5 0.0000 0.0000 0.0000 0.0000 17.9938 0.0000
# 6 0.0000 0.0000 0.0000 0.0000 0.0000 31.8994
#
#
#
# Elastic Compliance Matrix: (Units=1/GPa)
#
#
# Indices 1 2 3 4 5 6 
#
# 1 0.008036 0.000102 -0.001427 0.000000 0.000000 0.000000
# 2 0.000102 0.013992 -0.003980 0.000000 0.000000 0.000000
# 3 -0.001427 -0.003980 0.022058 0.000000 0.000000 0.000000
# 4 0.000000 0.000000 0.000000 0.062207 0.000000 0.000000
# 5 0.000000 0.000000 0.000000 0.000000 0.055575 0.000000
# 6 0.000000 0.000000 0.000000 0.000000 0.000000 0.031349
#
#
# Mechanical properties :
#
#
# Convention : Reuss Voigt Hill
#
# Bulk Modulus (GPa) = 29.87119 32.97342 31.42231
# Shear Modulus (GPa) = 23.25758 28.26325 25.76041
#
# Velocity S-wave (km/s) = 3.35776 3.70150 3.53381
# Velocity P-wave (km/s) = 5.43261 5.85257 5.64650
#
# Compressibility (1/GPa) = 0.03347707
#
# Stress axis : x y z
#
# Youngs Moduli (GPa) = 124.43761 71.46968 45.33564
#
# Poissons Ratio (x) = -0.00732 0.06470
# Poissons Ratio (y) = -0.01275 0.18042
# Poissons Ratio (z) = 0.17758 0.28443
#
# Static dielectric constant tensor:
#      x y z
#    x 4.413470 0.000000 0.000000 
#    y 0.000000 3.906470 0.000000 
#    z 0.000000 0.000000 3.316880 
# 
# 
# High freq. dielectric constant tensor:
#      x y z
#    x 1.832760 0.000000 0.000000 
#    y 0.000000 1.817150 0.000000 
#    z 0.000000 0.000000 1.770990 
# 
# From -- ./inp_files/42933.got.cif
#   From: 2010.03.12/outbox.cif.g09.slc.cpg/sg68_22_cif.got.tgz:42933.got - 2010.04.10 23:14:56.
