data_PCOD8283452
_publ_section_title
;
Structure prediction by ZEFSAII (Michael W. Deem and Ramdas Pophale) SiO2 
 PCOD8283452
Probable space group: C C C A
;
_chemical_formula_sum "Si O2"
_cell_formula_units_Z 96
_cell_length_a 16.977071
_cell_length_b 10.973529
_cell_length_c 24.680396
_cell_angle_alpha 90.000000
_cell_angle_beta 90.000000
_cell_angle_gamma 90.000000
_cell_volume 4597.917816
_symmetry_space_group_name_H-M "C C C A"
_symmetry_group_IT_number 68
_space_group.IT_coordinate_system_code '2'
_symmetry_cell_setting 'orthorhombic'
loop_
_space_group_symop_operation_xyz
x,y,z
-x,1/2-y,z
x,1/2-y,1/2-z
-x,y,1/2-z
-x,-y,-z
x,1/2+y,-z
-x,1/2+y,1/2+z
x,-y,1/2+z
1/2+x,1/2+y,z
1/2-x,-y,z
1/2+x,-y,1/2-z
1/2-x,1/2+y,1/2-z
1/2-x,1/2-y,-z
1/2+x,y,-z
1/2-x,y,1/2+z
1/2+x,1/2-y,1/2+z
loop_
_atom_site_type_symbol
_atom_site_label
_atom_site_fract_x
_atom_site_fract_y
_atom_site_fract_z
Si Si1 0.764631 0.166508 0.647450
Si Si2 0.134149 0.521780 0.688511
Si Si3 0.463429 0.375560 0.979711
Si Si4 0.685806 0.401602 0.695696
Si Si5 0.791466 0.133117 0.525957
Si Si6 0.521040 0.617350 0.146858
O O1 0.832159 0.116408 0.689534
O O2 0.730945 0.283794 0.676251
O O3 0.803165 0.176110 0.588189
O O4 0.686822 0.080905 0.640258
O O5 0.156955 0.597801 0.742151
O O6 0.042106 0.524526 0.673725
O O7 0.500000 0.250000 0.004583
O O8 0.484242 0.377691 0.916874
O O9 0.500000 0.500000 0.000000
O O10 0.372332 0.378970 0.993794
O O11 0.750000 0.500000 0.682240
O O12 0.607766 0.427279 0.661261
O O13 0.750000 0.250000 0.500000
O O14 0.750000 0.000000 0.520066
O O15 0.500000 0.750000 0.171576
#
# Coordination Sequence:
#
# PCOD8283452 Si02
#       6
#    16  16  16  16  16  16
#     4  11  23  42  68  96 135 179 220 269 347 403
#     4  11  22  41  69  93 131 176 223 267 337 395
#     4  11  25  43  66  92 132 175 221 277 337 398
#     4  12  25  40  67 105 133 171 224 286 328 398
#     4  12  25  43  70  99 133 177 226 276 338 405
#     4  11  24  41  67  95 129 170 233 276 320 391
#
# _framework density 20.879016
#
# number of rings (size 3 to 8) (size 9 to 14) (size 15 to 20)
#    0.000    0.667    5.000    4.000    2.333    4.667 
#    0.000    0.833    0.000    2.000    0.000    0.000 
#    0.000    0.000    0.000    0.000    0.000    0.000 
#
# Total GULP energy -594662.437643 kJ/mol
# GULP energy per Si atom -12388.800784 kJ/mol
# Density = 2.083149 g / cm^3
# Si number density = 20.879016 Si / 1000 Ang^3
#
#
#
# Elastic Constant Matrix: (Units=GPa)
#
#
# Indices 1 2 3 4 5 6 
#
# 1 160.6847 95.7422 27.3492 0.0000 0.0000 0.0000
# 2 95.7422 134.6465 57.5310 0.0000 0.0000 0.0000
# 3 27.3492 57.5310 73.7660 0.0000 0.0000 0.0000
# 4 0.0000 0.0000 0.0000 32.2959 0.0000 0.0000
# 5 0.0000 0.0000 0.0000 0.0000 38.4729 0.0000
# 6 0.0000 0.0000 0.0000 0.0000 0.0000 39.4252
#
#
#
# Elastic Compliance Matrix: (Units=1/GPa)
#
#
# Indices 1 2 3 4 5 6 
#
# 1 0.011253 -0.009327 0.003102 0.000000 0.000000 0.000000
# 2 -0.009327 0.018869 -0.011258 0.000000 0.000000 0.000000
# 3 0.003102 -0.011258 0.021187 0.000000 0.000000 0.000000
# 4 0.000000 0.000000 0.000000 0.030964 0.000000 0.000000
# 5 0.000000 0.000000 0.000000 0.000000 0.025992 0.000000
# 6 0.000000 0.000000 0.000000 0.000000 0.000000 0.025364
#
#
# Mechanical properties :
#
#
# Convention : Reuss Voigt Hill
#
# Bulk Modulus (GPa) = 61.19008 81.14911 71.16960
# Shear Modulus (GPa) = 28.72860 34.60380 31.66620
#
# Velocity S-wave (km/s) = 3.71341 4.07547 3.89865
# Velocity P-wave (km/s) = 6.91061 7.81644 7.37744
#
# Compressibility (1/GPa) = 0.01634252
#
# Stress axis : x y z
#
# Youngs Moduli (GPa) = 88.86805 52.99645 47.19926
#
# Poissons Ratio (x) = 0.49429 -0.14642
# Poissons Ratio (y) = 0.82885 0.53139
# Poissons Ratio (z) = -0.27568 0.59665
#
# Static dielectric constant tensor:
#      x y z
#    x 3.860600 0.000000 0.000000 
#    y 0.000000 4.019190 0.000000 
#    z 0.000000 0.000000 3.833520 
# 
# 
# High freq. dielectric constant tensor:
#      x y z
#    x 1.824700 0.000000 0.000000 
#    y 0.000000 1.821480 0.000000 
#    z 0.000000 0.000000 1.819850 
# 
# From -- ./inp_files/45997.got.cif
#   From: 2010.03.12/outbox.cif.g09.slc.cpg/sg68_23_cif.got.tgz:45997.got - 2010.04.10 23:14:56.
