data_PCOD8283483
_publ_section_title
;
Structure prediction by ZEFSAII (Michael W. Deem and Ramdas Pophale) SiO2 
 PCOD8283483
Probable space group: C C C A
;
_chemical_formula_sum "Si O2"
_cell_formula_units_Z 64
_cell_length_a 23.784863
_cell_length_b 23.219168
_cell_length_c 4.915024
_cell_angle_alpha 90.000000
_cell_angle_beta 90.000000
_cell_angle_gamma 90.000000
_cell_volume 2714.394402
_symmetry_space_group_name_H-M "C C C A"
_symmetry_group_IT_number 68
_space_group.IT_coordinate_system_code '2'
_symmetry_cell_setting 'orthorhombic'
loop_
_space_group_symop_operation_xyz
x,y,z
-x,1/2-y,z
x,1/2-y,1/2-z
-x,y,1/2-z
-x,-y,-z
x,1/2+y,-z
-x,1/2+y,1/2+z
x,-y,1/2+z
1/2+x,1/2+y,z
1/2-x,-y,z
1/2+x,-y,1/2-z
1/2-x,1/2+y,1/2-z
1/2-x,1/2-y,-z
1/2+x,y,-z
1/2-x,y,1/2+z
1/2+x,1/2-y,1/2+z
loop_
_atom_site_type_symbol
_atom_site_label
_atom_site_fract_x
_atom_site_fract_y
_atom_site_fract_z
Si Si1 0.061988 0.613590 0.265813
Si Si2 0.215567 0.845422 0.993810
Si Si3 0.404839 0.315923 0.730672
Si Si4 0.833960 0.538033 0.129839
O O1 0.053360 0.660382 0.502576
O O2 0.103201 0.564177 0.377640
O O3 0.000000 0.585661 0.250000
O O4 0.088478 0.645702 0.002835
O O5 0.266022 0.825193 0.794529
O O6 0.158227 0.817982 0.889859
O O7 0.210092 0.914546 0.025287
O O8 0.422495 0.250000 0.750000
O O9 0.825491 0.517494 0.439072
#
# Coordination Sequence:
#
# PCOD8283483 Si02
#       4
#    16  16  16  16
#     4  11  24  42  64  93 128 165 211 264 317 380
#     4  11  23  40  62  90 123 160 205 255 308 370
#     4  11  24  42  64  93 128 165 211 264 317 380
#     4  11  23  40  62  90 123 160 205 255 308 370
#
# _framework density 23.578001
#
# number of rings (size 3 to 8) (size 9 to 14) (size 15 to 20)
#    0.000    1.000    0.000    9.000    0.000    8.000 
#    0.000    0.000    0.000    0.000    0.000    0.000 
#    0.000    0.000    0.000    0.000    0.000    0.000 
#
# Total GULP energy -396587.726306 kJ/mol
# GULP energy per Si atom -12393.366447 kJ/mol
# Density = 2.352434 g / cm^3
# Si number density = 23.578001 Si / 1000 Ang^3
#
#
#
# Elastic Constant Matrix: (Units=GPa)
#
#
# Indices 1 2 3 4 5 6 
#
# 1 53.9108 -22.5135 6.4505 0.0000 0.0000 0.0000
# 2 -22.5135 28.0182 10.1464 0.0000 0.0000 0.0000
# 3 6.4505 10.1464 133.1735 0.0000 0.0000 0.0000
# 4 0.0000 0.0000 0.0000 24.6332 0.0000 0.0000
# 5 0.0000 0.0000 0.0000 0.0000 34.2105 0.0000
# 6 0.0000 0.0000 0.0000 0.0000 0.0000 15.2643
#
#
#
# Elastic Compliance Matrix: (Units=1/GPa)
#
#
# Indices 1 2 3 4 5 6 
#
# 1 0.029262 0.024708 -0.003300 0.000000 0.000000 0.000000
# 2 0.024708 0.057566 -0.005583 0.000000 0.000000 0.000000
# 3 -0.003300 -0.005583 0.008094 0.000000 0.000000 0.000000
# 4 0.000000 0.000000 0.000000 0.040596 0.000000 0.000000
# 5 0.000000 0.000000 0.000000 0.000000 0.029231 0.000000
# 6 0.000000 0.000000 0.000000 0.000000 0.000000 0.065512
#
#
# Mechanical properties :
#
#
# Convention : Reuss Voigt Hill
#
# Bulk Modulus (GPa) = 7.90054 22.58549 15.24302
# Shear Modulus (GPa) = 20.76396 29.55620 25.16008
#
# Velocity S-wave (km/s) = 2.97079 3.54439 3.27019
# Velocity P-wave (km/s) = 3.88916 5.13324 4.55388
#
# Compressibility (1/GPa) = 0.12657361
#
# Stress axis : x y z
#
# Youngs Moduli (GPa) = 34.17377 17.37127 123.54554
#
# Poissons Ratio (x) = -0.42921 0.40768
# Poissons Ratio (y) = -0.84437 0.68972
# Poissons Ratio (z) = 0.11277 0.09698
#
# Static dielectric constant tensor:
#      x y z
#    x 4.211480 0.000000 0.000000 
#    y 0.000000 4.117730 0.000000 
#    z 0.000000 0.000000 4.520960 
# 
# 
# High freq. dielectric constant tensor:
#      x y z
#    x 1.937820 0.000000 0.000000 
#    y 0.000000 1.917510 0.000000 
#    z 0.000000 0.000000 1.953770 
# 
# From -- ./inp_files/1386.got.cif
#   From: 2010.03.12/outbox.cif.g09.slc.cpg/sg68_1_cif.got.tgz:1386.got - 2010.04.10 23:14:56.
