data_PCOD8283828
_publ_section_title
;
Structure prediction by ZEFSAII (Michael W. Deem and Ramdas Pophale) SiO2 
 PCOD8283828
Probable space group: F M M M
;
_chemical_formula_sum "Si O2"
_cell_formula_units_Z 128
_cell_length_a 13.924496
_cell_length_b 23.082070
_cell_length_c 22.308600
_cell_angle_alpha 90.000000
_cell_angle_beta 90.000000
_cell_angle_gamma 90.000000
_cell_volume 7170.122161
_symmetry_space_group_name_H-M "F M M M"
_symmetry_group_IT_number 69
_symmetry_cell_setting 'orthorhombic'
loop_
_space_group_symop_operation_xyz
x,y,z
-x,-y,z
x,-y,-z
-x,y,-z
-x,-y,-z
x,y,-z
-x,y,z
x,-y,z
x,1/2+y,1/2+z
-x,1/2-y,1/2+z
x,1/2-y,1/2-z
-x,1/2+y,1/2-z
-x,1/2-y,1/2-z
x,1/2+y,1/2-z
-x,1/2+y,1/2+z
x,1/2-y,1/2+z
1/2+x,y,1/2+z
1/2-x,-y,1/2+z
1/2+x,-y,1/2-z
1/2-x,y,1/2-z
1/2-x,-y,1/2-z
1/2+x,y,1/2-z
1/2-x,y,1/2+z
1/2+x,-y,1/2+z
1/2+x,1/2+y,z
1/2-x,1/2-y,z
1/2+x,1/2-y,-z
1/2-x,1/2+y,-z
1/2-x,1/2-y,-z
1/2+x,1/2+y,-z
1/2-x,1/2+y,z
1/2+x,1/2-y,z
loop_
_atom_site_type_symbol
_atom_site_label
_atom_site_fract_x
_atom_site_fract_y
_atom_site_fract_z
Si Si1 0.861038 0.761360 0.500000
Si Si2 0.112211 0.066300 0.627656
Si Si3 0.108900 0.602845 0.000000
Si Si4 0.222538 0.667483 0.818298
Si Si5 0.393863 0.726240 0.130012
O O1 0.750000 0.750000 0.500000
O O2 0.883077 0.828768 0.500000
O O3 0.906177 0.733059 0.558817
O O4 0.154722 0.076758 0.560651
O O5 0.174811 0.104753 0.673175
O O6 0.000000 0.084368 0.631373
O O7 0.126756 0.000000 0.646623
O O8 0.000000 0.581556 0.000000
O O9 0.250000 0.677939 0.750000
O O10 0.321340 0.673331 0.856270
O O11 0.146709 0.715429 0.839947
O O12 0.500000 0.713191 0.156449
#
# Coordination Sequence:
#
# PCOD8283828 Si02
#       5
#    16  32  16  32  32
#     4  12  18  31  55  82 113 139 166 214 273 329
#     4  10  20  35  57  82 107 137 176 226 278 322
#     4  10  17  30  52  80 109 131 161 213 275 326
#     4  11  23  36  52  76 108 148 185 221 260 312
#     4  11  21  35  55  81 110 142 177 218 271 324
#
# _framework density 17.851858
#
# number of rings (size 3 to 8) (size 9 to 14) (size 15 to 20)
#    0.000    1.250    5.000    3.750    0.000    5.000 
#    0.000    0.000    0.000    0.750    0.000    0.000 
#    0.000    6.000    0.000    0.000    0.000    0.000 
#
# Total GULP energy -396736.210418 kJ/mol
# GULP energy per Si atom -12398.006576 kJ/mol
# Density = 1.781123 g / cm^3
# Si number density = 17.851858 Si / 1000 Ang^3
#
#
#
# Elastic Constant Matrix: (Units=GPa)
#
#
# Indices 1 2 3 4 5 6 
#
# 1 125.2943 43.4144 27.9891 0.0000 0.0000 0.0000
# 2 43.4144 81.0608 32.8599 0.0000 0.0000 0.0000
# 3 27.9891 32.8599 110.1889 0.0000 0.0000 0.0000
# 4 0.0000 0.0000 0.0000 -10.6240 0.0000 0.0000
# 5 0.0000 0.0000 0.0000 0.0000 7.4936 0.0000
# 6 0.0000 0.0000 0.0000 0.0000 0.0000 24.8181
#
#
#
# Elastic Compliance Matrix: (Units=1/GPa)
#
#
# Indices 1 2 3 4 5 6 
#
# 1 0.009908 -0.004876 -0.001063 0.000000 0.000000 0.000000
# 2 -0.004876 0.016432 -0.003662 0.000000 0.000000 0.000000
# 3 -0.001063 -0.003662 0.010437 0.000000 0.000000 0.000000
# 4 0.000000 0.000000 0.000000 -0.094127 0.000000 0.000000
# 5 0.000000 0.000000 0.000000 0.000000 0.133447 0.000000
# 6 0.000000 0.000000 0.000000 0.000000 0.000000 0.040293
#
#
# Mechanical properties :
#
#
# Convention : Reuss Voigt Hill
#
# Bulk Modulus (GPa) = 56.89280 58.34120 57.61700
# Shear Modulus (GPa) = 35.34808 18.48959 26.91884
#
# Velocity S-wave (km/s) = 4.45463 3.22176 3.88738
# Velocity P-wave (km/s) = 7.64179 6.82578 7.24528
#
# Compressibility (1/GPa) = 0.01757692
#
# Stress axis : x y z
#
# Youngs Moduli (GPa) = 100.92805 60.85631 95.81046
#
# Poissons Ratio (x) = 0.29672 0.10182
# Poissons Ratio (y) = 0.49210 0.35084
# Poissons Ratio (z) = 0.10726 0.22284
#
# Static dielectric constant tensor:
#      x y z
#    x 3.405700 0.000000 0.000000 
#    y 0.000000 3.118760 0.000000 
#    z 0.000000 0.000000 3.649480 
# 
# 
# High freq. dielectric constant tensor:
#      x y z
#    x 1.685080 0.000000 0.000000 
#    y 0.000000 1.665440 0.000000 
#    z 0.000000 0.000000 1.696320 
# 
# From -- ./inp_files/16358.got.cif
#   From: 2010.03.12/outbox.cif.g09.slc.cpg/sg69_9_cif.got.tgz:16358.got - 2010.04.10 23:52:46.
