data_PCOD8283916
_publ_section_title
;
Structure prediction by ZEFSAII (Michael W. Deem and Ramdas Pophale) SiO2 
 PCOD8283916
Probable space group: F M M M
;
_chemical_formula_sum "Si O2"
_cell_formula_units_Z 144
_cell_length_a 36.083916
_cell_length_b 9.063586
_cell_length_c 28.578767
_cell_angle_alpha 90.000000
_cell_angle_beta 90.000000
_cell_angle_gamma 90.000000
_cell_volume 9346.676484
_symmetry_space_group_name_H-M "F M M M"
_symmetry_group_IT_number 69
_symmetry_cell_setting 'orthorhombic'
loop_
_space_group_symop_operation_xyz
x,y,z
-x,-y,z
x,-y,-z
-x,y,-z
-x,-y,-z
x,y,-z
-x,y,z
x,-y,z
x,1/2+y,1/2+z
-x,1/2-y,1/2+z
x,1/2-y,1/2-z
-x,1/2+y,1/2-z
-x,1/2-y,1/2-z
x,1/2+y,1/2-z
-x,1/2+y,1/2+z
x,1/2-y,1/2+z
1/2+x,y,1/2+z
1/2-x,-y,1/2+z
1/2+x,-y,1/2-z
1/2-x,y,1/2-z
1/2-x,-y,1/2-z
1/2+x,y,1/2-z
1/2-x,y,1/2+z
1/2+x,-y,1/2+z
1/2+x,1/2+y,z
1/2-x,1/2-y,z
1/2+x,1/2-y,-z
1/2-x,1/2+y,-z
1/2-x,1/2-y,-z
1/2+x,1/2+y,-z
1/2-x,1/2+y,z
1/2+x,1/2-y,z
loop_
_atom_site_type_symbol
_atom_site_label
_atom_site_fract_x
_atom_site_fract_y
_atom_site_fract_z
Si Si1 0.457928 0.172038 0.296060
Si Si2 0.714144 0.666138 0.944423
Si Si3 0.427098 0.826207 0.605186
Si Si4 0.860373 0.326208 0.945989
Si Si5 0.000000 0.324743 0.447541
O O1 0.500000 0.225789 0.306253
O O2 0.441514 0.250000 0.250000
O O3 0.432066 0.210776 0.340100
O O4 0.457736 0.000000 0.286298
O O5 0.712953 0.500000 0.924260
O O6 0.750000 0.750000 0.923726
O O7 0.677632 0.753021 0.928408
O O8 0.716664 0.662408 0.000000
O O9 0.392521 0.736314 0.586362
O O10 0.463435 0.767387 0.578416
O O11 0.420976 0.000000 0.596533
O O12 0.856883 0.500000 0.939202
O O13 0.868593 0.285060 0.000000
O O14 0.000000 0.500000 0.446792
O O15 0.000000 0.261501 0.500000
#
# Coordination Sequence:
#
# PCOD8283916 Si02
#       5
#    32  32  32  32  16
#     4   9  17  30  47  66  86 108 141 186 233 279
#     4   9  16  27  44  64  86 115 150 185 221 261
#     4  10  18  30  46  64  85 113 152 191 225 266
#     4  10  20  31  42  61  91 123 153 186 223 264
#     4   9  16  26  42  61  81 111 151 189 220 255
#
# _framework density 15.406546000000001
#
# number of rings (size 3 to 8) (size 9 to 14) (size 15 to 20)
#    0.000    2.556    1.111    2.000    0.000    5.778 
#    0.000    0.556    0.000    2.000    0.000    0.000 
#    0.000    0.889    0.000    9.333    0.000    5.556 
#
# Total GULP energy -446383.088801 kJ/mol
# GULP energy per Si atom -12399.530244 kJ/mol
# Density = 1.537148 g / cm^3
# Si number density = 15.406546 Si / 1000 Ang^3
#
#
#
# Elastic Constant Matrix: (Units=GPa)
#
#
# Indices 1 2 3 4 5 6 
#
# 1 130.1366 57.5161 52.0681 0.0000 0.0000 0.0000
# 2 57.5161 77.2553 42.3897 -0.0001 0.0000 0.0003
# 3 52.0681 42.3897 84.5505 0.0000 0.0000 0.0000
# 4 0.0000 -0.0001 0.0000 21.5338 0.0000 0.0000
# 5 0.0000 0.0000 0.0000 0.0000 3.5810 0.0000
# 6 0.0000 0.0003 0.0000 0.0000 0.0000 28.8006
#
#
#
# Elastic Compliance Matrix: (Units=1/GPa)
#
#
# Indices 1 2 3 4 5 6 
#
# 1 0.012430 -0.006972 -0.004159 0.000000 0.000000 0.000000
# 2 -0.006972 0.021766 -0.006619 0.000000 0.000000 0.000000
# 3 -0.004159 -0.006619 0.017707 0.000000 0.000000 0.000000
# 4 0.000000 0.000000 0.000000 0.046439 0.000000 0.000000
# 5 0.000000 0.000000 0.000000 0.000000 0.279250 0.000000
# 6 0.000000 0.000000 0.000000 0.000000 0.000000 0.034722
#
#
# Mechanical properties :
#
#
# Convention : Reuss Voigt Hill
#
# Bulk Modulus (GPa) = 60.96494 66.21001 63.58747
# Shear Modulus (GPa) = 11.03069 20.11433 15.57251
#
# Velocity S-wave (km/s) = 2.67867 3.61719 3.18271
# Velocity P-wave (km/s) = 7.01596 7.77907 7.40735
#
# Compressibility (1/GPa) = 0.01640287
#
# Stress axis : x y z
#
# Youngs Moduli (GPa) = 80.45353 45.94227 56.47419
#
# Poissons Ratio (x) = 0.32029 0.23488
# Poissons Ratio (y) = 0.56089 0.37383
# Poissons Ratio (z) = 0.33462 0.30411
#
# Static dielectric constant tensor:
#      x y z
#    x 2.963350 0.000000 0.000000 
#    y 0.000000 2.925240 0.000000 
#    z 0.000000 0.000000 2.774160 
# 
# 
# High freq. dielectric constant tensor:
#      x y z
#    x 1.584960 0.000000 0.000000 
#    y 0.000000 1.589380 0.000000 
#    z 0.000000 0.000000 1.556250 
# 
# From -- ./inp_files/5597.got.cif
#   From: 2010.03.12/outbox.cif.g09.slc.cpg/sg69_3_cif.got.tgz:5597.got - 2010.04.10 23:52:46.
