data_PCOD8283113
_publ_section_title
;
Structure prediction by ZEFSAII (Michael W. Deem and Ramdas Pophale) SiO2 
 PCOD8283113
Probable space group: C C C A
;
_chemical_formula_sum "Si O2"
_cell_formula_units_Z 68
_cell_length_a 18.610521
_cell_length_b 14.819250
_cell_length_c 10.757236
_cell_angle_alpha 90.000000
_cell_angle_beta 90.000000
_cell_angle_gamma 90.000000
_cell_volume 2966.780751
_symmetry_space_group_name_H-M "C C C A"
_symmetry_group_IT_number 68
_space_group.IT_coordinate_system_code '2'
_symmetry_cell_setting 'orthorhombic'
loop_
_space_group_symop_operation_xyz
x,y,z
-x,1/2-y,z
x,1/2-y,1/2-z
-x,y,1/2-z
-x,-y,-z
x,1/2+y,-z
-x,1/2+y,1/2+z
x,-y,1/2+z
1/2+x,1/2+y,z
1/2-x,-y,z
1/2+x,-y,1/2-z
1/2-x,1/2+y,1/2-z
1/2-x,1/2-y,-z
1/2+x,y,-z
1/2-x,y,1/2+z
1/2+x,1/2-y,1/2+z
loop_
_atom_site_type_symbol
_atom_site_label
_atom_site_fract_x
_atom_site_fract_y
_atom_site_fract_z
Si Si1 0.053543 0.429400 0.139813
Si Si2 0.785318 0.653141 0.509612
Si Si3 0.795329 0.356694 0.274204
Si Si4 0.500000 0.250000 0.250000
Si Si5 0.058536 0.126320 0.953251
O O1 0.122991 0.379737 0.191882
O O2 0.075864 0.522011 0.074123
O O3 0.000000 0.454717 0.250000
O O4 0.011887 0.364811 0.041123
O O5 0.750000 0.750000 0.500000
O O6 0.767383 0.602126 0.641081
O O7 0.756144 0.603595 0.384468
O O8 0.870867 0.665949 0.517368
O O9 0.789976 0.250000 0.250000
O O10 0.450140 0.315131 0.169896
#
# Coordination Sequence:
#
# PCOD8283113 Si02
#       5
#    16  16  16   4  16
#     4  11  23  47  68 105 138 179 241 295 357 425
#     4  10  23  43  65 101 133 182 231 289 346 426
#     4  10  23  42  72  99 137 181 232 289 351 436
#     4  12  28  40  70 108 130 184 218 302 356 424
#     4  11  26  43  71 101 141 181 233 300 362 421
#
# _framework density 22.920468
#
# number of rings (size 3 to 8) (size 9 to 14) (size 15 to 20)
#    0.000    1.412    3.529    0.000   11.529    1.412 
#    0.000    2.353    0.000    0.000    0.000    0.000 
#    0.000    0.000    0.000    0.000    0.000    0.000 
#
# Total GULP energy -421344.451779 kJ/mol
# GULP energy per Si atom -12392.483876 kJ/mol
# Density = 2.286830 g / cm^3
# Si number density = 22.920468 Si / 1000 Ang^3
#
#
#
# Elastic Constant Matrix: (Units=GPa)
#
#
# Indices 1 2 3 4 5 6 
#
# 1 129.7236 29.1236 78.1356 0.0000 0.0000 0.0000
# 2 29.1236 48.0627 21.1060 0.0000 0.0000 0.0000
# 3 78.1356 21.1060 224.2809 0.0000 0.0000 0.0000
# 4 0.0000 0.0000 0.0000 20.1556 0.0000 0.0000
# 5 0.0000 0.0000 0.0000 0.0000 47.9756 0.0000
# 6 0.0000 0.0000 0.0000 0.0000 0.0000 28.7191
#
#
#
# Elastic Compliance Matrix: (Units=1/GPa)
#
#
# Indices 1 2 3 4 5 6 
#
# 1 0.010844 -0.005124 -0.003296 0.000000 0.000000 0.000000
# 2 -0.005124 0.024124 -0.000485 0.000000 0.000000 0.000000
# 3 -0.003296 -0.000485 0.005653 0.000000 0.000000 0.000000
# 4 0.000000 0.000000 0.000000 0.049614 0.000000 0.000000
# 5 0.000000 0.000000 0.000000 0.000000 0.020844 0.000000
# 6 0.000000 0.000000 0.000000 0.000000 0.000000 0.034820
#
#
# Mechanical properties :
#
#
# Convention : Reuss Voigt Hill
#
# Bulk Modulus (GPa) = 43.83787 73.19972 58.51879
# Shear Modulus (GPa) = 29.18658 37.61685 33.40172
#
# Velocity S-wave (km/s) = 3.57232 4.05556 3.82159
# Velocity P-wave (km/s) = 6.01522 7.34410 6.71263
#
# Compressibility (1/GPa) = 0.02281133
#
# Stress axis : x y z
#
# Youngs Moduli (GPa) = 92.21611 41.45258 176.91207
#
# Poissons Ratio (x) = 0.21239 0.58305
# Poissons Ratio (y) = 0.47249 0.08583
# Poissons Ratio (z) = 0.30392 0.02011
#
# Static dielectric constant tensor:
#      x y z
#    x 4.265840 0.000000 0.000000 
#    y 0.000000 3.783800 0.000000 
#    z 0.000000 0.000000 3.919540 
# 
# 
# High freq. dielectric constant tensor:
#      x y z
#    x 1.901840 0.000000 0.000000 
#    y 0.000000 1.882220 0.000000 
#    z 0.000000 0.000000 1.937360 
# 
# From -- ./inp_files/14194.got.cif
#   From: 2010.03.12/outbox.cif.g09.slc.cpg/sg68_8_cif.got.tgz:14194.got - 2010.04.10 23:14:56.
