data_PCOD8283602
_publ_section_title
;
Structure prediction by ZEFSAII (Michael W. Deem and Ramdas Pophale) SiO2 
 PCOD8283602
Probable space group: C C C A
;
_chemical_formula_sum "Si O2"
_cell_formula_units_Z 48
_cell_length_a 5.053093
_cell_length_b 34.397428
_cell_length_c 12.915268
_cell_angle_alpha 90.000000
_cell_angle_beta 90.000000
_cell_angle_gamma 90.000000
_cell_volume 2244.846677
_symmetry_space_group_name_H-M "C C C A"
_symmetry_group_IT_number 68
_space_group.IT_coordinate_system_code '2'
_symmetry_cell_setting 'orthorhombic'
loop_
_space_group_symop_operation_xyz
x,y,z
-x,1/2-y,z
x,1/2-y,1/2-z
-x,y,1/2-z
-x,-y,-z
x,1/2+y,-z
-x,1/2+y,1/2+z
x,-y,1/2+z
1/2+x,1/2+y,z
1/2-x,-y,z
1/2+x,-y,1/2-z
1/2-x,1/2+y,1/2-z
1/2-x,1/2-y,-z
1/2+x,y,-z
1/2-x,y,1/2+z
1/2+x,1/2-y,1/2+z
loop_
_atom_site_type_symbol
_atom_site_label
_atom_site_fract_x
_atom_site_fract_y
_atom_site_fract_z
Si Si1 0.500000 0.812315 0.750000
Si Si2 0.000000 0.250000 0.574135
Si Si3 0.750000 0.500000 0.184971
Si Si4 0.000000 0.864287 0.750000
Si Si5 0.887522 0.577087 0.570353
O O1 0.456340 0.787152 0.647172
O O2 0.245962 0.837651 0.780488
O O3 0.750000 0.250000 0.500000
O O4 0.500000 0.483197 0.250000
O O5 0.875094 0.466056 0.116597
O O6 0.108619 0.891036 0.658798
O O7 0.644894 0.583727 0.496180
#
# Coordination Sequence:
#
# PCOD8283602 Si02
#       5
#     8   8   8   8  16
#     4  11  26  44  69 104 137 176 223 274 335 406
#     4  11  24  45  74 102 134 177 224 271 330 404
#     4  12  24  44  72  94 134 182 234 294 346 400
#     4  12  26  45  67 100 145 176 221 284 341 409
#     4  12  26  44  68  99 133 182 232 282 345 404
#
# _framework density 21.382304999999999
#
# number of rings (size 3 to 8) (size 9 to 14) (size 15 to 20)
#    0.000    0.333    1.667    7.000    2.333   10.667 
#    0.000    0.000    0.000    0.000    0.000    0.000 
#    0.000    0.000    0.000    0.000    0.000    0.000 
#
# Total GULP energy -297658.703456 kJ/mol
# GULP energy per Si atom -12402.445977 kJ/mol
# Density = 2.133364 g / cm^3
# Si number density = 21.382305 Si / 1000 Ang^3
#
#
#
# Elastic Constant Matrix: (Units=GPa)
#
#
# Indices 1 2 3 4 5 6 
#
# 1 188.6245 52.6225 75.8736 0.0000 0.0000 0.0000
# 2 52.6225 137.5866 67.5560 0.0000 0.0000 0.0000
# 3 75.8736 67.5560 152.9246 0.0000 0.0000 0.0000
# 4 0.0000 0.0000 0.0000 -311.7114 0.0000 0.0000
# 5 0.0000 0.0000 0.0000 0.0000 50.9612 0.0000
# 6 0.0000 0.0000 0.0000 0.0000 0.0000 47.6769
#
#
#
# Elastic Compliance Matrix: (Units=1/GPa)
#
#
# Indices 1 2 3 4 5 6 
#
# 1 0.006775 -0.001201 -0.002831 0.000000 0.000000 0.000000
# 2 -0.001201 0.009494 -0.003598 0.000000 0.000000 0.000000
# 3 -0.002831 -0.003598 0.009533 0.000000 0.000000 0.000000
# 4 0.000000 0.000000 0.000000 -0.003208 0.000000 0.000000
# 5 0.000000 0.000000 0.000000 0.000000 0.019623 0.000000
# 6 0.000000 0.000000 0.000000 0.000000 0.000000 0.020975
#
#
# Mechanical properties :
#
#
# Convention : Reuss Voigt Hill
#
# Bulk Modulus (GPa) = 94.85752 96.80444 95.83098
# Shear Modulus (GPa) = 61.00000 -23.74244 18.62878
#
# Velocity S-wave (km/s) = 5.34698 -3.33585 2.95485
# Velocity P-wave (km/s) = 9.08731 5.52578 7.52042
#
# Compressibility (1/GPa) = 0.01054213
#
# Stress axis : x y z
#
# Youngs Moduli (GPa) = 147.59230 105.32553 104.89608
#
# Poissons Ratio (x) = 0.12654 0.29695
# Poissons Ratio (y) = 0.17732 0.37743
# Poissons Ratio (z) = 0.41782 0.37898
#
# Static dielectric constant tensor:
#      x y z
#    x 3.593410 0.000000 0.000000 
#    y 0.000000 4.006130 0.000000 
#    z 0.000000 0.000000 4.161650 
# 
# 
# High freq. dielectric constant tensor:
#      x y z
#    x 1.864420 0.000000 0.000000 
#    y 0.000000 1.849060 0.000000 
#    z 0.000000 0.000000 1.857380 
# 
# From -- ./inp_files/18248.got.cif
#   From: 2010.03.12/outbox.cif.g09.slc.cpg/sg68_10_cif.got.tgz:18248.got - 2010.04.10 23:14:56.
