data_PCOD8283525
_publ_section_title
;
Structure prediction by ZEFSAII (Michael W. Deem and Ramdas Pophale) SiO2 
 PCOD8283525
Probable space group: C C C A
;
_chemical_formula_sum "Si O2"
_cell_formula_units_Z 88
_cell_length_a 11.397892
_cell_length_b 23.070267
_cell_length_c 14.139711
_cell_angle_alpha 90.000000
_cell_angle_beta 90.000000
_cell_angle_gamma 90.000000
_cell_volume 3718.071108
_symmetry_space_group_name_H-M "C C C A"
_symmetry_group_IT_number 68
_space_group.IT_coordinate_system_code '2'
_symmetry_cell_setting 'orthorhombic'
loop_
_space_group_symop_operation_xyz
x,y,z
-x,1/2-y,z
x,1/2-y,1/2-z
-x,y,1/2-z
-x,-y,-z
x,1/2+y,-z
-x,1/2+y,1/2+z
x,-y,1/2+z
1/2+x,1/2+y,z
1/2-x,-y,z
1/2+x,-y,1/2-z
1/2-x,1/2+y,1/2-z
1/2-x,1/2-y,-z
1/2+x,y,-z
1/2-x,y,1/2+z
1/2+x,1/2-y,1/2+z
loop_
_atom_site_type_symbol
_atom_site_label
_atom_site_fract_x
_atom_site_fract_y
_atom_site_fract_z
Si Si1 0.856982 0.170801 0.458166
Si Si2 0.000000 0.250000 0.923839
Si Si3 0.011207 0.959939 0.139565
Si Si4 0.788143 0.605100 0.369661
Si Si5 0.352976 0.650836 0.833280
Si Si6 0.477655 0.414553 0.642263
O O1 0.776056 0.145806 0.540574
O O2 0.771615 0.175548 0.368293
O O3 0.972985 0.134530 0.427699
O O4 0.898604 0.231254 0.502690
O O5 0.045282 0.302347 0.856689
O O6 0.884126 0.942442 0.100470
O O7 0.000000 0.966781 0.250000
O O8 0.110656 0.911049 0.117209
O O9 0.039341 0.025505 0.104639
O O10 0.837586 0.641129 0.278888
O O11 0.662079 0.576368 0.357784
O O12 0.500000 0.397052 0.750000
#
# Coordination Sequence:
#
# PCOD8283525 Si02
#       6
#    16   8  16  16  16  16
#     4  12  26  45  72 104 140 185 241 302 350 428
#     4  12  26  49  71 104 144 190 251 306 349 420
#     4   9  21  42  71 105 139 186 234 288 358 439
#     4  11  23  44  71 106 138 182 236 283 357 429
#     4  11  24  47  71 103 144 186 242 296 362 420
#     4  11  23  46  73 101 148 186 225 294 370 430
#
# _framework density 23.668185999999999
#
# number of rings (size 3 to 8) (size 9 to 14) (size 15 to 20)
#    0.000    1.091    3.636    2.182    0.000    2.909 
#    3.273    0.455    0.000    0.000    0.000    0.000 
#    0.000    0.000    0.000    0.000    0.000    0.000 
#
# Total GULP energy -545183.491195 kJ/mol
# GULP energy per Si atom -12390.533891 kJ/mol
# Density = 2.361432 g / cm^3
# Si number density = 23.668186 Si / 1000 Ang^3
#
#
#
# Elastic Constant Matrix: (Units=GPa)
#
#
# Indices 1 2 3 4 5 6 
#
# 1 83.0372 1.7057 15.4185 0.0000 0.0000 0.0000
# 2 1.7057 94.6816 23.3440 0.0000 0.0000 0.0000
# 3 15.4185 23.3440 81.2872 0.0000 0.0000 0.0000
# 4 0.0000 0.0000 0.0000 27.9118 0.0000 0.0000
# 5 0.0000 0.0000 0.0000 0.0000 39.5928 0.0000
# 6 0.0000 0.0000 0.0000 0.0000 0.0000 -2.7835
#
#
#
# Elastic Compliance Matrix: (Units=1/GPa)
#
#
# Indices 1 2 3 4 5 6 
#
# 1 0.012496 0.000387 -0.002481 0.000000 0.000000 0.000000
# 2 0.000387 0.011378 -0.003341 0.000000 0.000000 0.000000
# 3 -0.002481 -0.003341 0.013732 0.000000 0.000000 0.000000
# 4 0.000000 0.000000 0.000000 0.035827 0.000000 0.000000
# 5 0.000000 0.000000 0.000000 0.000000 0.025257 0.000000
# 6 0.000000 0.000000 0.000000 0.000000 0.000000 -0.359260
#
#
# Mechanical properties :
#
#
# Convention : Reuss Voigt Hill
#
# Bulk Modulus (GPa) = 37.40401 37.77138 37.58769
# Shear Modulus (GPa) = -20.76525 27.51342 3.37408
#
# Velocity S-wave (km/s) = -2.96522 3.41319 1.19527
# Velocity P-wave (km/s) = 2.02840 5.61485 4.22143
#
# Compressibility (1/GPa) = 0.02673510
#
# Stress axis : x y z
#
# Youngs Moduli (GPa) = 80.02838 87.88522 72.82182
#
# Poissons Ratio (x) = -0.03398 0.18068
# Poissons Ratio (y) = -0.03094 0.24330
# Poissons Ratio (z) = 0.19856 0.29362
#
# Static dielectric constant tensor:
#      x y z
#    x 3.972400 0.000000 0.000000 
#    y 0.000000 4.602380 0.000000 
#    z 0.000000 0.000000 3.789970 
# 
# 
# High freq. dielectric constant tensor:
#      x y z
#    x 1.938610 0.000000 0.000000 
#    y 0.000000 1.926960 0.000000 
#    z 0.000000 0.000000 1.944060 
# 
# From -- ./inp_files/20967.got.cif
#   From: 2010.03.12/outbox.cif.g09.slc.cpg/sg68_11_cif.got.tgz:20967.got - 2010.04.10 23:14:56.
