data_PCOD8283816
_publ_section_title
;
Structure prediction by ZEFSAII (Michael W. Deem and Ramdas Pophale) SiO2 
 PCOD8283816
Probable space group: F M M M
;
_chemical_formula_sum "Si O2"
_cell_formula_units_Z 192
_cell_length_a 24.626096
_cell_length_b 23.547472
_cell_length_c 19.464080
_cell_angle_alpha 90.000000
_cell_angle_beta 90.000000
_cell_angle_gamma 90.000000
_cell_volume 11286.875595
_symmetry_space_group_name_H-M "F M M M"
_symmetry_group_IT_number 69
_symmetry_cell_setting 'orthorhombic'
loop_
_space_group_symop_operation_xyz
x,y,z
-x,-y,z
x,-y,-z
-x,y,-z
-x,-y,-z
x,y,-z
-x,y,z
x,-y,z
x,1/2+y,1/2+z
-x,1/2-y,1/2+z
x,1/2-y,1/2-z
-x,1/2+y,1/2-z
-x,1/2-y,1/2-z
x,1/2+y,1/2-z
-x,1/2+y,1/2+z
x,1/2-y,1/2+z
1/2+x,y,1/2+z
1/2-x,-y,1/2+z
1/2+x,-y,1/2-z
1/2-x,y,1/2-z
1/2-x,-y,1/2-z
1/2+x,y,1/2-z
1/2-x,y,1/2+z
1/2+x,-y,1/2+z
1/2+x,1/2+y,z
1/2-x,1/2-y,z
1/2+x,1/2-y,-z
1/2-x,1/2+y,-z
1/2-x,1/2-y,-z
1/2+x,1/2+y,-z
1/2-x,1/2+y,z
1/2+x,1/2-y,z
loop_
_atom_site_type_symbol
_atom_site_label
_atom_site_fract_x
_atom_site_fract_y
_atom_site_fract_z
Si Si1 0.500000 0.063036 0.188796
Si Si2 0.783828 0.564501 0.184298
Si Si3 0.561253 0.243815 0.831259
Si Si4 0.690466 0.063659 0.420245
Si Si5 0.600715 0.364540 0.148715
Si Si6 0.106539 0.872349 0.311204
Si Si7 0.500000 0.436275 0.852353
O O1 0.554530 0.092855 0.161570
O O2 0.500000 0.063643 0.270631
O O3 0.500000 0.000000 0.158806
O O4 0.802044 0.500000 0.201581
O O5 0.750000 0.588482 0.250000
O O6 0.748405 0.567689 0.115995
O O7 0.836797 0.600920 0.165697
O O8 0.500000 0.235288 0.860491
O O9 0.556138 0.250000 0.750000
O O10 0.588732 0.298439 0.867246
O O11 0.600056 0.189897 0.845238
O O12 0.699735 0.075066 0.500000
O O13 0.653684 0.113725 0.390100
O O14 0.665932 0.000000 0.407278
O O15 0.607684 0.372069 0.229337
O O16 0.552106 0.403054 0.119718
O O17 0.500000 0.500000 0.882190
#
# Coordination Sequence:
#
# PCOD8283816 Si02
#       7
#    16  32  32  32  32  32  16
#     4   9  16  23  39  72 107 129 154 201 264 317
#     4  10  19  32  52  76 103 136 177 221 268 317
#     4   9  16  28  46  71 101 137 169 209 262 308
#     4  10  21  36  53  74 104 142 179 218 265 317
#     4  10  17  29  48  70 101 139 174 210 257 309
#     4  10  17  28  48  75 105 134 169 215 264 314
#     4   9  16  23  40  69  97 129 167 207 251 303
#
# _framework density 17.010908000000001
#
# number of rings (size 3 to 8) (size 9 to 14) (size 15 to 20)
#    0.000    2.333    3.333    1.000    0.000    1.333 
#    0.000    1.250    0.000    3.500    0.000    0.583 
#    0.000    3.333    0.000    0.000    0.000    0.000 
#
# Total GULP energy -594997.379256 kJ/mol
# GULP energy per Si atom -12395.778734 kJ/mol
# Density = 1.697219 g / cm^3
# Si number density = 17.010908 Si / 1000 Ang^3
#
#
#
# Elastic Constant Matrix: (Units=GPa)
#
#
# Indices 1 2 3 4 5 6 
#
# 1 124.1854 79.3251 23.9014 0.0000 0.0000 0.0000
# 2 79.3251 148.6640 32.3147 0.0000 0.0000 0.0000
# 3 23.9014 32.3147 41.0206 0.0000 0.0000 0.0000
# 4 0.0000 0.0000 0.0000 13.1816 0.0000 0.0000
# 5 0.0000 0.0000 0.0000 0.0000 9.9731 0.0000
# 6 0.0000 0.0000 0.0000 0.0000 0.0000 30.8856
#
#
#
# Elastic Compliance Matrix: (Units=1/GPa)
#
#
# Indices 1 2 3 4 5 6 
#
# 1 0.012414 -0.006095 -0.002431 0.000000 0.000000 0.000000
# 2 -0.006095 0.011109 -0.005200 0.000000 0.000000 0.000000
# 3 -0.002431 -0.005200 0.029891 0.000000 0.000000 0.000000
# 4 0.000000 0.000000 0.000000 0.075863 0.000000 0.000000
# 5 0.000000 0.000000 0.000000 0.000000 0.100269 0.000000
# 6 0.000000 0.000000 0.000000 0.000000 0.000000 0.032378
#
#
# Mechanical properties :
#
#
# Convention : Reuss Voigt Hill
#
# Bulk Modulus (GPa) = 38.51974 64.99472 51.75723
# Shear Modulus (GPa) = 16.77673 22.69665 19.73669
#
# Velocity S-wave (km/s) = 3.14384 3.65669 3.40992
# Velocity P-wave (km/s) = 5.98929 7.49127 6.78199
#
# Compressibility (1/GPa) = 0.02596071
#
# Stress axis : x y z
#
# Youngs Moduli (GPa) = 80.55440 90.01466 33.45485
#
# Poissons Ratio (x) = 0.54868 0.08134
# Poissons Ratio (y) = 0.49101 0.17396
# Poissons Ratio (z) = 0.19586 0.46807
#
# Static dielectric constant tensor:
#      x y z
#    x 3.188930 0.000000 0.000000 
#    y 0.000000 3.427490 0.000000 
#    z 0.000000 0.000000 2.642660 
# 
# 
# High freq. dielectric constant tensor:
#      x y z
#    x 1.659000 0.000000 0.000000 
#    y 0.000000 1.661840 0.000000 
#    z 0.000000 0.000000 1.595810 
# 
# From -- ./inp_files/32186.got.cif
#   From: 2010.03.12/outbox.cif.g09.slc.cpg/sg69_17_cif.got.tgz:32186.got - 2010.04.10 23:52:46.
