data_PCOD8283893
_publ_section_title
;
Structure prediction by ZEFSAII (Michael W. Deem and Ramdas Pophale) SiO2 
 PCOD8283893
Probable space group: F M M M
;
_chemical_formula_sum "Si O2"
_cell_formula_units_Z 192
_cell_length_a 21.657070
_cell_length_b 19.150094
_cell_length_c 25.767343
_cell_angle_alpha 90.000000
_cell_angle_beta 90.000000
_cell_angle_gamma 90.000000
_cell_volume 10686.617099
_symmetry_space_group_name_H-M "F M M M"
_symmetry_group_IT_number 69
_symmetry_cell_setting 'orthorhombic'
loop_
_space_group_symop_operation_xyz
x,y,z
-x,-y,z
x,-y,-z
-x,y,-z
-x,-y,-z
x,y,-z
-x,y,z
x,-y,z
x,1/2+y,1/2+z
-x,1/2-y,1/2+z
x,1/2-y,1/2-z
-x,1/2+y,1/2-z
-x,1/2-y,1/2-z
x,1/2+y,1/2-z
-x,1/2+y,1/2+z
x,1/2-y,1/2+z
1/2+x,y,1/2+z
1/2-x,-y,1/2+z
1/2+x,-y,1/2-z
1/2-x,y,1/2-z
1/2-x,-y,1/2-z
1/2+x,y,1/2-z
1/2-x,y,1/2+z
1/2+x,-y,1/2+z
1/2+x,1/2+y,z
1/2-x,1/2-y,z
1/2+x,1/2-y,-z
1/2-x,1/2+y,-z
1/2-x,1/2-y,-z
1/2+x,1/2+y,-z
1/2-x,1/2+y,z
1/2+x,1/2-y,z
loop_
_atom_site_type_symbol
_atom_site_label
_atom_site_fract_x
_atom_site_fract_y
_atom_site_fract_z
Si Si1 0.216561 0.923090 0.195709
Si Si2 0.612323 0.678187 0.777512
Si Si3 0.432900 0.111753 0.824237
Si Si4 0.317022 0.278331 0.560743
Si Si5 0.179900 0.423642 0.886409
Si Si6 0.933297 0.741178 0.622873
O O1 0.250000 0.924356 0.250000
O O2 0.168713 0.860776 0.195765
O O3 0.263471 0.904020 0.150230
O O4 0.186763 0.000000 0.185668
O O5 0.634852 0.750000 0.750000
O O6 0.579479 0.628122 0.736180
O O7 0.567567 0.693383 0.825698
O O8 0.500000 0.074419 0.827487
O O9 0.379664 0.065044 0.849289
O O10 0.433770 0.180219 0.858567
O O11 0.323842 0.266703 0.500000
O O12 0.250000 0.250000 0.579896
O O13 0.325112 0.361124 0.572198
O O14 0.372646 0.232750 0.586572
O O15 0.189575 0.500000 0.913669
O O16 0.000000 0.725182 0.594858
#
# Coordination Sequence:
#
# PCOD8283893 Si02
#       6
#    32  32  32  32  32  32
#     4  10  19  31  45  67 103 138 170 210 260 310
#     4  10  18  29  48  73 100 133 177 215 245 299
#     4   9  17  29  44  67  99 132 165 203 244 289
#     4  10  21  37  56  78 102 129 170 222 270 316
#     4  10  20  34  50  71 101 136 170 208 254 305
#     4   9  18  32  50  73 100 131 166 210 260 306
#
# _framework density 17.966397000000001
#
# number of rings (size 3 to 8) (size 9 to 14) (size 15 to 20)
#    0.000    2.333    1.667    1.500    0.000    3.333 
#    0.000    0.000    0.000    1.500    0.000    4.667 
#    0.000    0.000    0.000   14.333    0.000    0.000 
#
# Total GULP energy -594642.869824 kJ/mol
# GULP energy per Si atom -12388.393121 kJ/mol
# Density = 1.792550 g / cm^3
# Si number density = 17.966397 Si / 1000 Ang^3
#
#
#
# Elastic Constant Matrix: (Units=GPa)
#
#
# Indices 1 2 3 4 5 6 
#
# 1 139.4027 30.9097 32.8510 0.0000 0.0000 0.0000
# 2 30.9097 49.3155 11.5171 0.0000 0.0000 0.0000
# 3 32.8510 11.5171 59.1162 0.0000 0.0000 0.0000
# 4 0.0000 0.0000 0.0000 19.7042 0.0000 0.0000
# 5 0.0000 0.0000 0.0000 0.0000 18.8546 0.0000
# 6 0.0000 0.0000 0.0000 0.0000 0.0000 -4.6264
#
#
#
# Elastic Compliance Matrix: (Units=1/GPa)
#
#
# Indices 1 2 3 4 5 6 
#
# 1 0.009226 -0.004804 -0.004191 0.000000 0.000000 0.000000
# 2 -0.004804 0.023746 -0.001957 0.000000 0.000000 0.000000
# 3 -0.004191 -0.001957 0.019626 0.000000 0.000000 0.000000
# 4 0.000000 0.000000 0.000000 0.050751 0.000000 0.000000
# 5 0.000000 0.000000 0.000000 0.000000 0.053038 0.000000
# 6 0.000000 0.000000 0.000000 0.000000 0.000000 -0.216151
#
#
# Mechanical properties :
#
#
# Convention : Reuss Voigt Hill
#
# Bulk Modulus (GPa) = 32.57913 44.26555 38.42234
# Shear Modulus (GPa) = -180.96308 18.29026 -81.33641
#
# Velocity S-wave (km/s) = -10.04698 3.19411 -6.73570
# Velocity P-wave (km/s) = 10.78964 6.18826 6.24987
#
# Compressibility (1/GPa) = 0.03069450
#
# Stress axis : x y z
#
# Youngs Moduli (GPa) = 108.38553 42.11316 50.95274
#
# Poissons Ratio (x) = 0.20231 0.21355
# Poissons Ratio (y) = 0.52069 0.09969
# Poissons Ratio (z) = 0.45426 0.08240
#
# Static dielectric constant tensor:
#      x y z
#    x 3.692330 0.000000 0.000000 
#    y 0.000000 3.365890 0.000000 
#    z 0.000000 0.000000 3.050430 
# 
# 
# High freq. dielectric constant tensor:
#      x y z
#    x 1.702680 0.000000 0.000000 
#    y 0.000000 1.683890 0.000000 
#    z 0.000000 0.000000 1.667480 
# 
# From -- ./inp_files/32040.got.cif
#   From: 2010.03.12/outbox.cif.g09.slc.cpg/sg69_17_cif.got.tgz:32040.got - 2010.04.10 23:52:46.
