data_PCOD8283229
_publ_section_title
;
Structure prediction by ZEFSAII (Michael W. Deem and Ramdas Pophale) SiO2 
 PCOD8283229
Probable space group: C C C A
;
_chemical_formula_sum "Si O2"
_cell_formula_units_Z 84
_cell_length_a 19.942247
_cell_length_b 20.296776
_cell_length_c 9.244114
_cell_angle_alpha 90.000000
_cell_angle_beta 90.000000
_cell_angle_gamma 90.000000
_cell_volume 3741.678276
_symmetry_space_group_name_H-M "C C C A"
_symmetry_group_IT_number 68
_space_group.IT_coordinate_system_code '2'
_symmetry_cell_setting 'orthorhombic'
loop_
_space_group_symop_operation_xyz
x,y,z
-x,1/2-y,z
x,1/2-y,1/2-z
-x,y,1/2-z
-x,-y,-z
x,1/2+y,-z
-x,1/2+y,1/2+z
x,-y,1/2+z
1/2+x,1/2+y,z
1/2-x,-y,z
1/2+x,-y,1/2-z
1/2-x,1/2+y,1/2-z
1/2-x,1/2-y,-z
1/2+x,y,-z
1/2-x,y,1/2+z
1/2+x,1/2-y,1/2+z
loop_
_atom_site_type_symbol
_atom_site_label
_atom_site_fract_x
_atom_site_fract_y
_atom_site_fract_z
Si Si1 0.571899 0.937844 0.803513
Si Si2 0.750000 0.000000 0.454164
Si Si3 0.183249 0.128862 0.161177
Si Si4 0.381907 0.671115 0.618066
Si Si5 0.500000 0.250000 0.250000
Si Si6 0.122650 0.050514 0.388934
Si Si7 0.230094 0.250000 0.750000
O O1 0.500000 0.913599 0.750000
O O2 0.624884 0.884768 0.742568
O O3 0.587568 0.009438 0.739109
O O4 0.572218 0.937558 0.977802
O O5 0.731872 0.935024 0.360218
O O6 0.813260 0.987769 0.553918
O O7 0.144765 0.118993 0.314216
O O8 0.225782 0.195132 0.171057
O O9 0.125767 0.136451 0.038148
O O10 0.452650 0.708623 0.640370
O O11 0.318078 0.718888 0.628699
#
# Coordination Sequence:
#
# PCOD8283229 Si02
#       7
#    16   8  16  16   4  16   8
#     4  12  24  45  71  99 137 186 234 286 349 414
#     4  12  22  42  72 106 148 184 220 292 364 430
#     4  12  25  44  71 109 144 181 234 290 361 420
#     4  11  23  47  71 100 139 187 238 283 347 425
#     4  10  24  44  76  94 136 198 238 288 348 414
#     4  12  25  42  71 108 143 179 231 293 355 426
#     4  11  26  43  72 107 140 189 232 296 352 425
#
# _framework density 22.449819000000002
#
# number of rings (size 3 to 8) (size 9 to 14) (size 15 to 20)
#    0.000    0.381    4.762    4.000    0.000    3.048 
#    0.000    0.000    0.000    0.000    0.000    0.000 
#    0.000    0.000    0.000    0.000    0.000    0.000 
#
# Total GULP energy -520736.162924 kJ/mol
# GULP energy per Si atom -12398.480070 kJ/mol
# Density = 2.239872 g / cm^3
# Si number density = 22.449819 Si / 1000 Ang^3
#
#
#
# Elastic Constant Matrix: (Units=GPa)
#
#
# Indices 1 2 3 4 5 6 
#
# 1 99.9456 46.2646 49.9766 0.0000 0.0000 0.0000
# 2 46.2646 129.6544 53.6233 0.0000 0.0000 0.0000
# 3 49.9766 53.6233 148.1699 0.0000 0.0000 0.0000
# 4 0.0000 0.0000 0.0000 38.1723 0.0000 0.0000
# 5 0.0000 0.0000 0.0000 0.0000 17.4065 0.0000
# 6 0.0000 0.0000 0.0000 0.0000 0.0000 25.9043
#
#
#
# Elastic Compliance Matrix: (Units=1/GPa)
#
#
# Indices 1 2 3 4 5 6 
#
# 1 0.013178 -0.003368 -0.003226 0.000000 0.000000 0.000000
# 2 -0.003368 0.009931 -0.002458 0.000000 0.000000 0.000000
# 3 -0.003226 -0.002458 0.008727 0.000000 0.000000 0.000000
# 4 0.000000 0.000000 0.000000 0.026197 0.000000 0.000000
# 5 0.000000 0.000000 0.000000 0.000000 0.057450 0.000000
# 6 0.000000 0.000000 0.000000 0.000000 0.000000 0.038604
#
#
# Mechanical properties :
#
#
# Convention : Reuss Voigt Hill
#
# Bulk Modulus (GPa) = 72.82500 75.27766 74.05133
# Shear Modulus (GPa) = 28.28580 31.49030 29.88805
#
# Velocity S-wave (km/s) = 3.55344 3.74932 3.65269
# Velocity P-wave (km/s) = 7.02462 7.23516 7.13067
#
# Compressibility (1/GPa) = 0.01373155
#
# Stress axis : x y z
#
# Youngs Moduli (GPa) = 75.88693 100.69194 114.59137
#
# Poissons Ratio (x) = 0.33913 0.36965
# Poissons Ratio (y) = 0.25559 0.28168
# Poissons Ratio (z) = 0.24479 0.24752
#
# Static dielectric constant tensor:
#      x y z
#    x 4.063540 0.000000 0.000000 
#    y 0.000000 4.162850 0.000000 
#    z 0.000000 0.000000 3.975440 
# 
# 
# High freq. dielectric constant tensor:
#      x y z
#    x 1.880990 0.000000 0.000000 
#    y 0.000000 1.891760 0.000000 
#    z 0.000000 0.000000 1.882430 
# 
# From -- ./inp_files/7099.got.cif
#   From: 2010.03.12/outbox.cif.g09.slc.cpg/sg68_4_cif.got.tgz:7099.got - 2010.04.10 23:14:56.
