data_PCOD8283066
_publ_section_title
;
Structure prediction by ZEFSAII (Michael W. Deem and Ramdas Pophale) SiO2 
 PCOD8283066
Probable space group: C C C A
;
_chemical_formula_sum "Si O2"
_cell_formula_units_Z 60
_cell_length_a 6.811633
_cell_length_b 26.373565
_cell_length_c 14.030060
_cell_angle_alpha 90.000000
_cell_angle_beta 90.000000
_cell_angle_gamma 90.000000
_cell_volume 2520.458830
_symmetry_space_group_name_H-M "C C C A"
_symmetry_group_IT_number 68
_space_group.IT_coordinate_system_code '2'
_symmetry_cell_setting 'orthorhombic'
loop_
_space_group_symop_operation_xyz
x,y,z
-x,1/2-y,z
x,1/2-y,1/2-z
-x,y,1/2-z
-x,-y,-z
x,1/2+y,-z
-x,1/2+y,1/2+z
x,-y,1/2+z
1/2+x,1/2+y,z
1/2-x,-y,z
1/2+x,-y,1/2-z
1/2-x,1/2+y,1/2-z
1/2-x,1/2-y,-z
1/2+x,y,-z
1/2-x,y,1/2+z
1/2+x,1/2-y,1/2+z
loop_
_atom_site_type_symbol
_atom_site_label
_atom_site_fract_x
_atom_site_fract_y
_atom_site_fract_z
Si Si1 0.500000 0.750000 0.750000
Si Si2 0.000000 0.933807 0.250000
Si Si3 0.126638 0.618738 0.834914
Si Si4 0.469640 0.487927 0.891630
Si Si5 0.191222 0.721753 0.902111
O O1 0.360950 0.718720 0.821778
O O2 0.839654 0.897814 0.297912
O O3 0.098473 0.972192 0.329380
O O4 0.994980 0.571599 0.872963
O O5 0.145070 0.661705 0.917828
O O6 0.000000 0.643721 0.750000
O O7 0.250000 0.500000 0.858838
O O8 0.500000 0.500000 0.000000
O O9 0.000000 0.750000 0.861395
O O10 0.250000 0.750000 0.000000
#
# Coordination Sequence:
#
# PCOD8283066 Si02
#       5
#     4   8  16  16  16
#     4  12  24  52  80 100 156 200 250 342 380 444
#     4  10  23  46  66 107 141 182 244 299 378 452
#     4  11  24  44  75  99 143 198 239 310 384 448
#     4  10  23  39  66 102 139 183 232 296 364 449
#     4  12  27  50  76 111 152 201 268 325 390 465
#
# _framework density 23.805191000000001
#
# number of rings (size 3 to 8) (size 9 to 14) (size 15 to 20)
#    0.000    1.067    2.667    2.800    3.733    4.267 
#    4.800    0.000    0.000    0.000    0.000    0.000 
#    0.000    0.000    0.000    0.000    0.000    0.000 
#
# Total GULP energy -371701.715564 kJ/mol
# GULP energy per Si atom -12390.057185 kJ/mol
# Density = 2.375101 g / cm^3
# Si number density = 23.805191 Si / 1000 Ang^3
#
#
#
# Elastic Constant Matrix: (Units=GPa)
#
#
# Indices 1 2 3 4 5 6 
#
# 1 86.7363 48.3601 18.6211 0.0000 0.0000 0.0000
# 2 48.3601 208.9017 69.5985 0.0000 0.0000 0.0000
# 3 18.6211 69.5985 153.6486 0.0000 0.0000 0.0000
# 4 0.0000 0.0000 0.0000 45.6526 0.0000 0.0000
# 5 0.0000 0.0000 0.0000 0.0000 32.8189 0.0000
# 6 0.0000 0.0000 0.0000 0.0000 0.0000 29.7627
#
#
#
# Elastic Compliance Matrix: (Units=1/GPa)
#
#
# Indices 1 2 3 4 5 6 
#
# 1 0.013246 -0.002982 -0.000255 0.000000 0.000000 0.000000
# 2 -0.002982 0.006309 -0.002496 0.000000 0.000000 0.000000
# 3 -0.000255 -0.002496 0.007670 0.000000 0.000000 0.000000
# 4 0.000000 0.000000 0.000000 0.021905 0.000000 0.000000
# 5 0.000000 0.000000 0.000000 0.000000 0.030470 0.000000
# 6 0.000000 0.000000 0.000000 0.000000 0.000000 0.033599
#
#
# Mechanical properties :
#
#
# Convention : Reuss Voigt Hill
#
# Bulk Modulus (GPa) = 63.45313 80.27179 71.86246
# Shear Modulus (GPa) = 38.48587 42.49398 40.48993
#
# Velocity S-wave (km/s) = 4.02518 4.22960 4.12865
# Velocity P-wave (km/s) = 6.95096 7.59250 7.27880
#
# Compressibility (1/GPa) = 0.01575966
#
# Stress axis : x y z
#
# Youngs Moduli (GPa) = 75.49283 158.50675 130.37759
#
# Poissons Ratio (x) = 0.47260 0.03322
# Poissons Ratio (y) = 0.22509 0.32547
# Poissons Ratio (z) = 0.01923 0.39570
#
# Static dielectric constant tensor:
#      x y z
#    x 4.620120 0.000000 0.000000 
#    y 0.000000 4.401270 0.000000 
#    z 0.000000 0.000000 4.045120 
# 
# 
# High freq. dielectric constant tensor:
#      x y z
#    x 1.951600 0.000000 0.000000 
#    y 0.000000 1.952200 0.000000 
#    z 0.000000 0.000000 1.934660 
# 
# From -- ./inp_files/19351.got.cif
#   From: 2010.03.12/outbox.cif.g09.slc.cpg/sg68_10_cif.got.tgz:19351.got - 2010.04.10 23:14:56.
