data_PCOD8283001
_publ_section_title
;
Structure prediction by ZEFSAII (Michael W. Deem and Ramdas Pophale) SiO2 
 PCOD8283001
Probable space group: C C C A
;
_chemical_formula_sum "Si O2"
_cell_formula_units_Z 88
_cell_length_a 8.478703
_cell_length_b 20.583081
_cell_length_c 22.140278
_cell_angle_alpha 90.000000
_cell_angle_beta 90.000000
_cell_angle_gamma 90.000000
_cell_volume 3863.873286
_symmetry_space_group_name_H-M "C C C A"
_symmetry_group_IT_number 68
_space_group.IT_coordinate_system_code '2'
_symmetry_cell_setting 'orthorhombic'
loop_
_space_group_symop_operation_xyz
x,y,z
-x,1/2-y,z
x,1/2-y,1/2-z
-x,y,1/2-z
-x,-y,-z
x,1/2+y,-z
-x,1/2+y,1/2+z
x,-y,1/2+z
1/2+x,1/2+y,z
1/2-x,-y,z
1/2+x,-y,1/2-z
1/2-x,1/2+y,1/2-z
1/2-x,1/2-y,-z
1/2+x,y,-z
1/2-x,y,1/2+z
1/2+x,1/2-y,1/2+z
loop_
_atom_site_type_symbol
_atom_site_label
_atom_site_fract_x
_atom_site_fract_y
_atom_site_fract_z
Si Si1 0.774652 0.925448 0.698766
Si Si2 0.250000 0.500000 0.416079
Si Si3 0.631708 0.898112 0.323510
Si Si4 0.686947 0.348292 0.412478
Si Si5 0.868942 0.380107 0.520643
Si Si6 0.165411 0.216470 0.093207
O O1 0.739014 0.911634 0.769976
O O2 0.667073 0.885630 0.651414
O O3 0.953116 0.903032 0.695982
O O4 0.750000 0.000000 0.683089
O O5 0.351276 0.548534 0.375654
O O6 0.142996 0.544913 0.459094
O O7 0.656064 0.824172 0.345015
O O8 0.844297 0.376048 0.447735
O O9 0.535022 0.355848 0.454793
O O10 0.706189 0.272713 0.397136
O O11 0.726805 0.332949 0.542243
O O12 0.000000 0.250000 0.073932
#
# Coordination Sequence:
#
# PCOD8283001 Si02
#       6
#    16   8  16  16  16  16
#     4  11  23  41  69 101 137 177 229 280 347 418
#     4  10  22  44  66 100 142 178 228 284 356 414
#     4  10  22  43  70 101 133 183 224 288 346 414
#     4  12  25  43  66 105 139 186 237 287 349 417
#     4  11  26  42  71  99 144 186 230 293 347 418
#     4  11  22  45  70  98 138 183 236 278 349 416
#
# _framework density 22.775075999999999
#
# number of rings (size 3 to 8) (size 9 to 14) (size 15 to 20)
#    0.000    1.091    2.727    3.273    3.818    1.455 
#    0.000    0.000    0.000    4.364    0.000    0.000 
#    0.000    0.000    0.000    0.000    0.000    0.000 
#
# Total GULP energy -545337.316880 kJ/mol
# GULP energy per Si atom -12394.029929 kJ/mol
# Density = 2.272324 g / cm^3
# Si number density = 22.775076 Si / 1000 Ang^3
#
#
#
# Elastic Constant Matrix: (Units=GPa)
#
#
# Indices 1 2 3 4 5 6 
#
# 1 76.5483 40.9162 17.6547 0.0000 0.0000 0.0000
# 2 40.9162 170.8266 57.2161 0.0000 0.0000 0.0000
# 3 17.6547 57.2161 98.6942 0.0000 0.0000 0.0000
# 4 0.0000 0.0000 0.0000 29.1971 0.0000 0.0000
# 5 0.0000 0.0000 0.0000 0.0000 24.3381 0.0000
# 6 0.0000 0.0000 0.0000 0.0000 0.0000 38.8236
#
#
#
# Elastic Compliance Matrix: (Units=1/GPa)
#
#
# Indices 1 2 3 4 5 6 
#
# 1 0.015026 -0.003349 -0.000746 0.000000 0.000000 0.000000
# 2 -0.003349 0.008011 -0.004045 0.000000 0.000000 0.000000
# 3 -0.000746 -0.004045 0.012611 0.000000 0.000000 0.000000
# 4 0.000000 0.000000 0.000000 0.034250 0.000000 0.000000
# 5 0.000000 0.000000 0.000000 0.000000 0.041088 0.000000
# 6 0.000000 0.000000 0.000000 0.000000 0.000000 0.025758
#
#
# Mechanical properties :
#
#
# Convention : Reuss Voigt Hill
#
# Bulk Modulus (GPa) = 51.63481 64.18255 57.90868
# Shear Modulus (GPa) = 31.35201 33.82390 32.58795
#
# Velocity S-wave (km/s) = 3.71427 3.85792 3.78678
# Velocity P-wave (km/s) = 6.41212 6.93447 6.67840
#
# Compressibility (1/GPa) = 0.01936678
#
# Stress axis : x y z
#
# Youngs Moduli (GPa) = 66.55186 124.83014 79.29664
#
# Poissons Ratio (x) = 0.41806 0.05918
# Poissons Ratio (y) = 0.22288 0.32076
# Poissons Ratio (z) = 0.04967 0.50495
#
# Static dielectric constant tensor:
#      x y z
#    x 3.819020 0.000000 0.000000 
#    y 0.000000 4.289270 0.000000 
#    z 0.000000 0.000000 4.784570 
# 
# 
# High freq. dielectric constant tensor:
#      x y z
#    x 1.882400 0.000000 0.000000 
#    y 0.000000 1.912480 0.000000 
#    z 0.000000 0.000000 1.905880 
# 
# From -- ./inp_files/43154.got.cif
#   From: 2010.03.12/outbox.cif.g09.slc.cpg/sg68_22_cif.got.tgz:43154.got - 2010.04.10 23:14:56.
