data_PCOD8283887
_publ_section_title
;
Structure prediction by ZEFSAII (Michael W. Deem and Ramdas Pophale) SiO2 
 PCOD8283887
Probable space group: F M M M
;
_chemical_formula_sum "Si O2"
_cell_formula_units_Z 192
_cell_length_a 15.927922
_cell_length_b 33.320723
_cell_length_c 19.861481
_cell_angle_alpha 90.000000
_cell_angle_beta 90.000000
_cell_angle_gamma 90.000000
_cell_volume 10541.081367
_symmetry_space_group_name_H-M "F M M M"
_symmetry_group_IT_number 69
_symmetry_cell_setting 'orthorhombic'
loop_
_space_group_symop_operation_xyz
x,y,z
-x,-y,z
x,-y,-z
-x,y,-z
-x,-y,-z
x,y,-z
-x,y,z
x,-y,z
x,1/2+y,1/2+z
-x,1/2-y,1/2+z
x,1/2-y,1/2-z
-x,1/2+y,1/2-z
-x,1/2-y,1/2-z
x,1/2+y,1/2-z
-x,1/2+y,1/2+z
x,1/2-y,1/2+z
1/2+x,y,1/2+z
1/2-x,-y,1/2+z
1/2+x,-y,1/2-z
1/2-x,y,1/2-z
1/2-x,-y,1/2-z
1/2+x,y,1/2-z
1/2-x,y,1/2+z
1/2+x,-y,1/2+z
1/2+x,1/2+y,z
1/2-x,1/2-y,z
1/2+x,1/2-y,-z
1/2-x,1/2+y,-z
1/2-x,1/2-y,-z
1/2+x,1/2+y,-z
1/2-x,1/2+y,z
1/2+x,1/2-y,z
loop_
_atom_site_type_symbol
_atom_site_label
_atom_site_fract_x
_atom_site_fract_y
_atom_site_fract_z
Si Si1 0.500000 0.544401 0.578124
Si Si2 0.311498 0.602071 0.865140
Si Si3 0.595231 0.044792 0.728606
Si Si4 0.330881 0.045951 0.130289
Si Si5 0.404008 0.793275 0.717266
Si Si6 0.250000 0.654135 0.250000
Si Si7 0.903223 0.826106 0.925642
O O1 0.500000 0.500000 0.613237
O O2 0.500000 0.539536 0.500000
O O3 0.415002 0.566670 0.600508
O O4 0.385440 0.578433 0.826739
O O5 0.249336 0.569689 0.898916
O O6 0.251761 0.627300 0.815995
O O7 0.352264 0.632308 0.918459
O O8 0.500000 0.051416 0.755087
O O9 0.662291 0.048820 0.788881
O O10 0.604355 0.000000 0.697142
O O11 0.321794 0.000000 0.105842
O O12 0.500000 0.808356 0.729798
O O13 0.392218 0.750000 0.750000
O O14 0.336400 0.820619 0.755317
O O15 0.384288 0.794951 0.636091
O O16 0.000000 0.838060 0.923622
O O17 0.880678 0.807615 0.000000
#
# Coordination Sequence:
#
# PCOD8283887 Si02
#       7
#    16  32  32  32  32  16  32
#     4   9  18  32  46  60  82 122 176 223 265 313
#     4  11  19  30  47  74 101 137 170 211 264 315
#     4  10  18  29  46  69 100 134 173 225 279 320
#     4  10  18  30  45  65  95 131 176 227 270 308
#     4   9  18  34  57  81 106 135 171 211 252 304
#     4  10  19  30  47  80 110 132 160 206 259 310
#     4   9  19  35  54  78 108 139 169 205 252 310
#
# _framework density 18.214449999999999
#
# number of rings (size 3 to 8) (size 9 to 14) (size 15 to 20)
#    0.000    2.250    2.500    1.250    0.000    2.667 
#    1.500    0.000    0.000    9.500    0.000    5.833 
#    0.000    0.000    0.000    0.000    0.000    0.000 
#
# Total GULP energy -594749.069008 kJ/mol
# GULP energy per Si atom -12390.605604 kJ/mol
# Density = 1.817299 g / cm^3
# Si number density = 18.214450 Si / 1000 Ang^3
#
#
#
# Elastic Constant Matrix: (Units=GPa)
#
#
# Indices 1 2 3 4 5 6 
#
# 1 90.0483 40.8760 27.7648 0.0000 0.0000 0.0000
# 2 40.8760 77.2080 35.7425 0.0000 0.0000 0.0000
# 3 27.7648 35.7425 79.4837 0.0000 0.0000 0.0000
# 4 0.0000 0.0000 0.0000 18.3043 0.0000 0.0000
# 5 0.0000 0.0000 0.0000 0.0000 17.8198 0.0000
# 6 0.0000 0.0000 0.0000 0.0000 0.0000 27.8574
#
#
#
# Elastic Compliance Matrix: (Units=1/GPa)
#
#
# Indices 1 2 3 4 5 6 
#
# 1 0.014889 -0.006914 -0.002092 0.000000 0.000000 0.000000
# 2 -0.006914 0.019568 -0.006384 0.000000 0.000000 0.000000
# 3 -0.002092 -0.006384 0.016183 0.000000 0.000000 0.000000
# 4 0.000000 0.000000 0.000000 0.054632 0.000000 0.000000
# 5 0.000000 0.000000 0.000000 0.000000 0.056117 0.000000
# 6 0.000000 0.000000 0.000000 0.000000 0.000000 0.035897
#
#
# Mechanical properties :
#
#
# Convention : Reuss Voigt Hill
#
# Bulk Modulus (GPa) = 50.35400 50.61185 50.48293
# Shear Modulus (GPa) = 21.30512 22.28676 21.79594
#
# Velocity S-wave (km/s) = 3.42377 3.50176 3.46299
# Velocity P-wave (km/s) = 6.58291 6.64806 6.61557
#
# Compressibility (1/GPa) = 0.01985939
#
# Stress axis : x y z
#
# Youngs Moduli (GPa) = 67.16531 51.10372 61.79436
#
# Poissons Ratio (x) = 0.35334 0.12925
# Poissons Ratio (y) = 0.46439 0.39451
# Poissons Ratio (z) = 0.14049 0.32626
#
# Static dielectric constant tensor:
#      x y z
#    x 3.552530 0.000000 0.000000 
#    y 0.000000 3.254590 0.000000 
#    z 0.000000 0.000000 3.204920 
# 
# 
# High freq. dielectric constant tensor:
#      x y z
#    x 1.721070 0.000000 0.000000 
#    y 0.000000 1.679630 0.000000 
#    z 0.000000 0.000000 1.678310 
# 
# From -- ./inp_files/23746.got.cif
#   From: 2010.03.12/outbox.cif.g09.slc.cpg/sg69_12_cif.got.tgz:23746.got - 2010.04.10 23:52:46.
