data_PCOD8283503
_publ_section_title
;
Structure prediction by ZEFSAII (Michael W. Deem and Ramdas Pophale) SiO2 
 PCOD8283503
Probable space group: C C C A
;
_chemical_formula_sum "Si O2"
_cell_formula_units_Z 80
_cell_length_a 18.335477
_cell_length_b 22.556462
_cell_length_c 8.679430
_cell_angle_alpha 90.000000
_cell_angle_beta 90.000000
_cell_angle_gamma 90.000000
_cell_volume 3589.668952
_symmetry_space_group_name_H-M "C C C A"
_symmetry_group_IT_number 68
_space_group.IT_coordinate_system_code '2'
_symmetry_cell_setting 'orthorhombic'
loop_
_space_group_symop_operation_xyz
x,y,z
-x,1/2-y,z
x,1/2-y,1/2-z
-x,y,1/2-z
-x,-y,-z
x,1/2+y,-z
-x,1/2+y,1/2+z
x,-y,1/2+z
1/2+x,1/2+y,z
1/2-x,-y,z
1/2+x,-y,1/2-z
1/2-x,1/2+y,1/2-z
1/2-x,1/2-y,-z
1/2+x,y,-z
1/2-x,y,1/2+z
1/2+x,1/2-y,1/2+z
loop_
_atom_site_type_symbol
_atom_site_label
_atom_site_fract_x
_atom_site_fract_y
_atom_site_fract_z
Si Si1 0.029549 0.109323 0.092502
Si Si2 0.365909 0.536246 0.608683
Si Si3 0.612033 0.579769 0.560284
Si Si4 0.244331 0.129644 0.436243
Si Si5 0.659973 0.687383 0.165445
O O1 0.075928 0.168873 0.131250
O O2 0.000000 0.081591 0.250000
O O3 0.079882 0.060288 0.019397
O O4 0.959551 0.119065 0.980843
O O5 0.398777 0.547907 0.777045
O O6 0.365046 0.466254 0.575935
O O7 0.287952 0.567987 0.587139
O O8 0.681531 0.623308 0.567196
O O9 0.297501 0.182506 0.500199
O O10 0.203214 0.143087 0.277104
O O11 0.659953 0.750000 0.250000
#
# Coordination Sequence:
#
# PCOD8283503 Si02
#       5
#    16  16  16  16  16
#     4  11  23  42  65  96 132 173 220 270 329 399
#     4  11  25  39  68  96 138 181 217 263 337 405
#     4  12  23  41  63  98 141 175 220 269 333 406
#     4  11  23  42  68  98 131 173 222 281 328 402
#     4  11  24  45  71  96 127 175 229 281 339 386
#
# _framework density 22.286178
#
# number of rings (size 3 to 8) (size 9 to 14) (size 15 to 20)
#    0.000    0.800    4.000    3.600    2.800    2.000 
#    0.000    0.000    0.000    0.000    5.200    0.000 
#    0.000    0.000    0.000    0.000    0.000    0.000 
#
# Total GULP energy -495724.193823 kJ/mol
# GULP energy per Si atom -12393.104846 kJ/mol
# Density = 2.223545 g / cm^3
# Si number density = 22.286178 Si / 1000 Ang^3
#
#
#
# Elastic Constant Matrix: (Units=GPa)
#
#
# Indices 1 2 3 4 5 6 
#
# 1 158.1769 47.6179 33.2412 0.0000 0.0000 0.0000
# 2 47.6179 74.8193 8.7821 0.0000 0.0000 0.0000
# 3 33.2412 8.7821 95.7450 0.0000 0.0000 0.0000
# 4 0.0000 0.0000 0.0000 31.0300 0.0000 0.0000
# 5 0.0000 0.0000 0.0000 0.0000 39.6275 0.0000
# 6 0.0000 0.0000 0.0000 0.0000 0.0000 22.2766
#
#
#
# Elastic Compliance Matrix: (Units=1/GPa)
#
#
# Indices 1 2 3 4 5 6 
#
# 1 0.008347 -0.005027 -0.002437 0.000000 0.000000 0.000000
# 2 -0.005027 0.016538 0.000228 0.000000 0.000000 0.000000
# 3 -0.002437 0.000228 0.011270 0.000000 0.000000 0.000000
# 4 0.000000 0.000000 0.000000 0.032227 0.000000 0.000000
# 5 0.000000 0.000000 0.000000 0.000000 0.025235 0.000000
# 6 0.000000 0.000000 0.000000 0.000000 0.000000 0.044890
#
#
# Mechanical properties :
#
#
# Convention : Reuss Voigt Hill
#
# Bulk Modulus (GPa) = 46.11678 56.44707 51.28192
# Shear Modulus (GPa) = 31.20988 34.52680 32.86834
#
# Velocity S-wave (km/s) = 3.74627 3.94032 3.84452
# Velocity P-wave (km/s) = 6.28097 6.78857 6.53970
#
# Compressibility (1/GPa) = 0.02168408
#
# Stress axis : x y z
#
# Youngs Moduli (GPa) = 119.79798 60.46744 88.73445
#
# Poissons Ratio (x) = 0.30394 0.21625
# Poissons Ratio (y) = 0.60217 -0.02025
# Poissons Ratio (z) = 0.29195 -0.01380
#
# Static dielectric constant tensor:
#      x y z
#    x 4.446260 0.000000 0.000000 
#    y 0.000000 3.550820 0.000000 
#    z 0.000000 0.000000 4.092240 
# 
# 
# High freq. dielectric constant tensor:
#      x y z
#    x 1.903430 0.000000 0.000000 
#    y 0.000000 1.832030 0.000000 
#    z 0.000000 0.000000 1.887810 
# 
# From -- ./inp_files/6224.got.cif
#   From: 2010.03.12/outbox.cif.g09.slc.cpg/sg68_4_cif.got.tgz:6224.got - 2010.04.10 23:14:56.
