data_PCOD8283741
_publ_section_title
;
Structure prediction by ZEFSAII (Michael W. Deem and Ramdas Pophale) SiO2 
 PCOD8283741
Probable space group: C C C A
;
_chemical_formula_sum "Si O2"
_cell_formula_units_Z 60
_cell_length_a 26.756413
_cell_length_b 10.418301
_cell_length_c 9.126892
_cell_angle_alpha 90.000000
_cell_angle_beta 90.000000
_cell_angle_gamma 90.000000
_cell_volume 2544.179231
_symmetry_space_group_name_H-M "C C C A"
_symmetry_group_IT_number 68
_space_group.IT_coordinate_system_code '2'
_symmetry_cell_setting 'orthorhombic'
loop_
_space_group_symop_operation_xyz
x,y,z
-x,1/2-y,z
x,1/2-y,1/2-z
-x,y,1/2-z
-x,-y,-z
x,1/2+y,-z
-x,1/2+y,1/2+z
x,-y,1/2+z
1/2+x,1/2+y,z
1/2-x,-y,z
1/2+x,-y,1/2-z
1/2-x,1/2+y,1/2-z
1/2-x,1/2-y,-z
1/2+x,y,-z
1/2-x,y,1/2+z
1/2+x,1/2-y,1/2+z
loop_
_atom_site_type_symbol
_atom_site_label
_atom_site_fract_x
_atom_site_fract_y
_atom_site_fract_z
Si Si1 0.500000 0.750000 0.750000
Si Si2 0.454229 0.595113 0.503209
Si Si3 0.585323 0.750000 0.250000
Si Si4 0.792964 0.606097 0.210658
Si Si5 0.356376 0.953822 0.433033
O O1 0.460494 0.670271 0.654700
O O2 0.500000 0.500000 0.500000
O O3 0.453399 0.691934 0.367272
O O4 0.402945 0.519446 0.488584
O O5 0.623523 0.650847 0.321159
O O6 0.772682 0.750000 0.250000
O O7 0.750000 0.500000 0.193499
O O8 0.827298 0.563807 0.345589
O O9 0.822451 0.612488 0.057069
#
# Coordination Sequence:
#
# PCOD8283741 Si02
#       5
#     4  16   8  16  16
#     4  12  28  42  76 108 156 204 260 316 382 466
#     4  12  27  48  73 115 157 210 259 321 388 473
#     4  12  26  49  78 109 158 207 262 320 399 468
#     4  12  30  52  84 117 158 205 268 334 405 478
#     4  12  27  51  79 116 156 208 264 326 400 473
#
# _framework density 23.583243
#
# number of rings (size 3 to 8) (size 9 to 14) (size 15 to 20)
#    0.000    0.000    2.667    5.600    7.467    5.867 
#    0.000    0.000    0.000    0.000    0.000    0.000 
#    0.000    0.000    0.000    0.000    0.000    0.000 
#
# Total GULP energy -372080.779198 kJ/mol
# GULP energy per Si atom -12402.692640 kJ/mol
# Density = 2.352957 g / cm^3
# Si number density = 23.583243 Si / 1000 Ang^3
#
#
#
# Elastic Constant Matrix: (Units=GPa)
#
#
# Indices 1 2 3 4 5 6 
#
# 1 126.4145 61.0043 47.5314 0.0000 0.0000 0.0000
# 2 61.0043 165.8926 68.8061 0.0000 0.0000 0.0000
# 3 47.5314 68.8061 154.1081 0.0000 0.0000 0.0000
# 4 0.0000 0.0000 0.0000 52.7519 0.0000 0.0000
# 5 0.0000 0.0000 0.0000 0.0000 35.5704 0.0000
# 6 0.0000 0.0000 0.0000 0.0000 0.0000 8.6825
#
#
#
# Elastic Compliance Matrix: (Units=1/GPa)
#
#
# Indices 1 2 3 4 5 6 
#
# 1 0.009995 -0.002942 -0.001769 0.000000 0.000000 0.000000
# 2 -0.002942 0.008264 -0.002782 0.000000 0.000000 0.000000
# 3 -0.001769 -0.002782 0.008277 0.000000 0.000000 0.000000
# 4 0.000000 0.000000 0.000000 0.018957 0.000000 0.000000
# 5 0.000000 0.000000 0.000000 0.000000 0.028113 0.000000
# 6 0.000000 0.000000 0.000000 0.000000 0.000000 0.115174
#
#
# Mechanical properties :
#
#
# Convention : Reuss Voigt Hill
#
# Bulk Modulus (GPa) = 86.58642 89.01097 87.79869
# Shear Modulus (GPa) = 24.08280 37.33919 30.71100
#
# Velocity S-wave (km/s) = 3.19906 3.98338 3.61257
# Velocity P-wave (km/s) = 7.10213 7.67995 7.39669
#
# Compressibility (1/GPa) = 0.01154916
#
# Stress axis : x y z
#
# Youngs Moduli (GPa) = 100.04601 121.01027 120.81780
#
# Poissons Ratio (x) = 0.35598 0.21378
# Poissons Ratio (y) = 0.29431 0.33615
# Poissons Ratio (z) = 0.17703 0.33668
#
# Static dielectric constant tensor:
#      x y z
#    x 4.248520 0.000000 0.000000 
#    y 0.000000 4.518290 0.000000 
#    z 0.000000 0.000000 4.282820 
# 
# 
# High freq. dielectric constant tensor:
#      x y z
#    x 1.940240 0.000000 0.000000 
#    y 0.000000 1.949860 0.000000 
#    z 0.000000 0.000000 1.956050 
# 
# From -- ./inp_files/3956.got.cif
#   From: 2010.03.12/outbox.cif.g09.slc.cpg/sg68_2_cif.got.tgz:3956.got - 2010.04.10 23:14:56.
