data_PCOD8283242
_publ_section_title
;
Structure prediction by ZEFSAII (Michael W. Deem and Ramdas Pophale) SiO2 
 PCOD8283242
Probable space group: C C C A
;
_chemical_formula_sum "Si O2"
_cell_formula_units_Z 60
_cell_length_a 24.200444
_cell_length_b 11.124728
_cell_length_c 9.363702
_cell_angle_alpha 90.000000
_cell_angle_beta 90.000000
_cell_angle_gamma 90.000000
_cell_volume 2520.927286
_symmetry_space_group_name_H-M "C C C A"
_symmetry_group_IT_number 68
_space_group.IT_coordinate_system_code '2'
_symmetry_cell_setting 'orthorhombic'
loop_
_space_group_symop_operation_xyz
x,y,z
-x,1/2-y,z
x,1/2-y,1/2-z
-x,y,1/2-z
-x,-y,-z
x,1/2+y,-z
-x,1/2+y,1/2+z
x,-y,1/2+z
1/2+x,1/2+y,z
1/2-x,-y,z
1/2+x,-y,1/2-z
1/2-x,1/2+y,1/2-z
1/2-x,1/2-y,-z
1/2+x,y,-z
1/2-x,y,1/2+z
1/2+x,1/2-y,1/2+z
loop_
_atom_site_type_symbol
_atom_site_label
_atom_site_fract_x
_atom_site_fract_y
_atom_site_fract_z
Si Si1 0.291942 0.149139 0.056017
Si Si2 0.564924 0.114372 0.729816
Si Si3 0.250000 0.500000 0.685368
Si Si4 0.000000 0.250000 0.750000
Si Si5 0.589242 0.399995 0.084648
O O1 0.295607 0.050648 0.927376
O O2 0.250000 0.250000 0.000000
O O3 0.272076 0.104433 0.211510
O O4 0.355739 0.184764 0.084969
O O5 0.587706 0.250000 0.750000
O O6 0.500000 0.109158 0.750000
O O7 0.574908 0.063111 0.574238
O O8 0.598701 0.026909 0.835629
O O9 0.037753 0.330116 0.850595
#
# Coordination Sequence:
#
# PCOD8283242 Si02
#       5
#    16  16   8   4  16
#     4  11  25  46  75 102 146 189 249 308 379 446
#     4  11  25  46  74 108 153 198 257 314 393 459
#     4  10  24  46  68 110 136 188 250 306 374 450
#     4  12  28  44  76 112 156 208 262 312 396 452
#     4  12  27  46  74 110 152 200 258 318 387 468
#
# _framework density 23.800764999999998
#
# number of rings (size 3 to 8) (size 9 to 14) (size 15 to 20)
#    0.000    0.800    1.333    4.800    7.467    6.400 
#    0.000    0.000    0.000    0.000    0.000    0.000 
#    0.000    0.000    0.000    0.000    0.000    0.000 
#
# Total GULP energy -371830.467156 kJ/mol
# GULP energy per Si atom -12394.348905 kJ/mol
# Density = 2.374659 g / cm^3
# Si number density = 23.800765 Si / 1000 Ang^3
#
#
#
# Elastic Constant Matrix: (Units=GPa)
#
#
# Indices 1 2 3 4 5 6 
#
# 1 158.3639 51.8507 44.7204 0.0000 0.0000 0.0000
# 2 51.8507 129.2155 56.2079 0.0000 0.0000 0.0000
# 3 44.7204 56.2079 201.4709 0.0000 0.0000 0.0000
# 4 0.0000 0.0000 0.0000 -9.8793 0.0000 0.0000
# 5 0.0000 0.0000 0.0000 0.0000 -19.8090 0.0000
# 6 0.0000 0.0000 0.0000 0.0000 0.0000 196.5045
#
#
#
# Elastic Compliance Matrix: (Units=1/GPa)
#
#
# Indices 1 2 3 4 5 6 
#
# 1 0.007419 -0.002573 -0.000929 0.000000 0.000000 0.000000
# 2 -0.002573 0.009700 -0.002135 0.000000 0.000000 0.000000
# 3 -0.000929 -0.002135 0.005765 0.000000 0.000000 0.000000
# 4 0.000000 0.000000 0.000000 -0.101222 0.000000 0.000000
# 5 0.000000 0.000000 0.000000 0.000000 -0.050482 0.000000
# 6 0.000000 0.000000 0.000000 0.000000 0.000000 0.005089
#
#
# Mechanical properties :
#
#
# Convention : Reuss Voigt Hill
#
# Bulk Modulus (GPa) = 86.12806 88.28979 87.20893
# Shear Modulus (GPa) = -46.04666 55.78131 4.86733
#
# Velocity S-wave (km/s) = -4.40326 4.84641 1.43160
# Velocity P-wave (km/s) = 3.22708 8.27604 6.28119
#
# Compressibility (1/GPa) = 0.01161062
#
# Stress axis : x y z
#
# Youngs Moduli (GPa) = 134.78211 103.08981 173.44909
#
# Poissons Ratio (x) = 0.26526 0.16114
# Poissons Ratio (y) = 0.34681 0.37033
# Poissons Ratio (z) = 0.12522 0.22011
#
# Static dielectric constant tensor:
#      x y z
#    x 4.772960 0.000000 0.000000 
#    y 0.000000 4.391330 0.000000 
#    z 0.000000 0.000000 4.567690 
# 
# 
# High freq. dielectric constant tensor:
#      x y z
#    x 1.943230 0.000000 0.000000 
#    y 0.000000 1.932220 0.000000 
#    z 0.000000 0.000000 1.975700 
# 
# From -- ./inp_files/3945.got.cif
#   From: 2010.03.12/outbox.cif.g09.slc.cpg/sg68_2_cif.got.tgz:3945.got - 2010.04.10 23:14:56.
