data_PCOD8283162
_publ_section_title
;
Structure prediction by ZEFSAII (Michael W. Deem and Ramdas Pophale) SiO2 
 PCOD8283162
Probable space group: C C C A
;
_chemical_formula_sum "Si O2"
_cell_formula_units_Z 88
_cell_length_a 25.540615
_cell_length_b 12.903544
_cell_length_c 10.864326
_cell_angle_alpha 90.000000
_cell_angle_beta 90.000000
_cell_angle_gamma 90.000000
_cell_volume 3580.495617
_symmetry_space_group_name_H-M "C C C A"
_symmetry_group_IT_number 68
_space_group.IT_coordinate_system_code '2'
_symmetry_cell_setting 'orthorhombic'
loop_
_space_group_symop_operation_xyz
x,y,z
-x,1/2-y,z
x,1/2-y,1/2-z
-x,y,1/2-z
-x,-y,-z
x,1/2+y,-z
-x,1/2+y,1/2+z
x,-y,1/2+z
1/2+x,1/2+y,z
1/2-x,-y,z
1/2+x,-y,1/2-z
1/2-x,1/2+y,1/2-z
1/2-x,1/2-y,-z
1/2+x,y,-z
1/2-x,y,1/2+z
1/2+x,1/2-y,1/2+z
loop_
_atom_site_type_symbol
_atom_site_label
_atom_site_fract_x
_atom_site_fract_y
_atom_site_fract_z
Si Si1 0.172947 0.718125 0.040405
Si Si2 0.355519 0.866644 0.213088
Si Si3 0.478583 0.640780 0.919700
Si Si4 0.094201 0.750000 0.250000
Si Si5 0.774221 0.392604 0.408855
Si Si6 0.045893 0.544442 0.665057
O O1 0.127655 0.705566 0.138854
O O2 0.226523 0.686374 0.107334
O O3 0.156775 0.637239 0.932393
O O4 0.181860 0.837696 0.996410
O O5 0.371816 0.750000 0.250000
O O6 0.302086 0.906929 0.277002
O O7 0.401433 0.947454 0.251908
O O8 0.500000 0.750000 0.962436
O O9 0.441100 0.654770 0.800719
O O10 0.527096 0.569196 0.879728
O O11 0.445248 0.604652 0.037478
O O12 0.750000 0.500000 0.459937
O O13 0.000000 0.593173 0.750000
#
# Coordination Sequence:
#
# PCOD8283162 Si02
#       6
#    16  16  16   8  16  16
#     4  10  25  45  75 106 157 202 254 316 402 466
#     4  10  23  47  72 108 150 199 261 320 389 473
#     4  11  26  48  72 106 151 200 253 326 401 459
#     4  12  25  48  76 108 160 212 245 334 402 474
#     4  10  23  45  73 110 146 195 260 321 379 470
#     4  11  26  47  77 109 148 202 270 321 391 487
#
# _framework density 24.577603
#
# number of rings (size 3 to 8) (size 9 to 14) (size 15 to 20)
#    0.000    1.455    0.000    3.545   11.455    3.636 
#    9.818    0.000    0.000    0.000    0.000    0.000 
#    0.000    0.000    0.000    0.000    0.000    0.000 
#
# Total GULP energy -545306.395802 kJ/mol
# GULP energy per Si atom -12393.327177 kJ/mol
# Density = 2.452166 g / cm^3
# Si number density = 24.577603 Si / 1000 Ang^3
#
#
#
# Elastic Constant Matrix: (Units=GPa)
#
#
# Indices 1 2 3 4 5 6 
#
# 1 148.1560 48.3298 77.1018 0.0000 0.0000 0.0000
# 2 48.3298 109.6116 48.3386 0.0000 0.0000 0.0000
# 3 77.1018 48.3386 168.2319 0.0000 0.0000 0.0000
# 4 0.0000 0.0000 0.0000 33.4439 0.0000 0.0000
# 5 0.0000 0.0000 0.0000 0.0000 45.9596 0.0000
# 6 0.0000 0.0000 0.0000 0.0000 0.0000 37.5432
#
#
#
# Elastic Compliance Matrix: (Units=1/GPa)
#
#
# Indices 1 2 3 4 5 6 
#
# 1 0.009464 -0.002588 -0.003594 0.000000 0.000000 0.000000
# 2 -0.002588 0.011155 -0.002019 0.000000 0.000000 0.000000
# 3 -0.003594 -0.002019 0.008171 0.000000 0.000000 0.000000
# 4 0.000000 0.000000 0.000000 0.029901 0.000000 0.000000
# 5 0.000000 0.000000 0.000000 0.000000 0.021758 0.000000
# 6 0.000000 0.000000 0.000000 0.000000 0.000000 0.026636
#
#
# Mechanical properties :
#
#
# Convention : Reuss Voigt Hill
#
# Bulk Modulus (GPa) = 80.72063 85.94889 83.33476
# Shear Modulus (GPa) = 39.17991 40.20462 39.69226
#
# Velocity S-wave (km/s) = 3.99699 4.04892 4.02304
# Velocity P-wave (km/s) = 7.36313 7.54352 7.45387
#
# Compressibility (1/GPa) = 0.01238841
#
# Stress axis : x y z
#
# Youngs Moduli (GPa) = 105.66172 89.64909 122.37827
#
# Poissons Ratio (x) = 0.23202 0.43981
# Poissons Ratio (y) = 0.27346 0.24708
# Poissons Ratio (z) = 0.37973 0.18100
#
# Static dielectric constant tensor:
#      x y z
#    x 4.455670 0.000000 0.000000 
#    y 0.000000 4.316250 0.000000 
#    z 0.000000 0.000000 4.612310 
# 
# 
# High freq. dielectric constant tensor:
#      x y z
#    x 1.981490 0.000000 0.000000 
#    y 0.000000 1.964150 0.000000 
#    z 0.000000 0.000000 1.987170 
# 
# From -- ./inp_files/16337.got.cif
#   From: 2010.03.12/outbox.cif.g09.slc.cpg/sg68_9_cif.got.tgz:16337.got - 2010.04.10 23:14:56.
