data_PCOD8283938
_publ_section_title
;
Structure prediction by ZEFSAII (Michael W. Deem and Ramdas Pophale) SiO2 
 PCOD8283938
Probable space group: F M M M
;
_chemical_formula_sum "Si O2"
_cell_formula_units_Z 192
_cell_length_a 31.862304
_cell_length_b 14.105898
_cell_length_c 23.478541
_cell_angle_alpha 90.000000
_cell_angle_beta 90.000000
_cell_angle_gamma 90.000000
_cell_volume 10552.345971
_symmetry_space_group_name_H-M "F M M M"
_symmetry_group_IT_number 69
_symmetry_cell_setting 'orthorhombic'
loop_
_space_group_symop_operation_xyz
x,y,z
-x,-y,z
x,-y,-z
-x,y,-z
-x,-y,-z
x,y,-z
-x,y,z
x,-y,z
x,1/2+y,1/2+z
-x,1/2-y,1/2+z
x,1/2-y,1/2-z
-x,1/2+y,1/2-z
-x,1/2-y,1/2-z
x,1/2+y,1/2-z
-x,1/2+y,1/2+z
x,1/2-y,1/2+z
1/2+x,y,1/2+z
1/2-x,-y,1/2+z
1/2+x,-y,1/2-z
1/2-x,y,1/2-z
1/2-x,-y,1/2-z
1/2+x,y,1/2-z
1/2-x,y,1/2+z
1/2+x,-y,1/2+z
1/2+x,1/2+y,z
1/2-x,1/2-y,z
1/2+x,1/2-y,-z
1/2-x,1/2+y,-z
1/2-x,1/2-y,-z
1/2+x,1/2+y,-z
1/2-x,1/2+y,z
1/2+x,1/2-y,z
loop_
_atom_site_type_symbol
_atom_site_label
_atom_site_fract_x
_atom_site_fract_y
_atom_site_fract_z
Si Si1 0.500000 0.111804 0.683534
Si Si2 0.907773 0.759675 0.564746
Si Si3 0.418525 0.105319 0.258348
Si Si4 0.131801 0.887452 0.652573
Si Si5 0.298359 0.250410 0.682372
Si Si6 0.139872 0.106227 0.864667
Si Si7 0.000000 0.799410 0.063778
O O1 0.540570 0.157557 0.715141
O O2 0.500000 0.126338 0.615481
O O3 0.500000 0.000000 0.691000
O O4 0.892928 0.762958 0.500000
O O5 0.889072 0.853287 0.594141
O O6 0.889094 0.662934 0.590976
O O7 0.958289 0.764166 0.569940
O O8 0.398475 0.155674 0.202739
O O9 0.383023 0.099697 0.305026
O O10 0.431860 0.000000 0.239050
O O11 0.178273 0.844239 0.659149
O O12 0.135847 0.000000 0.654627
O O13 0.304121 0.250000 0.750000
O O14 0.250000 0.250000 0.664784
O O15 0.316771 0.159062 0.649507
O O16 0.148463 0.000000 0.888600
O O17 0.000000 0.847865 0.000000
#
# Coordination Sequence:
#
# PCOD8283938 Si02
#       7
#    16  32  32  32  32  32  16
#     4  10  18  30  49  76 111 149 187 226 267 322
#     4  10  22  37  55  80 108 145 193 233 270 317
#     4   9  17  30  49  77 107 140 180 216 262 322
#     4  10  21  38  58  78 109 147 184 227 272 323
#     4  10  20  33  54  85 117 144 172 214 273 339
#     4  10  19  34  55  78 113 147 175 218 272 332
#     4  10  20  34  48  73 113 149 186 231 271 311
#
# _framework density 18.195005999999999
#
# number of rings (size 3 to 8) (size 9 to 14) (size 15 to 20)
#    0.000    2.167    3.333    0.000    0.000    2.167 
#    0.000    5.417    0.000    9.500    0.000    9.333 
#    0.000    0.000    0.000    0.000    0.000    0.000 
#
# Total GULP energy -594879.882146 kJ/mol
# GULP energy per Si atom -12393.330878 kJ/mol
# Density = 1.815359 g / cm^3
# Si number density = 18.195006 Si / 1000 Ang^3
#
#
#
# Elastic Constant Matrix: (Units=GPa)
#
#
# Indices 1 2 3 4 5 6 
#
# 1 146.1216 54.0571 52.1249 0.0000 0.0000 0.0000
# 2 54.0571 93.5220 40.2567 0.0000 0.0000 0.0000
# 3 52.1249 40.2567 107.6979 0.0000 0.0000 0.0000
# 4 0.0000 0.0000 0.0000 19.8237 0.0000 0.0000
# 5 0.0000 0.0000 0.0000 0.0000 17.8448 0.0000
# 6 0.0000 0.0000 0.0000 0.0000 0.0000 14.1057
#
#
#
# Elastic Compliance Matrix: (Units=1/GPa)
#
#
# Indices 1 2 3 4 5 6 
#
# 1 0.009464 -0.004170 -0.003022 0.000000 0.000000 0.000000
# 2 -0.004170 0.014580 -0.003432 0.000000 0.000000 0.000000
# 3 -0.003022 -0.003432 0.012031 0.000000 0.000000 0.000000
# 4 0.000000 0.000000 0.000000 0.050445 0.000000 0.000000
# 5 0.000000 0.000000 0.000000 0.000000 0.056039 0.000000
# 6 0.000000 0.000000 0.000000 0.000000 0.000000 0.070893
#
#
# Mechanical properties :
#
#
# Convention : Reuss Voigt Hill
#
# Bulk Modulus (GPa) = 67.44039 71.13544 69.28792
# Shear Modulus (GPa) = 20.86452 23.74835 22.30644
#
# Velocity S-wave (km/s) = 3.38999 3.61669 3.50518
# Velocity P-wave (km/s) = 7.24352 7.52473 7.38546
#
# Compressibility (1/GPa) = 0.01482791
#
# Stress axis : x y z
#
# Youngs Moduli (GPa) = 105.66177 68.58713 83.12093
#
# Poissons Ratio (x) = 0.28598 0.25119
# Poissons Ratio (y) = 0.44057 0.28526
# Poissons Ratio (z) = 0.31931 0.23538
#
# Static dielectric constant tensor:
#      x y z
#    x 3.482390 0.000000 0.000000 
#    y 0.000000 3.379190 0.000000 
#    z 0.000000 0.000000 3.353200 
# 
# 
# High freq. dielectric constant tensor:
#      x y z
#    x 1.704940 0.000000 0.000000 
#    y 0.000000 1.691080 0.000000 
#    z 0.000000 0.000000 1.696780 
# 
# From -- ./inp_files/19807.got.cif
#   From: 2010.03.12/outbox.cif.g09.slc.cpg/sg69_10_cif.got.tgz:19807.got - 2010.04.10 23:52:46.
