data_PCOD8283057
_publ_section_title
;
Structure prediction by ZEFSAII (Michael W. Deem and Ramdas Pophale) SiO2 
 PCOD8283057
Probable space group: C C C A
;
_chemical_formula_sum "Si O2"
_cell_formula_units_Z 56
_cell_length_a 4.967529
_cell_length_b 13.032266
_cell_length_c 33.597754
_cell_angle_alpha 90.000000
_cell_angle_beta 90.000000
_cell_angle_gamma 90.000000
_cell_volume 2175.056750
_symmetry_space_group_name_H-M "C C C A"
_symmetry_group_IT_number 68
_space_group.IT_coordinate_system_code '2'
_symmetry_cell_setting 'orthorhombic'
loop_
_space_group_symop_operation_xyz
x,y,z
-x,1/2-y,z
x,1/2-y,1/2-z
-x,y,1/2-z
-x,-y,-z
x,1/2+y,-z
-x,1/2+y,1/2+z
x,-y,1/2+z
1/2+x,1/2+y,z
1/2-x,-y,z
1/2+x,-y,1/2-z
1/2-x,1/2+y,1/2-z
1/2-x,1/2-y,-z
1/2+x,y,-z
1/2-x,y,1/2+z
1/2+x,1/2-y,1/2+z
loop_
_atom_site_type_symbol
_atom_site_label
_atom_site_fract_x
_atom_site_fract_y
_atom_site_fract_z
Si Si1 0.467462 0.629291 0.206361
Si Si2 0.750000 0.500000 0.909216
Si Si3 0.521077 0.131102 0.974325
Si Si4 0.972038 0.370469 0.655855
O O1 0.500000 0.750000 0.211028
O O2 0.500000 0.578286 0.250000
O O3 0.172897 0.597906 0.191404
O O4 0.679785 0.594312 0.172240
O O5 0.550836 0.430089 0.934918
O O6 0.952585 0.429541 0.884120
O O7 0.500000 0.250000 0.963184
O O8 0.821398 0.102986 0.988982
O O9 0.000000 0.250000 0.646451
#
# Coordination Sequence:
#
# PCOD8283057 Si02
#       4
#    16   8  16  16
#     4   9  18  38  65  91 129 181 231 280 333 394
#     4  12  26  44  72 104 144 182 218 284 356 412
#     4  10  24  46  72 101 133 178 231 277 332 410
#     4  10  23  39  62 100 136 174 227 281 341 404
#
# _framework density 25.746454
#
# number of rings (size 3 to 8) (size 9 to 14) (size 15 to 20)
#    0.000    2.000    0.000    1.714    0.000   16.000 
#    0.000    2.857    0.000    0.000    0.000    0.000 
#    0.000    0.000    0.000    0.000    0.000    0.000 
#
# Total GULP energy -347339.963682 kJ/mol
# GULP energy per Si atom -12404.998703 kJ/mol
# Density = 2.568785 g / cm^3
# Si number density = 25.746454 Si / 1000 Ang^3
#
#
#
# Elastic Constant Matrix: (Units=GPa)
#
#
# Indices 1 2 3 4 5 6 
#
# 1 126.5199 -2.3849 35.9604 0.0000 0.0000 0.0000
# 2 -2.3849 74.7697 56.0232 0.0000 0.0000 0.0000
# 3 35.9604 56.0232 169.5546 0.0000 0.0000 0.0000
# 4 0.0000 0.0000 0.0000 -23.6319 0.0000 0.0000
# 5 0.0000 0.0000 0.0000 0.0000 -47.2309 0.0000
# 6 0.0000 0.0000 0.0000 0.0000 0.0000 28.0038
#
#
#
# Elastic Compliance Matrix: (Units=1/GPa)
#
#
# Indices 1 2 3 4 5 6 
#
# 1 0.008675 0.002200 -0.002567 0.000000 0.000000 0.000000
# 2 0.002200 0.018333 -0.006524 0.000000 0.000000 0.000000
# 3 -0.002567 -0.006524 0.008598 0.000000 0.000000 0.000000
# 4 0.000000 0.000000 0.000000 -0.042316 0.000000 0.000000
# 5 0.000000 0.000000 0.000000 0.000000 -0.021173 0.000000
# 6 0.000000 0.000000 0.000000 0.000000 0.000000 0.035709
#
#
# Mechanical properties :
#
#
# Convention : Reuss Voigt Hill
#
# Bulk Modulus (GPa) = 45.82138 61.11573 53.46856
# Shear Modulus (GPa) = 173.11310 10.17792 91.64551
#
# Velocity S-wave (km/s) = 8.20875 1.99041 5.97266
# Velocity P-wave (km/s) = 10.37693 5.39179 8.26898
#
# Compressibility (1/GPa) = 0.02182387
#
# Stress axis : x y z
#
# Youngs Moduli (GPa) = 115.27526 54.54692 116.30898
#
# Poissons Ratio (x) = -0.12000 0.29853
# Poissons Ratio (y) = -0.25359 0.75880
# Poissons Ratio (z) = 0.29588 0.35586
#
# Static dielectric constant tensor:
#      x y z
#    x 4.174060 0.000000 0.000000 
#    y 0.000000 4.959390 0.000000 
#    z 0.000000 0.000000 4.518380 
# 
# 
# High freq. dielectric constant tensor:
#      x y z
#    x 2.034020 0.000000 0.000000 
#    y 0.000000 2.061290 0.000000 
#    z 0.000000 0.000000 2.025590 
# 
# From -- ./inp_files/52778.got.cif
#   From: 2010.03.12/outbox.cif.g09.slc.cpg/sg68_27_cif.got.tgz:52778.got - 2010.04.10 23:14:56.
