data_PCOD8283656
_publ_section_title
;
Structure prediction by ZEFSAII (Michael W. Deem and Ramdas Pophale) SiO2 
 PCOD8283656
Probable space group: C C C A
;
_chemical_formula_sum "Si O2"
_cell_formula_units_Z 88
_cell_length_a 22.579980
_cell_length_b 13.643818
_cell_length_c 14.453439
_cell_angle_alpha 90.000000
_cell_angle_beta 90.000000
_cell_angle_gamma 90.000000
_cell_volume 4452.774115
_symmetry_space_group_name_H-M "C C C A"
_symmetry_group_IT_number 68
_space_group.IT_coordinate_system_code '2'
_symmetry_cell_setting 'orthorhombic'
loop_
_space_group_symop_operation_xyz
x,y,z
-x,1/2-y,z
x,1/2-y,1/2-z
-x,y,1/2-z
-x,-y,-z
x,1/2+y,-z
-x,1/2+y,1/2+z
x,-y,1/2+z
1/2+x,1/2+y,z
1/2-x,-y,z
1/2+x,-y,1/2-z
1/2-x,1/2+y,1/2-z
1/2-x,1/2-y,-z
1/2+x,y,-z
1/2-x,y,1/2+z
1/2+x,1/2-y,1/2+z
loop_
_atom_site_type_symbol
_atom_site_label
_atom_site_fract_x
_atom_site_fract_y
_atom_site_fract_z
Si Si1 0.930530 0.744305 0.356702
Si Si2 0.789366 0.250000 0.250000
Si Si3 0.748821 0.659092 0.435208
Si Si4 0.140864 0.417457 0.952108
Si Si5 0.183988 0.464975 0.275431
Si Si6 0.632343 0.447294 0.402907
O O1 0.911980 0.750000 0.250000
O O2 0.895248 0.824919 0.415964
O O3 0.913524 0.639033 0.392188
O O4 0.000000 0.750000 0.372022
O O5 0.750381 0.298258 0.330821
O O6 0.824344 0.153799 0.289840
O O7 0.750000 0.750000 0.500000
O O8 0.690066 0.603580 0.467756
O O9 0.805394 0.590651 0.444375
O O10 0.168627 0.477251 0.867970
O O11 0.100587 0.487370 0.016530
O O12 0.250000 0.500000 0.245879
O O13 0.139590 0.495770 0.193975
#
# Coordination Sequence:
#
# PCOD8283656 Si02
#       6
#    16   8  16  16  16  16
#     4  11  26  47  70  93 121 176 241 284 321 382
#     4  12  24  38  58  92 146 170 212 258 312 412
#     4  12  23  37  61  99 135 171 208 256 328 409
#     4  12  24  41  66  98 136 172 215 274 333 403
#     4  12  23  37  60  94 137 177 206 255 326 394
#     4  12  23  41  63  99 133 170 219 266 336 395
#
# _framework density 19.76296
#
# number of rings (size 3 to 8) (size 9 to 14) (size 15 to 20)
#    0.000    0.182    7.273    3.818    1.273    0.727 
#    0.000    0.000    0.000    0.000    0.000    2.545 
#    0.000    0.000    0.000    0.000    0.000    0.000 
#
# Total GULP energy -545172.578454 kJ/mol
# GULP energy per Si atom -12390.285874 kJ/mol
# Density = 1.971798 g / cm^3
# Si number density = 19.762960 Si / 1000 Ang^3
#
#
#
# Elastic Constant Matrix: (Units=GPa)
#
#
# Indices 1 2 3 4 5 6 
#
# 1 57.8934 25.9817 24.2716 0.0000 0.0000 0.0000
# 2 25.9817 134.8699 36.2257 0.0000 0.0000 0.0000
# 3 24.2716 36.2257 117.1204 0.0000 0.0000 0.0000
# 4 0.0000 0.0000 0.0000 34.9888 0.0000 0.0000
# 5 0.0000 0.0000 0.0000 0.0000 31.8555 0.0000
# 6 0.0000 0.0000 0.0000 0.0000 0.0000 -7.7028
#
#
#
# Elastic Compliance Matrix: (Units=1/GPa)
#
#
# Indices 1 2 3 4 5 6 
#
# 1 0.019959 -0.002982 -0.003214 0.000000 0.000000 0.000000
# 2 -0.002982 0.008532 -0.002021 0.000000 0.000000 0.000000
# 3 -0.003214 -0.002021 0.009829 0.000000 0.000000 0.000000
# 4 0.000000 0.000000 0.000000 0.028581 0.000000 0.000000
# 5 0.000000 0.000000 0.000000 0.000000 0.031392 0.000000
# 6 0.000000 0.000000 0.000000 0.000000 0.000000 -0.129823
#
#
# Mechanical properties :
#
#
# Convention : Reuss Voigt Hill
#
# Bulk Modulus (GPa) = 45.68990 53.64906 49.66948
# Shear Modulus (GPa) = -640.81094 26.72197 -307.04449
#
# Velocity S-wave (km/s) = -18.02644 3.68111 -12.47802
# Velocity P-wave (km/s) = 20.25094 6.72850 13.50607
#
# Compressibility (1/GPa) = 0.02188668
#
# Stress axis : x y z
#
# Youngs Moduli (GPa) = 50.10360 117.20889 101.73593
#
# Poissons Ratio (x) = 0.34947 0.32697
# Poissons Ratio (y) = 0.14939 0.20561
# Poissons Ratio (z) = 0.16103 0.23688
#
# Static dielectric constant tensor:
#      x y z
#    x 3.086580 0.000000 0.000000 
#    y 0.000000 4.080590 0.000000 
#    z 0.000000 0.000000 3.861600 
# 
# 
# High freq. dielectric constant tensor:
#      x y z
#    x 1.711160 0.000000 0.000000 
#    y 0.000000 1.807880 0.000000 
#    z 0.000000 0.000000 1.797340 
# 
# From -- ./inp_files/25956.got.cif
#   From: 2010.03.12/outbox.cif.g09.slc.cpg/sg68_13_cif.got.tgz:25956.got - 2010.04.10 23:14:56.
