data_PCOD8283363
_publ_section_title
;
Structure prediction by ZEFSAII (Michael W. Deem and Ramdas Pophale) SiO2 
 PCOD8283363
Probable space group: C C C A
;
_chemical_formula_sum "Si O2"
_cell_formula_units_Z 92
_cell_length_a 13.922744
_cell_length_b 28.952655
_cell_length_c 13.475347
_cell_angle_alpha 90.000000
_cell_angle_beta 90.000000
_cell_angle_gamma 90.000000
_cell_volume 5431.917815
_symmetry_space_group_name_H-M "C C C A"
_symmetry_group_IT_number 68
_space_group.IT_coordinate_system_code '2'
_symmetry_cell_setting 'orthorhombic'
loop_
_space_group_symop_operation_xyz
x,y,z
-x,1/2-y,z
x,1/2-y,1/2-z
-x,y,1/2-z
-x,-y,-z
x,1/2+y,-z
-x,1/2+y,1/2+z
x,-y,1/2+z
1/2+x,1/2+y,z
1/2-x,-y,z
1/2+x,-y,1/2-z
1/2-x,1/2+y,1/2-z
1/2-x,1/2-y,-z
1/2+x,y,-z
1/2-x,y,1/2+z
1/2+x,1/2-y,1/2+z
loop_
_atom_site_type_symbol
_atom_site_label
_atom_site_fract_x
_atom_site_fract_y
_atom_site_fract_z
Si Si1 0.500000 0.511997 0.750000
Si Si2 0.182770 0.457047 0.240315
Si Si3 0.369604 0.107884 0.944892
Si Si4 0.188266 0.598350 0.930844
Si Si5 0.471263 0.048369 0.456727
Si Si6 0.000000 0.750000 0.750000
Si Si7 0.973878 0.338371 0.147296
O O1 0.584790 0.478054 0.715441
O O2 0.463814 0.545045 0.661952
O O3 0.250000 0.500000 0.209494
O O4 0.162914 0.424988 0.145449
O O5 0.226454 0.426995 0.331112
O O6 0.425549 0.155033 0.913076
O O7 0.277293 0.120609 0.010502
O O8 0.445416 0.083141 0.015180
O O9 0.117815 0.640395 0.905385
O O10 0.132893 0.562870 0.002502
O O11 0.500000 0.000000 0.500000
O O12 0.944975 0.784976 0.825852
O O13 0.000000 0.365378 0.250000
#
# Coordination Sequence:
#
# PCOD8283363 Si02
#       7
#     8  16  16  16  16   4  16
#     4  12  20  33  44  66  96 146 208 248 255 294
#     4  12  21  29  48  65 100 150 196 227 258 307
#     4  11  22  34  50  79 112 145 187 235 282 321
#     4  11  22  34  50  79 112 145 187 235 282 321
#     4  11  21  33  49  68 106 153 206 238 265 314
#     4   8  16  38  76  84  96 136 188 220 302 356
#     4   9  18  39  62  80 103 137 174 232 285 343
#
# _framework density 16.936927000000001
#
# number of rings (size 3 to 8) (size 9 to 14) (size 15 to 20)
#    0.522    0.696    5.217    3.130    0.000    0.000 
#    0.000    0.870    0.000    0.000    0.000    0.000 
#    0.000    6.957    0.000    0.000    0.000    0.000 
#
# Total GULP energy -569889.057454 kJ/mol
# GULP energy per Si atom -12388.892553 kJ/mol
# Density = 1.689838 g / cm^3
# Si number density = 16.936927 Si / 1000 Ang^3
#
#
#
# Elastic Constant Matrix: (Units=GPa)
#
#
# Indices 1 2 3 4 5 6 
#
# 1 92.5370 28.0617 23.9541 0.0000 0.0000 0.0000
# 2 28.0617 84.5150 27.7083 0.0000 0.0000 0.0000
# 3 23.9541 27.7083 95.7491 0.0000 0.0000 0.0000
# 4 0.0000 0.0000 0.0000 24.6277 0.0000 0.0000
# 5 0.0000 0.0000 0.0000 0.0000 29.6671 0.0000
# 6 0.0000 0.0000 0.0000 0.0000 0.0000 8.9523
#
#
#
# Elastic Compliance Matrix: (Units=1/GPa)
#
#
# Indices 1 2 3 4 5 6 
#
# 1 0.012390 -0.003422 -0.002109 0.000000 0.000000 0.000000
# 2 -0.003422 0.014018 -0.003200 0.000000 0.000000 0.000000
# 3 -0.002109 -0.003200 0.011898 0.000000 0.000000 0.000000
# 4 0.000000 0.000000 0.000000 0.040605 0.000000 0.000000
# 5 0.000000 0.000000 0.000000 0.000000 0.033707 0.000000
# 6 0.000000 0.000000 0.000000 0.000000 0.000000 0.111704
#
#
# Mechanical properties :
#
#
# Convention : Reuss Voigt Hill
#
# Bulk Modulus (GPa) = 47.98071 48.02770 48.00420
# Shear Modulus (GPa) = 20.10186 25.52120 22.81153
#
# Velocity S-wave (km/s) = 3.44883 3.88601 3.67393
# Velocity P-wave (km/s) = 6.65205 6.96801 6.81186
#
# Compressibility (1/GPa) = 0.02084171
#
# Stress axis : x y z
#
# Youngs Moduli (GPa) = 80.70787 71.33781 84.04910
#
# Poissons Ratio (x) = 0.24415 0.17729
# Poissons Ratio (y) = 0.27622 0.26899
# Poissons Ratio (z) = 0.17024 0.22830
#
# Static dielectric constant tensor:
#      x y z
#    x 3.207700 0.000000 0.000000 
#    y 0.000000 2.820680 0.000000 
#    z 0.000000 0.000000 2.962320 
# 
# 
# High freq. dielectric constant tensor:
#      x y z
#    x 1.652960 0.000000 0.000000 
#    y 0.000000 1.610010 0.000000 
#    z 0.000000 0.000000 1.665200 
# 
# From -- ./inp_files/22797.got.cif
#   From: 2010.03.12/outbox.cif.g09.slc.cpg/sg68_12_cif.got.tgz:22797.got - 2010.04.10 23:14:56.
