data_PCOD8283308
_publ_section_title
;
Structure prediction by ZEFSAII (Michael W. Deem and Ramdas Pophale) SiO2 
 PCOD8283308
Probable space group: C C C A
;
_chemical_formula_sum "Si O2"
_cell_formula_units_Z 64
_cell_length_a 27.569802
_cell_length_b 8.514089
_cell_length_c 10.689961
_cell_angle_alpha 90.000000
_cell_angle_beta 90.000000
_cell_angle_gamma 90.000000
_cell_volume 2509.273231
_symmetry_space_group_name_H-M "C C C A"
_symmetry_group_IT_number 68
_space_group.IT_coordinate_system_code '2'
_symmetry_cell_setting 'orthorhombic'
loop_
_space_group_symop_operation_xyz
x,y,z
-x,1/2-y,z
x,1/2-y,1/2-z
-x,y,1/2-z
-x,-y,-z
x,1/2+y,-z
-x,1/2+y,1/2+z
x,-y,1/2+z
1/2+x,1/2+y,z
1/2-x,-y,z
1/2+x,-y,1/2-z
1/2-x,1/2+y,1/2-z
1/2-x,1/2-y,-z
1/2+x,y,-z
1/2-x,y,1/2+z
1/2+x,1/2-y,1/2+z
loop_
_atom_site_type_symbol
_atom_site_label
_atom_site_fract_x
_atom_site_fract_y
_atom_site_fract_z
Si Si1 0.160229 0.048728 0.086653
Si Si2 0.092330 0.704384 0.474345
Si Si3 0.250000 0.000000 0.924588
Si Si4 0.968375 0.020826 0.622482
Si Si5 0.278127 0.750000 0.250000
O O1 0.187165 0.106074 0.210390
O O2 0.115676 0.929419 0.116421
O O3 0.137703 0.196335 0.017226
O O4 0.201611 0.969604 0.002878
O O5 0.070194 0.621286 0.600993
O O6 0.054898 0.804307 0.388934
O O7 0.256552 0.834414 0.850432
O O8 0.000000 0.002260 0.750000
O O9 0.000000 0.000000 0.500000
#
# Coordination Sequence:
#
# PCOD8283308 Si02
#       5
#    16  16   8  16   8
#     4  11  24  50  69 113 157 201 263 318 381 463
#     4  10  25  48  77 113 152 199 259 335 388 479
#     4  12  26  46  74 110 168 200 270 310 392 464
#     4  11  26  51  78 114 153 203 260 329 412 483
#     4  12  26  42  76 108 145 230 247 322 384 454
#
# _framework density 25.505392000000001
#
# number of rings (size 3 to 8) (size 9 to 14) (size 15 to 20)
#    0.000    1.000    2.500    2.250    3.500    8.000 
#    4.500    3.750    0.000    0.000    0.000    0.000 
#    0.000    0.000    0.000    0.000    0.000    0.000 
#
# Total GULP energy -396496.252502 kJ/mol
# GULP energy per Si atom -12390.507891 kJ/mol
# Density = 2.544734 g / cm^3
# Si number density = 25.505392 Si / 1000 Ang^3
#
#
#
# Elastic Constant Matrix: (Units=GPa)
#
#
# Indices 1 2 3 4 5 6 
#
# 1 125.4650 55.5453 43.9138 0.0000 0.0000 0.0000
# 2 55.5453 126.9286 39.1354 0.0000 0.0000 0.0000
# 3 43.9138 39.1354 113.5919 0.0000 0.0000 0.0000
# 4 0.0000 0.0000 0.0000 34.3915 0.0000 0.0000
# 5 0.0000 0.0000 0.0000 0.0000 96.7636 0.0000
# 6 0.0000 0.0000 0.0000 0.0000 0.0000 58.2861
#
#
#
# Elastic Compliance Matrix: (Units=1/GPa)
#
#
# Indices 1 2 3 4 5 6 
#
# 1 0.010628 -0.003786 -0.002804 0.000000 0.000000 0.000000
# 2 -0.003786 0.010164 -0.002038 0.000000 0.000000 0.000000
# 3 -0.002804 -0.002038 0.010590 0.000000 0.000000 0.000000
# 4 0.000000 0.000000 0.000000 0.029077 0.000000 0.000000
# 5 0.000000 0.000000 0.000000 0.000000 0.010334 0.000000
# 6 0.000000 0.000000 0.000000 0.000000 0.000000 0.017157
#
#
# Mechanical properties :
#
#
# Convention : Reuss Voigt Hill
#
# Bulk Modulus (GPa) = 70.79895 71.46383 71.13139
# Shear Modulus (GPa) = 45.48974 53.04764 49.26869
#
# Velocity S-wave (km/s) = 4.22777 4.56550 4.39988
# Velocity P-wave (km/s) = 7.18685 7.47473 7.33220
#
# Compressibility (1/GPa) = 0.01412450
#
# Stress axis : x y z
#
# Youngs Moduli (GPa) = 94.08979 98.38901 94.43175
#
# Poissons Ratio (x) = 0.37254 0.26481
# Poissons Ratio (y) = 0.35626 0.19244
# Poissons Ratio (z) = 0.26385 0.20051
#
# Static dielectric constant tensor:
#      x y z
#    x 4.309580 0.000000 0.000000 
#    y 0.000000 5.893720 0.000000 
#    z 0.000000 0.000000 3.825560 
# 
# 
# High freq. dielectric constant tensor:
#      x y z
#    x 2.036820 0.000000 0.000000 
#    y 0.000000 2.044160 0.000000 
#    z 0.000000 0.000000 1.986960 
# 
# From -- ./inp_files/17470.got.cif
#   From: 2010.03.12/outbox.cif.g09.slc.cpg/sg68_9_cif.got.tgz:17470.got - 2010.04.10 23:14:56.
