data_PCOD8283724
_publ_section_title
;
Structure prediction by ZEFSAII (Michael W. Deem and Ramdas Pophale) SiO2 
 PCOD8283724
Probable space group: C C C A
;
_chemical_formula_sum "Si O2"
_cell_formula_units_Z 80
_cell_length_a 12.036026
_cell_length_b 23.781738
_cell_length_c 12.399028
_cell_angle_alpha 90.000000
_cell_angle_beta 90.000000
_cell_angle_gamma 90.000000
_cell_volume 3549.068227
_symmetry_space_group_name_H-M "C C C A"
_symmetry_group_IT_number 68
_space_group.IT_coordinate_system_code '2'
_symmetry_cell_setting 'orthorhombic'
loop_
_space_group_symop_operation_xyz
x,y,z
-x,1/2-y,z
x,1/2-y,1/2-z
-x,y,1/2-z
-x,-y,-z
x,1/2+y,-z
-x,1/2+y,1/2+z
x,-y,1/2+z
1/2+x,1/2+y,z
1/2-x,-y,z
1/2+x,-y,1/2-z
1/2-x,1/2+y,1/2-z
1/2-x,1/2-y,-z
1/2+x,y,-z
1/2-x,y,1/2+z
1/2+x,1/2-y,1/2+z
loop_
_atom_site_type_symbol
_atom_site_label
_atom_site_fract_x
_atom_site_fract_y
_atom_site_fract_z
Si Si1 0.113330 0.910236 0.302207
Si Si2 0.934799 0.837092 0.859109
Si Si3 0.928295 0.052857 0.465407
Si Si4 0.000000 0.750000 0.036452
Si Si5 0.808812 0.803381 0.312050
Si Si6 0.750000 0.500000 0.184642
O O1 0.114891 0.913596 0.430609
O O2 0.128012 0.845321 0.268960
O O3 0.209570 0.950400 0.261006
O O4 0.000000 0.933489 0.250000
O O5 0.983962 0.898985 0.890095
O O6 0.799625 0.837036 0.853378
O O7 0.000000 0.818117 0.750000
O O8 0.954864 0.797679 0.959664
O O9 0.834400 0.026813 0.395488
O O10 0.000000 0.000000 0.500000
O O11 0.100212 0.779241 0.103759
O O12 0.759133 0.750000 0.250000
#
# Coordination Sequence:
#
# PCOD8283724 Si02
#       6
#    16  16  16   8  16   8
#     4  12  25  47  74 108 151 192 256 309 374 463
#     4  12  28  48  74 113 152 197 255 321 382 457
#     4  12  27  46  76 107 150 201 251 310 384 457
#     4  12  26  48  76 108 150 206 256 312 388 460
#     4  12  25  48  76 110 150 201 255 314 387 453
#     4  12  26  48  72 110 144 202 242 316 380 448
#
# _framework density 22.541128
#
# number of rings (size 3 to 8) (size 9 to 14) (size 15 to 20)
#    0.000    0.000    4.000    6.600    2.800    3.200 
#    0.000    0.000    0.000    0.000    0.000    0.000 
#    0.000    0.000    0.000    0.000    0.000    0.000 
#
# Total GULP energy -495671.232719 kJ/mol
# GULP energy per Si atom -12391.780818 kJ/mol
# Density = 2.248982 g / cm^3
# Si number density = 22.541128 Si / 1000 Ang^3
#
#
#
# Elastic Constant Matrix: (Units=GPa)
#
#
# Indices 1 2 3 4 5 6 
#
# 1 103.2597 35.8948 35.8776 0.0000 0.0000 0.0000
# 2 35.8948 155.2237 54.7878 0.0000 0.0000 0.0000
# 3 35.8776 54.7878 126.9915 0.0000 0.0000 0.0000
# 4 0.0000 0.0000 0.0000 74.5699 0.0000 0.0000
# 5 0.0000 0.0000 0.0000 0.0000 36.2303 0.0000
# 6 0.0000 0.0000 0.0000 0.0000 0.0000 42.7735
#
#
#
# Elastic Compliance Matrix: (Units=1/GPa)
#
#
# Indices 1 2 3 4 5 6 
#
# 1 0.011117 -0.001725 -0.002397 0.000000 0.000000 0.000000
# 2 -0.001725 0.007867 -0.002907 0.000000 0.000000 0.000000
# 3 -0.002397 -0.002907 0.009806 0.000000 0.000000 0.000000
# 4 0.000000 0.000000 0.000000 0.013410 0.000000 0.000000
# 5 0.000000 0.000000 0.000000 0.000000 0.027601 0.000000
# 6 0.000000 0.000000 0.000000 0.000000 0.000000 0.023379
#
#
# Mechanical properties :
#
#
# Convention : Reuss Voigt Hill
#
# Bulk Modulus (GPa) = 67.87421 70.95504 69.41462
# Shear Modulus (GPa) = 44.58428 47.97572 46.28000
#
# Velocity S-wave (km/s) = 4.45219 4.61842 4.53607
# Velocity P-wave (km/s) = 7.52370 7.74507 7.63519
#
# Compressibility (1/GPa) = 0.01473314
#
# Stress axis : x y z
#
# Youngs Moduli (GPa) = 89.95591 127.11071 101.98141
#
# Poissons Ratio (x) = 0.21924 0.24440
# Poissons Ratio (y) = 0.15515 0.29644
# Poissons Ratio (z) = 0.21558 0.36949
#
# Static dielectric constant tensor:
#      x y z
#    x 3.927030 0.000000 0.000000 
#    y 0.000000 4.222730 0.000000 
#    z 0.000000 0.000000 4.298470 
# 
# 
# High freq. dielectric constant tensor:
#      x y z
#    x 1.884350 0.000000 0.000000 
#    y 0.000000 1.920930 0.000000 
#    z 0.000000 0.000000 1.903490 
# 
# From -- ./inp_files/20900.got.cif
#   From: 2010.03.12/outbox.cif.g09.slc.cpg/sg68_11_cif.got.tgz:20900.got - 2010.04.10 23:14:56.
