data_PCOD8283284
_publ_section_title
;
Structure prediction by ZEFSAII (Michael W. Deem and Ramdas Pophale) SiO2 
 PCOD8283284
Probable space group: C C C A
;
_chemical_formula_sum "Si O2"
_cell_formula_units_Z 104
_cell_length_a 17.947488
_cell_length_b 14.709442
_cell_length_c 17.768229
_cell_angle_alpha 90.000000
_cell_angle_beta 90.000000
_cell_angle_gamma 90.000000
_cell_volume 4690.768636
_symmetry_space_group_name_H-M "C C C A"
_symmetry_group_IT_number 68
_space_group.IT_coordinate_system_code '2'
_symmetry_cell_setting 'orthorhombic'
loop_
_space_group_symop_operation_xyz
x,y,z
-x,1/2-y,z
x,1/2-y,1/2-z
-x,y,1/2-z
-x,-y,-z
x,1/2+y,-z
-x,1/2+y,1/2+z
x,-y,1/2+z
1/2+x,1/2+y,z
1/2-x,-y,z
1/2+x,-y,1/2-z
1/2-x,1/2+y,1/2-z
1/2-x,1/2-y,-z
1/2+x,y,-z
1/2-x,y,1/2+z
1/2+x,1/2-y,1/2+z
loop_
_atom_site_type_symbol
_atom_site_label
_atom_site_fract_x
_atom_site_fract_y
_atom_site_fract_z
Si Si1 0.670676 0.475709 0.382957
Si Si2 0.347148 0.858191 0.737144
Si Si3 0.000000 0.946402 0.250000
Si Si4 0.500000 0.750000 0.451636
Si Si5 0.852245 0.680661 0.479720
Si Si6 0.255269 0.697379 0.381063
Si Si7 0.942755 0.607090 0.839667
Si Si8 0.134841 0.250000 0.250000
O O1 0.750000 0.500000 0.418080
O O2 0.682062 0.422187 0.303939
O O3 0.623645 0.413452 0.440767
O O4 0.633452 0.574646 0.378168
O O5 0.337910 0.750000 0.750000
O O6 0.433233 0.881726 0.722659
O O7 0.294780 0.877341 0.663870
O O8 0.018172 0.011681 0.319851
O O9 0.573529 0.761365 0.502546
O O10 0.507026 0.662471 0.398044
O O11 0.800885 0.730309 0.418045
O O12 0.805412 0.654164 0.553681
O O13 0.314594 0.741978 0.323737
O O14 0.920614 0.664327 0.764468
#
# Coordination Sequence:
#
# PCOD8283284 Si02
#       8
#    16  16   8   8  16  16  16   8
#     4  11  24  45  68 103 142 176 228 302 358 404
#     4  11  21  43  73  98 134 186 237 286 352 426
#     4  10  25  39  64 108 140 166 236 299 361 396
#     4  12  26  47  72 101 140 200 240 274 368 449
#     4  11  25  43  67 103 142 186 235 284 358 436
#     4  11  22  41  72 103 132 187 241 288 342 433
#     4  11  24  43  71  99 139 183 231 303 349 413
#     4  12  20  45  82  97 134 182 252 296 344 425
#
# _framework density 22.171206000000002
#
# number of rings (size 3 to 8) (size 9 to 14) (size 15 to 20)
#    0.000    0.923    3.846    3.000    2.154    3.077 
#    2.769    0.000    0.000    0.000    0.000    0.000 
#    0.000    0.000    0.000    0.000    0.000    0.000 
#
# Total GULP energy -644543.748916 kJ/mol
# GULP energy per Si atom -12395.072095 kJ/mol
# Density = 2.212074 g / cm^3
# Si number density = 22.171206 Si / 1000 Ang^3
#
#
#
# Elastic Constant Matrix: (Units=GPa)
#
#
# Indices 1 2 3 4 5 6 
#
# 1 93.5975 13.3455 26.8273 0.0000 0.0000 0.0000
# 2 13.3455 77.3960 23.0736 0.0000 0.0000 0.0000
# 3 26.8273 23.0736 113.7208 0.0000 0.0000 0.0000
# 4 0.0000 0.0000 0.0000 9.0680 0.0000 0.0000
# 5 0.0000 0.0000 0.0000 0.0000 35.6048 0.0000
# 6 0.0000 0.0000 0.0000 0.0000 0.0000 31.0807
#
#
#
# Elastic Compliance Matrix: (Units=1/GPa)
#
#
# Indices 1 2 3 4 5 6 
#
# 1 0.011573 -0.001258 -0.002475 0.000000 0.000000 0.000000
# 2 -0.001258 0.013889 -0.002521 0.000000 0.000000 0.000000
# 3 -0.002475 -0.002521 0.009889 0.000000 0.000000 0.000000
# 4 0.000000 0.000000 0.000000 0.110278 0.000000 0.000000
# 5 0.000000 0.000000 0.000000 0.000000 0.028086 0.000000
# 6 0.000000 0.000000 0.000000 0.000000 0.000000 0.032174
#
#
# Mechanical properties :
#
#
# Convention : Reuss Voigt Hill
#
# Bulk Modulus (GPa) = 43.77737 45.68969 44.73353
# Shear Modulus (GPa) = 22.12276 29.91522 26.01899
#
# Velocity S-wave (km/s) = 3.16225 3.67724 3.42943
# Velocity P-wave (km/s) = 5.75509 6.21948 5.99179
#
# Compressibility (1/GPa) = 0.02284285
#
# Stress axis : x y z
#
# Youngs Moduli (GPa) = 86.41006 71.99891 101.12367
#
# Poissons Ratio (x) = 0.09055 0.25027
# Poissons Ratio (y) = 0.10868 0.25497
# Poissons Ratio (z) = 0.21386 0.18154
#
# Static dielectric constant tensor:
#      x y z
#    x 4.335330 0.000000 0.000000 
#    y 0.000000 3.992120 0.000000 
#    z 0.000000 0.000000 4.163180 
# 
# 
# High freq. dielectric constant tensor:
#      x y z
#    x 1.889750 0.000000 0.000000 
#    y 0.000000 1.861150 0.000000 
#    z 0.000000 0.000000 1.868070 
# 
# From -- ./inp_files/33054.got.cif
#   From: 2010.03.12/outbox.cif.g09.slc.cpg/sg68_17_cif.got.tgz:33054.got - 2010.04.10 23:14:56.
