data_PCOD8283888
_publ_section_title
;
Structure prediction by ZEFSAII (Michael W. Deem and Ramdas Pophale) SiO2 
 PCOD8283888
Probable space group: F M M M
;
_chemical_formula_sum "Si O2"
_cell_formula_units_Z 144
_cell_length_a 28.820258
_cell_length_b 17.537341
_cell_length_c 15.719277
_cell_angle_alpha 90.000000
_cell_angle_beta 90.000000
_cell_angle_gamma 90.000000
_cell_volume 7945.005056
_symmetry_space_group_name_H-M "F M M M"
_symmetry_group_IT_number 69
_symmetry_cell_setting 'orthorhombic'
loop_
_space_group_symop_operation_xyz
x,y,z
-x,-y,z
x,-y,-z
-x,y,-z
-x,-y,-z
x,y,-z
-x,y,z
x,-y,z
x,1/2+y,1/2+z
-x,1/2-y,1/2+z
x,1/2-y,1/2-z
-x,1/2+y,1/2-z
-x,1/2-y,1/2-z
x,1/2+y,1/2-z
-x,1/2+y,1/2+z
x,1/2-y,1/2+z
1/2+x,y,1/2+z
1/2-x,-y,1/2+z
1/2+x,-y,1/2-z
1/2-x,y,1/2-z
1/2-x,-y,1/2-z
1/2+x,y,1/2-z
1/2-x,y,1/2+z
1/2+x,-y,1/2+z
1/2+x,1/2+y,z
1/2-x,1/2-y,z
1/2+x,1/2-y,-z
1/2-x,1/2+y,-z
1/2-x,1/2-y,-z
1/2+x,1/2+y,-z
1/2-x,1/2+y,z
1/2+x,1/2-y,z
loop_
_atom_site_type_symbol
_atom_site_label
_atom_site_fract_x
_atom_site_fract_y
_atom_site_fract_z
Si Si1 0.610145 0.090320 0.824624
Si Si2 0.945871 0.186039 0.000000
Si Si3 0.446296 0.087021 0.663796
Si Si4 0.214647 0.411736 0.816848
Si Si5 0.796451 0.412282 0.000000
Si Si6 0.894213 0.342461 0.000000
O O1 0.580699 0.120813 0.745041
O O2 0.662637 0.122076 0.811965
O O3 0.587052 0.119655 0.912657
O O4 0.609493 0.000000 0.828821
O O5 0.933709 0.136126 0.918042
O O6 0.910616 0.255789 0.000000
O O7 0.000000 0.211550 0.000000
O O8 0.500000 0.092212 0.686531
O O9 0.431523 0.000000 0.644761
O O10 0.211672 0.500000 0.792282
O O11 0.250000 0.371270 0.750000
O O12 0.233650 0.400034 0.914006
O O13 0.816523 0.500000 0.000000
O O14 0.838627 0.352525 0.000000
#
# Coordination Sequence:
#
# PCOD8283888 Si02
#       6
#    32  16  32  32  16  16
#     4   9  17  30  49  72  97 128 163 196 236 284
#     4  10  21  34  49  70  94 124 160 198 242 289
#     4   9  18  34  53  70  91 121 157 198 244 292
#     4   8  13  23  41  67  96 121 151 194 236 272
#     4   8  14  26  44  65  94 131 160 184 230 290
#     4  10  18  29  46  69  98 128 156 190 230 280
#
# _framework density 18.124596
#
# number of rings (size 3 to 8) (size 9 to 14) (size 15 to 20)
#    0.000    3.111    0.000    2.667    0.000    3.111 
#    0.000    3.333    0.000   10.333    0.000   18.667 
#    0.000    0.000    0.000    0.000    0.000    3.556 
#
# Total GULP energy -446049.790873 kJ/mol
# GULP energy per Si atom -12390.271969 kJ/mol
# Density = 1.808334 g / cm^3
# Si number density = 18.124596 Si / 1000 Ang^3
#
#
#
# Elastic Constant Matrix: (Units=GPa)
#
#
# Indices 1 2 3 4 5 6 
#
# 1 60.9146 35.8239 74.7759 0.0000 0.0000 0.0000
# 2 35.8239 50.4506 50.4333 0.0000 0.0000 0.0000
# 3 74.7759 50.4333 204.3806 0.0000 0.0000 0.0000
# 4 0.0000 0.0000 0.0000 -6.6627 0.0000 0.0000
# 5 0.0000 0.0000 0.0000 0.0000 36.4301 0.0000
# 6 0.0000 0.0000 0.0000 0.0000 0.0000 14.9868
#
#
#
# Elastic Compliance Matrix: (Units=1/GPa)
#
#
# Indices 1 2 3 4 5 6 
#
# 1 0.039038 -0.017844 -0.009880 0.000000 0.000000 0.000000
# 2 -0.017844 0.034468 -0.001977 0.000000 0.000000 0.000000
# 3 -0.009880 -0.001977 0.008995 0.000000 0.000000 0.000000
# 4 0.000000 0.000000 0.000000 -0.150090 0.000000 0.000000
# 5 0.000000 0.000000 0.000000 0.000000 0.027450 0.000000
# 6 0.000000 0.000000 0.000000 0.000000 0.000000 0.066725
#
#
# Mechanical properties :
#
#
# Convention : Reuss Voigt Hill
#
# Bulk Modulus (GPa) = 43.28866 70.86801 57.07834
# Shear Modulus (GPa) = 53.36844 19.26502 36.31673
#
# Velocity S-wave (km/s) = 5.43224 3.26378 4.48116
# Velocity P-wave (km/s) = 7.95496 7.30674 7.63773
#
# Compressibility (1/GPa) = 0.02310074
#
# Stress axis : x y z
#
# Youngs Moduli (GPa) = 25.61593 29.01209 111.16993
#
# Poissons Ratio (x) = 0.51769 1.09830
# Poissons Ratio (y) = 0.45709 0.21978
# Poissons Ratio (z) = 0.25307 0.05735
#
# Static dielectric constant tensor:
#      x y z
#    x 3.290960 0.000000 0.000000 
#    y 0.000000 2.947240 0.000000 
#    z 0.000000 0.000000 3.811530 
# 
# 
# High freq. dielectric constant tensor:
#      x y z
#    x 1.673810 0.000000 0.000000 
#    y 0.000000 1.659380 0.000000 
#    z 0.000000 0.000000 1.728630 
# 
# From -- ./inp_files/19528.got.cif
#   From: 2010.03.12/outbox.cif.g09.slc.cpg/sg69_10_cif.got.tgz:19528.got - 2010.04.10 23:52:46.
