data_PCOD8283250
_publ_section_title
;
Structure prediction by ZEFSAII (Michael W. Deem and Ramdas Pophale) SiO2 
 PCOD8283250
Probable space group: C C C A
;
_chemical_formula_sum "Si O2"
_cell_formula_units_Z 60
_cell_length_a 10.260725
_cell_length_b 28.900785
_cell_length_c 9.116096
_cell_angle_alpha 90.000000
_cell_angle_beta 90.000000
_cell_angle_gamma 90.000000
_cell_volume 2703.314521
_symmetry_space_group_name_H-M "C C C A"
_symmetry_group_IT_number 68
_space_group.IT_coordinate_system_code '2'
_symmetry_cell_setting 'orthorhombic'
loop_
_space_group_symop_operation_xyz
x,y,z
-x,1/2-y,z
x,1/2-y,1/2-z
-x,y,1/2-z
-x,-y,-z
x,1/2+y,-z
-x,1/2+y,1/2+z
x,-y,1/2+z
1/2+x,1/2+y,z
1/2-x,-y,z
1/2+x,-y,1/2-z
1/2-x,1/2+y,1/2-z
1/2-x,1/2-y,-z
1/2+x,y,-z
1/2-x,y,1/2+z
1/2+x,1/2-y,1/2+z
loop_
_atom_site_type_symbol
_atom_site_label
_atom_site_fract_x
_atom_site_fract_y
_atom_site_fract_z
Si Si1 0.352873 0.142909 0.776473
Si Si2 0.645412 0.561447 0.754967
Si Si3 0.797997 0.298312 0.558369
Si Si4 0.500000 0.250000 0.250000
Si Si5 0.750000 0.000000 0.997335
O O1 0.500000 0.125038 0.750000
O O2 0.254145 0.100591 0.765594
O O3 0.319392 0.180381 0.652658
O O4 0.341693 0.165895 0.935076
O O5 0.500000 0.583139 0.750000
O O6 0.664029 0.533256 0.604664
O O7 0.653656 0.528920 0.897819
O O8 0.750000 0.250000 0.500000
O O9 0.920937 0.287234 0.657494
#
# Coordination Sequence:
#
# PCOD8283250 Si02
#       5
#    16  16  16   4   8
#     4  12  28  45  68 105 145 181 235 291 350 415
#     4  11  25  45  74 103 139 182 230 285 345 417
#     4  12  25  46  72  99 140 188 238 288 350 411
#     4  12  24  44  76 100 132 192 240 288 348 408
#     4  10  24  46  72 104 138 178 230 286 348 412
#
# _framework density 22.194977000000002
#
# number of rings (size 3 to 8) (size 9 to 14) (size 15 to 20)
#    0.000    0.533    2.667    4.000    1.867   11.733 
#    0.000    0.000    0.000    0.000    0.000    0.000 
#    0.000    0.000    0.000    0.000    0.000    0.000 
#
# Total GULP energy -372098.372719 kJ/mol
# GULP energy per Si atom -12403.279091 kJ/mol
# Density = 2.214446 g / cm^3
# Si number density = 22.194977 Si / 1000 Ang^3
#
#
#
# Elastic Constant Matrix: (Units=GPa)
#
#
# Indices 1 2 3 4 5 6 
#
# 1 207.0073 82.9998 68.9519 0.0000 0.0000 0.0000
# 2 82.9998 136.5719 59.9033 0.0000 0.0000 0.0000
# 3 68.9519 59.9033 157.5636 0.0000 0.0000 0.0000
# 4 0.0000 0.0000 0.0000 8.8800 0.0000 0.0000
# 5 0.0000 0.0000 0.0000 0.0000 51.9038 0.0000
# 6 0.0000 0.0000 0.0000 0.0000 0.0000 40.2695
#
#
#
# Elastic Compliance Matrix: (Units=1/GPa)
#
#
# Indices 1 2 3 4 5 6 
#
# 1 0.006734 -0.003360 -0.001669 0.000000 0.000000 0.000000
# 2 -0.003360 0.010464 -0.002508 0.000000 0.000000 0.000000
# 3 -0.001669 -0.002508 0.008031 0.000000 0.000000 0.000000
# 4 0.000000 0.000000 0.000000 0.112613 0.000000 0.000000
# 5 0.000000 0.000000 0.000000 0.000000 0.019266 0.000000
# 6 0.000000 0.000000 0.000000 0.000000 0.000000 0.024833
#
#
# Mechanical properties :
#
#
# Convention : Reuss Voigt Hill
#
# Bulk Modulus (GPa) = 98.48402 102.76144 100.62273
# Shear Modulus (GPa) = 24.94995 39.49651 32.22323
#
# Velocity S-wave (km/s) = 3.35644 4.22302 3.81442
# Velocity P-wave (km/s) = 7.71294 8.37726 8.05195
#
# Compressibility (1/GPa) = 0.01015393
#
# Stress axis : x y z
#
# Youngs Moduli (GPa) = 148.49702 95.56245 124.52309
#
# Poissons Ratio (x) = 0.32112 0.20788
# Poissons Ratio (y) = 0.49900 0.31229
# Poissons Ratio (z) = 0.24790 0.23966
#
# Static dielectric constant tensor:
#      x y z
#    x 3.894670 0.000000 0.000000 
#    y 0.000000 4.063360 0.000000 
#    z 0.000000 0.000000 4.347050 
# 
# 
# High freq. dielectric constant tensor:
#      x y z
#    x 1.878730 0.000000 0.000000 
#    y 0.000000 1.880840 0.000000 
#    z 0.000000 0.000000 1.900150 
# 
# From -- ./inp_files/3941.got.cif
#   From: 2010.03.12/outbox.cif.g09.slc.cpg/sg68_2_cif.got.tgz:3941.got - 2010.04.10 23:14:56.
