data_PCOD8283012
_publ_section_title
;
Structure prediction by ZEFSAII (Michael W. Deem and Ramdas Pophale) SiO2 
 PCOD8283012
Probable space group: C C C A
;
_chemical_formula_sum "Si O2"
_cell_formula_units_Z 68
_cell_length_a 26.891377
_cell_length_b 8.757602
_cell_length_c 13.675887
_cell_angle_alpha 90.000000
_cell_angle_beta 90.000000
_cell_angle_gamma 90.000000
_cell_volume 3220.725777
_symmetry_space_group_name_H-M "C C C A"
_symmetry_group_IT_number 68
_space_group.IT_coordinate_system_code '2'
_symmetry_cell_setting 'orthorhombic'
loop_
_space_group_symop_operation_xyz
x,y,z
-x,1/2-y,z
x,1/2-y,1/2-z
-x,y,1/2-z
-x,-y,-z
x,1/2+y,-z
-x,1/2+y,1/2+z
x,-y,1/2+z
1/2+x,1/2+y,z
1/2-x,-y,z
1/2+x,-y,1/2-z
1/2-x,1/2+y,1/2-z
1/2-x,1/2-y,-z
1/2+x,y,-z
1/2-x,y,1/2+z
1/2+x,1/2-y,1/2+z
loop_
_atom_site_type_symbol
_atom_site_label
_atom_site_fract_x
_atom_site_fract_y
_atom_site_fract_z
Si Si1 0.445578 0.456825 0.603874
Si Si2 0.250000 0.500000 0.252902
Si Si3 0.500000 0.750000 0.250000
Si Si4 0.209736 0.820953 0.070882
Si Si5 0.000000 0.250000 0.549334
Si Si6 0.168440 0.011661 0.904454
O O1 0.464027 0.362368 0.694536
O O2 0.465653 0.631963 0.610222
O O3 0.463350 0.362498 0.509445
O O4 0.386554 0.452182 0.612499
O O5 0.233436 0.636215 0.324709
O O6 0.204654 0.448107 0.181627
O O7 0.168074 0.695124 0.095352
O O8 0.250000 0.750000 0.000000
O O9 0.185914 0.962696 0.013469
#
# Coordination Sequence:
#
# PCOD8283012 Si02
#       6
#    16   8   4  16   8  16
#     4  10  22  44  69 100 125 177 211 282 333 406
#     4  12  24  42  64  94 140 170 220 272 318 386
#     4  10  24  46  64  98 140 152 224 286 344 376
#     4  12  23  44  62  92 138 178 216 272 315 386
#     4   9  20  46  72  89 136 164 224 269 344 394
#     4  12  25  42  70  98 132 177 224 261 337 398
#
# _framework density 21.113254999999999
#
# number of rings (size 3 to 8) (size 9 to 14) (size 15 to 20)
#    0.000    0.941    4.706    2.118    0.000    2.353 
#   21.176    0.000    0.000    0.000    0.000    0.000 
#    0.000    0.000    0.000    0.000    0.000    0.000 
#
# Total GULP energy -421367.077866 kJ/mol
# GULP energy per Si atom -12393.149349 kJ/mol
# Density = 2.106520 g / cm^3
# Si number density = 21.113255 Si / 1000 Ang^3
#
#
#
# Elastic Constant Matrix: (Units=GPa)
#
#
# Indices 1 2 3 4 5 6 
#
# 1 163.7469 50.0472 55.7166 0.0000 0.0000 0.0000
# 2 50.0472 140.8676 50.1831 0.0000 0.0000 0.0000
# 3 55.7166 50.1831 125.6710 0.0000 0.0000 0.0000
# 4 0.0000 0.0000 0.0000 51.8009 0.0000 0.0000
# 5 0.0000 0.0000 0.0000 0.0000 36.8267 0.0000
# 6 0.0000 0.0000 0.0000 0.0000 0.0000 26.0707
#
#
#
# Elastic Compliance Matrix: (Units=1/GPa)
#
#
# Indices 1 2 3 4 5 6 
#
# 1 0.007539 -0.001734 -0.002650 0.000000 0.000000 0.000000
# 2 -0.001734 0.008675 -0.002695 0.000000 0.000000 0.000000
# 3 -0.002650 -0.002695 0.010208 0.000000 0.000000 0.000000
# 4 0.000000 0.000000 0.000000 0.019305 0.000000 0.000000
# 5 0.000000 0.000000 0.000000 0.000000 0.027154 0.000000
# 6 0.000000 0.000000 0.000000 0.000000 0.000000 0.038357
#
#
# Mechanical properties :
#
#
# Convention : Reuss Voigt Hill
#
# Bulk Modulus (GPa) = 81.54280 82.46436 82.00358
# Shear Modulus (GPa) = 38.61455 41.22890 39.92173
#
# Velocity S-wave (km/s) = 4.28123 4.42379 4.35309
# Velocity P-wave (km/s) = 7.94632 8.07689 8.01187
#
# Compressibility (1/GPa) = 0.01226350
#
# Stress axis : x y z
#
# Youngs Moduli (GPa) = 132.64934 115.27089 97.95931
#
# Poissons Ratio (x) = 0.19992 0.25956
# Poissons Ratio (y) = 0.23006 0.26403
# Poissons Ratio (z) = 0.35148 0.31068
#
# Static dielectric constant tensor:
#      x y z
#    x 3.679040 0.000000 0.000000 
#    y 0.000000 4.332060 0.000000 
#    z 0.000000 0.000000 4.263980 
# 
# 
# High freq. dielectric constant tensor:
#      x y z
#    x 1.819700 0.000000 0.000000 
#    y 0.000000 1.846960 0.000000 
#    z 0.000000 0.000000 1.825600 
# 
# From -- ./inp_files/19411.got.cif
#   From: 2010.03.12/outbox.cif.g09.slc.cpg/sg68_10_cif.got.tgz:19411.got - 2010.04.10 23:14:56.
