data_PCOD8283161
_publ_section_title
;
Structure prediction by ZEFSAII (Michael W. Deem and Ramdas Pophale) SiO2 
 PCOD8283161
Probable space group: C C C A
;
_chemical_formula_sum "Si O2"
_cell_formula_units_Z 48
_cell_length_a 7.628717
_cell_length_b 16.906040
_cell_length_c 15.681489
_cell_angle_alpha 90.000000
_cell_angle_beta 90.000000
_cell_angle_gamma 90.000000
_cell_volume 2022.463508
_symmetry_space_group_name_H-M "C C C A"
_symmetry_group_IT_number 68
_space_group.IT_coordinate_system_code '2'
_symmetry_cell_setting 'orthorhombic'
loop_
_space_group_symop_operation_xyz
x,y,z
-x,1/2-y,z
x,1/2-y,1/2-z
-x,y,1/2-z
-x,-y,-z
x,1/2+y,-z
-x,1/2+y,1/2+z
x,-y,1/2+z
1/2+x,1/2+y,z
1/2-x,-y,z
1/2+x,-y,1/2-z
1/2-x,1/2+y,1/2-z
1/2-x,1/2-y,-z
1/2+x,y,-z
1/2-x,y,1/2+z
1/2+x,1/2-y,1/2+z
loop_
_atom_site_type_symbol
_atom_site_label
_atom_site_fract_x
_atom_site_fract_y
_atom_site_fract_z
Si Si1 0.223500 0.696723 0.612767
Si Si2 0.000000 0.391537 0.250000
Si Si3 0.893320 0.349003 0.567309
Si Si4 0.250000 0.000000 0.638960
O O1 0.102724 0.676029 0.531514
O O2 0.255217 0.792015 0.618128
O O3 0.413272 0.657503 0.605443
O O4 0.125695 0.665785 0.695861
O O5 0.115294 0.450835 0.305172
O O6 0.846602 0.440194 0.575680
#
# Coordination Sequence:
#
# PCOD8283161 Si02
#       4
#    16   8  16   8
#     4  10  23  45  71  96 132 180 228 273 334 409
#     4  12  26  43  66 101 140 178 224 285 342 392
#     4  10  23  45  70  97 131 179 228 273 333 412
#     4  12  26  40  64 100 138 176 224 284 340 392
#
# _framework density 23.733432000000001
#
# number of rings (size 3 to 8) (size 9 to 14) (size 15 to 20)
#    0.000    1.333    0.000    4.000    0.000   13.333 
#    0.000    3.333    0.000    0.000    0.000    0.000 
#    0.000    0.000    0.000    0.000    0.000    0.000 
#
# Total GULP energy -297637.085170 kJ/mol
# GULP energy per Si atom -12401.545215 kJ/mol
# Density = 2.367941 g / cm^3
# Si number density = 23.733432 Si / 1000 Ang^3
#
#
#
# Elastic Constant Matrix: (Units=GPa)
#
#
# Indices 1 2 3 4 5 6 
#
# 1 141.8305 73.2062 70.3608 0.0000 0.0000 0.0000
# 2 73.2062 180.7693 64.3911 0.0000 0.0000 0.0000
# 3 70.3608 64.3911 103.8783 0.0000 0.0000 0.0000
# 4 0.0000 0.0000 0.0000 32.7301 0.0000 0.0000
# 5 0.0000 0.0000 0.0000 0.0000 42.0489 0.0000
# 6 0.0000 0.0000 0.0000 0.0000 0.0000 36.1362
#
#
#
# Elastic Compliance Matrix: (Units=1/GPa)
#
#
# Indices 1 2 3 4 5 6 
#
# 1 0.011369 -0.002389 -0.006220 0.000000 0.000000 0.000000
# 2 -0.002389 0.007601 -0.003094 0.000000 0.000000 0.000000
# 3 -0.006220 -0.003094 0.015758 0.000000 0.000000 0.000000
# 4 0.000000 0.000000 0.000000 0.030553 0.000000 0.000000
# 5 0.000000 0.000000 0.000000 0.000000 0.023782 0.000000
# 6 0.000000 0.000000 0.000000 0.000000 0.000000 0.027673
#
#
# Mechanical properties :
#
#
# Convention : Reuss Voigt Hill
#
# Bulk Modulus (GPa) = 88.31763 93.59937 90.95850
# Shear Modulus (GPa) = 34.74244 36.75103 35.74673
#
# Velocity S-wave (km/s) = 3.83019 3.93936 3.88516
# Velocity P-wave (km/s) = 7.54013 7.75982 7.65076
#
# Compressibility (1/GPa) = 0.01132277
#
# Stress axis : x y z
#
# Youngs Moduli (GPa) = 87.95559 131.55662 63.46074
#
# Poissons Ratio (x) = 0.31423 0.39475
# Poissons Ratio (y) = 0.21009 0.19635
# Poissons Ratio (z) = 0.54711 0.40703
#
# Static dielectric constant tensor:
#      x y z
#    x 4.463800 0.000000 0.000000 
#    y 0.000000 4.666270 0.000000 
#    z 0.000000 0.000000 4.131120 
# 
# 
# High freq. dielectric constant tensor:
#      x y z
#    x 1.964340 0.000000 0.000000 
#    y 0.000000 1.957700 0.000000 
#    z 0.000000 0.000000 1.931910 
# 
# From -- ./inp_files/18850.got.cif
#   From: 2010.03.12/outbox.cif.g09.slc.cpg/sg68_10_cif.got.tgz:18850.got - 2010.04.10 23:14:56.
