data_PCOD8283811
_publ_section_title
;
Structure prediction by ZEFSAII (Michael W. Deem and Ramdas Pophale) SiO2 
 PCOD8283811
Probable space group: F M M M
;
_chemical_formula_sum "Si O2"
_cell_formula_units_Z 192
_cell_length_a 22.561549
_cell_length_b 25.552020
_cell_length_c 20.054259
_cell_angle_alpha 90.000000
_cell_angle_beta 90.000000
_cell_angle_gamma 90.000000
_cell_volume 11561.142967
_symmetry_space_group_name_H-M "F M M M"
_symmetry_group_IT_number 69
_symmetry_cell_setting 'orthorhombic'
loop_
_space_group_symop_operation_xyz
x,y,z
-x,-y,z
x,-y,-z
-x,y,-z
-x,-y,-z
x,y,-z
-x,y,z
x,-y,z
x,1/2+y,1/2+z
-x,1/2-y,1/2+z
x,1/2-y,1/2-z
-x,1/2+y,1/2-z
-x,1/2-y,1/2-z
x,1/2+y,1/2-z
-x,1/2+y,1/2+z
x,1/2-y,1/2+z
1/2+x,y,1/2+z
1/2-x,-y,1/2+z
1/2+x,-y,1/2-z
1/2-x,y,1/2-z
1/2-x,-y,1/2-z
1/2+x,y,1/2-z
1/2-x,y,1/2+z
1/2+x,-y,1/2+z
1/2+x,1/2+y,z
1/2-x,1/2-y,z
1/2+x,1/2-y,-z
1/2-x,1/2+y,-z
1/2-x,1/2-y,-z
1/2+x,1/2+y,-z
1/2-x,1/2+y,z
1/2+x,1/2-y,z
loop_
_atom_site_type_symbol
_atom_site_label
_atom_site_fract_x
_atom_site_fract_y
_atom_site_fract_z
Si Si1 0.000000 0.287810 0.857352
Si Si2 0.875891 0.321638 0.129748
Si Si3 0.787513 0.439943 0.683539
Si Si4 0.500000 0.679707 0.202893
Si Si5 0.241465 0.360987 0.075470
Si Si6 0.805546 0.279113 0.340011
Si Si7 0.378483 0.135833 0.271265
O O1 0.056752 0.312478 0.896154
O O2 0.000000 0.300524 0.778709
O O3 0.000000 0.224417 0.854529
O O4 0.829005 0.347345 0.079027
O O5 0.856477 0.262409 0.145016
O O6 0.881788 0.361816 0.191575
O O7 0.792616 0.500000 0.662177
O O8 0.750000 0.431690 0.750000
O O9 0.756531 0.409614 0.622876
O O10 0.853417 0.418734 0.700179
O O11 0.558668 0.644613 0.192506
O O12 0.281122 0.310482 0.095020
O O13 0.256546 0.376718 0.000000
O O14 0.750000 0.250000 0.306400
O O15 0.831041 0.319005 0.286710
#
# Coordination Sequence:
#
# PCOD8283811 Si02
#       7
#    16  32  32  16  32  32  32
#     4   9  16  26  41  72 102 141 172 205 233 281
#     4  10  17  28  45  69 104 138 171 197 239 291
#     4  10  20  36  56  77  98 121 163 220 268 307
#     4   9  16  26  45  70 110 135 166 206 245 294
#     4  10  21  34  48  72 102 135 167 204 256 305
#     4   9  18  25  43  68 100 134 166 204 239 294
#     4  10  17  29  46  76 102 133 166 207 254 298
#
# _framework density 16.607354000000001
#
# number of rings (size 3 to 8) (size 9 to 14) (size 15 to 20)
#    0.000    2.333    3.333    0.500    0.000    5.333 
#    0.000    0.833    0.000    0.000    0.000    9.917 
#    0.000    6.667    0.000    0.000    0.000    0.000 
#
# Total GULP energy -594764.971689 kJ/mol
# GULP energy per Si atom -12390.936910 kJ/mol
# Density = 1.656956 g / cm^3
# Si number density = 16.607354 Si / 1000 Ang^3
#
#
#
# Elastic Constant Matrix: (Units=GPa)
#
#
# Indices 1 2 3 4 5 6 
#
# 1 115.5855 35.0496 15.7849 0.0000 0.0000 0.0000
# 2 35.0496 86.8147 25.8446 0.0000 0.0000 0.0000
# 3 15.7849 25.8446 64.9471 0.0000 0.0000 0.0000
# 4 0.0000 0.0000 0.0000 9.2678 0.0000 0.0000
# 5 0.0000 0.0000 0.0000 0.0000 10.9016 0.0000
# 6 0.0000 0.0000 0.0000 0.0000 0.0000 19.3378
#
#
#
# Elastic Compliance Matrix: (Units=1/GPa)
#
#
# Indices 1 2 3 4 5 6 
#
# 1 0.009907 -0.003724 -0.000926 0.000000 0.000000 0.000000
# 2 -0.003724 0.014467 -0.004852 0.000000 0.000000 0.000000
# 3 -0.000926 -0.004852 0.017553 0.000000 0.000000 0.000000
# 4 0.000000 0.000000 0.000000 0.107900 0.000000 0.000000
# 5 0.000000 0.000000 0.000000 0.000000 0.091729 0.000000
# 6 0.000000 0.000000 0.000000 0.000000 0.000000 0.051712
#
#
# Mechanical properties :
#
#
# Convention : Reuss Voigt Hill
#
# Bulk Modulus (GPa) = 43.62372 46.74504 45.18438
# Shear Modulus (GPa) = 15.62924 20.61266 18.12095
#
# Velocity S-wave (km/s) = 3.07107 3.52686 3.30682
# Velocity P-wave (km/s) = 6.23699 6.69278 6.46890
#
# Compressibility (1/GPa) = 0.02292331
#
# Stress axis : x y z
#
# Youngs Moduli (GPa) = 100.93494 69.12424 56.97093
#
# Poissons Ratio (x) = 0.25744 0.05275
# Poissons Ratio (y) = 0.37591 0.27640
# Poissons Ratio (z) = 0.09346 0.33537
#
# Static dielectric constant tensor:
#      x y z
#    x 3.407780 0.000000 0.000000 
#    y 0.000000 3.004990 0.000000 
#    z 0.000000 0.000000 2.706590 
# 
# 
# High freq. dielectric constant tensor:
#      x y z
#    x 1.650010 0.000000 0.000000 
#    y 0.000000 1.615360 0.000000 
#    z 0.000000 0.000000 1.600140 
# 
# From -- ./inp_files/32214.got.cif
#   From: 2010.03.12/outbox.cif.g09.slc.cpg/sg69_17_cif.got.tgz:32214.got - 2010.04.10 23:52:46.
