data_PCOD8283562
_publ_section_title
;
Structure prediction by ZEFSAII (Michael W. Deem and Ramdas Pophale) SiO2 
 PCOD8283562
Probable space group: C C C A
;
_chemical_formula_sum "Si O2"
_cell_formula_units_Z 64
_cell_length_a 23.621833
_cell_length_b 10.573338
_cell_length_c 10.874288
_cell_angle_alpha 90.000000
_cell_angle_beta 90.000000
_cell_angle_gamma 90.000000
_cell_volume 2715.979836
_symmetry_space_group_name_H-M "C C C A"
_symmetry_group_IT_number 68
_space_group.IT_coordinate_system_code '2'
_symmetry_cell_setting 'orthorhombic'
loop_
_space_group_symop_operation_xyz
x,y,z
-x,1/2-y,z
x,1/2-y,1/2-z
-x,y,1/2-z
-x,-y,-z
x,1/2+y,-z
-x,1/2+y,1/2+z
x,-y,1/2+z
1/2+x,1/2+y,z
1/2-x,-y,z
1/2+x,-y,1/2-z
1/2-x,1/2+y,1/2-z
1/2-x,1/2-y,-z
1/2+x,y,-z
1/2-x,y,1/2+z
1/2+x,1/2-y,1/2+z
loop_
_atom_site_type_symbol
_atom_site_label
_atom_site_fract_x
_atom_site_fract_y
_atom_site_fract_z
Si Si1 0.258376 0.360842 0.649358
Si Si2 0.500000 0.448249 0.250000
Si Si3 0.589726 0.750000 0.750000
Si Si4 0.549922 0.174599 0.877398
Si Si5 0.343456 0.752168 0.982644
O O1 0.257120 0.250000 0.750000
O O2 0.250000 0.500000 0.710241
O O3 0.317710 0.354886 0.573518
O O4 0.207327 0.346429 0.552405
O O5 0.449461 0.361937 0.194936
O O6 0.527368 0.532601 0.142592
O O7 0.629316 0.806074 0.858499
O O8 0.500000 0.250000 0.951557
O O9 0.559642 0.250000 0.750000
O O10 0.608648 0.167154 0.948561
#
# Coordination Sequence:
#
# PCOD8283562 Si02
#       5
#    16   8   8  16  16
#     4  11  27  50  74 106 143 191 253 318 378 442
#     4   9  23  42  66 100 149 177 234 290 350 449
#     4  11  24  42  62 110 142 186 229 290 362 450
#     4   9  21  44  67 100 135 187 236 291 364 435
#     4  11  25  44  70 104 142 190 240 303 371 444
#
# _framework density 23.564239000000001
#
# number of rings (size 3 to 8) (size 9 to 14) (size 15 to 20)
#    0.000    2.000    1.250    0.750    7.000   11.000 
#    0.000    0.000    0.000    0.000    0.000    0.000 
#    0.000    0.000    0.000    0.000    0.000    0.000 
#
# Total GULP energy -396589.047079 kJ/mol
# GULP energy per Si atom -12393.407721 kJ/mol
# Density = 2.351061 g / cm^3
# Si number density = 23.564239 Si / 1000 Ang^3
#
#
#
# Elastic Constant Matrix: (Units=GPa)
#
#
# Indices 1 2 3 4 5 6 
#
# 1 180.1189 59.6163 66.4640 0.0000 0.0000 0.0000
# 2 59.6163 157.2781 50.5386 0.0000 0.0000 0.0000
# 3 66.4640 50.5386 99.0720 0.0000 0.0000 0.0000
# 4 0.0000 0.0000 0.0000 20.2713 0.0000 0.0000
# 5 0.0000 0.0000 0.0000 0.0000 44.5250 0.0000
# 6 0.0000 0.0000 0.0000 0.0000 0.0000 16.5997
#
#
#
# Elastic Compliance Matrix: (Units=1/GPa)
#
#
# Indices 1 2 3 4 5 6 
#
# 1 0.007663 -0.001498 -0.004376 0.000000 0.000000 0.000000
# 2 -0.001498 0.007898 -0.003024 0.000000 0.000000 0.000000
# 3 -0.004376 -0.003024 0.014572 0.000000 0.000000 0.000000
# 4 0.000000 0.000000 0.000000 0.049331 0.000000 0.000000
# 5 0.000000 0.000000 0.000000 0.000000 0.022459 0.000000
# 6 0.000000 0.000000 0.000000 0.000000 0.000000 0.060242
#
#
# Mechanical properties :
#
#
# Convention : Reuss Voigt Hill
#
# Bulk Modulus (GPa) = 81.06416 87.74521 84.40468
# Shear Modulus (GPa) = 27.16312 33.60252 30.38282
#
# Velocity S-wave (km/s) = 3.39887 3.78033 3.59466
# Velocity P-wave (km/s) = 7.06251 7.50813 7.28873
#
# Compressibility (1/GPa) = 0.01233591
#
# Stress axis : x y z
#
# Youngs Moduli (GPa) = 130.50300 126.61948 68.62474
#
# Poissons Ratio (x) = 0.18971 0.30032
# Poissons Ratio (y) = 0.19553 0.20750
# Poissons Ratio (z) = 0.57112 0.38285
#
# Static dielectric constant tensor:
#      x y z
#    x 4.745160 0.000000 0.000000 
#    y 0.000000 3.976690 0.000000 
#    z 0.000000 0.000000 4.037050 
# 
# 
# High freq. dielectric constant tensor:
#      x y z
#    x 1.958640 0.000000 0.000000 
#    y 0.000000 1.907000 0.000000 
#    z 0.000000 0.000000 1.920110 
# 
# From -- ./inp_files/16131.got.cif
#   From: 2010.03.12/outbox.cif.g09.slc.cpg/sg68_9_cif.got.tgz:16131.got - 2010.04.10 23:14:56.
