data_PCOD8283479
_publ_section_title
;
Structure prediction by ZEFSAII (Michael W. Deem and Ramdas Pophale) SiO2 
 PCOD8283479
Probable space group: C C C A
;
_chemical_formula_sum "Si O2"
_cell_formula_units_Z 112
_cell_length_a 25.041626
_cell_length_b 15.754870
_cell_length_c 13.765969
_cell_angle_alpha 90.000000
_cell_angle_beta 90.000000
_cell_angle_gamma 90.000000
_cell_volume 5431.054191
_symmetry_space_group_name_H-M "C C C A"
_symmetry_group_IT_number 68
_space_group.IT_coordinate_system_code '2'
_symmetry_cell_setting 'orthorhombic'
loop_
_space_group_symop_operation_xyz
x,y,z
-x,1/2-y,z
x,1/2-y,1/2-z
-x,y,1/2-z
-x,-y,-z
x,1/2+y,-z
-x,1/2+y,1/2+z
x,-y,1/2+z
1/2+x,1/2+y,z
1/2-x,-y,z
1/2+x,-y,1/2-z
1/2-x,1/2+y,1/2-z
1/2-x,1/2-y,-z
1/2+x,y,-z
1/2-x,y,1/2+z
1/2+x,1/2-y,1/2+z
loop_
_atom_site_type_symbol
_atom_site_label
_atom_site_fract_x
_atom_site_fract_y
_atom_site_fract_z
Si Si1 0.392023 0.404060 0.455176
Si Si2 0.207612 0.141929 0.045430
Si Si3 0.001172 0.350345 0.636841
Si Si4 0.306452 0.169527 0.923064
Si Si5 0.269249 0.909903 0.244943
Si Si6 0.110944 0.081775 0.930796
Si Si7 0.343752 0.348735 0.258647
O O1 0.452499 0.384322 0.427560
O O2 0.363966 0.334452 0.524513
O O3 0.388031 0.491329 0.515639
O O4 0.358359 0.398151 0.356683
O O5 0.214066 0.235481 0.089089
O O6 0.205895 0.079186 0.137686
O O7 0.259040 0.118440 0.979658
O O8 0.151618 0.141201 0.989469
O O9 0.051293 0.382090 0.574203
O O10 0.000000 0.250000 0.638894
O O11 0.000000 0.383387 0.750000
O O12 0.313783 0.126586 0.817853
O O13 0.219841 0.844028 0.247218
O O14 0.250000 0.000000 0.284137
O O15 0.132035 0.086700 0.820666
O O16 0.365840 0.250000 0.250000
#
# Coordination Sequence:
#
# PCOD8283479 Si02
#       7
#    16  16  16  16  16  16  16
#     4  12  25  41  66 101 136 167 214 281 337 386
#     4  11  23  39  63  93 131 176 221 265 326 394
#     4  11  23  44  74  99 124 168 227 277 327 394
#     4  11  23  39  63  93 131 176 221 265 326 394
#     4  12  24  38  61  94 135 176 220 275 333 389
#     4  12  25  41  66 101 136 167 214 281 337 386
#     4  12  22  41  70  98 130 177 236 274 314 396
#
# _framework density 20.622146999999998
#
# number of rings (size 3 to 8) (size 9 to 14) (size 15 to 20)
#    0.000    0.429    4.286    6.000    0.000    0.000 
#    0.000    0.000    0.000    0.000    0.000    4.000 
#    0.000    0.000    0.000    0.000    0.000    0.000 
#
# Total GULP energy -694024.055238 kJ/mol
# GULP energy per Si atom -12393.286701 kJ/mol
# Density = 2.057521 g / cm^3
# Si number density = 20.622147 Si / 1000 Ang^3
#
#
#
# Elastic Constant Matrix: (Units=GPa)
#
#
# Indices 1 2 3 4 5 6 
#
# 1 122.8782 9.1384 38.7213 0.0000 0.0000 0.0000
# 2 9.1384 82.1789 31.2055 0.0000 0.0000 0.0000
# 3 38.7213 31.2055 101.5722 0.0000 0.0000 0.0000
# 4 0.0000 0.0000 0.0000 36.2616 0.0000 0.0000
# 5 0.0000 0.0000 0.0000 0.0000 26.2570 0.0000
# 6 0.0000 0.0000 0.0000 0.0000 0.0000 29.2452
#
#
#
# Elastic Compliance Matrix: (Units=1/GPa)
#
#
# Indices 1 2 3 4 5 6 
#
# 1 0.009258 0.000352 -0.003637 0.000000 0.000000 0.000000
# 2 0.000352 0.013789 -0.004370 0.000000 0.000000 0.000000
# 3 -0.003637 -0.004370 0.012575 0.000000 0.000000 0.000000
# 4 0.000000 0.000000 0.000000 0.027577 0.000000 0.000000
# 5 0.000000 0.000000 0.000000 0.000000 0.038085 0.000000
# 6 0.000000 0.000000 0.000000 0.000000 0.000000 0.034194
#
#
# Mechanical properties :
#
#
# Convention : Reuss Voigt Hill
#
# Bulk Modulus (GPa) = 49.23802 51.63995 50.43898
# Shear Modulus (GPa) = 31.73392 33.52371 32.62881
#
# Velocity S-wave (km/s) = 3.92704 4.03627 3.98203
# Velocity P-wave (km/s) = 6.67011 6.84232 6.75676
#
# Compressibility (1/GPa) = 0.02030951
#
# Stress axis : x y z
#
# Youngs Moduli (GPa) = 108.01217 72.52143 79.52551
#
# Poissons Ratio (x) = -0.02551 0.28927
# Poissons Ratio (y) = -0.03799 0.34756
# Poissons Ratio (z) = 0.39289 0.31695
#
# Static dielectric constant tensor:
#      x y z
#    x 4.006500 0.000000 0.000000 
#    y 0.000000 2.615820 0.000000 
#    z 0.000000 0.000000 3.955020 
# 
# 
# High freq. dielectric constant tensor:
#      x y z
#    x 1.799310 0.000000 0.000000 
#    y 0.000000 1.801580 0.000000 
#    z 0.000000 0.000000 1.819230 
# 
# From -- ./inp_files/25453.got.cif
#   From: 2010.03.12/outbox.cif.g09.slc.cpg/sg68_13_cif.got.tgz:25453.got - 2010.04.10 23:14:56.
