data_PCOD8283295
_publ_section_title
;
Structure prediction by ZEFSAII (Michael W. Deem and Ramdas Pophale) SiO2 
 PCOD8283295
Probable space group: C C C A
;
_chemical_formula_sum "Si O2"
_cell_formula_units_Z 64
_cell_length_a 14.330513
_cell_length_b 22.205795
_cell_length_c 8.162303
_cell_angle_alpha 90.000000
_cell_angle_beta 90.000000
_cell_angle_gamma 90.000000
_cell_volume 2597.411602
_symmetry_space_group_name_H-M "C C C A"
_symmetry_group_IT_number 68
_space_group.IT_coordinate_system_code '2'
_symmetry_cell_setting 'orthorhombic'
loop_
_space_group_symop_operation_xyz
x,y,z
-x,1/2-y,z
x,1/2-y,1/2-z
-x,y,1/2-z
-x,-y,-z
x,1/2+y,-z
-x,1/2+y,1/2+z
x,-y,1/2+z
1/2+x,1/2+y,z
1/2-x,-y,z
1/2+x,-y,1/2-z
1/2-x,1/2+y,1/2-z
1/2-x,1/2-y,-z
1/2+x,y,-z
1/2-x,y,1/2+z
1/2+x,1/2-y,1/2+z
loop_
_atom_site_type_symbol
_atom_site_label
_atom_site_fract_x
_atom_site_fract_y
_atom_site_fract_z
Si Si1 0.854881 0.751112 0.443505
Si Si2 0.940949 0.631688 0.584675
Si Si3 0.620429 0.615315 0.548775
Si Si4 0.273521 0.931199 0.243920
O O1 0.865553 0.750000 0.250000
O O2 0.750000 0.750000 0.500000
O O3 0.913683 0.697777 0.522319
O O4 0.890845 0.815369 0.507516
O O5 0.848935 0.591366 0.609850
O O6 0.000000 0.637748 0.750000
O O7 0.010769 0.595985 0.456019
O O8 0.686533 0.578442 0.424291
O O9 0.675081 0.606381 0.721644
O O10 0.250000 0.000000 0.211010
#
# Coordination Sequence:
#
# PCOD8283295 Si02
#       4
#    16  16  16  16
#     4  12  25  44  76 111 150 189 239 304 374 442
#     4  10  25  44  73 105 143 190 237 298 376 433
#     4  11  24  44  69 101 143 183 235 296 362 429
#     4  11  24  45  69  98 138 191 241 294 353 425
#
# _framework density 24.639914999999998
#
# number of rings (size 3 to 8) (size 9 to 14) (size 15 to 20)
#    0.000    1.000    2.500    3.000    3.500    6.000 
#    0.000    2.500    0.000    0.000    0.000    0.000 
#    0.000    0.000    0.000    0.000    0.000    0.000 
#
# Total GULP energy -396605.042585 kJ/mol
# GULP energy per Si atom -12393.907581 kJ/mol
# Density = 2.458383 g / cm^3
# Si number density = 24.639915 Si / 1000 Ang^3
#
#
#
# Elastic Constant Matrix: (Units=GPa)
#
#
# Indices 1 2 3 4 5 6 
#
# 1 141.3992 44.6374 7.1090 0.0000 0.0000 0.0000
# 2 44.6374 158.2218 22.2813 0.0000 0.0000 0.0000
# 3 7.1090 22.2813 20.7549 0.0000 0.0000 0.0000
# 4 0.0000 0.0000 0.0000 23.9454 0.0000 0.0000
# 5 0.0000 0.0000 0.0000 0.0000 34.5010 0.0000
# 6 0.0000 0.0000 0.0000 0.0000 0.0000 25.5368
#
#
#
# Elastic Compliance Matrix: (Units=1/GPa)
#
#
# Indices 1 2 3 4 5 6 
#
# 1 0.007766 -0.002140 -0.000363 0.000000 0.000000 0.000000
# 2 -0.002140 0.008036 -0.007894 0.000000 0.000000 0.000000
# 3 -0.000363 -0.007894 0.056780 0.000000 0.000000 0.000000
# 4 0.000000 0.000000 0.000000 0.041762 0.000000 0.000000
# 5 0.000000 0.000000 0.000000 0.000000 0.028985 0.000000
# 6 0.000000 0.000000 0.000000 0.000000 0.000000 0.039159
#
#
# Mechanical properties :
#
#
# Convention : Reuss Voigt Hill
#
# Bulk Modulus (GPa) = 19.30917 52.04791 35.67854
# Shear Modulus (GPa) = 22.67140 33.21985 27.94562
#
# Velocity S-wave (km/s) = 3.03662 3.67579 3.37138
# Velocity P-wave (km/s) = 4.48869 6.25975 5.44669
#
# Compressibility (1/GPa) = 0.05178887
#
# Stress axis : x y z
#
# Youngs Moduli (GPa) = 128.76769 124.44740 17.61190
#
# Poissons Ratio (x) = 0.26630 0.00639
# Poissons Ratio (y) = 0.27554 0.13902
# Poissons Ratio (z) = 0.04672 0.98233
#
# Static dielectric constant tensor:
#      x y z
#    x 4.457690 0.000000 0.000000 
#    y 0.000000 4.324800 0.000000 
#    z 0.000000 0.000000 4.481790 
# 
# 
# High freq. dielectric constant tensor:
#      x y z
#    x 2.016590 0.000000 0.000000 
#    y 0.000000 1.965130 0.000000 
#    z 0.000000 0.000000 1.979260 
# 
# From -- ./inp_files/5005.got.cif
#   From: 2010.03.12/outbox.cif.g09.slc.cpg/sg68_3_cif.got.tgz:5005.got - 2010.04.10 23:14:56.
