data_PCOD8283313
_publ_section_title
;
Structure prediction by ZEFSAII (Michael W. Deem and Ramdas Pophale) SiO2 
 PCOD8283313
Probable space group: C C C A
;
_chemical_formula_sum "Si O2"
_cell_formula_units_Z 60
_cell_length_a 8.938839
_cell_length_b 12.087275
_cell_length_c 22.863013
_cell_angle_alpha 90.000000
_cell_angle_beta 90.000000
_cell_angle_gamma 90.000000
_cell_volume 2470.261793
_symmetry_space_group_name_H-M "C C C A"
_symmetry_group_IT_number 68
_space_group.IT_coordinate_system_code '2'
_symmetry_cell_setting 'orthorhombic'
loop_
_space_group_symop_operation_xyz
x,y,z
-x,1/2-y,z
x,1/2-y,1/2-z
-x,y,1/2-z
-x,-y,-z
x,1/2+y,-z
-x,1/2+y,1/2+z
x,-y,1/2+z
1/2+x,1/2+y,z
1/2-x,-y,z
1/2+x,-y,1/2-z
1/2-x,1/2+y,1/2-z
1/2-x,1/2-y,-z
1/2+x,y,-z
1/2-x,y,1/2+z
1/2+x,1/2-y,1/2+z
loop_
_atom_site_type_symbol
_atom_site_label
_atom_site_fract_x
_atom_site_fract_y
_atom_site_fract_z
Si Si1 0.000000 0.250000 0.505894
Si Si2 0.500000 0.750000 0.250000
Si Si3 0.756896 0.131817 0.172949
Si Si4 0.000000 0.404855 0.750000
Si Si5 0.758765 0.309354 0.080621
Si Si6 0.750000 0.000000 0.828500
O O1 0.893227 0.175015 0.465381
O O2 0.897519 0.328995 0.546658
O O3 0.399964 0.670541 0.209593
O O4 0.605745 0.169632 0.207800
O O5 0.758786 0.186592 0.108753
O O6 0.750000 0.000000 0.164888
O O7 0.894048 0.484155 0.711617
O O8 0.782947 0.393894 0.132641
#
# Coordination Sequence:
#
# PCOD8283313 Si02
#       6
#     8   4  16   8  16   8
#     4  10  25  52  70 104 138 198 263 330 382 448
#     4  12  28  50  78 118 168 212 262 310 390 480
#     4  12  27  46  77 115 158 209 252 315 383 480
#     4  12  27  45  72 118 162 197 257 296 394 478
#     4  11  26  48  74 105 147 194 263 318 391 451
#     4  12  28  46  74 114 154 208 248 320 392 476
#
# _framework density 24.288923
#
# number of rings (size 3 to 8) (size 9 to 14) (size 15 to 20)
#    0.000    0.533    1.333    4.800    7.467    4.800 
#    9.600    0.000    0.000    0.000    0.000    0.000 
#    0.000    0.000    0.000    0.000    0.000    0.000 
#
# Total GULP energy -372064.117925 kJ/mol
# GULP energy per Si atom -12402.137264 kJ/mol
# Density = 2.423364 g / cm^3
# Si number density = 24.288923 Si / 1000 Ang^3
#
#
#
# Elastic Constant Matrix: (Units=GPa)
#
#
# Indices 1 2 3 4 5 6 
#
# 1 192.0316 35.4672 74.5874 0.0000 0.0000 0.0000
# 2 35.4672 117.0628 48.7730 0.0000 0.0000 0.0000
# 3 74.5874 48.7730 155.4974 0.0000 0.0000 0.0000
# 4 0.0000 0.0000 0.0000 13.2527 0.0000 0.0000
# 5 0.0000 0.0000 0.0000 0.0000 79.1762 0.0000
# 6 0.0000 0.0000 0.0000 0.0000 0.0000 34.1189
#
#
#
# Elastic Compliance Matrix: (Units=1/GPa)
#
#
# Indices 1 2 3 4 5 6 
#
# 1 0.006459 -0.000766 -0.002858 0.000000 0.000000 0.000000
# 2 -0.000766 0.009917 -0.002743 0.000000 0.000000 0.000000
# 3 -0.002858 -0.002743 0.008662 0.000000 0.000000 0.000000
# 4 0.000000 0.000000 0.000000 0.075456 0.000000 0.000000
# 5 0.000000 0.000000 0.000000 0.000000 0.012630 0.000000
# 6 0.000000 0.000000 0.000000 0.000000 0.000000 0.029309
#
#
# Mechanical properties :
#
#
# Convention : Reuss Voigt Hill
#
# Bulk Modulus (GPa) = 81.27294 86.91634 84.09464
# Shear Modulus (GPa) = 31.39315 45.69383 38.54349
#
# Velocity S-wave (km/s) = 3.59902 4.34206 3.98788
# Velocity P-wave (km/s) = 7.12770 7.81025 7.47677
#
# Compressibility (1/GPa) = 0.01230422
#
# Stress axis : x y z
#
# Youngs Moduli (GPa) = 154.82217 100.83206 115.44383
#
# Poissons Ratio (x) = 0.07726 0.32992
# Poissons Ratio (y) = 0.11863 0.31668
# Poissons Ratio (z) = 0.44246 0.27660
#
# Static dielectric constant tensor:
#      x y z
#    x 4.910050 0.000000 0.000000 
#    y 0.000000 4.066580 0.000000 
#    z 0.000000 0.000000 4.749060 
# 
# 
# High freq. dielectric constant tensor:
#      x y z
#    x 1.994220 0.000000 0.000000 
#    y 0.000000 1.942600 0.000000 
#    z 0.000000 0.000000 1.980640 
# 
# From -- ./inp_files/48778.got.cif
#   From: 2010.03.12/outbox.cif.g09.slc.cpg/sg68_25_cif.got.tgz:48778.got - 2010.04.10 23:14:56.
