data_PCOD8283573
_publ_section_title
;
Structure prediction by ZEFSAII (Michael W. Deem and Ramdas Pophale) SiO2 
 PCOD8283573
Probable space group: C C C A
;
_chemical_formula_sum "Si O2"
_cell_formula_units_Z 64
_cell_length_a 34.231138
_cell_length_b 8.932620
_cell_length_c 10.308849
_cell_angle_alpha 90.000000
_cell_angle_beta 90.000000
_cell_angle_gamma 90.000000
_cell_volume 3152.175395
_symmetry_space_group_name_H-M "C C C A"
_symmetry_group_IT_number 68
_space_group.IT_coordinate_system_code '2'
_symmetry_cell_setting 'orthorhombic'
loop_
_space_group_symop_operation_xyz
x,y,z
-x,1/2-y,z
x,1/2-y,1/2-z
-x,y,1/2-z
-x,-y,-z
x,1/2+y,-z
-x,1/2+y,1/2+z
x,-y,1/2+z
1/2+x,1/2+y,z
1/2-x,-y,z
1/2+x,-y,1/2-z
1/2-x,1/2+y,1/2-z
1/2-x,1/2-y,-z
1/2+x,y,-z
1/2-x,y,1/2+z
1/2+x,1/2-y,1/2+z
loop_
_atom_site_type_symbol
_atom_site_label
_atom_site_fract_x
_atom_site_fract_y
_atom_site_fract_z
Si Si1 0.640926 0.332804 0.381131
Si Si2 0.732864 0.334363 0.379398
Si Si3 0.483286 0.413362 0.619411
Si Si4 0.106771 0.845671 0.878603
O O1 0.627191 0.250000 0.250000
O O2 0.686850 0.322312 0.400164
O O3 0.617348 0.257270 0.498813
O O4 0.633673 0.509242 0.373704
O O5 0.746281 0.250000 0.250000
O O6 0.750000 0.500000 0.372815
O O7 0.750000 0.250000 0.500000
O O8 0.500000 0.250000 0.612353
O O9 0.500000 0.491844 0.750000
O O10 0.500000 0.500000 0.500000
O O11 0.436899 0.408075 0.614549
O O12 0.113824 0.750000 0.750000
#
# Coordination Sequence:
#
# PCOD8283573 Si02
#       4
#    16  16  16  16
#     4  11  26  42  67  99 132 178 221 269 339 392
#     4  11  24  43  67  98 133 174 223 272 329 396
#     4  11  24  44  65  96 129 170 221 267 330 390
#     4  12  24  44  67  94 136 172 222 278 327 396
#
# _framework density 20.303439999999998
#
# number of rings (size 3 to 8) (size 9 to 14) (size 15 to 20)
#    0.000    0.750    2.500    5.250    3.500    8.500 
#    0.000    0.000    0.000    0.000    0.000    0.000 
#    0.000    0.000    0.000    0.000    0.000    0.000 
#
# Total GULP energy -396874.431270 kJ/mol
# GULP energy per Si atom -12402.325977 kJ/mol
# Density = 2.025723 g / cm^3
# Si number density = 20.303440 Si / 1000 Ang^3
#
#
#
# Elastic Constant Matrix: (Units=GPa)
#
#
# Indices 1 2 3 4 5 6 
#
# 1 92.5084 30.7157 74.6791 0.0000 0.0000 0.0000
# 2 30.7157 131.1389 89.4301 0.0000 0.0000 0.0000
# 3 74.6791 89.4301 226.7217 0.0000 0.0000 0.0000
# 4 0.0000 0.0000 0.0000 -58.9805 0.0000 0.0000
# 5 0.0000 0.0000 0.0000 0.0000 29.9689 0.0000
# 6 0.0000 0.0000 0.0000 0.0000 0.0000 34.5907
#
#
#
# Elastic Compliance Matrix: (Units=1/GPa)
#
#
# Indices 1 2 3 4 5 6 
#
# 1 0.014729 -0.000193 -0.004775 0.000000 0.000000 0.000000
# 2 -0.000193 0.010434 -0.004052 0.000000 0.000000 0.000000
# 3 -0.004775 -0.004052 0.007582 0.000000 0.000000 0.000000
# 4 0.000000 0.000000 0.000000 -0.016955 0.000000 0.000000
# 5 0.000000 0.000000 0.000000 0.000000 0.033368 0.000000
# 6 0.000000 0.000000 0.000000 0.000000 0.000000 0.028910
#
#
# Mechanical properties :
#
#
# Convention : Reuss Voigt Hill
#
# Bulk Modulus (GPa) = 68.01028 93.33540 80.67284
# Shear Modulus (GPa) = 49.50003 18.15210 33.82606
#
# Velocity S-wave (km/s) = 4.94298 2.99329 4.08613
# Velocity P-wave (km/s) = 8.13308 7.61685 7.87920
#
# Compressibility (1/GPa) = 0.01470366
#
# Stress axis : x y z
#
# Youngs Moduli (GPa) = 67.89353 95.84001 131.89298
#
# Poissons Ratio (x) = 0.01853 0.62982
# Poissons Ratio (y) = 0.01313 0.53443
# Poissons Ratio (z) = 0.32421 0.38834
#
# Static dielectric constant tensor:
#      x y z
#    x 3.733750 0.000000 0.000000 
#    y 0.000000 3.841030 0.000000 
#    z 0.000000 0.000000 4.134100 
# 
# 
# High freq. dielectric constant tensor:
#      x y z
#    x 1.810490 0.000000 0.000000 
#    y 0.000000 1.806030 0.000000 
#    z 0.000000 0.000000 1.817320 
# 
# From -- ./inp_files/17455.got.cif
#   From: 2010.03.12/outbox.cif.g09.slc.cpg/sg68_9_cif.got.tgz:17455.got - 2010.04.10 23:14:56.
