data_PCOD8283904
_publ_section_title
;
Structure prediction by ZEFSAII (Michael W. Deem and Ramdas Pophale) SiO2 
 PCOD8283904
Probable space group: F M M M
;
_chemical_formula_sum "Si O2"
_cell_formula_units_Z 176
_cell_length_a 19.510790
_cell_length_b 27.525821
_cell_length_c 17.853892
_cell_angle_alpha 90.000000
_cell_angle_beta 90.000000
_cell_angle_gamma 90.000000
_cell_volume 9588.441860
_symmetry_space_group_name_H-M "F M M M"
_symmetry_group_IT_number 69
_symmetry_cell_setting 'orthorhombic'
loop_
_space_group_symop_operation_xyz
x,y,z
-x,-y,z
x,-y,-z
-x,y,-z
-x,-y,-z
x,y,-z
-x,y,z
x,-y,z
x,1/2+y,1/2+z
-x,1/2-y,1/2+z
x,1/2-y,1/2-z
-x,1/2+y,1/2-z
-x,1/2-y,1/2-z
x,1/2+y,1/2-z
-x,1/2+y,1/2+z
x,1/2-y,1/2+z
1/2+x,y,1/2+z
1/2-x,-y,1/2+z
1/2+x,-y,1/2-z
1/2-x,y,1/2-z
1/2-x,-y,1/2-z
1/2+x,y,1/2-z
1/2-x,y,1/2+z
1/2+x,-y,1/2+z
1/2+x,1/2+y,z
1/2-x,1/2-y,z
1/2+x,1/2-y,-z
1/2-x,1/2+y,-z
1/2-x,1/2-y,-z
1/2+x,1/2+y,-z
1/2-x,1/2+y,z
1/2+x,1/2-y,z
loop_
_atom_site_type_symbol
_atom_site_label
_atom_site_fract_x
_atom_site_fract_y
_atom_site_fract_z
Si Si1 0.279244 0.390920 0.086974
Si Si2 0.000000 0.552927 0.913394
Si Si3 0.871763 0.388864 0.143729
Si Si4 0.578980 0.209808 0.087094
Si Si5 0.173455 0.445917 0.279681
Si Si6 0.808472 0.715933 0.587552
O O1 0.198549 0.399551 0.099813
O O2 0.324872 0.429066 0.133793
O O3 0.301804 0.338276 0.119691
O O4 0.297094 0.398209 0.000000
O O5 0.067616 0.582537 0.895215
O O6 0.000000 0.500000 0.872814
O O7 0.000000 0.543604 0.000000
O O8 0.888703 0.331641 0.139789
O O9 0.868692 0.407385 0.229548
O O10 0.500000 0.218035 0.106991
O O11 0.617336 0.260585 0.104124
O O12 0.589146 0.194695 0.000000
O O13 0.140730 0.500000 0.275036
O O14 0.250000 0.447231 0.250000
O O15 0.793410 0.711426 0.500000
O O16 0.750000 0.750000 0.624211
#
# Coordination Sequence:
#
# PCOD8283904 Si02
#       6
#    32  16  32  32  32  32
#     4  10  19  33  57  81 104 138 185 233 267 310
#     4  11  22  32  48  80 116 147 183 219 260 331
#     4  11  19  32  52  77 112 145 177 212 267 330
#     4  10  18  29  50  80 113 145 174 210 264 332
#     4   9  20  36  51  71 103 140 177 220 274 320
#     4   9  16  28  49  79 108 137 177 222 269 320
#
# _framework density 18.355433000000001
#
# number of rings (size 3 to 8) (size 9 to 14) (size 15 to 20)
#    0.000    2.091    2.727    2.182    0.000    1.091 
#    0.000    0.909    2.000    1.091    0.000    0.000 
#    0.000    2.182    0.000    0.000    0.000    0.000 
#
# Total GULP energy -545443.775224 kJ/mol
# GULP energy per Si atom -12396.449437 kJ/mol
# Density = 1.831366 g / cm^3
# Si number density = 18.355433 Si / 1000 Ang^3
#
#
#
# Elastic Constant Matrix: (Units=GPa)
#
#
# Indices 1 2 3 4 5 6 
#
# 1 76.8671 34.7568 28.6531 0.0000 0.0000 0.0000
# 2 34.7568 104.2782 42.8019 0.0000 0.0000 0.0000
# 3 28.6531 42.8019 83.4080 0.0000 0.0000 0.0000
# 4 0.0000 0.0000 0.0000 23.3333 0.0000 0.0000
# 5 0.0000 0.0000 0.0000 0.0000 14.1205 0.0000
# 6 0.0000 0.0000 0.0000 0.0000 0.0000 20.5346
#
#
#
# Elastic Compliance Matrix: (Units=1/GPa)
#
#
# Indices 1 2 3 4 5 6 
#
# 1 0.016093 -0.003921 -0.003517 0.000000 0.000000 0.000000
# 2 -0.003921 0.013104 -0.005378 0.000000 0.000000 0.000000
# 3 -0.003517 -0.005378 0.015957 0.000000 0.000000 0.000000
# 4 0.000000 0.000000 0.000000 0.042857 0.000000 0.000000
# 5 0.000000 0.000000 0.000000 0.000000 0.070819 0.000000
# 6 0.000000 0.000000 0.000000 0.000000 0.000000 0.048698
#
#
# Mechanical properties :
#
#
# Convention : Reuss Voigt Hill
#
# Bulk Modulus (GPa) = 51.21805 52.99743 52.10774
# Shear Modulus (GPa) = 20.86240 22.15379 21.50809
#
# Velocity S-wave (km/s) = 3.37498 3.47786 3.42681
# Velocity P-wave (km/s) = 6.56897 6.71289 6.64132
#
# Compressibility (1/GPa) = 0.01952437
#
# Stress axis : x y z
#
# Youngs Moduli (GPa) = 62.13871 76.31414 62.66907
#
# Poissons Ratio (x) = 0.29919 0.22038
# Poissons Ratio (y) = 0.24362 0.33700
# Poissons Ratio (z) = 0.21851 0.41038
#
# Static dielectric constant tensor:
#      x y z
#    x 3.300020 0.000000 0.000000 
#    y 0.000000 3.638680 0.000000 
#    z 0.000000 0.000000 3.188540 
# 
# 
# High freq. dielectric constant tensor:
#      x y z
#    x 1.694240 0.000000 0.000000 
#    y 0.000000 1.720160 0.000000 
#    z 0.000000 0.000000 1.681550 
# 
# From -- ./inp_files/23596.got.cif
#   From: 2010.03.12/outbox.cif.g09.slc.cpg/sg69_12_cif.got.tgz:23596.got - 2010.04.10 23:52:46.
