data_PCOD8283746
_publ_section_title
;
Structure prediction by ZEFSAII (Michael W. Deem and Ramdas Pophale) SiO2 
 PCOD8283746
Probable space group: C C C A
;
_chemical_formula_sum "Si O2"
_cell_formula_units_Z 56
_cell_length_a 9.190473
_cell_length_b 23.299334
_cell_length_c 10.883540
_cell_angle_alpha 90.000000
_cell_angle_beta 90.000000
_cell_angle_gamma 90.000000
_cell_volume 2330.513099
_symmetry_space_group_name_H-M "C C C A"
_symmetry_group_IT_number 68
_space_group.IT_coordinate_system_code '2'
_symmetry_cell_setting 'orthorhombic'
loop_
_space_group_symop_operation_xyz
x,y,z
-x,1/2-y,z
x,1/2-y,1/2-z
-x,y,1/2-z
-x,-y,-z
x,1/2+y,-z
-x,1/2+y,1/2+z
x,-y,1/2+z
1/2+x,1/2+y,z
1/2-x,-y,z
1/2+x,-y,1/2-z
1/2-x,1/2+y,1/2-z
1/2-x,1/2-y,-z
1/2+x,y,-z
1/2-x,y,1/2+z
1/2+x,1/2-y,1/2+z
loop_
_atom_site_type_symbol
_atom_site_label
_atom_site_fract_x
_atom_site_fract_y
_atom_site_fract_z
Si Si1 0.750000 0.000000 0.582223
Si Si2 0.734630 0.096529 0.391224
Si Si3 0.381835 0.291393 0.510679
Si Si4 0.000000 0.976965 0.250000
Si Si5 0.000000 0.848856 0.750000
O O1 0.713503 0.943088 0.504189
O O2 0.600496 0.014531 0.657641
O O3 0.647511 0.152111 0.433156
O O4 0.620981 0.061528 0.312701
O O5 0.877767 0.111349 0.313247
O O6 0.500000 0.250000 0.448186
O O7 0.250000 0.250000 0.500000
O O8 0.424324 0.308043 0.649629
#
# Coordination Sequence:
#
# PCOD8283746 Si02
#       5
#     8  16  16   8   8
#     4  12  28  54  78 118 156 206 266 326 400 484
#     4  12  28  49  81 114 158 205 267 321 399 475
#     4  12  27  49  77 113 157 209 264 323 387 468
#     4  12  28  49  78 116 150 210 249 330 394 462
#     4  12  27  53  77 116 157 208 256 330 396 458
#
# _framework density 24.029043000000001
#
# number of rings (size 3 to 8) (size 9 to 14) (size 15 to 20)
#    0.000    0.000    2.857    5.571    4.000    8.000 
#    0.000    0.000    0.000    0.000    0.000    0.000 
#    0.000    0.000    0.000    0.000    0.000    0.000 
#
# Total GULP energy -347048.856561 kJ/mol
# GULP energy per Si atom -12394.602020 kJ/mol
# Density = 2.397435 g / cm^3
# Si number density = 24.029043 Si / 1000 Ang^3
#
#
#
# Elastic Constant Matrix: (Units=GPa)
#
#
# Indices 1 2 3 4 5 6 
#
# 1 205.6793 66.3034 77.7513 0.0000 0.0000 0.0000
# 2 66.3034 133.5957 48.4694 0.0000 0.0000 0.0000
# 3 77.7513 48.4694 114.4099 0.0000 0.0000 0.0000
# 4 0.0000 0.0000 0.0000 20.9100 0.0000 0.0000
# 5 0.0000 0.0000 0.0000 0.0000 57.4765 0.0000
# 6 0.0000 0.0000 0.0000 0.0000 0.0000 84.2282
#
#
#
# Elastic Compliance Matrix: (Units=1/GPa)
#
#
# Indices 1 2 3 4 5 6 
#
# 1 0.006993 -0.002064 -0.003878 0.000000 0.000000 0.000000
# 2 -0.002064 0.009454 -0.002603 0.000000 0.000000 0.000000
# 3 -0.003878 -0.002603 0.012479 0.000000 0.000000 0.000000
# 4 0.000000 0.000000 0.000000 0.047824 0.000000 0.000000
# 5 0.000000 0.000000 0.000000 0.000000 0.017398 0.000000
# 6 0.000000 0.000000 0.000000 0.000000 0.000000 0.011873
#
#
# Mechanical properties :
#
#
# Convention : Reuss Voigt Hill
#
# Bulk Modulus (GPa) = 84.48362 93.19258 88.83810
# Shear Modulus (GPa) = 39.35300 49.93367 44.64333
#
# Velocity S-wave (km/s) = 4.05127 4.56351 4.31500
# Velocity P-wave (km/s) = 7.55771 8.16303 7.86620
#
# Compressibility (1/GPa) = 0.01183661
#
# Stress axis : x y z
#
# Youngs Moduli (GPa) = 142.99499 105.77854 80.13681
#
# Poissons Ratio (x) = 0.21829 0.31079
# Poissons Ratio (y) = 0.29510 0.20856
# Poissons Ratio (z) = 0.55457 0.27530
#
# Static dielectric constant tensor:
#      x y z
#    x 4.741050 0.000000 0.000000 
#    y 0.000000 4.547650 0.000000 
#    z 0.000000 0.000000 4.897010 
# 
# 
# High freq. dielectric constant tensor:
#      x y z
#    x 1.983770 0.000000 0.000000 
#    y 0.000000 1.976940 0.000000 
#    z 0.000000 0.000000 1.953810 
# 
# From -- ./inp_files/10625.got.cif
#   From: 2010.03.12/outbox.cif.g09.slc.cpg/sg68_6_cif.got.tgz:10625.got - 2010.04.10 23:14:56.
