data_PCOD8283575
_publ_section_title
;
Structure prediction by ZEFSAII (Michael W. Deem and Ramdas Pophale) SiO2 
 PCOD8283575
Probable space group: C C C A
;
_chemical_formula_sum "Si O2"
_cell_formula_units_Z 88
_cell_length_a 12.155877
_cell_length_b 16.673371
_cell_length_c 18.188989
_cell_angle_alpha 90.000000
_cell_angle_beta 90.000000
_cell_angle_gamma 90.000000
_cell_volume 3686.534233
_symmetry_space_group_name_H-M "C C C A"
_symmetry_group_IT_number 68
_space_group.IT_coordinate_system_code '2'
_symmetry_cell_setting 'orthorhombic'
loop_
_space_group_symop_operation_xyz
x,y,z
-x,1/2-y,z
x,1/2-y,1/2-z
-x,y,1/2-z
-x,-y,-z
x,1/2+y,-z
-x,1/2+y,1/2+z
x,-y,1/2+z
1/2+x,1/2+y,z
1/2-x,-y,z
1/2+x,-y,1/2-z
1/2-x,1/2+y,1/2-z
1/2-x,1/2-y,-z
1/2+x,y,-z
1/2-x,y,1/2+z
1/2+x,1/2-y,1/2+z
loop_
_atom_site_type_symbol
_atom_site_label
_atom_site_fract_x
_atom_site_fract_y
_atom_site_fract_z
Si Si1 0.500000 0.750000 0.559897
Si Si2 0.174175 0.573086 0.874469
Si Si3 0.334523 0.339511 0.726704
Si Si4 0.068231 0.453099 0.103832
Si Si5 0.853588 0.630846 0.371633
Si Si6 0.188301 0.146094 0.500493
O O1 0.532997 0.822451 0.614689
O O2 0.601353 0.719212 0.509396
O O3 0.250000 0.500000 0.854597
O O4 0.139551 0.611275 0.798635
O O5 0.061505 0.542012 0.911367
O O6 0.241422 0.634111 0.925784
O O7 0.370558 0.250000 0.750000
O O8 0.404483 0.380318 0.660615
O O9 0.204812 0.344269 0.704901
O O10 0.122151 0.536063 0.130720
O O11 0.121369 0.433569 0.024074
O O12 0.773521 0.663713 0.435556
#
# Coordination Sequence:
#
# PCOD8283575 Si02
#       6
#     8  16  16  16  16  16
#     4  12  24  40  67 100 135 180 230 282 342 404
#     4  12  24  42  69 100 131 173 226 279 335 408
#     4  11  25  45  68  98 133 175 227 280 335 402
#     4  11  25  45  71  97 136 182 222 277 347 412
#     4  11  24  46  68  99 140 179 222 282 347 410
#     4  11  24  43  68  99 136 177 227 281 335 404
#
# _framework density 23.870659
#
# number of rings (size 3 to 8) (size 9 to 14) (size 15 to 20)
#    0.000    0.727    0.000    8.727    0.000    8.000 
#    0.000    7.727    0.000    0.000    0.000    0.000 
#    0.000    0.000    0.000    0.000    0.000    0.000 
#
# Total GULP energy -545395.769189 kJ/mol
# GULP energy per Si atom -12395.358391 kJ/mol
# Density = 2.381633 g / cm^3
# Si number density = 23.870659 Si / 1000 Ang^3
#
#
#
# Elastic Constant Matrix: (Units=GPa)
#
#
# Indices 1 2 3 4 5 6 
#
# 1 130.0354 49.5267 26.4200 0.0000 0.0000 0.0000
# 2 49.5267 139.8473 13.2433 0.0000 0.0000 0.0000
# 3 26.4200 13.2433 65.7190 0.0000 0.0000 0.0000
# 4 0.0000 0.0000 0.0000 24.7379 0.0000 0.0000
# 5 0.0000 0.0000 0.0000 0.0000 10.0194 0.0000
# 6 0.0000 0.0000 0.0000 0.0000 0.0000 123.7559
#
#
#
# Elastic Compliance Matrix: (Units=1/GPa)
#
#
# Indices 1 2 3 4 5 6 
#
# 1 0.009508 -0.003064 -0.003205 0.000000 0.000000 0.000000
# 2 -0.003064 0.008277 -0.000436 0.000000 0.000000 0.000000
# 3 -0.003205 -0.000436 0.016593 0.000000 0.000000 0.000000
# 4 0.000000 0.000000 0.000000 0.040424 0.000000 0.000000
# 5 0.000000 0.000000 0.000000 0.000000 0.099807 0.000000
# 6 0.000000 0.000000 0.000000 0.000000 0.000000 0.008080
#
#
# Mechanical properties :
#
#
# Convention : Reuss Voigt Hill
#
# Bulk Modulus (GPa) = 47.69231 57.10907 52.40069
# Shear Modulus (GPa) = 24.61979 48.13007 36.37493
#
# Velocity S-wave (km/s) = 3.21500 4.49518 3.90787
# Velocity P-wave (km/s) = 5.81416 7.13572 6.50857
#
# Compressibility (1/GPa) = 0.02096774
#
# Stress axis : x y z
#
# Youngs Moduli (GPa) = 105.17084 120.81638 60.26753
#
# Poissons Ratio (x) = 0.37016 0.19316
# Poissons Ratio (y) = 0.32223 0.02629
# Poissons Ratio (z) = 0.33708 0.05270
#
# Static dielectric constant tensor:
#      x y z
#    x 4.645160 0.000000 0.000000 
#    y 0.000000 4.574380 0.000000 
#    z 0.000000 0.000000 4.305680 
# 
# 
# High freq. dielectric constant tensor:
#      x y z
#    x 1.963910 0.000000 0.000000 
#    y 0.000000 1.952700 0.000000 
#    z 0.000000 0.000000 1.936760 
# 
# From -- ./inp_files/37435.got.cif
#   From: 2010.03.12/outbox.cif.g09.slc.cpg/sg68_19_cif.got.tgz:37435.got - 2010.04.10 23:14:56.
