data_PCOD8283753
_publ_section_title
;
Structure prediction by ZEFSAII (Michael W. Deem and Ramdas Pophale) SiO2 
 PCOD8283753
Probable space group: F M M M
;
_chemical_formula_sum "Si O2"
_cell_formula_units_Z 128
_cell_length_a 23.962936
_cell_length_b 17.656922
_cell_length_c 15.861753
_cell_angle_alpha 90.000000
_cell_angle_beta 90.000000
_cell_angle_gamma 90.000000
_cell_volume 6711.293147
_symmetry_space_group_name_H-M "F M M M"
_symmetry_group_IT_number 69
_symmetry_cell_setting 'orthorhombic'
loop_
_space_group_symop_operation_xyz
x,y,z
-x,-y,z
x,-y,-z
-x,y,-z
-x,-y,-z
x,y,-z
-x,y,z
x,-y,z
x,1/2+y,1/2+z
-x,1/2-y,1/2+z
x,1/2-y,1/2-z
-x,1/2+y,1/2-z
-x,1/2-y,1/2-z
x,1/2+y,1/2-z
-x,1/2+y,1/2+z
x,1/2-y,1/2+z
1/2+x,y,1/2+z
1/2-x,-y,1/2+z
1/2+x,-y,1/2-z
1/2-x,y,1/2-z
1/2-x,-y,1/2-z
1/2+x,y,1/2-z
1/2-x,y,1/2+z
1/2+x,-y,1/2+z
1/2+x,1/2+y,z
1/2-x,1/2-y,z
1/2+x,1/2-y,-z
1/2-x,1/2+y,-z
1/2-x,1/2-y,-z
1/2+x,1/2+y,-z
1/2-x,1/2+y,z
1/2+x,1/2-y,z
loop_
_atom_site_type_symbol
_atom_site_label
_atom_site_fract_x
_atom_site_fract_y
_atom_site_fract_z
Si Si1 0.000000 0.411675 0.642944
Si Si2 0.616061 0.292959 0.661758
Si Si3 0.500000 0.325876 0.695378
Si Si4 0.185854 0.586489 0.244945
Si Si5 0.378763 0.138927 0.592854
O O1 0.000000 0.398879 0.743335
O O2 0.055050 0.373342 0.604104
O O3 0.000000 0.500000 0.621721
O O4 0.610720 0.250000 0.750000
O O5 0.555576 0.328249 0.637845
O O6 0.659911 0.361207 0.671430
O O7 0.634330 0.229425 0.594635
O O8 0.500000 0.250000 0.750000
O O9 0.179488 0.500000 0.215762
O O10 0.250000 0.610729 0.250000
O O11 0.156060 0.595411 0.335692
O O12 0.360889 0.109358 0.500000
#
# Coordination Sequence:
#
# PCOD8283753 Si02
#       5
#    16  32  16  32  32
#     4  12  21  31  52  88 122 146 174 218 284 347
#     4   9  17  32  54  74 105 144 184 215 256 321
#     4  10  14  30  52  75 107 145 181 213 246 321
#     4  10  21  37  56  78 105 142 188 234 277 323
#     4  11  22  35  54  84 118 146 175 222 287 340
#
# _framework density 19.072330000000001
#
# number of rings (size 3 to 8) (size 9 to 14) (size 15 to 20)
#    0.000    1.750    7.500    1.125    0.000    7.000 
#    0.000    2.500    0.000    2.250    0.000    0.000 
#    0.000    5.000    0.000    0.000    0.000    0.000 
#
# Total GULP energy -396575.854040 kJ/mol
# GULP energy per Si atom -12392.995439 kJ/mol
# Density = 1.902892 g / cm^3
# Si number density = 19.072330 Si / 1000 Ang^3
#
#
#
# Elastic Constant Matrix: (Units=GPa)
#
#
# Indices 1 2 3 4 5 6 
#
# 1 131.4053 47.2070 3.4743 0.0000 0.0000 0.0000
# 2 47.2070 109.6137 5.4672 0.0000 0.0000 0.0000
# 3 3.4743 5.4672 34.4061 0.0000 0.0000 0.0000
# 4 0.0000 0.0000 0.0000 13.4410 0.0000 0.0000
# 5 0.0000 0.0000 0.0000 0.0000 5.5166 0.0000
# 6 0.0000 0.0000 0.0000 0.0000 0.0000 28.9466
#
#
#
# Elastic Compliance Matrix: (Units=1/GPa)
#
#
# Indices 1 2 3 4 5 6 
#
# 1 0.009006 -0.003864 -0.000295 0.000000 0.000000 0.000000
# 2 -0.003864 0.010854 -0.001334 0.000000 0.000000 0.000000
# 3 -0.000295 -0.001334 0.029306 0.000000 0.000000 0.000000
# 4 0.000000 0.000000 0.000000 0.074399 0.000000 0.000000
# 5 0.000000 0.000000 0.000000 0.000000 0.181271 0.000000
# 6 0.000000 0.000000 0.000000 0.000000 0.000000 0.034546
#
#
# Mechanical properties :
#
#
# Convention : Reuss Voigt Hill
#
# Bulk Modulus (GPa) = 26.19281 43.08024 34.63652
# Shear Modulus (GPa) = 13.77045 24.19929 18.98487
#
# Velocity S-wave (km/s) = 2.68994 3.56591 3.15844
# Velocity P-wave (km/s) = 4.83849 6.29215 5.61258
#
# Compressibility (1/GPa) = 0.03817842
#
# Stress axis : x y z
#
# Youngs Moduli (GPa) = 111.03809 92.13591 34.12217
#
# Poissons Ratio (x) = 0.35600 0.01008
# Poissons Ratio (y) = 0.42903 0.04554
# Poissons Ratio (z) = 0.03280 0.12295
#
# Static dielectric constant tensor:
#      x y z
#    x 3.709880 0.000000 0.000000 
#    y 0.000000 3.640130 0.000000 
#    z 0.000000 0.000000 3.287210 
# 
# 
# High freq. dielectric constant tensor:
#      x y z
#    x 1.747260 0.000000 0.000000 
#    y 0.000000 1.741730 0.000000 
#    z 0.000000 0.000000 1.688430 
# 
# From -- ./inp_files/15341.got.cif
#   From: 2010.03.12/outbox.cif.g09.slc.cpg/sg69_8_cif.got.tgz:15341.got - 2010.04.10 23:52:46.
