data_PCOD8283808
_publ_section_title
;
Structure prediction by ZEFSAII (Michael W. Deem and Ramdas Pophale) SiO2 
 PCOD8283808
Probable space group: F M M M
;
_chemical_formula_sum "Si O2"
_cell_formula_units_Z 144
_cell_length_a 8.806603
_cell_length_b 30.443074
_cell_length_c 35.825484
_cell_angle_alpha 90.000000
_cell_angle_beta 90.000000
_cell_angle_gamma 90.000000
_cell_volume 9604.814654
_symmetry_space_group_name_H-M "F M M M"
_symmetry_group_IT_number 69
_symmetry_cell_setting 'orthorhombic'
loop_
_space_group_symop_operation_xyz
x,y,z
-x,-y,z
x,-y,-z
-x,y,-z
-x,-y,-z
x,y,-z
-x,y,z
x,-y,z
x,1/2+y,1/2+z
-x,1/2-y,1/2+z
x,1/2-y,1/2-z
-x,1/2+y,1/2-z
-x,1/2-y,1/2-z
x,1/2+y,1/2-z
-x,1/2+y,1/2+z
x,1/2-y,1/2+z
1/2+x,y,1/2+z
1/2-x,-y,1/2+z
1/2+x,-y,1/2-z
1/2-x,y,1/2-z
1/2-x,-y,1/2-z
1/2+x,y,1/2-z
1/2-x,y,1/2+z
1/2+x,-y,1/2+z
1/2+x,1/2+y,z
1/2-x,1/2-y,z
1/2+x,1/2-y,-z
1/2-x,1/2+y,-z
1/2-x,1/2-y,-z
1/2+x,1/2+y,-z
1/2-x,1/2+y,z
1/2+x,1/2-y,z
loop_
_atom_site_type_symbol
_atom_site_label
_atom_site_fract_x
_atom_site_fract_y
_atom_site_fract_z
Si Si1 0.332572 0.052091 0.572502
Si Si2 0.322410 0.051238 0.655176
Si Si3 0.668267 0.947545 0.000000
Si Si4 0.318357 0.293489 0.791350
Si Si5 0.679846 0.881499 0.209450
O O1 0.500000 0.072041 0.569052
O O2 0.266283 0.064176 0.613300
O O3 0.239852 0.072117 0.537885
O O4 0.338985 0.000000 0.569012
O O5 0.500000 0.062926 0.660283
O O6 0.217609 0.077045 0.683911
O O7 0.295796 0.000000 0.662700
O O8 0.500000 0.929762 0.000000
O O9 0.678432 0.000000 0.000000
O O10 0.500000 0.292060 0.791160
O O11 0.250000 0.294232 0.750000
O O12 0.250000 0.250000 0.811846
O O13 0.256340 0.338362 0.809978
O O14 0.500000 0.875018 0.213073
O O15 0.750000 0.890398 0.250000
#
# Coordination Sequence:
#
# PCOD8283808 Si02
#       5
#    32  32  16  32  32
#     4   8  14  25  40  55  73 100 132 164 201 245
#     4   9  18  32  46  59  78 107 143 180 214 246
#     4   9  15  21  33  55  79  99 124 161 200 239
#     4  10  17  28  45  64  84 103 127 161 204 251
#     4  11  21  32  45  61  81 107 140 175 211 249
#
# _framework density 14.992481
#
# number of rings (size 3 to 8) (size 9 to 14) (size 15 to 20)
#    0.000    2.556    0.000    7.667    0.000    3.111 
#    0.000    2.222    0.000    0.000    0.000    0.000 
#    0.000    0.000    0.000    1.000    0.000   13.222 
#
# Total GULP energy -446072.165924 kJ/mol
# GULP energy per Si atom -12390.893498 kJ/mol
# Density = 1.495836 g / cm^3
# Si number density = 14.992481 Si / 1000 Ang^3
#
#
#
# Elastic Constant Matrix: (Units=GPa)
#
#
# Indices 1 2 3 4 5 6 
#
# 1 121.0914 38.0041 46.0447 0.0000 0.0000 0.0000
# 2 38.0041 59.3430 36.9899 0.0000 0.0000 0.0000
# 3 46.0447 36.9899 85.9458 0.0000 0.0000 0.0000
# 4 0.0000 0.0000 0.0000 -0.0101 0.0000 0.0000
# 5 0.0000 0.0000 0.0000 0.0000 19.0547 0.0000
# 6 0.0000 0.0000 0.0000 0.0000 0.0000 21.3251
#
#
#
# Elastic Compliance Matrix: (Units=1/GPa)
#
#
# Indices 1 2 3 4 5 6 
#
# 1 0.011260 -0.004716 -0.004003 0.000000 0.000000 0.000000
# 2 -0.004716 0.025005 -0.008235 0.000000 0.000000 0.000000
# 3 -0.004003 -0.008235 0.017324 0.000000 0.000000 0.000000
# 4 0.000000 0.000000 0.000000-98.951087 0.000000 0.000000
# 5 0.000000 0.000000 0.000000 0.000000 0.052480 0.000000
# 6 0.000000 0.000000 0.000000 0.000000 0.000000 0.046893
#
#
# Mechanical properties :
#
#
# Convention : Reuss Voigt Hill
#
# Bulk Modulus (GPa) = 50.81083 56.49527 53.65305
# Shear Modulus (GPa) = -0.05063 17.76338 8.85638
#
# Velocity S-wave (km/s) = -0.18396 3.44585 2.43311
# Velocity P-wave (km/s) = 5.82403 7.32094 6.61496
#
# Compressibility (1/GPa) = 0.01968084
#
# Stress axis : x y z
#
# Youngs Moduli (GPa) = 88.80601 39.99271 57.72354
#
# Poissons Ratio (x) = 0.18862 0.23106
# Poissons Ratio (y) = 0.41883 0.47535
# Poissons Ratio (z) = 0.35548 0.32934
#
# Static dielectric constant tensor:
#      x y z
#    x 2.998710 0.000000 0.000000 
#    y 0.000000 3.095460 0.000000 
#    z 0.000000 0.000000 2.844380 
# 
# 
# High freq. dielectric constant tensor:
#      x y z
#    x 1.585520 0.000000 0.000000 
#    y 0.000000 1.537230 0.000000 
#    z 0.000000 0.000000 1.549780 
# 
# From -- ./inp_files/44528.got.cif
#   From: 2010.03.12/outbox.cif.g09.slc.cpg/sg69_23_cif.got.tgz:44528.got - 2010.04.10 23:52:46.
