data_PCOD8283734
_publ_section_title
;
Structure prediction by ZEFSAII (Michael W. Deem and Ramdas Pophale) SiO2 
 PCOD8283734
Probable space group: C C C A
;
_chemical_formula_sum "Si O2"
_cell_formula_units_Z 36
_cell_length_a 10.024208
_cell_length_b 15.183521
_cell_length_c 9.530288
_cell_angle_alpha 90.000000
_cell_angle_beta 90.000000
_cell_angle_gamma 90.000000
_cell_volume 1450.536258
_symmetry_space_group_name_H-M "C C C A"
_symmetry_group_IT_number 68
_space_group.IT_coordinate_system_code '2'
_symmetry_cell_setting 'orthorhombic'
loop_
_space_group_symop_operation_xyz
x,y,z
-x,1/2-y,z
x,1/2-y,1/2-z
-x,y,1/2-z
-x,-y,-z
x,1/2+y,-z
-x,1/2+y,1/2+z
x,-y,1/2+z
1/2+x,1/2+y,z
1/2-x,-y,z
1/2+x,-y,1/2-z
1/2-x,1/2+y,1/2-z
1/2-x,1/2-y,-z
1/2+x,y,-z
1/2-x,y,1/2+z
1/2+x,1/2-y,1/2+z
loop_
_atom_site_type_symbol
_atom_site_label
_atom_site_fract_x
_atom_site_fract_y
_atom_site_fract_z
Si Si1 0.647976 0.330144 0.005162
Si Si2 0.500000 0.750000 0.750000
Si Si3 0.250000 0.500000 0.377740
Si Si4 0.500000 0.595528 0.250000
O O1 0.578295 0.318205 0.154040
O O2 0.721949 0.422308 0.013217
O O3 0.750000 0.250000 0.000000
O O4 0.543413 0.337747 0.876117
O O5 0.376663 0.531233 0.286230
#
# Coordination Sequence:
#
# PCOD8283734 Si02
#       4
#    16   4   8   8
#     4  12  27  49  77 112 156 205 260 323 392 469
#     4  12  26  46  70 106 148 196 250 318 386 458
#     4  12  26  48  80 118 158 206 264 330 396 474
#     4  12  27  51  79 117 158 210 265 329 399 477
#
# _framework density 24.818406
#
# number of rings (size 3 to 8) (size 9 to 14) (size 15 to 20)
#    0.000    0.000    0.000    9.333    0.000    6.222 
#    0.000    0.000    0.000    0.000    0.000    0.000 
#    0.000    0.000    0.000    0.000    0.000    0.000 
#
# Total GULP energy -223085.946226 kJ/mol
# GULP energy per Si atom -12393.663679 kJ/mol
# Density = 2.476192 g / cm^3
# Si number density = 24.818406 Si / 1000 Ang^3
#
#
#
# Elastic Constant Matrix: (Units=GPa)
#
#
# Indices 1 2 3 4 5 6 
#
# 1 175.6427 82.8307 89.7553 0.0000 0.0000 0.0000
# 2 82.8307 197.2057 83.0241 0.0000 0.0000 0.0000
# 3 89.7553 83.0241 189.6417 0.0000 0.0000 0.0000
# 4 0.0000 0.0000 0.0000 44.0635 0.0000 0.0000
# 5 0.0000 0.0000 0.0000 0.0000 41.2832 0.0000
# 6 0.0000 0.0000 0.0000 0.0000 0.0000 46.4842
#
#
#
# Elastic Compliance Matrix: (Units=1/GPa)
#
#
# Indices 1 2 3 4 5 6 
#
# 1 0.008239 -0.002230 -0.002923 0.000000 0.000000 0.000000
# 2 -0.002230 0.006820 -0.001930 0.000000 0.000000 0.000000
# 3 -0.002923 -0.001930 0.007502 0.000000 0.000000 0.000000
# 4 0.000000 0.000000 0.000000 0.022695 0.000000 0.000000
# 5 0.000000 0.000000 0.000000 0.000000 0.024223 0.000000
# 6 0.000000 0.000000 0.000000 0.000000 0.000000 0.021513
#
#
# Mechanical properties :
#
#
# Convention : Reuss Voigt Hill
#
# Bulk Modulus (GPa) = 119.13540 119.30114 119.21827
# Shear Modulus (GPa) = 46.31547 46.82483 46.57015
#
# Velocity S-wave (km/s) = 4.32461 4.34833 4.33648
# Velocity P-wave (km/s) = 8.54654 8.56648 8.55652
#
# Compressibility (1/GPa) = 0.00839381
#
# Stress axis : x y z
#
# Youngs Moduli (GPa) = 121.37939 146.62439 133.30285
#
# Poissons Ratio (x) = 0.32694 0.38965
# Poissons Ratio (y) = 0.27065 0.25734
# Poissons Ratio (z) = 0.35480 0.28306
#
# Static dielectric constant tensor:
#      x y z
#    x 4.583200 0.000000 0.000000 
#    y 0.000000 4.560510 0.000000 
#    z 0.000000 0.000000 4.533980 
# 
# 
# High freq. dielectric constant tensor:
#      x y z
#    x 1.998950 0.000000 0.000000 
#    y 0.000000 2.013010 0.000000 
#    z 0.000000 0.000000 2.000150 
# 
# From -- ./inp_files/3177.got.cif
#   From: 2010.03.12/outbox.cif.g09.slc.cpg/sg68_2_cif.got.tgz:3177.got - 2010.04.10 23:14:56.
