data_PCOD8283539
_publ_section_title
;
Structure prediction by ZEFSAII (Michael W. Deem and Ramdas Pophale) SiO2 
 PCOD8283539
Probable space group: C C C A
;
_chemical_formula_sum "Si O2"
_cell_formula_units_Z 96
_cell_length_a 22.664191
_cell_length_b 21.521578
_cell_length_c 10.157155
_cell_angle_alpha 90.000000
_cell_angle_beta 90.000000
_cell_angle_gamma 90.000000
_cell_volume 4954.346906
_symmetry_space_group_name_H-M "C C C A"
_symmetry_group_IT_number 68
_space_group.IT_coordinate_system_code '2'
_symmetry_cell_setting 'orthorhombic'
loop_
_space_group_symop_operation_xyz
x,y,z
-x,1/2-y,z
x,1/2-y,1/2-z
-x,y,1/2-z
-x,-y,-z
x,1/2+y,-z
-x,1/2+y,1/2+z
x,-y,1/2+z
1/2+x,1/2+y,z
1/2-x,-y,z
1/2+x,-y,1/2-z
1/2-x,1/2+y,1/2-z
1/2-x,1/2-y,-z
1/2+x,y,-z
1/2-x,y,1/2+z
1/2+x,1/2-y,1/2+z
loop_
_atom_site_type_symbol
_atom_site_label
_atom_site_fract_x
_atom_site_fract_y
_atom_site_fract_z
Si Si1 0.676459 0.866591 0.502605
Si Si2 0.000000 0.750000 0.556106
Si Si3 0.113167 0.254971 0.896754
Si Si4 0.687875 0.535378 0.771548
Si Si5 0.189844 0.630730 0.466263
Si Si6 0.000000 0.856830 0.750000
Si Si7 0.125215 0.087202 0.270380
O O1 0.640196 0.809390 0.557315
O O2 0.670976 0.924734 0.600846
O O3 0.744339 0.847606 0.496426
O O4 0.652420 0.880856 0.357905
O O5 0.055751 0.725999 0.476711
O O6 0.979199 0.689259 0.634908
O O7 0.090347 0.250000 0.750000
O O8 0.160158 0.309627 0.903303
O O9 0.750000 0.500000 0.793869
O O10 0.690201 0.574452 0.637456
O O11 0.634834 0.486379 0.757412
O O12 0.158455 0.612247 0.601331
O O13 0.944522 0.900262 0.714884
#
# Coordination Sequence:
#
# PCOD8283539 Si02
#       7
#    16   8  16  16  16   8  16
#     4  12  24  43  68 103 137 177 220 283 343 402
#     4  11  23  46  70  88 131 185 232 270 346 406
#     4  12  25  44  67  99 136 169 232 290 340 400
#     4  12  24  44  69  96 143 183 220 270 340 415
#     4  12  24  43  68 103 137 177 220 283 343 402
#     4  11  24  46  68  98 132 183 232 280 330 405
#     4  12  25  42  72 100 134 179 234 273 324 412
#
# _framework density 19.376923999999999
#
# number of rings (size 3 to 8) (size 9 to 14) (size 15 to 20)
#    0.000    0.167    8.333    1.750    0.000    0.667 
#    0.000    5.000    0.000    0.000    0.000    0.000 
#    0.000    0.000    0.000    0.000    0.000    0.000 
#
# Total GULP energy -595310.700730 kJ/mol
# GULP energy per Si atom -12402.306265 kJ/mol
# Density = 1.933282 g / cm^3
# Si number density = 19.376924 Si / 1000 Ang^3
#
#
#
# Elastic Constant Matrix: (Units=GPa)
#
#
# Indices 1 2 3 4 5 6 
#
# 1 106.3935 23.0756 15.4477 0.0000 0.0000 0.0000
# 2 23.0756 99.1379 17.5412 0.0000 0.0000 0.0000
# 3 15.4477 17.5412 108.5687 0.0000 0.0000 0.0000
# 4 0.0000 0.0000 0.0000 68.4006 0.0000 0.0000
# 5 0.0000 0.0000 0.0000 0.0000 30.7332 0.0000
# 6 0.0000 0.0000 0.0000 0.0000 0.0000 35.3015
#
#
#
# Elastic Compliance Matrix: (Units=1/GPa)
#
#
# Indices 1 2 3 4 5 6 
#
# 1 0.010020 -0.002141 -0.001080 0.000000 0.000000 0.000000
# 2 -0.002141 0.010841 -0.001447 0.000000 0.000000 0.000000
# 3 -0.001080 -0.001447 0.009598 0.000000 0.000000 0.000000
# 4 0.000000 0.000000 0.000000 0.014620 0.000000 0.000000
# 5 0.000000 0.000000 0.000000 0.000000 0.032538 0.000000
# 6 0.000000 0.000000 0.000000 0.000000 0.000000 0.028327
#
#
# Mechanical properties :
#
#
# Convention : Reuss Voigt Hill
#
# Bulk Modulus (GPa) = 47.33994 47.35880 47.34937
# Shear Modulus (GPa) = 40.87559 44.08943 42.48251
#
# Velocity S-wave (km/s) = 4.59791 4.77525 4.68742
# Velocity P-wave (km/s) = 7.25754 7.40931 7.33381
#
# Compressibility (1/GPa) = 0.02112381
#
# Stress axis : x y z
#
# Youngs Moduli (GPa) = 99.79770 92.23910 104.18655
#
# Poissons Ratio (x) = 0.19751 0.11250
# Poissons Ratio (y) = 0.21370 0.15075
# Poissons Ratio (z) = 0.10776 0.13346
#
# Static dielectric constant tensor:
#      x y z
#    x 3.649990 0.000000 0.000000 
#    y 0.000000 3.751480 0.000000 
#    z 0.000000 0.000000 3.823010 
# 
# 
# High freq. dielectric constant tensor:
#      x y z
#    x 1.755790 0.000000 0.000000 
#    y 0.000000 1.762300 0.000000 
#    z 0.000000 0.000000 1.775220 
# 
# From -- ./inp_files/15608.got.cif
#   From: 2010.03.12/outbox.cif.g09.slc.cpg/sg68_8_cif.got.tgz:15608.got - 2010.04.10 23:14:56.
