data_PCOD8283740
_publ_section_title
;
Structure prediction by ZEFSAII (Michael W. Deem and Ramdas Pophale) SiO2 
 PCOD8283740
Probable space group: C C C A
;
_chemical_formula_sum "Si O2"
_cell_formula_units_Z 64
_cell_length_a 21.180049
_cell_length_b 9.342875
_cell_length_c 13.502969
_cell_angle_alpha 90.000000
_cell_angle_beta 90.000000
_cell_angle_gamma 90.000000
_cell_volume 2672.001942
_symmetry_space_group_name_H-M "C C C A"
_symmetry_group_IT_number 68
_space_group.IT_coordinate_system_code '2'
_symmetry_cell_setting 'orthorhombic'
loop_
_space_group_symop_operation_xyz
x,y,z
-x,1/2-y,z
x,1/2-y,1/2-z
-x,y,1/2-z
-x,-y,-z
x,1/2+y,-z
-x,1/2+y,1/2+z
x,-y,1/2+z
1/2+x,1/2+y,z
1/2-x,-y,z
1/2+x,-y,1/2-z
1/2-x,1/2+y,1/2-z
1/2-x,1/2-y,-z
1/2+x,y,-z
1/2-x,y,1/2+z
1/2+x,1/2-y,1/2+z
loop_
_atom_site_type_symbol
_atom_site_label
_atom_site_fract_x
_atom_site_fract_y
_atom_site_fract_z
Si Si1 0.747659 0.667280 0.898278
Si Si2 0.128680 0.388763 0.210292
Si Si3 0.045230 0.122815 0.469144
Si Si4 0.624917 0.668100 0.664177
O O1 0.750000 0.500000 0.924587
O O2 0.807164 0.687770 0.827353
O O3 0.685800 0.726473 0.843193
O O4 0.750000 0.750000 0.000000
O O5 0.090324 0.250000 0.250000
O O6 0.140231 0.507253 0.296110
O O7 0.088327 0.445342 0.117390
O O8 0.089379 0.167947 0.560577
O O9 0.000000 0.250000 0.432861
O O10 0.000000 0.000000 0.500000
O O11 0.584177 0.750000 0.750000
#
# Coordination Sequence:
#
# PCOD8283740 Si02
#       4
#    16  16  16  16
#     4  12  27  47  79 111 153 199 252 326 407 475
#     4  12  28  47  77 114 157 203 258 325 398 475
#     4  12  28  49  76 109 154 209 271 326 383 465
#     4  12  26  49  77 112 156 204 261 325 405 473
#
# _framework density 23.952079000000001
#
# number of rings (size 3 to 8) (size 9 to 14) (size 15 to 20)
#    0.000    0.000    5.000    3.750    3.500    6.000 
#    0.000    0.000    0.000    0.000    0.000    0.000 
#    0.000    0.000    0.000    0.000    0.000    0.000 
#
# Total GULP energy -396460.283662 kJ/mol
# GULP energy per Si atom -12389.383864 kJ/mol
# Density = 2.389756 g / cm^3
# Si number density = 23.952079 Si / 1000 Ang^3
#
#
#
# Elastic Constant Matrix: (Units=GPa)
#
#
# Indices 1 2 3 4 5 6 
#
# 1 116.7298 27.4345 31.0284 0.0000 0.0000 0.0000
# 2 27.4345 158.9082 28.8817 0.0000 0.0000 0.0000
# 3 31.0284 28.8817 107.7301 0.0000 0.0000 0.0000
# 4 0.0000 0.0000 0.0000 54.6418 0.0000 0.0000
# 5 0.0000 0.0000 0.0000 0.0000 13.4138 0.0000
# 6 0.0000 0.0000 0.0000 0.0000 0.0000 43.8908
#
#
#
# Elastic Compliance Matrix: (Units=1/GPa)
#
#
# Indices 1 2 3 4 5 6 
#
# 1 0.009490 -0.001200 -0.002412 0.000000 0.000000 0.000000
# 2 -0.001200 0.006767 -0.001469 0.000000 0.000000 0.000000
# 3 -0.002412 -0.001469 0.010371 0.000000 0.000000 0.000000
# 4 0.000000 0.000000 0.000000 0.018301 0.000000 0.000000
# 5 0.000000 0.000000 0.000000 0.000000 0.074550 0.000000
# 6 0.000000 0.000000 0.000000 0.000000 0.000000 0.022784
#
#
# Mechanical properties :
#
#
# Convention : Reuss Voigt Hill
#
# Bulk Modulus (GPa) = 60.72634 62.00636 61.36635
# Shear Modulus (GPa) = 31.66322 42.12421 36.89372
#
# Velocity S-wave (km/s) = 3.63979 4.19822 3.92894
# Velocity P-wave (km/s) = 6.56296 7.03164 6.80134
#
# Compressibility (1/GPa) = 0.01646732
#
# Stress axis : x y z
#
# Youngs Moduli (GPa) = 105.37569 147.77526 96.42523
#
# Poissons Ratio (x) = 0.17734 0.23253
# Poissons Ratio (y) = 0.12646 0.14161
# Poissons Ratio (z) = 0.25412 0.21702
#
# Static dielectric constant tensor:
#      x y z
#    x 4.375260 0.000000 0.000000 
#    y 0.000000 4.500370 0.000000 
#    z 0.000000 0.000000 10.369400 
# 
# 
# High freq. dielectric constant tensor:
#      x y z
#    x 1.939000 0.000000 0.000000 
#    y 0.000000 1.972340 0.000000 
#    z 0.000000 0.000000 1.976730 
# 
# From -- ./inp_files/25026.got.cif
#   From: 2010.03.12/outbox.cif.g09.slc.cpg/sg68_13_cif.got.tgz:25026.got - 2010.04.10 23:14:56.
