data_PCOD8283780
_publ_section_title
;
Structure prediction by ZEFSAII (Michael W. Deem and Ramdas Pophale) SiO2 
 PCOD8283780
Probable space group: F M M M
;
_chemical_formula_sum "Si O2"
_cell_formula_units_Z 240
_cell_length_a 28.915369
_cell_length_b 19.903938
_cell_length_c 27.061124
_cell_angle_alpha 90.000000
_cell_angle_beta 90.000000
_cell_angle_gamma 90.000000
_cell_volume 15574.480897
_symmetry_space_group_name_H-M "F M M M"
_symmetry_group_IT_number 69
_symmetry_cell_setting 'orthorhombic'
loop_
_space_group_symop_operation_xyz
x,y,z
-x,-y,z
x,-y,-z
-x,y,-z
-x,-y,-z
x,y,-z
-x,y,z
x,-y,z
x,1/2+y,1/2+z
-x,1/2-y,1/2+z
x,1/2-y,1/2-z
-x,1/2+y,1/2-z
-x,1/2-y,1/2-z
x,1/2+y,1/2-z
-x,1/2+y,1/2+z
x,1/2-y,1/2+z
1/2+x,y,1/2+z
1/2-x,-y,1/2+z
1/2+x,-y,1/2-z
1/2-x,y,1/2-z
1/2-x,-y,1/2-z
1/2+x,y,1/2-z
1/2-x,y,1/2+z
1/2+x,-y,1/2+z
1/2+x,1/2+y,z
1/2-x,1/2-y,z
1/2+x,1/2-y,-z
1/2-x,1/2+y,-z
1/2-x,1/2-y,-z
1/2+x,1/2+y,-z
1/2-x,1/2+y,z
1/2+x,1/2-y,z
loop_
_atom_site_type_symbol
_atom_site_label
_atom_site_fract_x
_atom_site_fract_y
_atom_site_fract_z
Si Si1 0.266212 0.323408 0.114494
Si Si2 0.180164 0.860210 0.444468
Si Si3 0.448486 0.125060 0.120014
Si Si4 0.949895 0.242565 0.056350
Si Si5 0.147864 0.711208 0.444661
Si Si6 0.445855 0.000000 0.946152
Si Si7 0.360066 0.423128 0.350225
Si Si8 0.265477 0.921732 0.805121
O O1 0.250000 0.250000 0.133734
O O2 0.233394 0.345142 0.069363
O O3 0.318726 0.324007 0.094587
O O4 0.265585 0.376261 0.159083
O O5 0.178779 0.889868 0.500000
O O6 0.151173 0.791649 0.441064
O O7 0.158988 0.912877 0.405961
O O8 0.500000 0.110377 0.142288
O O9 0.448996 0.195078 0.092840
O O10 0.431535 0.067026 0.082599
O O11 0.406701 0.121677 0.160488
O O12 0.906202 0.193791 0.067886
O O13 0.000000 0.205529 0.063151
O O14 0.945269 0.269064 0.000000
O O15 0.160719 0.686903 0.500000
O O16 0.500000 0.000000 0.953643
O O17 0.421562 0.000000 0.000000
O O18 0.373638 0.500000 0.342459
O O19 0.319612 0.402083 0.311931
O O20 0.250000 0.905312 0.750000
O O21 0.257668 0.000000 0.818565
#
# Coordination Sequence:
#
# PCOD8283780 Si02
#       8
#    32  32  32  32  32  16  32  32
#     4   9  17  28  45  66  87 107 139 179 214 253
#     4   9  16  25  35  53  82 114 143 172 205 242
#     4  10  17  24  33  48  75 112 148 180 208 233
#     4   9  16  24  34  51  79 115 152 180 202 237
#     4   9  15  24  39  58  82 113 143 170 205 245
#     4   9  16  22  28  42  69 108 152 186 205 222
#     4  10  18  27  38  56  79 108 147 183 210 248
#     4   9  19  35  51  64  83 109 136 174 227 275
#
# _framework density 15.409822999999999
#
# number of rings (size 3 to 8) (size 9 to 14) (size 15 to 20)
#    0.000    2.733    2.000    0.800    0.000    4.267 
#    0.000    0.000    0.000    1.200    0.000    0.933 
#    0.000    3.733    0.000    3.333    0.000    0.000 
#
# Total GULP energy -743406.080427 kJ/mol
# GULP energy per Si atom -12390.101340 kJ/mol
# Density = 1.537475 g / cm^3
# Si number density = 15.409823 Si / 1000 Ang^3
#
#
#
# Elastic Constant Matrix: (Units=GPa)
#
#
# Indices 1 2 3 4 5 6 
#
# 1 150.0549 27.9975 49.2196 0.0000 0.0000 0.0000
# 2 27.9975 28.5022 20.2865 0.0000 0.0000 0.0000
# 3 49.2196 20.2865 67.6696 0.0000 0.0000 0.0000
# 4 0.0000 0.0000 0.0000 15.2694 0.0000 0.0000
# 5 0.0000 0.0000 0.0000 0.0000 16.7373 0.0000
# 6 0.0000 0.0000 0.0000 0.0000 0.0000 18.1369
#
#
#
# Elastic Compliance Matrix: (Units=1/GPa)
#
#
# Indices 1 2 3 4 5 6 
#
# 1 0.009396 -0.005549 -0.005170 0.000000 0.000000 0.000000
# 2 -0.005549 0.047879 -0.010317 0.000000 0.000000 0.000000
# 3 -0.005170 -0.010317 0.021631 0.000000 0.000000 0.000000
# 4 0.000000 0.000000 0.000000 0.065490 0.000000 0.000000
# 5 0.000000 0.000000 0.000000 0.000000 0.059747 0.000000
# 6 0.000000 0.000000 0.000000 0.000000 0.000000 0.055136
#
#
# Mechanical properties :
#
#
# Convention : Reuss Voigt Hill
#
# Bulk Modulus (GPa) = 27.14999 49.02599 38.08799
# Shear Modulus (GPa) = 15.94232 19.94360 17.94296
#
# Velocity S-wave (km/s) = 3.21994 3.60142 3.41601
# Velocity P-wave (km/s) = 5.61078 7.01267 6.35053
#
# Compressibility (1/GPa) = 0.03683242
#
# Stress axis : x y z
#
# Youngs Moduli (GPa) = 106.43386 20.88587 46.22929
#
# Poissons Ratio (x) = 0.11590 0.23902
# Poissons Ratio (y) = 0.59062 0.47696
# Poissons Ratio (z) = 0.55029 0.21549
#
# Static dielectric constant tensor:
#      x y z
#    x 3.402610 0.000000 0.000000 
#    y 0.000000 2.617640 0.000000 
#    z 0.000000 0.000000 2.686730 
# 
# 
# High freq. dielectric constant tensor:
#      x y z
#    x 1.611790 0.000000 0.000000 
#    y 0.000000 1.548770 0.000000 
#    z 0.000000 0.000000 1.547590 
# 
# From -- ./inp_files/44027.got.cif
#   From: 2010.03.12/outbox.cif.g09.slc.cpg/sg69_23_cif.got.tgz:44027.got - 2010.04.10 23:52:46.
