data_PCOD8283040
_publ_section_title
;
Structure prediction by ZEFSAII (Michael W. Deem and Ramdas Pophale) SiO2 
 PCOD8283040
Probable space group: C C C A
;
_chemical_formula_sum "Si O2"
_cell_formula_units_Z 60
_cell_length_a 15.582577
_cell_length_b 12.897920
_cell_length_c 12.641422
_cell_angle_alpha 90.000000
_cell_angle_beta 90.000000
_cell_angle_gamma 90.000000
_cell_volume 2540.708788
_symmetry_space_group_name_H-M "C C C A"
_symmetry_group_IT_number 68
_space_group.IT_coordinate_system_code '2'
_symmetry_cell_setting 'orthorhombic'
loop_
_space_group_symop_operation_xyz
x,y,z
-x,1/2-y,z
x,1/2-y,1/2-z
-x,y,1/2-z
-x,-y,-z
x,1/2+y,-z
-x,1/2+y,1/2+z
x,-y,1/2+z
1/2+x,1/2+y,z
1/2-x,-y,z
1/2+x,-y,1/2-z
1/2-x,1/2+y,1/2-z
1/2-x,1/2-y,-z
1/2+x,y,-z
1/2-x,y,1/2+z
1/2+x,1/2-y,1/2+z
loop_
_atom_site_type_symbol
_atom_site_label
_atom_site_fract_x
_atom_site_fract_y
_atom_site_fract_z
Si Si1 0.750000 0.000000 0.919898
Si Si2 0.130078 0.902250 0.735198
Si Si3 0.500000 0.750000 0.926539
Si Si4 0.000000 0.750000 0.750000
Si Si5 0.829772 0.679252 0.964261
Si Si6 0.500000 0.580617 0.750000
O O1 0.793569 0.912662 0.846988
O O2 0.680825 0.936825 0.988200
O O3 0.059060 0.827148 0.679478
O O4 0.164964 0.842323 0.838740
O O5 0.087125 0.013629 0.755247
O O6 0.583733 0.764771 0.998380
O O7 0.506899 0.648341 0.854904
O O8 0.750000 0.750000 0.000000
#
# Coordination Sequence:
#
# PCOD8283040 Si02
#       6
#     8  16   8   4  16   8
#     4  12  26  46  70 110 148 194 244 314 370 440
#     4  11  24  46  71 104 144 192 243 307 370 436
#     4  11  25  48  71 109 146 194 242 310 369 451
#     4  10  22  46  70  98 140 190 234 302 374 434
#     4  12  28  45  77 110 148 195 254 306 376 453
#     4  10  24  46  76 102 148 194 242 300 380 440
#
# _framework density 23.615456999999999
#
# number of rings (size 3 to 8) (size 9 to 14) (size 15 to 20)
#    0.000    0.800    2.667    3.200    7.467    3.200 
#    0.000    0.000    0.000    0.000    0.000    0.000 
#    0.000    0.000    0.000    0.000    0.000    0.000 
#
# Total GULP energy -371831.840818 kJ/mol
# GULP energy per Si atom -12394.394694 kJ/mol
# Density = 2.356171 g / cm^3
# Si number density = 23.615457 Si / 1000 Ang^3
#
#
#
# Elastic Constant Matrix: (Units=GPa)
#
#
# Indices 1 2 3 4 5 6 
#
# 1 149.1638 52.2836 47.5231 0.0000 0.0000 0.0000
# 2 52.2836 124.9175 45.8457 0.0000 0.0000 0.0000
# 3 47.5231 45.8457 123.7938 0.0000 0.0000 0.0000
# 4 0.0000 0.0000 0.0000 42.3971 0.0000 0.0000
# 5 0.0000 0.0000 0.0000 0.0000 28.3359 0.0000
# 6 0.0000 0.0000 0.0000 0.0000 0.0000 51.4496
#
#
#
# Elastic Compliance Matrix: (Units=1/GPa)
#
#
# Indices 1 2 3 4 5 6 
#
# 1 0.008349 -0.002683 -0.002212 0.000000 0.000000 0.000000
# 2 -0.002683 0.010127 -0.002720 0.000000 0.000000 0.000000
# 3 -0.002212 -0.002720 0.009934 0.000000 0.000000 0.000000
# 4 0.000000 0.000000 0.000000 0.023586 0.000000 0.000000
# 5 0.000000 0.000000 0.000000 0.000000 0.035291 0.000000
# 6 0.000000 0.000000 0.000000 0.000000 0.000000 0.019437
#
#
# Mechanical properties :
#
#
# Convention : Reuss Voigt Hill
#
# Bulk Modulus (GPa) = 75.86941 76.57555 76.22248
# Shear Modulus (GPa) = 39.57366 41.25138 40.41252
#
# Velocity S-wave (km/s) = 4.09804 4.18400 4.14124
# Velocity P-wave (km/s) = 7.38841 7.47246 7.43055
#
# Compressibility (1/GPa) = 0.01318054
#
# Stress axis : x y z
#
# Youngs Moduli (GPa) = 119.77527 98.75043 100.66038
#
# Poissons Ratio (x) = 0.26492 0.22262
# Poissons Ratio (y) = 0.32133 0.27383
# Poissons Ratio (z) = 0.26489 0.26864
#
# Static dielectric constant tensor:
#      x y z
#    x 4.535350 0.000000 0.000000 
#    y 0.000000 4.633550 0.000000 
#    z 0.000000 0.000000 4.184180 
# 
# 
# High freq. dielectric constant tensor:
#      x y z
#    x 1.940270 0.000000 0.000000 
#    y 0.000000 1.966730 0.000000 
#    z 0.000000 0.000000 1.933070 
# 
# From -- ./inp_files/20404.got.cif
#   From: 2010.03.12/outbox.cif.g09.slc.cpg/sg68_11_cif.got.tgz:20404.got - 2010.04.10 23:14:56.
