data_PCOD8283974
_publ_section_title
;
Structure prediction by ZEFSAII (Michael W. Deem and Ramdas Pophale) SiO2 
 PCOD8283974
Probable space group: F M M M
;
_chemical_formula_sum "Si O2"
_cell_formula_units_Z 160
_cell_length_a 15.726786
_cell_length_b 17.266411
_cell_length_c 31.299697
_cell_angle_alpha 90.000000
_cell_angle_beta 90.000000
_cell_angle_gamma 90.000000
_cell_volume 8499.280941
_symmetry_space_group_name_H-M "F M M M"
_symmetry_group_IT_number 69
_symmetry_cell_setting 'orthorhombic'
loop_
_space_group_symop_operation_xyz
x,y,z
-x,-y,z
x,-y,-z
-x,y,-z
-x,-y,-z
x,y,-z
-x,y,z
x,-y,z
x,1/2+y,1/2+z
-x,1/2-y,1/2+z
x,1/2-y,1/2-z
-x,1/2+y,1/2-z
-x,1/2-y,1/2-z
x,1/2+y,1/2-z
-x,1/2+y,1/2+z
x,1/2-y,1/2+z
1/2+x,y,1/2+z
1/2-x,-y,1/2+z
1/2+x,-y,1/2-z
1/2-x,y,1/2-z
1/2-x,-y,1/2-z
1/2+x,y,1/2-z
1/2-x,y,1/2+z
1/2+x,-y,1/2+z
1/2+x,1/2+y,z
1/2-x,1/2-y,z
1/2+x,1/2-y,-z
1/2-x,1/2+y,-z
1/2-x,1/2-y,-z
1/2+x,1/2+y,-z
1/2-x,1/2+y,z
1/2+x,1/2-y,z
loop_
_atom_site_type_symbol
_atom_site_label
_atom_site_fract_x
_atom_site_fract_y
_atom_site_fract_z
Si Si1 0.663996 0.700518 0.365573
Si Si2 0.789684 0.912718 0.164589
Si Si3 0.596127 0.795728 0.292319
Si Si4 0.598038 0.585715 0.918837
Si Si5 0.849772 0.255831 0.454181
O O1 0.750000 0.750000 0.366615
O O2 0.695067 0.615878 0.349803
O O3 0.598146 0.736122 0.332068
O O4 0.620408 0.704270 0.413098
O O5 0.833887 0.863628 0.202521
O O6 0.851755 0.904216 0.124738
O O7 0.779835 0.000000 0.180903
O O8 0.500000 0.828924 0.288675
O O9 0.622560 0.750000 0.250000
O O10 0.500000 0.594533 0.906853
O O11 0.616142 0.500000 0.938944
O O12 0.625035 0.653679 0.950712
O O13 0.888379 0.226246 0.500000
O O14 0.750000 0.250000 0.457255
#
# Coordination Sequence:
#
# PCOD8283974 Si02
#       5
#    32  32  32  32  32
#     4   9  17  33  50  72 100 136 176 217 251 308
#     4  10  19  33  54  78 105 137 173 215 265 319
#     4  10  20  34  54  79 105 136 172 214 266 321
#     4  10  19  31  49  76 109 140 171 217 275 322
#     4  10  18  31  49  70 103 145 181 211 251 311
#
# _framework density 18.825122
#
# number of rings (size 3 to 8) (size 9 to 14) (size 15 to 20)
#    0.000    2.200    6.000    0.600    0.000    5.600 
#    0.000    3.000    0.000    2.400    0.000    0.000 
#    0.000    0.800    0.000    8.400    0.000    0.000 
#
# Total GULP energy -495563.738513 kJ/mol
# GULP energy per Si atom -12389.093463 kJ/mol
# Density = 1.878228 g / cm^3
# Si number density = 18.825122 Si / 1000 Ang^3
#
#
#
# Elastic Constant Matrix: (Units=GPa)
#
#
# Indices 1 2 3 4 5 6 
#
# 1 30.4832 34.5228 5.2408 0.0000 0.0000 0.0000
# 2 34.5228 115.3881 44.6278 0.0000 0.0000 0.0000
# 3 5.2408 44.6278 125.7385 0.0000 0.0000 0.0000
# 4 0.0000 0.0000 0.0000 24.1659 0.0000 0.0000
# 5 0.0000 0.0000 0.0000 0.0000 36.9883 0.0000
# 6 0.0000 0.0000 0.0000 0.0000 0.0000 25.5398
#
#
#
# Elastic Compliance Matrix: (Units=1/GPa)
#
#
# Indices 1 2 3 4 5 6 
#
# 1 0.051156 -0.016785 0.003825 0.000000 0.000000 0.000000
# 2 -0.016785 0.015553 -0.004820 0.000000 0.000000 0.000000
# 3 0.003825 -0.004820 0.009504 0.000000 0.000000 0.000000
# 4 0.000000 0.000000 0.000000 0.041381 0.000000 0.000000
# 5 0.000000 0.000000 0.000000 0.000000 0.027036 0.000000
# 6 0.000000 0.000000 0.000000 0.000000 0.000000 0.039155
#
#
# Mechanical properties :
#
#
# Convention : Reuss Voigt Hill
#
# Bulk Modulus (GPa) = 24.59825 48.93252 36.76539
# Shear Modulus (GPa) = 21.46886 29.82004 25.64445
#
# Velocity S-wave (km/s) = 3.38070 3.98434 3.69487
# Velocity P-wave (km/s) = 5.32296 6.87141 6.14614
#
# Compressibility (1/GPa) = 0.04065329
#
# Stress axis : x y z
#
# Youngs Moduli (GPa) = 19.54789 64.29804 105.21367
#
# Poissons Ratio (x) = 1.07923 -0.40246
# Poissons Ratio (y) = 0.32811 0.50717
# Poissons Ratio (z) = -0.07477 0.30994
#
# Static dielectric constant tensor:
#      x y z
#    x 3.326820 0.000000 0.000000 
#    y 0.000000 3.759620 0.000000 
#    z 0.000000 0.000000 3.980190 
# 
# 
# High freq. dielectric constant tensor:
#      x y z
#    x 1.709030 0.000000 0.000000 
#    y 0.000000 1.707290 0.000000 
#    z 0.000000 0.000000 1.734780 
# 
# From -- ./inp_files/23422.got.cif
#   From: 2010.03.12/outbox.cif.g09.slc.cpg/sg69_12_cif.got.tgz:23422.got - 2010.04.10 23:52:46.
