data_PCOD8283841
_publ_section_title
;
Structure prediction by ZEFSAII (Michael W. Deem and Ramdas Pophale) SiO2 
 PCOD8283841
Probable space group: F M M M
;
_chemical_formula_sum "Si O2"
_cell_formula_units_Z 192
_cell_length_a 18.141291
_cell_length_b 28.359046
_cell_length_c 25.333973
_cell_angle_alpha 90.000000
_cell_angle_beta 90.000000
_cell_angle_gamma 90.000000
_cell_volume 13033.561640
_symmetry_space_group_name_H-M "F M M M"
_symmetry_group_IT_number 69
_symmetry_cell_setting 'orthorhombic'
loop_
_space_group_symop_operation_xyz
x,y,z
-x,-y,z
x,-y,-z
-x,y,-z
-x,-y,-z
x,y,-z
-x,y,z
x,-y,z
x,1/2+y,1/2+z
-x,1/2-y,1/2+z
x,1/2-y,1/2-z
-x,1/2+y,1/2-z
-x,1/2-y,1/2-z
x,1/2+y,1/2-z
-x,1/2+y,1/2+z
x,1/2-y,1/2+z
1/2+x,y,1/2+z
1/2-x,-y,1/2+z
1/2+x,-y,1/2-z
1/2-x,y,1/2-z
1/2-x,-y,1/2-z
1/2+x,y,1/2-z
1/2-x,y,1/2+z
1/2+x,-y,1/2+z
1/2+x,1/2+y,z
1/2-x,1/2-y,z
1/2+x,1/2-y,-z
1/2-x,1/2+y,-z
1/2-x,1/2-y,-z
1/2+x,1/2+y,-z
1/2-x,1/2+y,z
1/2+x,1/2-y,z
loop_
_atom_site_type_symbol
_atom_site_label
_atom_site_fract_x
_atom_site_fract_y
_atom_site_fract_z
Si Si1 0.704196 0.295807 0.439679
Si Si2 0.417496 0.199495 0.853996
Si Si3 0.417141 0.948302 0.437527
Si Si4 0.580334 0.691014 0.152462
Si Si5 0.340803 0.855514 0.439718
Si Si6 0.832895 0.693678 0.752005
O O1 0.680465 0.286008 0.500000
O O2 0.750000 0.250000 0.418295
O O3 0.630915 0.306407 0.406692
O O4 0.754476 0.342859 0.435329
O O5 0.500000 0.177435 0.861678
O O6 0.427019 0.253654 0.840107
O O7 0.374992 0.175476 0.804596
O O8 0.416539 0.951057 0.500000
O O9 0.500000 0.935219 0.418200
O O10 0.358580 0.908510 0.418854
O O11 0.394319 0.000000 0.414858
O O12 0.500000 0.667207 0.155305
O O13 0.615031 0.681496 0.095518
O O14 0.628257 0.670923 0.200781
O O15 0.368230 0.849161 0.500000
O O16 0.832057 0.750000 0.750000
O O17 0.750000 0.673939 0.750000
#
# Coordination Sequence:
#
# PCOD8283841 Si02
#       6
#    32  32  32  32  32  32
#     4  10  19  30  41  56  82 112 143 178 211 245
#     4  10  19  29  41  55  77 110 146 178 212 249
#     4   8  14  25  40  59  84 111 139 173 214 259
#     4  10  18  26  37  56  80 103 138 180 207 241
#     4  10  18  27  41  59  82 115 147 172 207 258
#     4   9  17  27  41  54  71 103 138 177 216 248
#
# _framework density 14.731199999999999
#
# number of rings (size 3 to 8) (size 9 to 14) (size 15 to 20)
#    0.000    2.500    1.667    2.500    2.333    3.333 
#    0.000    1.667    0.000    0.000    0.000    0.000 
#    0.000    6.667    0.000    8.167    0.000    0.667 
#
# Total GULP energy -594820.479526 kJ/mol
# GULP energy per Si atom -12392.093323 kJ/mol
# Density = 1.469767 g / cm^3
# Si number density = 14.731200 Si / 1000 Ang^3
#
#
#
# Elastic Constant Matrix: (Units=GPa)
#
#
# Indices 1 2 3 4 5 6 
#
# 1 120.5681 18.4288 55.6798 0.0000 0.0000 0.0000
# 2 18.4288 39.6225 7.8409 0.0000 0.0000 0.0000
# 3 55.6798 7.8409 83.9754 0.0000 0.0000 0.0000
# 4 0.0000 0.0000 0.0000 4.5645 0.0000 0.0000
# 5 0.0000 0.0000 0.0000 0.0000 21.7317 0.0000
# 6 0.0000 0.0000 0.0000 0.0000 0.0000 16.7678
#
#
#
# Elastic Compliance Matrix: (Units=1/GPa)
#
#
# Indices 1 2 3 4 5 6 
#
# 1 0.012634 -0.004298 -0.007976 0.000000 0.000000 0.000000
# 2 -0.004298 0.027175 0.000312 0.000000 0.000000 0.000000
# 3 -0.007976 0.000312 0.017167 0.000000 0.000000 0.000000
# 4 0.000000 0.000000 0.000000 0.219080 0.000000 0.000000
# 5 0.000000 0.000000 0.000000 0.000000 0.046016 0.000000
# 6 0.000000 0.000000 0.000000 0.000000 0.000000 0.059638
#
#
# Mechanical properties :
#
#
# Convention : Reuss Voigt Hill
#
# Bulk Modulus (GPa) = 30.25331 45.34055 37.79693
# Shear Modulus (GPa) = 12.00041 19.42724 15.71383
#
# Velocity S-wave (km/s) = 2.85726 3.63544 3.26959
# Velocity P-wave (km/s) = 5.60952 6.96185 6.32195
#
# Compressibility (1/GPa) = 0.03305423
#
# Stress axis : x y z
#
# Youngs Moduli (GPa) = 79.14905 36.79797 58.24963
#
# Poissons Ratio (x) = 0.15816 0.46459
# Poissons Ratio (y) = 0.34018 -0.01820
# Poissons Ratio (z) = 0.63129 -0.01150
#
# Static dielectric constant tensor:
#      x y z
#    x 3.077530 0.000000 0.000000 
#    y 0.000000 2.681320 0.000000 
#    z 0.000000 0.000000 2.819660 
# 
# 
# High freq. dielectric constant tensor:
#      x y z
#    x 1.566850 0.000000 0.000000 
#    y 0.000000 1.499330 0.000000 
#    z 0.000000 0.000000 1.559010 
# 
# From -- ./inp_files/37479.got.cif
#   From: 2010.03.12/outbox.cif.g09.slc.cpg/sg69_19_cif.got.tgz:37479.got - 2010.04.10 23:52:46.
