data_PCOD8283732
_publ_section_title
;
Structure prediction by ZEFSAII (Michael W. Deem and Ramdas Pophale) SiO2 
 PCOD8283732
Probable space group: C C C A
;
_chemical_formula_sum "Si O2"
_cell_formula_units_Z 72
_cell_length_a 21.114566
_cell_length_b 11.943294
_cell_length_c 13.734911
_cell_angle_alpha 90.000000
_cell_angle_beta 90.000000
_cell_angle_gamma 90.000000
_cell_volume 3463.635099
_symmetry_space_group_name_H-M "C C C A"
_symmetry_group_IT_number 68
_space_group.IT_coordinate_system_code '2'
_symmetry_cell_setting 'orthorhombic'
loop_
_space_group_symop_operation_xyz
x,y,z
-x,1/2-y,z
x,1/2-y,1/2-z
-x,y,1/2-z
-x,-y,-z
x,1/2+y,-z
-x,1/2+y,1/2+z
x,-y,1/2+z
1/2+x,1/2+y,z
1/2-x,-y,z
1/2+x,-y,1/2-z
1/2-x,1/2+y,1/2-z
1/2-x,1/2-y,-z
1/2+x,y,-z
1/2-x,y,1/2+z
1/2+x,1/2-y,1/2+z
loop_
_atom_site_type_symbol
_atom_site_label
_atom_site_fract_x
_atom_site_fract_y
_atom_site_fract_z
Si Si1 0.332860 0.625877 0.229576
Si Si2 0.191545 0.666173 0.512779
Si Si3 0.572533 0.249516 0.410682
Si Si4 0.750000 0.500000 0.126592
Si Si5 0.928929 0.069970 0.743057
O O1 0.358382 0.750000 0.250000
O O2 0.306986 0.615573 0.120519
O O3 0.277151 0.598507 0.305423
O O4 0.387964 0.539768 0.251228
O O5 0.250000 0.750000 0.500000
O O6 0.124414 0.730352 0.495337
O O7 0.197514 0.560678 0.440092
O O8 0.500000 0.250000 0.451708
O O9 0.585216 0.368686 0.359397
O O10 0.583606 0.153754 0.331322
O O11 0.000000 0.026918 0.750000
#
# Coordination Sequence:
#
# PCOD8283732 Si02
#       5
#    16  16  16   8  16
#     4  12  26  42  64  98 136 179 216 277 349 403
#     4  12  26  43  67 100 133 175 227 284 344 407
#     4   9  20  43  71  96 124 177 234 276 327 403
#     4  12  26  46  66  92 138 176 230 284 338 410
#     4   9  20  42  70  93 128 178 227 275 331 400
#
# _framework density 20.787409
#
# number of rings (size 3 to 8) (size 9 to 14) (size 15 to 20)
#    0.000    1.333    4.444    2.000    6.222    0.444 
#    4.000    2.222    0.000    0.000    0.000    0.000 
#    0.000    0.000    0.000    0.000    0.000    0.000 
#
# Total GULP energy -446399.494856 kJ/mol
# GULP energy per Si atom -12399.985968 kJ/mol
# Density = 2.074010 g / cm^3
# Si number density = 20.787409 Si / 1000 Ang^3
#
#
#
# Elastic Constant Matrix: (Units=GPa)
#
#
# Indices 1 2 3 4 5 6 
#
# 1 116.6988 48.2968 43.4142 0.0000 0.0000 0.0000
# 2 48.2968 114.9116 31.2475 0.0000 0.0000 0.0000
# 3 43.4142 31.2475 116.1530 0.0000 0.0000 0.0000
# 4 0.0000 0.0000 0.0000 24.6938 0.0000 0.0000
# 5 0.0000 0.0000 0.0000 0.0000 27.4587 0.0000
# 6 0.0000 0.0000 0.0000 0.0000 0.0000 38.5641
#
#
#
# Elastic Compliance Matrix: (Units=1/GPa)
#
#
# Indices 1 2 3 4 5 6 
#
# 1 0.011379 -0.003912 -0.003201 0.000000 0.000000 0.000000
# 2 -0.003912 0.010734 -0.001425 0.000000 0.000000 0.000000
# 3 -0.003201 -0.001425 0.010189 0.000000 0.000000 0.000000
# 4 0.000000 0.000000 0.000000 0.040496 0.000000 0.000000
# 5 0.000000 0.000000 0.000000 0.000000 0.036418 0.000000
# 6 0.000000 0.000000 0.000000 0.000000 0.000000 0.025931
#
#
# Mechanical properties :
#
#
# Convention : Reuss Voigt Hill
#
# Bulk Modulus (GPa) = 65.67845 65.96452 65.82148
# Shear Modulus (GPa) = 31.78659 33.13031 32.45845
#
# Velocity S-wave (km/s) = 3.91465 3.99653 3.95580
# Velocity P-wave (km/s) = 7.21779 7.28685 7.25240
#
# Compressibility (1/GPa) = 0.01522569
#
# Stress axis : x y z
#
# Youngs Moduli (GPa) = 87.88255 93.15996 98.14414
#
# Poissons Ratio (x) = 0.36446 0.31412
# Poissons Ratio (y) = 0.34381 0.13990
# Poissons Ratio (z) = 0.28128 0.13280
#
# Static dielectric constant tensor:
#      x y z
#    x 3.917850 0.000000 0.000000 
#    y 0.000000 3.897160 0.000000 
#    z 0.000000 0.000000 3.805420 
# 
# 
# High freq. dielectric constant tensor:
#      x y z
#    x 1.813250 0.000000 0.000000 
#    y 0.000000 1.817190 0.000000 
#    z 0.000000 0.000000 1.810120 
# 
# From -- ./inp_files/25115.got.cif
#   From: 2010.03.12/outbox.cif.g09.slc.cpg/sg68_13_cif.got.tgz:25115.got - 2010.04.10 23:14:56.
