data_PCOD8283489
_publ_section_title
;
Structure prediction by ZEFSAII (Michael W. Deem and Ramdas Pophale) SiO2 
 PCOD8283489
Probable space group: C C C A
;
_chemical_formula_sum "Si O2"
_cell_formula_units_Z 68
_cell_length_a 24.297243
_cell_length_b 22.475326
_cell_length_c 5.008905
_cell_angle_alpha 90.000000
_cell_angle_beta 90.000000
_cell_angle_gamma 90.000000
_cell_volume 2735.305204
_symmetry_space_group_name_H-M "C C C A"
_symmetry_group_IT_number 68
_space_group.IT_coordinate_system_code '2'
_symmetry_cell_setting 'orthorhombic'
loop_
_space_group_symop_operation_xyz
x,y,z
-x,1/2-y,z
x,1/2-y,1/2-z
-x,y,1/2-z
-x,-y,-z
x,1/2+y,-z
-x,1/2+y,1/2+z
x,-y,1/2+z
1/2+x,1/2+y,z
1/2-x,-y,z
1/2+x,-y,1/2-z
1/2-x,1/2+y,1/2-z
1/2-x,1/2-y,-z
1/2+x,y,-z
1/2-x,y,1/2+z
1/2+x,1/2-y,1/2+z
loop_
_atom_site_type_symbol
_atom_site_label
_atom_site_fract_x
_atom_site_fract_y
_atom_site_fract_z
Si Si1 0.215158 0.903219 0.093536
Si Si2 0.599920 0.038071 0.295881
Si Si3 0.000000 0.250000 0.750000
Si Si4 0.155231 0.210708 0.493773
Si Si5 0.049961 0.853821 0.945240
O O1 0.236742 0.919756 0.800364
O O2 0.162208 0.942257 0.162460
O O3 0.202294 0.832717 0.108118
O O4 0.557075 0.091802 0.348375
O O5 0.587987 0.016985 0.995358
O O6 0.038084 0.208829 0.576617
O O7 0.178496 0.250000 0.250000
O O8 0.110471 0.165911 0.342354
O O9 0.134965 0.250000 0.750000
O O10 0.000000 0.870950 0.750000
#
# Coordination Sequence:
#
# PCOD8283489 Si02
#       5
#    16  16   4  16  16
#     4  11  24  42  68 101 133 180 235 286 350 418
#     4  11  27  48  71 101 140 183 233 294 350 409
#     4  12  22  44  72 102 132 184 222 282 342 420
#     4  11  23  41  64  97 143 182 225 286 348 418
#     4  11  26  43  71 102 140 184 237 283 347 424
#
# _framework density 24.860116999999999
#
# number of rings (size 3 to 8) (size 9 to 14) (size 15 to 20)
#    0.000    0.941    1.176    4.588    3.294   10.353 
#    0.000    0.000    0.000    0.000    0.000    0.000 
#    0.000    0.000    0.000    0.000    0.000    0.000 
#
# Total GULP energy -421305.143395 kJ/mol
# GULP energy per Si atom -12391.327747 kJ/mol
# Density = 2.480353 g / cm^3
# Si number density = 24.860117 Si / 1000 Ang^3
#
#
#
# Elastic Constant Matrix: (Units=GPa)
#
#
# Indices 1 2 3 4 5 6 
#
# 1 66.1092 4.7310 2.7038 0.0000 0.0000 0.0000
# 2 4.7310 85.9354 -9.2100 0.0000 0.0000 0.0000
# 3 2.7038 -9.2100 73.4616 0.0000 0.0000 0.0000
# 4 0.0000 0.0000 0.0000 63.9597 0.0000 0.0000
# 5 0.0000 0.0000 0.0000 0.0000 38.3524 0.0000
# 6 0.0000 0.0000 0.0000 0.0000 0.0000 40.1268
#
#
#
# Elastic Compliance Matrix: (Units=1/GPa)
#
#
# Indices 1 2 3 4 5 6 
#
# 1 0.015219 -0.000910 -0.000674 0.000000 0.000000 0.000000
# 2 -0.000910 0.011850 0.001519 0.000000 0.000000 0.000000
# 3 -0.000674 0.001519 0.013828 0.000000 0.000000 0.000000
# 4 0.000000 0.000000 0.000000 0.015635 0.000000 0.000000
# 5 0.000000 0.000000 0.000000 0.000000 0.026074 0.000000
# 6 0.000000 0.000000 0.000000 0.000000 0.000000 0.024921
#
#
# Mechanical properties :
#
#
# Convention : Reuss Voigt Hill
#
# Bulk Modulus (GPa) = 24.53025 24.66176 24.59601
# Shear Modulus (GPa) = 41.23860 43.63987 42.43924
#
# Velocity S-wave (km/s) = 4.07729 4.19432 4.13621
# Velocity P-wave (km/s) = 5.66166 5.77911 5.72069
#
# Compressibility (1/GPa) = 0.04076600
#
# Stress axis : x y z
#
# Youngs Moduli (GPa) = 65.70654 84.39131 72.31796
#
# Poissons Ratio (x) = 0.07681 0.04876
# Poissons Ratio (y) = 0.05980 -0.10986
# Poissons Ratio (z) = 0.04430 -0.12820
#
# Static dielectric constant tensor:
#      x y z
#    x 4.303210 0.000000 0.000000 
#    y 0.000000 4.645860 0.000000 
#    z 0.000000 0.000000 3.989850 
# 
# 
# High freq. dielectric constant tensor:
#      x y z
#    x 1.997720 0.000000 0.000000 
#    y 0.000000 2.006030 0.000000 
#    z 0.000000 0.000000 1.971910 
# 
# From -- ./inp_files/1540.got.cif
#   From: 2010.03.12/outbox.cif.g09.slc.cpg/sg68_1_cif.got.tgz:1540.got - 2010.04.10 23:14:56.
