data_PCOD8283926
_publ_section_title
;
Structure prediction by ZEFSAII (Michael W. Deem and Ramdas Pophale) SiO2 
 PCOD8283926
Probable space group: F M M M
;
_chemical_formula_sum "Si O2"
_cell_formula_units_Z 144
_cell_length_a 28.485427
_cell_length_b 8.943251
_cell_length_c 31.254887
_cell_angle_alpha 90.000000
_cell_angle_beta 90.000000
_cell_angle_gamma 90.000000
_cell_volume 7962.255084
_symmetry_space_group_name_H-M "F M M M"
_symmetry_group_IT_number 69
_symmetry_cell_setting 'orthorhombic'
loop_
_space_group_symop_operation_xyz
x,y,z
-x,-y,z
x,-y,-z
-x,y,-z
-x,-y,-z
x,y,-z
-x,y,z
x,-y,z
x,1/2+y,1/2+z
-x,1/2-y,1/2+z
x,1/2-y,1/2-z
-x,1/2+y,1/2-z
-x,1/2-y,1/2-z
x,1/2+y,1/2-z
-x,1/2+y,1/2+z
x,1/2-y,1/2+z
1/2+x,y,1/2+z
1/2-x,-y,1/2+z
1/2+x,-y,1/2-z
1/2-x,y,1/2-z
1/2-x,-y,1/2-z
1/2+x,y,1/2-z
1/2-x,y,1/2+z
1/2+x,-y,1/2+z
1/2+x,1/2+y,z
1/2-x,1/2-y,z
1/2+x,1/2-y,-z
1/2-x,1/2+y,-z
1/2-x,1/2-y,-z
1/2+x,1/2+y,-z
1/2-x,1/2+y,z
1/2+x,1/2-y,z
loop_
_atom_site_type_symbol
_atom_site_label
_atom_site_fract_x
_atom_site_fract_y
_atom_site_fract_z
Si Si1 0.698592 0.179172 0.500000
Si Si2 0.946636 0.824688 0.047895
Si Si3 0.798947 0.326476 0.915537
Si Si4 0.946122 0.175770 0.293620
Si Si5 0.393408 0.671651 0.376117
O O1 0.750000 0.250000 0.500000
O O2 0.676445 0.243632 0.543708
O O3 0.697256 0.000000 0.500000
O O4 0.914648 0.746942 0.082429
O O5 0.000000 0.768532 0.053012
O O6 0.943809 0.000000 0.055531
O O7 0.928214 0.785970 0.000000
O O8 0.789150 0.500000 0.926624
O O9 0.750000 0.250000 0.901621
O O10 0.836692 0.310384 0.877145
O O11 0.928107 0.250000 0.250000
O O12 0.914181 0.240299 0.332280
O O13 0.000000 0.220330 0.303097
O O14 0.940048 0.000000 0.288291
O O15 0.408532 0.500000 0.378232
#
# Coordination Sequence:
#
# PCOD8283926 Si02
#       5
#    16  32  32  32  32
#     4  10  18  30  48  68  93 128 169 212 256 297
#     4   9  19  34  49  70 103 138 171 207 247 297
#     4  10  20  34  50  71 100 133 172 216 258 300
#     4   9  18  34  55  79 105 130 160 203 255 307
#     4  10  21  34  52  76 102 133 171 213 254 304
#
# _framework density 18.085329000000002
#
# number of rings (size 3 to 8) (size 9 to 14) (size 15 to 20)
#    0.000    2.444    0.000    4.333    1.556    4.444 
#    0.000    3.333    0.000    0.667    0.000    4.667 
#    0.000    0.000    0.000    0.000    0.000    0.000 
#
# Total GULP energy -446227.259074 kJ/mol
# GULP energy per Si atom -12395.201641 kJ/mol
# Density = 1.804417 g / cm^3
# Si number density = 18.085329 Si / 1000 Ang^3
#
#
#
# Elastic Constant Matrix: (Units=GPa)
#
#
# Indices 1 2 3 4 5 6 
#
# 1 83.9709 39.5480 74.4248 0.0001 0.0000 0.0000
# 2 39.5480 75.3702 42.5384 0.0002 0.0001 0.0006
# 3 74.4248 42.5384 132.2688 0.0000 0.0000 0.0001
# 4 0.0001 0.0002 0.0000 27.3769 0.0000 -0.0001
# 5 0.0000 0.0001 0.0000 0.0000 28.2078 -0.0001
# 6 0.0000 0.0006 0.0001 -0.0001 -0.0001 23.3754
#
#
#
# Elastic Compliance Matrix: (Units=1/GPa)
#
#
# Indices 1 2 3 4 5 6 
#
# 1 0.026218 -0.006635 -0.012618 0.000000 0.000000 0.000000
# 2 -0.006635 0.017889 -0.002020 0.000000 0.000000 0.000000
# 3 -0.012618 -0.002020 0.015310 0.000000 0.000000 0.000000
# 4 0.000000 0.000000 0.000000 0.036527 0.000000 0.000000
# 5 0.000000 0.000000 0.000000 0.000000 0.035451 0.000000
# 6 0.000000 0.000000 0.000000 0.000000 0.000000 0.042780
#
#
# Mechanical properties :
#
#
# Convention : Reuss Voigt Hill
#
# Bulk Modulus (GPa) = 59.27504 67.18138 63.22821
# Shear Modulus (GPa) = 22.48757 24.79859 23.64308
#
# Velocity S-wave (km/s) = 3.53003 3.70699 3.61959
# Velocity P-wave (km/s) = 7.03287 7.45318 7.24607
#
# Compressibility (1/GPa) = 0.01687051
#
# Stress axis : x y z
#
# Youngs Moduli (GPa) = 38.14244 55.89885 65.31730
#
# Poissons Ratio (x) = 0.37090 0.82418
# Poissons Ratio (y) = 0.25308 0.13193
# Poissons Ratio (z) = 0.48128 0.11291
#
# Static dielectric constant tensor:
#      x y z
#    x 3.372660 0.000000 0.000000 
#    y 0.000000 3.294810 0.000000 
#    z 0.000000 0.000000 3.742400 
# 
# 
# High freq. dielectric constant tensor:
#      x y z
#    x 1.697220 0.000000 0.000000 
#    y 0.000000 1.699150 0.000000 
#    z 0.000000 0.000000 1.684320 
# 
# From -- ./inp_files/5630.got.cif
#   From: 2010.03.12/outbox.cif.g09.slc.cpg/sg69_3_cif.got.tgz:5630.got - 2010.04.10 23:52:46.
