data_PCOD8283615
_publ_section_title
;
Structure prediction by ZEFSAII (Michael W. Deem and Ramdas Pophale) SiO2 
 PCOD8283615
Probable space group: C C C A
;
_chemical_formula_sum "Si O2"
_cell_formula_units_Z 56
_cell_length_a 10.527849
_cell_length_b 15.216403
_cell_length_c 15.531773
_cell_angle_alpha 90.000000
_cell_angle_beta 90.000000
_cell_angle_gamma 90.000000
_cell_volume 2488.127800
_symmetry_space_group_name_H-M "C C C A"
_symmetry_group_IT_number 68
_space_group.IT_coordinate_system_code '2'
_symmetry_cell_setting 'orthorhombic'
loop_
_space_group_symop_operation_xyz
x,y,z
-x,1/2-y,z
x,1/2-y,1/2-z
-x,y,1/2-z
-x,-y,-z
x,1/2+y,-z
-x,1/2+y,1/2+z
x,-y,1/2+z
1/2+x,1/2+y,z
1/2-x,-y,z
1/2+x,-y,1/2-z
1/2-x,1/2+y,1/2-z
1/2-x,1/2-y,-z
1/2+x,y,-z
1/2-x,y,1/2+z
1/2+x,1/2-y,1/2+z
loop_
_atom_site_type_symbol
_atom_site_label
_atom_site_fract_x
_atom_site_fract_y
_atom_site_fract_z
Si Si1 0.359819 0.777389 0.068478
Si Si2 0.126159 0.978344 0.546652
Si Si3 0.359918 0.562025 0.776590
Si Si4 0.248166 0.750000 0.250000
O O1 0.500000 0.750000 0.034872
O O2 0.369786 0.880822 0.082137
O O3 0.332570 0.738828 0.163604
O O4 0.250000 0.750000 0.000000
O O5 0.250000 0.000000 0.486142
O O6 0.143870 0.050395 0.621311
O O7 0.000000 0.000000 0.500000
O O8 0.500000 0.530161 0.750000
O O9 0.250000 0.500000 0.733635
O O10 0.340378 0.664091 0.754275
#
# Coordination Sequence:
#
# PCOD8283615 Si02
#       4
#    16  16  16   8
#     4  12  28  47  78 114 153 204 259 319 395 464
#     4  11  24  48  72 109 152 190 257 316 383 463
#     4  11  26  46  74 107 148 199 254 311 391 451
#     4  12  26  50  74 112 162 200 262 320 384 476
#
# _framework density 22.506881
#
# number of rings (size 3 to 8) (size 9 to 14) (size 15 to 20)
#    0.000    0.571    5.714    2.571    8.000    1.143 
#    0.000    0.000    0.000    0.000    0.000    0.000 
#    0.000    0.000    0.000    0.000    0.000    0.000 
#
# Total GULP energy -346923.053209 kJ/mol
# GULP energy per Si atom -12390.109043 kJ/mol
# Density = 2.245565 g / cm^3
# Si number density = 22.506881 Si / 1000 Ang^3
#
#
#
# Elastic Constant Matrix: (Units=GPa)
#
#
# Indices 1 2 3 4 5 6 
#
# 1 257.2156 68.1175 66.2915 0.0000 0.0000 0.0000
# 2 68.1175 165.4058 40.0608 0.0000 0.0000 0.0000
# 3 66.2915 40.0608 117.5577 0.0000 0.0000 0.0000
# 4 0.0000 0.0000 0.0000 15.9547 0.0000 0.0000
# 5 0.0000 0.0000 0.0000 0.0000 36.3185 0.0000
# 6 0.0000 0.0000 0.0000 0.0000 0.0000 43.3577
#
#
#
# Elastic Compliance Matrix: (Units=1/GPa)
#
#
# Indices 1 2 3 4 5 6 
#
# 1 0.004850 -0.001455 -0.002239 0.000000 0.000000 0.000000
# 2 -0.001455 0.007026 -0.001574 0.000000 0.000000 0.000000
# 3 -0.002239 -0.001574 0.010305 0.000000 0.000000 0.000000
# 4 0.000000 0.000000 0.000000 0.062678 0.000000 0.000000
# 5 0.000000 0.000000 0.000000 0.000000 0.027534 0.000000
# 6 0.000000 0.000000 0.000000 0.000000 0.000000 0.023064
#
#
# Mechanical properties :
#
#
# Convention : Reuss Voigt Hill
#
# Bulk Modulus (GPa) = 85.86909 98.79098 92.33004
# Shear Modulus (GPa) = 33.36096 43.50678 38.43387
#
# Velocity S-wave (km/s) = 3.85418 4.40141 4.13685
# Velocity P-wave (km/s) = 7.61850 8.35577 7.99563
#
# Compressibility (1/GPa) = 0.01164563
#
# Stress axis : x y z
#
# Youngs Moduli (GPa) = 206.17511 142.32545 97.03571
#
# Poissons Ratio (x) = 0.20710 0.21728
# Poissons Ratio (y) = 0.30001 0.15272
# Poissons Ratio (z) = 0.46167 0.22399
#
# Static dielectric constant tensor:
#      x y z
#    x 5.693650 0.000000 0.000000 
#    y 0.000000 3.925650 0.000000 
#    z 0.000000 0.000000 3.896870 
# 
# 
# High freq. dielectric constant tensor:
#      x y z
#    x 1.921630 0.000000 0.000000 
#    y 0.000000 1.901710 0.000000 
#    z 0.000000 0.000000 1.864850 
# 
# From -- ./inp_files/20083.got.cif
#   From: 2010.03.12/outbox.cif.g09.slc.cpg/sg68_11_cif.got.tgz:20083.got - 2010.04.10 23:14:56.
