data_PCOD8283668
_publ_section_title
;
Structure prediction by ZEFSAII (Michael W. Deem and Ramdas Pophale) SiO2 
 PCOD8283668
Probable space group: C C C A
;
_chemical_formula_sum "Si O2"
_cell_formula_units_Z 80
_cell_length_a 15.947668
_cell_length_b 10.848932
_cell_length_c 20.120144
_cell_angle_alpha 90.000000
_cell_angle_beta 90.000000
_cell_angle_gamma 90.000000
_cell_volume 3481.090048
_symmetry_space_group_name_H-M "C C C A"
_symmetry_group_IT_number 68
_space_group.IT_coordinate_system_code '2'
_symmetry_cell_setting 'orthorhombic'
loop_
_space_group_symop_operation_xyz
x,y,z
-x,1/2-y,z
x,1/2-y,1/2-z
-x,y,1/2-z
-x,-y,-z
x,1/2+y,-z
-x,1/2+y,1/2+z
x,-y,1/2+z
1/2+x,1/2+y,z
1/2-x,-y,z
1/2+x,-y,1/2-z
1/2-x,1/2+y,1/2-z
1/2-x,1/2-y,-z
1/2+x,y,-z
1/2-x,y,1/2+z
1/2+x,1/2-y,1/2+z
loop_
_atom_site_type_symbol
_atom_site_label
_atom_site_fract_x
_atom_site_fract_y
_atom_site_fract_z
Si Si1 0.753394 0.239494 0.133032
Si Si2 0.000000 0.044272 0.750000
Si Si3 0.351259 0.108472 0.464391
Si Si4 0.500000 0.250000 0.973776
Si Si5 0.750000 0.000000 0.923555
Si Si6 0.085159 0.588371 0.630495
Si Si7 0.631557 0.750000 0.750000
O O1 0.730036 0.185360 0.060150
O O2 0.745317 0.386198 0.126555
O O3 0.846751 0.192556 0.151824
O O4 0.689061 0.200143 0.190303
O O5 0.075630 0.133469 0.726369
O O6 0.027880 0.951987 0.808130
O O7 0.425283 0.204113 0.479283
O O8 0.330210 0.023862 0.528229
O O9 0.370275 0.030604 0.398941
O O10 0.525598 0.363112 0.927603
#
# Coordination Sequence:
#
# PCOD8283668 Si02
#       7
#    16   8  16   8   8  16   8
#     4  12  26  47  76 106 144 196 253 297 368 444
#     4  11  28  49  74 102 148 193 247 312 370 432
#     4  12  24  47  74 108 151 192 242 303 369 450
#     4  12  28  41  70 117 150 186 234 302 388 432
#     4  12  24  44  76 112 150 188 244 310 370 448
#     4  12  26  48  72 108 146 192 243 308 366 440
#     4  11  28  48  74 105 140 200 250 299 366 448
#
# _framework density 22.981307000000001
#
# number of rings (size 3 to 8) (size 9 to 14) (size 15 to 20)
#    0.000    0.200    6.000    2.400    5.600    3.600 
#    0.000    0.000    0.000    0.000    0.000    0.000 
#    0.000    0.000    0.000    0.000    0.000    0.000 
#
# Total GULP energy -496058.013802 kJ/mol
# GULP energy per Si atom -12401.450345 kJ/mol
# Density = 2.292900 g / cm^3
# Si number density = 22.981307 Si / 1000 Ang^3
#
#
#
# Elastic Constant Matrix: (Units=GPa)
#
#
# Indices 1 2 3 4 5 6 
#
# 1 103.0973 37.1432 48.9665 0.0000 0.0000 0.0000
# 2 37.1432 124.1738 43.8191 0.0000 0.0000 0.0000
# 3 48.9665 43.8191 91.2086 0.0000 0.0000 0.0000
# 4 0.0000 0.0000 0.0000 46.0914 0.0000 0.0000
# 5 0.0000 0.0000 0.0000 0.0000 52.3794 0.0000
# 6 0.0000 0.0000 0.0000 0.0000 0.0000 41.0580
#
#
#
# Elastic Compliance Matrix: (Units=1/GPa)
#
#
# Indices 1 2 3 4 5 6 
#
# 1 0.013331 -0.001761 -0.006311 0.000000 0.000000 0.000000
# 2 -0.001761 0.009930 -0.003825 0.000000 0.000000 0.000000
# 3 -0.006311 -0.003825 0.016190 0.000000 0.000000 0.000000
# 4 0.000000 0.000000 0.000000 0.021696 0.000000 0.000000
# 5 0.000000 0.000000 0.000000 0.000000 0.019091 0.000000
# 6 0.000000 0.000000 0.000000 0.000000 0.000000 0.024356
#
#
# Mechanical properties :
#
#
# Convention : Reuss Voigt Hill
#
# Bulk Modulus (GPa) = 63.87034 64.25970 64.06502
# Shear Modulus (GPa) = 37.42293 40.47581 38.94937
#
# Velocity S-wave (km/s) = 4.03973 4.20128 4.12130
# Velocity P-wave (km/s) = 7.04357 7.18030 7.11226
#
# Compressibility (1/GPa) = 0.01565672
#
# Stress axis : x y z
#
# Youngs Moduli (GPa) = 75.01057 100.70730 61.76654
#
# Poissons Ratio (x) = 0.17730 0.38983
# Poissons Ratio (y) = 0.13206 0.23628
# Poissons Ratio (z) = 0.47342 0.38524
#
# Static dielectric constant tensor:
#      x y z
#    x 6.422840 0.000000 0.000000 
#    y 0.000000 4.219640 0.000000 
#    z 0.000000 0.000000 3.907620 
# 
# 
# High freq. dielectric constant tensor:
#      x y z
#    x 1.910770 0.000000 0.000000 
#    y 0.000000 1.919760 0.000000 
#    z 0.000000 0.000000 1.902820 
# 
# From -- ./inp_files/39402.got.cif
#   From: 2010.03.12/outbox.cif.g09.slc.cpg/sg68_20_cif.got.tgz:39402.got - 2010.04.10 23:14:56.
