data_PCOD8283267
_publ_section_title
;
Structure prediction by ZEFSAII (Michael W. Deem and Ramdas Pophale) SiO2 
 PCOD8283267
Probable space group: C C C A
;
_chemical_formula_sum "Si O2"
_cell_formula_units_Z 48
_cell_length_a 11.020808
_cell_length_b 7.332949
_cell_length_c 21.462158
_cell_angle_alpha 90.000000
_cell_angle_beta 90.000000
_cell_angle_gamma 90.000000
_cell_volume 1734.464792
_symmetry_space_group_name_H-M "C C C A"
_symmetry_group_IT_number 68
_space_group.IT_coordinate_system_code '2'
_symmetry_cell_setting 'orthorhombic'
loop_
_space_group_symop_operation_xyz
x,y,z
-x,1/2-y,z
x,1/2-y,1/2-z
-x,y,1/2-z
-x,-y,-z
x,1/2+y,-z
-x,1/2+y,1/2+z
x,-y,1/2+z
1/2+x,1/2+y,z
1/2-x,-y,z
1/2+x,-y,1/2-z
1/2-x,1/2+y,1/2-z
1/2-x,1/2-y,-z
1/2+x,y,-z
1/2-x,y,1/2+z
1/2+x,1/2-y,1/2+z
loop_
_atom_site_type_symbol
_atom_site_label
_atom_site_fract_x
_atom_site_fract_y
_atom_site_fract_z
Si Si1 0.653796 0.650896 0.313679
Si Si2 0.499366 0.951278 0.088178
Si Si3 0.696550 0.751854 0.932336
O O1 0.631344 0.750000 0.250000
O O2 0.750000 0.500000 0.295509
O O3 0.520654 0.576184 0.336693
O O4 0.703747 0.760341 0.375634
O O5 0.500000 0.750000 0.053619
O O6 0.378944 0.061643 0.074089
O O7 0.618258 0.066578 0.069098
O O8 0.750000 0.750000 0.000000
#
# Coordination Sequence:
#
# PCOD8283267 Si02
#       3
#    16  16  16
#     4  10  24  48  74 112 160 213 272 337 413 491
#     4  10  24  48  77 121 152 211 276 336 410 494
#     4  10  24  51  79 112 168 214 268 346 415 493
#
# _framework density 27.674242
#
# number of rings (size 3 to 8) (size 9 to 14) (size 15 to 20)
#    0.000    2.000    0.000    0.000    4.667    3.333 
#   30.000    1.667    0.000    0.000    8.667    0.000 
#    0.000    0.000    0.000    0.000    0.000    0.000 
#
# Total GULP energy -297343.568216 kJ/mol
# GULP energy per Si atom -12389.315342 kJ/mol
# Density = 2.761125 g / cm^3
# Si number density = 27.674242 Si / 1000 Ang^3
#
#
#
# Elastic Constant Matrix: (Units=GPa)
#
#
# Indices 1 2 3 4 5 6 
#
# 1 146.1440 45.1887 109.4216 0.0000 0.0000 0.0000
# 2 45.1887 209.4850 94.8791 0.0000 0.0000 0.0000
# 3 109.4216 94.8791 289.1273 0.0000 0.0000 0.0000
# 4 0.0000 0.0000 0.0000 61.9952 0.0000 0.0000
# 5 0.0000 0.0000 0.0000 0.0000 -31.9628 0.0000
# 6 0.0000 0.0000 0.0000 0.0000 0.0000 22.9030
#
#
#
# Elastic Compliance Matrix: (Units=1/GPa)
#
#
# Indices 1 2 3 4 5 6 
#
# 1 0.009592 -0.000499 -0.003466 0.000000 0.000000 0.000000
# 2 -0.000499 0.005633 -0.001660 0.000000 0.000000 0.000000
# 3 -0.003466 -0.001660 0.005315 0.000000 0.000000 0.000000
# 4 0.000000 0.000000 0.000000 0.016130 0.000000 0.000000
# 5 0.000000 0.000000 0.000000 0.000000 -0.031286 0.000000
# 6 0.000000 0.000000 0.000000 0.000000 0.000000 0.043662
#
#
# Mechanical properties :
#
#
# Convention : Reuss Voigt Hill
#
# Bulk Modulus (GPa) = 107.64214 127.08165 117.36190
# Shear Modulus (GPa) = 78.87189 36.93819 57.90504
#
# Velocity S-wave (km/s) = 5.34434 3.65739 4.57922
# Velocity P-wave (km/s) = 8.77857 7.99097 8.39401
#
# Compressibility (1/GPa) = 0.00929004
#
# Stress axis : x y z
#
# Youngs Moduli (GPa) = 104.24987 177.52732 188.14043
#
# Poissons Ratio (x) = 0.08862 0.65218
# Poissons Ratio (y) = 0.05204 0.31223
# Poissons Ratio (z) = 0.36138 0.29462
#
# Static dielectric constant tensor:
#      x y z
#    x 5.851240 0.000000 0.000000 
#    y 0.000000 5.479700 0.000000 
#    z 0.000000 0.000000 5.047570 
# 
# 
# High freq. dielectric constant tensor:
#      x y z
#    x 2.157710 0.000000 0.000000 
#    y 0.000000 2.142470 0.000000 
#    z 0.000000 0.000000 2.118570 
# 
# From -- ./inp_files/30229.got.cif
#   From: 2010.03.12/outbox.cif.g09.slc.cpg/sg68_16_cif.got.tgz:30229.got - 2010.04.10 23:14:56.
