data_PCOD8283182
_publ_section_title
;
Structure prediction by ZEFSAII (Michael W. Deem and Ramdas Pophale) SiO2 
 PCOD8283182
Probable space group: C C C A
;
_chemical_formula_sum "Si O2"
_cell_formula_units_Z 92
_cell_length_a 29.323200
_cell_length_b 8.999110
_cell_length_c 17.830503
_cell_angle_alpha 90.000000
_cell_angle_beta 90.000000
_cell_angle_gamma 90.000000
_cell_volume 4705.161316
_symmetry_space_group_name_H-M "C C C A"
_symmetry_group_IT_number 68
_space_group.IT_coordinate_system_code '2'
_symmetry_cell_setting 'orthorhombic'
loop_
_space_group_symop_operation_xyz
x,y,z
-x,1/2-y,z
x,1/2-y,1/2-z
-x,y,1/2-z
-x,-y,-z
x,1/2+y,-z
-x,1/2+y,1/2+z
x,-y,1/2+z
1/2+x,1/2+y,z
1/2-x,-y,z
1/2+x,-y,1/2-z
1/2-x,1/2+y,1/2-z
1/2-x,1/2-y,-z
1/2+x,y,-z
1/2-x,y,1/2+z
1/2+x,1/2-y,1/2+z
loop_
_atom_site_type_symbol
_atom_site_label
_atom_site_fract_x
_atom_site_fract_y
_atom_site_fract_z
Si Si1 0.218921 0.134710 0.042676
Si Si2 0.861485 0.036324 0.562168
Si Si3 0.500000 0.750000 0.250000
Si Si4 0.413278 0.159245 0.057162
Si Si5 0.154959 0.281537 0.162652
Si Si6 0.563987 0.612948 0.135695
Si Si7 0.500000 0.750000 0.015548
O O1 0.194570 0.202325 0.115453
O O2 0.250000 0.000000 0.072125
O O3 0.250000 0.250000 0.000000
O O4 0.183426 0.083111 0.980723
O O5 0.893327 0.179191 0.578386
O O6 0.885886 0.912205 0.511548
O O7 0.846843 0.957588 0.640878
O O8 0.531456 0.633782 0.206321
O O9 0.412891 0.050559 0.129926
O O10 0.466622 0.158266 0.037448
O O11 0.164876 0.250000 0.250000
O O12 0.105192 0.227095 0.139271
O O13 0.533091 0.643757 0.063136
#
# Coordination Sequence:
#
# PCOD8283182 Si02
#       7
#    16  16   4  16  16  16   8
#     4  12  23  43  75  98 127 168 224 278 334 419
#     4  12  22  42  68  99 129 175 220 275 340 403
#     4  10  24  40  64  86 140 194 238 262 358 396
#     4  12  21  36  67  96 131 168 233 280 324 390
#     4  12  25  46  68  97 138 177 216 278 354 401
#     4  11  22  39  65  91 132 183 223 277 333 405
#     4  11  20  33  62  97 128 161 230 284 325 374
#
# _framework density 19.552994999999999
#
# number of rings (size 3 to 8) (size 9 to 14) (size 15 to 20)
#    0.000    0.348    9.565    0.522    0.000    0.000 
#    3.130    0.870    0.000    0.000    0.000    0.000 
#    0.000    0.000    0.000    0.000    0.000    0.000 
#
# Total GULP energy -570137.231027 kJ/mol
# GULP energy per Si atom -12394.287631 kJ/mol
# Density = 1.950849 g / cm^3
# Si number density = 19.552995 Si / 1000 Ang^3
#
#
#
# Elastic Constant Matrix: (Units=GPa)
#
#
# Indices 1 2 3 4 5 6 
#
# 1 119.5217 39.1231 49.9598 0.0000 0.0000 0.0000
# 2 39.1231 126.3644 68.8934 0.0000 0.0000 0.0000
# 3 49.9598 68.8934 123.1840 0.0000 0.0000 0.0000
# 4 0.0000 0.0000 0.0000 25.0538 0.0000 0.0000
# 5 0.0000 0.0000 0.0000 0.0000 43.8054 0.0000
# 6 0.0000 0.0000 0.0000 0.0000 0.0000 43.1806
#
#
#
# Elastic Compliance Matrix: (Units=1/GPa)
#
#
# Indices 1 2 3 4 5 6 
#
# 1 0.010221 -0.001301 -0.003418 0.000000 0.000000 0.000000
# 2 -0.001301 0.011551 -0.005932 0.000000 0.000000 0.000000
# 3 -0.003418 -0.005932 0.012822 0.000000 0.000000 0.000000
# 4 0.000000 0.000000 0.000000 0.039914 0.000000 0.000000
# 5 0.000000 0.000000 0.000000 0.000000 0.022828 0.000000
# 6 0.000000 0.000000 0.000000 0.000000 0.000000 0.023159
#
#
# Mechanical properties :
#
#
# Convention : Reuss Voigt Hill
#
# Bulk Modulus (GPa) = 75.23670 76.11363 75.67517
# Shear Modulus (GPa) = 34.19332 36.48088 35.33710
#
# Velocity S-wave (km/s) = 4.18634 4.32411 4.25579
# Velocity P-wave (km/s) = 7.86951 7.99637 7.93319
#
# Compressibility (1/GPa) = 0.01329139
#
# Stress axis : x y z
#
# Youngs Moduli (GPa) = 97.83592 86.57456 77.99219
#
# Poissons Ratio (x) = 0.11265 0.26655
# Poissons Ratio (y) = 0.12731 0.46267
# Poissons Ratio (z) = 0.33437 0.51358
#
# Static dielectric constant tensor:
#      x y z
#    x 3.796070 0.000000 0.000000 
#    y 0.000000 3.695300 0.000000 
#    z 0.000000 0.000000 3.080420 
# 
# 
# High freq. dielectric constant tensor:
#      x y z
#    x 1.782370 0.000000 0.000000 
#    y 0.000000 1.770030 0.000000 
#    z 0.000000 0.000000 1.733000 
# 
# From -- ./inp_files/41265.got.cif
#   From: 2010.03.12/outbox.cif.g09.slc.cpg/sg68_21_cif.got.tgz:41265.got - 2010.04.10 23:14:56.
