data_PCOD8283108
_publ_section_title
;
Structure prediction by ZEFSAII (Michael W. Deem and Ramdas Pophale) SiO2 
 PCOD8283108
Probable space group: C C C A
;
_chemical_formula_sum "Si O2"
_cell_formula_units_Z 64
_cell_length_a 7.594883
_cell_length_b 11.411692
_cell_length_c 32.201122
_cell_angle_alpha 90.000000
_cell_angle_beta 90.000000
_cell_angle_gamma 90.000000
_cell_volume 2790.886236
_symmetry_space_group_name_H-M "C C C A"
_symmetry_group_IT_number 68
_space_group.IT_coordinate_system_code '2'
_symmetry_cell_setting 'orthorhombic'
loop_
_space_group_symop_operation_xyz
x,y,z
-x,1/2-y,z
x,1/2-y,1/2-z
-x,y,1/2-z
-x,-y,-z
x,1/2+y,-z
-x,1/2+y,1/2+z
x,-y,1/2+z
1/2+x,1/2+y,z
1/2-x,-y,z
1/2+x,-y,1/2-z
1/2-x,1/2+y,1/2-z
1/2-x,1/2-y,-z
1/2+x,y,-z
1/2-x,y,1/2+z
1/2+x,1/2-y,1/2+z
loop_
_atom_site_type_symbol
_atom_site_label
_atom_site_fract_x
_atom_site_fract_y
_atom_site_fract_z
Si Si1 0.306554 0.249620 0.134309
Si Si2 0.750000 0.000000 0.164291
Si Si3 0.500000 0.750000 0.993872
Si Si4 0.410000 0.414881 0.290976
Si Si5 0.299761 0.632454 0.443091
O O1 0.500000 0.250000 0.113137
O O2 0.231952 0.381244 0.137488
O O3 0.331489 0.187350 0.179428
O O4 0.173906 0.179068 0.104118
O O5 0.566404 0.008437 0.188869
O O6 0.467217 0.858231 0.026344
O O7 0.340918 0.717151 0.964513
O O8 0.500000 0.358328 0.250000
O O9 0.250000 0.500000 0.278545
O O10 0.250000 0.500000 0.438737
#
# Coordination Sequence:
#
# PCOD8283108 Si02
#       5
#    16   8   8  16  16
#     4  10  23  42  68  96 136 176 222 276 337 397
#     4  10  24  44  66  98 134 184 222 282 334 402
#     4  10  24  40  64 100 131 175 220 272 338 404
#     4  11  23  44  69  99 134 175 226 282 338 400
#     4  11  22  43  66  97 133 174 220 276 335 400
#
# _framework density 22.931785000000001
#
# number of rings (size 3 to 8) (size 9 to 14) (size 15 to 20)
#    0.000    1.500    2.500    1.500    0.000   11.500 
#    9.000    1.250    0.000    0.000    0.000    0.000 
#    0.000    0.000    0.000    0.000    0.000    0.000 
#
# Total GULP energy -396423.607674 kJ/mol
# GULP energy per Si atom -12388.237740 kJ/mol
# Density = 2.287959 g / cm^3
# Si number density = 22.931785 Si / 1000 Ang^3
#
#
#
# Elastic Constant Matrix: (Units=GPa)
#
#
# Indices 1 2 3 4 5 6 
#
# 1 59.5336 16.7105 13.3938 0.0000 0.0000 0.0000
# 2 16.7105 163.3733 60.2806 0.0000 0.0000 0.0000
# 3 13.3938 60.2806 139.9519 0.0000 0.0000 0.0000
# 4 0.0000 0.0000 0.0000 32.9237 0.0000 0.0000
# 5 0.0000 0.0000 0.0000 0.0000 8.8042 0.0000
# 6 0.0000 0.0000 0.0000 0.0000 0.0000 28.1446
#
#
#
# Elastic Compliance Matrix: (Units=1/GPa)
#
#
# Indices 1 2 3 4 5 6 
#
# 1 0.017428 -0.001388 -0.001070 0.000000 0.000000 0.000000
# 2 -0.001388 0.007388 -0.003049 0.000000 0.000000 0.000000
# 3 -0.001070 -0.003049 0.008561 0.000000 0.000000 0.000000
# 4 0.000000 0.000000 0.000000 0.030373 0.000000 0.000000
# 5 0.000000 0.000000 0.000000 0.000000 0.113583 0.000000
# 6 0.000000 0.000000 0.000000 0.000000 0.000000 0.035531
#
#
# Mechanical properties :
#
#
# Convention : Reuss Voigt Hill
#
# Bulk Modulus (GPa) = 44.71826 60.40319 52.56072
# Shear Modulus (GPa) = 21.61395 32.13941 26.87668
#
# Velocity S-wave (km/s) = 3.07340 3.74775 3.42720
# Velocity P-wave (km/s) = 5.66897 6.71752 6.21540
#
# Compressibility (1/GPa) = 0.02236223
#
# Stress axis : x y z
#
# Youngs Moduli (GPa) = 57.38054 135.35384 116.80635
#
# Poissons Ratio (x) = 0.18783 0.12500
# Poissons Ratio (y) = 0.07963 0.35619
# Poissons Ratio (z) = 0.06141 0.41275
#
# Static dielectric constant tensor:
#      x y z
#    x 3.898900 0.000000 0.000000 
#    y 0.000000 4.175710 0.000000 
#    z 0.000000 0.000000 4.352180 
# 
# 
# High freq. dielectric constant tensor:
#      x y z
#    x 1.901640 0.000000 0.000000 
#    y 0.000000 1.899520 0.000000 
#    z 0.000000 0.000000 1.917990 
# 
# From -- ./inp_files/53827.got.cif
#   From: 2010.03.12/outbox.cif.g09.slc.cpg/sg68_27_cif.got.tgz:53827.got - 2010.04.10 23:14:56.
