data_PCOD8284972
_publ_section_title
;
Structure prediction by ZEFSAII (Michael W. Deem and Ramdas Pophale) SiO2 
 PCOD8284972
Probable space group: F M M M
;
_chemical_formula_sum "Si O2"
_cell_formula_units_Z 104
_cell_length_a 24.109905
_cell_length_b 9.260309
_cell_length_c 25.662155
_cell_angle_alpha 90.000000
_cell_angle_beta 90.000000
_cell_angle_gamma 90.000000
_cell_volume 5729.465405
_symmetry_space_group_name_H-M "F M M M"
_symmetry_group_IT_number 69
_symmetry_cell_setting 'orthorhombic'
loop_
_space_group_symop_operation_xyz
x,y,z
-x,-y,z
x,-y,-z
-x,y,-z
-x,-y,-z
x,y,-z
-x,y,z
x,-y,z
x,1/2+y,1/2+z
-x,1/2-y,1/2+z
x,1/2-y,1/2-z
-x,1/2+y,1/2-z
-x,1/2-y,1/2-z
x,1/2+y,1/2-z
-x,1/2+y,1/2+z
x,1/2-y,1/2+z
1/2+x,y,1/2+z
1/2-x,-y,1/2+z
1/2+x,-y,1/2-z
1/2-x,y,1/2-z
1/2-x,-y,1/2-z
1/2+x,y,1/2-z
1/2-x,y,1/2+z
1/2+x,-y,1/2+z
1/2+x,1/2+y,z
1/2-x,1/2-y,z
1/2+x,1/2-y,-z
1/2-x,1/2+y,-z
1/2-x,1/2-y,-z
1/2+x,1/2+y,-z
1/2-x,1/2+y,z
1/2+x,1/2-y,z
loop_
_atom_site_type_symbol
_atom_site_label
_atom_site_fract_x
_atom_site_fract_y
_atom_site_fract_z
Si Si1 0.250000 0.750000 0.750000
Si Si2 0.117559 0.170126 0.401154
Si Si3 0.355514 0.338724 0.797713
Si Si4 0.000000 0.829015 0.442305
Si Si5 0.191928 0.168918 0.500000
O O1 0.289387 0.650737 0.786377
O O2 0.137386 0.255485 0.351186
O O3 0.054815 0.221710 0.412137
O O4 0.156487 0.213122 0.449457
O O5 0.120601 0.000000 0.389924
O O6 0.380584 0.500000 0.801102
O O7 0.384741 0.250000 0.750000
O O8 0.000000 0.760187 0.500000
O O9 0.000000 0.000000 0.447969
O O10 0.250000 0.250000 0.500000
O O11 0.204510 0.000000 0.500000
#
# Coordination Sequence:
#
# PCOD8284972 Si02
#       5
#     8  32  32  16  16
#     4   8  22  36  58  76 110 152 198 224 278 340
#     4  10  20  36  59  85 113 147 192 238 283 334
#     4  10  21  36  56  82 111 145 187 231 281 335
#     4   9  16  34  62  85 108 147 198 240 277 330
#     4  10  22  35  51  81 117 152 185 228 282 341
#
# _framework density 18.151779999999999
#
# number of rings (size 3 to 8) (size 9 to 14) (size 15 to 20)
#    0.923    1.385    1.538    1.385    2.154    1.231 
#    0.000    1.538    0.000    0.923    0.000    0.000 
#    0.000    0.000    0.000    0.000    0.000    0.000 
#
# Total GULP energy -322217.404359 kJ/mol
# GULP energy per Si atom -12392.977091 kJ/mol
# Density = 1.811047 g / cm^3
# Si number density = 18.151780 Si / 1000 Ang^3
#
#
#
# Elastic Constant Matrix: (Units=GPa)
#
#
# Indices 1 2 3 4 5 6 
#
# 1 128.1547 37.4264 65.5094 0.0000 0.0000 0.0000
# 2 37.4264 84.2063 71.9098 0.0000 0.0000 0.0001
# 3 65.5094 71.9098 179.6057 0.0000 0.0000 0.0000
# 4 0.0000 0.0000 0.0000 21.1066 0.0000 0.0000
# 5 0.0000 0.0000 0.0000 0.0000 9.9531 0.0000
# 6 0.0000 0.0001 0.0000 0.0000 0.0000 1.4308
#
#
#
# Elastic Compliance Matrix: (Units=1/GPa)
#
#
# Indices 1 2 3 4 5 6 
#
# 1 0.009804 -0.001981 -0.002783 0.000000 0.000000 0.000000
# 2 -0.001981 0.018446 -0.006663 0.000000 0.000000 -0.000001
# 3 -0.002783 -0.006663 0.009250 0.000000 0.000000 0.000000
# 4 0.000000 0.000000 0.000000 0.047379 0.000000 0.000000
# 5 0.000000 0.000000 0.000000 0.000000 0.100471 0.000001
# 6 0.000000 -0.000001 0.000000 0.000000 0.000001 0.698925
#
#
# Mechanical properties :
#
#
# Convention : Reuss Voigt Hill
#
# Bulk Modulus (GPa) = 68.27273 82.40644 75.33959
# Shear Modulus (GPa) = 5.48239 20.97283 13.22761
#
# Velocity S-wave (km/s) = 1.73979 3.40283 2.70241
# Velocity P-wave (km/s) = 6.45985 7.80616 7.16469
#
# Compressibility (1/GPa) = 0.01464714
#
# Stress axis : x y z
#
# Youngs Moduli (GPa) = 101.99798 54.21262 108.10448
#
# Poissons Ratio (x) = 0.10740 0.30083
# Poissons Ratio (y) = 0.20207 0.72027
# Poissons Ratio (z) = 0.28383 0.36120
#
# Static dielectric constant tensor:
#      x y z
#    x 3.343320 0.000000 0.000000 
#    y 0.000000 3.075540 0.000000 
#    z 0.000000 0.000000 3.343600 
# 
# 
# High freq. dielectric constant tensor:
#      x y z
#    x 1.691810 0.000000 0.000000 
#    y 0.000000 1.682450 0.000000 
#    z 0.000000 0.000000 1.712460 
# 
# From -- ./inp_files/46868.got.cif
#   From: 2010.03.12/outbox.cif.g09.slc.cpg/sg69_24_cif.got.tgz:46868.got - 2010.04.10 23:52:46.
