data_PCOD8284547
_publ_section_title
;
Structure prediction by ZEFSAII (Michael W. Deem and Ramdas Pophale) SiO2 
 PCOD8284547
Probable space group: F M M M
;
_chemical_formula_sum "Si O2"
_cell_formula_units_Z 112
_cell_length_a 18.240758
_cell_length_b 16.778895
_cell_length_c 17.183023
_cell_angle_alpha 90.000000
_cell_angle_beta 90.000000
_cell_angle_gamma 90.000000
_cell_volume 5259.031950
_symmetry_space_group_name_H-M "F M M M"
_symmetry_group_IT_number 69
_symmetry_cell_setting 'orthorhombic'
loop_
_space_group_symop_operation_xyz
x,y,z
-x,-y,z
x,-y,-z
-x,y,-z
-x,-y,-z
x,y,-z
-x,y,z
x,-y,z
x,1/2+y,1/2+z
-x,1/2-y,1/2+z
x,1/2-y,1/2-z
-x,1/2+y,1/2-z
-x,1/2-y,1/2-z
x,1/2+y,1/2-z
-x,1/2+y,1/2+z
x,1/2-y,1/2+z
1/2+x,y,1/2+z
1/2-x,-y,1/2+z
1/2+x,-y,1/2-z
1/2-x,y,1/2-z
1/2-x,-y,1/2-z
1/2+x,y,1/2-z
1/2-x,y,1/2+z
1/2+x,-y,1/2+z
1/2+x,1/2+y,z
1/2-x,1/2-y,z
1/2+x,1/2-y,-z
1/2-x,1/2+y,-z
1/2-x,1/2-y,-z
1/2+x,1/2+y,-z
1/2-x,1/2+y,z
1/2+x,1/2-y,z
loop_
_atom_site_type_symbol
_atom_site_label
_atom_site_fract_x
_atom_site_fract_y
_atom_site_fract_z
Si Si1 0.323817 0.092781 0.139707
Si Si2 0.665652 0.905680 0.409245
Si Si3 0.083582 0.659017 0.272989
Si Si4 0.918689 0.404553 0.000000
O O1 0.242200 0.126747 0.127189
O O2 0.357559 0.107924 0.224304
O O3 0.378133 0.130317 0.075708
O O4 0.317711 0.000000 0.123776
O O5 0.661244 0.883112 0.500000
O O6 0.601749 0.858276 0.363416
O O7 0.655330 0.000000 0.397383
O O8 0.094838 0.750000 0.250000
O O9 0.000000 0.631961 0.255925
O O10 0.920495 0.500000 0.000000
O O11 0.000000 0.368840 0.000000
#
# Coordination Sequence:
#
# PCOD8284547 Si02
#       4
#    32  32  32  16
#     4  10  19  36  61  90 119 149 194 248 302 358
#     4  10  21  40  66  93 121 155 199 253 307 361
#     4  11  25  42  57  83 123 164 206 250 299 356
#     4   9  16  28  52  85 117 147 182 231 293 353
#
# _framework density 21.296695
#
# number of rings (size 3 to 8) (size 9 to 14) (size 15 to 20)
#    0.000    1.857    1.429    2.571    0.000    8.571 
#    2.571    2.857    0.000    0.000    0.000    0.000 
#    0.000    0.000    0.000    0.000    0.000    0.000 
#
# Total GULP energy -347193.847801 kJ/mol
# GULP energy per Si atom -12399.780279 kJ/mol
# Density = 2.124822 g / cm^3
# Si number density = 21.296695 Si / 1000 Ang^3
#
#
#
# Elastic Constant Matrix: (Units=GPa)
#
#
# Indices 1 2 3 4 5 6 
#
# 1 94.6276 31.8890 56.3795 0.0000 0.0000 0.0000
# 2 31.8890 34.3311 26.5247 0.0000 0.0000 0.0000
# 3 56.3795 26.5247 139.7685 0.0000 0.0000 0.0000
# 4 0.0000 0.0000 0.0000 21.6726 0.0000 0.0000
# 5 0.0000 0.0000 0.0000 0.0000 45.2143 0.0000
# 6 0.0000 0.0000 0.0000 0.0000 0.0000 -4.0794
#
#
#
# Elastic Compliance Matrix: (Units=1/GPa)
#
#
# Indices 1 2 3 4 5 6 
#
# 1 0.017680 -0.012787 -0.004705 0.000000 0.000000 0.000000
# 2 -0.012787 0.043381 -0.003075 0.000000 0.000000 0.000000
# 3 -0.004705 -0.003075 0.009636 0.000000 0.000000 0.000000
# 4 0.000000 0.000000 0.000000 0.046141 0.000000 0.000000
# 5 0.000000 0.000000 0.000000 0.000000 0.022117 0.000000
# 6 0.000000 0.000000 0.000000 0.000000 0.000000 -0.245133
#
#
# Mechanical properties :
#
#
# Convention : Reuss Voigt Hill
#
# Bulk Modulus (GPa) = 33.82542 55.36816 44.59679
# Shear Modulus (GPa) = -90.59858 22.82376 -33.88741
#
# Velocity S-wave (km/s) = -6.52943 3.27724 -3.99332
# Velocity P-wave (km/s) = 6.39744 6.35416 0.52531
#
# Compressibility (1/GPa) = 0.02956357
#
# Stress axis : x y z
#
# Youngs Moduli (GPa) = 56.55994 23.05140 103.77634
#
# Poissons Ratio (x) = 0.29477 0.48828
# Poissons Ratio (y) = 0.72326 0.31907
# Poissons Ratio (z) = 0.26612 0.07087
#
# Static dielectric constant tensor:
#      x y z
#    x 4.040420 0.000000 0.000000 
#    y 0.000000 3.332190 0.000000 
#    z 0.000000 0.000000 3.971470 
# 
# 
# High freq. dielectric constant tensor:
#      x y z
#    x 1.845550 0.000000 0.000000 
#    y 0.000000 1.792950 0.000000 
#    z 0.000000 0.000000 1.846640 
# 
# From -- ./inp_files/22329.got.cif
#   From: 2010.03.12/outbox.cif.g09.slc.cpg/sg69_12_cif.got.tgz:22329.got - 2010.04.10 23:52:46.
