data_PCOD8284785
_publ_section_title
;
Structure prediction by ZEFSAII (Michael W. Deem and Ramdas Pophale) SiO2 
 PCOD8284785
Probable space group: F M M M
;
_chemical_formula_sum "Si O2"
_cell_formula_units_Z 160
_cell_length_a 14.765141
_cell_length_b 17.839642
_cell_length_c 28.326552
_cell_angle_alpha 90.000000
_cell_angle_beta 90.000000
_cell_angle_gamma 90.000000
_cell_volume 7461.350600
_symmetry_space_group_name_H-M "F M M M"
_symmetry_group_IT_number 69
_symmetry_cell_setting 'orthorhombic'
loop_
_space_group_symop_operation_xyz
x,y,z
-x,-y,z
x,-y,-z
-x,y,-z
-x,-y,-z
x,y,-z
-x,y,z
x,-y,z
x,1/2+y,1/2+z
-x,1/2-y,1/2+z
x,1/2-y,1/2-z
-x,1/2+y,1/2-z
-x,1/2-y,1/2-z
x,1/2+y,1/2-z
-x,1/2+y,1/2+z
x,1/2-y,1/2+z
1/2+x,y,1/2+z
1/2-x,-y,1/2+z
1/2+x,-y,1/2-z
1/2-x,y,1/2-z
1/2-x,-y,1/2-z
1/2+x,y,1/2-z
1/2-x,y,1/2+z
1/2+x,-y,1/2+z
1/2+x,1/2+y,z
1/2-x,1/2-y,z
1/2+x,1/2-y,-z
1/2-x,1/2+y,-z
1/2-x,1/2-y,-z
1/2+x,1/2+y,-z
1/2-x,1/2+y,z
1/2+x,1/2-y,z
loop_
_atom_site_type_symbol
_atom_site_label
_atom_site_fract_x
_atom_site_fract_y
_atom_site_fract_z
Si Si1 0.893475 0.851549 0.877260
Si Si2 0.748701 0.084815 0.553429
Si Si3 0.098847 0.419114 0.816660
Si Si4 0.893769 0.819815 0.601123
Si Si5 0.158132 0.585521 0.720870
O O1 0.837548 0.903578 0.912685
O O2 0.874216 0.767541 0.894220
O O3 0.857058 0.861014 0.823757
O O4 0.000000 0.871948 0.879355
O O5 0.714548 0.096295 0.500000
O O6 0.832074 0.142558 0.560972
O O7 0.784557 0.000000 0.561426
O O8 0.152010 0.500000 0.819362
O O9 0.144310 0.357230 0.850086
O O10 0.086278 0.394909 0.762007
O O11 0.000000 0.430657 0.838216
O O12 0.000000 0.833504 0.590368
O O13 0.149030 0.500000 0.703043
O O14 0.250000 0.601141 0.750000
#
# Coordination Sequence:
#
# PCOD8284785 Si02
#       5
#    32  32  32  32  32
#     4  11  24  41  63  92 128 169 208 252 311 377
#     4  11  25  44  66  91 119 156 206 263 319 376
#     4   9  17  31  53  80 112 151 193 238 288 344
#     4  10  22  40  63  93 127 162 202 252 314 379
#     4  10  20  34  55  84 119 162 210 253 293 344
#
# _framework density 21.443839000000001
#
# number of rings (size 3 to 8) (size 9 to 14) (size 15 to 20)
#    0.000    1.800    0.000    3.600    0.000    8.400 
#    0.000    8.000    0.000    0.000    0.000    0.000 
#    0.000    0.000    0.000    0.000    0.000    0.000 
#
# Total GULP energy -495562.025954 kJ/mol
# GULP energy per Si atom -12389.050649 kJ/mol
# Density = 2.139503 g / cm^3
# Si number density = 21.443839 Si / 1000 Ang^3
#
#
#
# Elastic Constant Matrix: (Units=GPa)
#
#
# Indices 1 2 3 4 5 6 
#
# 1 91.3310 33.1560 34.6147 0.0000 0.0000 0.0000
# 2 33.1560 89.1341 40.4758 0.0000 0.0000 0.0000
# 3 34.6147 40.4758 124.9268 0.0000 0.0000 0.0000
# 4 0.0000 0.0000 0.0000 30.6236 0.0000 0.0000
# 5 0.0000 0.0000 0.0000 0.0000 28.8634 0.0000
# 6 0.0000 0.0000 0.0000 0.0000 0.0000 24.8942
#
#
#
# Elastic Compliance Matrix: (Units=1/GPa)
#
#
# Indices 1 2 3 4 5 6 
#
# 1 0.013261 -0.003827 -0.002434 0.000000 0.000000 0.000000
# 2 -0.003827 0.014259 -0.003559 0.000000 0.000000 0.000000
# 3 -0.002434 -0.003559 0.009832 0.000000 0.000000 0.000000
# 4 0.000000 0.000000 0.000000 0.032655 0.000000 0.000000
# 5 0.000000 0.000000 0.000000 0.000000 0.034646 0.000000
# 6 0.000000 0.000000 0.000000 0.000000 0.000000 0.040170
#
#
# Mechanical properties :
#
#
# Convention : Reuss Voigt Hill
#
# Bulk Modulus (GPa) = 56.46396 57.98721 57.22558
# Shear Modulus (GPa) = 29.34803 30.01928 29.68365
#
# Velocity S-wave (km/s) = 3.70347 3.74559 3.72459
# Velocity P-wave (km/s) = 6.68400 6.76801 6.72614
#
# Compressibility (1/GPa) = 0.01771041
#
# Stress axis : x y z
#
# Youngs Moduli (GPa) = 75.40738 70.13058 101.70437
#
# Poissons Ratio (x) = 0.26842 0.24758
# Poissons Ratio (y) = 0.28862 0.36200
# Poissons Ratio (z) = 0.18357 0.24962
#
# Static dielectric constant tensor:
#      x y z
#    x 5.160240 0.000000 0.000000 
#    y 0.000000 3.892920 0.000000 
#    z 0.000000 0.000000 3.958960 
# 
# 
# High freq. dielectric constant tensor:
#      x y z
#    x 1.847010 0.000000 0.000000 
#    y 0.000000 1.834620 0.000000 
#    z 0.000000 0.000000 1.838450 
# 
# From -- ./inp_files/46310.got.cif
#   From: 2010.03.12/outbox.cif.g09.slc.cpg/sg69_24_cif.got.tgz:46310.got - 2010.04.10 23:52:46.
