data_PCOD8284870
_publ_section_title
;
Structure prediction by ZEFSAII (Michael W. Deem and Ramdas Pophale) SiO2 
 PCOD8284870
Probable space group: F M M M
;
_chemical_formula_sum "Si O2"
_cell_formula_units_Z 176
_cell_length_a 23.773301
_cell_length_b 30.499844
_cell_length_c 13.289822
_cell_angle_alpha 90.000000
_cell_angle_beta 90.000000
_cell_angle_gamma 90.000000
_cell_volume 9636.210341
_symmetry_space_group_name_H-M "F M M M"
_symmetry_group_IT_number 69
_symmetry_cell_setting 'orthorhombic'
loop_
_space_group_symop_operation_xyz
x,y,z
-x,-y,z
x,-y,-z
-x,y,-z
-x,-y,-z
x,y,-z
-x,y,z
x,-y,z
x,1/2+y,1/2+z
-x,1/2-y,1/2+z
x,1/2-y,1/2-z
-x,1/2+y,1/2-z
-x,1/2-y,1/2-z
x,1/2+y,1/2-z
-x,1/2+y,1/2+z
x,1/2-y,1/2+z
1/2+x,y,1/2+z
1/2-x,-y,1/2+z
1/2+x,-y,1/2-z
1/2-x,y,1/2-z
1/2-x,-y,1/2-z
1/2+x,y,1/2-z
1/2-x,y,1/2+z
1/2+x,-y,1/2+z
1/2+x,1/2+y,z
1/2-x,1/2-y,z
1/2+x,1/2-y,-z
1/2-x,1/2+y,-z
1/2-x,1/2-y,-z
1/2+x,1/2+y,-z
1/2-x,1/2+y,z
1/2+x,1/2-y,z
loop_
_atom_site_type_symbol
_atom_site_label
_atom_site_fract_x
_atom_site_fract_y
_atom_site_fract_z
Si Si1 0.343222 0.321722 0.293211
Si Si2 0.750000 0.611879 0.750000
Si Si3 0.935900 0.124412 0.386333
Si Si4 0.828038 0.448962 0.382537
Si Si5 0.937354 0.949916 0.238269
Si Si6 0.312075 0.736901 0.886386
O O1 0.293493 0.357099 0.311051
O O2 0.402862 0.344568 0.309061
O O3 0.337713 0.301927 0.180924
O O4 0.344975 0.282516 0.374386
O O5 0.781605 0.581149 0.670408
O O6 0.911286 0.125170 0.500000
O O7 0.929891 0.075480 0.343242
O O8 0.000000 0.140558 0.386353
O O9 0.826627 0.438487 0.500000
O O10 0.814391 0.500000 0.361109
O O11 0.890242 0.436189 0.342886
O O12 0.000000 0.941107 0.192314
O O13 0.929696 0.000000 0.268922
O O14 0.250000 0.750000 0.849371
O O15 0.314023 0.719752 0.000000
#
# Coordination Sequence:
#
# PCOD8284870 Si02
#       6
#    32  16  32  32  32  32
#     4  11  20  37  56  82 111 140 182 228 277 327
#     4  12  21  35  56  84 112 146 186 227 271 328
#     4  10  21  37  57  81 110 147 188 229 276 328
#     4  10  22  38  54  77 114 154 186 223 273 327
#     4   9  18  35  58  82 109 142 184 234 279 323
#     4  10  20  35  56  82 114 145 177 220 273 335
#
# _framework density 18.264441999999999
#
# number of rings (size 3 to 8) (size 9 to 14) (size 15 to 20)
#    0.000    1.818    3.636    1.364    0.000    2.909 
#    0.000    5.455    0.000    1.636    0.000    0.000 
#    0.000    0.000    0.000    0.000    0.000    0.000 
#
# Total GULP energy -545437.089646 kJ/mol
# GULP energy per Si atom -12396.297492 kJ/mol
# Density = 1.822287 g / cm^3
# Si number density = 18.264442 Si / 1000 Ang^3
#
#
#
# Elastic Constant Matrix: (Units=GPa)
#
#
# Indices 1 2 3 4 5 6 
#
# 1 104.6742 61.3956 62.8347 0.0000 0.0000 0.0000
# 2 61.3956 96.4040 56.7174 0.0000 0.0000 0.0000
# 3 62.8347 56.7174 129.7000 0.0000 0.0000 0.0000
# 4 0.0000 0.0000 0.0000 22.4317 0.0000 0.0000
# 5 0.0000 0.0000 0.0000 0.0000 28.8807 0.0000
# 6 0.0000 0.0000 0.0000 0.0000 0.0000 27.4459
#
#
#
# Elastic Compliance Matrix: (Units=1/GPa)
#
#
# Indices 1 2 3 4 5 6 
#
# 1 0.017192 -0.008144 -0.004768 0.000000 0.000000 0.000000
# 2 -0.008144 0.017824 -0.003849 0.000000 0.000000 0.000000
# 3 -0.004768 -0.003849 0.011703 0.000000 0.000000 0.000000
# 4 0.000000 0.000000 0.000000 0.044580 0.000000 0.000000
# 5 0.000000 0.000000 0.000000 0.000000 0.034625 0.000000
# 6 0.000000 0.000000 0.000000 0.000000 0.000000 0.036435
#
#
# Mechanical properties :
#
#
# Convention : Reuss Voigt Hill
#
# Bulk Modulus (GPa) = 75.76876 76.96374 76.36625
# Shear Modulus (GPa) = 24.96505 25.74035 25.35270
#
# Velocity S-wave (km/s) = 3.70113 3.75816 3.72975
# Velocity P-wave (km/s) = 7.73555 7.81420 7.77498
#
# Compressibility (1/GPa) = 0.01319805
#
# Stress axis : x y z
#
# Youngs Moduli (GPa) = 58.16586 56.10390 85.44870
#
# Poissons Ratio (x) = 0.45691 0.40738
# Poissons Ratio (y) = 0.47371 0.32888
# Poissons Ratio (z) = 0.27731 0.21594
#
# Static dielectric constant tensor:
#      x y z
#    x 3.429380 0.000000 0.000000 
#    y 0.000000 3.504600 0.000000 
#    z 0.000000 0.000000 3.230400 
# 
# 
# High freq. dielectric constant tensor:
#      x y z
#    x 1.702020 0.000000 0.000000 
#    y 0.000000 1.715640 0.000000 
#    z 0.000000 0.000000 1.699660 
# 
# From -- ./inp_files/18060.got.cif
#   From: 2010.03.12/outbox.cif.g09.slc.cpg/sg69_10_cif.got.tgz:18060.got - 2010.04.10 23:52:46.
