data_PCOD8284555
_publ_section_title
;
Structure prediction by ZEFSAII (Michael W. Deem and Ramdas Pophale) SiO2 
 PCOD8284555
Probable space group: F M M M
;
_chemical_formula_sum "Si O2"
_cell_formula_units_Z 120
_cell_length_a 32.193461
_cell_length_b 14.666890
_cell_length_c 13.718771
_cell_angle_alpha 90.000000
_cell_angle_beta 90.000000
_cell_angle_gamma 90.000000
_cell_volume 6477.701184
_symmetry_space_group_name_H-M "F M M M"
_symmetry_group_IT_number 69
_symmetry_cell_setting 'orthorhombic'
loop_
_space_group_symop_operation_xyz
x,y,z
-x,-y,z
x,-y,-z
-x,y,-z
-x,-y,-z
x,y,-z
-x,y,z
x,-y,z
x,1/2+y,1/2+z
-x,1/2-y,1/2+z
x,1/2-y,1/2-z
-x,1/2+y,1/2-z
-x,1/2-y,1/2-z
x,1/2+y,1/2-z
-x,1/2+y,1/2+z
x,1/2-y,1/2+z
1/2+x,y,1/2+z
1/2-x,-y,1/2+z
1/2+x,-y,1/2-z
1/2-x,y,1/2-z
1/2-x,-y,1/2-z
1/2+x,y,1/2-z
1/2-x,y,1/2+z
1/2+x,-y,1/2+z
1/2+x,1/2+y,z
1/2-x,1/2-y,z
1/2+x,1/2-y,-z
1/2-x,1/2+y,-z
1/2-x,1/2-y,-z
1/2+x,1/2+y,-z
1/2-x,1/2+y,z
1/2+x,1/2-y,z
loop_
_atom_site_type_symbol
_atom_site_label
_atom_site_fract_x
_atom_site_fract_y
_atom_site_fract_z
Si Si1 0.350848 0.598505 0.607614
Si Si2 0.951488 0.000000 0.886240
Si Si3 0.317071 0.209045 0.388307
Si Si4 0.750000 0.250000 0.250000
Si Si5 0.399999 0.151980 0.717022
O O1 0.370846 0.610327 0.500000
O O2 0.327857 0.500000 0.615619
O O3 0.319047 0.681037 0.624977
O O4 0.388124 0.599080 0.684840
O O5 0.933415 0.907268 0.840577
O O6 0.000000 0.000000 0.865197
O O7 0.941033 0.000000 0.000000
O O8 0.308885 0.179643 0.500000
O O9 0.278183 0.183657 0.319289
O O10 0.359436 0.163472 0.351400
O O11 0.418539 0.250000 0.750000
#
# Coordination Sequence:
#
# PCOD8284555 Si02
#       5
#    32  16  32   8  32
#     4   9  16  30  54  78 103 141 189 230 278 341
#     4  11  24  40  63  92 119 151 194 246 299 357
#     4  10  20  33  52  79 110 150 192 237 287 339
#     4  12  18  32  50  82 110 148 192 244 276 340
#     4  10  19  37  60  84 116 154 194 233 293 354
#
# _framework density 18.525089999999999
#
# number of rings (size 3 to 8) (size 9 to 14) (size 15 to 20)
#    0.000    2.000    5.333    1.200    0.000    1.600 
#    0.000    0.667    2.933    1.600    0.000    0.000 
#    0.000    0.000    0.000    0.000    0.000    0.000 
#
# Total GULP energy -371732.031415 kJ/mol
# GULP energy per Si atom -12391.067714 kJ/mol
# Density = 1.848293 g / cm^3
# Si number density = 18.525090 Si / 1000 Ang^3
#
#
#
# Elastic Constant Matrix: (Units=GPa)
#
#
# Indices 1 2 3 4 5 6 
#
# 1 96.5912 41.4112 63.2387 0.0000 0.0000 0.0000
# 2 41.4112 99.0684 40.1072 0.0000 0.0000 0.0000
# 3 63.2387 40.1072 153.6451 0.0000 0.0000 0.0000
# 4 0.0000 0.0000 0.0000 24.4659 0.0000 0.0000
# 5 0.0000 0.0000 0.0000 0.0000 29.0631 0.0000
# 6 0.0000 0.0000 0.0000 0.0000 0.0000 17.7700
#
#
#
# Elastic Compliance Matrix: (Units=1/GPa)
#
#
# Indices 1 2 3 4 5 6 
#
# 1 0.015732 -0.004422 -0.005321 0.000000 0.000000 0.000000
# 2 -0.004422 0.012530 -0.001451 0.000000 0.000000 0.000000
# 3 -0.005321 -0.001451 0.009077 0.000000 0.000000 0.000000
# 4 0.000000 0.000000 0.000000 0.040873 0.000000 0.000000
# 5 0.000000 0.000000 0.000000 0.000000 0.034408 0.000000
# 6 0.000000 0.000000 0.000000 0.000000 0.000000 0.056275
#
#
# Mechanical properties :
#
#
# Convention : Reuss Voigt Hill
#
# Bulk Modulus (GPa) = 66.88062 70.97987 68.93025
# Shear Modulus (GPa) = 25.47555 27.89631 26.68593
#
# Velocity S-wave (km/s) = 3.71238 3.88476 3.79955
# Velocity P-wave (km/s) = 7.38626 7.64987 7.51922
#
# Compressibility (1/GPa) = 0.01495201
#
# Stress axis : x y z
#
# Youngs Moduli (GPa) = 63.56290 79.80981 110.16556
#
# Poissons Ratio (x) = 0.35293 0.58619
# Poissons Ratio (y) = 0.28108 0.15981
# Poissons Ratio (z) = 0.33822 0.11578
#
# Static dielectric constant tensor:
#      x y z
#    x 2.993280 0.000000 0.000000 
#    y 0.000000 3.433310 0.000000 
#    z 0.000000 0.000000 3.841480 
# 
# 
# High freq. dielectric constant tensor:
#      x y z
#    x 1.670990 0.000000 0.000000 
#    y 0.000000 1.708900 0.000000 
#    z 0.000000 0.000000 1.751550 
# 
# From -- ./inp_files/19307.got.cif
#   From: 2010.03.12/outbox.cif.g09.slc.cpg/sg69_10_cif.got.tgz:19307.got - 2010.04.10 23:52:46.
