data_PCOD8284637
_publ_section_title
;
Structure prediction by ZEFSAII (Michael W. Deem and Ramdas Pophale) SiO2 
 PCOD8284637
Probable space group: F M M M
;
_chemical_formula_sum "Si O2"
_cell_formula_units_Z 160
_cell_length_a 27.729847
_cell_length_b 10.238127
_cell_length_c 29.702442
_cell_angle_alpha 90.000000
_cell_angle_beta 90.000000
_cell_angle_gamma 90.000000
_cell_volume 8432.573638
_symmetry_space_group_name_H-M "F M M M"
_symmetry_group_IT_number 69
_symmetry_cell_setting 'orthorhombic'
loop_
_space_group_symop_operation_xyz
x,y,z
-x,-y,z
x,-y,-z
-x,y,-z
-x,-y,-z
x,y,-z
-x,y,z
x,-y,z
x,1/2+y,1/2+z
-x,1/2-y,1/2+z
x,1/2-y,1/2-z
-x,1/2+y,1/2-z
-x,1/2-y,1/2-z
x,1/2+y,1/2-z
-x,1/2+y,1/2+z
x,1/2-y,1/2+z
1/2+x,y,1/2+z
1/2-x,-y,1/2+z
1/2+x,-y,1/2-z
1/2-x,y,1/2-z
1/2-x,-y,1/2-z
1/2+x,y,1/2-z
1/2-x,y,1/2+z
1/2+x,-y,1/2+z
1/2+x,1/2+y,z
1/2-x,1/2-y,z
1/2+x,1/2-y,-z
1/2-x,1/2+y,-z
1/2-x,1/2-y,-z
1/2+x,1/2+y,-z
1/2-x,1/2+y,z
1/2+x,1/2-y,z
loop_
_atom_site_type_symbol
_atom_site_label
_atom_site_fract_x
_atom_site_fract_y
_atom_site_fract_z
Si Si1 0.699965 0.638451 0.723793
Si Si2 0.056952 0.854932 0.050171
Si Si3 0.555244 0.350394 0.710399
Si Si4 0.897760 0.149063 0.383987
Si Si5 0.712131 0.648072 0.620932
O O1 0.671379 0.500000 0.724860
O O2 0.668945 0.750000 0.750000
O O3 0.750000 0.623140 0.750000
O O4 0.711150 0.678993 0.673527
O O5 0.073160 0.746841 0.085149
O O6 0.000000 0.855480 0.049713
O O7 0.075569 0.000000 0.064261
O O8 0.076238 0.820998 0.000000
O O9 0.500000 0.327352 0.694494
O O10 0.561625 0.500000 0.727276
O O11 0.568755 0.250000 0.750000
O O12 0.591128 0.321585 0.668528
O O13 0.841819 0.170503 0.396706
O O14 0.913241 0.000000 0.394713
O O15 0.729504 0.500000 0.610971
O O16 0.750000 0.750000 0.598281
#
# Coordination Sequence:
#
# PCOD8284637 Si02
#       5
#    32  32  32  32  32
#     4   9  15  25  41  59  83 122 169 218 266 307
#     4   9  19  37  61  89 117 140 167 212 271 333
#     4   9  18  33  50  70 102 142 181 221 265 317
#     4  10  21  35  53  80 112 144 181 227 274 325
#     4  10  20  33  47  68 100 137 178 223 268 312
#
# _framework density 18.974041
#
# number of rings (size 3 to 8) (size 9 to 14) (size 15 to 20)
#    0.000    2.600    2.000    1.200    0.000    4.000 
#    0.000    3.000    0.000    0.600    0.000    0.000 
#    0.000    0.000    0.000    0.000    0.000    0.000 
#
# Total GULP energy -495591.572967 kJ/mol
# GULP energy per Si atom -12389.789324 kJ/mol
# Density = 1.893086 g / cm^3
# Si number density = 18.974041 Si / 1000 Ang^3
#
#
#
# Elastic Constant Matrix: (Units=GPa)
#
#
# Indices 1 2 3 4 5 6 
#
# 1 59.0897 35.4052 11.5921 0.0000 0.0000 0.0000
# 2 35.4052 157.6247 61.6217 0.0000 0.0000 -0.0001
# 3 11.5921 61.6217 69.6702 0.0000 0.0000 0.0000
# 4 0.0000 0.0000 0.0000 30.1321 0.0000 0.0000
# 5 0.0000 0.0000 0.0000 0.0000 2.1392 0.0000
# 6 0.0000 -0.0001 0.0000 0.0000 0.0000 21.4539
#
#
#
# Elastic Compliance Matrix: (Units=1/GPa)
#
#
# Indices 1 2 3 4 5 6 
#
# 1 0.019598 -0.004780 0.000967 0.000000 0.000000 0.000000
# 2 -0.004780 0.010863 -0.008813 0.000000 0.000000 0.000000
# 3 0.000967 -0.008813 0.021987 0.000000 0.000000 0.000000
# 4 0.000000 0.000000 0.000000 0.033187 0.000000 0.000000
# 5 0.000000 0.000000 0.000000 0.000000 0.467472 0.000000
# 6 0.000000 0.000000 0.000000 0.000000 0.000000 0.046612
#
#
# Mechanical properties :
#
#
# Convention : Reuss Voigt Hill
#
# Bulk Modulus (GPa) = 36.76950 55.95807 46.36378
# Shear Modulus (GPa) = 7.88598 22.59608 15.24103
#
# Velocity S-wave (km/s) = 2.04089 3.45468 2.83725
# Velocity P-wave (km/s) = 4.99745 6.74307 5.93479
#
# Compressibility (1/GPa) = 0.02719645
#
# Stress axis : x y z
#
# Youngs Moduli (GPa) = 51.02606 92.05411 45.48089
#
# Poissons Ratio (x) = 0.44003 -0.04398
# Poissons Ratio (y) = 0.24391 0.40082
# Poissons Ratio (z) = -0.04935 0.81126
#
# Static dielectric constant tensor:
#      x y z
#    x 3.566050 0.000000 0.000000 
#    y 0.000000 8.293770 0.000000 
#    z 0.000000 0.000000 3.173140 
# 
# 
# High freq. dielectric constant tensor:
#      x y z
#    x 1.729060 0.000000 0.000000 
#    y 0.000000 1.755610 0.000000 
#    z 0.000000 0.000000 1.698790 
# 
# From -- ./inp_files/38844.got.cif
#   From: 2010.03.12/outbox.cif.g09.slc.cpg/sg69_20_cif.got.tgz:38844.got - 2010.04.10 23:52:46.
