data_PCOD8284772
_publ_section_title
;
Structure prediction by ZEFSAII (Michael W. Deem and Ramdas Pophale) SiO2 
 PCOD8284772
Probable space group: F M M M
;
_chemical_formula_sum "Si O2"
_cell_formula_units_Z 160
_cell_length_a 25.547299
_cell_length_b 18.219333
_cell_length_c 18.648565
_cell_angle_alpha 90.000000
_cell_angle_beta 90.000000
_cell_angle_gamma 90.000000
_cell_volume 8680.063118
_symmetry_space_group_name_H-M "F M M M"
_symmetry_group_IT_number 69
_symmetry_cell_setting 'orthorhombic'
loop_
_space_group_symop_operation_xyz
x,y,z
-x,-y,z
x,-y,-z
-x,y,-z
-x,-y,-z
x,y,-z
-x,y,z
x,-y,z
x,1/2+y,1/2+z
-x,1/2-y,1/2+z
x,1/2-y,1/2-z
-x,1/2+y,1/2-z
-x,1/2-y,1/2-z
x,1/2+y,1/2-z
-x,1/2+y,1/2+z
x,1/2-y,1/2+z
1/2+x,y,1/2+z
1/2-x,-y,1/2+z
1/2+x,-y,1/2-z
1/2-x,y,1/2-z
1/2-x,-y,1/2-z
1/2+x,y,1/2-z
1/2-x,y,1/2+z
1/2+x,-y,1/2+z
1/2+x,1/2+y,z
1/2-x,1/2-y,z
1/2+x,1/2-y,-z
1/2-x,1/2+y,-z
1/2-x,1/2-y,-z
1/2+x,1/2+y,-z
1/2-x,1/2+y,z
1/2+x,1/2-y,z
loop_
_atom_site_type_symbol
_atom_site_label
_atom_site_fract_x
_atom_site_fract_y
_atom_site_fract_z
Si Si1 0.702582 0.915689 0.700758
Si Si2 0.000000 0.274194 0.579654
Si Si3 0.000000 0.165670 0.773514
Si Si4 0.698612 0.796687 0.582754
Si Si5 0.606784 0.689129 0.418438
Si Si6 0.901239 0.584599 0.791675
O O1 0.750000 0.886594 0.750000
O O2 0.700701 0.871120 0.627341
O O3 0.648798 0.904666 0.742254
O O4 0.712197 0.000000 0.679616
O O5 0.950495 0.222212 0.590302
O O6 0.000000 0.310358 0.500000
O O7 0.000000 0.338106 0.639384
O O8 0.000000 0.250000 0.750000
O O9 0.051147 0.126087 0.745145
O O10 0.694120 0.819751 0.500000
O O11 0.750000 0.750000 0.598214
O O12 0.648550 0.749552 0.607192
O O13 0.618482 0.664861 0.500000
O O14 0.611445 0.617211 0.369731
O O15 0.916208 0.500000 0.801867
#
# Coordination Sequence:
#
# PCOD8284772 Si02
#       6
#    32  16  16  32  32  32
#     4  10  22  38  56  81 114 149 186 231 282 332
#     4  10  20  34  54  82 109 139 184 228 271 329
#     4  12  21  36  61  84 109 151 188 227 285 331
#     4  10  21  36  56  83 110 142 188 234 274 331
#     4  10  20  35  55  81 112 145 183 226 277 334
#     4  11  23  37  56  84 115 146 188 234 277 336
#
# _framework density 18.433046000000001
#
# number of rings (size 3 to 8) (size 9 to 14) (size 15 to 20)
#    0.000    1.600    2.000    2.700    0.000    2.800 
#    0.000    0.000    0.000   12.600    0.000    0.000 
#    0.000    0.000    0.000    0.000    0.000    0.000 
#
# Total GULP energy -496152.749527 kJ/mol
# GULP energy per Si atom -12403.818738 kJ/mol
# Density = 1.839109 g / cm^3
# Si number density = 18.433046 Si / 1000 Ang^3
#
#
#
# Elastic Constant Matrix: (Units=GPa)
#
#
# Indices 1 2 3 4 5 6 
#
# 1 123.9605 57.7434 31.7287 0.0000 0.0000 0.0000
# 2 57.7434 123.5825 83.0358 0.0000 0.0000 0.0000
# 3 31.7287 83.0358 126.3946 0.0000 0.0000 0.0000
# 4 0.0000 0.0000 0.0000 33.2154 0.0000 0.0000
# 5 0.0000 0.0000 0.0000 0.0000 41.6294 0.0000
# 6 0.0000 0.0000 0.0000 0.0000 0.0000 339.0165
#
#
#
# Elastic Compliance Matrix: (Units=1/GPa)
#
#
# Indices 1 2 3 4 5 6 
#
# 1 0.010387 -0.005552 0.001040 0.000000 0.000000 0.000000
# 2 -0.005552 0.017454 -0.010073 0.000000 0.000000 0.000000
# 3 0.001040 -0.010073 0.014268 0.000000 0.000000 0.000000
# 4 0.000000 0.000000 0.000000 0.030107 0.000000 0.000000
# 5 0.000000 0.000000 0.000000 0.000000 0.024022 0.000000
# 6 0.000000 0.000000 0.000000 0.000000 0.000000 0.002950
#
#
# Mechanical properties :
#
#
# Convention : Reuss Voigt Hill
#
# Bulk Modulus (GPa) = 77.28325 79.88371 78.58348
# Shear Modulus (GPa) = 37.68761 96.20091 66.94426
#
# Velocity S-wave (km/s) = 4.52659 7.23206 6.03294
# Velocity P-wave (km/s) = 8.32692 10.63805 9.55264
#
# Compressibility (1/GPa) = 0.01293941
#
# Stress axis : x y z
#
# Youngs Moduli (GPa) = 96.27229 57.29376 70.08706
#
# Poissons Ratio (x) = 0.31811 -0.07290
# Poissons Ratio (y) = 0.53452 0.70597
# Poissons Ratio (z) = -0.10013 0.57710
#
# Static dielectric constant tensor:
#      x y z
#    x 3.622370 0.000000 0.000000 
#    y 0.000000 3.295060 0.000000 
#    z 0.000000 0.000000 3.609960 
# 
# 
# High freq. dielectric constant tensor:
#      x y z
#    x 1.740210 0.000000 0.000000 
#    y 0.000000 1.698720 0.000000 
#    z 0.000000 0.000000 1.724330 
# 
# From -- ./inp_files/24677.got.cif
#   From: 2010.03.12/outbox.cif.g09.slc.cpg/sg69_13_cif.got.tgz:24677.got - 2010.04.10 23:52:46.
