data_PCOD8284459
_publ_section_title
;
Structure prediction by ZEFSAII (Michael W. Deem and Ramdas Pophale) SiO2 
 PCOD8284459
Probable space group: F M M M
;
_chemical_formula_sum "Si O2"
_cell_formula_units_Z 144
_cell_length_a 27.054072
_cell_length_b 10.467887
_cell_length_c 28.323757
_cell_angle_alpha 90.000000
_cell_angle_beta 90.000000
_cell_angle_gamma 90.000000
_cell_volume 8021.258769
_symmetry_space_group_name_H-M "F M M M"
_symmetry_group_IT_number 69
_symmetry_cell_setting 'orthorhombic'
loop_
_space_group_symop_operation_xyz
x,y,z
-x,-y,z
x,-y,-z
-x,y,-z
-x,-y,-z
x,y,-z
-x,y,z
x,-y,z
x,1/2+y,1/2+z
-x,1/2-y,1/2+z
x,1/2-y,1/2-z
-x,1/2+y,1/2-z
-x,1/2-y,1/2-z
x,1/2+y,1/2-z
-x,1/2+y,1/2+z
x,1/2-y,1/2+z
1/2+x,y,1/2+z
1/2-x,-y,1/2+z
1/2+x,-y,1/2-z
1/2-x,y,1/2-z
1/2-x,-y,1/2-z
1/2+x,y,1/2-z
1/2-x,y,1/2+z
1/2+x,-y,1/2+z
1/2+x,1/2+y,z
1/2-x,1/2-y,z
1/2+x,1/2-y,-z
1/2-x,1/2+y,-z
1/2-x,1/2-y,-z
1/2+x,1/2+y,-z
1/2-x,1/2+y,z
1/2+x,1/2-y,z
loop_
_atom_site_type_symbol
_atom_site_label
_atom_site_fract_x
_atom_site_fract_y
_atom_site_fract_z
Si Si1 0.647635 0.742650 0.303607
Si Si2 0.628840 0.500000 0.945662
Si Si3 0.445076 0.644751 0.645590
Si Si4 0.686459 0.000000 0.350595
Si Si5 0.218755 0.000000 0.299863
Si Si6 0.555259 0.729132 0.948031
O O1 0.631799 0.750000 0.250000
O O2 0.596315 0.728361 0.330398
O O3 0.686201 0.626469 0.307250
O O4 0.669154 0.874333 0.322885
O O5 0.672357 0.500000 0.906299
O O6 0.595071 0.621727 0.936231
O O7 0.649724 0.500000 0.000000
O O8 0.500000 0.691762 0.660906
O O9 0.437077 0.500000 0.660693
O O10 0.439033 0.656448 0.589069
O O11 0.745457 0.000000 0.345301
O O12 0.250000 0.000000 0.250000
O O13 0.500000 0.669017 0.945167
O O14 0.564942 0.786656 0.000000
#
# Coordination Sequence:
#
# PCOD8284459 Si02
#       6
#    32  16  32  16  16  32
#     4  12  23  40  62  88 119 151 198 246 298 352
#     4  10  19  34  56  84 119 153 192 239 301 358
#     4  10  21  37  56  82 119 160 194 231 294 366
#     4  12  24  37  62  94 118 152 196 253 304 342
#     4  12  24  42  64  89 113 151 197 255 304 344
#     4   9  17  31  54  82 112 149 195 246 291 341
#
# _framework density 17.952294999999999
#
# number of rings (size 3 to 8) (size 9 to 14) (size 15 to 20)
#    0.000    1.333    5.556    1.000    0.000    2.222 
#    0.000    2.778    0.000    4.000    0.000    0.000 
#    0.000    0.000    0.000    0.000    0.000    0.000 
#
# Total GULP energy -446090.367429 kJ/mol
# GULP energy per Si atom -12391.399095 kJ/mol
# Density = 1.791143 g / cm^3
# Si number density = 17.952295 Si / 1000 Ang^3
#
#
#
# Elastic Constant Matrix: (Units=GPa)
#
#
# Indices 1 2 3 4 5 6 
#
# 1 111.4651 43.1935 53.7209 0.0000 0.0000 0.0000
# 2 43.1935 97.2203 28.5604 0.0000 0.0000 -0.0001
# 3 53.7209 28.5604 111.1232 0.0000 0.0000 0.0000
# 4 0.0000 0.0000 0.0000 26.0833 0.0000 0.0000
# 5 0.0000 0.0000 0.0000 0.0000 19.6243 0.0000
# 6 0.0000 -0.0001 0.0000 0.0000 0.0000 -4.6165
#
#
#
# Elastic Compliance Matrix: (Units=1/GPa)
#
#
# Indices 1 2 3 4 5 6 
#
# 1 0.013178 -0.004308 -0.005263 0.000000 0.000000 0.000000
# 2 -0.004308 0.012535 -0.001139 0.000000 0.000000 0.000000
# 3 -0.005263 -0.001139 0.011836 0.000000 0.000000 0.000000
# 4 0.000000 0.000000 0.000000 0.038339 0.000000 0.000000
# 5 0.000000 0.000000 0.000000 0.000000 0.050957 0.000000
# 6 0.000000 0.000000 0.000000 0.000000 0.000000 -0.216616
#
#
# Mechanical properties :
#
#
# Convention : Reuss Voigt Hill
#
# Bulk Modulus (GPa) = 62.00554 63.41759 62.71156
# Shear Modulus (GPa) = -79.39623 21.17381 -29.11121
#
# Velocity S-wave (km/s) = -6.65750 3.43804 -4.03126
# Velocity P-wave (km/s) = 4.94796 7.15279 3.65241
#
# Compressibility (1/GPa) = 0.01612759
#
# Stress axis : x y z
#
# Youngs Moduli (GPa) = 75.88661 79.77902 84.48728
#
# Poissons Ratio (x) = 0.34372 0.44467
# Poissons Ratio (y) = 0.32695 0.09621
# Poissons Ratio (z) = 0.39940 0.09085
#
# Static dielectric constant tensor:
#      x y z
#    x 3.461480 0.000000 0.000000 
#    y 0.000000 3.275430 0.000000 
#    z 0.000000 0.000000 3.468250 
# 
# 
# High freq. dielectric constant tensor:
#      x y z
#    x 1.693670 0.000000 0.000000 
#    y 0.000000 1.694940 0.000000 
#    z 0.000000 0.000000 1.696770 
# 
# From -- ./inp_files/43463.got.cif
#   From: 2010.03.12/outbox.cif.g09.slc.cpg/sg69_22_cif.got.tgz:43463.got - 2010.04.10 23:52:46.
