data_PCOD8284741
_publ_section_title
;
Structure prediction by ZEFSAII (Michael W. Deem and Ramdas Pophale) SiO2 
 PCOD8284741
Probable space group: F M M M
;
_chemical_formula_sum "Si O2"
_cell_formula_units_Z 144
_cell_length_a 33.836152
_cell_length_b 9.327915
_cell_length_c 25.194999
_cell_angle_alpha 90.000000
_cell_angle_beta 90.000000
_cell_angle_gamma 90.000000
_cell_volume 7952.064475
_symmetry_space_group_name_H-M "F M M M"
_symmetry_group_IT_number 69
_symmetry_cell_setting 'orthorhombic'
loop_
_space_group_symop_operation_xyz
x,y,z
-x,-y,z
x,-y,-z
-x,y,-z
-x,-y,-z
x,y,-z
-x,y,z
x,-y,z
x,1/2+y,1/2+z
-x,1/2-y,1/2+z
x,1/2-y,1/2-z
-x,1/2+y,1/2-z
-x,1/2-y,1/2-z
x,1/2+y,1/2-z
-x,1/2+y,1/2+z
x,1/2-y,1/2+z
1/2+x,y,1/2+z
1/2-x,-y,1/2+z
1/2+x,-y,1/2-z
1/2-x,y,1/2-z
1/2-x,-y,1/2-z
1/2+x,y,1/2-z
1/2-x,y,1/2+z
1/2+x,-y,1/2+z
1/2+x,1/2+y,z
1/2-x,1/2-y,z
1/2+x,1/2-y,-z
1/2-x,1/2+y,-z
1/2-x,1/2-y,-z
1/2+x,1/2+y,-z
1/2-x,1/2+y,z
1/2+x,1/2-y,z
loop_
_atom_site_type_symbol
_atom_site_label
_atom_site_fract_x
_atom_site_fract_y
_atom_site_fract_z
Si Si1 0.709329 0.667808 0.000000
Si Si2 0.120600 0.330853 0.699829
Si Si3 0.146062 0.166786 0.915102
Si Si4 0.456199 0.165902 0.169058
Si Si5 0.071120 0.661863 0.943007
O O1 0.750000 0.750000 0.000000
O O2 0.685791 0.712251 0.946211
O O3 0.718331 0.500000 0.000000
O O4 0.118322 0.500000 0.710383
O O5 0.140633 0.250000 0.750000
O O6 0.146999 0.294344 0.647853
O O7 0.075907 0.270381 0.694984
O O8 0.109614 0.241207 0.942860
O O9 0.138562 0.000000 0.922470
O O10 0.500000 0.201668 0.191238
O O11 0.457924 0.196021 0.105673
O O12 0.445084 0.000000 0.180937
O O13 0.086573 0.500000 0.937809
O O14 0.049331 0.685594 0.000000
#
# Coordination Sequence:
#
# PCOD8284741 Si02
#       5
#    16  32  32  32  32
#     4  10  20  34  54  82 111 134 157 189 234 289
#     4  10  20  34  53  74  95 127 170 212 251 292
#     4   9  18  33  52  73 101 133 163 197 240 290
#     4   9  18  31  45  65  96 131 167 210 257 300
#     4   9  16  26  44  69  95 127 167 206 245 292
#
# _framework density 18.108505000000001
#
# number of rings (size 3 to 8) (size 9 to 14) (size 15 to 20)
#    0.000    2.667    1.111    0.667    0.000    3.111 
#    0.000    2.222    0.000    0.667    0.000   10.889 
#    0.000    0.000    0.000    0.000    0.000    0.000 
#
# Total GULP energy -446086.013999 kJ/mol
# GULP energy per Si atom -12391.278167 kJ/mol
# Density = 1.806729 g / cm^3
# Si number density = 18.108505 Si / 1000 Ang^3
#
#
#
# Elastic Constant Matrix: (Units=GPa)
#
#
# Indices 1 2 3 4 5 6 
#
# 1 82.6190 32.6463 32.2932 0.0000 0.0000 -0.0001
# 2 32.6463 58.1383 42.4011 0.0000 0.0000 -0.0002
# 3 32.2932 42.4011 127.4231 0.0000 0.0000 0.0000
# 4 0.0000 0.0000 0.0000 26.4813 0.0000 0.0000
# 5 0.0000 0.0000 0.0000 0.0000 12.0221 0.0000
# 6 -0.0001 -0.0002 0.0000 0.0000 0.0000 23.7666
#
#
#
# Elastic Compliance Matrix: (Units=1/GPa)
#
#
# Indices 1 2 3 4 5 6 
#
# 1 0.015738 -0.007828 -0.001384 0.000000 0.000000 0.000000
# 2 -0.007828 0.026606 -0.006870 0.000000 0.000000 0.000000
# 3 -0.001384 -0.006870 0.010484 0.000000 0.000000 0.000000
# 4 0.000000 0.000000 0.000000 0.037762 0.000000 0.000000
# 5 0.000000 0.000000 0.000000 0.000000 0.083180 0.000000
# 6 0.000000 0.000000 0.000000 0.000000 0.000000 0.042076
#
#
# Mechanical properties :
#
#
# Convention : Reuss Voigt Hill
#
# Bulk Modulus (GPa) = 48.38904 53.65129 51.02016
# Shear Modulus (GPa) = 19.61568 23.17666 21.39617
#
# Velocity S-wave (km/s) = 3.29482 3.58142 3.44110
# Velocity P-wave (km/s) = 6.42294 6.84062 6.63507
#
# Compressibility (1/GPa) = 0.02066584
#
# Stress axis : x y z
#
# Youngs Moduli (GPa) = 63.54133 37.58530 95.37977
#
# Poissons Ratio (x) = 0.29422 0.13197
# Poissons Ratio (y) = 0.49741 0.65521
# Poissons Ratio (z) = 0.08791 0.25819
#
# Static dielectric constant tensor:
#      x y z
#    x 2.974680 0.000000 0.000000 
#    y 0.000000 3.331620 0.000000 
#    z 0.000000 0.000000 3.899840 
# 
# 
# High freq. dielectric constant tensor:
#      x y z
#    x 1.650660 0.000000 0.000000 
#    y 0.000000 1.701270 0.000000 
#    z 0.000000 0.000000 1.723820 
# 
# From -- ./inp_files/5530.got.cif
#   From: 2010.03.12/outbox.cif.g09.slc.cpg/sg69_3_cif.got.tgz:5530.got - 2010.04.10 23:52:46.
