data_PCOD8284568
_publ_section_title
;
Structure prediction by ZEFSAII (Michael W. Deem and Ramdas Pophale) SiO2 
 PCOD8284568
Probable space group: F M M M
;
_chemical_formula_sum "Si O2"
_cell_formula_units_Z 80
_cell_length_a 5.287387
_cell_length_b 28.238636
_cell_length_c 24.275218
_cell_angle_alpha 90.000000
_cell_angle_beta 90.000000
_cell_angle_gamma 90.000000
_cell_volume 3624.498739
_symmetry_space_group_name_H-M "F M M M"
_symmetry_group_IT_number 69
_symmetry_cell_setting 'orthorhombic'
loop_
_space_group_symop_operation_xyz
x,y,z
-x,-y,z
x,-y,-z
-x,y,-z
-x,-y,-z
x,y,-z
-x,y,z
x,-y,z
x,1/2+y,1/2+z
-x,1/2-y,1/2+z
x,1/2-y,1/2-z
-x,1/2+y,1/2-z
-x,1/2-y,1/2-z
x,1/2+y,1/2-z
-x,1/2+y,1/2+z
x,1/2-y,1/2+z
1/2+x,y,1/2+z
1/2-x,-y,1/2+z
1/2+x,-y,1/2-z
1/2-x,y,1/2-z
1/2-x,-y,1/2-z
1/2+x,y,1/2-z
1/2-x,y,1/2+z
1/2+x,-y,1/2+z
1/2+x,1/2+y,z
1/2-x,1/2-y,z
1/2+x,1/2-y,-z
1/2-x,1/2+y,-z
1/2-x,1/2-y,-z
1/2+x,1/2+y,-z
1/2-x,1/2+y,z
1/2+x,1/2-y,z
loop_
_atom_site_type_symbol
_atom_site_label
_atom_site_fract_x
_atom_site_fract_y
_atom_site_fract_z
Si Si1 0.000000 0.306429 0.608355
Si Si2 0.500000 0.055603 0.626876
Si Si3 0.000000 0.365568 0.714017
Si Si4 0.500000 0.703136 0.563218
Si Si5 0.500000 0.555920 0.561296
O O1 0.000000 0.321794 0.671560
O O2 0.250822 0.327366 0.578096
O O3 0.000000 0.249696 0.601766
O O4 0.500000 0.083635 0.684117
O O5 0.747792 0.071635 0.593273
O O6 0.500000 0.000000 0.640548
O O7 0.250000 0.361083 0.750000
O O8 0.500000 0.719331 0.500000
O O9 0.500000 0.500000 0.554896
O O10 0.500000 0.579087 0.500000
#
# Coordination Sequence:
#
# PCOD8284568 Si02
#       5
#    16  16  16  16  16
#     4  10  20  37  59  87 117 151 187 228 285 343
#     4  10  21  38  60  84 112 153 202 244 287 344
#     4  12  26  43  58  79 116 155 200 257 295 323
#     4  10  19  38  65  92 123 149 179 225 279 353
#     4   9  17  33  57  85 115 142 174 227 294 357
#
# _framework density 22.072016999999999
#
# number of rings (size 3 to 8) (size 9 to 14) (size 15 to 20)
#    0.000    1.800    0.000    6.000    0.000    3.200 
#    0.000   20.000    0.000    0.000    0.000    0.000 
#    0.000    0.000    0.000    0.000    0.000    0.000 
#
# Total GULP energy -247911.998355 kJ/mol
# GULP energy per Si atom -12395.599918 kJ/mol
# Density = 2.202178 g / cm^3
# Si number density = 22.072017 Si / 1000 Ang^3
#
#
#
# Elastic Constant Matrix: (Units=GPa)
#
#
# Indices 1 2 3 4 5 6 
#
# 1 274.7927 20.8571 105.1342 0.0000 0.0000 0.0000
# 2 20.8571 80.1684 57.3131 0.0000 0.0000 0.0000
# 3 105.1342 57.3131 186.9665 0.0000 0.0000 0.0000
# 4 0.0000 0.0000 0.0000 4.5191 0.0000 0.0000
# 5 0.0000 0.0000 0.0000 0.0000 49.2868 0.0000
# 6 0.0000 0.0000 0.0000 0.0000 0.0000 -0.3391
#
#
#
# Elastic Compliance Matrix: (Units=1/GPa)
#
#
# Indices 1 2 3 4 5 6 
#
# 1 0.004681 0.000850 -0.002893 0.000000 0.000000 0.000000
# 2 0.000850 0.016129 -0.005422 0.000000 0.000000 0.000000
# 3 -0.002893 -0.005422 0.008638 0.000000 0.000000 0.000000
# 4 0.000000 0.000000 0.000000 0.221282 0.000000 0.000000
# 5 0.000000 0.000000 0.000000 0.000000 0.020289 0.000000
# 6 0.000000 0.000000 0.000000 0.000000 0.000000 -2.949026
#
#
# Mechanical properties :
#
#
# Convention : Reuss Voigt Hill
#
# Bulk Modulus (GPa) = 68.88118 100.94850 84.91484
# Shear Modulus (GPa) = -1.88095 34.60158 16.36031
#
# Velocity S-wave (km/s) = -0.92414 3.96367 2.72550
# Velocity P-wave (km/s) = 5.48967 8.17208 6.96130
#
# Compressibility (1/GPa) = 0.01451775
#
# Stress axis : x y z
#
# Youngs Moduli (GPa) = 213.60853 62.00002 115.77284
#
# Poissons Ratio (x) = -0.05272 0.33495
# Poissons Ratio (y) = -0.18165 0.62777
# Poissons Ratio (z) = 0.61800 0.33619
#
# Static dielectric constant tensor:
#      x y z
#    x 4.772950 0.000000 0.000000 
#    y 0.000000 3.573430 0.000000 
#    z 0.000000 0.000000 3.876940 
# 
# 
# High freq. dielectric constant tensor:
#      x y z
#    x 1.907910 0.000000 0.000000 
#    y 0.000000 1.853110 0.000000 
#    z 0.000000 0.000000 1.857590 
# 
# From -- ./inp_files/34203.got.cif
#   From: 2010.03.12/outbox.cif.g09.slc.cpg/sg69_18_cif.got.tgz:34203.got - 2010.04.10 23:52:46.
