data_PCOD8284514
_publ_section_title
;
Structure prediction by ZEFSAII (Michael W. Deem and Ramdas Pophale) SiO2 
 PCOD8284514
Probable space group: F M M M
;
_chemical_formula_sum "Si O2"
_cell_formula_units_Z 160
_cell_length_a 20.068566
_cell_length_b 21.523383
_cell_length_c 17.686864
_cell_angle_alpha 90.000000
_cell_angle_beta 90.000000
_cell_angle_gamma 90.000000
_cell_volume 7639.724742
_symmetry_space_group_name_H-M "F M M M"
_symmetry_group_IT_number 69
_symmetry_cell_setting 'orthorhombic'
loop_
_space_group_symop_operation_xyz
x,y,z
-x,-y,z
x,-y,-z
-x,y,-z
-x,-y,-z
x,y,-z
-x,y,z
x,-y,z
x,1/2+y,1/2+z
-x,1/2-y,1/2+z
x,1/2-y,1/2-z
-x,1/2+y,1/2-z
-x,1/2-y,1/2-z
x,1/2+y,1/2-z
-x,1/2+y,1/2+z
x,1/2-y,1/2+z
1/2+x,y,1/2+z
1/2-x,-y,1/2+z
1/2+x,-y,1/2-z
1/2-x,y,1/2-z
1/2-x,-y,1/2-z
1/2+x,y,1/2-z
1/2-x,y,1/2+z
1/2+x,-y,1/2+z
1/2+x,1/2+y,z
1/2-x,1/2-y,z
1/2+x,1/2-y,-z
1/2-x,1/2+y,-z
1/2-x,1/2-y,-z
1/2+x,1/2+y,-z
1/2-x,1/2+y,z
1/2+x,1/2-y,z
loop_
_atom_site_type_symbol
_atom_site_label
_atom_site_fract_x
_atom_site_fract_y
_atom_site_fract_z
Si Si1 0.361995 0.794703 0.816237
Si Si2 0.707546 0.000000 0.083487
Si Si3 0.927100 0.106439 0.781498
Si Si4 0.257249 0.863597 0.916347
Si Si5 0.830720 0.500000 0.759052
Si Si6 0.389908 0.685428 0.085420
O O1 0.332719 0.750000 0.750000
O O2 0.416944 0.839821 0.780320
O O3 0.303643 0.836523 0.851158
O O4 0.398591 0.754650 0.881096
O O5 0.752619 0.061858 0.093856
O O6 0.652656 0.000000 0.150569
O O7 0.673218 0.000000 0.000000
O O8 0.865394 0.059282 0.778412
O O9 0.929955 0.135585 0.865352
O O10 0.000000 0.075637 0.766848
O O11 0.187795 0.829585 0.909312
O O12 0.287723 0.850352 0.000000
O O13 0.750000 0.500000 0.750000
O O14 0.417145 0.683250 0.000000
#
# Coordination Sequence:
#
# PCOD8284514 Si02
#       6
#    32  16  32  32  16  32
#     4  10  21  35  59  87 125 167 213 255 315 373
#     4  10  20  35  62  92 123 158 195 256 327 382
#     4  11  25  42  63  93 130 166 207 260 316 377
#     4  10  19  35  58  92 127 159 204 267 325 369
#     4  12  23  43  72  97 123 164 213 260 320 374
#     4  10  22  38  60  90 127 170 213 260 316 373
#
# _framework density 20.943162000000001
#
# number of rings (size 3 to 8) (size 9 to 14) (size 15 to 20)
#    0.000    1.600    2.000    2.700    0.000   10.400 
#    0.000    0.500    0.000    6.600    0.000    0.000 
#    0.000    0.000    0.000    0.000    0.000    0.000 
#
# Total GULP energy -495798.487653 kJ/mol
# GULP energy per Si atom -12394.962191 kJ/mol
# Density = 2.089549 g / cm^3
# Si number density = 20.943162 Si / 1000 Ang^3
#
#
#
# Elastic Constant Matrix: (Units=GPa)
#
#
# Indices 1 2 3 4 5 6 
#
# 1 105.2007 37.5324 41.4523 0.0000 0.0000 0.0000
# 2 37.5324 121.3696 51.0814 0.0000 0.0000 0.0000
# 3 41.4523 51.0814 135.1014 0.0000 0.0000 0.0000
# 4 0.0000 0.0000 0.0000 32.0877 0.0000 0.0000
# 5 0.0000 0.0000 0.0000 0.0000 11.5422 0.0000
# 6 0.0000 0.0000 0.0000 0.0000 0.0000 11.5985
#
#
#
# Elastic Compliance Matrix: (Units=1/GPa)
#
#
# Indices 1 2 3 4 5 6 
#
# 1 0.011390 -0.002440 -0.002572 0.000000 0.000000 0.000000
# 2 -0.002440 0.010321 -0.003154 0.000000 0.000000 0.000000
# 3 -0.002572 -0.003154 0.009384 0.000000 0.000000 0.000000
# 4 0.000000 0.000000 0.000000 0.031165 0.000000 0.000000
# 5 0.000000 0.000000 0.000000 0.000000 0.086639 0.000000
# 6 0.000000 0.000000 0.000000 0.000000 0.000000 0.086218
#
#
# Mechanical properties :
#
#
# Convention : Reuss Voigt Hill
#
# Bulk Modulus (GPa) = 67.73715 69.08932 68.41323
# Shear Modulus (GPa) = 19.50321 26.48604 22.99463
#
# Velocity S-wave (km/s) = 3.05494 3.56007 3.31713
# Velocity P-wave (km/s) = 6.69754 7.06819 6.88536
#
# Compressibility (1/GPa) = 0.01476295
#
# Stress axis : x y z
#
# Youngs Moduli (GPa) = 87.80006 96.88916 106.56976
#
# Poissons Ratio (x) = 0.23636 0.27412
# Poissons Ratio (y) = 0.21419 0.33611
# Poissons Ratio (z) = 0.22584 0.30557
#
# Static dielectric constant tensor:
#      x y z
#    x 3.287980 0.000000 0.000000 
#    y 0.000000 3.989990 0.000000 
#    z 0.000000 0.000000 4.338780 
# 
# 
# High freq. dielectric constant tensor:
#      x y z
#    x 1.776910 0.000000 0.000000 
#    y 0.000000 1.831030 0.000000 
#    z 0.000000 0.000000 1.840690 
# 
# From -- ./inp_files/24610.got.cif
#   From: 2010.03.12/outbox.cif.g09.slc.cpg/sg69_13_cif.got.tgz:24610.got - 2010.04.10 23:52:46.
