data_PCOD8284990
_publ_section_title
;
Structure prediction by ZEFSAII (Michael W. Deem and Ramdas Pophale) SiO2 
 PCOD8284990
Probable space group: F M M M
;
_chemical_formula_sum "Si O2"
_cell_formula_units_Z 152
_cell_length_a 29.834085
_cell_length_b 10.130464
_cell_length_c 25.272980
_cell_angle_alpha 90.000000
_cell_angle_beta 90.000000
_cell_angle_gamma 90.000000
_cell_volume 7638.331700
_symmetry_space_group_name_H-M "F M M M"
_symmetry_group_IT_number 69
_symmetry_cell_setting 'orthorhombic'
loop_
_space_group_symop_operation_xyz
x,y,z
-x,-y,z
x,-y,-z
-x,y,-z
-x,-y,-z
x,y,-z
-x,y,z
x,-y,z
x,1/2+y,1/2+z
-x,1/2-y,1/2+z
x,1/2-y,1/2-z
-x,1/2+y,1/2-z
-x,1/2-y,1/2-z
x,1/2+y,1/2-z
-x,1/2+y,1/2+z
x,1/2-y,1/2+z
1/2+x,y,1/2+z
1/2-x,-y,1/2+z
1/2+x,-y,1/2-z
1/2-x,y,1/2-z
1/2-x,-y,1/2-z
1/2+x,y,1/2-z
1/2-x,y,1/2+z
1/2+x,-y,1/2+z
1/2+x,1/2+y,z
1/2-x,1/2-y,z
1/2+x,1/2-y,-z
1/2-x,1/2+y,-z
1/2-x,1/2-y,-z
1/2+x,1/2+y,-z
1/2-x,1/2+y,z
1/2+x,1/2-y,z
loop_
_atom_site_type_symbol
_atom_site_label
_atom_site_fract_x
_atom_site_fract_y
_atom_site_fract_z
Si Si1 0.887797 0.500000 0.500000
Si Si2 0.549169 0.348071 0.613383
Si Si3 0.199586 0.729096 0.860161
Si Si4 0.947885 0.247748 0.500000
Si Si5 0.117285 0.346730 0.202026
Si Si6 0.283540 0.500000 0.439883
Si Si7 0.316775 0.500000 0.090150
O O1 0.919825 0.377803 0.500000
O O2 0.858137 0.500000 0.551612
O O3 0.500000 0.280327 0.622429
O O4 0.544091 0.500000 0.625907
O O5 0.565047 0.332984 0.552697
O O6 0.586415 0.293160 0.653706
O O7 0.250000 0.750000 0.838562
O O8 0.169460 0.665794 0.814176
O O9 0.198970 0.631855 0.910953
O O10 0.178959 0.870585 0.874009
O O11 0.000000 0.283551 0.500000
O O12 0.107875 0.500000 0.217097
O O13 0.105887 0.250000 0.250000
O O14 0.301778 0.500000 0.500000
O O15 0.229810 0.500000 0.441612
#
# Coordination Sequence:
#
# PCOD8284990 Si02
#       7
#     8  32  32  16  32  16  16
#     4  12  21  32  48  82 124 164 202 226 289 350
#     4   9  19  39  66  93 122 155 197 247 303 366
#     4  10  22  40  59  87 120 159 207 252 305 365
#     4  10  20  36  59  89 126 160 192 237 297 367
#     4  11  24  43  63  90 122 157 208 260 307 360
#     4  10  20  38  60  85 124 161 202 247 304 363
#     4  10  22  33  57  84 122 158 198 245 299 363
#
# _framework density 19.899633000000001
#
# number of rings (size 3 to 8) (size 9 to 14) (size 15 to 20)
#    0.000    1.895    1.579    1.737    2.947    3.368 
#    3.789    1.053    0.000    0.000    0.000    0.000 
#    0.000    0.000    0.000    0.000    0.000    0.000 
#
# Total GULP energy -471124.621363 kJ/mol
# GULP energy per Si atom -12398.016352 kJ/mol
# Density = 1.985434 g / cm^3
# Si number density = 19.899633 Si / 1000 Ang^3
#
#
#
# Elastic Constant Matrix: (Units=GPa)
#
#
# Indices 1 2 3 4 5 6 
#
# 1 85.0814 31.2744 61.9746 0.0000 0.0000 0.0000
# 2 31.2744 107.3733 39.9105 0.0000 0.0000 0.0000
# 3 61.9746 39.9105 128.7063 0.0000 0.0000 0.0000
# 4 0.0000 0.0000 0.0000 35.9309 0.0000 0.0000
# 5 0.0000 0.0000 0.0000 0.0000 6.3892 0.0000
# 6 0.0000 0.0000 0.0000 0.0000 0.0000 19.2124
#
#
#
# Elastic Compliance Matrix: (Units=1/GPa)
#
#
# Indices 1 2 3 4 5 6 
#
# 1 0.018619 -0.002363 -0.008233 0.000000 0.000000 0.000000
# 2 -0.002363 0.010827 -0.002219 0.000000 0.000000 0.000000
# 3 -0.008233 -0.002219 0.012422 0.000000 0.000000 0.000000
# 4 0.000000 0.000000 0.000000 0.027831 0.000000 0.000000
# 5 0.000000 0.000000 0.000000 0.000000 0.156514 0.000000
# 6 0.000000 0.000000 0.000000 0.000000 0.000000 0.052050
#
#
# Mechanical properties :
#
#
# Convention : Reuss Voigt Hill
#
# Bulk Modulus (GPa) = 61.58624 65.27555 63.43089
# Shear Modulus (GPa) = 16.16530 24.83992 20.50261
#
# Velocity S-wave (km/s) = 2.85325 3.53691 3.21331
# Velocity P-wave (km/s) = 6.47073 7.03940 6.76105
#
# Compressibility (1/GPa) = 0.01623739
#
# Stress axis : x y z
#
# Youngs Moduli (GPa) = 53.70922 92.36587 80.50257
#
# Poissons Ratio (x) = 0.21826 0.66274
# Poissons Ratio (y) = 0.12692 0.17866
# Poissons Ratio (z) = 0.44216 0.20499
#
# Static dielectric constant tensor:
#      x y z
#    x 3.932740 0.000000 0.000000 
#    y 0.000000 3.589110 0.000000 
#    z 0.000000 0.000000 3.460630 
# 
# 
# High freq. dielectric constant tensor:
#      x y z
#    x 1.783400 0.000000 0.000000 
#    y 0.000000 1.774710 0.000000 
#    z 0.000000 0.000000 1.759580 
# 
# From -- ./inp_files/38886.got.cif
#   From: 2010.03.12/outbox.cif.g09.slc.cpg/sg69_20_cif.got.tgz:38886.got - 2010.04.10 23:52:46.
