data_PCOD8284754
_publ_section_title
;
Structure prediction by ZEFSAII (Michael W. Deem and Ramdas Pophale) SiO2 
 PCOD8284754
Probable space group: F M M M
;
_chemical_formula_sum "Si O2"
_cell_formula_units_Z 192
_cell_length_a 26.601108
_cell_length_b 16.379057
_cell_length_c 23.833474
_cell_angle_alpha 90.000000
_cell_angle_beta 90.000000
_cell_angle_gamma 90.000000
_cell_volume 10384.269985
_symmetry_space_group_name_H-M "F M M M"
_symmetry_group_IT_number 69
_symmetry_cell_setting 'orthorhombic'
loop_
_space_group_symop_operation_xyz
x,y,z
-x,-y,z
x,-y,-z
-x,y,-z
-x,-y,-z
x,y,-z
-x,y,z
x,-y,z
x,1/2+y,1/2+z
-x,1/2-y,1/2+z
x,1/2-y,1/2-z
-x,1/2+y,1/2-z
-x,1/2-y,1/2-z
x,1/2+y,1/2-z
-x,1/2+y,1/2+z
x,1/2-y,1/2+z
1/2+x,y,1/2+z
1/2-x,-y,1/2+z
1/2+x,-y,1/2-z
1/2-x,y,1/2-z
1/2-x,-y,1/2-z
1/2+x,y,1/2-z
1/2-x,y,1/2+z
1/2+x,-y,1/2+z
1/2+x,1/2+y,z
1/2-x,1/2-y,z
1/2+x,1/2-y,-z
1/2-x,1/2+y,-z
1/2-x,1/2-y,-z
1/2+x,1/2+y,-z
1/2-x,1/2+y,z
1/2+x,1/2-y,z
loop_
_atom_site_type_symbol
_atom_site_label
_atom_site_fract_x
_atom_site_fract_y
_atom_site_fract_z
Si Si1 0.295116 0.197896 0.093204
Si Si2 0.786295 0.594022 0.800912
Si Si3 0.890695 0.668194 0.219421
Si Si4 0.345629 0.095571 0.000000
Si Si5 0.400107 0.736301 0.886925
Si Si6 0.441818 0.907523 0.680708
Si Si7 0.058164 0.198579 0.500000
O O1 0.250000 0.250000 0.065477
O O2 0.272925 0.154620 0.148371
O O3 0.316147 0.127241 0.053823
O O4 0.340235 0.261042 0.104582
O O5 0.777810 0.500000 0.818359
O O6 0.750000 0.618412 0.750000
O O7 0.844455 0.605975 0.784832
O O8 0.871162 0.750000 0.250000
O O9 0.914093 0.692799 0.158682
O O10 0.933580 0.624147 0.255821
O O11 0.404210 0.121589 0.000000
O O12 0.344006 0.000000 0.000000
O O13 0.411834 0.646418 0.864120
O O14 0.430936 0.748476 0.944307
O O15 0.500000 0.900333 0.666599
O O16 0.422483 0.000000 0.674717
O O17 0.000000 0.169998 0.500000
#
# Coordination Sequence:
#
# PCOD8284754 Si02
#       7
#    32  32  32  16  32  32  16
#     4  10  21  36  58  79 106 145 187 220 266 327
#     4  10  21  32  49  79 111 140 176 223 274 320
#     4   9  19  33  52  75 104 144 184 226 273 329
#     4  10  21  40  60  80 111 141 179 230 276 320
#     4   9  20  36  55  81 109 144 182 231 274 325
#     4  10  20  34  53  78 110 147 184 227 279 329
#     4  10  20  36  61  87 110 142 183 225 273 336
#
# _framework density 18.489504
#
# number of rings (size 3 to 8) (size 9 to 14) (size 15 to 20)
#    0.000    2.333    0.000    1.750    7.000    3.833 
#    0.000    2.083    0.000    1.500    0.000    0.000 
#    0.000    0.000    0.000    0.000    0.000    0.000 
#
# Total GULP energy -595157.576846 kJ/mol
# GULP energy per Si atom -12399.116184 kJ/mol
# Density = 1.844742 g / cm^3
# Si number density = 18.489504 Si / 1000 Ang^3
#
#
#
# Elastic Constant Matrix: (Units=GPa)
#
#
# Indices 1 2 3 4 5 6 
#
# 1 94.5554 62.8488 49.1135 0.0000 0.0000 0.0000
# 2 62.8488 124.9958 51.0331 0.0000 0.0000 0.0000
# 3 49.1135 51.0331 120.6766 0.0000 0.0000 0.0000
# 4 0.0000 0.0000 0.0000 16.7141 0.0000 0.0000
# 5 0.0000 0.0000 0.0000 0.0000 -5.4413 0.0000
# 6 0.0000 0.0000 0.0000 0.0000 0.0000 24.8480
#
#
#
# Elastic Compliance Matrix: (Units=1/GPa)
#
#
# Indices 1 2 3 4 5 6 
#
# 1 0.017408 -0.007083 -0.004089 0.000000 0.000000 0.000000
# 2 -0.007083 0.012552 -0.002425 0.000000 0.000000 0.000000
# 3 -0.004089 -0.002425 0.010977 0.000000 0.000000 0.000000
# 4 0.000000 0.000000 0.000000 0.059830 0.000000 0.000000
# 5 0.000000 0.000000 0.000000 0.000000 -0.183779 0.000000
# 6 0.000000 0.000000 0.000000 0.000000 0.000000 0.040245
#
#
# Mechanical properties :
#
#
# Convention : Reuss Voigt Hill
#
# Bulk Modulus (GPa) = 72.77677 74.02427 73.40052
# Shear Modulus (GPa) = -454.89126 19.03964 -217.92581
#
# Velocity S-wave (km/s) = -15.70226 3.21246 -10.86832
# Velocity P-wave (km/s) = 17.00886 7.34048 10.84939
#
# Compressibility (1/GPa) = 0.01374065
#
# Stress axis : x y z
#
# Youngs Moduli (GPa) = 57.44505 79.66856 91.10324
#
# Poissons Ratio (x) = 0.56431 0.37255
# Poissons Ratio (y) = 0.40690 0.22096
# Poissons Ratio (z) = 0.23491 0.19322
#
# Static dielectric constant tensor:
#      x y z
#    x 3.297750 0.000000 0.000000 
#    y 0.000000 3.275930 0.000000 
#    z 0.000000 0.000000 3.559970 
# 
# 
# High freq. dielectric constant tensor:
#      x y z
#    x 1.713330 0.000000 0.000000 
#    y 0.000000 1.710010 0.000000 
#    z 0.000000 0.000000 1.722120 
# 
# From -- ./inp_files/43202.got.cif
#   From: 2010.03.12/outbox.cif.g09.slc.cpg/sg69_22_cif.got.tgz:43202.got - 2010.04.10 23:52:46.
