data_PCOD8284362
_publ_section_title
;
Structure prediction by ZEFSAII (Michael W. Deem and Ramdas Pophale) SiO2 
 PCOD8284362
Probable space group: F M M M
;
_chemical_formula_sum "Si O2"
_cell_formula_units_Z 160
_cell_length_a 17.211808
_cell_length_b 24.355976
_cell_length_c 20.817142
_cell_angle_alpha 90.000000
_cell_angle_beta 90.000000
_cell_angle_gamma 90.000000
_cell_volume 8726.762062
_symmetry_space_group_name_H-M "F M M M"
_symmetry_group_IT_number 69
_symmetry_cell_setting 'orthorhombic'
loop_
_space_group_symop_operation_xyz
x,y,z
-x,-y,z
x,-y,-z
-x,y,-z
-x,-y,-z
x,y,-z
-x,y,z
x,-y,z
x,1/2+y,1/2+z
-x,1/2-y,1/2+z
x,1/2-y,1/2-z
-x,1/2+y,1/2-z
-x,1/2-y,1/2-z
x,1/2+y,1/2-z
-x,1/2+y,1/2+z
x,1/2-y,1/2+z
1/2+x,y,1/2+z
1/2-x,-y,1/2+z
1/2+x,-y,1/2-z
1/2-x,y,1/2-z
1/2-x,-y,1/2-z
1/2+x,y,1/2-z
1/2-x,y,1/2+z
1/2+x,-y,1/2+z
1/2+x,1/2+y,z
1/2-x,1/2-y,z
1/2+x,1/2-y,-z
1/2-x,1/2+y,-z
1/2-x,1/2-y,-z
1/2+x,1/2+y,-z
1/2-x,1/2+y,z
1/2+x,1/2-y,z
loop_
_atom_site_type_symbol
_atom_site_label
_atom_site_fract_x
_atom_site_fract_y
_atom_site_fract_z
Si Si1 0.588701 0.600986 0.139375
Si Si2 0.147409 0.500000 0.194256
Si Si3 0.908429 0.789428 0.928670
Si Si4 0.663067 0.273707 0.684455
Si Si5 0.185225 0.500000 0.343913
Si Si6 0.912466 0.883114 0.710613
O O1 0.500000 0.583566 0.124056
O O2 0.617584 0.651004 0.095850
O O3 0.646948 0.552171 0.121737
O O4 0.596966 0.617120 0.213236
O O5 0.167929 0.500000 0.268729
O O6 0.222156 0.500000 0.147618
O O7 0.100251 0.556118 0.180442
O O8 0.878916 0.743564 0.880358
O O9 0.000000 0.785762 0.930293
O O10 0.873803 0.779515 0.000000
O O11 0.623354 0.250000 0.750000
O O12 0.750000 0.250000 0.682231
O O13 0.652612 0.340017 0.684992
O O14 0.000000 0.864449 0.691810
#
# Coordination Sequence:
#
# PCOD8284362 Si02
#       6
#    32  16  32  32  16  32
#     4   9  17  30  50  75 107 144 182 219 267 331
#     4   9  19  29  49  79 109 139 179 228 281 326
#     4  10  21  37  55  77 109 148 187 229 277 333
#     4  11  23  34  56  83 114 143 183 231 285 338
#     4   9  17  27  48  72 109 142 177 223 277 321
#     4  10  19  33  53  79 111 145 180 226 278 331
#
# _framework density 18.334406000000001
#
# number of rings (size 3 to 8) (size 9 to 14) (size 15 to 20)
#    0.000    2.200    2.000    1.200    2.800    5.200 
#    0.000    0.500    0.000    2.400    0.000    0.700 
#    0.000    3.200    0.000    0.000    0.000    0.000 
#
# Total GULP energy -495766.444687 kJ/mol
# GULP energy per Si atom -12394.161117 kJ/mol
# Density = 1.829268 g / cm^3
# Si number density = 18.334406 Si / 1000 Ang^3
#
#
#
# Elastic Constant Matrix: (Units=GPa)
#
#
# Indices 1 2 3 4 5 6 
#
# 1 58.4606 45.0483 14.1584 0.0000 0.0000 0.0000
# 2 45.0483 137.5313 48.9767 0.0000 0.0000 0.0000
# 3 14.1584 48.9767 74.2207 0.0000 0.0000 0.0000
# 4 0.0000 0.0000 0.0000 21.9824 0.0000 0.0000
# 5 0.0000 0.0000 0.0000 0.0000 16.5094 0.0000
# 6 0.0000 0.0000 0.0000 0.0000 0.0000 26.8159
#
#
#
# Elastic Compliance Matrix: (Units=1/GPa)
#
#
# Indices 1 2 3 4 5 6 
#
# 1 0.022913 -0.007776 0.000760 0.000000 0.000000 0.000000
# 2 -0.007776 0.012143 -0.006530 0.000000 0.000000 0.000000
# 3 0.000760 -0.006530 0.017637 0.000000 0.000000 0.000000
# 4 0.000000 0.000000 0.000000 0.045491 0.000000 0.000000
# 5 0.000000 0.000000 0.000000 0.000000 0.060571 0.000000
# 6 0.000000 0.000000 0.000000 0.000000 0.000000 0.037291
#
#
# Mechanical properties :
#
#
# Convention : Reuss Voigt Hill
#
# Bulk Modulus (GPa) = 39.05813 54.06438 46.56126
# Shear Modulus (GPa) = 21.58210 23.86349 22.72280
#
# Velocity S-wave (km/s) = 3.43466 3.61164 3.52426
# Velocity P-wave (km/s) = 6.08923 6.85156 6.48161
#
# Compressibility (1/GPa) = 0.02560286
#
# Stress axis : x y z
#
# Youngs Moduli (GPa) = 43.64248 82.34876 56.69825
#
# Poissons Ratio (x) = 0.64035 -0.04310
# Poissons Ratio (y) = 0.33937 0.37023
# Poissons Ratio (z) = -0.03318 0.53773
#
# Static dielectric constant tensor:
#      x y z
#    x 3.392890 0.000000 0.000000 
#    y 0.000000 3.520230 0.000000 
#    z 0.000000 0.000000 3.278720 
# 
# 
# High freq. dielectric constant tensor:
#      x y z
#    x 1.703810 0.000000 0.000000 
#    y 0.000000 1.719780 0.000000 
#    z 0.000000 0.000000 1.664220 
# 
# From -- ./inp_files/24877.got.cif
#   From: 2010.03.12/outbox.cif.g09.slc.cpg/sg69_13_cif.got.tgz:24877.got - 2010.04.10 23:52:46.
