data_PCOD8284250
_publ_section_title
;
Structure prediction by ZEFSAII (Michael W. Deem and Ramdas Pophale) SiO2 
 PCOD8284250
Probable space group: F M M M
;
_chemical_formula_sum "Si O2"
_cell_formula_units_Z 192
_cell_length_a 17.095736
_cell_length_b 31.233983
_cell_length_c 19.368099
_cell_angle_alpha 90.000000
_cell_angle_beta 90.000000
_cell_angle_gamma 90.000000
_cell_volume 10341.943685
_symmetry_space_group_name_H-M "F M M M"
_symmetry_group_IT_number 69
_symmetry_cell_setting 'orthorhombic'
loop_
_space_group_symop_operation_xyz
x,y,z
-x,-y,z
x,-y,-z
-x,y,-z
-x,-y,-z
x,y,-z
-x,y,z
x,-y,z
x,1/2+y,1/2+z
-x,1/2-y,1/2+z
x,1/2-y,1/2-z
-x,1/2+y,1/2-z
-x,1/2-y,1/2-z
x,1/2+y,1/2-z
-x,1/2+y,1/2+z
x,1/2-y,1/2+z
1/2+x,y,1/2+z
1/2-x,-y,1/2+z
1/2+x,-y,1/2-z
1/2-x,y,1/2-z
1/2-x,-y,1/2-z
1/2+x,y,1/2-z
1/2-x,y,1/2+z
1/2+x,-y,1/2+z
1/2+x,1/2+y,z
1/2-x,1/2-y,z
1/2+x,1/2-y,-z
1/2-x,1/2+y,-z
1/2-x,1/2-y,-z
1/2+x,1/2+y,-z
1/2-x,1/2+y,z
1/2+x,1/2-y,z
loop_
_atom_site_type_symbol
_atom_site_label
_atom_site_fract_x
_atom_site_fract_y
_atom_site_fract_z
Si Si1 0.811962 0.950500 0.000000
Si Si2 0.411110 0.907235 0.611114
Si Si3 0.161337 0.706945 0.278294
Si Si4 0.859042 0.450190 0.000000
Si Si5 0.088274 0.451349 0.853212
Si Si6 0.589894 0.190245 0.578151
Si Si7 0.842143 0.385833 0.247775
O O1 0.859486 0.939536 0.068026
O O2 0.726586 0.927370 0.000000
O O3 0.797042 0.000000 0.000000
O O4 0.500000 0.923425 0.610994
O O5 0.404053 0.860728 0.577619
O O6 0.377806 0.910391 0.687726
O O7 0.118751 0.750000 0.250000
O O8 0.250000 0.708617 0.250000
O O9 0.149357 0.707790 0.362345
O O10 0.123045 0.663063 0.247631
O O11 0.909223 0.437912 0.933176
O O12 0.843793 0.500000 0.000000
O O13 0.121206 0.500000 0.841043
O O14 0.138219 0.414381 0.817754
O O15 0.000000 0.449206 0.826227
O O16 0.613239 0.206013 0.500000
O O17 0.500000 0.204047 0.594775
O O18 0.750000 0.381569 0.250000
#
# Coordination Sequence:
#
# PCOD8284250 Si02
#       7
#    16  32  32  16  32  32  32
#     4  11  21  31  47  73 106 137 168 215 269 316
#     4  10  19  32  48  71 102 136 174 214 257 316
#     4   9  19  36  56  80 113 143 181 224 272 330
#     4   9  19  35  53  73  98 135 182 221 261 318
#     4  10  20  35  55  77 103 139 182 224 265 316
#     4   9  17  32  55  78 100 137 185 223 259 317
#     4  10  20  34  55  79 107 140 178 221 268 319
#
# _framework density 18.565176000000001
#
# number of rings (size 3 to 8) (size 9 to 14) (size 15 to 20)
#    0.000    2.333    0.833    2.000    0.000    3.667 
#    0.000    1.667    1.833    0.000    0.000    0.000 
#    0.000    0.000    0.000    0.000    0.000    0.000 
#
# Total GULP energy -594680.874960 kJ/mol
# GULP energy per Si atom -12389.184895 kJ/mol
# Density = 1.852292 g / cm^3
# Si number density = 18.565176 Si / 1000 Ang^3
#
#
#
# Elastic Constant Matrix: (Units=GPa)
#
#
# Indices 1 2 3 4 5 6 
#
# 1 68.0710 17.9825 26.4346 0.0000 0.0000 0.0000
# 2 17.9825 91.4765 52.5910 0.0000 0.0000 0.0000
# 3 26.4346 52.5910 119.2078 0.0000 0.0000 0.0000
# 4 0.0000 0.0000 0.0000 27.7211 0.0000 0.0000
# 5 0.0000 0.0000 0.0000 0.0000 36.2856 0.0000
# 6 0.0000 0.0000 0.0000 0.0000 0.0000 12.4536
#
#
#
# Elastic Compliance Matrix: (Units=1/GPa)
#
#
# Indices 1 2 3 4 5 6 
#
# 1 0.016227 -0.001502 -0.002936 0.000000 0.000000 0.000000
# 2 -0.001502 0.014786 -0.006190 0.000000 0.000000 0.000000
# 3 -0.002936 -0.006190 0.011771 0.000000 0.000000 0.000000
# 4 0.000000 0.000000 0.000000 0.036074 0.000000 0.000000
# 5 0.000000 0.000000 0.000000 0.000000 0.027559 0.000000
# 6 0.000000 0.000000 0.000000 0.000000 0.000000 0.080298
#
#
# Mechanical properties :
#
#
# Convention : Reuss Voigt Hill
#
# Bulk Modulus (GPa) = 46.45117 52.53018 49.49067
# Shear Modulus (GPa) = 23.23997 27.40852 25.32425
#
# Velocity S-wave (km/s) = 3.54192 3.84649 3.69734
# Velocity P-wave (km/s) = 6.46544 6.93424 6.70394
#
# Compressibility (1/GPa) = 0.02152798
#
# Stress axis : x y z
#
# Youngs Moduli (GPa) = 61.62395 67.63269 84.95785
#
# Poissons Ratio (x) = 0.10160 0.24942
# Poissons Ratio (y) = 0.09257 0.52588
# Poissons Ratio (z) = 0.18091 0.41864
#
# Static dielectric constant tensor:
#      x y z
#    x 3.373670 0.000000 0.000000 
#    y 0.000000 3.495860 0.000000 
#    z 0.000000 0.000000 3.543210 
# 
# 
# High freq. dielectric constant tensor:
#      x y z
#    x 1.713260 0.000000 0.000000 
#    y 0.000000 1.699940 0.000000 
#    z 0.000000 0.000000 1.725230 
# 
# From -- ./inp_files/23711.got.cif
#   From: 2010.03.12/outbox.cif.g09.slc.cpg/sg69_12_cif.got.tgz:23711.got - 2010.04.10 23:52:46.
