data_PCOD8284873
_publ_section_title
;
Structure prediction by ZEFSAII (Michael W. Deem and Ramdas Pophale) SiO2 
 PCOD8284873
Probable space group: F M M M
;
_chemical_formula_sum "Si O2"
_cell_formula_units_Z 192
_cell_length_a 27.822718
_cell_length_b 19.813685
_cell_length_c 18.969144
_cell_angle_alpha 90.000000
_cell_angle_beta 90.000000
_cell_angle_gamma 90.000000
_cell_volume 10457.130831
_symmetry_space_group_name_H-M "F M M M"
_symmetry_group_IT_number 69
_symmetry_cell_setting 'orthorhombic'
loop_
_space_group_symop_operation_xyz
x,y,z
-x,-y,z
x,-y,-z
-x,y,-z
-x,-y,-z
x,y,-z
-x,y,z
x,-y,z
x,1/2+y,1/2+z
-x,1/2-y,1/2+z
x,1/2-y,1/2-z
-x,1/2+y,1/2-z
-x,1/2-y,1/2-z
x,1/2+y,1/2-z
-x,1/2+y,1/2+z
x,1/2-y,1/2+z
1/2+x,y,1/2+z
1/2-x,-y,1/2+z
1/2+x,-y,1/2-z
1/2-x,y,1/2-z
1/2-x,-y,1/2-z
1/2+x,y,1/2-z
1/2-x,y,1/2+z
1/2+x,-y,1/2+z
1/2+x,1/2+y,z
1/2-x,1/2-y,z
1/2+x,1/2-y,-z
1/2-x,1/2+y,-z
1/2-x,1/2-y,-z
1/2+x,1/2+y,-z
1/2-x,1/2+y,z
1/2+x,1/2-y,z
loop_
_atom_site_type_symbol
_atom_site_label
_atom_site_fract_x
_atom_site_fract_y
_atom_site_fract_z
Si Si1 0.389720 0.763968 0.079782
Si Si2 0.197828 0.223257 0.671613
Si Si3 0.697985 0.424097 0.716340
Si Si4 0.055267 0.687116 0.797365
Si Si5 0.444746 0.374253 0.078744
Si Si6 0.399031 0.925909 0.710331
O O1 0.338314 0.745218 0.114072
O O2 0.414402 0.819438 0.130375
O O3 0.425770 0.701564 0.080857
O O4 0.382937 0.791231 0.000000
O O5 0.184495 0.250000 0.750000
O O6 0.250000 0.250000 0.650202
O O7 0.194701 0.140903 0.664718
O O8 0.691267 0.500000 0.681543
O O9 0.750000 0.420556 0.750000
O O10 0.657422 0.411994 0.776177
O O11 0.073005 0.750000 0.750000
O O12 0.064999 0.620954 0.752959
O O13 0.000000 0.693776 0.817297
O O14 0.500000 0.374436 0.105299
O O15 0.410614 0.419520 0.127530
O O16 0.441318 0.403973 0.000000
O O17 0.412317 0.000000 0.736314
#
# Coordination Sequence:
#
# PCOD8284873 Si02
#       6
#    32  32  32  32  32  32
#     4  11  22  36  56  83 118 153 188 232 285 340
#     4  11  20  34  60  88 113 144 186 239 288 333
#     4  10  20  35  56  83 112 144 184 230 284 343
#     4  11  21  35  58  82 110 148 192 241 284 329
#     4  10  21  36  54  81 120 161 193 229 287 353
#     4  11  22  36  58  86 115 150 191 239 287 336
#
# _framework density 18.360676000000002
#
# number of rings (size 3 to 8) (size 9 to 14) (size 15 to 20)
#    0.000    1.333    5.000    2.500    0.000    3.000 
#    0.000    0.833    0.000    2.000    0.000    1.167 
#    0.000    0.000    0.000    0.000    0.000    0.000 
#
# Total GULP energy -594908.947583 kJ/mol
# GULP energy per Si atom -12393.936408 kJ/mol
# Density = 1.831889 g / cm^3
# Si number density = 18.360676 Si / 1000 Ang^3
#
#
#
# Elastic Constant Matrix: (Units=GPa)
#
#
# Indices 1 2 3 4 5 6 
#
# 1 122.4844 24.9979 56.9286 0.0000 0.0000 0.0000
# 2 24.9979 95.5239 22.5727 0.0000 0.0000 0.0000
# 3 56.9286 22.5727 107.4662 0.0000 0.0000 0.0000
# 4 0.0000 0.0000 0.0000 17.3575 0.0000 0.0000
# 5 0.0000 0.0000 0.0000 0.0000 24.1889 0.0000
# 6 0.0000 0.0000 0.0000 0.0000 0.0000 11.1904
#
#
#
# Elastic Compliance Matrix: (Units=1/GPa)
#
#
# Indices 1 2 3 4 5 6 
#
# 1 0.011055 -0.001588 -0.005523 0.000000 0.000000 0.000000
# 2 -0.001588 0.011243 -0.001520 0.000000 0.000000 0.000000
# 3 -0.005523 -0.001520 0.012550 0.000000 0.000000 0.000000
# 4 0.000000 0.000000 0.000000 0.057612 0.000000 0.000000
# 5 0.000000 0.000000 0.000000 0.000000 0.041341 0.000000
# 6 0.000000 0.000000 0.000000 0.000000 0.000000 0.089362
#
#
# Mechanical properties :
#
#
# Convention : Reuss Voigt Hill
#
# Bulk Modulus (GPa) = 56.86184 59.38590 58.12387
# Shear Modulus (GPa) = 20.30135 25.27905 22.79020
#
# Velocity S-wave (km/s) = 3.32881 3.71456 3.52696
# Velocity P-wave (km/s) = 6.76840 7.12822 6.95064
#
# Compressibility (1/GPa) = 0.01758649
#
# Stress axis : x y z
#
# Youngs Moduli (GPa) = 90.45413 88.94081 79.67969
#
# Poissons Ratio (x) = 0.14124 0.44006
# Poissons Ratio (y) = 0.14364 0.12114
# Poissons Ratio (z) = 0.49956 0.13522
#
# Static dielectric constant tensor:
#      x y z
#    x 3.552960 0.000000 0.000000 
#    y 0.000000 3.591120 0.000000 
#    z 0.000000 0.000000 3.459320 
# 
# 
# High freq. dielectric constant tensor:
#      x y z
#    x 1.733920 0.000000 0.000000 
#    y 0.000000 1.705340 0.000000 
#    z 0.000000 0.000000 1.679970 
# 
# From -- ./inp_files/33536.got.cif
#   From: 2010.03.12/outbox.cif.g09.slc.cpg/sg69_17_cif.got.tgz:33536.got - 2010.04.10 23:52:46.
