data_PCOD8284615
_publ_section_title
;
Structure prediction by ZEFSAII (Michael W. Deem and Ramdas Pophale) SiO2 
 PCOD8284615
Probable space group: F M M M
;
_chemical_formula_sum "Si O2"
_cell_formula_units_Z 144
_cell_length_a 9.121666
_cell_length_b 32.181397
_cell_length_c 26.864625
_cell_angle_alpha 90.000000
_cell_angle_beta 90.000000
_cell_angle_gamma 90.000000
_cell_volume 7886.055726
_symmetry_space_group_name_H-M "F M M M"
_symmetry_group_IT_number 69
_symmetry_cell_setting 'orthorhombic'
loop_
_space_group_symop_operation_xyz
x,y,z
-x,-y,z
x,-y,-z
-x,y,-z
-x,-y,-z
x,y,-z
-x,y,z
x,-y,z
x,1/2+y,1/2+z
-x,1/2-y,1/2+z
x,1/2-y,1/2-z
-x,1/2+y,1/2-z
-x,1/2-y,1/2-z
x,1/2+y,1/2-z
-x,1/2+y,1/2+z
x,1/2-y,1/2+z
1/2+x,y,1/2+z
1/2-x,-y,1/2+z
1/2+x,-y,1/2-z
1/2-x,y,1/2-z
1/2-x,-y,1/2-z
1/2+x,y,1/2-z
1/2-x,y,1/2+z
1/2+x,-y,1/2+z
1/2+x,1/2+y,z
1/2-x,1/2-y,z
1/2+x,1/2-y,-z
1/2-x,1/2+y,-z
1/2-x,1/2-y,-z
1/2+x,1/2+y,-z
1/2-x,1/2+y,z
1/2+x,1/2-y,z
loop_
_atom_site_type_symbol
_atom_site_label
_atom_site_fract_x
_atom_site_fract_y
_atom_site_fract_z
Si Si1 0.332087 0.132256 0.055484
Si Si2 0.671144 0.161957 0.701092
Si Si3 0.671498 0.000000 0.802580
Si Si4 0.829155 0.207275 0.899646
Si Si5 0.170470 0.086884 0.653367
O O1 0.500000 0.146651 0.062127
O O2 0.230768 0.172208 0.063455
O O3 0.294318 0.096173 0.095292
O O4 0.303721 0.114503 0.000000
O O5 0.500000 0.156765 0.711318
O O6 0.750000 0.179989 0.750000
O O7 0.703843 0.194319 0.657110
O O8 0.736091 0.116872 0.688527
O O9 0.750000 0.000000 0.750000
O O10 0.718373 0.039921 0.834981
O O11 0.500000 0.000000 0.791711
O O12 0.750000 0.250000 0.912031
O O13 0.000000 0.212749 0.909750
O O14 0.000000 0.094419 0.665398
#
# Coordination Sequence:
#
# PCOD8284615 Si02
#       5
#    32  32  16  32  32
#     4   9  18  34  55  75  97 129 166 204 249 297
#     4  10  20  33  50  72  98 131 168 204 246 295
#     4  10  20  32  49  75 105 135 166 202 243 288
#     4  10  21  35  51  73 100 129 164 206 249 295
#     4   9  18  33  51  73 102 132 165 205 246 291
#
# _framework density 18.260078
#
# number of rings (size 3 to 8) (size 9 to 14) (size 15 to 20)
#    0.000    2.444    0.000    2.000    0.000    6.667 
#    0.000    2.778    0.000    3.333    0.000    0.000 
#    0.000    8.000    0.000    0.000    0.000    0.000 
#
# Total GULP energy -446464.524789 kJ/mol
# GULP energy per Si atom -12401.792355 kJ/mol
# Density = 1.821852 g / cm^3
# Si number density = 18.260078 Si / 1000 Ang^3
#
#
#
# Elastic Constant Matrix: (Units=GPa)
#
#
# Indices 1 2 3 4 5 6 
#
# 1 66.1681 34.8652 35.9204 0.0000 0.0000 0.0000
# 2 34.8652 109.4119 39.3993 0.0000 0.0000 0.0000
# 3 35.9204 39.3993 115.9905 0.0000 0.0000 0.0000
# 4 0.0000 0.0000 0.0000 14.2874 0.0000 0.0000
# 5 0.0000 0.0000 0.0000 0.0000 26.0078 0.0000
# 6 0.0000 0.0000 0.0000 0.0000 0.0000 24.5431
#
#
#
# Elastic Compliance Matrix: (Units=1/GPa)
#
#
# Indices 1 2 3 4 5 6 
#
# 1 0.020123 -0.004749 -0.004618 0.000000 0.000000 0.000000
# 2 -0.004749 0.011534 -0.002447 0.000000 0.000000 0.000000
# 3 -0.004618 -0.002447 0.010883 0.000000 0.000000 0.000000
# 4 0.000000 0.000000 0.000000 0.069992 0.000000 0.000000
# 5 0.000000 0.000000 0.000000 0.000000 0.038450 0.000000
# 6 0.000000 0.000000 0.000000 0.000000 0.000000 0.040745
#
#
# Mechanical properties :
#
#
# Convention : Reuss Voigt Hill
#
# Bulk Modulus (GPa) = 52.88142 56.88225 54.88184
# Shear Modulus (GPa) = 22.55712 25.06004 23.80858
#
# Velocity S-wave (km/s) = 3.51853 3.70860 3.61482
# Velocity P-wave (km/s) = 6.74757 7.03968 6.89517
#
# Compressibility (1/GPa) = 0.01891023
#
# Stress axis : x y z
#
# Youngs Moduli (GPa) = 49.69515 86.69721 91.88700
#
# Poissons Ratio (x) = 0.41174 0.42438
# Poissons Ratio (y) = 0.23601 0.22487
# Poissons Ratio (z) = 0.22952 0.21217
#
# Static dielectric constant tensor:
#      x y z
#    x 3.412540 0.000000 0.000000 
#    y 0.000000 3.274850 0.000000 
#    z 0.000000 0.000000 3.500480 
# 
# 
# High freq. dielectric constant tensor:
#      x y z
#    x 1.711170 0.000000 0.000000 
#    y 0.000000 1.692490 0.000000 
#    z 0.000000 0.000000 1.712400 
# 
# From -- ./inp_files/5533.got.cif
#   From: 2010.03.12/outbox.cif.g09.slc.cpg/sg69_3_cif.got.tgz:5533.got - 2010.04.10 23:52:46.
