data_PCOD8284993
_publ_section_title
;
Structure prediction by ZEFSAII (Michael W. Deem and Ramdas Pophale) SiO2 
 PCOD8284993
Probable space group: F M M M
;
_chemical_formula_sum "Si O2"
_cell_formula_units_Z 160
_cell_length_a 19.946970
_cell_length_b 24.802253
_cell_length_c 18.463608
_cell_angle_alpha 90.000000
_cell_angle_beta 90.000000
_cell_angle_gamma 90.000000
_cell_volume 9134.497029
_symmetry_space_group_name_H-M "F M M M"
_symmetry_group_IT_number 69
_symmetry_cell_setting 'orthorhombic'
loop_
_space_group_symop_operation_xyz
x,y,z
-x,-y,z
x,-y,-z
-x,y,-z
-x,-y,-z
x,y,-z
-x,y,z
x,-y,z
x,1/2+y,1/2+z
-x,1/2-y,1/2+z
x,1/2-y,1/2-z
-x,1/2+y,1/2-z
-x,1/2-y,1/2-z
x,1/2+y,1/2-z
-x,1/2+y,1/2+z
x,1/2-y,1/2+z
1/2+x,y,1/2+z
1/2-x,-y,1/2+z
1/2+x,-y,1/2-z
1/2-x,y,1/2-z
1/2-x,-y,1/2-z
1/2+x,y,1/2-z
1/2-x,y,1/2+z
1/2+x,-y,1/2+z
1/2+x,1/2+y,z
1/2-x,1/2-y,z
1/2+x,1/2-y,-z
1/2-x,1/2+y,-z
1/2-x,1/2-y,-z
1/2+x,1/2+y,-z
1/2-x,1/2+y,z
1/2+x,1/2-y,z
loop_
_atom_site_type_symbol
_atom_site_label
_atom_site_fract_x
_atom_site_fract_y
_atom_site_fract_z
Si Si1 0.422696 0.400615 0.831320
Si Si2 0.729688 0.000000 0.834313
Si Si3 0.577158 0.793689 0.583644
Si Si4 0.181786 0.393016 0.206652
Si Si5 0.131456 0.000000 0.914281
Si Si6 0.322977 0.727586 0.329300
O O1 0.500000 0.401127 0.808270
O O2 0.402349 0.346254 0.871822
O O3 0.379891 0.406148 0.758898
O O4 0.408308 0.448364 0.886633
O O5 0.750000 0.000000 0.750000
O O6 0.687725 0.944602 0.847916
O O7 0.792753 0.000000 0.886602
O O8 0.592074 0.804941 0.500000
O O9 0.500000 0.777742 0.596332
O O10 0.623081 0.745505 0.611742
O O11 0.250000 0.385640 0.250000
O O12 0.172144 0.337055 0.164770
O O13 0.131648 0.000000 0.000000
O O14 0.342838 0.750000 0.250000
O O15 0.250000 0.750000 0.351004
#
# Coordination Sequence:
#
# PCOD8284993 Si02
#       6
#    32  16  32  32  16  32
#     4  11  21  34  54  81 112 148 182 219 266 326
#     4  10  20  36  60  75 105 149 184 224 274 312
#     4  10  22  38  53  76 114 151 179 216 272 330
#     4  11  18  36  58  79 106 144 183 227 275 311
#     4  12  23  35  54  82 112 149 184 218 267 331
#     4  11  20  33  56  82 109 137 182 231 270 317
#
# _framework density 17.516017000000002
#
# number of rings (size 3 to 8) (size 9 to 14) (size 15 to 20)
#    0.000    1.200    8.000    0.900    0.000    3.200 
#    0.000    1.000    0.000    0.000    0.000    0.000 
#    0.000    2.400    0.000    0.000    0.000    0.000 
#
# Total GULP energy -496009.287774 kJ/mol
# GULP energy per Si atom -12400.232194 kJ/mol
# Density = 1.747615 g / cm^3
# Si number density = 17.516017 Si / 1000 Ang^3
#
#
#
# Elastic Constant Matrix: (Units=GPa)
#
#
# Indices 1 2 3 4 5 6 
#
# 1 83.1404 34.7462 31.6863 0.0000 0.0000 0.0000
# 2 34.7462 136.7939 11.2211 0.0000 0.0000 0.0000
# 3 31.6863 11.2211 22.9549 0.0000 0.0000 0.0000
# 4 0.0000 0.0000 0.0000 -16.4775 0.0000 0.0000
# 5 0.0000 0.0000 0.0000 0.0000 26.2707 0.0000
# 6 0.0000 0.0000 0.0000 0.0000 0.0000 29.3040
#
#
#
# Elastic Compliance Matrix: (Units=1/GPa)
#
#
# Indices 1 2 3 4 5 6 
#
# 1 0.027339 -0.004009 -0.035779 0.000000 0.000000 0.000000
# 2 -0.004009 0.008204 0.001524 0.000000 0.000000 0.000000
# 3 -0.035779 0.001524 0.092206 0.000000 0.000000 0.000000
# 4 0.000000 0.000000 0.000000 -0.060689 0.000000 0.000000
# 5 0.000000 0.000000 0.000000 0.000000 0.038065 0.000000
# 6 0.000000 0.000000 0.000000 0.000000 0.000000 0.034125
#
#
# Mechanical properties :
#
#
# Convention : Reuss Voigt Hill
#
# Bulk Modulus (GPa) = 19.52287 44.24403 31.88345
# Shear Modulus (GPa) = 21.47284 18.83514 20.15399
#
# Velocity S-wave (km/s) = 3.50508 3.28275 3.39573
# Velocity P-wave (km/s) = 5.24888 6.29941 5.79799
#
# Compressibility (1/GPa) = 0.05122199
#
# Stress axis : x y z
#
# Youngs Moduli (GPa) = 36.57733 121.89721 10.84523
#
# Poissons Ratio (x) = 0.48874 0.38803
# Poissons Ratio (y) = 0.14665 -0.01653
# Poissons Ratio (z) = 1.30868 -0.18581
#
# Static dielectric constant tensor:
#      x y z
#    x 3.188720 0.000000 0.000000 
#    y 0.000000 3.865030 0.000000 
#    z 0.000000 0.000000 2.959090 
# 
# 
# High freq. dielectric constant tensor:
#      x y z
#    x 1.679060 0.000000 0.000000 
#    y 0.000000 1.698270 0.000000 
#    z 0.000000 0.000000 1.640430 
# 
# From -- ./inp_files/31027.got.cif
#   From: 2010.03.12/outbox.cif.g09.slc.cpg/sg69_16_cif.got.tgz:31027.got - 2010.04.10 23:52:46.
