data_PCOD8284245
_publ_section_title
;
Structure prediction by ZEFSAII (Michael W. Deem and Ramdas Pophale) SiO2 
 PCOD8284245
Probable space group: F M M M
;
_chemical_formula_sum "Si O2"
_cell_formula_units_Z 208
_cell_length_a 27.008835
_cell_length_b 17.732843
_cell_length_c 23.420310
_cell_angle_alpha 90.000000
_cell_angle_beta 90.000000
_cell_angle_gamma 90.000000
_cell_volume 11217.003619
_symmetry_space_group_name_H-M "F M M M"
_symmetry_group_IT_number 69
_symmetry_cell_setting 'orthorhombic'
loop_
_space_group_symop_operation_xyz
x,y,z
-x,-y,z
x,-y,-z
-x,y,-z
-x,-y,-z
x,y,-z
-x,y,z
x,-y,z
x,1/2+y,1/2+z
-x,1/2-y,1/2+z
x,1/2-y,1/2-z
-x,1/2+y,1/2-z
-x,1/2-y,1/2-z
x,1/2+y,1/2-z
-x,1/2+y,1/2+z
x,1/2-y,1/2+z
1/2+x,y,1/2+z
1/2-x,-y,1/2+z
1/2+x,-y,1/2-z
1/2-x,y,1/2-z
1/2-x,-y,1/2-z
1/2+x,y,1/2-z
1/2-x,y,1/2+z
1/2+x,-y,1/2+z
1/2+x,1/2+y,z
1/2-x,1/2-y,z
1/2+x,1/2-y,-z
1/2-x,1/2+y,-z
1/2-x,1/2-y,-z
1/2+x,1/2+y,-z
1/2-x,1/2+y,z
1/2+x,1/2-y,z
loop_
_atom_site_type_symbol
_atom_site_label
_atom_site_fract_x
_atom_site_fract_y
_atom_site_fract_z
Si Si1 0.500000 0.418382 0.933179
Si Si2 0.862010 0.913812 0.843491
Si Si3 0.308283 0.664780 0.742414
Si Si4 0.053341 0.413749 0.738363
Si Si5 0.941743 0.843319 0.433174
Si Si6 0.878397 0.588627 0.837062
Si Si7 0.094432 0.323677 0.565734
O O1 0.500000 0.500000 0.901928
O O2 0.451302 0.374637 0.915806
O O3 0.500000 0.430319 0.000000
O O4 0.825932 0.889673 0.793058
O O5 0.918057 0.906522 0.820842
O O6 0.859110 0.855720 0.897226
O O7 0.849694 0.000000 0.862015
O O8 0.328434 0.750000 0.750000
O O9 0.250000 0.663653 0.750000
O O10 0.327132 0.632359 0.680288
O O11 0.046017 0.500000 0.755792
O O12 0.083391 0.377146 0.790637
O O13 0.000000 0.373501 0.731632
O O14 0.936592 0.862947 0.500000
O O15 0.903649 0.896802 0.398679
O O16 0.921715 0.760498 0.419559
O O17 0.000000 0.852197 0.415301
O O18 0.867475 0.500000 0.831318
O O19 0.109756 0.331521 0.500000
#
# Coordination Sequence:
#
# PCOD8284245 Si02
#       7
#    16  32  32  32  32  32  32
#     4   9  16  26  42  64  92 135 183 217 247 285
#     4  10  20  31  49  78 106 136 177 220 265 318
#     4  10  21  39  61  82 105 134 170 216 276 342
#     4   8  15  27  42  65  99 133 164 205 254 301
#     4  10  20  34  52  76 111 154 193 225 262 313
#     4  10  20  34  54  80 107 137 177 225 272 318
#     4  10  19  32  47  69 107 148 184 221 257 304
#
# _framework density 18.543277
#
# number of rings (size 3 to 8) (size 9 to 14) (size 15 to 20)
#    0.000    2.385    0.769    3.231    1.077    3.385 
#    0.000    0.769    0.000    6.000    0.000    6.462 
#    0.000    0.000    0.000    0.000    0.000    0.000 
#
# Total GULP energy -644221.164259 kJ/mol
# GULP energy per Si atom -12388.868543 kJ/mol
# Density = 1.850107 g / cm^3
# Si number density = 18.543277 Si / 1000 Ang^3
#
#
#
# Elastic Constant Matrix: (Units=GPa)
#
#
# Indices 1 2 3 4 5 6 
#
# 1 65.6371 31.0516 25.1230 0.0000 0.0000 0.0000
# 2 31.0516 88.4731 31.0476 0.0000 0.0000 0.0000
# 3 25.1230 31.0476 73.5481 0.0000 0.0000 0.0000
# 4 0.0000 0.0000 0.0000 31.8799 0.0000 0.0000
# 5 0.0000 0.0000 0.0000 0.0000 20.9698 0.0000
# 6 0.0000 0.0000 0.0000 0.0000 0.0000 22.5237
#
#
#
# Elastic Compliance Matrix: (Units=1/GPa)
#
#
# Indices 1 2 3 4 5 6 
#
# 1 0.019414 -0.005267 -0.004408 0.000000 0.000000 0.000000
# 2 -0.005267 0.014697 -0.004405 0.000000 0.000000 0.000000
# 3 -0.004408 -0.004405 0.016962 0.000000 0.000000 0.000000
# 4 0.000000 0.000000 0.000000 0.031368 0.000000 0.000000
# 5 0.000000 0.000000 0.000000 0.000000 0.047688 0.000000
# 6 0.000000 0.000000 0.000000 0.000000 0.000000 0.044398
#
#
# Mechanical properties :
#
#
# Convention : Reuss Voigt Hill
#
# Bulk Modulus (GPa) = 43.64380 44.67808 44.16094
# Shear Modulus (GPa) = 23.77274 24.43708 24.10491
#
# Velocity S-wave (km/s) = 3.58441 3.63415 3.60936
# Velocity P-wave (km/s) = 6.38106 6.46186 6.42159
#
# Compressibility (1/GPa) = 0.02291276
#
# Stress axis : x y z
#
# Youngs Moduli (GPa) = 51.50857 68.03957 58.95538
#
# Poissons Ratio (x) = 0.35836 0.25989
# Poissons Ratio (y) = 0.27129 0.25971
# Poissons Ratio (z) = 0.22706 0.29973
#
# Static dielectric constant tensor:
#      x y z
#    x 3.294750 0.000000 0.000000 
#    y 0.000000 3.479930 0.000000 
#    z 0.000000 0.000000 3.333950 
# 
# 
# High freq. dielectric constant tensor:
#      x y z
#    x 1.687900 0.000000 0.000000 
#    y 0.000000 1.718780 0.000000 
#    z 0.000000 0.000000 1.716060 
# 
# From -- ./inp_files/38527.got.cif
#   From: 2010.03.12/outbox.cif.g09.slc.cpg/sg69_20_cif.got.tgz:38527.got - 2010.04.10 23:52:46.
