data_PCOD8284764
_publ_section_title
;
Structure prediction by ZEFSAII (Michael W. Deem and Ramdas Pophale) SiO2 
 PCOD8284764
Probable space group: F M M M
;
_chemical_formula_sum "Si O2"
_cell_formula_units_Z 192
_cell_length_a 27.690387
_cell_length_b 20.986113
_cell_length_c 17.839168
_cell_angle_alpha 90.000000
_cell_angle_beta 90.000000
_cell_angle_gamma 90.000000
_cell_volume 10366.582970
_symmetry_space_group_name_H-M "F M M M"
_symmetry_group_IT_number 69
_symmetry_cell_setting 'orthorhombic'
loop_
_space_group_symop_operation_xyz
x,y,z
-x,-y,z
x,-y,-z
-x,y,-z
-x,-y,-z
x,y,-z
-x,y,z
x,-y,z
x,1/2+y,1/2+z
-x,1/2-y,1/2+z
x,1/2-y,1/2-z
-x,1/2+y,1/2-z
-x,1/2-y,1/2-z
x,1/2+y,1/2-z
-x,1/2+y,1/2+z
x,1/2-y,1/2+z
1/2+x,y,1/2+z
1/2-x,-y,1/2+z
1/2+x,-y,1/2-z
1/2-x,y,1/2-z
1/2-x,-y,1/2-z
1/2+x,y,1/2-z
1/2-x,y,1/2+z
1/2+x,-y,1/2+z
1/2+x,1/2+y,z
1/2-x,1/2-y,z
1/2+x,1/2-y,-z
1/2-x,1/2+y,-z
1/2-x,1/2-y,-z
1/2+x,1/2+y,-z
1/2-x,1/2+y,z
1/2+x,1/2-y,z
loop_
_atom_site_type_symbol
_atom_site_label
_atom_site_fract_x
_atom_site_fract_y
_atom_site_fract_z
Si Si1 0.374306 0.730890 0.412941
Si Si2 0.375457 0.644055 0.176122
Si Si3 0.447815 0.430380 0.912227
Si Si4 0.229038 0.815726 0.585196
Si Si5 0.445815 0.313760 0.297245
Si Si6 0.277875 0.071690 0.326522
O O1 0.383267 0.751513 0.500000
O O2 0.359140 0.787538 0.355736
O O3 0.329104 0.682608 0.408719
O O4 0.422818 0.698252 0.379825
O O5 0.406714 0.618364 0.107871
O O6 0.408395 0.642305 0.251042
O O7 0.330543 0.598871 0.191761
O O8 0.500000 0.405190 0.883079
O O9 0.437500 0.500000 0.876754
O O10 0.449178 0.436937 0.000000
O O11 0.247185 0.816900 0.500000
O O12 0.250000 0.750000 0.622034
O O13 0.249498 0.880076 0.620312
O O14 0.500000 0.343449 0.307220
O O15 0.451000 0.250000 0.250000
O O16 0.250000 0.066947 0.250000
O O17 0.281565 0.000000 0.361899
#
# Coordination Sequence:
#
# PCOD8284764 Si02
#       6
#    32  32  32  32  32  32
#     4  10  20  34  54  79 105 137 182 230 279 335
#     4  11  19  33  54  76 104 142 186 228 270 326
#     4   9  18  31  47  72 107 143 177 214 261 320
#     4  10  20  37  57  80 109 144 189 235 280 341
#     4   9  19  33  49  74 106 139 178 225 275 325
#     4  11  24  38  54  81 114 146 185 233 284 337
#
# _framework density 18.521049000000001
#
# number of rings (size 3 to 8) (size 9 to 14) (size 15 to 20)
#    0.000    2.000    1.667    3.000    0.000    2.333 
#    0.000    0.000    0.000    0.000    0.000    0.000 
#    0.000    0.000    0.000   21.167    0.000    0.000 
#
# Total GULP energy -594810.917052 kJ/mol
# GULP energy per Si atom -12391.894105 kJ/mol
# Density = 1.847889 g / cm^3
# Si number density = 18.521049 Si / 1000 Ang^3
#
#
#
# Elastic Constant Matrix: (Units=GPa)
#
#
# Indices 1 2 3 4 5 6 
#
# 1 128.4915 52.5897 42.4347 0.0000 0.0000 0.0000
# 2 52.5897 99.3040 32.0916 0.0000 0.0000 0.0000
# 3 42.4347 32.0916 71.9626 0.0000 0.0000 0.0000
# 4 0.0000 0.0000 0.0000 27.1046 0.0000 0.0000
# 5 0.0000 0.0000 0.0000 0.0000 26.4312 0.0000
# 6 0.0000 0.0000 0.0000 0.0000 0.0000 24.7259
#
#
#
# Elastic Compliance Matrix: (Units=1/GPa)
#
#
# Indices 1 2 3 4 5 6 
#
# 1 0.011095 -0.004395 -0.004582 0.000000 0.000000 0.000000
# 2 -0.004395 0.013506 -0.003432 0.000000 0.000000 0.000000
# 3 -0.004582 -0.003432 0.018129 0.000000 0.000000 0.000000
# 4 0.000000 0.000000 0.000000 0.036894 0.000000 0.000000
# 5 0.000000 0.000000 0.000000 0.000000 0.037834 0.000000
# 6 0.000000 0.000000 0.000000 0.000000 0.000000 0.040443
#
#
# Mechanical properties :
#
#
# Convention : Reuss Voigt Hill
#
# Bulk Modulus (GPa) = 55.82844 61.55446 58.69145
# Shear Modulus (GPa) = 26.49853 27.16183 26.83018
#
# Velocity S-wave (km/s) = 3.78660 3.83370 3.81022
# Velocity P-wave (km/s) = 7.02328 7.27347 7.14947
#
# Compressibility (1/GPa) = 0.01791202
#
# Stress axis : x y z
#
# Youngs Moduli (GPa) = 90.13352 74.03878 55.16120
#
# Poissons Ratio (x) = 0.32537 0.25278
# Poissons Ratio (y) = 0.39610 0.18930
# Poissons Ratio (z) = 0.41304 0.25408
#
# Static dielectric constant tensor:
#      x y z
#    x 3.574930 0.000000 0.000000 
#    y 0.000000 3.476060 0.000000 
#    z 0.000000 0.000000 3.707190 
# 
# 
# High freq. dielectric constant tensor:
#      x y z
#    x 1.736280 0.000000 0.000000 
#    y 0.000000 1.693780 0.000000 
#    z 0.000000 0.000000 1.703610 
# 
# From -- ./inp_files/32807.got.cif
#   From: 2010.03.12/outbox.cif.g09.slc.cpg/sg69_17_cif.got.tgz:32807.got - 2010.04.10 23:52:46.
