data_PCOD8284249
_publ_section_title
;
Structure prediction by ZEFSAII (Michael W. Deem and Ramdas Pophale) SiO2 
 PCOD8284249
Probable space group: F M M M
;
_chemical_formula_sum "Si O2"
_cell_formula_units_Z 208
_cell_length_a 32.850998
_cell_length_b 18.138041
_cell_length_c 19.011700
_cell_angle_alpha 90.000000
_cell_angle_beta 90.000000
_cell_angle_gamma 90.000000
_cell_volume 11328.173701
_symmetry_space_group_name_H-M "F M M M"
_symmetry_group_IT_number 69
_symmetry_cell_setting 'orthorhombic'
loop_
_space_group_symop_operation_xyz
x,y,z
-x,-y,z
x,-y,-z
-x,y,-z
-x,-y,-z
x,y,-z
-x,y,z
x,-y,z
x,1/2+y,1/2+z
-x,1/2-y,1/2+z
x,1/2-y,1/2-z
-x,1/2+y,1/2-z
-x,1/2-y,1/2-z
x,1/2+y,1/2-z
-x,1/2+y,1/2+z
x,1/2-y,1/2+z
1/2+x,y,1/2+z
1/2-x,-y,1/2+z
1/2+x,-y,1/2-z
1/2-x,y,1/2-z
1/2-x,-y,1/2-z
1/2+x,y,1/2-z
1/2-x,y,1/2+z
1/2+x,-y,1/2+z
1/2+x,1/2+y,z
1/2-x,1/2-y,z
1/2+x,1/2-y,-z
1/2-x,1/2+y,-z
1/2-x,1/2-y,-z
1/2+x,1/2+y,-z
1/2-x,1/2+y,z
1/2+x,1/2-y,z
loop_
_atom_site_type_symbol
_atom_site_label
_atom_site_fract_x
_atom_site_fract_y
_atom_site_fract_z
Si Si1 0.544469 0.414969 0.500000
Si Si2 0.321577 0.585100 0.197215
Si Si3 0.264063 0.087383 0.422230
Si Si4 0.819893 0.587502 0.146431
Si Si5 0.406862 0.859346 0.868392
Si Si6 0.914642 0.416092 0.712755
Si Si7 0.955036 0.275608 0.329576
O O1 0.536149 0.500000 0.500000
O O2 0.500000 0.375009 0.500000
O O3 0.569380 0.397220 0.569306
O O4 0.309894 0.500000 0.196069
O O5 0.295297 0.623150 0.134719
O O6 0.309371 0.615004 0.274402
O O7 0.369180 0.598002 0.184594
O O8 0.273417 0.119681 0.500000
O O9 0.217854 0.107858 0.402620
O O10 0.269134 0.000000 0.423587
O O11 0.830349 0.500000 0.146156
O O12 0.858615 0.633217 0.117843
O O13 0.418053 0.900056 0.795702
O O14 0.420954 0.773740 0.868352
O O15 0.928469 0.500000 0.698843
O O16 0.943081 0.361850 0.667522
O O17 0.956601 0.250000 0.250000
O O18 0.000000 0.266142 0.363902
#
# Coordination Sequence:
#
# PCOD8284249 Si02
#       7
#    16  32  32  32  32  32  32
#     4  11  22  32  46  70 103 144 179 207 248 305
#     4   8  14  26  43  65  96 130 165 206 255 305
#     4   9  16  24  39  67 100 130 163 207 254 300
#     4   9  16  26  43  67  96 133 173 212 248 291
#     4  10  19  32  48  70 104 140 172 207 248 305
#     4   9  17  31  53  78 100 128 169 218 263 302
#     4   9  18  32  50  72  98 129 165 207 257 307
#
# _framework density 18.361301000000001
#
# number of rings (size 3 to 8) (size 9 to 14) (size 15 to 20)
#    0.000    2.846    0.000    3.231    1.077    2.769 
#    0.000    0.000    1.692    0.923    0.000    6.462 
#    0.000    1.846    0.000    0.000    0.000    0.000 
#
# Total GULP energy -644439.664970 kJ/mol
# GULP energy per Si atom -12393.070480 kJ/mol
# Density = 1.831951 g / cm^3
# Si number density = 18.361301 Si / 1000 Ang^3
#
#
#
# Elastic Constant Matrix: (Units=GPa)
#
#
# Indices 1 2 3 4 5 6 
#
# 1 122.4964 41.6876 72.3223 0.0000 0.0000 0.0000
# 2 41.6876 79.8958 21.0389 0.0000 0.0000 0.0000
# 3 72.3223 21.0389 97.1250 0.0000 0.0000 0.0000
# 4 0.0000 0.0000 0.0000 12.5312 0.0000 0.0000
# 5 0.0000 0.0000 0.0000 0.0000 14.0537 0.0000
# 6 0.0000 0.0000 0.0000 0.0000 0.0000 19.2263
#
#
#
# Elastic Compliance Matrix: (Units=1/GPa)
#
#
# Indices 1 2 3 4 5 6 
#
# 1 0.016763 -0.005790 -0.011228 0.000000 0.000000 0.000000
# 2 -0.005790 0.015273 0.001003 0.000000 0.000000 0.000000
# 3 -0.011228 0.001003 0.018440 0.000000 0.000000 0.000000
# 4 0.000000 0.000000 0.000000 0.079801 0.000000 0.000000
# 5 0.000000 0.000000 0.000000 0.000000 0.071156 0.000000
# 6 0.000000 0.000000 0.000000 0.000000 0.000000 0.052012
#
#
# Mechanical properties :
#
#
# Convention : Reuss Voigt Hill
#
# Bulk Modulus (GPa) = 54.21330 63.29054 58.75192
# Shear Modulus (GPa) = 17.14541 20.12678 18.63610
#
# Velocity S-wave (km/s) = 3.05910 3.31441 3.18931
# Velocity P-wave (km/s) = 6.48594 7.01366 6.75495
#
# Compressibility (1/GPa) = 0.01844566
#
# Stress axis : x y z
#
# Youngs Moduli (GPa) = 59.65538 65.47413 54.23130
#
# Poissons Ratio (x) = 0.37908 0.60891
# Poissons Ratio (y) = 0.34539 -0.05439
# Poissons Ratio (z) = 0.66981 -0.06566
#
# Static dielectric constant tensor:
#      x y z
#    x 3.535140 0.000000 0.000000 
#    y 0.000000 3.152130 0.000000 
#    z 0.000000 0.000000 3.436370 
# 
# 
# High freq. dielectric constant tensor:
#      x y z
#    x 1.719440 0.000000 0.000000 
#    y 0.000000 1.669380 0.000000 
#    z 0.000000 0.000000 1.691450 
# 
# From -- ./inp_files/33980.got.cif
#   From: 2010.03.12/outbox.cif.g09.slc.cpg/sg69_17_cif.got.tgz:33980.got - 2010.04.10 23:52:46.
