data_PCOD8284035
_publ_section_title
;
Structure prediction by ZEFSAII (Michael W. Deem and Ramdas Pophale) SiO2 
 PCOD8284035
Probable space group: F M M M
;
_chemical_formula_sum "Si O2"
_cell_formula_units_Z 224
_cell_length_a 15.069800
_cell_length_b 33.073468
_cell_length_c 22.434641
_cell_angle_alpha 90.000000
_cell_angle_beta 90.000000
_cell_angle_gamma 90.000000
_cell_volume 11181.661716
_symmetry_space_group_name_H-M "F M M M"
_symmetry_group_IT_number 69
_symmetry_cell_setting 'orthorhombic'
loop_
_space_group_symop_operation_xyz
x,y,z
-x,-y,z
x,-y,-z
-x,y,-z
-x,-y,-z
x,y,-z
-x,y,z
x,-y,z
x,1/2+y,1/2+z
-x,1/2-y,1/2+z
x,1/2-y,1/2-z
-x,1/2+y,1/2-z
-x,1/2-y,1/2-z
x,1/2+y,1/2-z
-x,1/2+y,1/2+z
x,1/2-y,1/2+z
1/2+x,y,1/2+z
1/2-x,-y,1/2+z
1/2+x,-y,1/2-z
1/2-x,y,1/2-z
1/2-x,-y,1/2-z
1/2+x,y,1/2-z
1/2-x,y,1/2+z
1/2+x,-y,1/2+z
1/2+x,1/2+y,z
1/2-x,1/2-y,z
1/2+x,1/2-y,-z
1/2-x,1/2+y,-z
1/2-x,1/2-y,-z
1/2+x,1/2+y,-z
1/2-x,1/2+y,z
1/2+x,1/2-y,z
loop_
_atom_site_type_symbol
_atom_site_label
_atom_site_fract_x
_atom_site_fract_y
_atom_site_fract_z
Si Si1 0.100058 0.674105 0.168686
Si Si2 0.743034 0.454326 0.431204
Si Si3 0.395940 0.385540 0.567994
Si Si4 0.896087 0.663126 0.298402
Si Si5 0.399951 0.143490 0.500000
Si Si6 0.351982 0.741134 0.872471
Si Si7 0.101352 0.591459 0.616404
Si Si8 0.157134 0.771925 0.000000
O O1 0.140880 0.649834 0.112199
O O2 0.146668 0.663095 0.231817
O O3 0.101430 0.722433 0.161964
O O4 0.000000 0.659056 0.173147
O O5 0.772560 0.449713 0.500000
O O6 0.713062 0.500000 0.417205
O O7 0.658979 0.425929 0.416986
O O8 0.827337 0.444621 0.388267
O O9 0.378529 0.371139 0.500000
O O10 0.500000 0.395112 0.577309
O O11 0.855951 0.699192 0.337320
O O12 0.876539 0.619512 0.326924
O O13 0.000000 0.672094 0.295685
O O14 0.500000 0.161136 0.500000
O O15 0.382837 0.117454 0.442129
O O16 0.329172 0.179655 0.500000
O O17 0.250000 0.750000 0.881169
O O18 0.395851 0.738680 0.938833
O O19 0.000000 0.574779 0.619722
O O20 0.250000 0.750000 0.000000
#
# Coordination Sequence:
#
# PCOD8284035 Si02
#       8
#    32  32  32  32  16  32  32  16
#     4  10  22  38  56  78 107 145 190 241 288 328
#     4  10  21  36  59  91 121 146 177 227 285 340
#     4   9  20  39  61  85 113 147 187 233 288 343
#     4  10  21  38  56  75 107 152 193 232 280 334
#     4  10  18  32  53  76 104 143 193 234 270 328
#     4  11  23  35  50  78 111 147 193 238 283 331
#     4  10  20  35  57  83 115 155 190 225 276 336
#     4  10  22  34  48  73 109 149 188 234 289 328
#
# _framework density 20.032800999999999
#
# number of rings (size 3 to 8) (size 9 to 14) (size 15 to 20)
#    0.000    2.000    2.143    0.857    3.000    3.429 
#    0.000    2.143    0.000    1.714    0.000    4.000 
#    0.000    0.000    0.000    0.000    0.000    0.000 
#
# Total GULP energy -694101.457640 kJ/mol
# GULP energy per Si atom -12394.668886 kJ/mol
# Density = 1.998721 g / cm^3
# Si number density = 20.032801 Si / 1000 Ang^3
#
#
#
# Elastic Constant Matrix: (Units=GPa)
#
#
# Indices 1 2 3 4 5 6 
#
# 1 51.8798 25.7552 20.0175 0.0000 0.0000 0.0000
# 2 25.7552 78.7482 32.1990 0.0000 0.0000 0.0000
# 3 20.0175 32.1990 139.8663 0.0000 0.0000 0.0000
# 4 0.0000 0.0000 0.0000 17.2482 0.0000 0.0000
# 5 0.0000 0.0000 0.0000 0.0000 -2.1433 0.0000
# 6 0.0000 0.0000 0.0000 0.0000 0.0000 31.2618
#
#
#
# Elastic Compliance Matrix: (Units=1/GPa)
#
#
# Indices 1 2 3 4 5 6 
#
# 1 0.023394 -0.006935 -0.001752 0.000000 0.000000 0.000000
# 2 -0.006935 0.016074 -0.002708 0.000000 0.000000 0.000000
# 3 -0.001752 -0.002708 0.008024 0.000000 0.000000 0.000000
# 4 0.000000 0.000000 0.000000 0.057977 0.000000 0.000000
# 5 0.000000 0.000000 0.000000 0.000000 -0.466570 0.000000
# 6 0.000000 0.000000 0.000000 0.000000 0.000000 0.031988
#
#
# Mechanical properties :
#
#
# Convention : Reuss Voigt Hill
#
# Bulk Modulus (GPa) = 40.48122 47.38195 43.93159
# Shear Modulus (GPa) = -16.77348 22.10817 2.66734
#
# Velocity S-wave (km/s) = -2.89675 3.32565 1.15515
# Velocity P-wave (km/s) = 3.01050 6.20082 4.87407
#
# Compressibility (1/GPa) = 0.02470281
#
# Stress axis : x y z
#
# Youngs Moduli (GPa) = 42.74606 62.21197 124.62971
#
# Poissons Ratio (x) = 0.43144 0.21830
# Poissons Ratio (y) = 0.29644 0.33749
# Poissons Ratio (z) = 0.07487 0.16847
#
# Static dielectric constant tensor:
#      x y z
#    x 3.559000 0.000000 0.000000 
#    y 0.000000 3.470380 0.000000 
#    z 0.000000 0.000000 4.169720 
# 
# 
# High freq. dielectric constant tensor:
#      x y z
#    x 1.775190 0.000000 0.000000 
#    y 0.000000 1.759280 0.000000 
#    z 0.000000 0.000000 1.784930 
# 
# From -- ./inp_files/31238.got.cif
#   From: 2010.03.12/outbox.cif.g09.slc.cpg/sg69_16_cif.got.tgz:31238.got - 2010.04.10 23:52:46.
