data_PCOD8284572
_publ_section_title
;
Structure prediction by ZEFSAII (Michael W. Deem and Ramdas Pophale) SiO2 
 PCOD8284572
Probable space group: F M M M
;
_chemical_formula_sum "Si O2"
_cell_formula_units_Z 160
_cell_length_a 9.048404
_cell_length_b 29.937020
_cell_length_c 30.011071
_cell_angle_alpha 90.000000
_cell_angle_beta 90.000000
_cell_angle_gamma 90.000000
_cell_volume 8129.466483
_symmetry_space_group_name_H-M "F M M M"
_symmetry_group_IT_number 69
_symmetry_cell_setting 'orthorhombic'
loop_
_space_group_symop_operation_xyz
x,y,z
-x,-y,z
x,-y,-z
-x,y,-z
-x,-y,-z
x,y,-z
-x,y,z
x,-y,z
x,1/2+y,1/2+z
-x,1/2-y,1/2+z
x,1/2-y,1/2-z
-x,1/2+y,1/2-z
-x,1/2-y,1/2-z
x,1/2+y,1/2-z
-x,1/2+y,1/2+z
x,1/2-y,1/2+z
1/2+x,y,1/2+z
1/2-x,-y,1/2+z
1/2+x,-y,1/2-z
1/2-x,y,1/2-z
1/2-x,-y,1/2-z
1/2+x,y,1/2-z
1/2-x,y,1/2+z
1/2+x,-y,1/2+z
1/2+x,1/2+y,z
1/2-x,1/2-y,z
1/2+x,1/2-y,-z
1/2-x,1/2+y,-z
1/2-x,1/2-y,-z
1/2+x,1/2+y,-z
1/2-x,1/2+y,z
1/2+x,1/2-y,z
loop_
_atom_site_type_symbol
_atom_site_label
_atom_site_fract_x
_atom_site_fract_y
_atom_site_fract_z
Si Si1 0.673220 0.675881 0.706044
Si Si2 0.324738 0.551519 0.000000
Si Si3 0.675225 0.204648 0.892668
Si Si4 0.834034 0.406156 0.674458
Si Si5 0.333204 0.379031 0.926222
Si Si6 0.327264 0.000000 0.296054
O O1 0.500000 0.679347 0.713108
O O2 0.750000 0.698032 0.750000
O O3 0.723070 0.698507 0.659378
O O4 0.723955 0.624493 0.702956
O O5 0.270964 0.581056 0.042426
O O6 0.259906 0.500000 0.000000
O O7 0.500000 0.546961 0.000000
O O8 0.500000 0.207455 0.896891
O O9 0.750000 0.250000 0.909799
O O10 0.731683 0.165378 0.925654
O O11 0.831445 0.397295 0.622848
O O12 0.776134 0.456480 0.677434
O O13 0.000000 0.399338 0.693637
O O14 0.500000 0.365938 0.941146
O O15 0.250000 0.000000 0.250000
O O16 0.500000 0.000000 0.288358
#
# Coordination Sequence:
#
# PCOD8284572 Si02
#       6
#    32  16  32  32  32  16
#     4  10  20  33  50  73 103 138 178 224 270 318
#     4   9  18  32  58  93 120 143 178 223 268 321
#     4  10  21  37  57  80 108 143 183 226 273 326
#     4   9  18  31  48  69  99 139 179 220 267 317
#     4   9  18  34  56  82 112 143 177 221 270 323
#     4  10  20  30  42  65  95 131 177 222 262 306
#
# _framework density 19.681488000000002
#
# number of rings (size 3 to 8) (size 9 to 14) (size 15 to 20)
#    0.000    2.500    0.000    1.800    1.400    5.200 
#    0.000    3.000    0.000    1.200    0.000    0.000 
#    0.000    0.000    0.000    0.000    0.000    0.000 
#
# Total GULP energy -495710.755644 kJ/mol
# GULP energy per Si atom -12392.768891 kJ/mol
# Density = 1.963669 g / cm^3
# Si number density = 19.681488 Si / 1000 Ang^3
#
#
#
# Elastic Constant Matrix: (Units=GPa)
#
#
# Indices 1 2 3 4 5 6 
#
# 1 56.6869 43.2854 22.9120 0.0000 0.0000 0.0000
# 2 43.2854 150.9892 30.6997 0.0000 0.0000 0.0000
# 3 22.9120 30.6997 58.7365 0.0000 0.0000 0.0000
# 4 0.0000 0.0000 0.0000 17.6755 0.0000 0.0000
# 5 0.0000 0.0000 0.0000 0.0000 18.0989 0.0000
# 6 0.0000 0.0000 0.0000 0.0000 0.0000 26.1311
#
#
#
# Elastic Compliance Matrix: (Units=1/GPa)
#
#
# Indices 1 2 3 4 5 6 
#
# 1 0.024701 -0.005731 -0.006640 0.000000 0.000000 0.000000
# 2 -0.005731 0.008740 -0.002333 0.000000 0.000000 0.000000
# 3 -0.006640 -0.002333 0.020834 0.000000 0.000000 0.000000
# 4 0.000000 0.000000 0.000000 0.056576 0.000000 0.000000
# 5 0.000000 0.000000 0.000000 0.000000 0.055252 0.000000
# 6 0.000000 0.000000 0.000000 0.000000 0.000000 0.038269
#
#
# Mechanical properties :
#
#
# Convention : Reuss Voigt Hill
#
# Bulk Modulus (GPa) = 40.21193 51.13410 45.67301
# Shear Modulus (GPa) = 20.65535 23.68213 22.16874
#
# Velocity S-wave (km/s) = 3.24308 3.47258 3.35979
# Velocity P-wave (km/s) = 5.87360 6.48966 6.18930
#
# Compressibility (1/GPa) = 0.02486824
#
# Stress axis : x y z
#
# Youngs Moduli (GPa) = 40.48476 114.41290 47.99746
#
# Poissons Ratio (x) = 0.65572 0.31869
# Poissons Ratio (y) = 0.23202 0.11196
# Poissons Ratio (z) = 0.26881 0.26689
#
# Static dielectric constant tensor:
#      x y z
#    x 3.482970 0.000000 0.000000 
#    y 0.000000 3.806950 0.000000 
#    z 0.000000 0.000000 3.561150 
# 
# 
# High freq. dielectric constant tensor:
#      x y z
#    x 1.746580 0.000000 0.000000 
#    y 0.000000 1.773380 0.000000 
#    z 0.000000 0.000000 1.757310 
# 
# From -- ./inp_files/5723.got.cif
#   From: 2010.03.12/outbox.cif.g09.slc.cpg/sg69_3_cif.got.tgz:5723.got - 2010.04.10 23:52:46.
