data_PCOD8284661
_publ_section_title
;
Structure prediction by ZEFSAII (Michael W. Deem and Ramdas Pophale) SiO2 
 PCOD8284661
Probable space group: F M M M
;
_chemical_formula_sum "Si O2"
_cell_formula_units_Z 192
_cell_length_a 30.981718
_cell_length_b 19.119676
_cell_length_c 18.285883
_cell_angle_alpha 90.000000
_cell_angle_beta 90.000000
_cell_angle_gamma 90.000000
_cell_volume 10831.833153
_symmetry_space_group_name_H-M "F M M M"
_symmetry_group_IT_number 69
_symmetry_cell_setting 'orthorhombic'
loop_
_space_group_symop_operation_xyz
x,y,z
-x,-y,z
x,-y,-z
-x,y,-z
-x,-y,-z
x,y,-z
-x,y,z
x,-y,z
x,1/2+y,1/2+z
-x,1/2-y,1/2+z
x,1/2-y,1/2-z
-x,1/2+y,1/2-z
-x,1/2-y,1/2-z
x,1/2+y,1/2-z
-x,1/2+y,1/2+z
x,1/2-y,1/2+z
1/2+x,y,1/2+z
1/2-x,-y,1/2+z
1/2+x,-y,1/2-z
1/2-x,y,1/2-z
1/2-x,-y,1/2-z
1/2+x,y,1/2-z
1/2-x,y,1/2+z
1/2+x,-y,1/2+z
1/2+x,1/2+y,z
1/2-x,1/2-y,z
1/2+x,1/2-y,-z
1/2-x,1/2+y,-z
1/2-x,1/2-y,-z
1/2+x,1/2+y,-z
1/2-x,1/2+y,z
1/2+x,1/2-y,z
loop_
_atom_site_type_symbol
_atom_site_label
_atom_site_fract_x
_atom_site_fract_y
_atom_site_fract_z
Si Si1 0.329700 0.579930 0.851487
Si Si2 0.548684 0.179711 0.704637
Si Si3 0.847333 0.346108 0.915700
Si Si4 0.613142 0.580726 0.716840
Si Si5 0.384026 0.302141 0.917296
Si Si6 0.739963 0.920679 0.916500
O O1 0.339712 0.500000 0.873935
O O2 0.344638 0.594341 0.767948
O O3 0.355875 0.628693 0.906502
O O4 0.278886 0.595557 0.860596
O O5 0.500000 0.155443 0.687751
O O6 0.549451 0.250000 0.750000
O O7 0.571782 0.118665 0.749577
O O8 0.572504 0.195299 0.629009
O O9 0.878289 0.391754 0.864499
O O10 0.854322 0.264673 0.896761
O O11 0.797807 0.365917 0.899186
O O12 0.858911 0.363349 0.000000
O O13 0.601204 0.500000 0.712371
O O14 0.399739 0.297247 0.000000
O O15 0.722709 0.000000 0.904361
O O16 0.756397 0.911744 0.000000
#
# Coordination Sequence:
#
# PCOD8284661 Si02
#       6
#    32  32  32  32  32  32
#     4   9  19  33  51  76 105 141 182 222 263 310
#     4  10  20  37  59  79 103 135 168 211 264 316
#     4  10  20  33  50  76 107 141 182 222 261 309
#     4  10  20  35  56  79 105 139 176 217 265 317
#     4  10  20  34  55  80 107 139 174 214 263 319
#     4   9  17  30  48  71 104 145 183 219 262 308
#
# _framework density 17.725532000000001
#
# number of rings (size 3 to 8) (size 9 to 14) (size 15 to 20)
#    0.000    2.333    1.667    1.000    0.000    4.000 
#    0.000    5.000    0.000    2.500    0.000    5.833 
#    0.000    0.000    0.000    0.000    0.000    0.000 
#
# Total GULP energy -595224.050294 kJ/mol
# GULP energy per Si atom -12400.501048 kJ/mol
# Density = 1.768519 g / cm^3
# Si number density = 17.725532 Si / 1000 Ang^3
#
#
#
# Elastic Constant Matrix: (Units=GPa)
#
#
# Indices 1 2 3 4 5 6 
#
# 1 135.4178 70.1603 66.0127 0.0000 0.0000 0.0000
# 2 70.1603 109.0163 56.1285 0.0000 0.0000 0.0000
# 3 66.0127 56.1285 87.9539 0.0000 0.0000 0.0000
# 4 0.0000 0.0000 0.0000 20.6030 0.0000 0.0000
# 5 0.0000 0.0000 0.0000 0.0000 22.5739 0.0000
# 6 0.0000 0.0000 0.0000 0.0000 0.0000 25.2572
#
#
#
# Elastic Compliance Matrix: (Units=1/GPa)
#
#
# Indices 1 2 3 4 5 6 
#
# 1 0.013309 -0.005097 -0.006736 0.000000 0.000000 0.000000
# 2 -0.005097 0.015614 -0.006138 0.000000 0.000000 0.000000
# 3 -0.006736 -0.006138 0.020343 0.000000 0.000000 0.000000
# 4 0.000000 0.000000 0.000000 0.048537 0.000000 0.000000
# 5 0.000000 0.000000 0.000000 0.000000 0.044299 0.000000
# 6 0.000000 0.000000 0.000000 0.000000 0.000000 0.039593
#
#
# Mechanical properties :
#
#
# Convention : Reuss Voigt Hill
#
# Bulk Modulus (GPa) = 75.06412 79.66567 77.36489
# Shear Modulus (GPa) = 22.51459 23.02592 22.77026
#
# Velocity S-wave (km/s) = 3.56782 3.60811 3.58802
# Velocity P-wave (km/s) = 7.70795 7.89934 7.80423
#
# Compressibility (1/GPa) = 0.01332194
#
# Stress axis : x y z
#
# Youngs Moduli (GPa) = 75.13612 64.04564 49.15783
#
# Poissons Ratio (x) = 0.32646 0.33114
# Poissons Ratio (y) = 0.38299 0.30175
# Poissons Ratio (z) = 0.50613 0.39314
#
# Static dielectric constant tensor:
#      x y z
#    x 3.207590 0.000000 0.000000 
#    y 0.000000 3.391870 0.000000 
#    z 0.000000 0.000000 3.313150 
# 
# 
# High freq. dielectric constant tensor:
#      x y z
#    x 1.668850 0.000000 0.000000 
#    y 0.000000 1.693300 0.000000 
#    z 0.000000 0.000000 1.687170 
# 
# From -- ./inp_files/33525.got.cif
#   From: 2010.03.12/outbox.cif.g09.slc.cpg/sg69_17_cif.got.tgz:33525.got - 2010.04.10 23:52:46.
