data_PCOD8284225
_publ_section_title
;
Structure prediction by ZEFSAII (Michael W. Deem and Ramdas Pophale) SiO2 
 PCOD8284225
Probable space group: F M M M
;
_chemical_formula_sum "Si O2"
_cell_formula_units_Z 104
_cell_length_a 14.593579
_cell_length_b 21.020470
_cell_length_c 20.220705
_cell_angle_alpha 90.000000
_cell_angle_beta 90.000000
_cell_angle_gamma 90.000000
_cell_volume 6202.982115
_symmetry_space_group_name_H-M "F M M M"
_symmetry_group_IT_number 69
_symmetry_cell_setting 'orthorhombic'
loop_
_space_group_symop_operation_xyz
x,y,z
-x,-y,z
x,-y,-z
-x,y,-z
-x,-y,-z
x,y,-z
-x,y,z
x,-y,z
x,1/2+y,1/2+z
-x,1/2-y,1/2+z
x,1/2-y,1/2-z
-x,1/2+y,1/2-z
-x,1/2-y,1/2-z
x,1/2+y,1/2-z
-x,1/2+y,1/2+z
x,1/2-y,1/2+z
1/2+x,y,1/2+z
1/2-x,-y,1/2+z
1/2+x,-y,1/2-z
1/2-x,y,1/2-z
1/2-x,-y,1/2-z
1/2+x,y,1/2-z
1/2-x,y,1/2+z
1/2+x,-y,1/2+z
1/2+x,1/2+y,z
1/2-x,1/2-y,z
1/2+x,1/2-y,-z
1/2-x,1/2+y,-z
1/2-x,1/2-y,-z
1/2+x,1/2+y,-z
1/2-x,1/2+y,z
1/2+x,1/2-y,z
loop_
_atom_site_type_symbol
_atom_site_label
_atom_site_fract_x
_atom_site_fract_y
_atom_site_fract_z
Si Si1 0.000000 0.575367 0.724637
Si Si2 0.690331 0.871531 0.690215
Si Si3 0.500000 0.075265 0.125835
Si Si4 0.250000 0.250000 0.250000
Si Si5 0.806135 0.425736 0.075780
O O1 0.911272 0.601023 0.687039
O O2 0.000000 0.601529 0.799470
O O3 0.000000 0.500000 0.722107
O O4 0.750000 0.903945 0.750000
O O5 0.687097 0.795170 0.703199
O O6 0.736511 0.885770 0.620134
O O7 0.590664 0.099652 0.088453
O O8 0.500000 0.000000 0.125725
O O9 0.798205 0.500000 0.094328
O O10 0.779880 0.413504 0.000000
#
# Coordination Sequence:
#
# PCOD8284225 Si02
#       5
#    16  32  16   8  32
#     4  11  20  30  56  87 106 137 177 227 284 323
#     4  10  20  36  53  76 109 141 185 223 258 316
#     4   9  15  26  46  75 105 132 168 216 269 319
#     4   8  20  38  56  76 102 148 194 224 260 296
#     4  10  19  31  50  78 112 143 173 221 281 331
#
# _framework density 16.766128999999999
#
# number of rings (size 3 to 8) (size 9 to 14) (size 15 to 20)
#    0.923    1.231    3.077    1.385    0.000    3.692 
#    0.000    1.538    0.000    2.769    0.000    0.000 
#    0.000    0.000    0.000    0.000    0.000    0.000 
#
# Total GULP energy -322303.462113 kJ/mol
# GULP energy per Si atom -12396.287004 kJ/mol
# Density = 1.672797 g / cm^3
# Si number density = 16.766129 Si / 1000 Ang^3
#
#
#
# Elastic Constant Matrix: (Units=GPa)
#
#
# Indices 1 2 3 4 5 6 
#
# 1 131.6025 44.9183 55.9381 0.0000 0.0000 0.0000
# 2 44.9183 81.5678 41.8091 0.0000 0.0000 0.0000
# 3 55.9381 41.8091 108.2427 0.0000 0.0000 0.0000
# 4 0.0000 0.0000 0.0000 16.9780 0.0000 0.0000
# 5 0.0000 0.0000 0.0000 0.0000 25.7322 0.0000
# 6 0.0000 0.0000 0.0000 0.0000 0.0000 17.7031
#
#
#
# Elastic Compliance Matrix: (Units=1/GPa)
#
#
# Indices 1 2 3 4 5 6 
#
# 1 0.010595 -0.003775 -0.004017 0.000000 0.000000 0.000000
# 2 -0.003775 0.016631 -0.004473 0.000000 0.000000 0.000000
# 3 -0.004017 -0.004473 0.013042 0.000000 0.000000 0.000000
# 4 0.000000 0.000000 0.000000 0.058900 0.000000 0.000000
# 5 0.000000 0.000000 0.000000 0.000000 0.038862 0.000000
# 6 0.000000 0.000000 0.000000 0.000000 0.000000 0.056487
#
#
# Mechanical properties :
#
#
# Convention : Reuss Voigt Hill
#
# Bulk Modulus (GPa) = 63.54134 67.41601 65.47867
# Shear Modulus (GPa) = 22.29224 23.99916 23.14570
#
# Velocity S-wave (km/s) = 3.65032 3.78750 3.71954
# Velocity P-wave (km/s) = 7.46642 7.70868 7.58852
#
# Compressibility (1/GPa) = 0.01573779
#
# Stress axis : x y z
#
# Youngs Moduli (GPa) = 94.38728 60.12700 76.67522
#
# Poissons Ratio (x) = 0.22700 0.30800
# Poissons Ratio (y) = 0.35635 0.34296
# Poissons Ratio (z) = 0.37914 0.26894
#
# Static dielectric constant tensor:
#      x y z
#    x 3.040290 0.000000 0.000000 
#    y 0.000000 2.840120 0.000000 
#    z 0.000000 0.000000 3.017110 
# 
# 
# High freq. dielectric constant tensor:
#      x y z
#    x 1.644840 0.000000 0.000000 
#    y 0.000000 1.612290 0.000000 
#    z 0.000000 0.000000 1.636480 
# 
# From -- ./inp_files/29724.got.cif
#   From: 2010.03.12/outbox.cif.g09.slc.cpg/sg69_15_cif.got.tgz:29724.got - 2010.04.10 23:52:46.
