data_PCOD8284920
_publ_section_title
;
Structure prediction by ZEFSAII (Michael W. Deem and Ramdas Pophale) SiO2 
 PCOD8284920
Probable space group: F M M M
;
_chemical_formula_sum "Si O2"
_cell_formula_units_Z 112
_cell_length_a 22.212610
_cell_length_b 18.825957
_cell_length_c 13.565919
_cell_angle_alpha 90.000000
_cell_angle_beta 90.000000
_cell_angle_gamma 90.000000
_cell_volume 5672.909738
_symmetry_space_group_name_H-M "F M M M"
_symmetry_group_IT_number 69
_symmetry_cell_setting 'orthorhombic'
loop_
_space_group_symop_operation_xyz
x,y,z
-x,-y,z
x,-y,-z
-x,y,-z
-x,-y,-z
x,y,-z
-x,y,z
x,-y,z
x,1/2+y,1/2+z
-x,1/2-y,1/2+z
x,1/2-y,1/2-z
-x,1/2+y,1/2-z
-x,1/2-y,1/2-z
x,1/2+y,1/2-z
-x,1/2+y,1/2+z
x,1/2-y,1/2+z
1/2+x,y,1/2+z
1/2-x,-y,1/2+z
1/2+x,-y,1/2-z
1/2-x,y,1/2-z
1/2-x,-y,1/2-z
1/2+x,y,1/2-z
1/2-x,y,1/2+z
1/2+x,-y,1/2+z
1/2+x,1/2+y,z
1/2-x,1/2-y,z
1/2+x,1/2-y,-z
1/2-x,1/2+y,-z
1/2-x,1/2-y,-z
1/2+x,1/2+y,-z
1/2-x,1/2+y,z
1/2+x,1/2-y,z
loop_
_atom_site_type_symbol
_atom_site_label
_atom_site_fract_x
_atom_site_fract_y
_atom_site_fract_z
Si Si1 0.834050 0.250000 0.250000
Si Si2 0.570777 0.000000 0.800624
Si Si3 0.644176 0.000000 0.386312
Si Si4 0.637558 0.366727 0.612753
Si Si5 0.223264 0.863877 0.888293
O O1 0.876952 0.298269 0.180977
O O2 0.791617 0.202121 0.180793
O O3 0.596653 0.068444 0.854852
O O4 0.500000 0.000000 0.812568
O O5 0.586358 0.000000 0.684368
O O6 0.683140 0.068843 0.360229
O O7 0.622953 0.000000 0.500000
O O8 0.622864 0.347429 0.500000
O O9 0.707679 0.386784 0.627172
O O10 0.211287 0.839469 0.000000
#
# Coordination Sequence:
#
# PCOD8284920 Si02
#       5
#    16  16  16  32  32
#     4  12  21  34  61  96 133 160 180 233 308 379
#     4  12  26  44  65  84 111 163 216 252 293 338
#     4  10  21  39  64  89 118 151 199 255 301 353
#     4  11  23  38  60  92 127 158 197 245 295 357
#     4  10  20  35  60  95 125 155 190 237 308 371
#
# _framework density 19.742953
#
# number of rings (size 3 to 8) (size 9 to 14) (size 15 to 20)
#    0.000    1.143    2.857    4.714    0.000    7.143 
#    0.000    0.714    0.000    0.000    0.000    0.000 
#    0.000    0.000    0.000    0.000    0.000    0.000 
#
# Total GULP energy -347261.475342 kJ/mol
# GULP energy per Si atom -12402.195548 kJ/mol
# Density = 1.969802 g / cm^3
# Si number density = 19.742953 Si / 1000 Ang^3
#
#
#
# Elastic Constant Matrix: (Units=GPa)
#
#
# Indices 1 2 3 4 5 6 
#
# 1 98.0220 71.8776 62.0307 0.0000 0.0000 0.0000
# 2 71.8776 152.9228 89.0739 0.0000 0.0000 0.0000
# 3 62.0307 89.0739 158.3527 0.0000 0.0000 0.0000
# 4 0.0000 0.0000 0.0000 40.6107 0.0000 0.0000
# 5 0.0000 0.0000 0.0000 0.0000 21.5445 0.0000
# 6 0.0000 0.0000 0.0000 0.0000 0.0000 -32.3142
#
#
#
# Elastic Compliance Matrix: (Units=1/GPa)
#
#
# Indices 1 2 3 4 5 6 
#
# 1 0.016551 -0.005954 -0.003135 0.000000 0.000000 0.000000
# 2 -0.005954 0.011867 -0.004343 0.000000 0.000000 0.000000
# 3 -0.003135 -0.004343 0.009986 0.000000 0.000000 0.000000
# 4 0.000000 0.000000 0.000000 0.024624 0.000000 0.000000
# 5 0.000000 0.000000 0.000000 0.000000 0.046415 0.000000
# 6 0.000000 0.000000 0.000000 0.000000 0.000000 -0.030946
#
#
# Mechanical properties :
#
#
# Convention : Reuss Voigt Hill
#
# Bulk Modulus (GPa) = 86.64292 95.02911 90.83602
# Shear Modulus (GPa) = 45.78415 18.38923 32.08669
#
# Velocity S-wave (km/s) = 4.82084 3.05525 4.03578
# Velocity P-wave (km/s) = 8.65841 7.78998 8.23565
#
# Compressibility (1/GPa) = 0.01154162
#
# Stress axis : x y z
#
# Youngs Moduli (GPa) = 60.41901 84.26391 100.14009
#
# Poissons Ratio (x) = 0.50168 0.31389
# Poissons Ratio (y) = 0.35971 0.43494
# Poissons Ratio (z) = 0.18939 0.36598
#
# Static dielectric constant tensor:
#      x y z
#    x 3.099350 0.000000 0.000000 
#    y 0.000000 4.050620 0.000000 
#    z 0.000000 0.000000 4.168210 
# 
# 
# High freq. dielectric constant tensor:
#      x y z
#    x 1.713550 0.000000 0.000000 
#    y 0.000000 1.783490 0.000000 
#    z 0.000000 0.000000 1.805440 
# 
# From -- ./inp_files/17419.got.cif
#   From: 2010.03.12/outbox.cif.g09.slc.cpg/sg69_9_cif.got.tgz:17419.got - 2010.04.10 23:52:46.
