data_PCOD8284826
_publ_section_title
;
Structure prediction by ZEFSAII (Michael W. Deem and Ramdas Pophale) SiO2 
 PCOD8284826
Probable space group: F M M M
;
_chemical_formula_sum "Si O2"
_cell_formula_units_Z 208
_cell_length_a 17.295692
_cell_length_b 23.573896
_cell_length_c 28.296595
_cell_angle_alpha 90.000000
_cell_angle_beta 90.000000
_cell_angle_gamma 90.000000
_cell_volume 11537.281388
_symmetry_space_group_name_H-M "F M M M"
_symmetry_group_IT_number 69
_symmetry_cell_setting 'orthorhombic'
loop_
_space_group_symop_operation_xyz
x,y,z
-x,-y,z
x,-y,-z
-x,y,-z
-x,-y,-z
x,y,-z
-x,y,z
x,-y,z
x,1/2+y,1/2+z
-x,1/2-y,1/2+z
x,1/2-y,1/2-z
-x,1/2+y,1/2-z
-x,1/2-y,1/2-z
x,1/2+y,1/2-z
-x,1/2+y,1/2+z
x,1/2-y,1/2+z
1/2+x,y,1/2+z
1/2-x,-y,1/2+z
1/2+x,-y,1/2-z
1/2-x,y,1/2-z
1/2-x,-y,1/2-z
1/2+x,y,1/2-z
1/2-x,y,1/2+z
1/2+x,-y,1/2+z
1/2+x,1/2+y,z
1/2-x,1/2-y,z
1/2+x,1/2-y,-z
1/2-x,1/2+y,-z
1/2-x,1/2-y,-z
1/2+x,1/2+y,-z
1/2-x,1/2+y,z
1/2+x,1/2-y,z
loop_
_atom_site_type_symbol
_atom_site_label
_atom_site_fract_x
_atom_site_fract_y
_atom_site_fract_z
Si Si1 0.808495 0.138415 0.554390
Si Si2 0.087030 0.754664 0.446009
Si Si3 0.168173 0.935583 0.826479
Si Si4 0.414500 0.933028 0.233325
Si Si5 0.866638 0.637825 0.587429
Si Si6 0.658246 0.936341 0.859056
Si Si7 0.000000 0.439151 0.552712
O O1 0.824553 0.119901 0.500000
O O2 0.848026 0.198695 0.564924
O O3 0.717199 0.139771 0.563164
O O4 0.847570 0.095199 0.590960
O O5 0.096074 0.733369 0.500000
O O6 0.100811 0.701652 0.411291
O O7 0.000000 0.778717 0.437755
O O8 0.146323 0.914943 0.773714
O O9 0.131794 0.888177 0.860277
O O10 0.258764 0.935561 0.834378
O O11 0.136042 0.000000 0.835726
O O12 0.500000 0.912968 0.248653
O O13 0.395183 0.907192 0.181398
O O14 0.409746 0.000000 0.226732
O O15 0.922917 0.597158 0.559002
O O16 0.632245 0.000000 0.871016
O O17 0.000000 0.500000 0.581530
O O18 0.000000 0.458929 0.500000
#
# Coordination Sequence:
#
# PCOD8284826 Si02
#       7
#    32  32  32  32  32  32  16
#     4  10  21  35  54  78 103 138 185 227 264 316
#     4  10  20  35  54  74  99 136 184 234 275 309
#     4   9  18  31  49  75 106 138 171 208 253 315
#     4   9  17  29  49  74 100 133 172 213 257 312
#     4  11  20  33  52  75 107 144 179 217 260 315
#     4   9  18  33  51  74 104 136 168 210 268 321
#     4  11  22  32  46  74 114 151 175 205 258 323
#
# _framework density 18.028511000000002
#
# number of rings (size 3 to 8) (size 9 to 14) (size 15 to 20)
#    0.000    2.231    0.769    2.769    1.077    4.615 
#    0.000    0.000    0.000    0.923    0.000   10.769 
#    0.000    0.000    0.000    0.000    0.000    0.000 
#
# Total GULP energy -644344.367280 kJ/mol
# GULP energy per Si atom -12391.237832 kJ/mol
# Density = 1.798748 g / cm^3
# Si number density = 18.028511 Si / 1000 Ang^3
#
#
#
# Elastic Constant Matrix: (Units=GPa)
#
#
# Indices 1 2 3 4 5 6 
#
# 1 69.7090 44.6642 35.0832 0.0000 0.0000 0.0000
# 2 44.6642 96.4881 54.5735 0.0000 0.0000 0.0000
# 3 35.0832 54.5735 124.0312 0.0000 0.0000 0.0000
# 4 0.0000 0.0000 0.0000 17.2459 0.0000 0.0000
# 5 0.0000 0.0000 0.0000 0.0000 25.8889 0.0000
# 6 0.0000 0.0000 0.0000 0.0000 0.0000 22.5591
#
#
#
# Elastic Compliance Matrix: (Units=1/GPa)
#
#
# Indices 1 2 3 4 5 6 
#
# 1 0.020834 -0.008402 -0.002196 0.000000 0.000000 0.000000
# 2 -0.008402 0.017186 -0.005185 0.000000 0.000000 0.000000
# 3 -0.002196 -0.005185 0.010965 0.000000 0.000000 0.000000
# 4 0.000000 0.000000 0.000000 0.057985 0.000000 0.000000
# 5 0.000000 0.000000 0.000000 0.000000 0.038627 0.000000
# 6 0.000000 0.000000 0.000000 0.000000 0.000000 0.044328
#
#
# Mechanical properties :
#
#
# Convention : Reuss Voigt Hill
#
# Bulk Modulus (GPa) = 57.41045 62.09669 59.75357
# Shear Modulus (GPa) = 21.99762 23.53260 22.76511
#
# Velocity S-wave (km/s) = 3.49686 3.61681 3.55734
# Velocity P-wave (km/s) = 6.94388 7.20834 7.07734
#
# Compressibility (1/GPa) = 0.01741843
#
# Stress axis : x y z
#
# Youngs Moduli (GPa) = 47.99866 58.18719 91.19734
#
# Poissons Ratio (x) = 0.48888 0.20029
# Poissons Ratio (y) = 0.40327 0.47288
# Poissons Ratio (z) = 0.10542 0.30172
#
# Static dielectric constant tensor:
#      x y z
#    x 3.528990 0.000000 0.000000 
#    y 0.000000 3.153660 0.000000 
#    z 0.000000 0.000000 3.391810 
# 
# 
# High freq. dielectric constant tensor:
#      x y z
#    x 1.706250 0.000000 0.000000 
#    y 0.000000 1.668420 0.000000 
#    z 0.000000 0.000000 1.694210 
# 
# From -- ./inp_files/27906.got.cif
#   From: 2010.03.12/outbox.cif.g09.slc.cpg/sg69_14_cif.got.tgz:27906.got - 2010.04.10 23:52:46.
