data_PCOD8284638
_publ_section_title
;
Structure prediction by ZEFSAII (Michael W. Deem and Ramdas Pophale) SiO2 
 PCOD8284638
Probable space group: F M M M
;
_chemical_formula_sum "Si O2"
_cell_formula_units_Z 176
_cell_length_a 13.791499
_cell_length_b 30.124496
_cell_length_c 23.246584
_cell_angle_alpha 90.000000
_cell_angle_beta 90.000000
_cell_angle_gamma 90.000000
_cell_volume 9658.071270
_symmetry_space_group_name_H-M "F M M M"
_symmetry_group_IT_number 69
_symmetry_cell_setting 'orthorhombic'
loop_
_space_group_symop_operation_xyz
x,y,z
-x,-y,z
x,-y,-z
-x,y,-z
-x,-y,-z
x,y,-z
-x,y,z
x,-y,z
x,1/2+y,1/2+z
-x,1/2-y,1/2+z
x,1/2-y,1/2-z
-x,1/2+y,1/2-z
-x,1/2-y,1/2-z
x,1/2+y,1/2-z
-x,1/2+y,1/2+z
x,1/2-y,1/2+z
1/2+x,y,1/2+z
1/2-x,-y,1/2+z
1/2+x,-y,1/2-z
1/2-x,y,1/2-z
1/2-x,-y,1/2-z
1/2+x,y,1/2-z
1/2-x,y,1/2+z
1/2+x,-y,1/2+z
1/2+x,1/2+y,z
1/2-x,1/2-y,z
1/2+x,1/2-y,-z
1/2-x,1/2+y,-z
1/2-x,1/2-y,-z
1/2+x,1/2+y,-z
1/2-x,1/2+y,z
1/2+x,1/2-y,z
loop_
_atom_site_type_symbol
_atom_site_label
_atom_site_fract_x
_atom_site_fract_y
_atom_site_fract_z
Si Si1 0.611846 0.274656 0.858746
Si Si2 0.884613 0.000000 0.934325
Si Si3 0.614424 0.408731 0.117510
Si Si4 0.887309 0.327341 0.155523
Si Si5 0.729711 0.668038 0.065541
Si Si6 0.114094 0.647287 0.722380
O O1 0.500000 0.283277 0.874639
O O2 0.628332 0.225263 0.836105
O O3 0.677140 0.286217 0.914500
O O4 0.650070 0.308606 0.810226
O O5 0.845197 0.042783 0.899426
O O6 0.000000 0.000000 0.935277
O O7 0.845089 0.000000 0.000000
O O8 0.500000 0.406913 0.109341
O O9 0.656930 0.373052 0.073267
O O10 0.641775 0.396020 0.183993
O O11 0.827623 0.343392 0.100558
O O12 0.843476 0.352587 0.212453
O O13 0.000000 0.338749 0.144955
O O14 0.760422 0.673576 0.000000
O O15 0.000000 0.651309 0.730768
#
# Coordination Sequence:
#
# PCOD8284638 Si02
#       6
#    32  16  32  32  32  32
#     4   9  18  31  48  70  93 120 158 204 250 294
#     4   9  16  28  50  79 109 135 152 173 223 301
#     4   9  18  32  52  79 104 124 149 186 236 296
#     4  10  20  33  48  65  90 128 171 210 239 269
#     4  11  22  33  46  67  97 132 166 200 244 294
#     4   8  15  30  50  70  94 123 157 198 244 288
#
# _framework density 18.223099000000001
#
# number of rings (size 3 to 8) (size 9 to 14) (size 15 to 20)
#    0.000    2.636    0.000    3.273    0.000    9.091 
#    0.000    5.455    0.000    2.182    0.000    1.909 
#    0.000    2.182    0.000    0.000    0.000    0.000 
#
# Total GULP energy -545367.291838 kJ/mol
# GULP energy per Si atom -12394.711178 kJ/mol
# Density = 1.818162 g / cm^3
# Si number density = 18.223099 Si / 1000 Ang^3
#
#
#
# Elastic Constant Matrix: (Units=GPa)
#
#
# Indices 1 2 3 4 5 6 
#
# 1 39.6544 24.8038 47.0431 0.0000 0.0000 0.0000
# 2 24.8038 81.6066 44.6541 0.0000 0.0000 0.0000
# 3 47.0431 44.6541 170.4331 0.0000 0.0000 0.0000
# 4 0.0000 0.0000 0.0000 23.6957 0.0000 0.0000
# 5 0.0000 0.0000 0.0000 0.0000 26.5925 0.0000
# 6 0.0000 0.0000 0.0000 0.0000 0.0000 11.1821
#
#
#
# Elastic Compliance Matrix: (Units=1/GPa)
#
#
# Indices 1 2 3 4 5 6 
#
# 1 0.040913 -0.007303 -0.009379 0.000000 0.000000 0.000000
# 2 -0.007303 0.015608 -0.002074 0.000000 0.000000 0.000000
# 3 -0.009379 -0.002074 0.009000 0.000000 0.000000 0.000000
# 4 0.000000 0.000000 0.000000 0.042202 0.000000 0.000000
# 5 0.000000 0.000000 0.000000 0.000000 0.037605 0.000000
# 6 0.000000 0.000000 0.000000 0.000000 0.000000 0.089428
#
#
# Mechanical properties :
#
#
# Convention : Reuss Voigt Hill
#
# Bulk Modulus (GPa) = 35.70311 58.29957 47.00134
# Shear Modulus (GPa) = 17.75544 23.97361 20.86452
#
# Velocity S-wave (km/s) = 3.12482 3.63100 3.38738
# Velocity P-wave (km/s) = 5.71438 7.04560 6.41462
#
# Compressibility (1/GPa) = 0.02800877
#
# Stress axis : x y z
#
# Youngs Moduli (GPa) = 24.44219 64.06854 111.11566
#
# Poissons Ratio (x) = 0.46789 1.04220
# Poissons Ratio (y) = 0.17850 0.23042
# Poissons Ratio (z) = 0.22925 0.13286
#
# Static dielectric constant tensor:
#      x y z
#    x 3.330380 0.000000 0.000000 
#    y 0.000000 3.401290 0.000000 
#    z 0.000000 0.000000 3.495270 
# 
# 
# High freq. dielectric constant tensor:
#      x y z
#    x 1.698970 0.000000 0.000000 
#    y 0.000000 1.672220 0.000000 
#    z 0.000000 0.000000 1.701760 
# 
# From -- ./inp_files/36178.got.cif
#   From: 2010.03.12/outbox.cif.g09.slc.cpg/sg69_19_cif.got.tgz:36178.got - 2010.04.10 23:52:46.
