data_PCOD8284957
_publ_section_title
;
Structure prediction by ZEFSAII (Michael W. Deem and Ramdas Pophale) SiO2 
 PCOD8284957
Probable space group: F M M M
;
_chemical_formula_sum "Si O2"
_cell_formula_units_Z 160
_cell_length_a 33.479795
_cell_length_b 13.528353
_cell_length_c 18.299860
_cell_angle_alpha 90.000000
_cell_angle_beta 90.000000
_cell_angle_gamma 90.000000
_cell_volume 8288.491268
_symmetry_space_group_name_H-M "F M M M"
_symmetry_group_IT_number 69
_symmetry_cell_setting 'orthorhombic'
loop_
_space_group_symop_operation_xyz
x,y,z
-x,-y,z
x,-y,-z
-x,y,-z
-x,-y,-z
x,y,-z
-x,y,z
x,-y,z
x,1/2+y,1/2+z
-x,1/2-y,1/2+z
x,1/2-y,1/2-z
-x,1/2+y,1/2-z
-x,1/2-y,1/2-z
x,1/2+y,1/2-z
-x,1/2+y,1/2+z
x,1/2-y,1/2+z
1/2+x,y,1/2+z
1/2-x,-y,1/2+z
1/2+x,-y,1/2-z
1/2-x,y,1/2-z
1/2-x,-y,1/2-z
1/2+x,y,1/2-z
1/2-x,y,1/2+z
1/2+x,-y,1/2+z
1/2+x,1/2+y,z
1/2-x,1/2-y,z
1/2+x,1/2-y,-z
1/2-x,1/2+y,-z
1/2-x,1/2-y,-z
1/2+x,1/2+y,-z
1/2-x,1/2+y,z
1/2+x,1/2-y,z
loop_
_atom_site_type_symbol
_atom_site_label
_atom_site_fract_x
_atom_site_fract_y
_atom_site_fract_z
Si Si1 0.573460 0.388287 0.220711
Si Si2 0.816924 0.386203 0.000000
Si Si3 0.205196 0.282750 0.147523
Si Si4 0.666208 0.888111 0.280086
Si Si5 0.045631 0.208322 0.635697
Si Si6 0.911482 0.886503 0.500000
O O1 0.563498 0.500000 0.197720
O O2 0.619903 0.373832 0.239149
O O3 0.560105 0.319243 0.153772
O O4 0.549137 0.360673 0.293249
O O5 0.798397 0.331873 0.069207
O O6 0.803137 0.500000 0.000000
O O7 0.864206 0.377974 0.000000
O O8 0.250000 0.250000 0.163359
O O9 0.177678 0.184446 0.153233
O O10 0.191722 0.361603 0.208418
O O11 0.675719 0.000000 0.303858
O O12 0.072735 0.166527 0.571749
O O13 0.000000 0.210030 0.609310
O O14 0.925718 0.000000 0.500000
#
# Coordination Sequence:
#
# PCOD8284957 Si02
#       6
#    32  16  32  32  32  16
#     4  10  20  36  58  82 110 147 187 223 265 324
#     4  11  23  40  60  79 107 148 188 228 277 334
#     4  11  22  36  56  84 115 143 180 229 277 328
#     4  10  20  36  59  83 110 147 186 224 268 323
#     4  11  22  35  55  83 113 143 179 229 281 327
#     4  11  23  39  59  81 108 144 185 231 281 333
#
# _framework density 19.303875000000001
#
# number of rings (size 3 to 8) (size 9 to 14) (size 15 to 20)
#    0.000    1.400    0.000    9.000    0.000    8.800 
#    0.000    1.000    0.000    4.800    0.000    0.000 
#    0.000    0.000    0.000    0.000    0.000    0.000 
#
# Total GULP energy -496143.428475 kJ/mol
# GULP energy per Si atom -12403.585712 kJ/mol
# Density = 1.925994 g / cm^3
# Si number density = 19.303875 Si / 1000 Ang^3
#
#
#
# Elastic Constant Matrix: (Units=GPa)
#
#
# Indices 1 2 3 4 5 6 
#
# 1 78.3004 23.5575 3.5928 0.0000 0.0000 0.0000
# 2 23.5575 145.2516 36.1725 0.0000 0.0000 0.0000
# 3 3.5928 36.1725 82.2324 0.0000 0.0000 0.0000
# 4 0.0000 0.0000 0.0000 23.8749 0.0000 0.0000
# 5 0.0000 0.0000 0.0000 0.0000 21.2034 0.0000
# 6 0.0000 0.0000 0.0000 0.0000 0.0000 11.1989
#
#
#
# Elastic Compliance Matrix: (Units=1/GPa)
#
#
# Indices 1 2 3 4 5 6 
#
# 1 0.013439 -0.002284 0.000417 0.000000 0.000000 0.000000
# 2 -0.002284 0.008120 -0.003472 0.000000 0.000000 0.000000
# 3 0.000417 -0.003472 0.013670 0.000000 0.000000 0.000000
# 4 0.000000 0.000000 0.000000 0.041885 0.000000 0.000000
# 5 0.000000 0.000000 0.000000 0.000000 0.047162 0.000000
# 6 0.000000 0.000000 0.000000 0.000000 0.000000 0.089294
#
#
# Mechanical properties :
#
#
# Convention : Reuss Voigt Hill
#
# Bulk Modulus (GPa) = 40.72953 48.04777 44.38865
# Shear Modulus (GPa) = 21.51185 27.41956 24.46570
#
# Velocity S-wave (km/s) = 3.34185 3.77293 3.56392
# Velocity P-wave (km/s) = 6.00297 6.62754 6.32297
#
# Compressibility (1/GPa) = 0.02455221
#
# Stress axis : x y z
#
# Youngs Moduli (GPa) = 74.40911 123.15907 73.15481
#
# Poissons Ratio (x) = 0.28124 -0.03053
# Poissons Ratio (y) = 0.16992 0.25398
# Poissons Ratio (z) = -0.03105 0.42759
#
# Static dielectric constant tensor:
#      x y z
#    x 3.628550 0.000000 0.000000 
#    y 0.000000 3.805010 0.000000 
#    z 0.000000 0.000000 3.412130 
# 
# 
# High freq. dielectric constant tensor:
#      x y z
#    x 1.765920 0.000000 0.000000 
#    y 0.000000 1.765170 0.000000 
#    z 0.000000 0.000000 1.733210 
# 
# From -- ./inp_files/27510.got.cif
#   From: 2010.03.12/outbox.cif.g09.slc.cpg/sg69_14_cif.got.tgz:27510.got - 2010.04.10 23:52:46.
