data_PCOD8284341
_publ_section_title
;
Structure prediction by ZEFSAII (Michael W. Deem and Ramdas Pophale) SiO2 
 PCOD8284341
Probable space group: F M M M
;
_chemical_formula_sum "Si O2"
_cell_formula_units_Z 176
_cell_length_a 26.690209
_cell_length_b 18.408666
_cell_length_c 17.411374
_cell_angle_alpha 90.000000
_cell_angle_beta 90.000000
_cell_angle_gamma 90.000000
_cell_volume 8554.750288
_symmetry_space_group_name_H-M "F M M M"
_symmetry_group_IT_number 69
_symmetry_cell_setting 'orthorhombic'
loop_
_space_group_symop_operation_xyz
x,y,z
-x,-y,z
x,-y,-z
-x,y,-z
-x,-y,-z
x,y,-z
-x,y,z
x,-y,z
x,1/2+y,1/2+z
-x,1/2-y,1/2+z
x,1/2-y,1/2-z
-x,1/2+y,1/2-z
-x,1/2-y,1/2-z
x,1/2+y,1/2-z
-x,1/2+y,1/2+z
x,1/2-y,1/2+z
1/2+x,y,1/2+z
1/2-x,-y,1/2+z
1/2+x,-y,1/2-z
1/2-x,y,1/2-z
1/2-x,-y,1/2-z
1/2+x,y,1/2-z
1/2-x,y,1/2+z
1/2+x,-y,1/2+z
1/2+x,1/2+y,z
1/2-x,1/2-y,z
1/2+x,1/2-y,-z
1/2-x,1/2+y,-z
1/2-x,1/2-y,-z
1/2+x,1/2+y,-z
1/2-x,1/2+y,z
1/2+x,1/2-y,z
loop_
_atom_site_type_symbol
_atom_site_label
_atom_site_fract_x
_atom_site_fract_y
_atom_site_fract_z
Si Si1 0.440906 0.084209 0.693388
Si Si2 0.500000 0.578738 0.411414
Si Si3 0.890215 0.688811 0.408837
Si Si4 0.188786 0.581447 0.909296
Si Si5 0.277008 0.820441 0.409538
Si Si6 0.093601 0.842499 0.656022
O O1 0.500000 0.091322 0.705354
O O2 0.424198 0.118597 0.611800
O O3 0.412899 0.134285 0.755864
O O4 0.424125 0.000000 0.697536
O O5 0.500000 0.500000 0.368191
O O6 0.500000 0.563637 0.500000
O O7 0.550063 0.620622 0.392144
O O8 0.894012 0.704238 0.500000
O O9 0.833720 0.671467 0.380517
O O10 0.910689 0.756778 0.359542
O O11 0.182731 0.500000 0.878045
O O12 0.244302 0.609122 0.886521
O O13 0.147910 0.632774 0.871527
O O14 0.180908 0.585211 0.000000
O O15 0.278712 0.810424 0.500000
O O16 0.250000 0.750000 0.372689
#
# Coordination Sequence:
#
# PCOD8284341 Si02
#       6
#    32  16  32  32  32  32
#     4  11  26  47  66  87 125 175 217 260 318 378
#     4  11  22  34  55  90 130 166 205 257 314 378
#     4  11  24  41  68  99 126 162 214 269 316 371
#     4  10  19  32  58  94 128 165 208 254 310 377
#     4   9  17  35  59  88 125 163 201 251 313 369
#     4  12  22  39  64  92 127 165 207 258 321 384
#
# _framework density 20.573364000000002
#
# number of rings (size 3 to 8) (size 9 to 14) (size 15 to 20)
#    0.000    1.364    2.727    3.818    1.273    3.636 
#    0.000    3.636    0.000    2.182    0.000    0.000 
#    0.000    0.000    0.000    0.000    0.000    0.000 
#
# Total GULP energy -545573.955823 kJ/mol
# GULP energy per Si atom -12399.408087 kJ/mol
# Density = 2.052654 g / cm^3
# Si number density = 20.573364 Si / 1000 Ang^3
#
#
#
# Elastic Constant Matrix: (Units=GPa)
#
#
# Indices 1 2 3 4 5 6 
#
# 1 101.2275 49.3396 26.3935 0.0000 0.0000 0.0000
# 2 49.3396 124.2685 45.7076 0.0000 0.0000 0.0000
# 3 26.3935 45.7076 50.5033 0.0000 0.0000 0.0000
# 4 0.0000 0.0000 0.0000 21.7653 0.0000 0.0000
# 5 0.0000 0.0000 0.0000 0.0000 -280.3616 0.0000
# 6 0.0000 0.0000 0.0000 0.0000 0.0000 34.3831
#
#
#
# Elastic Compliance Matrix: (Units=1/GPa)
#
#
# Indices 1 2 3 4 5 6 
#
# 1 0.012560 -0.003856 -0.003074 0.000000 0.000000 0.000000
# 2 -0.003856 0.013246 -0.009973 0.000000 0.000000 0.000000
# 3 -0.003074 -0.009973 0.030433 0.000000 0.000000 0.000000
# 4 0.000000 0.000000 0.000000 0.045945 0.000000 0.000000
# 5 0.000000 0.000000 0.000000 0.000000 -0.003567 0.000000
# 6 0.000000 0.000000 0.000000 0.000000 0.000000 0.029084
#
#
# Mechanical properties :
#
#
# Convention : Reuss Voigt Hill
#
# Bulk Modulus (GPa) = 44.57736 57.65339 51.11538
# Shear Modulus (GPa) = 29.58828 -34.53873 -2.47522
#
# Velocity S-wave (km/s) = 3.79645 -4.10177 -1.09806
# Velocity P-wave (km/s) = 6.39781 2.37728 4.82615
#
# Compressibility (1/GPa) = 0.02243291
#
# Stress axis : x y z
#
# Youngs Moduli (GPa) = 79.61960 75.49198 32.85861
#
# Poissons Ratio (x) = 0.29110 0.10100
# Poissons Ratio (y) = 0.30702 0.32771
# Poissons Ratio (z) = 0.24474 0.75291
#
# Static dielectric constant tensor:
#      x y z
#    x 3.952980 0.000000 0.000000 
#    y 0.000000 3.884090 0.000000 
#    z 0.000000 0.000000 3.496120 
# 
# 
# High freq. dielectric constant tensor:
#      x y z
#    x 1.814670 0.000000 0.000000 
#    y 0.000000 1.813740 0.000000 
#    z 0.000000 0.000000 1.780000 
# 
# From -- ./inp_files/26750.got.cif
#   From: 2010.03.12/outbox.cif.g09.slc.cpg/sg69_14_cif.got.tgz:26750.got - 2010.04.10 23:52:46.
