data_PCOD8284584
_publ_section_title
;
Structure prediction by ZEFSAII (Michael W. Deem and Ramdas Pophale) SiO2 
 PCOD8284584
Probable space group: F M M M
;
_chemical_formula_sum "Si O2"
_cell_formula_units_Z 176
_cell_length_a 16.820583
_cell_length_b 19.020502
_cell_length_c 30.129615
_cell_angle_alpha 90.000000
_cell_angle_beta 90.000000
_cell_angle_gamma 90.000000
_cell_volume 9639.546474
_symmetry_space_group_name_H-M "F M M M"
_symmetry_group_IT_number 69
_symmetry_cell_setting 'orthorhombic'
loop_
_space_group_symop_operation_xyz
x,y,z
-x,-y,z
x,-y,-z
-x,y,-z
-x,-y,-z
x,y,-z
-x,y,z
x,-y,z
x,1/2+y,1/2+z
-x,1/2-y,1/2+z
x,1/2-y,1/2-z
-x,1/2+y,1/2-z
-x,1/2-y,1/2-z
x,1/2+y,1/2-z
-x,1/2+y,1/2+z
x,1/2-y,1/2+z
1/2+x,y,1/2+z
1/2-x,-y,1/2+z
1/2+x,-y,1/2-z
1/2-x,y,1/2-z
1/2-x,-y,1/2-z
1/2+x,y,1/2-z
1/2-x,y,1/2+z
1/2+x,-y,1/2+z
1/2+x,1/2+y,z
1/2-x,1/2-y,z
1/2+x,1/2-y,-z
1/2-x,1/2+y,-z
1/2-x,1/2-y,-z
1/2+x,1/2+y,-z
1/2-x,1/2+y,z
1/2+x,1/2-y,z
loop_
_atom_site_type_symbol
_atom_site_label
_atom_site_fract_x
_atom_site_fract_y
_atom_site_fract_z
Si Si1 0.372898 0.917174 0.122271
Si Si2 0.589229 0.679146 0.702575
Si Si3 0.905438 0.665732 0.300356
Si Si4 0.309202 0.916764 0.371848
Si Si5 0.500000 0.416973 0.550372
Si Si6 0.588522 0.083620 0.451516
O O1 0.408057 0.879867 0.165312
O O2 0.281483 0.894052 0.120051
O O3 0.421132 0.893244 0.077971
O O4 0.383555 0.000000 0.129311
O O5 0.500000 0.698066 0.715281
O O6 0.623471 0.651548 0.749550
O O7 0.622799 0.754844 0.686749
O O8 0.849616 0.614150 0.328284
O O9 0.000000 0.650512 0.309041
O O10 0.354171 0.884857 0.414443
O O11 0.316764 0.000000 0.368426
O O12 0.500000 0.500000 0.545599
O O13 0.500000 0.384461 0.500000
O O14 0.618094 0.108823 0.500000
O O15 0.500000 0.112214 0.442471
O O16 0.588628 0.000000 0.449638
#
# Coordination Sequence:
#
# PCOD8284584 Si02
#       6
#    32  32  32  32  16  32
#     4  10  20  33  52  77 103 133 167 211 265 312
#     4   9  18  35  55  73  99 134 178 217 250 302
#     4   9  19  34  53  76 101 137 177 212 249 299
#     4  10  20  31  46  76 111 135 166 210 254 304
#     4   9  18  34  56  79 100 128 171 218 266 314
#     4   8  14  26  45  67  94 131 166 196 238 292
#
# _framework density 18.258120000000002
#
# number of rings (size 3 to 8) (size 9 to 14) (size 15 to 20)
#    0.000    2.818    0.909    2.182    0.000    4.000 
#    0.000    9.091    0.000    1.091    0.000    2.545 
#    0.000    0.000    0.000    0.000    0.000    0.000 
#
# Total GULP energy -545143.260001 kJ/mol
# GULP energy per Si atom -12389.619545 kJ/mol
# Density = 1.821656 g / cm^3
# Si number density = 18.258120 Si / 1000 Ang^3
#
#
#
# Elastic Constant Matrix: (Units=GPa)
#
#
# Indices 1 2 3 4 5 6 
#
# 1 102.6923 23.5635 63.0091 0.0000 0.0000 0.0000
# 2 23.5635 26.0408 32.2589 0.0000 0.0000 0.0000
# 3 63.0091 32.2589 145.9619 0.0000 0.0000 0.0000
# 4 0.0000 0.0000 0.0000 2.8421 0.0000 0.0000
# 5 0.0000 0.0000 0.0000 0.0000 -2.1763 0.0000
# 6 0.0000 0.0000 0.0000 0.0000 0.0000 16.9791
#
#
#
# Elastic Compliance Matrix: (Units=1/GPa)
#
#
# Indices 1 2 3 4 5 6 
#
# 1 0.014168 -0.007221 -0.004520 0.000000 0.000000 0.000000
# 2 -0.007221 0.056558 -0.009383 0.000000 0.000000 0.000000
# 3 -0.004520 -0.009383 0.010876 0.000000 0.000000 0.000000
# 4 0.000000 0.000000 0.000000 0.351854 0.000000 0.000000
# 5 0.000000 0.000000 0.000000 0.000000 -0.459485 0.000000
# 6 0.000000 0.000000 0.000000 0.000000 0.000000 0.058896
#
#
# Mechanical properties :
#
#
# Convention : Reuss Voigt Hill
#
# Bulk Modulus (GPa) = 25.40971 56.92866 41.16919
# Shear Modulus (GPa) = 56.66765 13.91987 35.29376
#
# Velocity S-wave (km/s) = 5.57713 2.76414 4.40141
# Velocity P-wave (km/s) = 7.44443 6.43700 6.95897
#
# Compressibility (1/GPa) = 0.03935503
#
# Stress axis : x y z
#
# Youngs Moduli (GPa) = 70.58054 17.68082 91.94429
#
# Poissons Ratio (x) = 0.12767 0.41562
# Poissons Ratio (y) = 0.50964 0.86270
# Poissons Ratio (z) = 0.31905 0.16590
#
# Static dielectric constant tensor:
#      x y z
#    x 3.469580 0.000000 0.000000 
#    y 0.000000 2.967980 0.000000 
#    z 0.000000 0.000000 3.581470 
# 
# 
# High freq. dielectric constant tensor:
#      x y z
#    x 1.705020 0.000000 0.000000 
#    y 0.000000 1.669970 0.000000 
#    z 0.000000 0.000000 1.716700 
# 
# From -- ./inp_files/46387.got.cif
#   From: 2010.03.12/outbox.cif.g09.slc.cpg/sg69_24_cif.got.tgz:46387.got - 2010.04.10 23:52:46.
