data_PCOD8284814
_publ_section_title
;
Structure prediction by ZEFSAII (Michael W. Deem and Ramdas Pophale) SiO2 
 PCOD8284814
Probable space group: F M M M
;
_chemical_formula_sum "Si O2"
_cell_formula_units_Z 144
_cell_length_a 33.324631
_cell_length_b 14.042238
_cell_length_c 18.495576
_cell_angle_alpha 90.000000
_cell_angle_beta 90.000000
_cell_angle_gamma 90.000000
_cell_volume 8655.049174
_symmetry_space_group_name_H-M "F M M M"
_symmetry_group_IT_number 69
_symmetry_cell_setting 'orthorhombic'
loop_
_space_group_symop_operation_xyz
x,y,z
-x,-y,z
x,-y,-z
-x,y,-z
-x,-y,-z
x,y,-z
-x,y,z
x,-y,z
x,1/2+y,1/2+z
-x,1/2-y,1/2+z
x,1/2-y,1/2-z
-x,1/2+y,1/2-z
-x,1/2-y,1/2-z
x,1/2+y,1/2-z
-x,1/2+y,1/2+z
x,1/2-y,1/2+z
1/2+x,y,1/2+z
1/2-x,-y,1/2+z
1/2+x,-y,1/2-z
1/2-x,y,1/2-z
1/2-x,-y,1/2-z
1/2+x,y,1/2-z
1/2-x,y,1/2+z
1/2+x,-y,1/2+z
1/2+x,1/2+y,z
1/2-x,1/2-y,z
1/2+x,1/2-y,-z
1/2-x,1/2+y,-z
1/2-x,1/2-y,-z
1/2+x,1/2+y,-z
1/2-x,1/2+y,z
1/2+x,1/2-y,z
loop_
_atom_site_type_symbol
_atom_site_label
_atom_site_fract_x
_atom_site_fract_y
_atom_site_fract_z
Si Si1 0.500000 0.896717 0.085046
Si Si2 0.653255 0.771764 0.166990
Si Si3 0.732300 0.890504 0.826186
Si Si4 0.810017 0.390764 0.583327
Si Si5 0.587016 0.613481 0.416629
O O1 0.542323 0.846204 0.105019
O O2 0.500000 0.000000 0.123107
O O3 0.500000 0.913025 0.000000
O O4 0.644313 0.750000 0.250000
O O5 0.693978 0.829186 0.153831
O O6 0.657126 0.671766 0.125245
O O7 0.617207 0.833261 0.135757
O O8 0.750000 0.855265 0.750000
O O9 0.765245 0.873103 0.887503
O O10 0.718851 0.000000 0.820995
O O11 0.810153 0.361841 0.500000
O O12 0.822650 0.500000 0.595571
O O13 0.597211 0.637636 0.500000
O O14 0.589433 0.500000 0.404402
#
# Coordination Sequence:
#
# PCOD8284814 Si02
#       5
#    16  32  32  32  32
#     4   7  12  28  53  76 101 129 153 189 250 311
#     4  12  22  31  50  76 102 132 167 204 247 298
#     4  10  20  35  51  68  96 132 168 206 250 297
#     4  10  22  37  51  68  94 133 176 214 251 290
#     4   9  18  33  54  80 104 126 158 203 253 302
#
# _framework density 16.637687
#
# number of rings (size 3 to 8) (size 9 to 14) (size 15 to 20)
#    0.000    2.111    2.222    3.333    0.000    3.556 
#    0.000    2.778    0.000    0.000    0.000    0.778 
#    0.000    4.444    0.000    0.000    0.000    0.000 
#
# Total GULP energy -446269.650468 kJ/mol
# GULP energy per Si atom -12396.379180 kJ/mol
# Density = 1.659982 g / cm^3
# Si number density = 16.637687 Si / 1000 Ang^3
#
#
#
# Elastic Constant Matrix: (Units=GPa)
#
#
# Indices 1 2 3 4 5 6 
#
# 1 103.0813 51.6882 54.3637 0.0000 0.0000 0.0000
# 2 51.6882 72.2103 50.3895 0.0000 0.0000 0.0000
# 3 54.3637 50.3895 120.1769 0.0000 0.0000 0.0000
# 4 0.0000 0.0000 0.0000 20.8944 0.0000 0.0000
# 5 0.0000 0.0000 0.0000 0.0000 18.5009 0.0000
# 6 0.0000 0.0000 0.0000 0.0000 0.0000 -11.2109
#
#
#
# Elastic Compliance Matrix: (Units=1/GPa)
#
#
# Indices 1 2 3 4 5 6 
#
# 1 0.016091 -0.009102 -0.003463 0.000000 0.000000 0.000000
# 2 -0.009102 0.024725 -0.006250 0.000000 0.000000 0.000000
# 3 -0.003463 -0.006250 0.012508 0.000000 0.000000 0.000000
# 4 0.000000 0.000000 0.000000 0.047860 0.000000 0.000000
# 5 0.000000 0.000000 0.000000 0.000000 0.054052 0.000000
# 6 0.000000 0.000000 0.000000 0.000000 0.000000 -0.089199
#
#
# Mechanical properties :
#
#
# Convention : Reuss Voigt Hill
#
# Bulk Modulus (GPa) = 63.71250 67.59459 65.65354
# Shear Modulus (GPa) = 45.91531 14.90533 30.41032
#
# Velocity S-wave (km/s) = 5.25900 2.99637 4.27991
# Velocity P-wave (km/s) = 8.67487 7.25855 7.99812
#
# Compressibility (1/GPa) = 0.01569551
#
# Stress axis : x y z
#
# Youngs Moduli (GPa) = 62.14574 40.44571 79.94944
#
# Poissons Ratio (x) = 0.36813 0.27685
# Poissons Ratio (y) = 0.56563 0.49965
# Poissons Ratio (z) = 0.21520 0.25277
#
# Static dielectric constant tensor:
#      x y z
#    x 3.233920 0.000000 0.000000 
#    y 0.000000 3.176040 0.000000 
#    z 0.000000 0.000000 3.087590 
# 
# 
# High freq. dielectric constant tensor:
#      x y z
#    x 1.628490 0.000000 0.000000 
#    y 0.000000 1.636650 0.000000 
#    z 0.000000 0.000000 1.634740 
# 
# From -- ./inp_files/15551.got.cif
#   From: 2010.03.12/outbox.cif.g09.slc.cpg/sg69_8_cif.got.tgz:15551.got - 2010.04.10 23:52:46.
