data_PCOD8284494
_publ_section_title
;
Structure prediction by ZEFSAII (Michael W. Deem and Ramdas Pophale) SiO2 
 PCOD8284494
Probable space group: F M M M
;
_chemical_formula_sum "Si O2"
_cell_formula_units_Z 192
_cell_length_a 16.625506
_cell_length_b 20.687126
_cell_length_c 27.484274
_cell_angle_alpha 90.000000
_cell_angle_beta 90.000000
_cell_angle_gamma 90.000000
_cell_volume 9452.774574
_symmetry_space_group_name_H-M "F M M M"
_symmetry_group_IT_number 69
_symmetry_cell_setting 'orthorhombic'
loop_
_space_group_symop_operation_xyz
x,y,z
-x,-y,z
x,-y,-z
-x,y,-z
-x,-y,-z
x,y,-z
-x,y,z
x,-y,z
x,1/2+y,1/2+z
-x,1/2-y,1/2+z
x,1/2-y,1/2-z
-x,1/2+y,1/2-z
-x,1/2-y,1/2-z
x,1/2+y,1/2-z
-x,1/2+y,1/2+z
x,1/2-y,1/2+z
1/2+x,y,1/2+z
1/2-x,-y,1/2+z
1/2+x,-y,1/2-z
1/2-x,y,1/2-z
1/2-x,-y,1/2-z
1/2+x,y,1/2-z
1/2-x,y,1/2+z
1/2+x,-y,1/2+z
1/2+x,1/2+y,z
1/2-x,1/2-y,z
1/2+x,1/2-y,-z
1/2-x,1/2+y,-z
1/2-x,1/2-y,-z
1/2+x,1/2+y,-z
1/2-x,1/2+y,z
1/2+x,1/2-y,z
loop_
_atom_site_type_symbol
_atom_site_label
_atom_site_fract_x
_atom_site_fract_y
_atom_site_fract_z
Si Si1 0.594166 0.573472 0.207269
Si Si2 0.854191 0.368040 0.610204
Si Si3 0.905006 0.776192 0.618495
Si Si4 0.589509 0.000000 0.057559
Si Si5 0.905167 0.186436 0.724176
Si Si6 0.314391 0.874371 0.057591
Si Si7 0.000000 0.071932 0.057118
O O1 0.500000 0.585307 0.195838
O O2 0.610372 0.500000 0.223973
O O3 0.643384 0.588367 0.158444
O O4 0.625636 0.620775 0.250091
O O5 0.868302 0.294376 0.625116
O O6 0.769856 0.377096 0.584329
O O7 0.921369 0.389615 0.572393
O O8 0.881926 0.815616 0.667354
O O9 0.864343 0.810875 0.572523
O O10 0.000000 0.772109 0.609896
O O11 0.635886 0.063416 0.075287
O O12 0.500000 0.000000 0.080663
O O13 0.582947 0.000000 0.000000
O O14 0.867090 0.250000 0.750000
O O15 0.000000 0.190642 0.729936
O O16 0.300597 0.872891 0.000000
O O17 0.000000 0.000000 0.080665
O O18 0.000000 0.066260 0.000000
#
# Coordination Sequence:
#
# PCOD8284494 Si02
#       7
#    32  32  32  16  32  32  16
#     4  10  19  34  61  95 129 167 208 254 313 387
#     4  12  22  39  62  94 130 170 214 256 321 391
#     4  11  22  41  66  92 123 167 219 266 322 384
#     4   9  20  44  70  89 114 165 223 262 313 377
#     4   9  17  34  61  90 122 161 210 261 308 379
#     4  11  26  43  63  91 128 166 212 275 326 371
#     4  11  24  38  58  91 132 171 213 258 310 389
#
# _framework density 20.311496999999999
#
# number of rings (size 3 to 8) (size 9 to 14) (size 15 to 20)
#    0.000    1.500    3.333    2.000    2.333    3.000 
#    1.500    0.833    0.000    1.000    0.000    0.000 
#    0.000    0.000    0.000    0.000    0.000    0.000 
#
# Total GULP energy -595344.845619 kJ/mol
# GULP energy per Si atom -12403.017617 kJ/mol
# Density = 2.026527 g / cm^3
# Si number density = 20.311497 Si / 1000 Ang^3
#
#
#
# Elastic Constant Matrix: (Units=GPa)
#
#
# Indices 1 2 3 4 5 6 
#
# 1 119.9480 46.9266 45.6058 0.0000 0.0000 0.0000
# 2 46.9266 148.3454 54.7233 0.0000 0.0000 0.0000
# 3 45.6058 54.7233 99.2253 0.0000 0.0000 0.0000
# 4 0.0000 0.0000 0.0000 39.7961 0.0000 0.0000
# 5 0.0000 0.0000 0.0000 0.0000 27.0180 0.0000
# 6 0.0000 0.0000 0.0000 0.0000 0.0000 20.2257
#
#
#
# Elastic Compliance Matrix: (Units=1/GPa)
#
#
# Indices 1 2 3 4 5 6 
#
# 1 0.010529 -0.001940 -0.003769 0.000000 0.000000 0.000000
# 2 -0.001940 0.008820 -0.003973 0.000000 0.000000 0.000000
# 3 -0.003769 -0.003973 0.014001 0.000000 0.000000 0.000000
# 4 0.000000 0.000000 0.000000 0.025128 0.000000 0.000000
# 5 0.000000 0.000000 0.000000 0.000000 0.037012 0.000000
# 6 0.000000 0.000000 0.000000 0.000000 0.000000 0.049442
#
#
# Mechanical properties :
#
#
# Convention : Reuss Voigt Hill
#
# Bulk Modulus (GPa) = 71.49788 73.55886 72.52837
# Shear Modulus (GPa) = 29.59279 32.09216 30.84247
#
# Velocity S-wave (km/s) = 3.82114 3.97923 3.90099
# Velocity P-wave (km/s) = 7.39900 7.57670 7.48838
#
# Compressibility (1/GPa) = 0.01398643
#
# Stress axis : x y z
#
# Youngs Moduli (GPa) = 94.97419 113.37530 71.42106
#
# Poissons Ratio (x) = 0.21998 0.26921
# Poissons Ratio (y) = 0.18427 0.28373
# Poissons Ratio (z) = 0.35799 0.45040
#
# Static dielectric constant tensor:
#      x y z
#    x 3.586640 0.000000 0.000000 
#    y 0.000000 3.919270 0.000000 
#    z 0.000000 0.000000 3.641190 
# 
# 
# High freq. dielectric constant tensor:
#      x y z
#    x 1.778280 0.000000 0.000000 
#    y 0.000000 1.806020 0.000000 
#    z 0.000000 0.000000 1.791800 
# 
# From -- ./inp_files/46406.got.cif
#   From: 2010.03.12/outbox.cif.g09.slc.cpg/sg69_24_cif.got.tgz:46406.got - 2010.04.10 23:52:46.
