data_PCOD8284580
_publ_section_title
;
Structure prediction by ZEFSAII (Michael W. Deem and Ramdas Pophale) SiO2 
 PCOD8284580
Probable space group: F M M M
;
_chemical_formula_sum "Si O2"
_cell_formula_units_Z 176
_cell_length_a 13.337531
_cell_length_b 24.063649
_cell_length_c 30.985122
_cell_angle_alpha 90.000000
_cell_angle_beta 90.000000
_cell_angle_gamma 90.000000
_cell_volume 9944.664511
_symmetry_space_group_name_H-M "F M M M"
_symmetry_group_IT_number 69
_symmetry_cell_setting 'orthorhombic'
loop_
_space_group_symop_operation_xyz
x,y,z
-x,-y,z
x,-y,-z
-x,y,-z
-x,-y,-z
x,y,-z
-x,y,z
x,-y,z
x,1/2+y,1/2+z
-x,1/2-y,1/2+z
x,1/2-y,1/2-z
-x,1/2+y,1/2-z
-x,1/2-y,1/2-z
x,1/2+y,1/2-z
-x,1/2+y,1/2+z
x,1/2-y,1/2+z
1/2+x,y,1/2+z
1/2-x,-y,1/2+z
1/2+x,-y,1/2-z
1/2-x,y,1/2-z
1/2-x,-y,1/2-z
1/2+x,y,1/2-z
1/2-x,y,1/2+z
1/2+x,-y,1/2+z
1/2+x,1/2+y,z
1/2-x,1/2-y,z
1/2+x,1/2-y,-z
1/2-x,1/2+y,-z
1/2-x,1/2-y,-z
1/2+x,1/2+y,-z
1/2-x,1/2+y,z
1/2+x,1/2-y,z
loop_
_atom_site_type_symbol
_atom_site_label
_atom_site_fract_x
_atom_site_fract_y
_atom_site_fract_z
Si Si1 0.881341 0.200419 0.781077
Si Si2 0.883112 0.272977 0.625350
Si Si3 0.382953 0.349459 0.398475
Si Si4 0.114109 0.437267 0.824210
Si Si5 0.250000 0.895856 0.250000
Si Si6 0.279314 0.813813 0.546851
O O1 0.842819 0.250000 0.750000
O O2 0.837971 0.207565 0.829202
O O3 0.841257 0.141532 0.765914
O O4 0.000000 0.197613 0.779559
O O5 0.842260 0.210346 0.618611
O O6 0.859498 0.315680 0.586124
O O7 0.000000 0.268113 0.630297
O O8 0.500000 0.349101 0.411227
O O9 0.358455 0.396198 0.363359
O O10 0.314404 0.355272 0.441431
O O11 0.118389 0.500000 0.842140
O O12 0.198311 0.433030 0.787027
O O13 0.000000 0.423874 0.807820
O O14 0.321948 0.834059 0.500000
O O15 0.250000 0.750000 0.541239
#
# Coordination Sequence:
#
# PCOD8284580 Si02
#       6
#    32  32  32  32  16  32
#     4  10  20  31  45  70 101 130 160 192 229 281
#     4   9  17  29  44  65  95 126 154 183 219 273
#     4   9  17  30  47  64  87 121 154 185 228 279
#     4  10  21  35  49  66  89 120 163 211 252 289
#     4  12  20  30  48  68  92 126 160 198 244 288
#     4   9  17  28  44  69  96 119 147 183 225 280
#
# _framework density 17.697932999999999
#
# number of rings (size 3 to 8) (size 9 to 14) (size 15 to 20)
#    0.000    2.364    0.000    3.273    0.000    6.545 
#    0.000    3.636    0.000    0.545    0.000    2.545 
#    0.000    0.000    0.000    6.545    0.000    2.182 
#
# Total GULP energy -545134.791948 kJ/mol
# GULP energy per Si atom -12389.427090 kJ/mol
# Density = 1.765765 g / cm^3
# Si number density = 17.697933 Si / 1000 Ang^3
#
#
#
# Elastic Constant Matrix: (Units=GPa)
#
#
# Indices 1 2 3 4 5 6 
#
# 1 37.2092 23.0398 30.4089 0.0000 0.0000 0.0000
# 2 23.0398 69.8795 37.6539 0.0000 0.0000 0.0000
# 3 30.4089 37.6539 139.3430 0.0000 0.0000 0.0000
# 4 0.0000 0.0000 0.0000 7.2820 0.0000 0.0000
# 5 0.0000 0.0000 0.0000 0.0000 28.1839 0.0000
# 6 0.0000 0.0000 0.0000 0.0000 0.0000 21.8027
#
#
#
# Elastic Compliance Matrix: (Units=1/GPa)
#
#
# Indices 1 2 3 4 5 6 
#
# 1 0.037184 -0.009232 -0.005620 0.000000 0.000000 0.000000
# 2 -0.009232 0.019041 -0.003131 0.000000 0.000000 0.000000
# 3 -0.005620 -0.003131 0.009249 0.000000 0.000000 0.000000
# 4 0.000000 0.000000 0.000000 0.137324 0.000000 0.000000
# 5 0.000000 0.000000 0.000000 0.000000 0.035481 0.000000
# 6 0.000000 0.000000 0.000000 0.000000 0.000000 0.045866
#
#
# Mechanical properties :
#
#
# Convention : Reuss Voigt Hill
#
# Bulk Modulus (GPa) = 33.88755 47.62634 40.75694
# Shear Modulus (GPa) = 15.15393 21.80898 18.48146
#
# Velocity S-wave (km/s) = 2.92936 3.51421 3.23503
# Velocity P-wave (km/s) = 5.53451 6.59055 6.08548
#
# Compressibility (1/GPa) = 0.02950936
#
# Stress axis : x y z
#
# Youngs Moduli (GPa) = 26.89313 52.51817 108.11947
#
# Poissons Ratio (x) = 0.48483 0.60765
# Poissons Ratio (y) = 0.24827 0.33849
# Poissons Ratio (z) = 0.15114 0.16442
#
# Static dielectric constant tensor:
#      x y z
#    x 3.340220 0.000000 0.000000 
#    y 0.000000 2.962480 0.000000 
#    z 0.000000 0.000000 3.742180 
# 
# 
# High freq. dielectric constant tensor:
#      x y z
#    x 1.694580 0.000000 0.000000 
#    y 0.000000 1.639120 0.000000 
#    z 0.000000 0.000000 1.685080 
# 
# From -- ./inp_files/18280.got.cif
#   From: 2010.03.12/outbox.cif.g09.slc.cpg/sg69_10_cif.got.tgz:18280.got - 2010.04.10 23:52:46.
