data_PCOD8284693
_publ_section_title
;
Structure prediction by ZEFSAII (Michael W. Deem and Ramdas Pophale) SiO2 
 PCOD8284693
Probable space group: F M M M
;
_chemical_formula_sum "Si O2"
_cell_formula_units_Z 176
_cell_length_a 20.877395
_cell_length_b 27.641825
_cell_length_c 15.747229
_cell_angle_alpha 90.000000
_cell_angle_beta 90.000000
_cell_angle_gamma 90.000000
_cell_volume 9087.557346
_symmetry_space_group_name_H-M "F M M M"
_symmetry_group_IT_number 69
_symmetry_cell_setting 'orthorhombic'
loop_
_space_group_symop_operation_xyz
x,y,z
-x,-y,z
x,-y,-z
-x,y,-z
-x,-y,-z
x,y,-z
-x,y,z
x,-y,z
x,1/2+y,1/2+z
-x,1/2-y,1/2+z
x,1/2-y,1/2-z
-x,1/2+y,1/2-z
-x,1/2-y,1/2-z
x,1/2+y,1/2-z
-x,1/2+y,1/2+z
x,1/2-y,1/2+z
1/2+x,y,1/2+z
1/2-x,-y,1/2+z
1/2+x,-y,1/2-z
1/2-x,y,1/2-z
1/2-x,-y,1/2-z
1/2+x,y,1/2-z
1/2-x,y,1/2+z
1/2+x,-y,1/2+z
1/2+x,1/2+y,z
1/2-x,1/2-y,z
1/2+x,1/2-y,-z
1/2-x,1/2+y,-z
1/2-x,1/2-y,-z
1/2+x,1/2+y,-z
1/2-x,1/2+y,z
1/2+x,1/2-y,z
loop_
_atom_site_type_symbol
_atom_site_label
_atom_site_fract_x
_atom_site_fract_y
_atom_site_fract_z
Si Si1 0.076129 0.780912 0.000000
Si Si2 0.572977 0.444466 0.165307
Si Si3 0.115699 0.877386 0.599200
Si Si4 0.924177 0.111627 0.000000
Si Si5 0.423995 0.223079 0.163794
Si Si6 0.315523 0.555026 0.297667
Si Si7 0.000000 0.946299 0.401099
O O1 0.105189 0.834589 0.000000
O O2 0.100799 0.754337 0.084435
O O3 0.000000 0.782162 0.000000
O O4 0.500000 0.429195 0.193023
O O5 0.573637 0.500000 0.137745
O O6 0.598899 0.415130 0.084476
O O7 0.623255 0.433954 0.239005
O O8 0.114167 0.863300 0.500000
O O9 0.108451 0.829468 0.656291
O O10 0.180475 0.906389 0.624580
O O11 0.061297 0.915674 0.624976
O O12 0.000000 0.113326 0.000000
O O13 0.500000 0.215828 0.161438
O O14 0.402327 0.250000 0.250000
O O15 0.317030 0.500000 0.332214
O O16 0.250000 0.565431 0.250000
O O17 0.000000 0.956017 0.500000
O O18 0.000000 0.000000 0.355468
#
# Coordination Sequence:
#
# PCOD8284693 Si02
#       7
#    16  32  32  16  32  32  16
#     4   9  18  31  48  76 120 151 189 245 299 356
#     4   9  18  33  56  84 113 144 185 237 293 350
#     4  11  21  36  60  84 117 156 196 244 296 356
#     4   9  17  30  51  83 114 143 182 238 298 351
#     4  10  20  33  53  85 123 161 197 245 306 362
#     4  10  23  41  57  82 120 156 195 240 289 357
#     4   9  18  30  51  86 120 149 184 233 290 347
#
# _framework density 19.367139999999999
#
# number of rings (size 3 to 8) (size 9 to 14) (size 15 to 20)
#    0.000    2.273    1.818    0.818    3.818    2.182 
#    1.636    0.000    0.000    0.545    0.000    2.545 
#    0.000    0.000    0.000    0.000    0.000    0.000 
#
# Total GULP energy -545433.856162 kJ/mol
# GULP energy per Si atom -12396.224004 kJ/mol
# Density = 1.932306 g / cm^3
# Si number density = 19.367140 Si / 1000 Ang^3
#
#
#
# Elastic Constant Matrix: (Units=GPa)
#
#
# Indices 1 2 3 4 5 6 
#
# 1 58.7206 34.1996 29.8980 0.0000 0.0000 0.0000
# 2 34.1996 143.3283 64.2967 0.0000 0.0000 0.0000
# 3 29.8980 64.2967 105.0456 0.0000 0.0000 0.0000
# 4 0.0000 0.0000 0.0000 35.9168 0.0000 0.0000
# 5 0.0000 0.0000 0.0000 0.0000 14.4172 0.0000
# 6 0.0000 0.0000 0.0000 0.0000 0.0000 17.5261
#
#
#
# Elastic Compliance Matrix: (Units=1/GPa)
#
#
# Indices 1 2 3 4 5 6 
#
# 1 0.020929 -0.003201 -0.003998 0.000000 0.000000 0.000000
# 2 -0.003201 0.010107 -0.005276 0.000000 0.000000 0.000000
# 3 -0.003998 -0.005276 0.013887 0.000000 0.000000 0.000000
# 4 0.000000 0.000000 0.000000 0.027842 0.000000 0.000000
# 5 0.000000 0.000000 0.000000 0.000000 0.069362 0.000000
# 6 0.000000 0.000000 0.000000 0.000000 0.000000 0.057058
#
#
# Mechanical properties :
#
#
# Convention : Reuss Voigt Hill
#
# Bulk Modulus (GPa) = 50.06183 62.65368 56.35776
# Shear Modulus (GPa) = 21.66460 25.48537 23.57499
#
# Velocity S-wave (km/s) = 3.34822 3.63148 3.49272
# Velocity P-wave (km/s) = 6.39159 7.07137 6.74005
#
# Compressibility (1/GPa) = 0.01997530
#
# Stress axis : x y z
#
# Youngs Moduli (GPa) = 47.77968 98.93867 72.01158
#
# Poissons Ratio (x) = 0.31665 0.28790
# Poissons Ratio (y) = 0.15292 0.37990
# Poissons Ratio (z) = 0.19102 0.52196
#
# Static dielectric constant tensor:
#      x y z
#    x 3.153880 0.000000 0.000000 
#    y 0.000000 3.710900 0.000000 
#    z 0.000000 0.000000 3.592720 
# 
# 
# High freq. dielectric constant tensor:
#      x y z
#    x 1.699050 0.000000 0.000000 
#    y 0.000000 1.765030 0.000000 
#    z 0.000000 0.000000 1.761060 
# 
# From -- ./inp_files/18155.got.cif
#   From: 2010.03.12/outbox.cif.g09.slc.cpg/sg69_10_cif.got.tgz:18155.got - 2010.04.10 23:52:46.
