data_PCOD8284125
_publ_section_title
;
Structure prediction by ZEFSAII (Michael W. Deem and Ramdas Pophale) SiO2 
 PCOD8284125
Probable space group: F M M M
;
_chemical_formula_sum "Si O2"
_cell_formula_units_Z 176
_cell_length_a 23.928856
_cell_length_b 34.809081
_cell_length_c 13.132447
_cell_angle_alpha 90.000000
_cell_angle_beta 90.000000
_cell_angle_gamma 90.000000
_cell_volume 10938.559929
_symmetry_space_group_name_H-M "F M M M"
_symmetry_group_IT_number 69
_symmetry_cell_setting 'orthorhombic'
loop_
_space_group_symop_operation_xyz
x,y,z
-x,-y,z
x,-y,-z
-x,y,-z
-x,-y,-z
x,y,-z
-x,y,z
x,-y,z
x,1/2+y,1/2+z
-x,1/2-y,1/2+z
x,1/2-y,1/2-z
-x,1/2+y,1/2-z
-x,1/2-y,1/2-z
x,1/2+y,1/2-z
-x,1/2+y,1/2+z
x,1/2-y,1/2+z
1/2+x,y,1/2+z
1/2-x,-y,1/2+z
1/2+x,-y,1/2-z
1/2-x,y,1/2-z
1/2-x,-y,1/2-z
1/2+x,y,1/2-z
1/2-x,y,1/2+z
1/2+x,-y,1/2+z
1/2+x,1/2+y,z
1/2-x,1/2-y,z
1/2+x,1/2-y,-z
1/2-x,1/2+y,-z
1/2-x,1/2-y,-z
1/2+x,1/2+y,-z
1/2-x,1/2+y,z
1/2+x,1/2-y,z
loop_
_atom_site_type_symbol
_atom_site_label
_atom_site_fract_x
_atom_site_fract_y
_atom_site_fract_z
Si Si1 0.064466 0.176602 0.619405
Si Si2 0.060283 0.590508 0.880361
Si Si3 0.229041 0.663704 0.380971
Si Si4 0.830751 0.706400 0.773912
Si Si5 0.250000 0.593190 0.250000
Si Si6 0.166580 0.954861 0.382431
O O1 0.075428 0.182523 0.500000
O O2 0.078749 0.133125 0.655027
O O3 0.106727 0.203921 0.681185
O O4 0.000000 0.186856 0.645904
O O5 0.104397 0.558042 0.850521
O O6 0.000000 0.579592 0.831647
O O7 0.052862 0.592981 0.000000
O O8 0.223410 0.663000 0.500000
O O9 0.174682 0.684791 0.334486
O O10 0.285768 0.686314 0.349467
O O11 0.227216 0.620067 0.340397
O O12 0.815029 0.750000 0.750000
O O13 0.205153 0.565586 0.199050
O O14 0.179801 0.942924 0.500000
O O15 0.172074 0.000000 0.368595
#
# Coordination Sequence:
#
# PCOD8284125 Si02
#       6
#    32  32  32  32  16  32
#     4   9  17  30  49  70  93 125 160 192 229 276
#     4   8  14  26  44  65  89 117 149 183 220 266
#     4  10  20  33  50  69  89 119 159 197 235 278
#     4  10  20  31  47  71  96 122 150 191 240 285
#     4  10  19  32  47  64  90 124 158 192 225 272
#     4  10  19  29  44  68  97 125 150 184 234 285
#
# _framework density 16.089869
#
# number of rings (size 3 to 8) (size 9 to 14) (size 15 to 20)
#    0.000    2.727    0.000    5.727    0.000    4.364 
#    0.000    1.818    0.000    0.545    0.000    0.000 
#    0.000    2.182    0.000   14.727    0.000    1.091 
#
# Total GULP energy -545195.469421 kJ/mol
# GULP energy per Si atom -12390.806123 kJ/mol
# Density = 1.605325 g / cm^3
# Si number density = 16.089869 Si / 1000 Ang^3
#
#
#
# Elastic Constant Matrix: (Units=GPa)
#
#
# Indices 1 2 3 4 5 6 
#
# 1 98.3442 46.2820 47.0518 0.0000 0.0000 0.0000
# 2 46.2820 83.4100 36.9478 0.0000 0.0000 0.0000
# 3 47.0518 36.9478 101.7659 0.0000 0.0000 0.0000
# 4 0.0000 0.0000 0.0000 13.5522 0.0000 0.0000
# 5 0.0000 0.0000 0.0000 0.0000 25.3630 0.0000
# 6 0.0000 0.0000 0.0000 0.0000 0.0000 21.3264
#
#
#
# Elastic Compliance Matrix: (Units=1/GPa)
#
#
# Indices 1 2 3 4 5 6 
#
# 1 0.015526 -0.006477 -0.004827 0.000000 0.000000 0.000000
# 2 -0.006477 0.016988 -0.003173 0.000000 0.000000 0.000000
# 3 -0.004827 -0.003173 0.013210 0.000000 0.000000 0.000000
# 4 0.000000 0.000000 0.000000 0.073789 0.000000 0.000000
# 5 0.000000 0.000000 0.000000 0.000000 0.039428 0.000000
# 6 0.000000 0.000000 0.000000 0.000000 0.000000 0.046890
#
#
# Mechanical properties :
#
#
# Convention : Reuss Voigt Hill
#
# Bulk Modulus (GPa) = 59.62840 60.45372 60.04106
# Shear Modulus (GPa) = 20.80082 22.26422 21.53252
#
# Velocity S-wave (km/s) = 3.59944 3.72390 3.66220
# Velocity P-wave (km/s) = 7.37663 7.49293 7.43501
#
# Compressibility (1/GPa) = 0.01677053
#
# Stress axis : x y z
#
# Youngs Moduli (GPa) = 64.40910 58.86360 75.69804
#
# Poissons Ratio (x) = 0.38124 0.36539
# Poissons Ratio (y) = 0.41716 0.24022
# Poissons Ratio (z) = 0.31090 0.18680
#
# Static dielectric constant tensor:
#      x y z
#    x 2.730450 0.000000 0.000000 
#    y 0.000000 3.056670 0.000000 
#    z 0.000000 0.000000 2.882210 
# 
# 
# High freq. dielectric constant tensor:
#      x y z
#    x 1.615090 0.000000 0.000000 
#    y 0.000000 1.621900 0.000000 
#    z 0.000000 0.000000 1.589200 
# 
# From -- ./inp_files/18268.got.cif
#   From: 2010.03.12/outbox.cif.g09.slc.cpg/sg69_10_cif.got.tgz:18268.got - 2010.04.10 23:52:46.
