data_PCOD8284085
_publ_section_title
;
Structure prediction by ZEFSAII (Michael W. Deem and Ramdas Pophale) SiO2 
 PCOD8284085
Probable space group: F M M M
;
_chemical_formula_sum "Si O2"
_cell_formula_units_Z 160
_cell_length_a 20.396300
_cell_length_b 16.680552
_cell_length_c 24.670796
_cell_angle_alpha 90.000000
_cell_angle_beta 90.000000
_cell_angle_gamma 90.000000
_cell_volume 8393.536276
_symmetry_space_group_name_H-M "F M M M"
_symmetry_group_IT_number 69
_symmetry_cell_setting 'orthorhombic'
loop_
_space_group_symop_operation_xyz
x,y,z
-x,-y,z
x,-y,-z
-x,y,-z
-x,-y,-z
x,y,-z
-x,y,z
x,-y,z
x,1/2+y,1/2+z
-x,1/2-y,1/2+z
x,1/2-y,1/2-z
-x,1/2+y,1/2-z
-x,1/2-y,1/2-z
x,1/2+y,1/2-z
-x,1/2+y,1/2+z
x,1/2-y,1/2+z
1/2+x,y,1/2+z
1/2-x,-y,1/2+z
1/2+x,-y,1/2-z
1/2-x,y,1/2-z
1/2-x,-y,1/2-z
1/2+x,y,1/2-z
1/2-x,y,1/2+z
1/2+x,-y,1/2+z
1/2+x,1/2+y,z
1/2-x,1/2-y,z
1/2+x,1/2-y,-z
1/2-x,1/2+y,-z
1/2-x,1/2-y,-z
1/2+x,1/2+y,-z
1/2-x,1/2+y,z
1/2+x,1/2-y,z
loop_
_atom_site_type_symbol
_atom_site_label
_atom_site_fract_x
_atom_site_fract_y
_atom_site_fract_z
Si Si1 0.924991 0.162875 0.726173
Si Si2 0.127268 0.405761 0.000000
Si Si3 0.379330 0.406193 0.617817
Si Si4 0.809857 0.091636 0.213565
Si Si5 0.774552 0.594169 0.500000
Si Si6 0.235297 0.342209 0.608798
O O1 0.906164 0.250000 0.750000
O O2 0.913584 0.152669 0.661386
O O3 0.878477 0.098826 0.755220
O O4 0.000000 0.142885 0.740060
O O5 0.092617 0.381644 0.942696
O O6 0.200448 0.370691 0.000000
O O7 0.135915 0.500000 0.000000
O O8 0.394528 0.500000 0.630596
O O9 0.300924 0.394666 0.618429
O O10 0.750000 0.124586 0.250000
O O11 0.812989 0.144105 0.159209
O O12 0.797501 0.000000 0.198023
O O13 0.782297 0.500000 0.500000
O O14 0.805071 0.629103 0.555428
O O15 0.250000 0.250000 0.602992
#
# Coordination Sequence:
#
# PCOD8284085 Si02
#       6
#    32  16  32  32  16  32
#     4  11  24  39  55  78 110 148 189 234 284 334
#     4   7  14  27  50  79 105 136 174 217 262 321
#     4  10  18  34  56  79 110 147 183 223 276 338
#     4  11  22  35  55  82 109 143 188 229 271 330
#     4   9  17  31  49  74 111 146 181 224 274 330
#     4  11  20  31  52  81 113 144 180 228 283 331
#
# _framework density 19.062287000000001
#
# number of rings (size 3 to 8) (size 9 to 14) (size 15 to 20)
#    0.000    1.800    2.000    5.100    0.000    1.600 
#    0.000    0.500    0.000    1.800    0.000    2.100 
#    0.000    2.400    0.000    0.000    0.000    0.600 
#
# Total GULP energy -495758.809622 kJ/mol
# GULP energy per Si atom -12393.970241 kJ/mol
# Density = 1.901890 g / cm^3
# Si number density = 19.062287 Si / 1000 Ang^3
#
#
#
# Elastic Constant Matrix: (Units=GPa)
#
#
# Indices 1 2 3 4 5 6 
#
# 1 60.0317 7.9374 29.8628 0.0000 0.0000 0.0000
# 2 7.9374 83.2792 59.1795 0.0000 0.0000 0.0000
# 3 29.8628 59.1795 183.5780 0.0000 0.0000 0.0000
# 4 0.0000 0.0000 0.0000 32.4869 0.0000 0.0000
# 5 0.0000 0.0000 0.0000 0.0000 14.4052 0.0000
# 6 0.0000 0.0000 0.0000 0.0000 0.0000 12.8370
#
#
#
# Elastic Compliance Matrix: (Units=1/GPa)
#
#
# Indices 1 2 3 4 5 6 
#
# 1 0.018139 0.000477 -0.003105 0.000000 0.000000 0.000000
# 2 0.000477 0.015588 -0.005103 0.000000 0.000000 0.000000
# 3 -0.003105 -0.005103 0.007597 0.000000 0.000000 0.000000
# 4 0.000000 0.000000 0.000000 0.030782 0.000000 0.000000
# 5 0.000000 0.000000 0.000000 0.000000 0.069419 0.000000
# 6 0.000000 0.000000 0.000000 0.000000 0.000000 0.077900
#
#
# Mechanical properties :
#
#
# Convention : Reuss Voigt Hill
#
# Bulk Modulus (GPa) = 38.66284 57.87205 48.26744
# Shear Modulus (GPa) = 20.53324 27.27310 23.90317
#
# Velocity S-wave (km/s) = 3.28558 3.78661 3.54496
# Velocity P-wave (km/s) = 5.89235 7.03870 6.49088
#
# Compressibility (1/GPa) = 0.02586463
#
# Stress axis : x y z
#
# Youngs Moduli (GPa) = 55.12947 64.15002 131.62595
#
# Poissons Ratio (x) = -0.03062 0.40864
# Poissons Ratio (y) = -0.02631 0.67167
# Poissons Ratio (z) = 0.17115 0.32735
#
# Static dielectric constant tensor:
#      x y z
#    x 3.045280 0.000000 0.000000 
#    y 0.000000 3.311050 0.000000 
#    z 0.000000 0.000000 4.107770 
# 
# 
# High freq. dielectric constant tensor:
#      x y z
#    x 1.682390 0.000000 0.000000 
#    y 0.000000 1.733360 0.000000 
#    z 0.000000 0.000000 1.769630 
# 
# From -- ./inp_files/37225.got.cif
#   From: 2010.03.12/outbox.cif.g09.slc.cpg/sg69_19_cif.got.tgz:37225.got - 2010.04.10 23:52:46.
