data_PCOD8284936
_publ_section_title
;
Structure prediction by ZEFSAII (Michael W. Deem and Ramdas Pophale) SiO2 
 PCOD8284936
Probable space group: F M M M
;
_chemical_formula_sum "Si O2"
_cell_formula_units_Z 112
_cell_length_a 21.191404
_cell_length_b 29.037762
_cell_length_c 8.764759
_cell_angle_alpha 90.000000
_cell_angle_beta 90.000000
_cell_angle_gamma 90.000000
_cell_volume 5393.402740
_symmetry_space_group_name_H-M "F M M M"
_symmetry_group_IT_number 69
_symmetry_cell_setting 'orthorhombic'
loop_
_space_group_symop_operation_xyz
x,y,z
-x,-y,z
x,-y,-z
-x,y,-z
-x,-y,-z
x,y,-z
-x,y,z
x,-y,z
x,1/2+y,1/2+z
-x,1/2-y,1/2+z
x,1/2-y,1/2-z
-x,1/2+y,1/2-z
-x,1/2-y,1/2-z
x,1/2+y,1/2-z
-x,1/2+y,1/2+z
x,1/2-y,1/2+z
1/2+x,y,1/2+z
1/2-x,-y,1/2+z
1/2+x,-y,1/2-z
1/2-x,y,1/2-z
1/2-x,-y,1/2-z
1/2+x,y,1/2-z
1/2-x,y,1/2+z
1/2+x,-y,1/2+z
1/2+x,1/2+y,z
1/2-x,1/2-y,z
1/2+x,1/2-y,-z
1/2-x,1/2+y,-z
1/2-x,1/2-y,-z
1/2+x,1/2+y,-z
1/2-x,1/2+y,z
1/2+x,1/2-y,z
loop_
_atom_site_type_symbol
_atom_site_label
_atom_site_fract_x
_atom_site_fract_y
_atom_site_fract_z
Si Si1 0.863379 0.699348 0.319538
Si Si2 0.500000 0.798609 0.675791
Si Si3 0.930252 0.447960 0.181296
Si Si4 0.686243 0.888276 0.818918
O O1 0.850809 0.701554 0.500000
O O2 0.853730 0.750000 0.250000
O O3 0.933455 0.677749 0.279888
O O4 0.815679 0.664367 0.239564
O O5 0.500000 0.787847 0.500000
O O6 0.500000 0.750000 0.750000
O O7 0.919280 0.500000 0.239748
O O8 0.874101 0.416244 0.246696
O O9 0.000000 0.430658 0.236815
O O10 0.928382 0.446887 0.000000
O O11 0.750000 0.910679 0.750000
O O12 0.689060 0.889765 0.000000
#
# Coordination Sequence:
#
# PCOD8284936 Si02
#       4
#    32  16  32  32
#     4  10  20  36  56  81 114 152 193 237 285 338
#     4   8  16  30  50  76 105 138 177 227 280 329
#     4   8  16  34  60  88 115 145 186 235 285 339
#     4  11  23  37  56  84 117 154 194 236 285 340
#
# _framework density 20.766110999999999
#
# number of rings (size 3 to 8) (size 9 to 14) (size 15 to 20)
#    0.000    2.571    0.000    2.571    2.000    2.286 
#    0.000    2.857    0.000    2.571    0.000    8.000 
#    0.000    0.000    0.000    0.000    0.000    0.000 
#
# Total GULP energy -346892.180767 kJ/mol
# GULP energy per Si atom -12389.006456 kJ/mol
# Density = 2.071885 g / cm^3
# Si number density = 20.766111 Si / 1000 Ang^3
#
#
#
# Elastic Constant Matrix: (Units=GPa)
#
#
# Indices 1 2 3 4 5 6 
#
# 1 167.0765 72.5709 38.6718 0.0000 -0.0003 -0.0001
# 2 72.5709 88.8957 22.2377 -0.0001 0.0001 0.0000
# 3 38.6718 22.2377 55.3662 -0.0002 -0.0010 -0.0002
# 4 0.0000 -0.0001 -0.0002 14.0121 0.0000 0.0000
# 5 -0.0003 0.0001 -0.0010 0.0000 30.3750 0.0001
# 6 -0.0001 0.0000 -0.0002 0.0000 0.0001 27.9830
#
#
#
# Elastic Compliance Matrix: (Units=1/GPa)
#
#
# Indices 1 2 3 4 5 6 
#
# 1 0.010062 -0.007178 -0.004146 0.000000 0.000000 0.000000
# 2 -0.007178 0.017625 -0.002066 0.000000 0.000000 0.000000
# 3 -0.004146 -0.002066 0.021787 0.000000 0.000001 0.000000
# 4 0.000000 0.000000 0.000000 0.071367 0.000000 0.000000
# 5 0.000000 0.000000 0.000001 0.000000 0.032922 0.000000
# 6 0.000000 0.000000 0.000000 0.000000 0.000000 0.035736
#
#
# Mechanical properties :
#
#
# Convention : Reuss Voigt Hill
#
# Bulk Modulus (GPa) = 44.05901 64.25548 54.15725
# Shear Modulus (GPa) = 22.33710 26.33123 24.33416
#
# Velocity S-wave (km/s) = 3.28327 3.56475 3.42690
# Velocity P-wave (km/s) = 5.96959 6.92480 6.46486
#
# Compressibility (1/GPa) = 0.02269683
#
# Stress axis : x y z
#
# Youngs Moduli (GPa) = 99.37960 56.73638 45.89930
#
# Poissons Ratio (x) = 0.40723 0.19028
# Poissons Ratio (y) = 0.71330 0.09482
# Poissons Ratio (z) = 0.41198 0.11721
#
# Static dielectric constant tensor:
#      x y z
#    x 4.453080 0.000000 0.000000 
#    y 0.000000 3.597690 0.000000 
#    z 0.000000 0.000000 3.363640 
# 
# 
# High freq. dielectric constant tensor:
#      x y z
#    x 1.834240 0.000000 0.000000 
#    y 0.000000 1.793630 0.000000 
#    z 0.000000 0.000000 1.785330 
# 
# From -- ./inp_files/3707.got.cif
#   From: 2010.03.12/outbox.cif.g09.slc.cpg/sg69_2_cif.got.tgz:3707.got - 2010.04.10 23:52:46.
