data_PCOD8284180
_publ_section_title
;
Structure prediction by ZEFSAII (Michael W. Deem and Ramdas Pophale) SiO2 
 PCOD8284180
Probable space group: F M M M
;
_chemical_formula_sum "Si O2"
_cell_formula_units_Z 88
_cell_length_a 33.183222
_cell_length_b 23.931508
_cell_length_c 5.321898
_cell_angle_alpha 90.000000
_cell_angle_beta 90.000000
_cell_angle_gamma 90.000000
_cell_volume 4226.249816
_symmetry_space_group_name_H-M "F M M M"
_symmetry_group_IT_number 69
_symmetry_cell_setting 'orthorhombic'
loop_
_space_group_symop_operation_xyz
x,y,z
-x,-y,z
x,-y,-z
-x,y,-z
-x,-y,-z
x,y,-z
-x,y,z
x,-y,z
x,1/2+y,1/2+z
-x,1/2-y,1/2+z
x,1/2-y,1/2-z
-x,1/2+y,1/2-z
-x,1/2-y,1/2-z
x,1/2+y,1/2-z
-x,1/2+y,1/2+z
x,1/2-y,1/2+z
1/2+x,y,1/2+z
1/2-x,-y,1/2+z
1/2+x,-y,1/2-z
1/2-x,y,1/2-z
1/2-x,-y,1/2-z
1/2+x,y,1/2-z
1/2-x,y,1/2+z
1/2+x,-y,1/2+z
1/2+x,1/2+y,z
1/2-x,1/2-y,z
1/2+x,1/2-y,-z
1/2-x,1/2+y,-z
1/2-x,1/2-y,-z
1/2+x,1/2+y,-z
1/2-x,1/2+y,z
1/2+x,1/2-y,z
loop_
_atom_site_type_symbol
_atom_site_label
_atom_site_fract_x
_atom_site_fract_y
_atom_site_fract_z
Si Si1 0.570835 0.625156 0.000000
Si Si2 0.339360 0.393289 0.000000
Si Si3 0.760406 0.664868 0.500000
Si Si4 0.500000 0.786641 0.500000
Si Si5 0.546812 0.935624 0.000000
Si Si6 0.304047 0.436608 0.500000
O O1 0.618114 0.639510 0.000000
O O2 0.541217 0.678034 0.000000
O O3 0.564558 0.589400 0.751937
O O4 0.307683 0.343432 0.000000
O O5 0.332357 0.429265 0.746229
O O6 0.750000 0.699812 0.750000
O O7 0.734064 0.606293 0.500000
O O8 0.500000 0.750000 0.750000
O O9 0.500000 0.922927 0.000000
O O10 0.557600 0.000000 0.000000
O O11 0.286904 0.500000 0.500000
#
# Coordination Sequence:
#
# PCOD8284180 Si02
#       6
#    16  16  16   8  16  16
#     4  12  23  41  61  87 117 147 195 253 289 349
#     4  10  21  31  48  73 104 140 184 230 279 316
#     4   8  16  29  43  65  99 143 186 221 262 313
#     4  12  26  46  69  88 107 142 192 250 326 380
#     4  11  22  38  58  82 116 159 191 219 276 348
#     4  10  19  31  46  71 112 157 197 229 259 310
#
# _framework density 20.822244000000001
#
# number of rings (size 3 to 8) (size 9 to 14) (size 15 to 20)
#    0.000    1.636    1.818    3.273    0.000   12.364 
#    0.000    0.000    0.000    0.000    0.000    0.000 
#    0.000   39.273    0.000    0.000    0.000    0.000 
#
# Total GULP energy -272559.262526 kJ/mol
# GULP energy per Si atom -12389.057388 kJ/mol
# Density = 2.077485 g / cm^3
# Si number density = 20.822244 Si / 1000 Ang^3
#
#
#
# Elastic Constant Matrix: (Units=GPa)
#
#
# Indices 1 2 3 4 5 6 
#
# 1 176.5342 30.1470 45.8069 -0.0509 0.0019 -0.0039
# 2 30.1470 113.8815 51.8460 0.0068 0.0171 0.0095
# 3 45.8069 51.8460 241.6647 -0.2398 0.0223 0.0105
# 4 -0.0509 0.0068 -0.2398 95.6424 -0.0345 -0.0306
# 5 0.0019 0.0171 0.0223 -0.0345 30.2700 -0.0043
# 6 -0.0039 0.0095 0.0105 -0.0306 -0.0043 7.9371
#
#
#
# Elastic Compliance Matrix: (Units=1/GPa)
#
#
# Indices 1 2 3 4 5 6 
#
# 1 0.006104 -0.001207 -0.000898 0.000001 0.000001 0.000006
# 2 -0.001207 0.009970 -0.001910 -0.000006 -0.000004 -0.000010
# 3 -0.000898 -0.001910 0.004718 0.000011 -0.000002 -0.000004
# 4 0.000001 -0.000006 0.000011 0.010456 0.000012 0.000040
# 5 0.000001 -0.000004 -0.000002 0.000012 0.033036 0.000018
# 6 0.000006 -0.000010 -0.000004 0.000040 0.000018 0.125990
#
#
# Mechanical properties :
#
#
# Convention : Reuss Voigt Hill
#
# Bulk Modulus (GPa) = 78.36007 87.52001 82.94004
# Shear Modulus (GPa) = 24.68429 53.72194 39.20311
#
# Velocity S-wave (km/s) = 3.44681 5.08491 4.34378
# Velocity P-wave (km/s) = 7.31814 8.75204 8.06702
#
# Compressibility (1/GPa) = 0.01276160
#
# Stress axis : x y z
#
# Youngs Moduli (GPa) = 163.83350 100.29868 211.95410
#
# Poissons Ratio (x) = 0.12106 0.19034
# Poissons Ratio (y) = 0.19774 0.40488
# Poissons Ratio (z) = 0.14712 0.19159
#
# Static dielectric constant tensor:
#      x y z
#    x 3.896000 -0.000020 -0.000070 
#    y -0.000020 3.292350 -0.000080 
#    z -0.000070 -0.000080 4.714300 
# 
# 
# High freq. dielectric constant tensor:
#      x y z
#    x 1.820440 0.000000 0.000000 
#    y 0.000000 1.773130 -0.000010 
#    z 0.000000 -0.000010 1.860030 
# 
# From -- ./inp_files/831.got.cif
#   From: 2010.03.12/outbox.cif.g09.slc.cpg/sg69_1_cif.got.tgz:831.got - 2010.04.10 23:52:46.
