data_PCOD8284340
_publ_section_title
;
Structure prediction by ZEFSAII (Michael W. Deem and Ramdas Pophale) SiO2 
 PCOD8284340
Probable space group: F M M M
;
_chemical_formula_sum "Si O2"
_cell_formula_units_Z 136
_cell_length_a 21.734522
_cell_length_b 18.587560
_cell_length_c 16.282036
_cell_angle_alpha 90.000000
_cell_angle_beta 90.000000
_cell_angle_gamma 90.000000
_cell_volume 6577.807920
_symmetry_space_group_name_H-M "F M M M"
_symmetry_group_IT_number 69
_symmetry_cell_setting 'orthorhombic'
loop_
_space_group_symop_operation_xyz
x,y,z
-x,-y,z
x,-y,-z
-x,y,-z
-x,-y,-z
x,y,-z
-x,y,z
x,-y,z
x,1/2+y,1/2+z
-x,1/2-y,1/2+z
x,1/2-y,1/2-z
-x,1/2+y,1/2-z
-x,1/2-y,1/2-z
x,1/2+y,1/2-z
-x,1/2+y,1/2+z
x,1/2-y,1/2+z
1/2+x,y,1/2+z
1/2-x,-y,1/2+z
1/2+x,-y,1/2-z
1/2-x,y,1/2-z
1/2-x,-y,1/2-z
1/2+x,y,1/2-z
1/2-x,y,1/2+z
1/2+x,-y,1/2+z
1/2+x,1/2+y,z
1/2-x,1/2-y,z
1/2+x,1/2-y,-z
1/2-x,1/2+y,-z
1/2-x,1/2-y,-z
1/2+x,1/2+y,-z
1/2-x,1/2+y,z
1/2+x,1/2-y,z
loop_
_atom_site_type_symbol
_atom_site_label
_atom_site_fract_x
_atom_site_fract_y
_atom_site_fract_z
Si Si1 0.500000 0.811914 0.817717
Si Si2 0.376964 0.335181 0.754211
Si Si3 0.654820 0.915807 0.594142
Si Si4 0.000000 0.821707 0.500000
Si Si5 0.617978 0.581739 0.500000
Si Si6 0.708950 0.917217 0.145021
O O1 0.500000 0.750000 0.750000
O O2 0.562553 0.857373 0.799961
O O3 0.500000 0.779841 0.911792
O O4 0.367367 0.250000 0.750000
O O5 0.386919 0.365174 0.847062
O O6 0.313503 0.372369 0.724057
O O7 0.637429 0.898283 0.500000
O O8 0.725648 0.894037 0.608986
O O9 0.643298 0.000000 0.613061
O O10 0.058924 0.870428 0.500000
O O11 0.595957 0.500000 0.500000
O O12 0.658509 0.600159 0.422115
O O13 0.710017 0.000000 0.171888
#
# Coordination Sequence:
#
# PCOD8284340 Si02
#       6
#    16  32  32   8  16  32
#     4  10  24  43  59  87 118 159 205 244 302 373
#     4  11  23  41  58  86 123 154 202 252 306 359
#     4  10  21  40  63  88 120 164 207 243 297 368
#     4  12  19  40  68  80 118 160 193 258 306 356
#     4  10  19  32  56  92 117 144 194 248 296 352
#     4  10  19  36  61  88 121 156 195 244 296 358
#
# _framework density 20.675581000000001
#
# number of rings (size 3 to 8) (size 9 to 14) (size 15 to 20)
#    0.000    1.647    3.529    1.588    0.000    3.765 
#   10.588    3.529    0.000    1.412    0.000    0.000 
#    0.000    0.000    0.000    0.000    0.000    0.000 
#
# Total GULP energy -421359.429440 kJ/mol
# GULP energy per Si atom -12392.924395 kJ/mol
# Density = 2.062852 g / cm^3
# Si number density = 20.675581 Si / 1000 Ang^3
#
#
#
# Elastic Constant Matrix: (Units=GPa)
#
#
# Indices 1 2 3 4 5 6 
#
# 1 58.0385 22.5994 25.2509 0.0000 0.0000 0.0000
# 2 22.5994 62.8517 51.3351 0.0000 0.0000 0.0000
# 3 25.2509 51.3351 168.9288 0.0000 0.0000 0.0000
# 4 0.0000 0.0000 0.0000 34.9310 0.0000 0.0000
# 5 0.0000 0.0000 0.0000 0.0000 15.4041 0.0000
# 6 0.0000 0.0000 0.0000 0.0000 0.0000 15.5701
#
#
#
# Elastic Compliance Matrix: (Units=1/GPa)
#
#
# Indices 1 2 3 4 5 6 
#
# 1 0.020182 -0.006375 -0.001079 0.000000 0.000000 0.000000
# 2 -0.006375 0.023177 -0.006090 0.000000 0.000000 0.000000
# 3 -0.001079 -0.006090 0.007932 0.000000 0.000000 0.000000
# 4 0.000000 0.000000 0.000000 0.028628 0.000000 0.000000
# 5 0.000000 0.000000 0.000000 0.000000 0.064918 0.000000
# 6 0.000000 0.000000 0.000000 0.000000 0.000000 0.064226
#
#
# Mechanical properties :
#
#
# Convention : Reuss Voigt Hill
#
# Bulk Modulus (GPa) = 41.32037 54.24333 47.78185
# Shear Modulus (GPa) = 20.47344 25.88994 23.18169
#
# Velocity S-wave (km/s) = 3.15020 3.54248 3.35208
# Velocity P-wave (km/s) = 5.76716 6.55932 6.17595
#
# Compressibility (1/GPa) = 0.02420114
#
# Stress axis : x y z
#
# Youngs Moduli (GPa) = 49.54920 43.14607 126.07571
#
# Poissons Ratio (x) = 0.27506 0.13609
# Poissons Ratio (y) = 0.31588 0.76783
# Poissons Ratio (z) = 0.05348 0.26277
#
# Static dielectric constant tensor:
#      x y z
#    x 4.177350 0.000000 0.000000 
#    y 0.000000 3.374810 0.000000 
#    z 0.000000 0.000000 4.187090 
# 
# 
# High freq. dielectric constant tensor:
#      x y z
#    x 1.810730 0.000000 0.000000 
#    y 0.000000 1.773620 0.000000 
#    z 0.000000 0.000000 1.833710 
# 
# From -- ./inp_files/22624.got.cif
#   From: 2010.03.12/outbox.cif.g09.slc.cpg/sg69_12_cif.got.tgz:22624.got - 2010.04.10 23:52:46.
