data_PCOD8284831
_publ_section_title
;
Structure prediction by ZEFSAII (Michael W. Deem and Ramdas Pophale) SiO2 
 PCOD8284831
Probable space group: F M M M
;
_chemical_formula_sum "Si O2"
_cell_formula_units_Z 144
_cell_length_a 32.001031
_cell_length_b 26.592064
_cell_length_c 9.441973
_cell_angle_alpha 90.000000
_cell_angle_beta 90.000000
_cell_angle_gamma 90.000000
_cell_volume 8034.868475
_symmetry_space_group_name_H-M "F M M M"
_symmetry_group_IT_number 69
_symmetry_cell_setting 'orthorhombic'
loop_
_space_group_symop_operation_xyz
x,y,z
-x,-y,z
x,-y,-z
-x,y,-z
-x,-y,-z
x,y,-z
-x,y,z
x,-y,z
x,1/2+y,1/2+z
-x,1/2-y,1/2+z
x,1/2-y,1/2-z
-x,1/2+y,1/2-z
-x,1/2-y,1/2-z
x,1/2+y,1/2-z
-x,1/2+y,1/2+z
x,1/2-y,1/2+z
1/2+x,y,1/2+z
1/2-x,-y,1/2+z
1/2+x,-y,1/2-z
1/2-x,y,1/2-z
1/2-x,-y,1/2-z
1/2+x,y,1/2-z
1/2-x,y,1/2+z
1/2+x,-y,1/2+z
1/2+x,1/2+y,z
1/2-x,1/2-y,z
1/2+x,1/2-y,-z
1/2-x,1/2+y,-z
1/2-x,1/2-y,-z
1/2+x,1/2+y,-z
1/2-x,1/2+y,z
1/2+x,1/2-y,z
loop_
_atom_site_type_symbol
_atom_site_label
_atom_site_fract_x
_atom_site_fract_y
_atom_site_fract_z
Si Si1 0.922744 0.057584 0.158418
Si Si2 0.311622 0.443931 0.500000
Si Si3 0.500000 0.559743 0.340836
Si Si4 0.161213 0.896912 0.233406
Si Si5 0.780279 0.060434 0.000000
Si Si6 0.792943 0.698676 0.826969
O O1 0.883841 0.096318 0.161962
O O2 0.958342 0.078868 0.262485
O O3 0.909304 0.000000 0.196787
O O4 0.941049 0.058562 0.000000
O O5 0.296220 0.500000 0.500000
O O6 0.340535 0.432811 0.632024
O O7 0.266647 0.415569 0.500000
O O8 0.500000 0.500000 0.337638
O O9 0.500000 0.581157 0.500000
O O10 0.170596 0.840580 0.286942
O O11 0.198182 0.917071 0.136855
O O12 0.783609 0.000000 0.000000
O O13 0.807030 0.750000 0.750000
O O14 0.750000 0.681646 0.750000
O O15 0.788392 0.704165 0.000000
#
# Coordination Sequence:
#
# PCOD8284831 Si02
#       6
#    32  16  16  32  16  32
#     4  10  20  35  54  78 111 150 188 225 271 332
#     4  11  22  34  49  74 112 150 184 228 269 323
#     4   9  19  33  53  79 108 143 182 229 279 327
#     4  12  23  35  55  80 109 146 193 233 278 330
#     4  11  22  36  51  74 110 154 192 222 267 325
#     4  11  24  40  60  81 105 142 190 245 297 338
#
# _framework density 17.921886000000001
#
# number of rings (size 3 to 8) (size 9 to 14) (size 15 to 20)
#    0.000    1.222    2.222    5.667    4.667    3.111 
#    0.000    0.000    0.000    0.000    0.000    0.778 
#    0.000    0.000    0.000    0.000    0.000    0.000 
#
# Total GULP energy -446172.052627 kJ/mol
# GULP energy per Si atom -12393.668129 kJ/mol
# Density = 1.788110 g / cm^3
# Si number density = 17.921886 Si / 1000 Ang^3
#
#
#
# Elastic Constant Matrix: (Units=GPa)
#
#
# Indices 1 2 3 4 5 6 
#
# 1 79.8112 28.8305 26.0617 -0.0006 -0.0005 -0.0003
# 2 28.8305 69.9568 31.8054 0.0048 -0.0005 -0.0003
# 3 26.0617 31.8054 130.9090 0.0123 -0.0015 -0.0001
# 4 -0.0006 0.0048 0.0123 26.0900 -0.0006 -0.0002
# 5 -0.0005 -0.0005 -0.0015 -0.0006 31.3793 -0.0002
# 6 -0.0003 -0.0003 -0.0001 -0.0002 -0.0002 17.9508
#
#
#
# Elastic Compliance Matrix: (Units=1/GPa)
#
#
# Indices 1 2 3 4 5 6 
#
# 1 0.015040 -0.005438 -0.001673 0.000002 0.000000 0.000000
# 2 -0.005438 0.018036 -0.003299 -0.000002 0.000000 0.000000
# 3 -0.001673 -0.003299 0.008774 -0.000004 0.000000 0.000000
# 4 0.000002 -0.000002 -0.000004 0.038329 0.000001 0.000001
# 5 0.000000 0.000000 0.000000 0.000001 0.031868 0.000000
# 6 0.000000 0.000000 0.000000 0.000001 0.000000 0.055708
#
#
# Mechanical properties :
#
#
# Convention : Reuss Voigt Hill
#
# Bulk Modulus (GPa) = 47.55324 50.45246 49.00285
# Shear Modulus (GPa) = 25.56447 28.01598 26.79022
#
# Velocity S-wave (km/s) = 3.78092 3.95806 3.87050
# Velocity P-wave (km/s) = 6.75660 7.00719 6.88304
#
# Compressibility (1/GPa) = 0.02102906
#
# Stress axis : x y z
#
# Youngs Moduli (GPa) = 66.48860 55.44616 113.97857
#
# Poissons Ratio (x) = 0.30150 0.19070
# Poissons Ratio (y) = 0.36154 0.37605
# Poissons Ratio (z) = 0.11124 0.18293
#
# Static dielectric constant tensor:
#      x y z
#    x 3.108750 0.000000 0.000000 
#    y 0.000000 3.121300 -0.000010 
#    z 0.000000 -0.000010 3.635710 
# 
# 
# High freq. dielectric constant tensor:
#      x y z
#    x 1.673720 0.000000 0.000000 
#    y 0.000000 1.658760 0.000000 
#    z 0.000000 0.000000 1.721230 
# 
# From -- ./inp_files/5673.got.cif
#   From: 2010.03.12/outbox.cif.g09.slc.cpg/sg69_3_cif.got.tgz:5673.got - 2010.04.10 23:52:46.
