data_PCOD8284781
_publ_section_title
;
Structure prediction by ZEFSAII (Michael W. Deem and Ramdas Pophale) SiO2 
 PCOD8284781
Probable space group: F M M M
;
_chemical_formula_sum "Si O2"
_cell_formula_units_Z 160
_cell_length_a 28.752688
_cell_length_b 16.920576
_cell_length_c 17.316971
_cell_angle_alpha 90.000000
_cell_angle_beta 90.000000
_cell_angle_gamma 90.000000
_cell_volume 8424.914931
_symmetry_space_group_name_H-M "F M M M"
_symmetry_group_IT_number 69
_symmetry_cell_setting 'orthorhombic'
loop_
_space_group_symop_operation_xyz
x,y,z
-x,-y,z
x,-y,-z
-x,y,-z
-x,-y,-z
x,y,-z
-x,y,z
x,-y,z
x,1/2+y,1/2+z
-x,1/2-y,1/2+z
x,1/2-y,1/2-z
-x,1/2+y,1/2-z
-x,1/2-y,1/2-z
x,1/2+y,1/2-z
-x,1/2+y,1/2+z
x,1/2-y,1/2+z
1/2+x,y,1/2+z
1/2-x,-y,1/2+z
1/2+x,-y,1/2-z
1/2-x,y,1/2-z
1/2-x,-y,1/2-z
1/2+x,y,1/2-z
1/2-x,y,1/2+z
1/2+x,-y,1/2+z
1/2+x,1/2+y,z
1/2-x,1/2-y,z
1/2+x,1/2-y,-z
1/2-x,1/2+y,-z
1/2-x,1/2-y,-z
1/2+x,1/2+y,-z
1/2-x,1/2+y,z
1/2+x,1/2-y,z
loop_
_atom_site_type_symbol
_atom_site_label
_atom_site_fract_x
_atom_site_fract_y
_atom_site_fract_z
Si Si1 0.606446 0.091419 0.166019
Si Si2 0.802446 0.408529 0.408783
Si Si3 0.198688 0.906665 0.584644
Si Si4 0.053852 0.274579 0.089694
Si Si5 0.876652 0.680633 0.691506
O O1 0.658066 0.122237 0.141419
O O2 0.567990 0.137688 0.116818
O O3 0.602467 0.109104 0.257134
O O4 0.598383 0.000000 0.148674
O O5 0.810494 0.396386 0.500000
O O6 0.812263 0.500000 0.386561
O O7 0.749937 0.383338 0.385289
O O8 0.834571 0.349919 0.360538
O O9 0.189841 0.868853 0.500000
O O10 0.197026 0.000000 0.576695
O O11 0.082148 0.208894 0.136238
O O12 0.000000 0.261480 0.107988
O O13 0.064973 0.264694 0.000000
O O14 0.860383 0.750000 0.750000
#
# Coordination Sequence:
#
# PCOD8284781 Si02
#       5
#    32  32  32  32  32
#     4  10  20  34  55  82 109 136 168 212 263 310
#     4   9  17  32  56  80 102 136 182 222 250 288
#     4   8  15  29  50  77 108 140 172 210 257 301
#     4  10  22  40  59  76  98 134 176 216 261 311
#     4  10  21  35  52  76 109 143 171 205 258 318
#
# _framework density 18.991288999999998
#
# number of rings (size 3 to 8) (size 9 to 14) (size 15 to 20)
#    0.000    2.600    0.000    3.000    0.000    6.000 
#    0.000   11.000    0.000   12.600    0.000    7.000 
#    0.000    0.000    0.000    0.000    0.000    0.000 
#
# Total GULP energy -495867.101969 kJ/mol
# GULP energy per Si atom -12396.677549 kJ/mol
# Density = 1.894806 g / cm^3
# Si number density = 18.991289 Si / 1000 Ang^3
#
#
#
# Elastic Constant Matrix: (Units=GPa)
#
#
# Indices 1 2 3 4 5 6 
#
# 1 79.7561 38.2148 71.2868 0.0000 0.0000 0.0000
# 2 38.2148 55.3997 45.9466 0.0000 0.0000 0.0000
# 3 71.2868 45.9466 115.6510 0.0000 0.0000 0.0000
# 4 0.0000 0.0000 0.0000 28.5001 0.0000 0.0000
# 5 0.0000 0.0000 0.0000 0.0000 7.7868 0.0000
# 6 0.0000 0.0000 0.0000 0.0000 0.0000 30.5291
#
#
#
# Elastic Compliance Matrix: (Units=1/GPa)
#
#
# Indices 1 2 3 4 5 6 
#
# 1 0.030138 -0.008027 -0.015388 0.000000 0.000000 0.000000
# 2 -0.008027 0.029059 -0.006597 0.000000 0.000000 0.000000
# 3 -0.015388 -0.006597 0.020753 0.000000 0.000000 0.000000
# 4 0.000000 0.000000 0.000000 0.035088 0.000000 0.000000
# 5 0.000000 0.000000 0.000000 0.000000 0.128422 0.000000
# 6 0.000000 0.000000 0.000000 0.000000 0.000000 0.032756
#
#
# Mechanical properties :
#
#
# Convention : Reuss Voigt Hill
#
# Bulk Modulus (GPa) = 50.18596 62.41147 56.29872
# Shear Modulus (GPa) = 14.58228 19.72044 17.15136
#
# Velocity S-wave (km/s) = 2.77400 3.22591 3.00845
# Velocity P-wave (km/s) = 6.06162 6.84177 6.46348
#
# Compressibility (1/GPa) = 0.01992589
#
# Stress axis : x y z
#
# Youngs Moduli (GPa) = 33.18016 34.41269 48.18646
#
# Poissons Ratio (x) = 0.27624 0.74150
# Poissons Ratio (y) = 0.26634 0.31788
# Poissons Ratio (z) = 0.51058 0.22701
#
# Static dielectric constant tensor:
#      x y z
#    x 3.509730 0.000000 0.000000 
#    y 0.000000 3.329830 0.000000 
#    z 0.000000 0.000000 3.776710 
# 
# 
# High freq. dielectric constant tensor:
#      x y z
#    x 1.731650 0.000000 0.000000 
#    y 0.000000 1.724570 0.000000 
#    z 0.000000 0.000000 1.747310 
# 
# From -- ./inp_files/23117.got.cif
#   From: 2010.03.12/outbox.cif.g09.slc.cpg/sg69_12_cif.got.tgz:23117.got - 2010.04.10 23:52:46.
