data_PCOD8284820
_publ_section_title
;
Structure prediction by ZEFSAII (Michael W. Deem and Ramdas Pophale) SiO2 
 PCOD8284820
Probable space group: F M M M
;
_chemical_formula_sum "Si O2"
_cell_formula_units_Z 128
_cell_length_a 13.552901
_cell_length_b 23.707508
_cell_length_c 22.622672
_cell_angle_alpha 90.000000
_cell_angle_beta 90.000000
_cell_angle_gamma 90.000000
_cell_volume 7268.789139
_symmetry_space_group_name_H-M "F M M M"
_symmetry_group_IT_number 69
_symmetry_cell_setting 'orthorhombic'
loop_
_space_group_symop_operation_xyz
x,y,z
-x,-y,z
x,-y,-z
-x,y,-z
-x,-y,-z
x,y,-z
-x,y,z
x,-y,z
x,1/2+y,1/2+z
-x,1/2-y,1/2+z
x,1/2-y,1/2-z
-x,1/2+y,1/2-z
-x,1/2-y,1/2-z
x,1/2+y,1/2-z
-x,1/2+y,1/2+z
x,1/2-y,1/2+z
1/2+x,y,1/2+z
1/2-x,-y,1/2+z
1/2+x,-y,1/2-z
1/2-x,y,1/2-z
1/2-x,-y,1/2-z
1/2+x,y,1/2-z
1/2-x,y,1/2+z
1/2+x,-y,1/2+z
1/2+x,1/2+y,z
1/2-x,1/2-y,z
1/2+x,1/2-y,-z
1/2-x,1/2+y,-z
1/2-x,1/2-y,-z
1/2+x,1/2+y,-z
1/2-x,1/2+y,z
1/2+x,1/2-y,z
loop_
_atom_site_type_symbol
_atom_site_label
_atom_site_fract_x
_atom_site_fract_y
_atom_site_fract_z
Si Si1 0.884501 0.775928 0.000000
Si Si2 0.884891 0.231582 0.374351
Si Si3 0.883211 0.900717 0.000000
Si Si4 0.277138 0.833892 0.682031
Si Si5 0.114897 0.436337 0.627192
O O1 0.852318 0.742054 0.058008
O O2 0.836243 0.838061 0.000000
O O3 0.000000 0.785299 0.000000
O O4 0.824266 0.176780 0.353814
O O5 0.856933 0.285946 0.334761
O O6 0.000000 0.218934 0.367402
O O7 0.848377 0.932602 0.940813
O O8 0.000000 0.898464 0.000000
O O9 0.250000 0.830030 0.750000
O O10 0.320703 0.895179 0.667802
O O11 0.131765 0.500000 0.649713
O O12 0.000000 0.419009 0.632341
#
# Coordination Sequence:
#
# PCOD8284820 Si02
#       5
#    16  32  16  32  32
#     4   9  16  29  53  79 105 132 161 206 258 316
#     4  10  20  35  53  77 107 137 168 208 261 307
#     4   9  15  29  53  81 107 128 159 208 265 318
#     4  11  23  34  50  76 104 141 179 210 243 298
#     4  10  20  35  56  79 104 133 167 215 267 307
#
# _framework density 17.609535999999999
#
# number of rings (size 3 to 8) (size 9 to 14) (size 15 to 20)
#    0.000    2.000    2.500    2.625    0.000    8.000 
#    0.000    0.000    0.000    0.750    0.000    0.000 
#    0.000    5.000    0.000    0.000    0.000    0.000 
#
# Total GULP energy -396708.861092 kJ/mol
# GULP energy per Si atom -12397.151909 kJ/mol
# Density = 1.756946 g / cm^3
# Si number density = 17.609536 Si / 1000 Ang^3
#
#
#
# Elastic Constant Matrix: (Units=GPa)
#
#
# Indices 1 2 3 4 5 6 
#
# 1 94.7339 49.0206 34.4204 0.0000 0.0000 0.0000
# 2 49.0206 102.8635 51.4196 0.0000 0.0000 0.0000
# 3 34.4204 51.4196 132.2766 0.0000 0.0000 0.0000
# 4 0.0000 0.0000 0.0000 97.0097 0.0000 0.0000
# 5 0.0000 0.0000 0.0000 0.0000 23.1911 0.0000
# 6 0.0000 0.0000 0.0000 0.0000 0.0000 30.6826
#
#
#
# Elastic Compliance Matrix: (Units=1/GPa)
#
#
# Indices 1 2 3 4 5 6 
#
# 1 0.014194 -0.006104 -0.001321 0.000000 0.000000 0.000000
# 2 -0.006104 0.014691 -0.004123 0.000000 0.000000 0.000000
# 3 -0.001321 -0.004123 0.009506 0.000000 0.000000 0.000000
# 4 0.000000 0.000000 0.000000 0.010308 0.000000 0.000000
# 5 0.000000 0.000000 0.000000 0.000000 0.043120 0.000000
# 6 0.000000 0.000000 0.000000 0.000000 0.000000 0.032592
#
#
# Mechanical properties :
#
#
# Convention : Reuss Voigt Hill
#
# Bulk Modulus (GPa) = 65.37253 66.62168 65.99711
# Shear Modulus (GPa) = 32.76408 43.17759 37.97083
#
# Velocity S-wave (km/s) = 4.31813 4.95708 4.64860
# Velocity P-wave (km/s) = 7.87818 8.40705 8.14690
#
# Compressibility (1/GPa) = 0.01529694
#
# Stress axis : x y z
#
# Youngs Moduli (GPa) = 70.45010 68.06669 105.19531
#
# Poissons Ratio (x) = 0.41550 0.13893
# Poissons Ratio (y) = 0.43005 0.43367
# Poissons Ratio (z) = 0.09304 0.28061
#
# Static dielectric constant tensor:
#      x y z
#    x 3.158600 0.000000 0.000000 
#    y 0.000000 3.143820 0.000000 
#    z 0.000000 0.000000 3.409700 
# 
# 
# High freq. dielectric constant tensor:
#      x y z
#    x 1.663400 0.000000 0.000000 
#    y 0.000000 1.662570 0.000000 
#    z 0.000000 0.000000 1.687090 
# 
# From -- ./inp_files/29646.got.cif
#   From: 2010.03.12/outbox.cif.g09.slc.cpg/sg69_15_cif.got.tgz:29646.got - 2010.04.10 23:52:46.
