data_PCOD8284196
_publ_section_title
;
Structure prediction by ZEFSAII (Michael W. Deem and Ramdas Pophale) SiO2 
 PCOD8284196
Probable space group: F M M M
;
_chemical_formula_sum "Si O2"
_cell_formula_units_Z 208
_cell_length_a 18.320861
_cell_length_b 22.845318
_cell_length_c 28.507620
_cell_angle_alpha 90.000000
_cell_angle_beta 90.000000
_cell_angle_gamma 90.000000
_cell_volume 11931.747344
_symmetry_space_group_name_H-M "F M M M"
_symmetry_group_IT_number 69
_symmetry_cell_setting 'orthorhombic'
loop_
_space_group_symop_operation_xyz
x,y,z
-x,-y,z
x,-y,-z
-x,y,-z
-x,-y,-z
x,y,-z
-x,y,z
x,-y,z
x,1/2+y,1/2+z
-x,1/2-y,1/2+z
x,1/2-y,1/2-z
-x,1/2+y,1/2-z
-x,1/2-y,1/2-z
x,1/2+y,1/2-z
-x,1/2+y,1/2+z
x,1/2-y,1/2+z
1/2+x,y,1/2+z
1/2-x,-y,1/2+z
1/2+x,-y,1/2-z
1/2-x,y,1/2-z
1/2-x,-y,1/2-z
1/2+x,y,1/2-z
1/2-x,y,1/2+z
1/2+x,-y,1/2+z
1/2+x,1/2+y,z
1/2-x,1/2-y,z
1/2+x,1/2-y,-z
1/2-x,1/2+y,-z
1/2-x,1/2-y,-z
1/2+x,1/2+y,-z
1/2-x,1/2+y,z
1/2+x,1/2-y,z
loop_
_atom_site_type_symbol
_atom_site_label
_atom_site_fract_x
_atom_site_fract_y
_atom_site_fract_z
Si Si1 0.418176 0.731859 0.151973
Si Si2 0.273941 0.844965 0.948230
Si Si3 0.141439 0.568727 0.891752
Si Si4 0.864500 0.271685 0.447504
Si Si5 0.084372 0.638990 0.187935
Si Si6 0.500000 0.569334 0.551968
Si Si7 0.666151 0.812367 0.733245
O O1 0.500000 0.717169 0.170704
O O2 0.419736 0.720398 0.095876
O O3 0.400303 0.800069 0.161151
O O4 0.356195 0.690131 0.177676
O O5 0.288492 0.897006 0.911441
O O6 0.190010 0.826516 0.944845
O O7 0.322806 0.788535 0.938006
O O8 0.291106 0.869679 0.000000
O O9 0.155795 0.500000 0.895581
O O10 0.126699 0.586702 0.838307
O O11 0.071682 0.591227 0.921393
O O12 0.901211 0.270935 0.500000
O O13 0.118068 0.639090 0.240304
O O14 0.000000 0.622972 0.191201
O O15 0.500000 0.500000 0.549896
O O16 0.500000 0.596834 0.500000
O O17 0.636337 0.750000 0.750000
O O18 0.750000 0.820603 0.750000
#
# Coordination Sequence:
#
# PCOD8284196 Si02
#       7
#    32  32  32  32  32  16  32
#     4  10  19  31  48  73 103 131 165 211 259 305
#     4   9  18  31  46  67  97 134 172 210 247 289
#     4  11  20  30  46  69  97 135 175 207 244 290
#     4   9  18  31  49  71  99 134 170 206 253 310
#     4  10  19  32  47  69 102 133 165 209 252 297
#     4   9  18  30  42  62  95 134 178 212 229 270
#     4   9  19  31  50  75  94 124 166 210 256 307
#
# _framework density 17.432485
#
# number of rings (size 3 to 8) (size 9 to 14) (size 15 to 20)
#    0.000    2.385    2.308    1.846    2.154    4.308 
#    0.000    0.000    0.000    0.462    0.000    0.000 
#    0.000    0.615    0.000    3.385    0.000    0.000 
#
# Total GULP energy -644288.150580 kJ/mol
# GULP energy per Si atom -12390.156742 kJ/mol
# Density = 1.739281 g / cm^3
# Si number density = 17.432485 Si / 1000 Ang^3
#
#
#
# Elastic Constant Matrix: (Units=GPa)
#
#
# Indices 1 2 3 4 5 6 
#
# 1 50.0063 22.5468 18.5873 0.0000 0.0000 0.0000
# 2 22.5468 61.7198 23.1700 0.0000 0.0000 0.0000
# 3 18.5873 23.1700 95.5173 0.0000 0.0000 0.0000
# 4 0.0000 0.0000 0.0000 21.9950 0.0000 0.0000
# 5 0.0000 0.0000 0.0000 0.0000 27.1165 0.0000
# 6 0.0000 0.0000 0.0000 0.0000 0.0000 16.5105
#
#
#
# Elastic Compliance Matrix: (Units=1/GPa)
#
#
# Indices 1 2 3 4 5 6 
#
# 1 0.024637 -0.007922 -0.002873 0.000000 0.000000 0.000000
# 2 -0.007922 0.020373 -0.003400 0.000000 0.000000 0.000000
# 3 -0.002873 -0.003400 0.011853 0.000000 0.000000 0.000000
# 4 0.000000 0.000000 0.000000 0.045465 0.000000 0.000000
# 5 0.000000 0.000000 0.000000 0.000000 0.036878 0.000000
# 6 0.000000 0.000000 0.000000 0.000000 0.000000 0.060568
#
#
# Mechanical properties :
#
#
# Convention : Reuss Voigt Hill
#
# Bulk Modulus (GPa) = 35.12052 37.31684 36.21868
# Shear Modulus (GPa) = 21.03901 22.65367 21.84634
#
# Velocity S-wave (km/s) = 3.47779 3.60878 3.54389
# Velocity P-wave (km/s) = 6.02636 6.23036 6.12921
#
# Compressibility (1/GPa) = 0.02847338
#
# Stress axis : x y z
#
# Youngs Moduli (GPa) = 40.58942 49.08547 84.36579
#
# Poissons Ratio (x) = 0.38884 0.24235
# Poissons Ratio (y) = 0.32154 0.28687
# Poissons Ratio (z) = 0.11660 0.16691
#
# Static dielectric constant tensor:
#      x y z
#    x 3.058850 0.000000 0.000000 
#    y 0.000000 2.828240 0.000000 
#    z 0.000000 0.000000 3.436910 
# 
# 
# High freq. dielectric constant tensor:
#      x y z
#    x 1.656840 0.000000 0.000000 
#    y 0.000000 1.620810 0.000000 
#    z 0.000000 0.000000 1.682310 
# 
# From -- ./inp_files/42133.got.cif
#   From: 2010.03.12/outbox.cif.g09.slc.cpg/sg69_22_cif.got.tgz:42133.got - 2010.04.10 23:52:46.
