data_PCOD8284731
_publ_section_title
;
Structure prediction by ZEFSAII (Michael W. Deem and Ramdas Pophale) SiO2 
 PCOD8284731
Probable space group: F M M M
;
_chemical_formula_sum "Si O2"
_cell_formula_units_Z 144
_cell_length_a 8.894464
_cell_length_b 31.972948
_cell_length_c 26.775191
_cell_angle_alpha 90.000000
_cell_angle_beta 90.000000
_cell_angle_gamma 90.000000
_cell_volume 7614.388658
_symmetry_space_group_name_H-M "F M M M"
_symmetry_group_IT_number 69
_symmetry_cell_setting 'orthorhombic'
loop_
_space_group_symop_operation_xyz
x,y,z
-x,-y,z
x,-y,-z
-x,y,-z
-x,-y,-z
x,y,-z
-x,y,z
x,-y,z
x,1/2+y,1/2+z
-x,1/2-y,1/2+z
x,1/2-y,1/2-z
-x,1/2+y,1/2-z
-x,1/2-y,1/2-z
x,1/2+y,1/2-z
-x,1/2+y,1/2+z
x,1/2-y,1/2+z
1/2+x,y,1/2+z
1/2-x,-y,1/2+z
1/2+x,-y,1/2-z
1/2-x,y,1/2-z
1/2-x,-y,1/2-z
1/2+x,y,1/2-z
1/2-x,y,1/2+z
1/2+x,-y,1/2+z
1/2+x,1/2+y,z
1/2-x,1/2-y,z
1/2+x,1/2-y,-z
1/2-x,1/2+y,-z
1/2-x,1/2-y,-z
1/2+x,1/2+y,-z
1/2-x,1/2+y,z
1/2+x,1/2-y,z
loop_
_atom_site_type_symbol
_atom_site_label
_atom_site_fract_x
_atom_site_fract_y
_atom_site_fract_z
Si Si1 0.823869 0.293887 0.652897
Si Si2 0.323949 0.872898 0.800160
Si Si3 0.177718 0.500000 0.443183
Si Si4 0.328081 0.341225 0.944417
Si Si5 0.825743 0.081257 0.598987
O O1 0.750000 0.250000 0.666171
O O2 0.752737 0.328581 0.688556
O O3 0.787761 0.305061 0.595095
O O4 0.000000 0.291359 0.663504
O O5 0.500000 0.865553 0.792884
O O6 0.250000 0.891515 0.750000
O O7 0.291176 0.906023 0.843949
O O8 0.240130 0.500000 0.500000
O O9 0.233098 0.459761 0.413485
O O10 0.000000 0.500000 0.443529
O O11 0.500000 0.356003 0.936750
O O12 0.222812 0.381312 0.937385
O O13 0.301804 0.323084 0.000000
O O14 0.000000 0.071979 0.590217
#
# Coordination Sequence:
#
# PCOD8284731 Si02
#       5
#    32  32  16  32  32
#     4  10  20  34  52  76 107 140 177 222 267 313
#     4  10  21  38  59  81 105 136 175 218 267 319
#     4  11  23  37  56  83 114 147 180 213 252 303
#     4   9  18  33  52  74 104 143 181 216 261 317
#     4  10  21  36  55  81 110 138 174 220 264 310
#
# _framework density 18.911563999999998
#
# number of rings (size 3 to 8) (size 9 to 14) (size 15 to 20)
#    0.000    2.111    0.000    3.000    0.000    8.444 
#    0.000    2.778    0.000    0.000    0.000    0.000 
#    0.000    0.000    0.000    0.000    0.000    0.000 
#
# Total GULP energy -446515.272739 kJ/mol
# GULP energy per Si atom -12403.202021 kJ/mol
# Density = 1.886852 g / cm^3
# Si number density = 18.911564 Si / 1000 Ang^3
#
#
#
# Elastic Constant Matrix: (Units=GPa)
#
#
# Indices 1 2 3 4 5 6 
#
# 1 95.4416 48.3826 44.0628 0.0000 0.0000 0.0000
# 2 48.3826 99.0115 29.6232 0.0000 0.0000 0.0000
# 3 44.0628 29.6232 106.9820 0.0000 0.0000 0.0000
# 4 0.0000 0.0000 0.0000 14.9220 0.0000 0.0000
# 5 0.0000 0.0000 0.0000 0.0000 30.9410 0.0000
# 6 0.0000 0.0000 0.0000 0.0000 0.0000 21.4766
#
#
#
# Elastic Compliance Matrix: (Units=1/GPa)
#
#
# Indices 1 2 3 4 5 6 
#
# 1 0.015904 -0.006337 -0.004796 0.000000 0.000000 0.000000
# 2 -0.006337 0.013537 -0.001138 0.000000 0.000000 0.000000
# 3 -0.004796 -0.001138 0.011638 0.000000 0.000000 0.000000
# 4 0.000000 0.000000 0.000000 0.067015 0.000000 0.000000
# 5 0.000000 0.000000 0.000000 0.000000 0.032320 0.000000
# 6 0.000000 0.000000 0.000000 0.000000 0.000000 0.046562
#
#
# Mechanical properties :
#
#
# Convention : Reuss Voigt Hill
#
# Bulk Modulus (GPa) = 60.47091 60.61914 60.54502
# Shear Modulus (GPa) = 23.03829 25.42568 24.23199
#
# Velocity S-wave (km/s) = 3.49408 3.67065 3.58345
# Velocity P-wave (km/s) = 6.95148 7.07732 7.01469
#
# Compressibility (1/GPa) = 0.01653688
#
# Stress axis : x y z
#
# Youngs Moduli (GPa) = 62.87727 73.87188 85.92671
#
# Poissons Ratio (x) = 0.46811 0.41208
# Poissons Ratio (y) = 0.39844 0.09782
# Poissons Ratio (z) = 0.30154 0.08410
#
# Static dielectric constant tensor:
#      x y z
#    x 3.570350 0.000000 0.000000 
#    y 0.000000 3.315630 0.000000 
#    z 0.000000 0.000000 3.599840 
# 
# 
# High freq. dielectric constant tensor:
#      x y z
#    x 1.747800 0.000000 0.000000 
#    y 0.000000 1.717890 0.000000 
#    z 0.000000 0.000000 1.742530 
# 
# From -- ./inp_files/5531.got.cif
#   From: 2010.03.12/outbox.cif.g09.slc.cpg/sg69_3_cif.got.tgz:5531.got - 2010.04.10 23:52:46.
