data_PCOD8284266
_publ_section_title
;
Structure prediction by ZEFSAII (Michael W. Deem and Ramdas Pophale) SiO2 
 PCOD8284266
Probable space group: F M M M
;
_chemical_formula_sum "Si O2"
_cell_formula_units_Z 160
_cell_length_a 27.160608
_cell_length_b 33.100353
_cell_length_c 10.230196
_cell_angle_alpha 90.000000
_cell_angle_beta 90.000000
_cell_angle_gamma 90.000000
_cell_volume 9197.209248
_symmetry_space_group_name_H-M "F M M M"
_symmetry_group_IT_number 69
_symmetry_cell_setting 'orthorhombic'
loop_
_space_group_symop_operation_xyz
x,y,z
-x,-y,z
x,-y,-z
-x,y,-z
-x,-y,-z
x,y,-z
-x,y,z
x,-y,z
x,1/2+y,1/2+z
-x,1/2-y,1/2+z
x,1/2-y,1/2-z
-x,1/2+y,1/2-z
-x,1/2-y,1/2-z
x,1/2+y,1/2-z
-x,1/2+y,1/2+z
x,1/2-y,1/2+z
1/2+x,y,1/2+z
1/2-x,-y,1/2+z
1/2+x,-y,1/2-z
1/2-x,y,1/2-z
1/2-x,-y,1/2-z
1/2+x,y,1/2-z
1/2-x,y,1/2+z
1/2+x,-y,1/2+z
1/2+x,1/2+y,z
1/2-x,1/2-y,z
1/2+x,1/2-y,-z
1/2-x,1/2+y,-z
1/2-x,1/2-y,-z
1/2+x,1/2+y,-z
1/2-x,1/2+y,z
1/2+x,1/2-y,z
loop_
_atom_site_type_symbol
_atom_site_label
_atom_site_fract_x
_atom_site_fract_y
_atom_site_fract_z
Si Si1 0.206425 0.088310 0.144574
Si Si2 0.694829 0.500000 0.791187
Si Si3 0.056200 0.284126 0.353282
Si Si4 0.557335 0.419312 0.646789
Si Si5 0.601711 0.500000 0.351493
Si Si6 0.607200 0.633400 0.148246
O O1 0.250000 0.092604 0.250000
O O2 0.162931 0.119616 0.183472
O O3 0.185248 0.042216 0.133409
O O4 0.226684 0.099509 0.000000
O O5 0.750000 0.500000 0.750000
O O6 0.660544 0.500000 0.663152
O O7 0.058971 0.265998 0.500000
O O8 0.070802 0.250000 0.250000
O O9 0.097654 0.318818 0.339935
O O10 0.000000 0.299868 0.327004
O O11 0.578959 0.411105 0.500000
O O12 0.500000 0.424693 0.636050
O O13 0.579623 0.459750 0.712559
O O14 0.569806 0.383898 0.745661
O O15 0.584988 0.500000 0.500000
O O16 0.594740 0.618979 0.000000
#
# Coordination Sequence:
#
# PCOD8284266 Si02
#       6
#    32  16  32  32  16  32
#     4  10  21  35  53  76 103 135 174 219 263 309
#     4  10  19  32  50  73  97 133 176 220 262 305
#     4   9  18  33  54  79 107 136 166 203 250 305
#     4  10  20  33  50  73 101 136 177 216 253 301
#     4  10  19  33  50  69  99 139 175 213 260 304
#     4  10  20  35  54  77 105 136 169 211 262 313
#
# _framework density 17.396581999999999
#
# number of rings (size 3 to 8) (size 9 to 14) (size 15 to 20)
#    0.000    2.200    2.000    1.200    0.000    7.200 
#    0.000    2.500    0.000    1.800    0.000    4.200 
#    0.000    0.000    0.000    0.000    0.000    0.000 
#
# Total GULP energy -495589.804874 kJ/mol
# GULP energy per Si atom -12389.745122 kJ/mol
# Density = 1.735699 g / cm^3
# Si number density = 17.396582 Si / 1000 Ang^3
#
#
#
# Elastic Constant Matrix: (Units=GPa)
#
#
# Indices 1 2 3 4 5 6 
#
# 1 88.6762 48.5407 48.3137 0.0028 -0.0020 -0.0010
# 2 48.5407 95.8785 51.5791 0.0028 -0.0017 -0.0008
# 3 48.3137 51.5791 94.2615 0.0081 -0.0036 -0.0023
# 4 0.0028 0.0028 0.0081 22.6404 -0.0042 -0.0023
# 5 -0.0020 -0.0017 -0.0036 -0.0042 28.0798 0.0015
# 6 -0.0010 -0.0008 -0.0023 -0.0023 0.0015 29.6051
#
#
#
# Elastic Compliance Matrix: (Units=1/GPa)
#
#
# Indices 1 2 3 4 5 6 
#
# 1 0.017639 -0.005763 -0.005888 0.000001 0.000000 0.000000
# 2 -0.005763 0.016664 -0.006164 0.000001 0.000000 0.000000
# 3 -0.005888 -0.006164 0.017000 -0.000005 0.000001 0.000001
# 4 0.000001 0.000001 -0.000005 0.044169 0.000007 0.000003
# 5 0.000000 0.000000 0.000001 0.000007 0.035613 -0.000002
# 6 0.000000 0.000000 0.000001 0.000003 -0.000002 0.033778
#
#
# Mechanical properties :
#
#
# Convention : Reuss Voigt Hill
#
# Bulk Modulus (GPa) = 63.80545 63.96481 63.88513
# Shear Modulus (GPa) = 24.30528 24.75725 24.53127
#
# Velocity S-wave (km/s) = 3.74188 3.77651 3.75923
# Velocity P-wave (km/s) = 7.44483 7.47425 7.45955
#
# Compressibility (1/GPa) = 0.01567264
#
# Stress axis : x y z
#
# Youngs Moduli (GPa) = 56.69134 60.01040 58.82496
#
# Poissons Ratio (x) = 0.34584 0.34634
# Poissons Ratio (y) = 0.32671 0.36262
# Poissons Ratio (z) = 0.33377 0.36993
#
# Static dielectric constant tensor:
#      x y z
#    x 3.141950 0.000000 0.000020 
#    y 0.000000 3.306130 0.000000 
#    z 0.000020 0.000000 3.169440 
# 
# 
# High freq. dielectric constant tensor:
#      x y z
#    x 1.661010 0.000000 0.000000 
#    y 0.000000 1.655010 0.000000 
#    z 0.000000 0.000000 1.676610 
# 
# From -- ./inp_files/10568.got.cif
#   From: 2010.03.12/outbox.cif.g09.slc.cpg/sg69_6_cif.got.tgz:10568.got - 2010.04.10 23:52:46.
