data_PCOD8284366
_publ_section_title
;
Structure prediction by ZEFSAII (Michael W. Deem and Ramdas Pophale) SiO2 
 PCOD8284366
Probable space group: F M M M
;
_chemical_formula_sum "Si O2"
_cell_formula_units_Z 144
_cell_length_a 19.405981
_cell_length_b 21.783691
_cell_length_c 17.174098
_cell_angle_alpha 90.000000
_cell_angle_beta 90.000000
_cell_angle_gamma 90.000000
_cell_volume 7260.073318
_symmetry_space_group_name_H-M "F M M M"
_symmetry_group_IT_number 69
_symmetry_cell_setting 'orthorhombic'
loop_
_space_group_symop_operation_xyz
x,y,z
-x,-y,z
x,-y,-z
-x,y,-z
-x,-y,-z
x,y,-z
-x,y,z
x,-y,z
x,1/2+y,1/2+z
-x,1/2-y,1/2+z
x,1/2-y,1/2-z
-x,1/2+y,1/2-z
-x,1/2-y,1/2-z
x,1/2+y,1/2-z
-x,1/2+y,1/2+z
x,1/2-y,1/2+z
1/2+x,y,1/2+z
1/2-x,-y,1/2+z
1/2+x,-y,1/2-z
1/2-x,y,1/2-z
1/2-x,-y,1/2-z
1/2+x,y,1/2-z
1/2-x,y,1/2+z
1/2+x,-y,1/2+z
1/2+x,1/2+y,z
1/2-x,1/2-y,z
1/2+x,1/2-y,-z
1/2-x,1/2+y,-z
1/2-x,1/2-y,-z
1/2+x,1/2+y,-z
1/2-x,1/2+y,z
1/2+x,1/2-y,z
loop_
_atom_site_type_symbol
_atom_site_label
_atom_site_fract_x
_atom_site_fract_y
_atom_site_fract_z
Si Si1 0.320756 0.427346 0.091342
Si Si2 0.921073 0.201491 0.645561
Si Si3 0.076304 0.000000 0.406726
Si Si4 0.578252 0.161336 0.320117
Si Si5 0.828400 0.895314 0.587868
O O1 0.325674 0.500000 0.106833
O O2 0.376901 0.392415 0.142751
O O3 0.247726 0.401222 0.124213
O O4 0.332357 0.412594 0.000000
O O5 0.904106 0.174648 0.730573
O O6 0.910262 0.274033 0.636221
O O7 0.862918 0.171881 0.590286
O O8 0.000000 0.184717 0.621841
O O9 0.116702 0.941277 0.372671
O O10 0.071412 0.000000 0.500000
O O11 0.000000 0.000000 0.370261
O O12 0.500000 0.139592 0.329376
O O13 0.817816 0.917361 0.500000
#
# Coordination Sequence:
#
# PCOD8284366 Si02
#       5
#    32  32  16  32  32
#     4  10  21  38  57  78 111 149 184 229 276 320
#     4   9  19  37  58  80 109 142 178 228 279 325
#     4   9  16  28  48  73 103 139 172 207 257 315
#     4   9  20  39  58  77 106 144 186 229 276 326
#     4  10  19  33  53  80 112 142 175 217 270 330
#
# _framework density 19.834510000000002
#
# number of rings (size 3 to 8) (size 9 to 14) (size 15 to 20)
#    0.000    2.556    1.111    2.000    0.000    4.889 
#    2.000    8.889    0.000    0.000    0.000    0.000 
#    0.000    0.000    0.000    0.000    0.000    0.000 
#
# Total GULP energy -446161.754944 kJ/mol
# GULP energy per Si atom -12393.382082 kJ/mol
# Density = 1.978937 g / cm^3
# Si number density = 19.834510 Si / 1000 Ang^3
#
#
#
# Elastic Constant Matrix: (Units=GPa)
#
#
# Indices 1 2 3 4 5 6 
#
# 1 139.1406 60.6445 28.1471 0.0000 0.0000 0.0000
# 2 60.6445 89.7993 18.3044 0.0000 0.0000 0.0000
# 3 28.1471 18.3044 24.3985 0.0000 0.0000 0.0000
# 4 0.0000 0.0000 0.0000 32.6795 0.0000 0.0000
# 5 0.0000 0.0000 0.0000 0.0000 23.4700 0.0000
# 6 0.0000 0.0000 0.0000 0.0000 0.0000 33.1096
#
#
#
# Elastic Compliance Matrix: (Units=1/GPa)
#
#
# Indices 1 2 3 4 5 6 
#
# 1 0.011611 -0.006033 -0.008868 0.000000 0.000000 0.000000
# 2 -0.006033 0.016282 -0.005254 0.000000 0.000000 0.000000
# 3 -0.008868 -0.005254 0.055159 0.000000 0.000000 0.000000
# 4 0.000000 0.000000 0.000000 0.030600 0.000000 0.000000
# 5 0.000000 0.000000 0.000000 0.000000 0.042607 0.000000
# 6 0.000000 0.000000 0.000000 0.000000 0.000000 0.030203
#
#
# Mechanical properties :
#
#
# Convention : Reuss Voigt Hill
#
# Bulk Modulus (GPa) = 23.39782 51.94783 37.67283
# Shear Modulus (GPa) = 20.74522 27.60132 24.17327
#
# Velocity S-wave (km/s) = 3.23757 3.73444 3.49484
# Velocity P-wave (km/s) = 5.07917 6.69643 5.94307
#
# Compressibility (1/GPa) = 0.04273902
#
# Stress axis : x y z
#
# Youngs Moduli (GPa) = 86.12840 61.41923 18.12951
#
# Poissons Ratio (x) = 0.37057 0.16077
# Poissons Ratio (y) = 0.51965 0.09526
# Poissons Ratio (z) = 0.76379 0.32273
#
# Static dielectric constant tensor:
#      x y z
#    x 3.697140 0.000000 0.000000 
#    y 0.000000 3.577610 0.000000 
#    z 0.000000 0.000000 3.236130 
# 
# 
# High freq. dielectric constant tensor:
#      x y z
#    x 1.781770 0.000000 0.000000 
#    y 0.000000 1.776640 0.000000 
#    z 0.000000 0.000000 1.738700 
# 
# From -- ./inp_files/24480.got.cif
#   From: 2010.03.12/outbox.cif.g09.slc.cpg/sg69_13_cif.got.tgz:24480.got - 2010.04.10 23:52:46.
