data_PCOD8284441
_publ_section_title
;
Structure prediction by ZEFSAII (Michael W. Deem and Ramdas Pophale) SiO2 
 PCOD8284441
Probable space group: F M M M
;
_chemical_formula_sum "Si O2"
_cell_formula_units_Z 176
_cell_length_a 26.258164
_cell_length_b 14.276165
_cell_length_c 24.838047
_cell_angle_alpha 90.000000
_cell_angle_beta 90.000000
_cell_angle_gamma 90.000000
_cell_volume 9310.936392
_symmetry_space_group_name_H-M "F M M M"
_symmetry_group_IT_number 69
_symmetry_cell_setting 'orthorhombic'
loop_
_space_group_symop_operation_xyz
x,y,z
-x,-y,z
x,-y,-z
-x,y,-z
-x,-y,-z
x,y,-z
-x,y,z
x,-y,z
x,1/2+y,1/2+z
-x,1/2-y,1/2+z
x,1/2-y,1/2-z
-x,1/2+y,1/2-z
-x,1/2-y,1/2-z
x,1/2+y,1/2-z
-x,1/2+y,1/2+z
x,1/2-y,1/2+z
1/2+x,y,1/2+z
1/2-x,-y,1/2+z
1/2+x,-y,1/2-z
1/2-x,y,1/2-z
1/2-x,-y,1/2-z
1/2+x,y,1/2-z
1/2-x,y,1/2+z
1/2+x,-y,1/2+z
1/2+x,1/2+y,z
1/2-x,1/2-y,z
1/2+x,1/2-y,-z
1/2-x,1/2+y,-z
1/2-x,1/2-y,-z
1/2+x,1/2+y,-z
1/2-x,1/2+y,z
1/2+x,1/2-y,z
loop_
_atom_site_type_symbol
_atom_site_label
_atom_site_fract_x
_atom_site_fract_y
_atom_site_fract_z
Si Si1 0.161050 0.895454 0.240979
Si Si2 0.441302 0.610745 0.500000
Si Si3 0.943945 0.654291 0.782117
Si Si4 0.940053 0.104114 0.061406
Si Si5 0.902279 0.210093 0.605337
Si Si6 0.807073 0.234933 0.333427
O O1 0.101650 0.907307 0.257767
O O2 0.193671 0.845372 0.287837
O O3 0.167783 0.831409 0.188263
O O4 0.182467 0.000000 0.230673
O O5 0.435635 0.500000 0.500000
O O6 0.500000 0.642932 0.500000
O O7 0.414380 0.651153 0.552528
O O8 0.942213 0.750000 0.750000
O O9 0.935474 0.670653 0.845500
O O10 0.000000 0.606854 0.775048
O O11 0.913491 0.179940 0.098841
O O12 0.000000 0.116609 0.066131
O O13 0.923880 0.000000 0.080777
O O14 0.922703 0.119988 0.000000
O O15 0.842026 0.200025 0.617323
O O16 0.750000 0.250000 0.354521
#
# Coordination Sequence:
#
# PCOD8284441 Si02
#       6
#    32  16  32  32  32  32
#     4  10  19  36  59  84 115 153 195 237 282 341
#     4  11  24  40  62  89 113 147 199 244 285 347
#     4  10  19  34  54  83 123 159 185 220 284 354
#     4   9  17  30  52  82 111 140 174 214 265 325
#     4  11  20  37  59  82 111 154 188 242 284 333
#     4  10  22  39  56  83 112 147 197 244 293 344
#
# _framework density 18.902502999999999
#
# number of rings (size 3 to 8) (size 9 to 14) (size 15 to 20)
#    0.000    1.909    4.545    3.273    0.000    5.455 
#    0.000    0.455    0.000    0.000    0.000    0.000 
#    0.000    0.000    0.000    0.000    0.000    0.000 
#
# Total GULP energy -545450.593759 kJ/mol
# GULP energy per Si atom -12396.604404 kJ/mol
# Density = 1.885948 g / cm^3
# Si number density = 18.902503 Si / 1000 Ang^3
#
#
#
# Elastic Constant Matrix: (Units=GPa)
#
#
# Indices 1 2 3 4 5 6 
#
# 1 117.9615 18.0108 35.5137 0.0000 0.0000 0.0000
# 2 18.0108 98.5450 27.9634 0.0000 0.0000 0.0000
# 3 35.5137 27.9634 95.5753 0.0000 0.0000 0.0000
# 4 0.0000 0.0000 0.0000 7.9814 0.0000 0.0000
# 5 0.0000 0.0000 0.0000 0.0000 21.1213 0.0000
# 6 0.0000 0.0000 0.0000 0.0000 0.0000 11.6927
#
#
#
# Elastic Compliance Matrix: (Units=1/GPa)
#
#
# Indices 1 2 3 4 5 6 
#
# 1 0.009604 -0.000810 -0.003332 0.000000 0.000000 0.000000
# 2 -0.000810 0.011135 -0.002957 0.000000 0.000000 0.000000
# 3 -0.003332 -0.002957 0.012566 0.000000 0.000000 0.000000
# 4 0.000000 0.000000 0.000000 0.125291 0.000000 0.000000
# 5 0.000000 0.000000 0.000000 0.000000 0.047346 0.000000
# 6 0.000000 0.000000 0.000000 0.000000 0.000000 0.085523
#
#
# Mechanical properties :
#
#
# Convention : Reuss Voigt Hill
#
# Bulk Modulus (GPa) = 52.33431 52.78419 52.55925
# Shear Modulus (GPa) = 16.02406 23.53201 19.77803
#
# Velocity S-wave (km/s) = 2.91472 3.53216 3.23819
# Velocity P-wave (km/s) = 6.25092 6.67982 6.46893
#
# Compressibility (1/GPa) = 0.01910793
#
# Stress axis : x y z
#
# Youngs Moduli (GPa) = 104.12273 89.80918 79.57948
#
# Poissons Ratio (x) = 0.07274 0.26513
# Poissons Ratio (y) = 0.08433 0.23530
# Poissons Ratio (z) = 0.34691 0.26555
#
# Static dielectric constant tensor:
#      x y z
#    x 3.534300 0.000000 0.000000 
#    y 0.000000 3.356430 0.000000 
#    z 0.000000 0.000000 2.789810 
# 
# 
# High freq. dielectric constant tensor:
#      x y z
#    x 1.723390 0.000000 0.000000 
#    y 0.000000 1.734570 0.000000 
#    z 0.000000 0.000000 1.717410 
# 
# From -- ./inp_files/38307.got.cif
#   From: 2010.03.12/outbox.cif.g09.slc.cpg/sg69_20_cif.got.tgz:38307.got - 2010.04.10 23:52:46.
