data_PCOD8284697
_publ_section_title
;
Structure prediction by ZEFSAII (Michael W. Deem and Ramdas Pophale) SiO2 
 PCOD8284697
Probable space group: F M M M
;
_chemical_formula_sum "Si O2"
_cell_formula_units_Z 176
_cell_length_a 19.244642
_cell_length_b 16.517371
_cell_length_c 28.361090
_cell_angle_alpha 90.000000
_cell_angle_beta 90.000000
_cell_angle_gamma 90.000000
_cell_volume 9015.164967
_symmetry_space_group_name_H-M "F M M M"
_symmetry_group_IT_number 69
_symmetry_cell_setting 'orthorhombic'
loop_
_space_group_symop_operation_xyz
x,y,z
-x,-y,z
x,-y,-z
-x,y,-z
-x,-y,-z
x,y,-z
-x,y,z
x,-y,z
x,1/2+y,1/2+z
-x,1/2-y,1/2+z
x,1/2-y,1/2-z
-x,1/2+y,1/2-z
-x,1/2-y,1/2-z
x,1/2+y,1/2-z
-x,1/2+y,1/2+z
x,1/2-y,1/2+z
1/2+x,y,1/2+z
1/2-x,-y,1/2+z
1/2+x,-y,1/2-z
1/2-x,y,1/2-z
1/2-x,-y,1/2-z
1/2+x,y,1/2-z
1/2-x,y,1/2+z
1/2+x,-y,1/2+z
1/2+x,1/2+y,z
1/2-x,1/2-y,z
1/2+x,1/2-y,-z
1/2-x,1/2+y,-z
1/2-x,1/2-y,-z
1/2+x,1/2+y,-z
1/2-x,1/2+y,z
1/2+x,1/2-y,z
loop_
_atom_site_type_symbol
_atom_site_label
_atom_site_fract_x
_atom_site_fract_y
_atom_site_fract_z
Si Si1 0.636703 0.092923 0.946855
Si Si2 0.649100 0.091204 0.217756
Si Si3 0.266940 0.342691 0.633966
Si Si4 0.500000 0.166526 0.088127
Si Si5 0.365252 0.593101 0.822503
Si Si6 0.500000 0.197369 0.656853
Si Si7 0.500000 0.367084 0.309610
O O1 0.696301 0.121841 0.911809
O O2 0.568205 0.147775 0.942026
O O3 0.617282 0.000000 0.935914
O O4 0.664949 0.102797 0.000000
O O5 0.683069 0.151063 0.179722
O O6 0.667063 0.117150 0.271298
O O7 0.565993 0.093940 0.215297
O O8 0.675634 0.000000 0.207311
O O9 0.250000 0.250000 0.625158
O O10 0.195835 0.391951 0.640210
O O11 0.500000 0.261158 0.104650
O O12 0.500000 0.109830 0.134888
O O13 0.388312 0.500000 0.822673
O O14 0.431518 0.644896 0.836710
O O15 0.500000 0.269027 0.695979
#
# Coordination Sequence:
#
# PCOD8284697 Si02
#       7
#    32  32  32  16  32  16  16
#     4  11  23  40  65  92 117 148 189 241 304 369
#     4  11  22  36  56  84 117 157 201 242 289 346
#     4  12  24  39  57  84 118 155 196 244 300 354
#     4  10  20  38  59  91 120 150 181 232 293 357
#     4  11  23  38  57  81 116 161 205 246 283 336
#     4  10  22  38  55  81 113 153 196 238 283 338
#     4  10  20  33  56  84 115 153 185 238 288 343
#
# _framework density 19.522659000000001
#
# number of rings (size 3 to 8) (size 9 to 14) (size 15 to 20)
#    0.545    0.545    1.818    6.000    0.000    9.091 
#    0.000    0.000    0.000    0.000    0.000    0.000 
#    0.000    7.273    0.000    0.000    0.000    0.000 
#
# Total GULP energy -545684.658810 kJ/mol
# GULP energy per Si atom -12401.924064 kJ/mol
# Density = 1.947822 g / cm^3
# Si number density = 19.522659 Si / 1000 Ang^3
#
#
#
# Elastic Constant Matrix: (Units=GPa)
#
#
# Indices 1 2 3 4 5 6 
#
# 1 96.6676 33.2557 58.0268 0.0000 0.0000 0.0000
# 2 33.2557 97.5330 58.3678 0.0000 0.0000 0.0000
# 3 58.0268 58.3678 118.0327 0.0000 0.0000 0.0000
# 4 0.0000 0.0000 0.0000 20.5087 0.0000 0.0000
# 5 0.0000 0.0000 0.0000 0.0000 25.5922 0.0000
# 6 0.0000 0.0000 0.0000 0.0000 0.0000 17.7591
#
#
#
# Elastic Compliance Matrix: (Units=1/GPa)
#
#
# Indices 1 2 3 4 5 6 
#
# 1 0.014741 -0.000979 -0.006763 0.000000 0.000000 0.000000
# 2 -0.000979 0.014627 -0.006752 0.000000 0.000000 0.000000
# 3 -0.006763 -0.006752 0.015136 0.000000 0.000000 0.000000
# 4 0.000000 0.000000 0.000000 0.048760 0.000000 0.000000
# 5 0.000000 0.000000 0.000000 0.000000 0.039074 0.000000
# 6 0.000000 0.000000 0.000000 0.000000 0.000000 0.056309
#
#
# Mechanical properties :
#
#
# Convention : Reuss Voigt Hill
#
# Bulk Modulus (GPa) = 64.44727 67.94820 66.19773
# Shear Modulus (GPa) = 22.44089 23.61087 23.02588
#
# Velocity S-wave (km/s) = 3.39407 3.48143 3.43803
# Velocity P-wave (km/s) = 6.96009 7.14428 7.05279
#
# Compressibility (1/GPa) = 0.01551656
#
# Stress axis : x y z
#
# Youngs Moduli (GPa) = 67.83770 68.36450 66.06850
#
# Poissons Ratio (x) = 0.06694 0.44681
# Poissons Ratio (y) = 0.06642 0.44609
# Poissons Ratio (z) = 0.45877 0.46160
#
# Static dielectric constant tensor:
#      x y z
#    x 3.603300 0.000000 0.000000 
#    y 0.000000 3.554530 0.000000 
#    z 0.000000 0.000000 3.452500 
# 
# 
# High freq. dielectric constant tensor:
#      x y z
#    x 1.770870 0.000000 0.000000 
#    y 0.000000 1.760260 0.000000 
#    z 0.000000 0.000000 1.742330 
# 
# From -- ./inp_files/41906.got.cif
#   From: 2010.03.12/outbox.cif.g09.slc.cpg/sg69_21_cif.got.tgz:41906.got - 2010.04.10 23:52:46.
