data_PCOD8284874
_publ_section_title
;
Structure prediction by ZEFSAII (Michael W. Deem and Ramdas Pophale) SiO2 
 PCOD8284874
Probable space group: F M M M
;
_chemical_formula_sum "Si O2"
_cell_formula_units_Z 112
_cell_length_a 28.417288
_cell_length_b 27.365168
_cell_length_c 7.890557
_cell_angle_alpha 90.000000
_cell_angle_beta 90.000000
_cell_angle_gamma 90.000000
_cell_volume 6136.043205
_symmetry_space_group_name_H-M "F M M M"
_symmetry_group_IT_number 69
_symmetry_cell_setting 'orthorhombic'
loop_
_space_group_symop_operation_xyz
x,y,z
-x,-y,z
x,-y,-z
-x,y,-z
-x,-y,-z
x,y,-z
-x,y,z
x,-y,z
x,1/2+y,1/2+z
-x,1/2-y,1/2+z
x,1/2-y,1/2-z
-x,1/2+y,1/2-z
-x,1/2-y,1/2-z
x,1/2+y,1/2-z
-x,1/2+y,1/2+z
x,1/2-y,1/2+z
1/2+x,y,1/2+z
1/2-x,-y,1/2+z
1/2+x,-y,1/2-z
1/2-x,y,1/2-z
1/2-x,-y,1/2-z
1/2+x,y,1/2-z
1/2-x,y,1/2+z
1/2+x,-y,1/2+z
1/2+x,1/2+y,z
1/2-x,1/2-y,z
1/2+x,1/2-y,-z
1/2-x,1/2+y,-z
1/2-x,1/2-y,-z
1/2+x,1/2+y,-z
1/2-x,1/2+y,z
1/2+x,1/2-y,z
loop_
_atom_site_type_symbol
_atom_site_label
_atom_site_fract_x
_atom_site_fract_y
_atom_site_fract_z
Si Si1 0.553738 0.195765 0.699341
Si Si2 0.948447 0.442805 0.500000
Si Si3 0.699457 0.554348 0.302613
Si Si4 0.894848 0.603466 0.805794
O O1 0.557950 0.187351 0.500000
O O2 0.500000 0.186039 0.761038
O O3 0.569174 0.250000 0.750000
O O4 0.590785 0.160215 0.791799
O O5 0.950732 0.500000 0.500000
O O6 0.925514 0.427067 0.324510
O O7 0.000000 0.418774 0.500000
O O8 0.698539 0.547228 0.500000
O O9 0.691443 0.500000 0.219541
O O10 0.750000 0.576168 0.250000
O O11 0.659208 0.593192 0.249679
O O12 0.903377 0.585914 0.000000
#
# Coordination Sequence:
#
# PCOD8284874 Si02
#       4
#    32  16  32  32
#     4  10  20  35  56  83 112 145 189 237 285 338
#     4  11  24  38  54  80 114 155 196 230 276 343
#     4   9  19  34  54  81 109 143 188 235 285 337
#     4  11  22  37  57  82 115 151 189 236 287 338
#
# _framework density 18.252804000000001
#
# number of rings (size 3 to 8) (size 9 to 14) (size 15 to 20)
#    0.000    1.857    1.429    2.571    2.000    5.143 
#    0.000    1.429    0.000    0.857    0.000    6.000 
#    0.000    0.000    0.000    0.000    0.000    0.000 
#
# Total GULP energy -347045.718265 kJ/mol
# GULP energy per Si atom -12394.489938 kJ/mol
# Density = 1.821126 g / cm^3
# Si number density = 18.252804 Si / 1000 Ang^3
#
#
#
# Elastic Constant Matrix: (Units=GPa)
#
#
# Indices 1 2 3 4 5 6 
#
# 1 167.6082 78.5381 50.2621 0.0031 0.0103 -0.0007
# 2 78.5381 98.1390 24.8262 -0.0148 0.0116 0.0055
# 3 50.2621 24.8262 88.6152 -0.0906 0.0376 0.0838
# 4 0.0031 -0.0148 -0.0906 23.0297 0.0237 0.0182
# 5 0.0103 0.0116 0.0376 0.0237 28.2389 -0.0231
# 6 -0.0007 0.0055 0.0838 0.0182 -0.0231 36.1855
#
#
#
# Elastic Compliance Matrix: (Units=1/GPa)
#
#
# Indices 1 2 3 4 5 6 
#
# 1 0.010691 -0.007557 -0.003947 -0.000022 0.000005 0.000010
# 2 -0.007557 0.016309 -0.000283 0.000010 -0.000004 -0.000002
# 3 -0.003947 -0.000283 0.013603 0.000054 -0.000017 -0.000032
# 4 -0.000022 0.000010 0.000054 0.043422 -0.000036 -0.000022
# 5 0.000005 -0.000004 -0.000017 -0.000036 0.035412 0.000023
# 6 0.000010 -0.000002 -0.000032 -0.000022 0.000023 0.027636
#
#
# Mechanical properties :
#
#
# Convention : Reuss Voigt Hill
#
# Bulk Modulus (GPa) = 58.72207 73.51282 66.11744
# Shear Modulus (GPa) = 28.35708 30.87321 29.61514
#
# Velocity S-wave (km/s) = 3.94582 4.11715 4.03239
# Velocity P-wave (km/s) = 7.28016 7.93495 7.61460
#
# Compressibility (1/GPa) = 0.01702937
#
# Stress axis : x y z
#
# Youngs Moduli (GPa) = 93.53578 61.31541 73.51555
#
# Poissons Ratio (x) = 0.46339 0.29014
# Poissons Ratio (y) = 0.70689 0.02077
# Poissons Ratio (z) = 0.36916 0.01733
#
# Static dielectric constant tensor:
#      x y z
#    x 4.741770 -0.000270 0.000060 
#    y -0.000270 3.495050 -0.000120 
#    z 0.000060 -0.000120 3.406950 
# 
# 
# High freq. dielectric constant tensor:
#      x y z
#    x 1.699800 0.000000 0.000000 
#    y 0.000000 1.695390 -0.000010 
#    z 0.000000 -0.000010 1.718830 
# 
# From -- ./inp_files/4708.got.cif
#   From: 2010.03.12/outbox.cif.g09.slc.cpg/sg69_3_cif.got.tgz:4708.got - 2010.04.10 23:52:46.
