data_PCOD8284197
_publ_section_title
;
Structure prediction by ZEFSAII (Michael W. Deem and Ramdas Pophale) SiO2 
 PCOD8284197
Probable space group: F M M M
;
_chemical_formula_sum "Si O2"
_cell_formula_units_Z 128
_cell_length_a 8.773112
_cell_length_b 33.896295
_cell_length_c 25.308300
_cell_angle_alpha 90.000000
_cell_angle_beta 90.000000
_cell_angle_gamma 90.000000
_cell_volume 7526.080829
_symmetry_space_group_name_H-M "F M M M"
_symmetry_group_IT_number 69
_symmetry_cell_setting 'orthorhombic'
loop_
_space_group_symop_operation_xyz
x,y,z
-x,-y,z
x,-y,-z
-x,y,-z
-x,-y,-z
x,y,-z
-x,y,z
x,-y,z
x,1/2+y,1/2+z
-x,1/2-y,1/2+z
x,1/2-y,1/2-z
-x,1/2+y,1/2-z
-x,1/2-y,1/2-z
x,1/2+y,1/2-z
-x,1/2+y,1/2+z
x,1/2-y,1/2+z
1/2+x,y,1/2+z
1/2-x,-y,1/2+z
1/2+x,-y,1/2-z
1/2-x,y,1/2-z
1/2-x,-y,1/2-z
1/2+x,y,1/2-z
1/2-x,y,1/2+z
1/2+x,-y,1/2+z
1/2+x,1/2+y,z
1/2-x,1/2-y,z
1/2+x,1/2-y,-z
1/2-x,1/2+y,-z
1/2-x,1/2-y,-z
1/2+x,1/2+y,-z
1/2-x,1/2+y,z
1/2+x,1/2-y,z
loop_
_atom_site_type_symbol
_atom_site_label
_atom_site_fract_x
_atom_site_fract_y
_atom_site_fract_z
Si Si1 0.677358 0.841078 0.406330
Si Si2 0.822170 0.708689 0.304811
Si Si3 0.828293 0.000000 0.062753
Si Si4 0.179413 0.207092 0.500000
Si Si5 0.822679 0.919615 0.437838
O O1 0.500000 0.838332 0.421086
O O2 0.711575 0.824288 0.348406
O O3 0.771993 0.816212 0.448203
O O4 0.731306 0.886179 0.406546
O O5 0.750000 0.693853 0.250000
O O6 0.750000 0.750000 0.323380
O O7 0.000000 0.715639 0.296407
O O8 0.739464 0.038552 0.083024
O O9 0.000000 0.000000 0.085313
O O10 0.830073 0.000000 0.000000
O O11 0.250000 0.250000 0.500000
O O12 0.000000 0.211431 0.500000
O O13 0.792530 0.914220 0.500000
O O14 0.000000 0.916604 0.424352
#
# Coordination Sequence:
#
# PCOD8284197 Si02
#       5
#    32  32  16  16  32
#     4  11  22  35  52  75 103 135 171 210 254 304
#     4  10  21  36  55  76  98 130 170 216 261 302
#     4   9  17  29  47  69  98 137 172 207 250 295
#     4  12  24  36  50  71 100 137 172 206 252 304
#     4  10  19  31  48  73 103 136 172 209 250 299
#
# _framework density 17.007522999999999
#
# number of rings (size 3 to 8) (size 9 to 14) (size 15 to 20)
#    0.000    1.625    1.250    5.250    0.000    8.500 
#    0.000    0.000    0.000    0.000    0.000    0.875 
#    0.000    0.000    0.000    0.000    0.000    0.000 
#
# Total GULP energy -396927.956778 kJ/mol
# GULP energy per Si atom -12403.998649 kJ/mol
# Density = 1.696881 g / cm^3
# Si number density = 17.007523 Si / 1000 Ang^3
#
#
#
# Elastic Constant Matrix: (Units=GPa)
#
#
# Indices 1 2 3 4 5 6 
#
# 1 130.4417 61.0395 52.2225 0.0000 0.0000 0.0000
# 2 61.0395 145.0636 54.6124 0.0000 0.0000 0.0000
# 3 52.2225 54.6124 73.8118 0.0000 0.0000 0.0000
# 4 0.0000 0.0000 0.0000 15.2398 0.0000 0.0000
# 5 0.0000 0.0000 0.0000 0.0000 22.7379 0.0000
# 6 0.0000 0.0000 0.0000 0.0000 0.0000 35.0219
#
#
#
# Elastic Compliance Matrix: (Units=1/GPa)
#
#
# Indices 1 2 3 4 5 6 
#
# 1 0.011274 -0.002413 -0.006191 0.000000 0.000000 0.000000
# 2 -0.002413 0.010072 -0.005745 0.000000 0.000000 0.000000
# 3 -0.006191 -0.005745 0.022179 0.000000 0.000000 0.000000
# 4 0.000000 0.000000 0.000000 0.065618 0.000000 0.000000
# 5 0.000000 0.000000 0.000000 0.000000 0.043979 0.000000
# 6 0.000000 0.000000 0.000000 0.000000 0.000000 0.028554
#
#
# Mechanical properties :
#
#
# Convention : Reuss Voigt Hill
#
# Bulk Modulus (GPa) = 67.44578 76.11844 71.78211
# Shear Modulus (GPa) = 23.22185 26.69610 24.95897
#
# Velocity S-wave (km/s) = 3.69912 3.96620 3.83499
# Velocity P-wave (km/s) = 7.61493 8.11340 7.86811
#
# Compressibility (1/GPa) = 0.01482672
#
# Stress axis : x y z
#
# Youngs Moduli (GPa) = 88.69912 99.28943 45.08869
#
# Poissons Ratio (x) = 0.23960 0.27915
# Poissons Ratio (y) = 0.21404 0.25901
# Poissons Ratio (z) = 0.54914 0.57037
#
# Static dielectric constant tensor:
#      x y z
#    x 3.395920 0.000000 0.000000 
#    y 0.000000 3.248350 0.000000 
#    z 0.000000 0.000000 2.924080 
# 
# 
# High freq. dielectric constant tensor:
#      x y z
#    x 1.679870 0.000000 0.000000 
#    y 0.000000 1.663390 0.000000 
#    z 0.000000 0.000000 1.617920 
# 
# From -- ./inp_files/4771.got.cif
#   From: 2010.03.12/outbox.cif.g09.slc.cpg/sg69_3_cif.got.tgz:4771.got - 2010.04.10 23:52:46.
