data_PCOD8284163
_publ_section_title
;
Structure prediction by ZEFSAII (Michael W. Deem and Ramdas Pophale) SiO2 
 PCOD8284163
Probable space group: F M M M
;
_chemical_formula_sum "Si O2"
_cell_formula_units_Z 160
_cell_length_a 25.038933
_cell_length_b 20.137480
_cell_length_c 17.568514
_cell_angle_alpha 90.000000
_cell_angle_beta 90.000000
_cell_angle_gamma 90.000000
_cell_volume 8858.413917
_symmetry_space_group_name_H-M "F M M M"
_symmetry_group_IT_number 69
_symmetry_cell_setting 'orthorhombic'
loop_
_space_group_symop_operation_xyz
x,y,z
-x,-y,z
x,-y,-z
-x,y,-z
-x,-y,-z
x,y,-z
-x,y,z
x,-y,z
x,1/2+y,1/2+z
-x,1/2-y,1/2+z
x,1/2-y,1/2-z
-x,1/2+y,1/2-z
-x,1/2-y,1/2-z
x,1/2+y,1/2-z
-x,1/2+y,1/2+z
x,1/2-y,1/2+z
1/2+x,y,1/2+z
1/2-x,-y,1/2+z
1/2+x,-y,1/2-z
1/2-x,y,1/2-z
1/2-x,-y,1/2-z
1/2+x,y,1/2-z
1/2-x,y,1/2+z
1/2+x,-y,1/2+z
1/2+x,1/2+y,z
1/2-x,1/2-y,z
1/2+x,1/2-y,-z
1/2-x,1/2+y,-z
1/2-x,1/2-y,-z
1/2+x,1/2+y,-z
1/2-x,1/2+y,z
1/2+x,1/2-y,z
loop_
_atom_site_type_symbol
_atom_site_label
_atom_site_fract_x
_atom_site_fract_y
_atom_site_fract_z
Si Si1 0.939218 0.701287 0.320246
Si Si2 0.623147 0.073637 0.290233
Si Si3 0.297693 0.106759 0.585016
Si Si4 0.708402 0.638541 0.685951
Si Si5 0.343569 0.750979 0.585454
O O1 0.930270 0.750000 0.250000
O O2 0.924664 0.626574 0.294007
O O3 0.902540 0.725561 0.389677
O O4 0.000000 0.701998 0.348975
O O5 0.654577 0.071480 0.370234
O O6 0.663649 0.092295 0.222933
O O7 0.599656 0.000000 0.274831
O O8 0.296947 0.077624 0.500000
O O9 0.240615 0.093514 0.625061
O O10 0.304349 0.186305 0.585472
O O11 0.750000 0.665156 0.750000
O O12 0.679379 0.699592 0.645696
O O13 0.347059 0.720772 0.500000
#
# Coordination Sequence:
#
# PCOD8284163 Si02
#       5
#    32  32  32  32  32
#     4  10  20  36  58  80 100 131 175 222 271 321
#     4  10  21  35  52  76 108 141 176 218 264 311
#     4   9  19  31  48  75 107 143 181 215 254 309
#     4  10  19  30  50  75 109 146 181 212 255 307
#     4  10  19  32  52  80 109 138 174 222 271 314
#
# _framework density 18.061924000000001
#
# number of rings (size 3 to 8) (size 9 to 14) (size 15 to 20)
#    0.000    2.200    2.000    1.200    0.000   10.400 
#    0.000    0.000    0.000    1.800    0.000    5.600 
#    0.000    3.200    0.000    0.000    0.000    0.000 
#
# Total GULP energy -495931.620985 kJ/mol
# GULP energy per Si atom -12398.290525 kJ/mol
# Density = 1.802081 g / cm^3
# Si number density = 18.061924 Si / 1000 Ang^3
#
#
#
# Elastic Constant Matrix: (Units=GPa)
#
#
# Indices 1 2 3 4 5 6 
#
# 1 73.8642 19.7655 31.5393 0.0000 0.0000 0.0000
# 2 19.7655 99.4756 30.2268 0.0000 0.0000 0.0000
# 3 31.5393 30.2268 108.9340 0.0000 0.0000 0.0000
# 4 0.0000 0.0000 0.0000 7.5942 0.0000 0.0000
# 5 0.0000 0.0000 0.0000 0.0000 18.3299 0.0000
# 6 0.0000 0.0000 0.0000 0.0000 0.0000 9.5323
#
#
#
# Elastic Compliance Matrix: (Units=1/GPa)
#
#
# Indices 1 2 3 4 5 6 
#
# 1 0.015773 -0.001907 -0.004037 0.000000 0.000000 0.000000
# 2 -0.001907 0.011209 -0.002558 0.000000 0.000000 0.000000
# 3 -0.004037 -0.002558 0.011059 0.000000 0.000000 0.000000
# 4 0.000000 0.000000 0.000000 0.131679 0.000000 0.000000
# 5 0.000000 0.000000 0.000000 0.000000 0.054556 0.000000
# 6 0.000000 0.000000 0.000000 0.000000 0.000000 0.104907
#
#
# Mechanical properties :
#
#
# Convention : Reuss Voigt Hill
#
# Bulk Modulus (GPa) = 47.53993 49.48187 48.51090
# Shear Modulus (GPa) = 14.15636 20.47411 17.31524
#
# Velocity S-wave (km/s) = 2.80262 3.37048 3.09958
# Velocity P-wave (km/s) = 6.07047 6.52702 6.30288
#
# Compressibility (1/GPa) = 0.02103495
#
# Stress axis : x y z
#
# Youngs Moduli (GPa) = 63.40102 89.21430 90.42733
#
# Poissons Ratio (x) = 0.17015 0.36509
# Poissons Ratio (y) = 0.12092 0.23132
# Poissons Ratio (z) = 0.25597 0.22822
#
# Static dielectric constant tensor:
#      x y z
#    x 3.247240 0.000000 0.000000 
#    y 0.000000 3.127960 0.000000 
#    z 0.000000 0.000000 3.522890 
# 
# 
# High freq. dielectric constant tensor:
#      x y z
#    x 1.683340 0.000000 0.000000 
#    y 0.000000 1.683840 0.000000 
#    z 0.000000 0.000000 1.704420 
# 
# From -- ./inp_files/23096.got.cif
#   From: 2010.03.12/outbox.cif.g09.slc.cpg/sg69_12_cif.got.tgz:23096.got - 2010.04.10 23:52:46.
