data_PCOD8284857
_publ_section_title
;
Structure prediction by ZEFSAII (Michael W. Deem and Ramdas Pophale) SiO2 
 PCOD8284857
Probable space group: F M M M
;
_chemical_formula_sum "Si O2"
_cell_formula_units_Z 192
_cell_length_a 25.308535
_cell_length_b 16.727997
_cell_length_c 23.734044
_cell_angle_alpha 90.000000
_cell_angle_beta 90.000000
_cell_angle_gamma 90.000000
_cell_volume 10048.070917
_symmetry_space_group_name_H-M "F M M M"
_symmetry_group_IT_number 69
_symmetry_cell_setting 'orthorhombic'
loop_
_space_group_symop_operation_xyz
x,y,z
-x,-y,z
x,-y,-z
-x,y,-z
-x,-y,-z
x,y,-z
-x,y,z
x,-y,z
x,1/2+y,1/2+z
-x,1/2-y,1/2+z
x,1/2-y,1/2-z
-x,1/2+y,1/2-z
-x,1/2-y,1/2-z
x,1/2+y,1/2-z
-x,1/2+y,1/2+z
x,1/2-y,1/2+z
1/2+x,y,1/2+z
1/2-x,-y,1/2+z
1/2+x,-y,1/2-z
1/2-x,y,1/2-z
1/2-x,-y,1/2-z
1/2+x,y,1/2-z
1/2-x,y,1/2+z
1/2+x,-y,1/2+z
1/2+x,1/2+y,z
1/2-x,1/2-y,z
1/2+x,1/2-y,-z
1/2-x,1/2+y,-z
1/2-x,1/2-y,-z
1/2+x,1/2+y,-z
1/2-x,1/2+y,z
1/2+x,1/2-y,z
loop_
_atom_site_type_symbol
_atom_site_label
_atom_site_fract_x
_atom_site_fract_y
_atom_site_fract_z
Si Si1 0.062541 0.000000 0.938352
Si Si2 0.363002 0.779122 0.933867
Si Si3 0.942704 0.656499 0.751442
Si Si4 0.936633 0.346028 0.627201
Si Si5 0.758261 0.410796 0.184766
Si Si6 0.623343 0.412446 0.648195
Si Si7 0.250000 0.250000 0.383677
O O1 0.082582 0.078189 0.907543
O O2 0.000000 0.000000 0.941402
O O3 0.088229 0.000000 0.000000
O O4 0.404175 0.726436 0.898764
O O5 0.375471 0.868238 0.911935
O O6 0.301738 0.759032 0.922364
O O7 0.374848 0.772674 0.000000
O O8 0.949821 0.750000 0.750000
O O9 0.918059 0.633246 0.690853
O O10 0.908943 0.633708 0.804716
O O11 0.000000 0.614920 0.757687
O O12 0.000000 0.328743 0.624206
O O13 0.733343 0.500000 0.168625
O O14 0.750000 0.392638 0.250000
O O15 0.819477 0.418489 0.174088
O O16 0.737678 0.331643 0.151652
O O17 0.599000 0.500000 0.637584
#
# Coordination Sequence:
#
# PCOD8284857 Si02
#       7
#    16  32  32  32  32  32  16
#     4   9  18  34  54  80 116 149 185 233 284 345
#     4  11  23  40  61  82 113 156 202 249 295 352
#     4  10  20  35  55  83 117 146 181 232 287 348
#     4  10  21  37  59  86 114 152 194 237 295 352
#     4   9  19  35  56  84 115 148 188 238 294 356
#     4  10  22  37  57  85 115 150 192 236 289 350
#     4  10  22  38  58  84 116 155 199 246 304 356
#
# _framework density 19.108146000000001
#
# number of rings (size 3 to 8) (size 9 to 14) (size 15 to 20)
#    0.000    2.083    1.667    1.000    3.500    1.667 
#    1.500    0.000    0.000    1.000    0.000    2.333 
#    0.000    0.000    0.000    0.000    0.000    0.000 
#
# Total GULP energy -594668.183081 kJ/mol
# GULP energy per Si atom -12388.920481 kJ/mol
# Density = 1.906466 g / cm^3
# Si number density = 19.108146 Si / 1000 Ang^3
#
#
#
# Elastic Constant Matrix: (Units=GPa)
#
#
# Indices 1 2 3 4 5 6 
#
# 1 44.6784 24.4316 26.2649 0.0000 0.0000 0.0000
# 2 24.4316 107.5381 31.9358 0.0000 0.0000 0.0000
# 3 26.2649 31.9358 107.2903 0.0000 0.0000 0.0000
# 4 0.0000 0.0000 0.0000 30.1561 0.0000 0.0000
# 5 0.0000 0.0000 0.0000 0.0000 22.9501 0.0000
# 6 0.0000 0.0000 0.0000 0.0000 0.0000 25.8085
#
#
#
# Elastic Compliance Matrix: (Units=1/GPa)
#
#
# Indices 1 2 3 4 5 6 
#
# 1 0.028222 -0.004783 -0.005485 0.000000 0.000000 0.000000
# 2 -0.004783 0.011011 -0.002107 0.000000 0.000000 0.000000
# 3 -0.005485 -0.002107 0.011290 0.000000 0.000000 0.000000
# 4 0.000000 0.000000 0.000000 0.033161 0.000000 0.000000
# 5 0.000000 0.000000 0.000000 0.000000 0.043573 0.000000
# 6 0.000000 0.000000 0.000000 0.000000 0.000000 0.038747
#
#
# Mechanical properties :
#
#
# Convention : Reuss Voigt Hill
#
# Bulk Modulus (GPa) = 38.79838 47.19680 42.99759
# Shear Modulus (GPa) = 25.08211 27.57458 26.32835
#
# Velocity S-wave (km/s) = 3.62697 3.80291 3.71598
# Velocity P-wave (km/s) = 6.15537 6.63598 6.40019
#
# Compressibility (1/GPa) = 0.02577427
#
# Stress axis : x y z
#
# Youngs Moduli (GPa) = 35.43314 90.81586 88.57093
#
# Poissons Ratio (x) = 0.43436 0.48583
# Poissons Ratio (y) = 0.16947 0.18660
# Poissons Ratio (z) = 0.19436 0.19133
#
# Static dielectric constant tensor:
#      x y z
#    x 3.387520 0.000000 0.000000 
#    y 0.000000 4.104250 0.000000 
#    z 0.000000 0.000000 3.012600 
# 
# 
# High freq. dielectric constant tensor:
#      x y z
#    x 1.729320 0.000000 0.000000 
#    y 0.000000 1.756000 0.000000 
#    z 0.000000 0.000000 1.741880 
# 
# From -- ./inp_files/36082.got.cif
#   From: 2010.03.12/outbox.cif.g09.slc.cpg/sg69_19_cif.got.tgz:36082.got - 2010.04.10 23:52:46.
