data_PCOD8284850
_publ_section_title
;
Structure prediction by ZEFSAII (Michael W. Deem and Ramdas Pophale) SiO2 
 PCOD8284850
Probable space group: F M M M
;
_chemical_formula_sum "Si O2"
_cell_formula_units_Z 144
_cell_length_a 26.664240
_cell_length_b 26.278893
_cell_length_c 10.116335
_cell_angle_alpha 90.000000
_cell_angle_beta 90.000000
_cell_angle_gamma 90.000000
_cell_volume 7088.583814
_symmetry_space_group_name_H-M "F M M M"
_symmetry_group_IT_number 69
_symmetry_cell_setting 'orthorhombic'
loop_
_space_group_symop_operation_xyz
x,y,z
-x,-y,z
x,-y,-z
-x,y,-z
-x,-y,-z
x,y,-z
-x,y,z
x,-y,z
x,1/2+y,1/2+z
-x,1/2-y,1/2+z
x,1/2-y,1/2-z
-x,1/2+y,1/2-z
-x,1/2-y,1/2-z
x,1/2+y,1/2-z
-x,1/2+y,1/2+z
x,1/2-y,1/2+z
1/2+x,y,1/2+z
1/2-x,-y,1/2+z
1/2+x,-y,1/2-z
1/2-x,y,1/2-z
1/2-x,-y,1/2-z
1/2+x,y,1/2-z
1/2-x,y,1/2+z
1/2+x,-y,1/2+z
1/2+x,1/2+y,z
1/2-x,1/2-y,z
1/2+x,1/2-y,-z
1/2-x,1/2+y,-z
1/2-x,1/2-y,-z
1/2+x,1/2+y,-z
1/2-x,1/2+y,z
1/2+x,1/2-y,z
loop_
_atom_site_type_symbol
_atom_site_label
_atom_site_fract_x
_atom_site_fract_y
_atom_site_fract_z
Si Si1 0.294679 0.099762 0.848234
Si Si2 0.100834 0.058240 0.725478
Si Si3 0.056080 0.440348 0.500000
Si Si4 0.553978 0.156208 0.147855
Si Si5 0.845979 0.705861 0.846459
O O1 0.250000 0.085504 0.750000
O O2 0.340707 0.063957 0.806413
O O3 0.308157 0.158982 0.833329
O O4 0.279518 0.087860 0.000000
O O5 0.088677 0.076512 0.874441
O O6 0.068187 0.096381 0.636686
O O7 0.084363 0.000000 0.698965
O O8 0.048903 0.500000 0.500000
O O9 0.000000 0.415391 0.500000
O O10 0.500000 0.163945 0.221711
O O11 0.599401 0.188609 0.211029
O O12 0.548011 0.176117 0.000000
O O13 0.825941 0.750000 0.750000
O O14 0.848303 0.723790 0.000000
#
# Coordination Sequence:
#
# PCOD8284850 Si02
#       5
#    32  32  16  32  32
#     4  10  23  40  59  84 115 149 192 245 295 344
#     4  10  20  35  55  79 113 152 193 236 283 336
#     4   9  18  32  52  80 114 151 190 236 285 334
#     4   9  18  33  53  78 111 147 183 229 283 337
#     4   9  19  37  57  81 111 143 182 232 284 341
#
# _framework density 20.314354000000002
#
# number of rings (size 3 to 8) (size 9 to 14) (size 15 to 20)
#    0.000    2.556    0.000    2.667    1.556    5.333 
#    6.000    3.333    0.000    0.000    0.000    0.000 
#    0.000    0.000    0.000    0.000    0.000    0.000 
#
# Total GULP energy -446107.444283 kJ/mol
# GULP energy per Si atom -12391.873452 kJ/mol
# Density = 2.026812 g / cm^3
# Si number density = 20.314354 Si / 1000 Ang^3
#
#
#
# Elastic Constant Matrix: (Units=GPa)
#
#
# Indices 1 2 3 4 5 6 
#
# 1 84.6573 -18.3074 34.9869 0.0010 -0.0006 -0.0003
# 2 -18.3074 46.9662 13.4280 0.0028 -0.0025 -0.0017
# 3 34.9869 13.4280 97.0925 0.0015 -0.0028 -0.0021
# 4 0.0010 0.0028 0.0015 24.1330 -0.0025 -0.0020
# 5 -0.0006 -0.0025 -0.0028 -0.0025 29.7409 0.0012
# 6 -0.0003 -0.0017 -0.0021 -0.0020 0.0012 5.8976
#
#
#
# Elastic Compliance Matrix: (Units=1/GPa)
#
#
# Indices 1 2 3 4 5 6 
#
# 1 0.016619 0.008527 -0.007168 -0.000001 0.000000 0.000001
# 2 0.008527 0.026544 -0.006744 -0.000003 0.000002 0.000006
# 3 -0.007168 -0.006744 0.013815 0.000000 0.000001 0.000003
# 4 -0.000001 -0.000003 0.000000 0.041437 0.000003 0.000014
# 5 0.000000 0.000002 0.000001 0.000003 0.033624 -0.000007
# 6 0.000001 0.000006 0.000003 0.000014 -0.000007 0.169562
#
#
# Mechanical properties :
#
#
# Convention : Reuss Voigt Hill
#
# Bulk Modulus (GPa) = 21.64084 32.10346 26.87215
# Shear Modulus (GPa) = 15.25452 25.19486 20.22469
#
# Velocity S-wave (km/s) = 2.74327 3.52554 3.15871
# Velocity P-wave (km/s) = 4.55084 5.69300 5.15366
#
# Compressibility (1/GPa) = 0.04620892
#
# Stress axis : x y z
#
# Youngs Moduli (GPa) = 60.17325 37.67339 72.38492
#
# Poissons Ratio (x) = -0.32125 0.51884
# Poissons Ratio (y) = -0.51311 0.48815
# Poissons Ratio (z) = 0.43131 0.25406
#
# Static dielectric constant tensor:
#      x y z
#    x 3.917520 0.000000 0.000000 
#    y 0.000000 3.396580 0.000000 
#    z 0.000000 0.000000 3.768830 
# 
# 
# High freq. dielectric constant tensor:
#      x y z
#    x 1.793920 0.000000 0.000000 
#    y 0.000000 1.772630 0.000000 
#    z 0.000000 0.000000 1.783610 
# 
# From -- ./inp_files/10343.got.cif
#   From: 2010.03.12/outbox.cif.g09.slc.cpg/sg69_6_cif.got.tgz:10343.got - 2010.04.10 23:52:46.
