data_PCOD8284591
_publ_section_title
;
Structure prediction by ZEFSAII (Michael W. Deem and Ramdas Pophale) SiO2 
 PCOD8284591
Probable space group: F M M M
;
_chemical_formula_sum "Si O2"
_cell_formula_units_Z 168
_cell_length_a 33.991112
_cell_length_b 21.356901
_cell_length_c 14.401469
_cell_angle_alpha 90.000000
_cell_angle_beta 90.000000
_cell_angle_gamma 90.000000
_cell_volume 10454.671733
_symmetry_space_group_name_H-M "F M M M"
_symmetry_group_IT_number 69
_symmetry_cell_setting 'orthorhombic'
loop_
_space_group_symop_operation_xyz
x,y,z
-x,-y,z
x,-y,-z
-x,y,-z
-x,-y,-z
x,y,-z
-x,y,z
x,-y,z
x,1/2+y,1/2+z
-x,1/2-y,1/2+z
x,1/2-y,1/2-z
-x,1/2+y,1/2-z
-x,1/2-y,1/2-z
x,1/2+y,1/2-z
-x,1/2+y,1/2+z
x,1/2-y,1/2+z
1/2+x,y,1/2+z
1/2-x,-y,1/2+z
1/2+x,-y,1/2-z
1/2-x,y,1/2-z
1/2-x,-y,1/2-z
1/2+x,y,1/2-z
1/2-x,y,1/2+z
1/2+x,-y,1/2+z
1/2+x,1/2+y,z
1/2-x,1/2-y,z
1/2+x,1/2-y,-z
1/2-x,1/2+y,-z
1/2-x,1/2-y,-z
1/2+x,1/2+y,-z
1/2-x,1/2+y,z
1/2+x,1/2-y,z
loop_
_atom_site_type_symbol
_atom_site_label
_atom_site_fract_x
_atom_site_fract_y
_atom_site_fract_z
Si Si1 0.652135 0.927131 0.398169
Si Si2 0.250000 0.750000 0.750000
Si Si3 0.694628 0.928568 0.108313
Si Si4 0.382568 0.073836 0.788305
Si Si5 0.456746 0.925503 0.104916
Si Si6 0.270734 0.151985 0.393003
O O1 0.635082 0.909746 0.500000
O O2 0.619961 0.908198 0.320779
O O3 0.692999 0.893705 0.378744
O O4 0.662107 0.000000 0.391077
O O5 0.276593 0.791326 0.679719
O O6 0.656327 0.900789 0.160069
O O7 0.731365 0.885286 0.134857
O O8 0.703690 0.000000 0.139276
O O9 0.685459 0.925853 0.000000
O O10 0.422614 0.103771 0.829752
O O11 0.384262 0.000000 0.804224
O O12 0.500000 0.901631 0.137605
O O13 0.456098 0.000000 0.109450
O O14 0.448550 0.903146 0.000000
O O15 0.268733 0.176054 0.500000
#
# Coordination Sequence:
#
# PCOD8284591 Si02
#       6
#    32   8  32  32  32  32
#     4   9  17  29  44  60  78 102 135 174 210 239
#     4  12  22  32  42  54  76 108 144 174 196 234
#     4   9  16  26  42  63  83 101 127 168 212 246
#     4   9  15  22  35  56  79 102 130 165 201 235
#     4   8  13  21  33  50  75 107 137 160 186 228
#     4  10  20  32  44  58  78 107 139 169 203 241
#
# _framework density 16.069371
#
# number of rings (size 3 to 8) (size 9 to 14) (size 15 to 20)
#    0.000    2.857    0.000    3.143    0.000    4.571 
#    0.000    3.810    0.000    0.571    0.000    4.000 
#    0.000    0.000    0.000   13.714    0.000   86.095 
#
# Total GULP energy -520491.592214 kJ/mol
# GULP energy per Si atom -12392.656957 kJ/mol
# Density = 1.603280 g / cm^3
# Si number density = 16.069371 Si / 1000 Ang^3
#
#
#
# Elastic Constant Matrix: (Units=GPa)
#
#
# Indices 1 2 3 4 5 6 
#
# 1 118.7121 20.8549 78.2563 0.0000 0.0000 0.0000
# 2 20.8549 30.5099 31.1036 0.0000 0.0000 0.0000
# 3 78.2563 31.1036 116.2607 0.0000 0.0000 0.0000
# 4 0.0000 0.0000 0.0000 21.7798 0.0000 0.0000
# 5 0.0000 0.0000 0.0000 0.0000 26.4027 0.0000
# 6 0.0000 0.0000 0.0000 0.0000 0.0000 0.4190
#
#
#
# Elastic Compliance Matrix: (Units=1/GPa)
#
#
# Indices 1 2 3 4 5 6 
#
# 1 0.015143 0.000055 -0.010208 0.000000 0.000000 0.000000
# 2 0.000055 0.045068 -0.012095 0.000000 0.000000 0.000000
# 3 -0.010208 -0.012095 0.018708 0.000000 0.000000 0.000000
# 4 0.000000 0.000000 0.000000 0.045914 0.000000 0.000000
# 5 0.000000 0.000000 0.000000 0.000000 0.037875 0.000000
# 6 0.000000 0.000000 0.000000 0.000000 0.000000 2.386589
#
#
# Mechanical properties :
#
#
# Convention : Reuss Voigt Hill
#
# Bulk Modulus (GPa) = 29.04820 58.43469 43.74144
# Shear Modulus (GPa) = 1.91919 18.73815 10.32867
#
# Velocity S-wave (km/s) = 1.09403 3.41849 2.53801
# Velocity P-wave (km/s) = 4.43980 7.21280 5.98900
#
# Compressibility (1/GPa) = 0.03442554
#
# Stress axis : x y z
#
# Youngs Moduli (GPa) = 66.03664 22.18853 53.45293
#
# Poissons Ratio (x) = -0.00123 0.54564
# Poissons Ratio (y) = -0.00366 0.64649
# Poissons Ratio (z) = 0.67409 0.26836
#
# Static dielectric constant tensor:
#      x y z
#    x 3.149600 0.000000 0.000000 
#    y 0.000000 2.634720 0.000000 
#    z 0.000000 0.000000 3.385670 
# 
# 
# High freq. dielectric constant tensor:
#      x y z
#    x 1.597650 0.000000 0.000000 
#    y 0.000000 1.558460 0.000000 
#    z 0.000000 0.000000 1.635100 
# 
# From -- ./inp_files/19733.got.cif
#   From: 2010.03.12/outbox.cif.g09.slc.cpg/sg69_10_cif.got.tgz:19733.got - 2010.04.10 23:52:46.
