data_PCOD8284289
_publ_section_title
;
Structure prediction by ZEFSAII (Michael W. Deem and Ramdas Pophale) SiO2 
 PCOD8284289
Probable space group: F M M M
;
_chemical_formula_sum "Si O2"
_cell_formula_units_Z 112
_cell_length_a 21.180503
_cell_length_b 13.491845
_cell_length_c 20.295565
_cell_angle_alpha 90.000000
_cell_angle_beta 90.000000
_cell_angle_gamma 90.000000
_cell_volume 5799.743125
_symmetry_space_group_name_H-M "F M M M"
_symmetry_group_IT_number 69
_symmetry_cell_setting 'orthorhombic'
loop_
_space_group_symop_operation_xyz
x,y,z
-x,-y,z
x,-y,-z
-x,y,-z
-x,-y,-z
x,y,-z
-x,y,z
x,-y,z
x,1/2+y,1/2+z
-x,1/2-y,1/2+z
x,1/2-y,1/2-z
-x,1/2+y,1/2-z
-x,1/2-y,1/2-z
x,1/2+y,1/2-z
-x,1/2+y,1/2+z
x,1/2-y,1/2+z
1/2+x,y,1/2+z
1/2-x,-y,1/2+z
1/2+x,-y,1/2-z
1/2-x,y,1/2-z
1/2-x,-y,1/2-z
1/2+x,y,1/2-z
1/2-x,y,1/2+z
1/2+x,-y,1/2+z
1/2+x,1/2+y,z
1/2-x,1/2-y,z
1/2+x,1/2-y,-z
1/2-x,1/2+y,-z
1/2-x,1/2-y,-z
1/2+x,1/2+y,-z
1/2-x,1/2+y,z
1/2+x,1/2-y,z
loop_
_atom_site_type_symbol
_atom_site_label
_atom_site_fract_x
_atom_site_fract_y
_atom_site_fract_z
Si Si1 0.790700 0.611380 0.684356
Si Si2 0.695048 0.617556 0.427212
Si Si3 0.069555 0.385737 0.141618
Si Si4 0.613473 0.750000 0.250000
O O1 0.815949 0.500000 0.668835
O O2 0.750000 0.608020 0.750000
O O3 0.748100 0.653583 0.624382
O O4 0.846507 0.688758 0.695855
O O5 0.710017 0.660468 0.500000
O O6 0.695644 0.500000 0.428482
O O7 0.624595 0.653063 0.406755
O O8 0.081851 0.500000 0.159961
O O9 0.070443 0.326234 0.210047
O O10 0.000000 0.371836 0.108918
#
# Coordination Sequence:
#
# PCOD8284289 Si02
#       4
#    32  32  32  16
#     4  10  19  32  52  76 103 134 167 205 253 305
#     4   9  18  33  52  75 102 133 169 207 251 304
#     4  10  21  35  51  73 101 134 173 212 250 296
#     4  12  20  32  52  78 101 137 166 210 250 305
#
# _framework density 19.311199999999999
#
# number of rings (size 3 to 8) (size 9 to 14) (size 15 to 20)
#    0.000    2.000    2.857    1.714    0.000    0.571 
#    0.000    5.714    0.000    0.000    0.000    0.000 
#    0.000    0.000    0.000   25.714    0.000    0.571 
#
# Total GULP energy -347056.301685 kJ/mol
# GULP energy per Si atom -12394.867917 kJ/mol
# Density = 1.926725 g / cm^3
# Si number density = 19.311200 Si / 1000 Ang^3
#
#
#
# Elastic Constant Matrix: (Units=GPa)
#
#
# Indices 1 2 3 4 5 6 
#
# 1 84.3147 22.3876 36.2448 0.0000 0.0000 0.0000
# 2 22.3876 60.1964 16.5932 0.0000 0.0000 0.0000
# 3 36.2448 16.5932 128.8169 0.0000 0.0000 0.0000
# 4 0.0000 0.0000 0.0000 -3.7338 0.0000 0.0000
# 5 0.0000 0.0000 0.0000 0.0000 18.8604 0.0000
# 6 0.0000 0.0000 0.0000 0.0000 0.0000 -18.0793
#
#
#
# Elastic Compliance Matrix: (Units=1/GPa)
#
#
# Indices 1 2 3 4 5 6 
#
# 1 0.014554 -0.004442 -0.003523 0.000000 0.000000 0.000000
# 2 -0.004442 0.018579 -0.001144 0.000000 0.000000 0.000000
# 3 -0.003523 -0.001144 0.008901 0.000000 0.000000 0.000000
# 4 0.000000 0.000000 0.000000 -0.267820 0.000000 0.000000
# 5 0.000000 0.000000 0.000000 0.000000 0.053021 0.000000
# 6 0.000000 0.000000 0.000000 0.000000 0.000000 -0.055312
#
#
# Mechanical properties :
#
#
# Convention : Reuss Voigt Hill
#
# Bulk Modulus (GPa) = 41.98369 47.08658 44.53513
# Shear Modulus (GPa) = -24.76225 12.61628 -6.07299
#
# Velocity S-wave (km/s) = -3.58477 2.55877 -1.77528
# Velocity P-wave (km/s) = 2.15724 5.75897 4.34853
#
# Compressibility (1/GPa) = 0.02381878
#
# Stress axis : x y z
#
# Youngs Moduli (GPa) = 68.70904 53.82300 112.34086
#
# Poissons Ratio (x) = 0.23907 0.39577
# Poissons Ratio (y) = 0.30519 0.12846
# Poissons Ratio (z) = 0.24206 0.06155
#
# Static dielectric constant tensor:
#      x y z
#    x 3.454800 0.000000 0.000000 
#    y 0.000000 3.686370 0.000000 
#    z 0.000000 0.000000 3.732880 
# 
# 
# High freq. dielectric constant tensor:
#      x y z
#    x 1.733970 0.000000 0.000000 
#    y 0.000000 1.753700 0.000000 
#    z 0.000000 0.000000 1.734480 
# 
# From -- ./inp_files/17377.got.cif
#   From: 2010.03.12/outbox.cif.g09.slc.cpg/sg69_9_cif.got.tgz:17377.got - 2010.04.10 23:52:46.
