data_PCOD8284942
_publ_section_title
;
Structure prediction by ZEFSAII (Michael W. Deem and Ramdas Pophale) SiO2 
 PCOD8284942
Probable space group: F M M M
;
_chemical_formula_sum "Si O2"
_cell_formula_units_Z 192
_cell_length_a 30.716330
_cell_length_b 18.212210
_cell_length_c 18.164888
_cell_angle_alpha 90.000000
_cell_angle_beta 90.000000
_cell_angle_gamma 90.000000
_cell_volume 10161.660910
_symmetry_space_group_name_H-M "F M M M"
_symmetry_group_IT_number 69
_symmetry_cell_setting 'orthorhombic'
loop_
_space_group_symop_operation_xyz
x,y,z
-x,-y,z
x,-y,-z
-x,y,-z
-x,-y,-z
x,y,-z
-x,y,z
x,-y,z
x,1/2+y,1/2+z
-x,1/2-y,1/2+z
x,1/2-y,1/2-z
-x,1/2+y,1/2-z
-x,1/2-y,1/2-z
x,1/2+y,1/2-z
-x,1/2+y,1/2+z
x,1/2-y,1/2+z
1/2+x,y,1/2+z
1/2-x,-y,1/2+z
1/2+x,-y,1/2-z
1/2-x,y,1/2-z
1/2-x,-y,1/2-z
1/2+x,y,1/2-z
1/2-x,y,1/2+z
1/2+x,-y,1/2+z
1/2+x,1/2+y,z
1/2-x,1/2-y,z
1/2+x,1/2-y,-z
1/2-x,1/2+y,-z
1/2-x,1/2-y,-z
1/2+x,1/2+y,-z
1/2-x,1/2+y,z
1/2+x,1/2-y,z
loop_
_atom_site_type_symbol
_atom_site_label
_atom_site_fract_x
_atom_site_fract_y
_atom_site_fract_z
Si Si1 0.500000 0.333710 0.586883
Si Si2 0.922351 0.083288 0.815769
Si Si3 0.159606 0.914961 0.915144
Si Si4 0.754783 0.332018 0.587739
Si Si5 0.083441 0.916642 0.645752
Si Si6 0.327266 0.418201 0.586722
Si Si7 0.500000 0.803066 0.321703
O O1 0.500000 0.346065 0.500000
O O2 0.542088 0.369359 0.623681
O O3 0.500000 0.247560 0.605771
O O4 0.882309 0.105958 0.867446
O O5 0.907240 0.085976 0.731978
O O6 0.958962 0.143853 0.826655
O O7 0.938589 0.000000 0.834989
O O8 0.200315 0.868114 0.884691
O O9 0.172144 0.000000 0.906348
O O10 0.149205 0.895799 0.000000
O O11 0.753879 0.334341 0.500000
O O12 0.750000 0.250000 0.618069
O O13 0.713276 0.374651 0.621155
O O14 0.126346 0.882115 0.607637
O O15 0.075077 0.000000 0.618555
O O16 0.322458 0.419559 0.500000
O O17 0.326019 0.500000 0.620158
O O18 0.500000 0.750000 0.250000
#
# Coordination Sequence:
#
# PCOD8284942 Si02
#       7
#    16  32  32  32  32  32  16
#     4  12  25  38  57  86 117 151 189 231 281 338
#     4  10  21  39  63  84 108 149 194 232 283 344
#     4   9  18  34  57  83 109 142 191 245 287 330
#     4   9  17  30  49  76 108 144 184 231 288 342
#     4  10  20  36  57  83 113 149 189 231 282 344
#     4   9  17  30  50  75 105 141 181 226 277 333
#     4  12  23  41  59  81 115 154 182 225 281 343
#
# _framework density 18.894549000000001
#
# number of rings (size 3 to 8) (size 9 to 14) (size 15 to 20)
#    0.000    2.167    1.667    1.500    0.000    6.667 
#    0.000    2.500    0.000    7.500    0.000    0.000 
#    0.000    0.000    0.000    0.000    0.000    0.000 
#
# Total GULP energy -595124.825252 kJ/mol
# GULP energy per Si atom -12398.433859 kJ/mol
# Density = 1.885154 g / cm^3
# Si number density = 18.894549 Si / 1000 Ang^3
#
#
#
# Elastic Constant Matrix: (Units=GPa)
#
#
# Indices 1 2 3 4 5 6 
#
# 1 182.0451 94.7573 42.1987 0.0000 0.0000 0.0000
# 2 94.7573 116.4058 30.0555 0.0000 0.0000 0.0000
# 3 42.1987 30.0555 55.4564 0.0000 0.0000 0.0000
# 4 0.0000 0.0000 0.0000 21.6742 0.0000 0.0000
# 5 0.0000 0.0000 0.0000 0.0000 15.3243 0.0000
# 6 0.0000 0.0000 0.0000 0.0000 0.0000 1.9410
#
#
#
# Elastic Compliance Matrix: (Units=1/GPa)
#
#
# Indices 1 2 3 4 5 6 
#
# 1 0.010171 -0.007303 -0.003781 0.000000 0.000000 0.000000
# 2 -0.007303 0.015232 -0.002698 0.000000 0.000000 0.000000
# 3 -0.003781 -0.002698 0.022372 0.000000 0.000000 0.000000
# 4 0.000000 0.000000 0.000000 0.046138 0.000000 0.000000
# 5 0.000000 0.000000 0.000000 0.000000 0.065256 0.000000
# 6 0.000000 0.000000 0.000000 0.000000 0.000000 0.515207
#
#
# Mechanical properties :
#
#
# Convention : Reuss Voigt Hill
#
# Bulk Modulus (GPa) = 49.48113 76.43670 62.95891
# Shear Modulus (GPa) = 7.05538 20.24761 13.65150
#
# Velocity S-wave (km/s) = 1.93447 3.27710 2.69087
# Velocity P-wave (km/s) = 5.58878 7.40684 6.56109
#
# Compressibility (1/GPa) = 0.02020973
#
# Stress axis : x y z
#
# Youngs Moduli (GPa) = 98.31748 65.65011 44.69890
#
# Poissons Ratio (x) = 0.47946 0.16903
# Poissons Ratio (y) = 0.71803 0.12060
# Poissons Ratio (z) = 0.37178 0.17713
#
# Static dielectric constant tensor:
#      x y z
#    x 3.601200 0.000000 0.000000 
#    y 0.000000 3.655510 0.000000 
#    z 0.000000 0.000000 3.264300 
# 
# 
# High freq. dielectric constant tensor:
#      x y z
#    x 1.746590 0.000000 0.000000 
#    y 0.000000 1.734160 0.000000 
#    z 0.000000 0.000000 1.708770 
# 
# From -- ./inp_files/27766.got.cif
#   From: 2010.03.12/outbox.cif.g09.slc.cpg/sg69_14_cif.got.tgz:27766.got - 2010.04.10 23:52:46.
