data_PCOD8284531
_publ_section_title
;
Structure prediction by ZEFSAII (Michael W. Deem and Ramdas Pophale) SiO2 
 PCOD8284531
Probable space group: F M M M
;
_chemical_formula_sum "Si O2"
_cell_formula_units_Z 128
_cell_length_a 14.605351
_cell_length_b 17.554295
_cell_length_c 26.873215
_cell_angle_alpha 90.000000
_cell_angle_beta 90.000000
_cell_angle_gamma 90.000000
_cell_volume 6889.933301
_symmetry_space_group_name_H-M "F M M M"
_symmetry_group_IT_number 69
_symmetry_cell_setting 'orthorhombic'
loop_
_space_group_symop_operation_xyz
x,y,z
-x,-y,z
x,-y,-z
-x,y,-z
-x,-y,-z
x,y,-z
-x,y,z
x,-y,z
x,1/2+y,1/2+z
-x,1/2-y,1/2+z
x,1/2-y,1/2-z
-x,1/2+y,1/2-z
-x,1/2-y,1/2-z
x,1/2+y,1/2-z
-x,1/2+y,1/2+z
x,1/2-y,1/2+z
1/2+x,y,1/2+z
1/2-x,-y,1/2+z
1/2+x,-y,1/2-z
1/2-x,y,1/2-z
1/2-x,-y,1/2-z
1/2+x,y,1/2-z
1/2-x,y,1/2+z
1/2+x,-y,1/2+z
1/2+x,1/2+y,z
1/2-x,1/2-y,z
1/2+x,1/2-y,-z
1/2-x,1/2+y,-z
1/2-x,1/2-y,-z
1/2+x,1/2+y,-z
1/2-x,1/2+y,z
1/2+x,1/2-y,z
loop_
_atom_site_type_symbol
_atom_site_label
_atom_site_fract_x
_atom_site_fract_y
_atom_site_fract_z
Si Si1 0.812784 0.315800 0.893544
Si Si2 0.500000 0.877063 0.441597
Si Si3 0.000000 0.197743 0.443342
Si Si4 0.894128 0.771324 0.805390
Si Si5 0.845681 0.085715 0.133403
O O1 0.750000 0.250000 0.920825
O O2 0.835232 0.284016 0.839237
O O3 0.754887 0.392685 0.886924
O O4 0.906329 0.336925 0.921590
O O5 0.500000 0.899344 0.500000
O O6 0.500000 0.787119 0.433197
O O7 0.411264 0.910369 0.414601
O O8 0.000000 0.174905 0.500000
O O9 0.862662 0.750000 0.750000
O O10 0.877002 0.859336 0.821316
O O11 0.000000 0.751920 0.813198
O O12 0.844432 0.000000 0.154521
#
# Coordination Sequence:
#
# PCOD8284531 Si02
#       5
#    32  16  16  32  32
#     4  10  19  36  55  83 112 149 191 237 281 334
#     4  11  21  36  59  88 118 148 189 245 293 332
#     4  11  20  35  59  86 114 149 198 243 279 328
#     4  10  19  36  61  84 108 148 189 237 288 338
#     4  11  22  37  58  86 120 153 187 232 290 349
#
# _framework density 18.577828
#
# number of rings (size 3 to 8) (size 9 to 14) (size 15 to 20)
#    0.000    1.500    7.500    0.375    0.000    7.000 
#    0.000    3.125    0.000    2.250    0.000    0.000 
#    0.000    0.000    0.000    0.000    0.000    0.000 
#
# Total GULP energy -396680.604154 kJ/mol
# GULP energy per Si atom -12396.268880 kJ/mol
# Density = 1.853554 g / cm^3
# Si number density = 18.577828 Si / 1000 Ang^3
#
#
#
# Elastic Constant Matrix: (Units=GPa)
#
#
# Indices 1 2 3 4 5 6 
#
# 1 143.3702 36.5842 51.9499 0.0000 0.0000 0.0000
# 2 36.5842 99.1644 50.1653 0.0000 0.0000 0.0000
# 3 51.9499 50.1653 109.1710 0.0000 0.0000 0.0000
# 4 0.0000 0.0000 0.0000 17.7806 0.0000 0.0000
# 5 0.0000 0.0000 0.0000 0.0000 7.7126 0.0000
# 6 0.0000 0.0000 0.0000 0.0000 0.0000 8.2066
#
#
#
# Elastic Compliance Matrix: (Units=1/GPa)
#
#
# Indices 1 2 3 4 5 6 
#
# 1 0.008582 -0.001433 -0.003425 0.000000 0.000000 0.000000
# 2 -0.001433 0.013378 -0.005465 0.000000 0.000000 0.000000
# 3 -0.003425 -0.005465 0.013301 0.000000 0.000000 0.000000
# 4 0.000000 0.000000 0.000000 0.056241 0.000000 0.000000
# 5 0.000000 0.000000 0.000000 0.000000 0.129658 0.000000
# 6 0.000000 0.000000 0.000000 0.000000 0.000000 0.121854
#
#
# Mechanical properties :
#
#
# Convention : Reuss Voigt Hill
#
# Bulk Modulus (GPa) = 68.42999 69.90048 69.16523
# Shear Modulus (GPa) = 13.56733 20.94036 17.25385
#
# Velocity S-wave (km/s) = 2.70533 3.36098 3.05082
# Velocity P-wave (km/s) = 6.83174 7.26423 7.05130
#
# Compressibility (1/GPa) = 0.01461348
#
# Stress axis : x y z
#
# Youngs Moduli (GPa) = 116.52608 74.75081 75.18188
#
# Poissons Ratio (x) = 0.10715 0.25750
# Poissons Ratio (y) = 0.16702 0.41088
# Poissons Ratio (z) = 0.39911 0.40852
#
# Static dielectric constant tensor:
#      x y z
#    x 3.951920 0.000000 0.000000 
#    y 0.000000 3.174470 0.000000 
#    z 0.000000 0.000000 3.374210 
# 
# 
# High freq. dielectric constant tensor:
#      x y z
#    x 1.747620 0.000000 0.000000 
#    y 0.000000 1.685420 0.000000 
#    z 0.000000 0.000000 1.708380 
# 
# From -- ./inp_files/18657.got.cif
#   From: 2010.03.12/outbox.cif.g09.slc.cpg/sg69_10_cif.got.tgz:18657.got - 2010.04.10 23:52:46.
