data_PCOD8284182
_publ_section_title
;
Structure prediction by ZEFSAII (Michael W. Deem and Ramdas Pophale) SiO2 
 PCOD8284182
Probable space group: F M M M
;
_chemical_formula_sum "Si O2"
_cell_formula_units_Z 160
_cell_length_a 10.232690
_cell_length_b 32.068270
_cell_length_c 28.193804
_cell_angle_alpha 90.000000
_cell_angle_beta 90.000000
_cell_angle_gamma 90.000000
_cell_volume 9251.646390
_symmetry_space_group_name_H-M "F M M M"
_symmetry_group_IT_number 69
_symmetry_cell_setting 'orthorhombic'
loop_
_space_group_symop_operation_xyz
x,y,z
-x,-y,z
x,-y,-z
-x,y,-z
-x,-y,-z
x,y,-z
-x,y,z
x,-y,z
x,1/2+y,1/2+z
-x,1/2-y,1/2+z
x,1/2-y,1/2-z
-x,1/2+y,1/2-z
-x,1/2-y,1/2-z
x,1/2+y,1/2-z
-x,1/2+y,1/2+z
x,1/2-y,1/2+z
1/2+x,y,1/2+z
1/2-x,-y,1/2+z
1/2+x,-y,1/2-z
1/2-x,y,1/2-z
1/2-x,-y,1/2-z
1/2+x,y,1/2-z
1/2-x,y,1/2+z
1/2+x,-y,1/2+z
1/2+x,1/2+y,z
1/2-x,1/2-y,z
1/2+x,1/2-y,-z
1/2-x,1/2+y,-z
1/2-x,1/2-y,-z
1/2+x,1/2+y,-z
1/2-x,1/2+y,z
1/2+x,1/2-y,z
loop_
_atom_site_type_symbol
_atom_site_label
_atom_site_fract_x
_atom_site_fract_y
_atom_site_fract_z
Si Si1 0.851244 0.713546 0.554158
Si Si2 0.355346 0.411141 0.448022
Si Si3 0.853178 0.632157 0.387418
Si Si4 0.147976 0.089492 0.210018
Si Si5 0.141996 0.000000 0.416623
Si Si6 0.849810 0.500000 0.665347
O O1 0.829888 0.696830 0.500000
O O2 0.750000 0.750000 0.565483
O O3 0.822661 0.678655 0.594033
O O4 0.000000 0.730069 0.559520
O O5 0.323492 0.392785 0.500000
O O6 0.500000 0.395776 0.432021
O O7 0.248357 0.398538 0.410655
O O8 0.349635 0.460774 0.451205
O O9 0.837557 0.624451 0.331293
O O10 0.000000 0.619828 0.403212
O O11 0.250000 0.103160 0.250000
O O12 0.180282 0.042093 0.194542
O O13 0.000000 0.091104 0.230036
O O14 0.258469 0.000000 0.379696
O O15 0.000000 0.000000 0.389836
O O16 0.000000 0.500000 0.648134
#
# Coordination Sequence:
#
# PCOD8284182 Si02
#       6
#    32  32  32  32  16  16
#     4   9  18  33  54  80 108 136 165 199 244 299
#     4  10  20  32  47  70 101 137 174 210 250 298
#     4  10  20  35  54  76 103 133 168 212 258 305
#     4  10  21  35  53  75 101 132 171 218 263 307
#     4  10  19  31  47  67  97 137 174 210 250 297
#     4  10  19  34  52  72  98 131 174 220 262 303
#
# _framework density 17.294218999999998
#
# number of rings (size 3 to 8) (size 9 to 14) (size 15 to 20)
#    0.000    2.200    2.000    1.200    0.000    4.800 
#    0.000    2.000    0.000    2.400    0.000    4.200 
#    0.000    0.000    0.000    0.000    0.000    0.000 
#
# Total GULP energy -495690.532147 kJ/mol
# GULP energy per Si atom -12392.263304 kJ/mol
# Density = 1.725486 g / cm^3
# Si number density = 17.294219 Si / 1000 Ang^3
#
#
#
# Elastic Constant Matrix: (Units=GPa)
#
#
# Indices 1 2 3 4 5 6 
#
# 1 103.6999 42.8254 60.7191 0.0000 0.0000 0.0000
# 2 42.8254 83.7510 39.9514 0.0000 0.0000 0.0000
# 3 60.7191 39.9514 87.9954 0.0000 0.0000 0.0000
# 4 0.0000 0.0000 0.0000 18.5805 0.0000 0.0000
# 5 0.0000 0.0000 0.0000 0.0000 31.2741 0.0000
# 6 0.0000 0.0000 0.0000 0.0000 0.0000 24.7855
#
#
#
# Elastic Compliance Matrix: (Units=1/GPa)
#
#
# Indices 1 2 3 4 5 6 
#
# 1 0.017166 -0.003992 -0.010033 0.000000 0.000000 0.000000
# 2 -0.003992 0.016169 -0.004587 0.000000 0.000000 0.000000
# 3 -0.010033 -0.004587 0.020369 0.000000 0.000000 0.000000
# 4 0.000000 0.000000 0.000000 0.053820 0.000000 0.000000
# 5 0.000000 0.000000 0.000000 0.000000 0.031975 0.000000
# 6 0.000000 0.000000 0.000000 0.000000 0.000000 0.040346
#
#
# Mechanical properties :
#
#
# Convention : Reuss Voigt Hill
#
# Bulk Modulus (GPa) = 60.67051 62.49311 61.58181
# Shear Modulus (GPa) = 22.46554 23.72471 23.09512
#
# Velocity S-wave (km/s) = 3.60810 3.70784 3.65831
# Velocity P-wave (km/s) = 7.24675 7.38542 7.31642
#
# Compressibility (1/GPa) = 0.01648247
#
# Stress axis : x y z
#
# Youngs Moduli (GPa) = 58.25403 61.84541 49.09316
#
# Poissons Ratio (x) = 0.24688 0.49254
# Poissons Ratio (y) = 0.23255 0.22517
# Poissons Ratio (z) = 0.58444 0.28366
#
# Static dielectric constant tensor:
#      x y z
#    x 3.433580 0.000000 0.000000 
#    y 0.000000 3.084240 0.000000 
#    z 0.000000 0.000000 3.039600 
# 
# 
# High freq. dielectric constant tensor:
#      x y z
#    x 1.686610 0.000000 0.000000 
#    y 0.000000 1.647230 0.000000 
#    z 0.000000 0.000000 1.648370 
# 
# From -- ./inp_files/5711.got.cif
#   From: 2010.03.12/outbox.cif.g09.slc.cpg/sg69_3_cif.got.tgz:5711.got - 2010.04.10 23:52:46.
