data_PCOD8284028
_publ_section_title
;
Structure prediction by ZEFSAII (Michael W. Deem and Ramdas Pophale) SiO2 
 PCOD8284028
Probable space group: F M M M
;
_chemical_formula_sum "Si O2"
_cell_formula_units_Z 160
_cell_length_a 16.787151
_cell_length_b 22.199568
_cell_length_c 23.276024
_cell_angle_alpha 90.000000
_cell_angle_beta 90.000000
_cell_angle_gamma 90.000000
_cell_volume 8674.217678
_symmetry_space_group_name_H-M "F M M M"
_symmetry_group_IT_number 69
_symmetry_cell_setting 'orthorhombic'
loop_
_space_group_symop_operation_xyz
x,y,z
-x,-y,z
x,-y,-z
-x,y,-z
-x,-y,-z
x,y,-z
-x,y,z
x,-y,z
x,1/2+y,1/2+z
-x,1/2-y,1/2+z
x,1/2-y,1/2-z
-x,1/2+y,1/2-z
-x,1/2-y,1/2-z
x,1/2+y,1/2-z
-x,1/2+y,1/2+z
x,1/2-y,1/2+z
1/2+x,y,1/2+z
1/2-x,-y,1/2+z
1/2+x,-y,1/2-z
1/2-x,y,1/2-z
1/2-x,-y,1/2-z
1/2+x,y,1/2-z
1/2-x,y,1/2+z
1/2+x,-y,1/2+z
1/2+x,1/2+y,z
1/2-x,1/2-y,z
1/2+x,1/2-y,-z
1/2-x,1/2+y,-z
1/2-x,1/2-y,-z
1/2+x,1/2+y,-z
1/2-x,1/2+y,z
1/2+x,1/2-y,z
loop_
_atom_site_type_symbol
_atom_site_label
_atom_site_fract_x
_atom_site_fract_y
_atom_site_fract_z
Si Si1 0.091664 0.870352 0.758968
Si Si2 0.905005 0.500000 0.124630
Si Si3 0.699426 0.691936 0.846690
Si Si4 0.592063 0.743882 0.566050
Si Si5 0.592969 0.500000 0.752141
Si Si6 0.147145 0.372983 0.129192
O O1 0.147321 0.823019 0.790800
O O2 0.115664 0.937408 0.783629
O O3 0.103603 0.867986 0.690730
O O4 0.000000 0.855041 0.772783
O O5 0.869258 0.500000 0.188981
O O6 0.869537 0.562269 0.098513
O O7 0.000000 0.500000 0.117846
O O8 0.750000 0.750000 0.828918
O O9 0.642766 0.705900 0.900470
O O10 0.758090 0.637259 0.863613
O O11 0.617811 0.747471 0.500000
O O12 0.500000 0.759696 0.574650
O O13 0.609539 0.677053 0.588214
O O14 0.500000 0.500000 0.740188
#
# Coordination Sequence:
#
# PCOD8284028 Si02
#       6
#    32  16  32  32  16  32
#     4  10  18  32  52  75 104 136 170 205 248 298
#     4   9  16  31  52  75 104 137 170 201 244 296
#     4  10  22  34  48  74 106 135 168 208 253 298
#     4  10  21  38  57  74  94 128 173 213 252 300
#     4   7  14  27  47  72  97 128 163 201 239 285
#     4  10  20  33  52  77 106 136 165 205 254 301
#
# _framework density 18.445467000000001
#
# number of rings (size 3 to 8) (size 9 to 14) (size 15 to 20)
#    0.000    2.400    0.000    4.200    0.000   10.000 
#    0.000    8.500    0.000    1.800    0.000    2.100 
#    0.000    8.800    0.000    0.000    0.000    0.000 
#
# Total GULP energy -495769.931572 kJ/mol
# GULP energy per Si atom -12394.248289 kJ/mol
# Density = 1.840348 g / cm^3
# Si number density = 18.445467 Si / 1000 Ang^3
#
#
#
# Elastic Constant Matrix: (Units=GPa)
#
#
# Indices 1 2 3 4 5 6 
#
# 1 103.6320 49.6187 28.8283 0.0000 0.0000 0.0000
# 2 49.6187 83.0761 21.3496 0.0000 0.0000 0.0000
# 3 28.8283 21.3496 58.3916 0.0000 0.0000 0.0000
# 4 0.0000 0.0000 0.0000 4.9854 0.0000 0.0000
# 5 0.0000 0.0000 0.0000 0.0000 20.9897 0.0000
# 6 0.0000 0.0000 0.0000 0.0000 0.0000 32.7560
#
#
#
# Elastic Compliance Matrix: (Units=1/GPa)
#
#
# Indices 1 2 3 4 5 6 
#
# 1 0.014470 -0.007512 -0.004397 0.000000 0.000000 0.000000
# 2 -0.007512 0.017186 -0.002575 0.000000 0.000000 0.000000
# 3 -0.004397 -0.002575 0.020238 0.000000 0.000000 0.000000
# 4 0.000000 0.000000 0.000000 0.200585 0.000000 0.000000
# 5 0.000000 0.000000 0.000000 0.000000 0.047643 0.000000
# 6 0.000000 0.000000 0.000000 0.000000 0.000000 0.030529
#
#
# Mechanical properties :
#
#
# Convention : Reuss Voigt Hill
#
# Bulk Modulus (GPa) = 43.62005 49.41033 46.51519
# Shear Modulus (GPa) = 13.61437 21.43309 17.52373
#
# Velocity S-wave (km/s) = 2.71972 3.41247 3.08560
# Velocity P-wave (km/s) = 5.79327 6.50938 6.16173
#
# Compressibility (1/GPa) = 0.02292524
#
# Stress axis : x y z
#
# Youngs Moduli (GPa) = 69.11082 58.18818 49.41207
#
# Poissons Ratio (x) = 0.43712 0.21727
# Poissons Ratio (y) = 0.51917 0.12722
# Poissons Ratio (z) = 0.30388 0.14982
#
# Static dielectric constant tensor:
#      x y z
#    x 3.500560 0.000000 0.000000 
#    y 0.000000 3.829410 0.000000 
#    z 0.000000 0.000000 3.054250 
# 
# 
# High freq. dielectric constant tensor:
#      x y z
#    x 1.722440 0.000000 0.000000 
#    y 0.000000 1.721570 0.000000 
#    z 0.000000 0.000000 1.676330 
# 
# From -- ./inp_files/17797.got.cif
#   From: 2010.03.12/outbox.cif.g09.slc.cpg/sg69_9_cif.got.tgz:17797.got - 2010.04.10 23:52:46.
