data_PCOD8284343
_publ_section_title
;
Structure prediction by ZEFSAII (Michael W. Deem and Ramdas Pophale) SiO2 
 PCOD8284343
Probable space group: F M M M
;
_chemical_formula_sum "Si O2"
_cell_formula_units_Z 176
_cell_length_a 27.127083
_cell_length_b 13.406458
_cell_length_c 25.970491
_cell_angle_alpha 90.000000
_cell_angle_beta 90.000000
_cell_angle_gamma 90.000000
_cell_volume 9444.898794
_symmetry_space_group_name_H-M "F M M M"
_symmetry_group_IT_number 69
_symmetry_cell_setting 'orthorhombic'
loop_
_space_group_symop_operation_xyz
x,y,z
-x,-y,z
x,-y,-z
-x,y,-z
-x,-y,-z
x,y,-z
-x,y,z
x,-y,z
x,1/2+y,1/2+z
-x,1/2-y,1/2+z
x,1/2-y,1/2-z
-x,1/2+y,1/2-z
-x,1/2-y,1/2-z
x,1/2+y,1/2-z
-x,1/2+y,1/2+z
x,1/2-y,1/2+z
1/2+x,y,1/2+z
1/2-x,-y,1/2+z
1/2+x,-y,1/2-z
1/2-x,y,1/2-z
1/2-x,-y,1/2-z
1/2+x,y,1/2-z
1/2-x,y,1/2+z
1/2+x,-y,1/2+z
1/2+x,1/2+y,z
1/2-x,1/2-y,z
1/2+x,1/2-y,-z
1/2-x,1/2+y,-z
1/2-x,1/2-y,-z
1/2+x,1/2+y,-z
1/2-x,1/2+y,z
1/2+x,1/2-y,z
loop_
_atom_site_type_symbol
_atom_site_label
_atom_site_fract_x
_atom_site_fract_y
_atom_site_fract_z
Si Si1 0.111873 0.193957 0.098385
Si Si2 0.829057 0.726444 0.693146
Si Si3 0.442938 0.887315 0.060324
Si Si4 0.716868 0.845781 0.444470
Si Si5 0.558190 0.000000 0.440827
Si Si6 0.741289 0.107113 0.838860
O O1 0.125527 0.187609 0.159089
O O2 0.086727 0.301246 0.089565
O O3 0.160382 0.185449 0.063826
O O4 0.076863 0.100512 0.086530
O O5 0.848881 0.750000 0.750000
O O6 0.785295 0.645515 0.698040
O O7 0.805776 0.820967 0.662912
O O8 0.500000 0.875972 0.075100
O O9 0.424980 0.000000 0.075593
O O10 0.435226 0.870711 0.000000
O O11 0.719985 0.902674 0.500000
O O12 0.750000 0.750000 0.447917
O O13 0.737417 0.908806 0.396698
O O14 0.500000 0.000000 0.436623
O O15 0.575779 0.000000 0.500000
O O16 0.724050 0.000000 0.818396
#
# Coordination Sequence:
#
# PCOD8284343 Si02
#       6
#    32  32  32  32  16  32
#     4  11  21  37  57  84 117 153 191 238 286 348
#     4  10  22  38  53  78 108 144 195 243 287 330
#     4   9  18  34  58  85 112 143 179 224 280 338
#     4  10  19  33  50  77 119 159 185 216 272 347
#     4  11  24  40  64  94 119 150 194 246 305 364
#     4  10  19  35  55  77 108 150 197 238 276 329
#
# _framework density 18.634398000000001
#
# number of rings (size 3 to 8) (size 9 to 14) (size 15 to 20)
#    0.000    1.909    3.636    3.818    5.091    4.000 
#    0.000    0.000    0.000    2.182    0.000    0.000 
#    0.000    0.000    0.000    0.000    0.000    0.000 
#
# Total GULP energy -545275.186504 kJ/mol
# GULP energy per Si atom -12392.617875 kJ/mol
# Density = 1.859199 g / cm^3
# Si number density = 18.634398 Si / 1000 Ang^3
#
#
#
# Elastic Constant Matrix: (Units=GPa)
#
#
# Indices 1 2 3 4 5 6 
#
# 1 69.6768 37.5776 28.3773 0.0000 0.0000 0.0000
# 2 37.5776 123.8914 22.3312 0.0000 0.0000 0.0000
# 3 28.3773 22.3312 114.5289 0.0000 0.0000 0.0000
# 4 0.0000 0.0000 0.0000 7.8922 0.0000 0.0000
# 5 0.0000 0.0000 0.0000 0.0000 22.4379 0.0000
# 6 0.0000 0.0000 0.0000 0.0000 0.0000 8.3853
#
#
#
# Elastic Compliance Matrix: (Units=1/GPa)
#
#
# Indices 1 2 3 4 5 6 
#
# 1 0.018500 -0.004959 -0.003617 0.000000 0.000000 0.000000
# 2 -0.004959 0.009695 -0.000662 0.000000 0.000000 0.000000
# 3 -0.003617 -0.000662 0.009757 0.000000 0.000000 0.000000
# 4 0.000000 0.000000 0.000000 0.126707 0.000000 0.000000
# 5 0.000000 0.000000 0.000000 0.000000 0.044567 0.000000
# 6 0.000000 0.000000 0.000000 0.000000 0.000000 0.119256
#
#
# Mechanical properties :
#
#
# Convention : Reuss Voigt Hill
#
# Bulk Modulus (GPa) = 51.34520 53.85214 52.59867
# Shear Modulus (GPa) = 14.14633 22.39715 18.27174
#
# Velocity S-wave (km/s) = 2.75826 3.47064 3.13475
# Velocity P-wave (km/s) = 6.14474 6.70988 6.43352
#
# Compressibility (1/GPa) = 0.01947602
#
# Stress axis : x y z
#
# Youngs Moduli (GPa) = 54.05541 103.14575 102.49520
#
# Poissons Ratio (x) = 0.51152 0.37070
# Poissons Ratio (y) = 0.26807 0.06781
# Poissons Ratio (z) = 0.19550 0.06824
#
# Static dielectric constant tensor:
#      x y z
#    x 3.406180 0.000000 0.000000 
#    y 0.000000 3.422720 0.000000 
#    z 0.000000 0.000000 3.777900 
# 
# 
# High freq. dielectric constant tensor:
#      x y z
#    x 1.702510 0.000000 0.000000 
#    y 0.000000 1.731490 0.000000 
#    z 0.000000 0.000000 1.712770 
# 
# From -- ./inp_files/43169.got.cif
#   From: 2010.03.12/outbox.cif.g09.slc.cpg/sg69_22_cif.got.tgz:43169.got - 2010.04.10 23:52:46.
