data_PCOD8284374
_publ_section_title
;
Structure prediction by ZEFSAII (Michael W. Deem and Ramdas Pophale) SiO2 
 PCOD8284374
Probable space group: F M M M
;
_chemical_formula_sum "Si O2"
_cell_formula_units_Z 208
_cell_length_a 26.333957
_cell_length_b 23.176233
_cell_length_c 18.321751
_cell_angle_alpha 90.000000
_cell_angle_beta 90.000000
_cell_angle_gamma 90.000000
_cell_volume 11182.166308
_symmetry_space_group_name_H-M "F M M M"
_symmetry_group_IT_number 69
_symmetry_cell_setting 'orthorhombic'
loop_
_space_group_symop_operation_xyz
x,y,z
-x,-y,z
x,-y,-z
-x,y,-z
-x,-y,-z
x,y,-z
-x,y,z
x,-y,z
x,1/2+y,1/2+z
-x,1/2-y,1/2+z
x,1/2-y,1/2-z
-x,1/2+y,1/2-z
-x,1/2-y,1/2-z
x,1/2+y,1/2-z
-x,1/2+y,1/2+z
x,1/2-y,1/2+z
1/2+x,y,1/2+z
1/2-x,-y,1/2+z
1/2+x,-y,1/2-z
1/2-x,y,1/2-z
1/2-x,-y,1/2-z
1/2+x,y,1/2-z
1/2-x,y,1/2+z
1/2+x,-y,1/2+z
1/2+x,1/2+y,z
1/2-x,1/2-y,z
1/2+x,1/2-y,-z
1/2-x,1/2+y,-z
1/2-x,1/2-y,-z
1/2+x,1/2+y,-z
1/2-x,1/2+y,z
1/2+x,1/2-y,z
loop_
_atom_site_type_symbol
_atom_site_label
_atom_site_fract_x
_atom_site_fract_y
_atom_site_fract_z
Si Si1 0.198948 0.362128 0.161999
Si Si2 0.443207 0.670860 0.414656
Si Si3 0.813299 0.650171 0.326917
Si Si4 0.598221 0.434631 0.167529
Si Si5 0.895066 0.064880 0.336998
Si Si6 0.152513 0.260238 0.084608
Si Si7 0.000000 0.068646 0.917143
O O1 0.184355 0.335409 0.240964
O O2 0.258232 0.376832 0.154844
O O3 0.164597 0.419358 0.152129
O O4 0.187131 0.316037 0.099053
O O5 0.437790 0.660360 0.500000
O O6 0.500000 0.689926 0.392350
O O7 0.430584 0.609562 0.378820
O O8 0.404937 0.722268 0.390788
O O9 0.853069 0.602703 0.353741
O O10 0.825222 0.708748 0.368378
O O11 0.609033 0.500000 0.142265
O O12 0.587645 0.431913 0.253295
O O13 0.549892 0.408391 0.124624
O O14 0.903102 0.000000 0.367170
O O15 0.155205 0.243148 0.000000
O O16 0.000000 0.000000 0.915273
O O17 0.000000 0.092336 0.000000
#
# Coordination Sequence:
#
# PCOD8284374 Si02
#       7
#    32  32  32  32  32  32  16
#     4   9  19  34  52  74 107 137 165 213 263 304
#     4   9  19  35  52  73 105 139 169 212 263 303
#     4  10  19  33  54  77 100 136 176 209 254 315
#     4   9  19  34  52  76 104 133 170 215 257 302
#     4   9  18  32  53  79 105 136 173 210 252 310
#     4  10  20  34  52  74 101 134 174 217 259 307
#     4   9  18  34  52  68  96 137 171 209 264 307
#
# _framework density 18.601047000000001
#
# number of rings (size 3 to 8) (size 9 to 14) (size 15 to 20)
#    0.000    2.692    0.000    0.923    1.077    4.308 
#    1.385    3.846    0.000    2.769    0.000    4.308 
#    0.000    0.000    0.000    0.000    0.000    0.000 
#
# Total GULP energy -644674.383736 kJ/mol
# GULP energy per Si atom -12397.584303 kJ/mol
# Density = 1.855871 g / cm^3
# Si number density = 18.601047 Si / 1000 Ang^3
#
#
#
# Elastic Constant Matrix: (Units=GPa)
#
#
# Indices 1 2 3 4 5 6 
#
# 1 142.5538 27.1165 38.7029 0.0000 0.0000 0.0000
# 2 27.1165 49.2064 22.8737 0.0000 0.0000 0.0000
# 3 38.7029 22.8737 42.8894 0.0000 0.0000 0.0000
# 4 0.0000 0.0000 0.0000 17.9304 0.0000 0.0000
# 5 0.0000 0.0000 0.0000 0.0000 24.8860 0.0000
# 6 0.0000 0.0000 0.0000 0.0000 0.0000 20.5450
#
#
#
# Elastic Compliance Matrix: (Units=1/GPa)
#
#
# Indices 1 2 3 4 5 6 
#
# 1 0.009390 -0.001643 -0.007597 0.000000 0.000000 0.000000
# 2 -0.001643 0.027309 -0.013082 0.000000 0.000000 0.000000
# 3 -0.007597 -0.013082 0.037148 0.000000 0.000000 0.000000
# 4 0.000000 0.000000 0.000000 0.055771 0.000000 0.000000
# 5 0.000000 0.000000 0.000000 0.000000 0.040183 0.000000
# 6 0.000000 0.000000 0.000000 0.000000 0.000000 0.048674
#
#
# Mechanical properties :
#
#
# Convention : Reuss Voigt Hill
#
# Bulk Modulus (GPa) = 34.24275 45.78177 40.01226
# Shear Modulus (GPa) = 18.32481 22.40271 20.36376
#
# Velocity S-wave (km/s) = 3.14211 3.47418 3.31231
# Velocity P-wave (km/s) = 5.62253 6.38429 6.01548
#
# Compressibility (1/GPa) = 0.02920326
#
# Stress axis : x y z
#
# Youngs Moduli (GPa) = 106.49556 36.61781 26.91919
#
# Poissons Ratio (x) = 0.06017 0.20451
# Poissons Ratio (y) = 0.17498 0.35215
# Poissons Ratio (z) = 0.80907 0.47903
#
# Static dielectric constant tensor:
#      x y z
#    x 3.714740 0.000000 0.000000 
#    y 0.000000 3.270050 0.000000 
#    z 0.000000 0.000000 3.376950 
# 
# 
# High freq. dielectric constant tensor:
#      x y z
#    x 1.732290 0.000000 0.000000 
#    y 0.000000 1.703190 0.000000 
#    z 0.000000 0.000000 1.714350 
# 
# From -- ./inp_files/26979.got.cif
#   From: 2010.03.12/outbox.cif.g09.slc.cpg/sg69_14_cif.got.tgz:26979.got - 2010.04.10 23:52:46.
