data_PCOD8284538
_publ_section_title
;
Structure prediction by ZEFSAII (Michael W. Deem and Ramdas Pophale) SiO2 
 PCOD8284538
Probable space group: F M M M
;
_chemical_formula_sum "Si O2"
_cell_formula_units_Z 120
_cell_length_a 14.592824
_cell_length_b 25.049140
_cell_length_c 18.229436
_cell_angle_alpha 90.000000
_cell_angle_beta 90.000000
_cell_angle_gamma 90.000000
_cell_volume 6663.545950
_symmetry_space_group_name_H-M "F M M M"
_symmetry_group_IT_number 69
_symmetry_cell_setting 'orthorhombic'
loop_
_space_group_symop_operation_xyz
x,y,z
-x,-y,z
x,-y,-z
-x,y,-z
-x,-y,-z
x,y,-z
-x,y,z
x,-y,z
x,1/2+y,1/2+z
-x,1/2-y,1/2+z
x,1/2-y,1/2-z
-x,1/2+y,1/2-z
-x,1/2-y,1/2-z
x,1/2+y,1/2-z
-x,1/2+y,1/2+z
x,1/2-y,1/2+z
1/2+x,y,1/2+z
1/2-x,-y,1/2+z
1/2+x,-y,1/2-z
1/2-x,y,1/2-z
1/2-x,-y,1/2-z
1/2+x,y,1/2-z
1/2-x,y,1/2+z
1/2+x,-y,1/2+z
1/2+x,1/2+y,z
1/2-x,1/2-y,z
1/2+x,1/2-y,-z
1/2-x,1/2+y,-z
1/2-x,1/2-y,-z
1/2+x,1/2+y,-z
1/2-x,1/2+y,z
1/2+x,1/2-y,z
loop_
_atom_site_type_symbol
_atom_site_label
_atom_site_fract_x
_atom_site_fract_y
_atom_site_fract_z
Si Si1 0.000000 0.211889 0.680439
Si Si2 0.295134 0.500000 0.169574
Si Si3 0.327730 0.208603 0.083792
Si Si4 0.000000 0.000000 0.785202
Si Si5 0.000000 0.089161 0.666763
Si Si6 0.687377 0.412331 0.414471
O O1 0.000000 0.250000 0.750000
O O2 0.911662 0.225719 0.633423
O O3 0.000000 0.149052 0.698941
O O4 0.250000 0.500000 0.250000
O O5 0.406021 0.500000 0.167926
O O6 0.262786 0.552894 0.127352
O O7 0.250000 0.250000 0.103605
O O8 0.289036 0.149550 0.099898
O O9 0.360677 0.212463 0.000000
O O10 0.000000 0.052967 0.737581
O O11 0.913298 0.075639 0.616388
O O12 0.689102 0.427149 0.500000
#
# Coordination Sequence:
#
# PCOD8284538 Si02
#       6
#    16  16  32   8  16  32
#     4  10  21  33  52  86 115 144 183 231 285 335
#     4  12  23  38  57  82 117 149 179 227 283 346
#     4   9  19  37  58  80 110 147 189 234 277 324
#     4  12  24  38  52  80 118 154 176 216 286 342
#     4  10  19  36  59  83 112 139 186 247 287 321
#     4  10  20  37  61  85 107 143 194 241 282 326
#
# _framework density 18.008429
#
# number of rings (size 3 to 8) (size 9 to 14) (size 15 to 20)
#    0.000    1.867    2.667    1.200    0.000    5.867 
#    0.000    3.333    0.000    3.200    0.000    0.000 
#    0.000    0.000    0.000    0.000    0.000    0.000 
#
# Total GULP energy -372022.188152 kJ/mol
# GULP energy per Si atom -12400.739605 kJ/mol
# Density = 1.796744 g / cm^3
# Si number density = 18.008429 Si / 1000 Ang^3
#
#
#
# Elastic Constant Matrix: (Units=GPa)
#
#
# Indices 1 2 3 4 5 6 
#
# 1 149.4578 82.9970 86.9309 0.0000 0.0000 0.0000
# 2 82.9970 118.9260 79.6378 0.0000 0.0000 0.0000
# 3 86.9309 79.6378 116.7822 0.0000 0.0000 0.0000
# 4 0.0000 0.0000 0.0000 38.8669 0.0000 0.0000
# 5 0.0000 0.0000 0.0000 0.0000 40.2054 0.0000
# 6 0.0000 0.0000 0.0000 0.0000 0.0000 54.9798
#
#
#
# Elastic Compliance Matrix: (Units=1/GPa)
#
#
# Indices 1 2 3 4 5 6 
#
# 1 0.013150 -0.004826 -0.006498 0.000000 0.000000 0.000000
# 2 -0.004826 0.017247 -0.008169 0.000000 0.000000 0.000000
# 3 -0.006498 -0.008169 0.018970 0.000000 0.000000 0.000000
# 4 0.000000 0.000000 0.000000 0.025729 0.000000 0.000000
# 5 0.000000 0.000000 0.000000 0.000000 0.024872 0.000000
# 6 0.000000 0.000000 0.000000 0.000000 0.000000 0.018189
#
#
# Mechanical properties :
#
#
# Convention : Reuss Voigt Hill
#
# Bulk Modulus (GPa) = 96.31887 98.25526 97.28706
# Shear Modulus (GPa) = 31.13271 35.85043 33.49157
#
# Velocity S-wave (km/s) = 4.16238 4.46663 4.31719
# Velocity P-wave (km/s) = 8.75797 9.01555 8.88770
#
# Compressibility (1/GPa) = 0.01038218
#
# Stress axis : x y z
#
# Youngs Moduli (GPa) = 76.04373 57.98160 52.71443
#
# Poissons Ratio (x) = 0.27984 0.34252
# Poissons Ratio (y) = 0.36701 0.43060
# Poissons Ratio (z) = 0.49411 0.47363
#
# Static dielectric constant tensor:
#      x y z
#    x 3.450910 0.000000 0.000000 
#    y 0.000000 3.537740 0.000000 
#    z 0.000000 0.000000 3.325960 
# 
# 
# High freq. dielectric constant tensor:
#      x y z
#    x 1.696330 0.000000 0.000000 
#    y 0.000000 1.711820 0.000000 
#    z 0.000000 0.000000 1.695260 
# 
# From -- ./inp_files/14482.got.cif
#   From: 2010.03.12/outbox.cif.g09.slc.cpg/sg69_8_cif.got.tgz:14482.got - 2010.04.10 23:52:46.
