data_PCOD8284342
_publ_section_title
;
Structure prediction by ZEFSAII (Michael W. Deem and Ramdas Pophale) SiO2 
 PCOD8284342
Probable space group: F M M M
;
_chemical_formula_sum "Si O2"
_cell_formula_units_Z 112
_cell_length_a 17.985396
_cell_length_b 14.750217
_cell_length_c 27.207223
_cell_angle_alpha 90.000000
_cell_angle_beta 90.000000
_cell_angle_gamma 90.000000
_cell_volume 7217.763211
_symmetry_space_group_name_H-M "F M M M"
_symmetry_group_IT_number 69
_symmetry_cell_setting 'orthorhombic'
loop_
_space_group_symop_operation_xyz
x,y,z
-x,-y,z
x,-y,-z
-x,y,-z
-x,-y,-z
x,y,-z
-x,y,z
x,-y,z
x,1/2+y,1/2+z
-x,1/2-y,1/2+z
x,1/2-y,1/2-z
-x,1/2+y,1/2-z
-x,1/2-y,1/2-z
x,1/2+y,1/2-z
-x,1/2+y,1/2+z
x,1/2-y,1/2+z
1/2+x,y,1/2+z
1/2-x,-y,1/2+z
1/2+x,-y,1/2-z
1/2-x,y,1/2-z
1/2-x,-y,1/2-z
1/2+x,y,1/2-z
1/2-x,y,1/2+z
1/2+x,-y,1/2+z
1/2+x,1/2+y,z
1/2-x,1/2-y,z
1/2+x,1/2-y,-z
1/2-x,1/2+y,-z
1/2-x,1/2-y,-z
1/2+x,1/2+y,-z
1/2-x,1/2+y,z
1/2+x,1/2-y,z
loop_
_atom_site_type_symbol
_atom_site_label
_atom_site_fract_x
_atom_site_fract_y
_atom_site_fract_z
Si Si1 0.411246 0.000000 0.055635
Si Si2 0.782151 0.395820 0.697543
Si Si3 0.135280 0.099469 0.643097
Si Si4 0.918318 0.227784 0.806240
O O1 0.379074 0.089217 0.084201
O O2 0.500000 0.000000 0.057619
O O3 0.381622 0.000000 0.000000
O O4 0.805739 0.500000 0.702754
O O5 0.750000 0.360374 0.750000
O O6 0.721062 0.378837 0.655376
O O7 0.854224 0.341958 0.678575
O O8 0.083961 0.178497 0.663685
O O9 0.115120 0.000000 0.667335
O O10 0.906537 0.250000 0.750000
O O11 0.000000 0.184782 0.815665
#
# Coordination Sequence:
#
# PCOD8284342 Si02
#       4
#    16  32  32  32
#     4   9  18  34  55  78 103 129 166 221 272 304
#     4  10  19  33  48  67  98 142 174 202 244 298
#     4   9  19  32  51  74 100 132 167 206 254 311
#     4  11  21  29  45  72 104 138 173 209 244 299
#
# _framework density 15.517272
#
# number of rings (size 3 to 8) (size 9 to 14) (size 15 to 20)
#    0.857    1.286    2.857    1.714    0.000    0.571 
#    0.000    2.857    0.000    3.429    0.000    0.000 
#    0.000    1.143    0.000    0.000    0.000    0.000 
#
# Total GULP energy -346905.632792 kJ/mol
# GULP energy per Si atom -12389.486885 kJ/mol
# Density = 1.548195 g / cm^3
# Si number density = 15.517272 Si / 1000 Ang^3
#
#
#
# Elastic Constant Matrix: (Units=GPa)
#
#
# Indices 1 2 3 4 5 6 
#
# 1 108.5607 36.4548 41.2414 0.0000 0.0000 0.0000
# 2 36.4548 62.2603 28.5860 0.0000 0.0000 0.0000
# 3 41.2414 28.5860 111.6165 0.0000 0.0000 0.0000
# 4 0.0000 0.0000 0.0000 15.3762 0.0000 0.0000
# 5 0.0000 0.0000 0.0000 0.0000 20.6563 0.0000
# 6 0.0000 0.0000 0.0000 0.0000 0.0000 22.2351
#
#
#
# Elastic Compliance Matrix: (Units=1/GPa)
#
#
# Indices 1 2 3 4 5 6 
#
# 1 0.012328 -0.005810 -0.003067 0.000000 0.000000 0.000000
# 2 -0.005810 0.020940 -0.003216 0.000000 0.000000 0.000000
# 3 -0.003067 -0.003216 0.010916 0.000000 0.000000 0.000000
# 4 0.000000 0.000000 0.000000 0.065036 0.000000 0.000000
# 5 0.000000 0.000000 0.000000 0.000000 0.048411 0.000000
# 6 0.000000 0.000000 0.000000 0.000000 0.000000 0.044974
#
#
# Mechanical properties :
#
#
# Convention : Reuss Voigt Hill
#
# Bulk Modulus (GPa) = 50.00591 55.00021 52.50306
# Shear Modulus (GPa) = 21.41724 23.39720 22.40722
#
# Velocity S-wave (km/s) = 3.71916 3.88727 3.80415
# Velocity P-wave (km/s) = 7.12312 7.46119 7.29411
#
# Compressibility (1/GPa) = 0.01999763
#
# Stress axis : x y z
#
# Youngs Moduli (GPa) = 81.11933 47.75521 91.60723
#
# Poissons Ratio (x) = 0.27745 0.28096
# Poissons Ratio (y) = 0.47129 0.29463
# Poissons Ratio (z) = 0.24879 0.15359
#
# Static dielectric constant tensor:
#      x y z
#    x 3.044720 0.000000 0.000000 
#    y 0.000000 2.887540 0.000000 
#    z 0.000000 0.000000 2.755650 
# 
# 
# High freq. dielectric constant tensor:
#      x y z
#    x 1.603940 0.000000 0.000000 
#    y 0.000000 1.588950 0.000000 
#    z 0.000000 0.000000 1.549430 
# 
# From -- ./inp_files/15439.got.cif
#   From: 2010.03.12/outbox.cif.g09.slc.cpg/sg69_8_cif.got.tgz:15439.got - 2010.04.10 23:52:46.
