data_PCOD8284388
_publ_section_title
;
Structure prediction by ZEFSAII (Michael W. Deem and Ramdas Pophale) SiO2 
 PCOD8284388
Probable space group: F M M M
;
_chemical_formula_sum "Si O2"
_cell_formula_units_Z 176
_cell_length_a 22.986509
_cell_length_b 23.004960
_cell_length_c 16.673946
_cell_angle_alpha 90.000000
_cell_angle_beta 90.000000
_cell_angle_gamma 90.000000
_cell_volume 8817.244673
_symmetry_space_group_name_H-M "F M M M"
_symmetry_group_IT_number 69
_symmetry_cell_setting 'orthorhombic'
loop_
_space_group_symop_operation_xyz
x,y,z
-x,-y,z
x,-y,-z
-x,y,-z
-x,-y,-z
x,y,-z
-x,y,z
x,-y,z
x,1/2+y,1/2+z
-x,1/2-y,1/2+z
x,1/2-y,1/2-z
-x,1/2+y,1/2-z
-x,1/2-y,1/2-z
x,1/2+y,1/2-z
-x,1/2+y,1/2+z
x,1/2-y,1/2+z
1/2+x,y,1/2+z
1/2-x,-y,1/2+z
1/2+x,-y,1/2-z
1/2-x,y,1/2-z
1/2-x,-y,1/2-z
1/2+x,y,1/2-z
1/2-x,y,1/2+z
1/2+x,-y,1/2+z
1/2+x,1/2+y,z
1/2-x,1/2-y,z
1/2+x,1/2-y,-z
1/2-x,1/2+y,-z
1/2-x,1/2-y,-z
1/2+x,1/2+y,-z
1/2-x,1/2+y,z
1/2+x,1/2-y,z
loop_
_atom_site_type_symbol
_atom_site_label
_atom_site_fract_x
_atom_site_fract_y
_atom_site_fract_z
Si Si1 0.231940 0.669759 0.158694
Si Si2 0.068432 0.356789 0.353282
Si Si3 0.160143 0.270228 0.593293
Si Si4 0.934056 0.565650 0.796519
Si Si5 0.431179 0.935371 0.500000
Si Si6 0.669989 0.566333 0.591180
O O1 0.250000 0.680152 0.250000
O O2 0.176162 0.709666 0.136807
O O3 0.285658 0.685834 0.101401
O O4 0.215787 0.603048 0.143107
O O5 0.103433 0.296599 0.362445
O O6 0.084992 0.388065 0.270460
O O7 0.089922 0.400391 0.422458
O O8 0.000000 0.342948 0.359426
O O9 0.146357 0.259488 0.500000
O O10 0.927493 0.500000 0.761606
O O11 0.894755 0.574340 0.874500
O O12 0.000000 0.577114 0.823742
O O13 0.500000 0.941103 0.500000
O O14 0.403312 0.000000 0.500000
O O15 0.668840 0.588540 0.500000
O O16 0.690826 0.500000 0.597050
#
# Coordination Sequence:
#
# PCOD8284388 Si02
#       6
#    32  32  32  32  16  32
#     4  11  23  40  61  82 109 149 197 239 290 357
#     4  10  19  33  54  84 120 156 196 243 294 344
#     4  11  21  36  58  82 114 155 197 236 281 347
#     4   9  18  33  55  83 116 156 198 239 288 351
#     4   9  16  28  48  75 114 160 197 232 282 346
#     4  10  21  39  62  87 116 147 187 245 305 353
#
# _framework density 19.960885000000001
#
# number of rings (size 3 to 8) (size 9 to 14) (size 15 to 20)
#    0.000    1.909    0.909    4.909    0.000    2.909 
#    0.000    4.545    0.000    6.545    0.000    0.000 
#    0.000    0.000    0.000    0.000    0.000    0.000 
#
# Total GULP energy -545685.259333 kJ/mol
# GULP energy per Si atom -12401.937712 kJ/mol
# Density = 1.991545 g / cm^3
# Si number density = 19.960885 Si / 1000 Ang^3
#
#
#
# Elastic Constant Matrix: (Units=GPa)
#
#
# Indices 1 2 3 4 5 6 
#
# 1 59.8472 45.9590 25.7548 0.0000 0.0000 0.0000
# 2 45.9590 98.2769 47.4003 0.0000 0.0000 0.0000
# 3 25.7548 47.4003 96.1868 0.0000 0.0000 0.0000
# 4 0.0000 0.0000 0.0000 28.9867 0.0000 0.0000
# 5 0.0000 0.0000 0.0000 0.0000 27.2781 0.0000
# 6 0.0000 0.0000 0.0000 0.0000 0.0000 38.9358
#
#
#
# Elastic Compliance Matrix: (Units=1/GPa)
#
#
# Indices 1 2 3 4 5 6 
#
# 1 0.026192 -0.011631 -0.001282 0.000000 0.000000 0.000000
# 2 -0.011631 0.018512 -0.006009 0.000000 0.000000 0.000000
# 3 -0.001282 -0.006009 0.013701 0.000000 0.000000 0.000000
# 4 0.000000 0.000000 0.000000 0.034499 0.000000 0.000000
# 5 0.000000 0.000000 0.000000 0.000000 0.036659 0.000000
# 6 0.000000 0.000000 0.000000 0.000000 0.000000 0.025683
#
#
# Mechanical properties :
#
#
# Convention : Reuss Voigt Hill
#
# Bulk Modulus (GPa) = 48.62978 54.72657 51.67818
# Shear Modulus (GPa) = 25.00708 28.05324 26.53016
#
# Velocity S-wave (km/s) = 3.54334 3.75295 3.64965
# Velocity P-wave (km/s) = 6.41527 6.80117 6.61104
#
# Compressibility (1/GPa) = 0.02056353
#
# Stress axis : x y z
#
# Youngs Moduli (GPa) = 38.17895 54.01771 72.98929
#
# Poissons Ratio (x) = 0.62826 0.09355
# Poissons Ratio (y) = 0.44405 0.43857
# Poissons Ratio (z) = 0.04893 0.32457
#
# Static dielectric constant tensor:
#      x y z
#    x 3.484010 0.000000 0.000000 
#    y 0.000000 3.688750 0.000000 
#    z 0.000000 0.000000 3.617930 
# 
# 
# High freq. dielectric constant tensor:
#      x y z
#    x 1.763130 0.000000 0.000000 
#    y 0.000000 1.777770 0.000000 
#    z 0.000000 0.000000 1.783290 
# 
# From -- ./inp_files/17858.got.cif
#   From: 2010.03.12/outbox.cif.g09.slc.cpg/sg69_9_cif.got.tgz:17858.got - 2010.04.10 23:52:46.
