data_PCOD8284499
_publ_section_title
;
Structure prediction by ZEFSAII (Michael W. Deem and Ramdas Pophale) SiO2 
 PCOD8284499
Probable space group: F M M M
;
_chemical_formula_sum "Si O2"
_cell_formula_units_Z 152
_cell_length_a 14.972016
_cell_length_b 20.129345
_cell_length_c 27.898693
_cell_angle_alpha 90.000000
_cell_angle_beta 90.000000
_cell_angle_gamma 90.000000
_cell_volume 8408.020924
_symmetry_space_group_name_H-M "F M M M"
_symmetry_group_IT_number 69
_symmetry_cell_setting 'orthorhombic'
loop_
_space_group_symop_operation_xyz
x,y,z
-x,-y,z
x,-y,-z
-x,y,-z
-x,-y,-z
x,y,-z
-x,y,z
x,-y,z
x,1/2+y,1/2+z
-x,1/2-y,1/2+z
x,1/2-y,1/2-z
-x,1/2+y,1/2-z
-x,1/2-y,1/2-z
x,1/2+y,1/2-z
-x,1/2+y,1/2+z
x,1/2-y,1/2+z
1/2+x,y,1/2+z
1/2-x,-y,1/2+z
1/2+x,-y,1/2-z
1/2-x,y,1/2-z
1/2-x,-y,1/2-z
1/2+x,y,1/2-z
1/2-x,y,1/2+z
1/2+x,-y,1/2+z
1/2+x,1/2+y,z
1/2-x,1/2-y,z
1/2+x,1/2-y,-z
1/2-x,1/2+y,-z
1/2-x,1/2-y,-z
1/2+x,1/2+y,-z
1/2-x,1/2+y,z
1/2+x,1/2-y,z
loop_
_atom_site_type_symbol
_atom_site_label
_atom_site_fract_x
_atom_site_fract_y
_atom_site_fract_z
Si Si1 0.397084 0.158101 0.446152
Si Si2 0.158774 0.422238 0.356387
Si Si3 0.000000 0.077930 0.794967
Si Si4 0.000000 0.420097 0.815901
Si Si5 0.821795 0.656566 0.830570
Si Si6 0.750000 0.750000 0.589318
Si Si7 0.250000 0.750000 0.250000
O O1 0.392959 0.129018 0.500000
O O2 0.500000 0.178567 0.433930
O O3 0.359850 0.103292 0.409798
O O4 0.328712 0.219754 0.443222
O O5 0.154469 0.500000 0.359692
O O6 0.085836 0.390688 0.320591
O O7 0.249910 0.402138 0.330734
O O8 0.000000 0.094999 0.739938
O O9 0.000000 0.000000 0.803896
O O10 0.085035 0.381652 0.836693
O O11 0.000000 0.500000 0.827297
O O12 0.803697 0.698520 0.877989
O O13 0.813356 0.703429 0.783352
#
# Coordination Sequence:
#
# PCOD8284499 Si02
#       7
#    32  32  16  16  32  16   8
#     4  10  20  34  56  81 106 136 174 220 266 326
#     4  10  19  35  54  77 110 142 170 212 273 328
#     4   9  18  30  48  72 102 136 166 207 257 308
#     4  11  22  35  53  81 108 143 190 225 261 319
#     4  10  21  35  54  77 106 145 181 225 266 309
#     4   9  21  37  53  76 110 142 177 219 271 319
#     4  10  20  38  52  80 106 142 190 228 268 314
#
# _framework density 18.077976
#
# number of rings (size 3 to 8) (size 9 to 14) (size 15 to 20)
#    0.000    2.105    1.053    2.211    1.474    0.842 
#    0.000    5.263    0.000    0.000    0.000    0.000 
#    0.000    8.842    0.000    0.000    0.000    0.000 
#
# Total GULP energy -470888.436419 kJ/mol
# GULP energy per Si atom -12391.800958 kJ/mol
# Density = 1.803683 g / cm^3
# Si number density = 18.077976 Si / 1000 Ang^3
#
#
#
# Elastic Constant Matrix: (Units=GPa)
#
#
# Indices 1 2 3 4 5 6 
#
# 1 162.6119 54.3488 42.2745 0.0000 0.0000 0.0000
# 2 54.3488 73.3641 25.3818 0.0000 0.0000 0.0000
# 3 42.2745 25.3818 77.1728 0.0000 0.0000 0.0000
# 4 0.0000 0.0000 0.0000 14.8600 0.0000 0.0000
# 5 0.0000 0.0000 0.0000 0.0000 15.0804 0.0000
# 6 0.0000 0.0000 0.0000 0.0000 0.0000 30.3055
#
#
#
# Elastic Compliance Matrix: (Units=1/GPa)
#
#
# Indices 1 2 3 4 5 6 
#
# 1 0.008749 -0.005443 -0.003003 0.000000 0.000000 0.000000
# 2 -0.005443 0.018767 -0.003191 0.000000 0.000000 0.000000
# 3 -0.003003 -0.003191 0.015652 0.000000 0.000000 0.000000
# 4 0.000000 0.000000 0.000000 0.067295 0.000000 0.000000
# 5 0.000000 0.000000 0.000000 0.000000 0.066311 0.000000
# 6 0.000000 0.000000 0.000000 0.000000 0.000000 0.032997
#
#
# Mechanical properties :
#
#
# Convention : Reuss Voigt Hill
#
# Bulk Modulus (GPa) = 50.26212 61.90657 56.08434
# Shear Modulus (GPa) = 20.86153 24.79210 22.82681
#
# Velocity S-wave (km/s) = 3.40071 3.70726 3.55728
# Velocity P-wave (km/s) = 6.57899 7.25559 6.92555
#
# Compressibility (1/GPa) = 0.01989570
#
# Stress axis : x y z
#
# Youngs Moduli (GPa) = 114.29466 53.28627 63.88872
#
# Poissons Ratio (x) = 0.29002 0.19184
# Poissons Ratio (y) = 0.62207 0.20385
# Poissons Ratio (z) = 0.34319 0.17002
#
# Static dielectric constant tensor:
#      x y z
#    x 3.586910 0.000000 0.000000 
#    y 0.000000 3.283460 0.000000 
#    z 0.000000 0.000000 3.273850 
# 
# 
# High freq. dielectric constant tensor:
#      x y z
#    x 1.711150 0.000000 0.000000 
#    y 0.000000 1.692820 0.000000 
#    z 0.000000 0.000000 1.696670 
# 
# From -- ./inp_files/40943.got.cif
#   From: 2010.03.12/outbox.cif.g09.slc.cpg/sg69_21_cif.got.tgz:40943.got - 2010.04.10 23:52:46.
