data_PCOD8284060
_publ_section_title
;
Structure prediction by ZEFSAII (Michael W. Deem and Ramdas Pophale) SiO2 
 PCOD8284060
Probable space group: F M M M
;
_chemical_formula_sum "Si O2"
_cell_formula_units_Z 208
_cell_length_a 23.221493
_cell_length_b 26.058236
_cell_length_c 16.356201
_cell_angle_alpha 90.000000
_cell_angle_beta 90.000000
_cell_angle_gamma 90.000000
_cell_volume 9897.319513
_symmetry_space_group_name_H-M "F M M M"
_symmetry_group_IT_number 69
_symmetry_cell_setting 'orthorhombic'
loop_
_space_group_symop_operation_xyz
x,y,z
-x,-y,z
x,-y,-z
-x,y,-z
-x,-y,-z
x,y,-z
-x,y,z
x,-y,z
x,1/2+y,1/2+z
-x,1/2-y,1/2+z
x,1/2-y,1/2-z
-x,1/2+y,1/2-z
-x,1/2-y,1/2-z
x,1/2+y,1/2-z
-x,1/2+y,1/2+z
x,1/2-y,1/2+z
1/2+x,y,1/2+z
1/2-x,-y,1/2+z
1/2+x,-y,1/2-z
1/2-x,y,1/2-z
1/2-x,-y,1/2-z
1/2+x,y,1/2-z
1/2-x,y,1/2+z
1/2+x,-y,1/2+z
1/2+x,1/2+y,z
1/2-x,1/2-y,z
1/2+x,1/2-y,-z
1/2-x,1/2+y,-z
1/2-x,1/2-y,-z
1/2+x,1/2+y,-z
1/2-x,1/2+y,z
1/2+x,1/2-y,z
loop_
_atom_site_type_symbol
_atom_site_label
_atom_site_fract_x
_atom_site_fract_y
_atom_site_fract_z
Si Si1 0.068679 0.556727 0.000000
Si Si2 0.934335 0.105829 0.663048
Si Si3 0.064865 0.689634 0.403768
Si Si4 0.384310 0.297773 0.402682
Si Si5 0.772453 0.846049 0.665934
Si Si6 0.164599 0.440960 0.753402
Si Si7 0.836076 0.887420 0.093458
O O1 0.093036 0.584544 0.079113
O O2 0.093768 0.500000 0.000000
O O3 0.000000 0.558190 0.000000
O O4 0.924839 0.166669 0.654726
O O5 0.901510 0.075970 0.734382
O O6 0.000000 0.091665 0.676462
O O7 0.058432 0.691514 0.500000
O O8 0.096951 0.741232 0.374900
O O9 0.105821 0.642452 0.378545
O O10 0.000000 0.683934 0.365385
O O11 0.394042 0.306512 0.500000
O O12 0.318518 0.309385 0.377903
O O13 0.750000 0.819763 0.750000
O O14 0.796878 0.902762 0.691117
O O15 0.719731 0.850706 0.602162
O O16 0.177312 0.500000 0.777479
O O17 0.174244 0.434387 0.655957
O O18 0.841098 0.906895 0.000000
#
# Coordination Sequence:
#
# PCOD8284060 Si02
#       7
#    16  32  32  32  32  32  32
#     4   9  16  26  44  72 108 149 188 220 256 321
#     4  10  19  32  52  82 119 155 188 226 276 338
#     4   9  19  35  57  85 115 147 186 233 284 331
#     4  10  18  32  57  86 115 150 190 232 277 332
#     4   9  20  37  56  81 114 149 184 229 284 341
#     4  10  22  39  58  82 114 149 187 237 292 341
#     4  10  21  39  61  83 109 146 193 241 284 333
#
# _framework density 21.015789999999999
#
# number of rings (size 3 to 8) (size 9 to 14) (size 15 to 20)
#    0.000    2.385    0.769    1.385    0.000    5.846 
#    0.000   11.538    0.000    9.231    0.000    3.231 
#    0.000    0.000    0.000    0.000    0.000    0.000 
#
# Total GULP energy -644374.849825 kJ/mol
# GULP energy per Si atom -12391.824035 kJ/mol
# Density = 2.096796 g / cm^3
# Si number density = 21.015790 Si / 1000 Ang^3
#
#
#
# Elastic Constant Matrix: (Units=GPa)
#
#
# Indices 1 2 3 4 5 6 
#
# 1 131.1156 18.7687 21.9150 0.0000 0.0000 0.0000
# 2 18.7687 62.9484 10.6440 0.0000 0.0000 0.0000
# 3 21.9150 10.6440 59.7077 0.0000 0.0000 0.0000
# 4 0.0000 0.0000 0.0000 25.0082 0.0000 0.0000
# 5 0.0000 0.0000 0.0000 0.0000 27.6705 0.0000
# 6 0.0000 0.0000 0.0000 0.0000 0.0000 15.2834
#
#
#
# Elastic Compliance Matrix: (Units=1/GPa)
#
#
# Indices 1 2 3 4 5 6 
#
# 1 0.008371 -0.002038 -0.002709 0.000000 0.000000 0.000000
# 2 -0.002038 0.016876 -0.002260 0.000000 0.000000 0.000000
# 3 -0.002709 -0.002260 0.018146 0.000000 0.000000 0.000000
# 4 0.000000 0.000000 0.000000 0.039987 0.000000 0.000000
# 5 0.000000 0.000000 0.000000 0.000000 0.036140 0.000000
# 6 0.000000 0.000000 0.000000 0.000000 0.000000 0.065431
#
#
# Mechanical properties :
#
#
# Convention : Reuss Voigt Hill
#
# Bulk Modulus (GPa) = 34.03956 39.60301 36.82129
# Shear Modulus (GPa) = 23.95119 27.08867 25.51993
#
# Velocity S-wave (km/s) = 3.37957 3.59411 3.48849
# Velocity P-wave (km/s) = 5.60901 6.00906 5.81248
#
# Compressibility (1/GPa) = 0.02937758
#
# Stress axis : x y z
#
# Youngs Moduli (GPa) = 119.45404 59.25618 55.10961
#
# Poissons Ratio (x) = 0.12076 0.14931
# Poissons Ratio (y) = 0.24344 0.12457
# Poissons Ratio (z) = 0.32364 0.13395
#
# Static dielectric constant tensor:
#      x y z
#    x 4.025320 0.000000 0.000000 
#    y 0.000000 3.562900 0.000000 
#    z 0.000000 0.000000 3.648870 
# 
# 
# High freq. dielectric constant tensor:
#      x y z
#    x 1.832870 0.000000 0.000000 
#    y 0.000000 1.799360 0.000000 
#    z 0.000000 0.000000 1.813730 
# 
# From -- ./inp_files/26108.got.cif
#   From: 2010.03.12/outbox.cif.g09.slc.cpg/sg69_14_cif.got.tgz:26108.got - 2010.04.10 23:52:46.
