data_PCOD8284742
_publ_section_title
;
Structure prediction by ZEFSAII (Michael W. Deem and Ramdas Pophale) SiO2 
 PCOD8284742
Probable space group: F M M M
;
_chemical_formula_sum "Si O2"
_cell_formula_units_Z 160
_cell_length_a 8.642747
_cell_length_b 33.237909
_cell_length_c 29.077806
_cell_angle_alpha 90.000000
_cell_angle_beta 90.000000
_cell_angle_gamma 90.000000
_cell_volume 8353.089394
_symmetry_space_group_name_H-M "F M M M"
_symmetry_group_IT_number 69
_symmetry_cell_setting 'orthorhombic'
loop_
_space_group_symop_operation_xyz
x,y,z
-x,-y,z
x,-y,-z
-x,y,-z
-x,-y,-z
x,y,-z
-x,y,z
x,-y,z
x,1/2+y,1/2+z
-x,1/2-y,1/2+z
x,1/2-y,1/2-z
-x,1/2+y,1/2-z
-x,1/2-y,1/2-z
x,1/2+y,1/2-z
-x,1/2+y,1/2+z
x,1/2-y,1/2+z
1/2+x,y,1/2+z
1/2-x,-y,1/2+z
1/2+x,-y,1/2-z
1/2-x,y,1/2-z
1/2-x,-y,1/2-z
1/2+x,y,1/2-z
1/2-x,y,1/2+z
1/2+x,-y,1/2+z
1/2+x,1/2+y,z
1/2-x,1/2-y,z
1/2+x,1/2-y,-z
1/2-x,1/2+y,-z
1/2-x,1/2-y,-z
1/2+x,1/2+y,-z
1/2-x,1/2+y,z
1/2+x,1/2-y,z
loop_
_atom_site_type_symbol
_atom_site_label
_atom_site_fract_x
_atom_site_fract_y
_atom_site_fract_z
Si Si1 0.680782 0.355306 0.124405
Si Si2 0.183843 0.500000 0.446570
Si Si3 0.180416 0.708545 0.701013
Si Si4 0.182202 0.791152 0.051656
Si Si5 0.683962 0.000000 0.698633
Si Si6 0.318211 0.441629 0.625734
O O1 0.500000 0.366965 0.121888
O O2 0.719457 0.328773 0.168693
O O3 0.735183 0.329814 0.080292
O O4 0.785046 0.394578 0.126008
O O5 0.236218 0.500000 0.500000
O O6 0.249401 0.539438 0.421063
O O7 0.000000 0.500000 0.442474
O O8 0.250000 0.697519 0.750000
O O9 0.250000 0.750000 0.681020
O O10 0.000000 0.715565 0.705852
O O11 0.250000 0.750000 0.072791
O O12 0.000000 0.786858 0.053986
O O13 0.244026 0.797471 0.000000
O O14 0.750000 0.000000 0.750000
O O15 0.741079 0.960719 0.671127
O O16 0.500000 0.000000 0.701048
O O17 0.500000 0.449999 0.627326
#
# Coordination Sequence:
#
# PCOD8284742 Si02
#       6
#    32  16  32  32  16  32
#     4  10  21  36  53  77 110 146 182 224 274 326
#     4  10  21  40  65  86 110 148 185 222 275 335
#     4  10  20  34  53  75 104 141 183 229 273 323
#     4   9  18  33  53  76 104 140 182 226 273 327
#     4  11  22  41  66  87 113 147 182 222 273 333
#     4  11  23  38  58  87 118 146 183 230 276 328
#
# _framework density 19.154589999999999
#
# number of rings (size 3 to 8) (size 9 to 14) (size 15 to 20)
#    0.000    1.900    0.000    6.000    0.000    4.800 
#    0.000    4.000    0.000    0.000    0.000    0.000 
#    0.000    0.000    0.000    0.000    0.000    0.000 
#
# Total GULP energy -496053.060310 kJ/mol
# GULP energy per Si atom -12401.326508 kJ/mol
# Density = 1.911099 g / cm^3
# Si number density = 19.154590 Si / 1000 Ang^3
#
#
#
# Elastic Constant Matrix: (Units=GPa)
#
#
# Indices 1 2 3 4 5 6 
#
# 1 108.9268 55.4569 58.1407 0.0000 0.0000 0.0000
# 2 55.4569 151.8127 69.8196 0.0000 0.0000 0.0000
# 3 58.1407 69.8196 140.5500 0.0000 0.0000 0.0000
# 4 0.0000 0.0000 0.0000 19.0515 0.0000 0.0000
# 5 0.0000 0.0000 0.0000 0.0000 25.3772 0.0000
# 6 0.0000 0.0000 0.0000 0.0000 0.0000 33.6164
#
#
#
# Elastic Compliance Matrix: (Units=1/GPa)
#
#
# Indices 1 2 3 4 5 6 
#
# 1 0.012683 -0.002878 -0.003817 0.000000 0.000000 0.000000
# 2 -0.002878 0.009190 -0.003375 0.000000 0.000000 0.000000
# 3 -0.003817 -0.003375 0.010370 0.000000 0.000000 0.000000
# 4 0.000000 0.000000 0.000000 0.052489 0.000000 0.000000
# 5 0.000000 0.000000 0.000000 0.000000 0.039405 0.000000
# 6 0.000000 0.000000 0.000000 0.000000 0.000000 0.029747
#
#
# Mechanical properties :
#
#
# Convention : Reuss Voigt Hill
#
# Bulk Modulus (GPa) = 82.61413 85.34710 83.98061
# Shear Modulus (GPa) = 28.08041 30.13384 29.10712
#
# Velocity S-wave (km/s) = 3.83298 3.97065 3.90242
# Velocity P-wave (km/s) = 7.92545 8.10402 8.01523
#
# Compressibility (1/GPa) = 0.01210447
#
# Stress axis : x y z
#
# Youngs Moduli (GPa) = 78.84658 108.80843 96.42755
#
# Poissons Ratio (x) = 0.31310 0.36806
# Poissons Ratio (y) = 0.22689 0.32545
# Poissons Ratio (z) = 0.30096 0.36724
#
# Static dielectric constant tensor:
#      x y z
#    x 3.515140 0.000000 0.000000 
#    y 0.000000 3.476850 0.000000 
#    z 0.000000 0.000000 -3.833110 
# 
# 
# High freq. dielectric constant tensor:
#      x y z
#    x 1.750550 0.000000 0.000000 
#    y 0.000000 1.746300 0.000000 
#    z 0.000000 0.000000 1.753070 
# 
# From -- ./inp_files/44618.got.cif
#   From: 2010.03.12/outbox.cif.g09.slc.cpg/sg69_23_cif.got.tgz:44618.got - 2010.04.10 23:52:46.
