data_PCOD8284238
_publ_section_title
;
Structure prediction by ZEFSAII (Michael W. Deem and Ramdas Pophale) SiO2 
 PCOD8284238
Probable space group: F M M M
;
_chemical_formula_sum "Si O2"
_cell_formula_units_Z 176
_cell_length_a 27.279070
_cell_length_b 19.485098
_cell_length_c 16.134761
_cell_angle_alpha 90.000000
_cell_angle_beta 90.000000
_cell_angle_gamma 90.000000
_cell_volume 8576.195872
_symmetry_space_group_name_H-M "F M M M"
_symmetry_group_IT_number 69
_symmetry_cell_setting 'orthorhombic'
loop_
_space_group_symop_operation_xyz
x,y,z
-x,-y,z
x,-y,-z
-x,y,-z
-x,-y,-z
x,y,-z
-x,y,z
x,-y,z
x,1/2+y,1/2+z
-x,1/2-y,1/2+z
x,1/2-y,1/2-z
-x,1/2+y,1/2-z
-x,1/2-y,1/2-z
x,1/2+y,1/2-z
-x,1/2+y,1/2+z
x,1/2-y,1/2+z
1/2+x,y,1/2+z
1/2-x,-y,1/2+z
1/2+x,-y,1/2-z
1/2-x,y,1/2-z
1/2-x,-y,1/2-z
1/2+x,y,1/2-z
1/2-x,y,1/2+z
1/2+x,-y,1/2+z
1/2+x,1/2+y,z
1/2-x,1/2-y,z
1/2+x,1/2-y,-z
1/2-x,1/2+y,-z
1/2-x,1/2-y,-z
1/2+x,1/2+y,-z
1/2-x,1/2+y,z
1/2+x,1/2-y,z
loop_
_atom_site_type_symbol
_atom_site_label
_atom_site_fract_x
_atom_site_fract_y
_atom_site_fract_z
Si Si1 0.232945 0.321660 0.655858
Si Si2 0.500000 0.079043 0.098851
Si Si3 0.902479 0.154965 0.401535
Si Si4 0.125500 0.693073 0.598687
Si Si5 0.054413 0.575550 0.598267
Si Si6 0.308754 0.075471 0.903739
O O1 0.250000 0.325497 0.750000
O O2 0.250000 0.250000 0.614806
O O3 0.174852 0.324673 0.647456
O O4 0.257932 0.384504 0.608256
O O5 0.548001 0.119262 0.133038
O O6 0.500000 0.000000 0.130858
O O7 0.500000 0.079429 0.000000
O O8 0.903036 0.151029 0.500000
O O9 0.897660 0.234221 0.373840
O O10 0.855161 0.115419 0.364432
O O11 0.134774 0.690299 0.500000
O O12 0.088973 0.635037 0.632668
O O13 0.052138 0.581068 0.500000
O O14 0.074147 0.500000 0.624312
O O15 0.000000 0.586581 0.634994
O O16 0.304612 0.000000 0.862484
O O17 0.318740 0.067108 0.000000
#
# Coordination Sequence:
#
# PCOD8284238 Si02
#       6
#    32  16  32  32  32  32
#     4  11  23  38  54  75 105 145 186 228 275 323
#     4   9  16  26  42  70 110 143 169 211 268 328
#     4   9  17  28  46  75 107 138 171 213 265 320
#     4  10  19  31  53  80 108 141 182 228 270 320
#     4   8  15  28  47  76 113 144 171 212 265 317
#     4  10  20  35  56  80 106 137 175 221 275 330
#
# _framework density 20.521920000000001
#
# number of rings (size 3 to 8) (size 9 to 14) (size 15 to 20)
#    0.000    2.455    1.818    1.636    1.273    4.000 
#    0.000    1.818    0.000    0.000    2.364    2.545 
#    0.000    0.000    0.000    0.000    0.000    0.000 
#
# Total GULP energy -545441.669771 kJ/mol
# GULP energy per Si atom -12396.401586 kJ/mol
# Density = 2.047521 g / cm^3
# Si number density = 20.521920 Si / 1000 Ang^3
#
#
#
# Elastic Constant Matrix: (Units=GPa)
#
#
# Indices 1 2 3 4 5 6 
#
# 1 172.9349 116.9942 12.8153 0.0000 0.0000 0.0000
# 2 116.9942 221.0182 15.0495 0.0000 0.0000 0.0000
# 3 12.8153 15.0495 17.1090 0.0000 0.0000 0.0000
# 4 0.0000 0.0000 0.0000 9.0344 0.0000 0.0000
# 5 0.0000 0.0000 0.0000 0.0000 14.2745 0.0000
# 6 0.0000 0.0000 0.0000 0.0000 0.0000 39.6831
#
#
#
# Elastic Compliance Matrix: (Units=1/GPa)
#
#
# Indices 1 2 3 4 5 6 
#
# 1 0.009129 -0.004645 -0.002752 0.000000 0.000000 0.000000
# 2 -0.004645 0.007176 -0.002833 0.000000 0.000000 0.000000
# 3 -0.002752 -0.002833 0.063002 0.000000 0.000000 0.000000
# 4 0.000000 0.000000 0.000000 0.110689 0.000000 0.000000
# 5 0.000000 0.000000 0.000000 0.000000 0.070055 0.000000
# 6 0.000000 0.000000 0.000000 0.000000 0.000000 0.025200
#
#
# Mechanical properties :
#
#
# Convention : Reuss Voigt Hill
#
# Bulk Modulus (GPa) = 16.99319 77.86445 47.42882
# Shear Modulus (GPa) = 15.36918 30.34526 22.85722
#
# Velocity S-wave (km/s) = 2.73960 3.84953 3.34098
# Velocity P-wave (km/s) = 4.27852 7.60151 6.16801
#
# Compressibility (1/GPa) = 0.05884711
#
# Stress axis : x y z
#
# Youngs Moduli (GPa) = 109.54311 139.35051 15.87242
#
# Poissons Ratio (x) = 0.64727 0.04368
# Poissons Ratio (y) = 0.50881 0.04497
# Poissons Ratio (z) = 0.30148 0.39479
#
# Static dielectric constant tensor:
#      x y z
#    x 3.878640 0.000000 0.000000 
#    y 0.000000 4.161490 0.000000 
#    z 0.000000 0.000000 3.040730 
# 
# 
# High freq. dielectric constant tensor:
#      x y z
#    x 1.807990 0.000000 0.000000 
#    y 0.000000 1.819350 0.000000 
#    z 0.000000 0.000000 1.744390 
# 
# From -- ./inp_files/26720.got.cif
#   From: 2010.03.12/outbox.cif.g09.slc.cpg/sg69_14_cif.got.tgz:26720.got - 2010.04.10 23:52:46.
