data_PCOD8284998
_publ_section_title
;
Structure prediction by ZEFSAII (Michael W. Deem and Ramdas Pophale) SiO2 
 PCOD8284998
Probable space group: F M M M
;
_chemical_formula_sum "Si O2"
_cell_formula_units_Z 128
_cell_length_a 14.439205
_cell_length_b 27.365185
_cell_length_c 16.141533
_cell_angle_alpha 90.000000
_cell_angle_beta 90.000000
_cell_angle_gamma 90.000000
_cell_volume 6378.028406
_symmetry_space_group_name_H-M "F M M M"
_symmetry_group_IT_number 69
_symmetry_cell_setting 'orthorhombic'
loop_
_space_group_symop_operation_xyz
x,y,z
-x,-y,z
x,-y,-z
-x,y,-z
-x,-y,-z
x,y,-z
-x,y,z
x,-y,z
x,1/2+y,1/2+z
-x,1/2-y,1/2+z
x,1/2-y,1/2-z
-x,1/2+y,1/2-z
-x,1/2-y,1/2-z
x,1/2+y,1/2-z
-x,1/2+y,1/2+z
x,1/2-y,1/2+z
1/2+x,y,1/2+z
1/2-x,-y,1/2+z
1/2+x,-y,1/2-z
1/2-x,y,1/2-z
1/2-x,-y,1/2-z
1/2+x,y,1/2-z
1/2-x,y,1/2+z
1/2+x,-y,1/2+z
1/2+x,1/2+y,z
1/2-x,1/2-y,z
1/2+x,1/2-y,-z
1/2-x,1/2+y,-z
1/2-x,1/2-y,-z
1/2+x,1/2+y,-z
1/2-x,1/2+y,z
1/2+x,1/2-y,z
loop_
_atom_site_type_symbol
_atom_site_label
_atom_site_fract_x
_atom_site_fract_y
_atom_site_fract_z
Si Si1 0.000000 0.554203 0.401433
Si Si2 0.818126 0.896027 0.323410
Si Si3 0.500000 0.057704 0.096605
Si Si4 0.892701 0.196240 0.235963
Si Si5 0.352017 0.129532 0.592560
O O1 0.088617 0.584430 0.369600
O O2 0.000000 0.500000 0.361104
O O3 0.000000 0.549221 0.500000
O O4 0.750000 0.918330 0.250000
O O5 0.908390 0.926570 0.351139
O O6 0.845757 0.841565 0.297826
O O7 0.754047 0.888406 0.404095
O O8 0.500000 0.000000 0.093941
O O9 0.500000 0.077237 0.000000
O O10 0.849495 0.250000 0.250000
O O11 0.873274 0.178940 0.142339
O O12 0.000000 0.197470 0.257159
O O13 0.382929 0.141044 0.500000
#
# Coordination Sequence:
#
# PCOD8284998 Si02
#       5
#    16  32  16  32  32
#     4   9  18  33  55  84 116 146 180 233 297 343
#     4  10  22  39  62  89 118 158 203 245 296 362
#     4  11  24  43  63  86 125 169 206 251 305 358
#     4  10  20  38  62  83 114 156 194 234 295 362
#     4  10  20  36  60  89 119 149 192 247 296 350
#
# _framework density 20.068898000000001
#
# number of rings (size 3 to 8) (size 9 to 14) (size 15 to 20)
#    0.000    2.000    2.500    0.750    0.000    6.000 
#    0.000   15.000    0.000    0.000    0.000    0.000 
#    0.000    0.000    0.000    0.000    0.000    0.000 
#
# Total GULP energy -396439.122275 kJ/mol
# GULP energy per Si atom -12388.722571 kJ/mol
# Density = 2.002322 g / cm^3
# Si number density = 20.068898 Si / 1000 Ang^3
#
#
#
# Elastic Constant Matrix: (Units=GPa)
#
#
# Indices 1 2 3 4 5 6 
#
# 1 139.9040 48.0604 44.0919 0.0000 0.0000 0.0000
# 2 48.0604 135.3728 55.4422 0.0000 0.0000 0.0000
# 3 44.0919 55.4422 88.8784 0.0000 0.0000 0.0000
# 4 0.0000 0.0000 0.0000 28.6070 0.0000 0.0000
# 5 0.0000 0.0000 0.0000 0.0000 25.1948 0.0000
# 6 0.0000 0.0000 0.0000 0.0000 0.0000 -1.2139
#
#
#
# Elastic Compliance Matrix: (Units=1/GPa)
#
#
# Indices 1 2 3 4 5 6 
#
# 1 0.008784 -0.001792 -0.003240 0.000000 0.000000 0.000000
# 2 -0.001792 0.010287 -0.005528 0.000000 0.000000 0.000000
# 3 -0.003240 -0.005528 0.016307 0.000000 0.000000 0.000000
# 4 0.000000 0.000000 0.000000 0.034956 0.000000 0.000000
# 5 0.000000 0.000000 0.000000 0.000000 0.039691 0.000000
# 6 0.000000 0.000000 0.000000 0.000000 0.000000 -0.823810
#
#
# Mechanical properties :
#
#
# Convention : Reuss Voigt Hill
#
# Bulk Modulus (GPa) = 70.13338 73.26047 71.69692
# Shear Modulus (GPa) = -7.26839 24.95497 8.84329
#
# Velocity S-wave (km/s) = -1.90515 3.53011 2.10144
# Velocity P-wave (km/s) = 5.49388 7.29378 6.45686
#
# Compressibility (1/GPa) = 0.01425855
#
# Stress axis : x y z
#
# Youngs Moduli (GPa) = 113.83791 97.20802 61.32194
#
# Poissons Ratio (x) = 0.17416 0.19870
# Poissons Ratio (y) = 0.20395 0.33901
# Poissons Ratio (z) = 0.36887 0.53740
#
# Static dielectric constant tensor:
#      x y z
#    x 4.039030 0.000000 0.000000 
#    y 0.000000 3.668110 0.000000 
#    z 0.000000 0.000000 3.750800 
# 
# 
# High freq. dielectric constant tensor:
#      x y z
#    x 1.808930 0.000000 0.000000 
#    y 0.000000 1.767340 0.000000 
#    z 0.000000 0.000000 1.772530 
# 
# From -- ./inp_files/21599.got.cif
#   From: 2010.03.12/outbox.cif.g09.slc.cpg/sg69_11_cif.got.tgz:21599.got - 2010.04.10 23:52:46.
