data_PCOD8284626
_publ_section_title
;
Structure prediction by ZEFSAII (Michael W. Deem and Ramdas Pophale) SiO2 
 PCOD8284626
Probable space group: F M M M
;
_chemical_formula_sum "Si O2"
_cell_formula_units_Z 176
_cell_length_a 22.355317
_cell_length_b 16.910492
_cell_length_c 26.823287
_cell_angle_alpha 90.000000
_cell_angle_beta 90.000000
_cell_angle_gamma 90.000000
_cell_volume 10140.259573
_symmetry_space_group_name_H-M "F M M M"
_symmetry_group_IT_number 69
_symmetry_cell_setting 'orthorhombic'
loop_
_space_group_symop_operation_xyz
x,y,z
-x,-y,z
x,-y,-z
-x,y,-z
-x,-y,-z
x,y,-z
-x,y,z
x,-y,z
x,1/2+y,1/2+z
-x,1/2-y,1/2+z
x,1/2-y,1/2-z
-x,1/2+y,1/2-z
-x,1/2-y,1/2-z
x,1/2+y,1/2-z
-x,1/2+y,1/2+z
x,1/2-y,1/2+z
1/2+x,y,1/2+z
1/2-x,-y,1/2+z
1/2+x,-y,1/2-z
1/2-x,y,1/2-z
1/2-x,-y,1/2-z
1/2+x,y,1/2-z
1/2-x,y,1/2+z
1/2+x,-y,1/2+z
1/2+x,1/2+y,z
1/2-x,1/2-y,z
1/2+x,1/2-y,-z
1/2-x,1/2+y,-z
1/2-x,1/2-y,-z
1/2+x,1/2+y,-z
1/2-x,1/2+y,z
1/2+x,1/2-y,z
loop_
_atom_site_type_symbol
_atom_site_label
_atom_site_fract_x
_atom_site_fract_y
_atom_site_fract_z
Si Si1 0.851145 0.342239 0.442940
Si Si2 0.432256 0.587558 0.863571
Si Si3 0.116291 0.675784 0.899875
Si Si4 0.224391 0.091208 0.557294
Si Si5 0.500000 0.090777 0.940970
Si Si6 0.929998 0.241658 0.806120
O O1 0.863246 0.363606 0.500000
O O2 0.890475 0.402691 0.411279
O O3 0.869899 0.252684 0.432655
O O4 0.781515 0.354887 0.429957
O O5 0.500000 0.600170 0.882179
O O6 0.422973 0.500000 0.840801
O O7 0.416877 0.651095 0.821089
O O8 0.171503 0.615768 0.905222
O O9 0.106764 0.699379 0.842052
O O10 0.057615 0.634353 0.920226
O O11 0.203719 0.104443 0.500000
O O12 0.240721 0.000000 0.566713
O O13 0.500000 0.000000 0.922778
O O14 0.500000 0.095629 0.000000
O O15 0.906094 0.250000 0.750000
O O16 0.000000 0.263092 0.809932
#
# Coordination Sequence:
#
# PCOD8284626 Si02
#       6
#    32  32  32  32  16  32
#     4  10  20  32  51  76 104 140 183 217 251 311
#     4   9  18  32  50  75 104 132 166 213 275 325
#     4  11  20  34  53  77 102 140 180 218 262 316
#     4  10  20  34  51  74 108 146 179 216 262 313
#     4  11  22  34  49  76 115 147 170 209 266 322
#     4   9  18  35  56  75 101 133 173 226 270 315
#
# _framework density 17.356556999999999
#
# number of rings (size 3 to 8) (size 9 to 14) (size 15 to 20)
#    0.000    2.091    0.909    3.273    1.273    4.364 
#    0.000    2.727    0.000    8.727    0.000    6.364 
#    0.000    0.000    0.000    0.000    0.000    0.000 
#
# Total GULP energy -545659.541250 kJ/mol
# GULP energy per Si atom -12401.353210 kJ/mol
# Density = 1.731705 g / cm^3
# Si number density = 17.356557 Si / 1000 Ang^3
#
#
#
# Elastic Constant Matrix: (Units=GPa)
#
#
# Indices 1 2 3 4 5 6 
#
# 1 105.8422 58.2527 63.3098 0.0000 0.0000 0.0000
# 2 58.2527 111.9146 48.9910 0.0000 0.0000 0.0000
# 3 63.3098 48.9910 115.6602 0.0000 0.0000 0.0000
# 4 0.0000 0.0000 0.0000 17.4708 0.0000 0.0000
# 5 0.0000 0.0000 0.0000 0.0000 1.2195 0.0000
# 6 0.0000 0.0000 0.0000 0.0000 0.0000 34.5639
#
#
#
# Elastic Compliance Matrix: (Units=1/GPa)
#
#
# Indices 1 2 3 4 5 6 
#
# 1 0.016571 -0.005714 -0.006650 0.000000 0.000000 0.000000
# 2 -0.005714 0.012940 -0.002353 0.000000 0.000000 0.000000
# 3 -0.006650 -0.002353 0.013283 0.000000 0.000000 0.000000
# 4 0.000000 0.000000 0.000000 0.057238 0.000000 0.000000
# 5 0.000000 0.000000 0.000000 0.000000 0.819993 0.000000
# 6 0.000000 0.000000 0.000000 0.000000 0.000000 0.028932
#
#
# Mechanical properties :
#
#
# Convention : Reuss Voigt Hill
#
# Bulk Modulus (GPa) = 74.85837 74.94712 74.90274
# Shear Modulus (GPa) = 5.08728 21.50841 13.29784
#
# Velocity S-wave (km/s) = 1.71389 3.52406 2.77096
# Velocity P-wave (km/s) = 6.86585 7.73520 7.31345
#
# Compressibility (1/GPa) = 0.01335856
#
# Stress axis : x y z
#
# Youngs Moduli (GPa) = 60.34765 77.28106 75.28502
#
# Poissons Ratio (x) = 0.44159 0.50065
# Poissons Ratio (y) = 0.34483 0.17716
# Poissons Ratio (z) = 0.40131 0.18186
#
# Static dielectric constant tensor:
#      x y z
#    x 3.318020 0.000000 0.000000 
#    y 0.000000 3.393160 0.000000 
#    z 0.000000 0.000000 3.098430 
# 
# 
# High freq. dielectric constant tensor:
#      x y z
#    x 1.671270 0.000000 0.000000 
#    y 0.000000 1.683550 0.000000 
#    z 0.000000 0.000000 1.644590 
# 
# From -- ./inp_files/23589.got.cif
#   From: 2010.03.12/outbox.cif.g09.slc.cpg/sg69_12_cif.got.tgz:23589.got - 2010.04.10 23:52:46.
