data_PCOD8284541
_publ_section_title
;
Structure prediction by ZEFSAII (Michael W. Deem and Ramdas Pophale) SiO2 
 PCOD8284541
Probable space group: F M M M
;
_chemical_formula_sum "Si O2"
_cell_formula_units_Z 160
_cell_length_a 19.021209
_cell_length_b 30.271414
_cell_length_c 14.539470
_cell_angle_alpha 90.000000
_cell_angle_beta 90.000000
_cell_angle_gamma 90.000000
_cell_volume 8371.810722
_symmetry_space_group_name_H-M "F M M M"
_symmetry_group_IT_number 69
_symmetry_cell_setting 'orthorhombic'
loop_
_space_group_symop_operation_xyz
x,y,z
-x,-y,z
x,-y,-z
-x,y,-z
-x,-y,-z
x,y,-z
-x,y,z
x,-y,z
x,1/2+y,1/2+z
-x,1/2-y,1/2+z
x,1/2-y,1/2-z
-x,1/2+y,1/2-z
-x,1/2-y,1/2-z
x,1/2+y,1/2-z
-x,1/2+y,1/2+z
x,1/2-y,1/2+z
1/2+x,y,1/2+z
1/2-x,-y,1/2+z
1/2+x,-y,1/2-z
1/2-x,y,1/2-z
1/2-x,-y,1/2-z
1/2+x,y,1/2-z
1/2-x,y,1/2+z
1/2+x,-y,1/2+z
1/2+x,1/2+y,z
1/2-x,1/2-y,z
1/2+x,1/2-y,-z
1/2-x,1/2+y,-z
1/2-x,1/2-y,-z
1/2+x,1/2+y,-z
1/2-x,1/2+y,z
1/2+x,1/2-y,z
loop_
_atom_site_type_symbol
_atom_site_label
_atom_site_fract_x
_atom_site_fract_y
_atom_site_fract_z
Si Si1 0.833254 0.179723 0.757586
Si Si2 0.216404 0.949578 0.500000
Si Si3 0.186129 0.050771 0.307503
Si Si4 0.080533 0.093132 0.191912
Si Si5 0.882996 0.948466 0.000000
Si Si6 0.166960 0.245738 0.603181
O O1 0.750000 0.171742 0.750000
O O2 0.873175 0.134621 0.777086
O O3 0.856323 0.202226 0.660612
O O4 0.857692 0.210955 0.841679
O O5 0.185370 0.926041 0.591509
O O6 0.299958 0.945568 0.500000
O O7 0.191464 0.000000 0.500000
O O8 0.250000 0.072807 0.250000
O O9 0.111567 0.054209 0.256023
O O10 0.205871 0.000000 0.323285
O O11 0.086874 0.078047 0.086828
O O12 0.000000 0.102262 0.216407
O O13 0.907885 0.000000 0.000000
O O14 0.134097 0.244099 0.500000
O O15 0.250000 0.250000 0.596736
#
# Coordination Sequence:
#
# PCOD8284541 Si02
#       6
#    32  16  32  32  16  32
#     4   9  19  35  57  87 115 145 192 239 287 345
#     4   9  18  35  61  87 104 133 195 254 292 341
#     4  10  19  36  60  83 110 147 194 244 295 347
#     4  12  25  38  54  84 124 159 193 239 292 356
#     4  11  23  40  61  85 116 155 201 255 308 352
#     4   8  15  33  60  86 112 144 184 239 294 341
#
# _framework density 19.111754999999999
#
# number of rings (size 3 to 8) (size 9 to 14) (size 15 to 20)
#    0.000    2.200    2.000    2.700    1.400    2.000 
#    1.800    2.500    0.000    3.000    0.000    0.000 
#    0.000    0.000    0.000    0.000    0.000    0.000 
#
# Total GULP energy -495609.742174 kJ/mol
# GULP energy per Si atom -12390.243554 kJ/mol
# Density = 1.906826 g / cm^3
# Si number density = 19.111755 Si / 1000 Ang^3
#
#
#
# Elastic Constant Matrix: (Units=GPa)
#
#
# Indices 1 2 3 4 5 6 
#
# 1 85.1058 24.2867 50.7676 0.0000 0.0000 0.0000
# 2 24.2867 64.7846 39.4183 0.0000 0.0000 0.0000
# 3 50.7676 39.4183 189.3689 0.0000 0.0000 0.0000
# 4 0.0000 0.0000 0.0000 23.5943 0.0000 0.0000
# 5 0.0000 0.0000 0.0000 0.0000 12.4973 0.0000
# 6 0.0000 0.0000 0.0000 0.0000 0.0000 4.0940
#
#
#
# Elastic Compliance Matrix: (Units=1/GPa)
#
#
# Indices 1 2 3 4 5 6 
#
# 1 0.014669 -0.003557 -0.003192 0.000000 0.000000 0.000000
# 2 -0.003557 0.018537 -0.002905 0.000000 0.000000 0.000000
# 3 -0.003192 -0.002905 0.006741 0.000000 0.000000 0.000000
# 4 0.000000 0.000000 0.000000 0.042383 0.000000 0.000000
# 5 0.000000 0.000000 0.000000 0.000000 0.080017 0.000000
# 6 0.000000 0.000000 0.000000 0.000000 0.000000 0.244258
#
#
# Mechanical properties :
#
#
# Convention : Reuss Voigt Hill
#
# Bulk Modulus (GPa) = 48.45216 63.13384 55.79300
# Shear Modulus (GPa) = 11.55286 23.02291 17.28789
#
# Velocity S-wave (km/s) = 2.46130 3.47457 3.01087
# Velocity P-wave (km/s) = 5.78657 7.01445 6.42989
#
# Compressibility (1/GPa) = 0.02063892
#
# Stress axis : x y z
#
# Youngs Moduli (GPa) = 68.16906 53.94692 148.34161
#
# Poissons Ratio (x) = 0.19189 0.47355
# Poissons Ratio (y) = 0.24248 0.43092
# Poissons Ratio (z) = 0.21762 0.15671
#
# Static dielectric constant tensor:
#      x y z
#    x 3.137850 0.000000 0.000000 
#    y 0.000000 3.382240 0.000000 
#    z 0.000000 0.000000 4.185410 
# 
# 
# High freq. dielectric constant tensor:
#      x y z
#    x 1.697300 0.000000 0.000000 
#    y 0.000000 1.732840 0.000000 
#    z 0.000000 0.000000 1.764320 
# 
# From -- ./inp_files/15668.got.cif
#   From: 2010.03.12/outbox.cif.g09.slc.cpg/sg69_8_cif.got.tgz:15668.got - 2010.04.10 23:52:46.
