data_PCOD8284918
_publ_section_title
;
Structure prediction by ZEFSAII (Michael W. Deem and Ramdas Pophale) SiO2 
 PCOD8284918
Probable space group: F M M M
;
_chemical_formula_sum "Si O2"
_cell_formula_units_Z 176
_cell_length_a 15.018193
_cell_length_b 18.576734
_cell_length_c 27.269313
_cell_angle_alpha 90.000000
_cell_angle_beta 90.000000
_cell_angle_gamma 90.000000
_cell_volume 7607.837724
_symmetry_space_group_name_H-M "F M M M"
_symmetry_group_IT_number 69
_symmetry_cell_setting 'orthorhombic'
loop_
_space_group_symop_operation_xyz
x,y,z
-x,-y,z
x,-y,-z
-x,y,-z
-x,-y,-z
x,y,-z
-x,y,z
x,-y,z
x,1/2+y,1/2+z
-x,1/2-y,1/2+z
x,1/2-y,1/2-z
-x,1/2+y,1/2-z
-x,1/2-y,1/2-z
x,1/2+y,1/2-z
-x,1/2+y,1/2+z
x,1/2-y,1/2+z
1/2+x,y,1/2+z
1/2-x,-y,1/2+z
1/2+x,-y,1/2-z
1/2-x,y,1/2-z
1/2-x,-y,1/2-z
1/2+x,y,1/2-z
1/2-x,y,1/2+z
1/2+x,-y,1/2+z
1/2+x,1/2+y,z
1/2-x,1/2-y,z
1/2+x,1/2-y,-z
1/2-x,1/2+y,-z
1/2-x,1/2-y,-z
1/2+x,1/2+y,-z
1/2-x,1/2+y,z
1/2+x,1/2-y,z
loop_
_atom_site_type_symbol
_atom_site_label
_atom_site_fract_x
_atom_site_fract_y
_atom_site_fract_z
Si Si1 0.847433 0.688729 0.348104
Si Si2 0.714927 0.137589 0.444132
Si Si3 0.098683 0.579177 0.721259
Si Si4 0.899618 0.915968 0.590804
Si Si5 0.900041 0.000000 0.057331
Si Si6 0.651894 0.840289 0.184560
O O1 0.826476 0.696758 0.406672
O O2 0.905632 0.619695 0.331661
O O3 0.755425 0.670327 0.322121
O O4 0.892507 0.762247 0.327972
O O5 0.695897 0.161913 0.500000
O O6 0.821519 0.126144 0.438346
O O7 0.659633 0.067752 0.427761
O O8 0.146297 0.500000 0.717073
O O9 0.142429 0.633337 0.760131
O O10 0.000000 0.564964 0.739667
O O11 0.889964 0.899921 0.648566
O O12 0.000000 0.893260 0.573372
O O13 0.885967 0.000000 0.581201
O O14 0.000000 0.000000 0.081742
O O15 0.914773 0.000000 0.000000
#
# Coordination Sequence:
#
# PCOD8284918 Si02
#       6
#    32  32  32  32  16  32
#     4  10  23  39  60  89 122 163 211 258 306 376
#     4  10  21  39  62  89 125 167 211 264 322 371
#     4  11  24  39  59  90 124 158 201 258 318 379
#     4  10  20  35  60  92 124 162 213 266 316 381
#     4   9  18  34  57  83 112 155 206 254 307 361
#     4  10  21  40  60  86 122 163 205 251 319 381
#
# _framework density 23.134036999999999
#
# number of rings (size 3 to 8) (size 9 to 14) (size 15 to 20)
#    0.000    1.909    0.909    2.182    1.273    8.364 
#    0.000    8.182    0.000    0.000    0.000    0.000 
#    0.000    0.000    0.000    0.000    0.000    0.000 
#
# Total GULP energy -545075.743302 kJ/mol
# GULP energy per Si atom -12388.085075 kJ/mol
# Density = 2.308138 g / cm^3
# Si number density = 23.134037 Si / 1000 Ang^3
#
#
#
# Elastic Constant Matrix: (Units=GPa)
#
#
# Indices 1 2 3 4 5 6 
#
# 1 91.6716 11.9309 11.5001 0.0000 0.0000 0.0000
# 2 11.9309 111.8579 40.7468 0.0000 0.0000 0.0000
# 3 11.5001 40.7468 139.4710 0.0000 0.0000 0.0000
# 4 0.0000 0.0000 0.0000 -0.0910 0.0000 0.0000
# 5 0.0000 0.0000 0.0000 0.0000 18.2077 0.0000
# 6 0.0000 0.0000 0.0000 0.0000 0.0000 -6.6465
#
#
#
# Elastic Compliance Matrix: (Units=1/GPa)
#
#
# Indices 1 2 3 4 5 6 
#
# 1 0.011113 -0.000953 -0.000638 0.000000 0.000000 0.000000
# 2 -0.000953 0.010086 -0.002868 0.000000 0.000000 0.000000
# 3 -0.000638 -0.002868 0.008060 0.000000 0.000000 0.000000
# 4 0.000000 0.000000 0.000000-10.988130 0.000000 0.000000
# 5 0.000000 0.000000 0.000000 0.000000 0.054922 0.000000
# 6 0.000000 0.000000 0.000000 0.000000 0.000000 -0.150456
#
#
# Mechanical properties :
#
#
# Convention : Reuss Voigt Hill
#
# Bulk Modulus (GPa) = 49.16078 52.37291 50.76685
# Shear Modulus (GPa) = -0.45295 20.88223 10.21464
#
# Velocity S-wave (km/s) = -0.44297 3.00769 2.10357
# Velocity P-wave (km/s) = 4.58638 5.89489 5.28132
#
# Compressibility (1/GPa) = 0.02034142
#
# Stress axis : x y z
#
# Youngs Moduli (GPa) = 89.98842 99.14383 124.06187
#
# Poissons Ratio (x) = 0.09448 0.07914
# Poissons Ratio (y) = 0.08575 0.35583
# Poissons Ratio (z) = 0.05740 0.28436
#
# Static dielectric constant tensor:
#      x y z
#    x 4.212100 0.000000 0.000000 
#    y 0.000000 4.780380 0.000000 
#    z 0.000000 0.000000 4.024240 
# 
# 
# High freq. dielectric constant tensor:
#      x y z
#    x 1.910620 0.000000 0.000000 
#    y 0.000000 1.911150 0.000000 
#    z 0.000000 0.000000 1.904540 
# 
# From -- ./inp_files/41868.got.cif
#   From: 2010.03.12/outbox.cif.g09.slc.cpg/sg69_21_cif.got.tgz:41868.got - 2010.04.10 23:52:46.
