data_PCOD8284806
_publ_section_title
;
Structure prediction by ZEFSAII (Michael W. Deem and Ramdas Pophale) SiO2 
 PCOD8284806
Probable space group: F M M M
;
_chemical_formula_sum "Si O2"
_cell_formula_units_Z 160
_cell_length_a 21.975352
_cell_length_b 22.544020
_cell_length_c 16.858445
_cell_angle_alpha 90.000000
_cell_angle_beta 90.000000
_cell_angle_gamma 90.000000
_cell_volume 8351.889020
_symmetry_space_group_name_H-M "F M M M"
_symmetry_group_IT_number 69
_symmetry_cell_setting 'orthorhombic'
loop_
_space_group_symop_operation_xyz
x,y,z
-x,-y,z
x,-y,-z
-x,y,-z
-x,-y,-z
x,y,-z
-x,y,z
x,-y,z
x,1/2+y,1/2+z
-x,1/2-y,1/2+z
x,1/2-y,1/2-z
-x,1/2+y,1/2-z
-x,1/2-y,1/2-z
x,1/2+y,1/2-z
-x,1/2+y,1/2+z
x,1/2-y,1/2+z
1/2+x,y,1/2+z
1/2-x,-y,1/2+z
1/2+x,-y,1/2-z
1/2-x,y,1/2-z
1/2-x,-y,1/2-z
1/2+x,y,1/2-z
1/2-x,y,1/2+z
1/2+x,-y,1/2+z
1/2+x,1/2+y,z
1/2-x,1/2-y,z
1/2+x,1/2-y,-z
1/2-x,1/2+y,-z
1/2-x,1/2-y,-z
1/2+x,1/2+y,-z
1/2-x,1/2+y,z
1/2+x,1/2-y,z
loop_
_atom_site_type_symbol
_atom_site_label
_atom_site_fract_x
_atom_site_fract_y
_atom_site_fract_z
Si Si1 0.785855 0.159702 0.672777
Si Si2 0.000000 0.315597 0.906500
Si Si3 0.167695 0.627364 0.410319
Si Si4 0.376887 0.743211 0.408747
Si Si5 0.000000 0.932750 0.687450
Si Si6 0.629612 0.932864 0.744169
O O1 0.750000 0.181336 0.750000
O O2 0.739136 0.138792 0.605019
O O3 0.822376 0.215783 0.641401
O O4 0.831126 0.106367 0.695361
O O5 0.059205 0.280836 0.873932
O O6 0.000000 0.384687 0.882731
O O7 0.000000 0.312806 0.000000
O O8 0.160462 0.603170 0.500000
O O9 0.127185 0.686371 0.398702
O O10 0.142784 0.579731 0.348099
O O11 0.369067 0.723975 0.500000
O O12 0.058368 0.922107 0.742342
O O13 0.000000 0.000000 0.651690
O O14 0.648537 0.000000 0.762559
#
# Coordination Sequence:
#
# PCOD8284806 Si02
#       6
#    32  16  32  32  16  32
#     4  10  20  34  57  82 113 149 188 228 280 335
#     4  10  20  36  61  88 115 149 181 230 289 338
#     4  10  22  37  56  81 113 154 190 228 277 333
#     4  10  20  36  56  84 118 146 181 230 283 336
#     4  10  20  40  62  83 113 149 187 233 287 335
#     4  10  22  39  59  83 112 146 190 242 284 327
#
# _framework density 19.157342
#
# number of rings (size 3 to 8) (size 9 to 14) (size 15 to 20)
#    0.000    2.000    2.000    1.200    0.000   12.200 
#    0.000    2.500    0.000    3.600    0.000    0.000 
#    0.000    0.000    0.000    0.000    0.000    0.000 
#
# Total GULP energy -496062.245042 kJ/mol
# GULP energy per Si atom -12401.556126 kJ/mol
# Density = 1.911374 g / cm^3
# Si number density = 19.157342 Si / 1000 Ang^3
#
#
#
# Elastic Constant Matrix: (Units=GPa)
#
#
# Indices 1 2 3 4 5 6 
#
# 1 112.5438 24.1823 15.0768 0.0000 0.0000 0.0000
# 2 24.1823 56.3345 15.9683 0.0000 0.0000 0.0000
# 3 15.0768 15.9683 40.6089 0.0000 0.0000 0.0000
# 4 0.0000 0.0000 0.0000 30.8187 0.0000 0.0000
# 5 0.0000 0.0000 0.0000 0.0000 24.3221 0.0000
# 6 0.0000 0.0000 0.0000 0.0000 0.0000 25.2967
#
#
#
# Elastic Compliance Matrix: (Units=1/GPa)
#
#
# Indices 1 2 3 4 5 6 
#
# 1 0.009971 -0.003636 -0.002272 0.000000 0.000000 0.000000
# 2 -0.003636 0.021304 -0.007027 0.000000 0.000000 0.000000
# 3 -0.002272 -0.007027 0.028232 0.000000 0.000000 0.000000
# 4 0.000000 0.000000 0.000000 0.032448 0.000000 0.000000
# 5 0.000000 0.000000 0.000000 0.000000 0.041115 0.000000
# 6 0.000000 0.000000 0.000000 0.000000 0.000000 0.039531
#
#
# Mechanical properties :
#
#
# Convention : Reuss Voigt Hill
#
# Bulk Modulus (GPa) = 29.73005 35.54912 32.63959
# Shear Modulus (GPa) = 23.84547 26.37148 25.10848
#
# Velocity S-wave (km/s) = 3.53188 3.71424 3.62421
# Velocity P-wave (km/s) = 5.67317 6.08201 5.88114
#
# Compressibility (1/GPa) = 0.03363600
#
# Stress axis : x y z
#
# Youngs Moduli (GPa) = 100.28966 46.93988 35.42090
#
# Poissons Ratio (x) = 0.17068 0.08048
# Poissons Ratio (y) = 0.36467 0.24891
# Poissons Ratio (z) = 0.22787 0.32985
#
# Static dielectric constant tensor:
#      x y z
#    x 3.791320 0.000000 0.000000 
#    y 0.000000 3.416190 0.000000 
#    z 0.000000 0.000000 3.438790 
# 
# 
# High freq. dielectric constant tensor:
#      x y z
#    x 1.758720 0.000000 0.000000 
#    y 0.000000 1.739840 0.000000 
#    z 0.000000 0.000000 1.737420 
# 
# From -- ./inp_files/24609.got.cif
#   From: 2010.03.12/outbox.cif.g09.slc.cpg/sg69_13_cif.got.tgz:24609.got - 2010.04.10 23:52:46.
