data_PCOD8284344
_publ_section_title
;
Structure prediction by ZEFSAII (Michael W. Deem and Ramdas Pophale) SiO2 
 PCOD8284344
Probable space group: F M M M
;
_chemical_formula_sum "Si O2"
_cell_formula_units_Z 128
_cell_length_a 34.152966
_cell_length_b 25.216299
_cell_length_c 8.844769
_cell_angle_alpha 90.000000
_cell_angle_beta 90.000000
_cell_angle_gamma 90.000000
_cell_volume 7617.215914
_symmetry_space_group_name_H-M "F M M M"
_symmetry_group_IT_number 69
_symmetry_cell_setting 'orthorhombic'
loop_
_space_group_symop_operation_xyz
x,y,z
-x,-y,z
x,-y,-z
-x,y,-z
-x,-y,-z
x,y,-z
-x,y,z
x,-y,z
x,1/2+y,1/2+z
-x,1/2-y,1/2+z
x,1/2-y,1/2-z
-x,1/2+y,1/2-z
-x,1/2-y,1/2-z
x,1/2+y,1/2-z
-x,1/2+y,1/2+z
x,1/2-y,1/2+z
1/2+x,y,1/2+z
1/2-x,-y,1/2+z
1/2+x,-y,1/2-z
1/2-x,y,1/2-z
1/2-x,-y,1/2-z
1/2+x,y,1/2-z
1/2-x,y,1/2+z
1/2+x,-y,1/2+z
1/2+x,1/2+y,z
1/2-x,1/2-y,z
1/2+x,1/2-y,-z
1/2-x,1/2+y,-z
1/2-x,1/2-y,-z
1/2+x,1/2+y,-z
1/2-x,1/2+y,z
1/2+x,1/2-y,z
loop_
_atom_site_type_symbol
_atom_site_label
_atom_site_fract_x
_atom_site_fract_y
_atom_site_fract_z
Si Si1 0.707786 0.000000 0.677882
Si Si2 0.709138 0.193413 0.820175
Si Si3 0.000000 0.437029 0.828740
Si Si4 0.160747 0.896470 0.822288
Si Si5 0.422220 0.559988 0.176835
O O1 0.750000 0.000000 0.750000
O O2 0.684281 0.051693 0.731047
O O3 0.712509 0.000000 0.500000
O O4 0.698172 0.250000 0.750000
O O5 0.750000 0.172707 0.750000
O O6 0.675059 0.153037 0.775507
O O7 0.713081 0.197982 0.000000
O O8 0.039365 0.414119 0.752666
O O9 0.000000 0.500000 0.808753
O O10 0.000000 0.418216 0.000000
O O11 0.115200 0.904410 0.782291
O O12 0.166932 0.885674 0.000000
O O13 0.414799 0.500000 0.235635
O O14 0.429651 0.558916 0.000000
#
# Coordination Sequence:
#
# PCOD8284344 Si02
#       5
#    16  32  16  32  32
#     4  10  20  32  46  67  98 133 165 196 239 292
#     4  11  22  37  55  74  96 127 167 212 256 296
#     4   9  17  27  41  65  98 131 164 205 245 284
#     4  10  19  33  51  73 101 131 166 206 246 293
#     4   9  16  29  48  69  96 133 169 200 238 291
#
# _framework density 16.804041000000002
#
# number of rings (size 3 to 8) (size 9 to 14) (size 15 to 20)
#    0.000    2.125    1.250    4.125    0.000    5.500 
#    0.000    0.000    0.000    0.000    0.000    0.875 
#    0.000    0.000    0.000    0.000    0.000    0.000 
#
# Total GULP energy -396828.138632 kJ/mol
# GULP energy per Si atom -12400.879332 kJ/mol
# Density = 1.676579 g / cm^3
# Si number density = 16.804041 Si / 1000 Ang^3
#
#
#
# Elastic Constant Matrix: (Units=GPa)
#
#
# Indices 1 2 3 4 5 6 
#
# 1 150.9287 57.3071 62.6434 -0.0006 0.0000 -0.0001
# 2 57.3071 73.0158 40.8456 -0.0021 0.0001 -0.0001
# 3 62.6434 40.8456 84.5774 -0.0050 0.0006 0.0006
# 4 -0.0006 -0.0021 -0.0050 21.9242 0.0005 0.0003
# 5 0.0000 0.0001 0.0006 0.0005 27.9859 0.0000
# 6 -0.0001 -0.0001 0.0006 0.0003 0.0000 13.0637
#
#
#
# Elastic Compliance Matrix: (Units=1/GPa)
#
#
# Indices 1 2 3 4 5 6 
#
# 1 0.011014 -0.005591 -0.005457 -0.000001 0.000000 0.000000
# 2 -0.005591 0.021604 -0.006292 0.000001 0.000000 0.000000
# 3 -0.005457 -0.006292 0.018904 0.000004 0.000000 -0.000001
# 4 -0.000001 0.000001 0.000004 0.045612 -0.000001 -0.000001
# 5 0.000000 0.000000 0.000000 -0.000001 0.035732 0.000000
# 6 0.000000 0.000000 -0.000001 -0.000001 0.000000 0.076548
#
#
# Mechanical properties :
#
#
# Convention : Reuss Voigt Hill
#
# Bulk Modulus (GPa) = 59.38044 70.01269 64.69656
# Shear Modulus (GPa) = 20.02338 22.44315 21.23326
#
# Velocity S-wave (km/s) = 3.45567 3.65852 3.55854
# Velocity P-wave (km/s) = 7.16491 7.72017 7.44772
#
# Compressibility (1/GPa) = 0.01684056
#
# Stress axis : x y z
#
# Youngs Moduli (GPa) = 90.79613 46.28781 52.89876
#
# Poissons Ratio (x) = 0.25882 0.28867
# Poissons Ratio (y) = 0.50768 0.33284
# Poissons Ratio (z) = 0.49549 0.29124
#
# Static dielectric constant tensor:
#      x y z
#    x 3.267200 0.000000 0.000000 
#    y 0.000000 2.914530 0.000000 
#    z 0.000000 0.000000 3.093270 
# 
# 
# High freq. dielectric constant tensor:
#      x y z
#    x 1.654980 0.000000 0.000000 
#    y 0.000000 1.612260 0.000000 
#    z 0.000000 0.000000 1.648620 
# 
# From -- ./inp_files/4775.got.cif
#   From: 2010.03.12/outbox.cif.g09.slc.cpg/sg69_3_cif.got.tgz:4775.got - 2010.04.10 23:52:46.
