data_PCOD8284952
_publ_section_title
;
Structure prediction by ZEFSAII (Michael W. Deem and Ramdas Pophale) SiO2 
 PCOD8284952
Probable space group: F M M M
;
_chemical_formula_sum "Si O2"
_cell_formula_units_Z 160
_cell_length_a 15.122706
_cell_length_b 17.013529
_cell_length_c 32.565605
_cell_angle_alpha 90.000000
_cell_angle_beta 90.000000
_cell_angle_gamma 90.000000
_cell_volume 8378.823955
_symmetry_space_group_name_H-M "F M M M"
_symmetry_group_IT_number 69
_symmetry_cell_setting 'orthorhombic'
loop_
_space_group_symop_operation_xyz
x,y,z
-x,-y,z
x,-y,-z
-x,y,-z
-x,-y,-z
x,y,-z
-x,y,z
x,-y,z
x,1/2+y,1/2+z
-x,1/2-y,1/2+z
x,1/2-y,1/2-z
-x,1/2+y,1/2-z
-x,1/2-y,1/2-z
x,1/2+y,1/2-z
-x,1/2+y,1/2+z
x,1/2-y,1/2+z
1/2+x,y,1/2+z
1/2-x,-y,1/2+z
1/2+x,-y,1/2-z
1/2-x,y,1/2-z
1/2-x,-y,1/2-z
1/2+x,y,1/2-z
1/2-x,y,1/2+z
1/2+x,-y,1/2+z
1/2+x,1/2+y,z
1/2-x,1/2-y,z
1/2+x,1/2-y,-z
1/2-x,1/2+y,-z
1/2-x,1/2-y,-z
1/2+x,1/2+y,-z
1/2-x,1/2+y,z
1/2+x,1/2-y,z
loop_
_atom_site_type_symbol
_atom_site_label
_atom_site_fract_x
_atom_site_fract_y
_atom_site_fract_z
Si Si1 0.601016 0.409170 0.700962
Si Si2 0.832373 0.307874 0.000000
Si Si3 0.758435 0.591277 0.439166
Si Si4 0.898478 0.909288 0.204516
Si Si5 0.901438 0.349962 0.500000
Si Si6 0.247143 0.160250 0.148593
O O1 0.500000 0.392534 0.688380
O O2 0.624981 0.500000 0.694228
O O3 0.616659 0.386160 0.748219
O O4 0.662807 0.356917 0.672618
O O5 0.750000 0.250000 0.000000
O O6 0.825315 0.362940 0.959498
O O7 0.913429 0.246339 0.000000
O O8 0.745107 0.500000 0.448125
O O9 0.850279 0.620173 0.459470
O O10 0.761215 0.605306 0.390873
O O11 0.837256 0.853903 0.177328
O O12 0.000000 0.894930 0.191935
O O13 0.872351 0.000000 0.197434
O O14 0.000000 0.385698 0.500000
O O15 0.250000 0.250000 0.134121
#
# Coordination Sequence:
#
# PCOD8284952 Si02
#       6
#    32  16  32  32  16  32
#     4   9  19  37  58  77 102 142 190 235 278 328
#     4   8  16  35  56  78 106 135 165 202 254 312
#     4  10  20  36  58  79 105 143 184 220 254 309
#     4   9  19  36  56  78 106 142 185 232 281 333
#     4  10  20  36  60  88 116 140 164 208 272 332
#     4  12  23  34  52  81 114 147 183 228 280 328
#
# _framework density 19.095758
#
# number of rings (size 3 to 8) (size 9 to 14) (size 15 to 20)
#    0.000    2.400    0.000    6.600    0.000    5.600 
#    0.000    5.000    0.000    2.400    0.000    0.000 
#    0.000    0.000    0.000    0.000    0.000    0.000 
#
# Total GULP energy -495916.739155 kJ/mol
# GULP energy per Si atom -12397.918479 kJ/mol
# Density = 1.905230 g / cm^3
# Si number density = 19.095758 Si / 1000 Ang^3
#
#
#
# Elastic Constant Matrix: (Units=GPa)
#
#
# Indices 1 2 3 4 5 6 
#
# 1 69.8832 21.5583 36.3674 0.0000 0.0000 0.0000
# 2 21.5583 107.1541 30.3263 0.0000 0.0000 0.0000
# 3 36.3674 30.3263 96.7694 0.0000 0.0000 0.0000
# 4 0.0000 0.0000 0.0000 31.6526 0.0000 0.0000
# 5 0.0000 0.0000 0.0000 0.0000 -26.6012 0.0000
# 6 0.0000 0.0000 0.0000 0.0000 0.0000 24.8844
#
#
#
# Elastic Compliance Matrix: (Units=1/GPa)
#
#
# Indices 1 2 3 4 5 6 
#
# 1 0.018130 -0.001887 -0.006222 0.000000 0.000000 0.000000
# 2 -0.001887 0.010437 -0.002562 0.000000 0.000000 0.000000
# 3 -0.006222 -0.002562 0.013475 0.000000 0.000000 0.000000
# 4 0.000000 0.000000 0.000000 0.031593 0.000000 0.000000
# 5 0.000000 0.000000 0.000000 0.000000 -0.037592 0.000000
# 6 0.000000 0.000000 0.000000 0.000000 0.000000 0.040186
#
#
# Mechanical properties :
#
#
# Convention : Reuss Voigt Hill
#
# Bulk Modulus (GPa) = 48.30778 50.03452 49.17115
# Shear Modulus (GPa) = 47.86098 18.35749 33.10923
#
# Velocity S-wave (km/s) = 5.01179 3.10391 4.16847
# Velocity P-wave (km/s) = 7.67094 6.25336 6.99814
#
# Compressibility (1/GPa) = 0.02070060
#
# Stress axis : x y z
#
# Youngs Moduli (GPa) = 55.15842 95.81355 74.21109
#
# Poissons Ratio (x) = 0.18075 0.46175
# Poissons Ratio (y) = 0.10406 0.19012
# Poissons Ratio (z) = 0.34320 0.24546
#
# Static dielectric constant tensor:
#      x y z
#    x 3.528130 0.000000 0.000000 
#    y 0.000000 3.746230 0.000000 
#    z 0.000000 0.000000 3.387100 
# 
# 
# High freq. dielectric constant tensor:
#      x y z
#    x 1.727070 0.000000 0.000000 
#    y 0.000000 1.747190 0.000000 
#    z 0.000000 0.000000 1.739730 
# 
# From -- ./inp_files/45705.got.cif
#   From: 2010.03.12/outbox.cif.g09.slc.cpg/sg69_23_cif.got.tgz:45705.got - 2010.04.10 23:52:46.
