data_PCOD8284367
_publ_section_title
;
Structure prediction by ZEFSAII (Michael W. Deem and Ramdas Pophale) SiO2 
 PCOD8284367
Probable space group: F M M M
;
_chemical_formula_sum "Si O2"
_cell_formula_units_Z 160
_cell_length_a 25.252913
_cell_length_b 14.997478
_cell_length_c 20.922256
_cell_angle_alpha 90.000000
_cell_angle_beta 90.000000
_cell_angle_gamma 90.000000
_cell_volume 7923.886165
_symmetry_space_group_name_H-M "F M M M"
_symmetry_group_IT_number 69
_symmetry_cell_setting 'orthorhombic'
loop_
_space_group_symop_operation_xyz
x,y,z
-x,-y,z
x,-y,-z
-x,y,-z
-x,-y,-z
x,y,-z
-x,y,z
x,-y,z
x,1/2+y,1/2+z
-x,1/2-y,1/2+z
x,1/2-y,1/2-z
-x,1/2+y,1/2-z
-x,1/2-y,1/2-z
x,1/2+y,1/2-z
-x,1/2+y,1/2+z
x,1/2-y,1/2+z
1/2+x,y,1/2+z
1/2-x,-y,1/2+z
1/2+x,-y,1/2-z
1/2-x,y,1/2-z
1/2-x,-y,1/2-z
1/2+x,y,1/2-z
1/2-x,y,1/2+z
1/2+x,-y,1/2+z
1/2+x,1/2+y,z
1/2-x,1/2-y,z
1/2+x,1/2-y,-z
1/2-x,1/2+y,-z
1/2-x,1/2-y,-z
1/2+x,1/2+y,-z
1/2-x,1/2+y,z
1/2+x,1/2-y,z
loop_
_atom_site_type_symbol
_atom_site_label
_atom_site_fract_x
_atom_site_fract_y
_atom_site_fract_z
Si Si1 0.704404 0.603463 0.884774
Si Si2 0.059102 0.677092 0.305238
Si Si3 0.617245 0.733143 0.070090
Si Si4 0.160396 0.900335 0.755799
Si Si5 0.674792 0.103717 0.116139
O O1 0.686219 0.500000 0.890590
O O2 0.666543 0.664652 0.927101
O O3 0.699565 0.636443 0.810677
O O4 0.764748 0.614485 0.906790
O O5 0.061771 0.750000 0.250000
O O6 0.074168 0.716523 0.374700
O O7 0.100571 0.601954 0.283634
O O8 0.000000 0.636670 0.310004
O O9 0.638150 0.835093 0.072093
O O10 0.590813 0.720598 0.000000
O O11 0.167435 0.852640 0.687457
O O12 0.177340 0.000000 0.740025
O O13 0.656706 0.000000 0.110977
#
# Coordination Sequence:
#
# PCOD8284367 Si02
#       5
#    32  32  32  32  32
#     4   9  19  33  53  80 112 148 185 225 268 321
#     4  10  20  37  59  80 102 134 180 231 280 328
#     4  11  23  37  54  80 113 148 185 226 274 323
#     4   9  17  32  54  82 111 138 175 227 279 325
#     4  10  19  33  53  80 113 149 186 222 266 321
#
# _framework density 20.192112999999999
#
# number of rings (size 3 to 8) (size 9 to 14) (size 15 to 20)
#    0.000    2.200    2.000    1.200    0.000    5.600 
#    0.000    4.000    0.000    0.600    0.000    7.000 
#    0.000    0.000    0.000    0.000    0.000    0.000 
#
# Total GULP energy -495690.616860 kJ/mol
# GULP energy per Si atom -12392.265422 kJ/mol
# Density = 2.014615 g / cm^3
# Si number density = 20.192113 Si / 1000 Ang^3
#
#
#
# Elastic Constant Matrix: (Units=GPa)
#
#
# Indices 1 2 3 4 5 6 
#
# 1 63.7244 2.6553 8.9155 0.0000 0.0000 0.0000
# 2 2.6553 56.2746 10.4657 0.0000 0.0000 0.0000
# 3 8.9155 10.4657 118.1597 0.0000 0.0000 0.0000
# 4 0.0000 0.0000 0.0000 19.0191 0.0000 0.0000
# 5 0.0000 0.0000 0.0000 0.0000 10.6735 0.0000
# 6 0.0000 0.0000 0.0000 0.0000 0.0000 19.0130
#
#
#
# Elastic Compliance Matrix: (Units=1/GPa)
#
#
# Indices 1 2 3 4 5 6 
#
# 1 0.015876 -0.000535 -0.001150 0.000000 0.000000 0.000000
# 2 -0.000535 0.018086 -0.001562 0.000000 0.000000 0.000000
# 3 -0.001150 -0.001562 0.008688 0.000000 0.000000 0.000000
# 4 0.000000 0.000000 0.000000 0.052579 0.000000 0.000000
# 5 0.000000 0.000000 0.000000 0.000000 0.093690 0.000000
# 6 0.000000 0.000000 0.000000 0.000000 0.000000 0.052596
#
#
# Mechanical properties :
#
#
# Convention : Reuss Voigt Hill
#
# Bulk Modulus (GPa) = 27.65832 31.35907 29.50869
# Shear Modulus (GPa) = 19.22634 24.14927 21.68781
#
# Velocity S-wave (km/s) = 3.08907 3.46204 3.28086
# Velocity P-wave (km/s) = 5.14300 5.61650 5.38496
#
# Compressibility (1/GPa) = 0.03615549
#
# Stress axis : x y z
#
# Youngs Moduli (GPa) = 62.98878 55.29245 115.09818
#
# Poissons Ratio (x) = 0.02959 0.13242
# Poissons Ratio (y) = 0.03371 0.17973
# Poissons Ratio (z) = 0.07247 0.08634
#
# Static dielectric constant tensor:
#      x y z
#    x 3.555410 0.000000 0.000000 
#    y 0.000000 3.527550 0.000000 
#    z 0.000000 0.000000 3.723650 
# 
# 
# High freq. dielectric constant tensor:
#      x y z
#    x 1.761200 0.000000 0.000000 
#    y 0.000000 1.778050 0.000000 
#    z 0.000000 0.000000 1.790150 
# 
# From -- ./inp_files/18004.got.cif
#   From: 2010.03.12/outbox.cif.g09.slc.cpg/sg69_10_cif.got.tgz:18004.got - 2010.04.10 23:52:46.
