data_PCOD8284786
_publ_section_title
;
Structure prediction by ZEFSAII (Michael W. Deem and Ramdas Pophale) SiO2 
 PCOD8284786
Probable space group: F M M M
;
_chemical_formula_sum "Si O2"
_cell_formula_units_Z 176
_cell_length_a 22.847772
_cell_length_b 26.954052
_cell_length_c 14.458427
_cell_angle_alpha 90.000000
_cell_angle_beta 90.000000
_cell_angle_gamma 90.000000
_cell_volume 8904.078184
_symmetry_space_group_name_H-M "F M M M"
_symmetry_group_IT_number 69
_symmetry_cell_setting 'orthorhombic'
loop_
_space_group_symop_operation_xyz
x,y,z
-x,-y,z
x,-y,-z
-x,y,-z
-x,-y,-z
x,y,-z
-x,y,z
x,-y,z
x,1/2+y,1/2+z
-x,1/2-y,1/2+z
x,1/2-y,1/2-z
-x,1/2+y,1/2-z
-x,1/2-y,1/2-z
x,1/2+y,1/2-z
-x,1/2+y,1/2+z
x,1/2-y,1/2+z
1/2+x,y,1/2+z
1/2-x,-y,1/2+z
1/2+x,-y,1/2-z
1/2-x,y,1/2-z
1/2-x,-y,1/2-z
1/2+x,y,1/2-z
1/2-x,y,1/2+z
1/2+x,-y,1/2+z
1/2+x,1/2+y,z
1/2-x,1/2-y,z
1/2+x,1/2-y,-z
1/2-x,1/2+y,-z
1/2-x,1/2-y,-z
1/2+x,1/2+y,-z
1/2-x,1/2+y,z
1/2+x,1/2-y,z
loop_
_atom_site_type_symbol
_atom_site_label
_atom_site_fract_x
_atom_site_fract_y
_atom_site_fract_z
Si Si1 0.276104 0.862669 0.105983
Si Si2 0.352019 0.839459 0.395817
Si Si3 0.068778 0.593438 0.719874
Si Si4 0.133465 0.941865 0.607517
Si Si5 0.069509 0.000000 0.896568
Si Si6 0.313662 0.739372 0.356472
O O1 0.211655 0.854015 0.151332
O O2 0.305294 0.915000 0.134141
O O3 0.324525 0.819179 0.125847
O O4 0.259999 0.863062 0.000000
O O5 0.362182 0.860842 0.500000
O O6 0.400131 0.858371 0.323095
O O7 0.357772 0.779113 0.403026
O O8 0.083606 0.581535 0.826840
O O9 0.092016 0.548107 0.657382
O O10 0.000000 0.602022 0.712388
O O11 0.116552 0.931636 0.500000
O O12 0.141056 0.000000 0.626343
O O13 0.000000 0.000000 0.899459
O O14 0.095928 0.000000 0.000000
O O15 0.315413 0.750000 0.250000
O O16 0.250000 0.750000 0.399982
#
# Coordination Sequence:
#
# PCOD8284786 Si02
#       6
#    32  32  32  32  16  32
#     4   9  18  34  55  82 115 147 183 229 284 343
#     4  10  20  34  55  85 118 152 189 227 276 340
#     4  11  22  37  56  81 110 145 192 236 275 326
#     4  10  21  38  59  82 110 143 184 239 296 345
#     4   9  18  34  53  72 101 141 184 226 264 309
#     4   9  16  28  51  81 112 146 185 225 270 330
#
# _framework density 19.766224000000001
#
# number of rings (size 3 to 8) (size 9 to 14) (size 15 to 20)
#    0.000    2.273    0.909    2.182    0.000    5.818 
#    1.636    1.818    0.000    4.909    0.000    5.091 
#    0.000    0.000    0.000    0.000    0.000    0.000 
#
# Total GULP energy -545171.573157 kJ/mol
# GULP energy per Si atom -12390.263026 kJ/mol
# Density = 1.972123 g / cm^3
# Si number density = 19.766224 Si / 1000 Ang^3
#
#
#
# Elastic Constant Matrix: (Units=GPa)
#
#
# Indices 1 2 3 4 5 6 
#
# 1 85.9137 53.3801 38.9297 0.0000 0.0000 0.0000
# 2 53.3801 112.4313 40.2575 0.0000 0.0000 0.0000
# 3 38.9297 40.2575 86.2014 0.0000 0.0000 0.0000
# 4 0.0000 0.0000 0.0000 29.2178 0.0000 0.0000
# 5 0.0000 0.0000 0.0000 0.0000 24.4302 0.0000
# 6 0.0000 0.0000 0.0000 0.0000 0.0000 30.0461
#
#
#
# Elastic Compliance Matrix: (Units=1/GPa)
#
#
# Indices 1 2 3 4 5 6 
#
# 1 0.018149 -0.006823 -0.005010 0.000000 0.000000 0.000000
# 2 -0.006823 0.013245 -0.003104 0.000000 0.000000 0.000000
# 3 -0.005010 -0.003104 0.015313 0.000000 0.000000 0.000000
# 4 0.000000 0.000000 0.000000 0.034226 0.000000 0.000000
# 5 0.000000 0.000000 0.000000 0.000000 0.040933 0.000000
# 6 0.000000 0.000000 0.000000 0.000000 0.000000 0.033282
#
#
# Mechanical properties :
#
#
# Convention : Reuss Voigt Hill
#
# Bulk Modulus (GPa) = 59.40771 61.07567 60.24169
# Shear Modulus (GPa) = 26.22834 26.87076 26.54955
#
# Velocity S-wave (km/s) = 3.64665 3.69104 3.66891
# Velocity P-wave (km/s) = 6.91745 7.00936 6.96356
#
# Compressibility (1/GPa) = 0.01683283
#
# Stress axis : x y z
#
# Youngs Moduli (GPa) = 55.09978 75.49862 65.30357
#
# Poissons Ratio (x) = 0.51512 0.32716
# Poissons Ratio (y) = 0.37594 0.20273
# Poissons Ratio (z) = 0.27604 0.23438
#
# Static dielectric constant tensor:
#      x y z
#    x 3.215120 0.000000 0.000000 
#    y 0.000000 3.717880 0.000000 
#    z 0.000000 0.000000 3.725180 
# 
# 
# High freq. dielectric constant tensor:
#      x y z
#    x 1.715540 0.000000 0.000000 
#    y 0.000000 1.775440 0.000000 
#    z 0.000000 0.000000 1.786420 
# 
# From -- ./inp_files/17911.got.cif
#   From: 2010.03.12/outbox.cif.g09.slc.cpg/sg69_9_cif.got.tgz:17911.got - 2010.04.10 23:52:46.
