data_PCOD8284351
_publ_section_title
;
Structure prediction by ZEFSAII (Michael W. Deem and Ramdas Pophale) SiO2 
 PCOD8284351
Probable space group: F M M M
;
_chemical_formula_sum "Si O2"
_cell_formula_units_Z 192
_cell_length_a 23.889555
_cell_length_b 16.763185
_cell_length_c 24.218252
_cell_angle_alpha 90.000000
_cell_angle_beta 90.000000
_cell_angle_gamma 90.000000
_cell_volume 9698.563015
_symmetry_space_group_name_H-M "F M M M"
_symmetry_group_IT_number 69
_symmetry_cell_setting 'orthorhombic'
loop_
_space_group_symop_operation_xyz
x,y,z
-x,-y,z
x,-y,-z
-x,y,-z
-x,-y,-z
x,y,-z
-x,y,z
x,-y,z
x,1/2+y,1/2+z
-x,1/2-y,1/2+z
x,1/2-y,1/2-z
-x,1/2+y,1/2-z
-x,1/2-y,1/2-z
x,1/2+y,1/2-z
-x,1/2+y,1/2+z
x,1/2-y,1/2+z
1/2+x,y,1/2+z
1/2-x,-y,1/2+z
1/2+x,-y,1/2-z
1/2-x,y,1/2-z
1/2-x,-y,1/2-z
1/2+x,y,1/2-z
1/2-x,y,1/2+z
1/2+x,-y,1/2+z
1/2+x,1/2+y,z
1/2-x,1/2-y,z
1/2+x,1/2-y,-z
1/2-x,1/2+y,-z
1/2-x,1/2-y,-z
1/2+x,1/2+y,-z
1/2-x,1/2+y,z
1/2+x,1/2-y,z
loop_
_atom_site_type_symbol
_atom_site_label
_atom_site_fract_x
_atom_site_fract_y
_atom_site_fract_z
Si Si1 0.292030 0.817399 0.438806
Si Si2 0.112438 0.699140 0.938134
Si Si3 0.344441 0.406005 0.660973
Si Si4 0.000000 0.095567 0.162026
Si Si5 0.719980 0.091733 0.335363
Si Si6 0.111709 0.905917 0.775887
Si Si7 0.000000 0.783631 0.935723
O O1 0.273640 0.844455 0.500000
O O2 0.250000 0.750000 0.415993
O O3 0.353785 0.781730 0.437718
O O4 0.289262 0.894887 0.400552
O O5 0.136183 0.635521 0.895097
O O6 0.050772 0.725188 0.921410
O O7 0.114818 0.661395 0.000000
O O8 0.343111 0.500000 0.648693
O O9 0.282174 0.376540 0.680118
O O10 0.387236 0.384809 0.710657
O O11 0.054631 0.125682 0.196146
O O12 0.000000 0.137250 0.102159
O O13 0.000000 0.000000 0.153486
O O14 0.667920 0.133335 0.303168
O O15 0.717771 0.000000 0.320357
O O16 0.113766 0.000000 0.784770
O O17 0.000000 0.811351 0.000000
#
# Coordination Sequence:
#
# PCOD8284351 Si02
#       7
#    32  32  32  16  32  32  16
#     4  10  19  33  52  76 109 142 175 223 281 326
#     4  10  21  38  57  79 111 148 183 224 277 328
#     4  10  20  35  57  81 108 146 188 228 270 321
#     4  10  20  38  63  86 109 139 181 225 264 324
#     4  10  19  33  55  81 110 144 185 227 270 330
#     4   9  19  35  55  81 112 144 177 223 281 326
#     4  10  22  40  60  81 111 149 179 217 275 328
#
# _framework density 19.796748000000001
#
# number of rings (size 3 to 8) (size 9 to 14) (size 15 to 20)
#    0.000    2.167    1.667    1.500    0.000    3.500 
#    0.000    7.083    0.000    7.500    0.000    0.000 
#    0.000    0.000    0.000    0.000    0.000    0.000 
#
# Total GULP energy -594875.213976 kJ/mol
# GULP energy per Si atom -12393.233625 kJ/mol
# Density = 1.975169 g / cm^3
# Si number density = 19.796748 Si / 1000 Ang^3
#
#
#
# Elastic Constant Matrix: (Units=GPa)
#
#
# Indices 1 2 3 4 5 6 
#
# 1 151.9424 26.4838 53.6756 0.0000 0.0000 0.0000
# 2 26.4838 21.1314 30.0718 0.0000 0.0000 0.0000
# 3 53.6756 30.0718 118.6524 0.0000 0.0000 0.0000
# 4 0.0000 0.0000 0.0000 29.5244 0.0000 0.0000
# 5 0.0000 0.0000 0.0000 0.0000 31.9493 0.0000
# 6 0.0000 0.0000 0.0000 0.0000 0.0000 18.7825
#
#
#
# Elastic Compliance Matrix: (Units=1/GPa)
#
#
# Indices 1 2 3 4 5 6 
#
# 1 0.008667 -0.008263 -0.001827 0.000000 0.000000 0.000000
# 2 -0.008263 0.081897 -0.017019 0.000000 0.000000 0.000000
# 3 -0.001827 -0.017019 0.013568 0.000000 0.000000 0.000000
# 4 0.000000 0.000000 0.000000 0.033870 0.000000 0.000000
# 5 0.000000 0.000000 0.000000 0.000000 0.031300 0.000000
# 6 0.000000 0.000000 0.000000 0.000000 0.000000 0.053241
#
#
# Mechanical properties :
#
#
# Convention : Reuss Voigt Hill
#
# Bulk Modulus (GPa) = 20.03365 56.90985 38.47175
# Shear Modulus (GPa) = 17.04173 28.15091 22.59632
#
# Velocity S-wave (km/s) = 2.93718 3.77503 3.38215
# Velocity P-wave (km/s) = 4.65235 6.91452 5.89300
#
# Compressibility (1/GPa) = 0.04991603
#
# Stress axis : x y z
#
# Youngs Moduli (GPa) = 115.38126 12.21039 73.70544
#
# Poissons Ratio (x) = 0.10089 0.13463
# Poissons Ratio (y) = 0.95338 1.25436
# Poissons Ratio (z) = 0.21075 0.20780
#
# Static dielectric constant tensor:
#      x y z
#    x 4.006350 0.000000 0.000000 
#    y 0.000000 3.140990 0.000000 
#    z 0.000000 0.000000 3.659520 
# 
# 
# High freq. dielectric constant tensor:
#      x y z
#    x 1.788650 0.000000 0.000000 
#    y 0.000000 1.726530 0.000000 
#    z 0.000000 0.000000 1.779710 
# 
# From -- ./inp_files/43207.got.cif
#   From: 2010.03.12/outbox.cif.g09.slc.cpg/sg69_22_cif.got.tgz:43207.got - 2010.04.10 23:52:46.
