data_PCOD8284209
_publ_section_title
;
Structure prediction by ZEFSAII (Michael W. Deem and Ramdas Pophale) SiO2 
 PCOD8284209
Probable space group: F M M M
;
_chemical_formula_sum "Si O2"
_cell_formula_units_Z 208
_cell_length_a 16.717020
_cell_length_b 24.262508
_cell_length_c 26.755420
_cell_angle_alpha 90.000000
_cell_angle_beta 90.000000
_cell_angle_gamma 90.000000
_cell_volume 10851.913577
_symmetry_space_group_name_H-M "F M M M"
_symmetry_group_IT_number 69
_symmetry_cell_setting 'orthorhombic'
loop_
_space_group_symop_operation_xyz
x,y,z
-x,-y,z
x,-y,-z
-x,y,-z
-x,-y,-z
x,y,-z
-x,y,z
x,-y,z
x,1/2+y,1/2+z
-x,1/2-y,1/2+z
x,1/2-y,1/2-z
-x,1/2+y,1/2-z
-x,1/2-y,1/2-z
x,1/2+y,1/2-z
-x,1/2+y,1/2+z
x,1/2-y,1/2+z
1/2+x,y,1/2+z
1/2-x,-y,1/2+z
1/2+x,-y,1/2-z
1/2-x,y,1/2-z
1/2-x,-y,1/2-z
1/2+x,y,1/2-z
1/2-x,y,1/2+z
1/2+x,-y,1/2+z
1/2+x,1/2+y,z
1/2-x,1/2-y,z
1/2+x,1/2-y,-z
1/2-x,1/2+y,-z
1/2-x,1/2-y,-z
1/2+x,1/2+y,-z
1/2-x,1/2+y,z
1/2+x,1/2-y,z
loop_
_atom_site_type_symbol
_atom_site_label
_atom_site_fract_x
_atom_site_fract_y
_atom_site_fract_z
Si Si1 0.904870 0.345755 0.057019
Si Si2 0.158109 0.264089 0.865201
Si Si3 0.406496 0.938821 0.868676
Si Si4 0.413097 0.434903 0.000000
Si Si5 0.096129 0.438539 0.393324
Si Si6 0.406556 0.153952 0.677875
Si Si7 0.405959 0.649608 0.709815
O O1 0.872575 0.290099 0.082859
O O2 0.872483 0.399665 0.086940
O O3 0.000000 0.343681 0.059729
O O4 0.874160 0.348608 0.000000
O O5 0.250000 0.250000 0.870949
O O6 0.109454 0.209251 0.852453
O O7 0.145348 0.305934 0.819905
O O8 0.500000 0.945606 0.877458
O O9 0.390744 0.910496 0.814657
O O10 0.366480 0.000000 0.870148
O O11 0.368769 0.419387 0.052095
O O12 0.425940 0.500000 0.000000
O O13 0.500000 0.405694 0.000000
O O14 0.125339 0.500000 0.379450
O O15 0.131962 0.397152 0.352306
O O16 0.000000 0.436789 0.395989
O O17 0.500000 0.144210 0.682368
O O18 0.371733 0.152258 0.733963
O O19 0.500000 0.665321 0.706485
#
# Coordination Sequence:
#
# PCOD8284209 Si02
#       7
#    32  32  32  16  32  32  32
#     4   9  18  34  55  78 105 132 160 203 254 298
#     4  11  22  35  51  70  97 133 171 213 250 300
#     4   8  14  26  47  77 107 131 158 194 246 307
#     4   7  10  20  38  60  91 124 148 182 235 286
#     4   8  14  25  43  69  98 124 155 202 254 299
#     4  10  19  31  49  73  99 130 171 211 251 301
#     4   9  18  32  50  72 102 134 163 208 258 297
#
# _framework density 19.167126
#
# number of rings (size 3 to 8) (size 9 to 14) (size 15 to 20)
#    0.000    3.000    0.000    3.692    0.000    3.692 
#    1.385    4.615    0.000    3.692    0.000    5.385 
#    0.000    0.000    0.000    0.000    0.000    0.000 
#
# Total GULP energy -644358.750107 kJ/mol
# GULP energy per Si atom -12391.514425 kJ/mol
# Density = 1.912350 g / cm^3
# Si number density = 19.167126 Si / 1000 Ang^3
#
#
#
# Elastic Constant Matrix: (Units=GPa)
#
#
# Indices 1 2 3 4 5 6 
#
# 1 16.5339 10.7497 14.4178 0.0000 0.0000 0.0000
# 2 10.7497 141.4529 82.8001 0.0000 0.0000 0.0000
# 3 14.4178 82.8001 141.4238 0.0000 0.0000 0.0000
# 4 0.0000 0.0000 0.0000 26.3804 0.0000 0.0000
# 5 0.0000 0.0000 0.0000 0.0000 11.4411 0.0000
# 6 0.0000 0.0000 0.0000 0.0000 0.0000 -0.2350
#
#
#
# Elastic Compliance Matrix: (Units=1/GPa)
#
#
# Indices 1 2 3 4 5 6 
#
# 1 0.066637 -0.001655 -0.005825 0.000000 0.000000 0.000000
# 2 -0.001655 0.010797 -0.006152 0.000000 0.000000 0.000000
# 3 -0.005825 -0.006152 0.011267 0.000000 0.000000 0.000000
# 4 0.000000 0.000000 0.000000 0.037907 0.000000 0.000000
# 5 0.000000 0.000000 0.000000 0.000000 0.087404 0.000000
# 6 0.000000 0.000000 0.000000 0.000000 0.000000 -4.255137
#
#
# Mechanical properties :
#
#
# Convention : Reuss Voigt Hill
#
# Bulk Modulus (GPa) = 16.27692 57.26064 36.76878
# Shear Modulus (GPa) = -1.25207 20.28017 9.51405
#
# Velocity S-wave (km/s) = -0.80911 3.25633 2.23036
# Velocity P-wave (km/s) = 2.76363 6.63909 5.08503
#
# Compressibility (1/GPa) = 0.06143670
#
# Stress axis : x y z
#
# Youngs Moduli (GPa) = 15.00675 92.62177 88.75570
#
# Poissons Ratio (x) = 0.15324 0.51698
# Poissons Ratio (y) = 0.02483 0.54607
# Poissons Ratio (z) = 0.08741 0.56985
#
# Static dielectric constant tensor:
#      x y z
#    x 2.931610 0.000000 0.000000 
#    y 0.000000 3.697420 0.000000 
#    z 0.000000 0.000000 3.968340 
# 
# 
# High freq. dielectric constant tensor:
#      x y z
#    x 1.688780 0.000000 0.000000 
#    y 0.000000 1.743930 0.000000 
#    z 0.000000 0.000000 1.756580 
# 
# From -- ./inp_files/42137.got.cif
#   From: 2010.03.12/outbox.cif.g09.slc.cpg/sg69_22_cif.got.tgz:42137.got - 2010.04.10 23:52:46.
