data_PCOD8284292
_publ_section_title
;
Structure prediction by ZEFSAII (Michael W. Deem and Ramdas Pophale) SiO2 
 PCOD8284292
Probable space group: F M M M
;
_chemical_formula_sum "Si O2"
_cell_formula_units_Z 240
_cell_length_a 24.054641
_cell_length_b 24.186974
_cell_length_c 22.125086
_cell_angle_alpha 90.000000
_cell_angle_beta 90.000000
_cell_angle_gamma 90.000000
_cell_volume 12872.573639
_symmetry_space_group_name_H-M "F M M M"
_symmetry_group_IT_number 69
_symmetry_cell_setting 'orthorhombic'
loop_
_space_group_symop_operation_xyz
x,y,z
-x,-y,z
x,-y,-z
-x,y,-z
-x,-y,-z
x,y,-z
-x,y,z
x,-y,z
x,1/2+y,1/2+z
-x,1/2-y,1/2+z
x,1/2-y,1/2-z
-x,1/2+y,1/2-z
-x,1/2-y,1/2-z
x,1/2+y,1/2-z
-x,1/2+y,1/2+z
x,1/2-y,1/2+z
1/2+x,y,1/2+z
1/2-x,-y,1/2+z
1/2+x,-y,1/2-z
1/2-x,y,1/2-z
1/2-x,-y,1/2-z
1/2+x,y,1/2-z
1/2-x,y,1/2+z
1/2+x,-y,1/2+z
1/2+x,1/2+y,z
1/2-x,1/2-y,z
1/2+x,1/2-y,-z
1/2-x,1/2+y,-z
1/2-x,1/2-y,-z
1/2+x,1/2+y,-z
1/2-x,1/2+y,z
1/2+x,1/2-y,z
loop_
_atom_site_type_symbol
_atom_site_label
_atom_site_fract_x
_atom_site_fract_y
_atom_site_fract_z
Si Si1 0.808495 0.231008 0.371344
Si Si2 0.936219 0.562163 0.354920
Si Si3 0.765784 0.368723 0.930441
Si Si4 0.654878 0.652327 0.864243
Si Si5 0.124806 0.811299 0.264041
Si Si6 0.561312 0.566037 0.500000
Si Si7 0.561833 0.586299 0.281920
Si Si8 0.365303 0.938189 0.107436
O O1 0.750000 0.250000 0.341313
O O2 0.791660 0.193440 0.429003
O O3 0.847386 0.283867 0.390233
O O4 0.836863 0.190238 0.323092
O O5 0.920657 0.500000 0.379418
O O6 0.897045 0.611760 0.381234
O O7 0.930058 0.558323 0.282866
O O8 0.000000 0.576620 0.372733
O O9 0.708796 0.375614 0.893229
O O10 0.806503 0.408744 0.894468
O O11 0.756867 0.386012 0.000000
O O12 0.658836 0.660872 0.791652
O O13 0.103373 0.750000 0.250000
O O14 0.070319 0.847634 0.277064
O O15 0.557504 0.500000 0.500000
O O16 0.500000 0.592136 0.500000
O O17 0.592683 0.589325 0.559116
O O18 0.500000 0.574335 0.306977
O O19 0.607808 0.561520 0.326296
O O20 0.353380 0.000000 0.086640
#
# Coordination Sequence:
#
# PCOD8284292 Si02
#       8
#    32  32  32  32  32  16  32  32
#     4   9  18  33  53  76 105 138 177 217 263 318
#     4   9  18  35  57  82 112 141 172 215 269 326
#     4  11  22  36  54  77 108 142 179 225 269 315
#     4   9  20  33  55  83 104 138 179 214 267 326
#     4   9  17  32  51  78 108 136 172 215 262 318
#     4   9  18  32  50  68  91 134 187 223 249 296
#     4  10  19  32  52  77 107 141 177 215 258 312
#     4  11  21  34  50  73 105 141 181 220 262 305
#
# _framework density 18.644290000000002
#
# number of rings (size 3 to 8) (size 9 to 14) (size 15 to 20)
#    0.000    2.333    2.000    0.800    0.000   10.667 
#    0.000    2.000    0.000    2.800    0.000    0.933 
#    0.000    0.000    0.000    0.000    0.000    0.000 
#
# Total GULP energy -743332.368085 kJ/mol
# GULP energy per Si atom -12388.872801 kJ/mol
# Density = 1.860186 g / cm^3
# Si number density = 18.644290 Si / 1000 Ang^3
#
#
#
# Elastic Constant Matrix: (Units=GPa)
#
#
# Indices 1 2 3 4 5 6 
#
# 1 112.6583 57.1752 28.2895 0.0000 0.0000 0.0000
# 2 57.1752 95.7940 13.5030 0.0000 0.0000 0.0000
# 3 28.2895 13.5030 38.0708 0.0000 0.0000 0.0000
# 4 0.0000 0.0000 0.0000 16.0223 0.0000 0.0000
# 5 0.0000 0.0000 0.0000 0.0000 23.7481 0.0000
# 6 0.0000 0.0000 0.0000 0.0000 0.0000 26.2978
#
#
#
# Elastic Compliance Matrix: (Units=1/GPa)
#
#
# Indices 1 2 3 4 5 6 
#
# 1 0.014877 -0.007707 -0.008322 0.000000 0.000000 0.000000
# 2 -0.007707 0.014980 0.000413 0.000000 0.000000 0.000000
# 3 -0.008322 0.000413 0.032304 0.000000 0.000000 0.000000
# 4 0.000000 0.000000 0.000000 0.062413 0.000000 0.000000
# 5 0.000000 0.000000 0.000000 0.000000 0.042109 0.000000
# 6 0.000000 0.000000 0.000000 0.000000 0.000000 0.038026
#
#
# Mechanical properties :
#
#
# Convention : Reuss Voigt Hill
#
# Bulk Modulus (GPa) = 32.32913 49.38429 40.85671
# Shear Modulus (GPa) = 20.30463 23.05066 21.67765
#
# Velocity S-wave (km/s) = 3.30366 3.51998 3.41353
# Velocity P-wave (km/s) = 5.65065 6.56243 6.12353
#
# Compressibility (1/GPa) = 0.03093186
#
# Stress axis : x y z
#
# Youngs Moduli (GPa) = 67.21724 66.75352 30.95611
#
# Poissons Ratio (x) = 0.51444 0.25760
# Poissons Ratio (y) = 0.51801 -0.01279
# Poissons Ratio (z) = 0.55935 -0.02758
#
# Static dielectric constant tensor:
#      x y z
#    x 3.405870 0.000000 0.000000 
#    y 0.000000 3.567540 0.000000 
#    z 0.000000 0.000000 3.185300 
# 
# 
# High freq. dielectric constant tensor:
#      x y z
#    x 1.711570 0.000000 0.000000 
#    y 0.000000 1.726480 0.000000 
#    z 0.000000 0.000000 1.697260 
# 
# From -- ./inp_files/33041.got.cif
#   From: 2010.03.12/outbox.cif.g09.slc.cpg/sg69_17_cif.got.tgz:33041.got - 2010.04.10 23:52:46.
