data_PCOD8284897
_publ_section_title
;
Structure prediction by ZEFSAII (Michael W. Deem and Ramdas Pophale) SiO2 
 PCOD8284897
Probable space group: F M M M
;
_chemical_formula_sum "Si O2"
_cell_formula_units_Z 176
_cell_length_a 16.893237
_cell_length_b 30.435336
_cell_length_c 17.388986
_cell_angle_alpha 90.000000
_cell_angle_beta 90.000000
_cell_angle_gamma 90.000000
_cell_volume 8940.570527
_symmetry_space_group_name_H-M "F M M M"
_symmetry_group_IT_number 69
_symmetry_cell_setting 'orthorhombic'
loop_
_space_group_symop_operation_xyz
x,y,z
-x,-y,z
x,-y,-z
-x,y,-z
-x,-y,-z
x,y,-z
-x,y,z
x,-y,z
x,1/2+y,1/2+z
-x,1/2-y,1/2+z
x,1/2-y,1/2-z
-x,1/2+y,1/2-z
-x,1/2-y,1/2-z
x,1/2+y,1/2-z
-x,1/2+y,1/2+z
x,1/2-y,1/2+z
1/2+x,y,1/2+z
1/2-x,-y,1/2+z
1/2+x,-y,1/2-z
1/2-x,y,1/2-z
1/2-x,-y,1/2-z
1/2+x,y,1/2-z
1/2-x,y,1/2+z
1/2+x,-y,1/2+z
1/2+x,1/2+y,z
1/2-x,1/2-y,z
1/2+x,1/2-y,-z
1/2-x,1/2+y,-z
1/2-x,1/2-y,-z
1/2+x,1/2+y,-z
1/2-x,1/2+y,z
1/2+x,1/2-y,z
loop_
_atom_site_type_symbol
_atom_site_label
_atom_site_fract_x
_atom_site_fract_y
_atom_site_fract_z
Si Si1 0.092022 0.834636 0.415309
Si Si2 0.410906 0.000000 0.917653
Si Si3 0.336495 0.918235 0.141213
Si Si4 0.664708 0.448489 0.909052
Si Si5 0.843141 0.799413 0.261779
Si Si6 0.908697 0.114599 0.207613
O O1 0.101260 0.812868 0.500000
O O2 0.134527 0.881890 0.419120
O O3 0.136315 0.806763 0.351088
O O4 0.000000 0.840268 0.393282
O O5 0.394150 0.041148 0.865207
O O6 0.500000 0.000000 0.941917
O O7 0.362282 0.000000 0.000000
O O8 0.248887 0.934155 0.123231
O O9 0.346610 0.901656 0.228151
O O10 0.648080 0.500000 0.888484
O O11 0.602949 0.414691 0.869178
O O12 0.658323 0.441375 0.000000
O O13 0.873117 0.750000 0.250000
O O14 0.750000 0.804398 0.250000
O O15 0.887533 0.833083 0.202433
O O16 0.000000 0.110022 0.232868
#
# Coordination Sequence:
#
# PCOD8284897 Si02
#       6
#    32  16  32  32  32  32
#     4  10  20  35  57  86 120 157 193 235 296 361
#     4  11  20  28  45  78 116 148 181 231 290 342
#     4  11  20  35  57  82 115 150 194 245 291 350
#     4  11  24  41  60  83 117 164 211 252 296 344
#     4  10  21  40  64  91 120 152 193 243 300 362
#     4  11  24  40  61  88 117 155 199 246 299 356
#
# _framework density 19.685544
#
# number of rings (size 3 to 8) (size 9 to 14) (size 15 to 20)
#    0.000    1.364    0.909    7.636    1.273    4.364 
#    0.000    3.636    0.000    0.000    0.000    0.000 
#    0.000    0.000    0.000    0.000    0.000    0.000 
#
# Total GULP energy -545262.158822 kJ/mol
# GULP energy per Si atom -12392.321791 kJ/mol
# Density = 1.964074 g / cm^3
# Si number density = 19.685544 Si / 1000 Ang^3
#
#
#
# Elastic Constant Matrix: (Units=GPa)
#
#
# Indices 1 2 3 4 5 6 
#
# 1 72.7609 42.1827 39.1903 0.0000 0.0000 0.0000
# 2 42.1827 155.7222 59.3792 0.0000 0.0000 0.0000
# 3 39.1903 59.3792 107.6087 0.0000 0.0000 0.0000
# 4 0.0000 0.0000 0.0000 -2.3011 0.0000 0.0000
# 5 0.0000 0.0000 0.0000 0.0000 30.6325 0.0000
# 6 0.0000 0.0000 0.0000 0.0000 0.0000 24.3706
#
#
#
# Elastic Compliance Matrix: (Units=1/GPa)
#
#
# Indices 1 2 3 4 5 6 
#
# 1 0.018165 -0.003037 -0.004940 0.000000 0.000000 0.000000
# 2 -0.003037 0.008641 -0.003662 0.000000 0.000000 0.000000
# 3 -0.004940 -0.003662 0.013113 0.000000 0.000000 0.000000
# 4 0.000000 0.000000 0.000000 -0.434583 0.000000 0.000000
# 5 0.000000 0.000000 0.000000 0.000000 0.032645 0.000000
# 6 0.000000 0.000000 0.000000 0.000000 0.000000 0.041033
#
#
# Mechanical properties :
#
#
# Convention : Reuss Voigt Hill
#
# Bulk Modulus (GPa) = 60.09266 68.62181 64.35723
# Shear Modulus (GPa) = -17.11380 23.56304 3.22462
#
# Velocity S-wave (km/s) = -2.95169 3.46348 1.28126
# Velocity P-wave (km/s) = 4.35614 7.13645 5.91206
#
# Compressibility (1/GPa) = 0.01664097
#
# Stress axis : x y z
#
# Youngs Moduli (GPa) = 55.05108 115.73100 76.26243
#
# Poissons Ratio (x) = 0.35148 0.37671
# Poissons Ratio (y) = 0.16719 0.27927
# Poissons Ratio (z) = 0.27194 0.42380
#
# Static dielectric constant tensor:
#      x y z
#    x 3.727880 0.000000 0.000000 
#    y 0.000000 3.865240 0.000000 
#    z 0.000000 0.000000 3.627500 
# 
# 
# High freq. dielectric constant tensor:
#      x y z
#    x 1.768680 0.000000 0.000000 
#    y 0.000000 1.767920 0.000000 
#    z 0.000000 0.000000 1.762810 
# 
# From -- ./inp_files/23608.got.cif
#   From: 2010.03.12/outbox.cif.g09.slc.cpg/sg69_12_cif.got.tgz:23608.got - 2010.04.10 23:52:46.
