data_PCOD8284771
_publ_section_title
;
Structure prediction by ZEFSAII (Michael W. Deem and Ramdas Pophale) SiO2 
 PCOD8284771
Probable space group: F M M M
;
_chemical_formula_sum "Si O2"
_cell_formula_units_Z 88
_cell_length_a 9.098576
_cell_length_b 19.820048
_cell_length_c 26.919485
_cell_angle_alpha 90.000000
_cell_angle_beta 90.000000
_cell_angle_gamma 90.000000
_cell_volume 4854.504143
_symmetry_space_group_name_H-M "F M M M"
_symmetry_group_IT_number 69
_symmetry_cell_setting 'orthorhombic'
loop_
_space_group_symop_operation_xyz
x,y,z
-x,-y,z
x,-y,-z
-x,y,-z
-x,-y,-z
x,y,-z
-x,y,z
x,-y,z
x,1/2+y,1/2+z
-x,1/2-y,1/2+z
x,1/2-y,1/2-z
-x,1/2+y,1/2-z
-x,1/2-y,1/2-z
x,1/2+y,1/2-z
-x,1/2+y,1/2+z
x,1/2-y,1/2+z
1/2+x,y,1/2+z
1/2-x,-y,1/2+z
1/2+x,-y,1/2-z
1/2-x,y,1/2-z
1/2-x,-y,1/2-z
1/2+x,y,1/2-z
1/2-x,y,1/2+z
1/2+x,-y,1/2+z
1/2+x,1/2+y,z
1/2-x,1/2-y,z
1/2+x,1/2-y,-z
1/2-x,1/2+y,-z
1/2-x,1/2-y,-z
1/2+x,1/2+y,-z
1/2-x,1/2+y,z
1/2+x,1/2-y,z
loop_
_atom_site_type_symbol
_atom_site_label
_atom_site_fract_x
_atom_site_fract_y
_atom_site_fract_z
Si Si1 0.327904 0.578655 0.598960
Si Si2 0.664131 0.187112 0.345303
Si Si3 0.750000 0.250000 0.250000
Si Si4 0.666026 0.419937 0.000000
O O1 0.500000 0.594063 0.596160
O O2 0.296938 0.500000 0.607928
O O3 0.254633 0.618780 0.644526
O O4 0.252839 0.605462 0.548442
O O5 0.500000 0.180790 0.367079
O O6 0.750000 0.250000 0.371240
O O7 0.653927 0.201081 0.285794
O O8 0.663636 0.500000 0.000000
O O9 0.500000 0.390963 0.000000
#
# Coordination Sequence:
#
# PCOD8284771 Si02
#       4
#    32  32   8  16
#     4  10  20  34  54  81 112 143 178 219 262 311
#     4  10  20  35  57  80 105 139 179 220 266 321
#     4   8  22  36  60  78 102 140 176 220 270 326
#     4   9  17  31  52  77 108 145 180 213 259 315
#
# _framework density 18.127493999999999
#
# number of rings (size 3 to 8) (size 9 to 14) (size 15 to 20)
#    1.091    1.273    0.000    3.273    0.000    4.364 
#    0.000    1.818    0.000    0.000    0.000    0.000 
#    0.000    0.000    0.000    0.000    0.000    0.000 
#
# Total GULP energy -272629.194743 kJ/mol
# GULP energy per Si atom -12392.236125 kJ/mol
# Density = 1.808624 g / cm^3
# Si number density = 18.127494 Si / 1000 Ang^3
#
#
#
# Elastic Constant Matrix: (Units=GPa)
#
#
# Indices 1 2 3 4 5 6 
#
# 1 164.4732 65.0807 45.5848 0.0000 0.0000 0.0000
# 2 65.0807 81.5813 47.1953 0.0000 0.0000 0.0000
# 3 45.5848 47.1953 91.7938 0.0000 0.0000 0.0000
# 4 0.0000 0.0000 0.0000 29.4077 0.0000 0.0000
# 5 0.0000 0.0000 0.0000 0.0000 27.1110 0.0000
# 6 0.0000 0.0000 0.0000 0.0000 0.0000 28.5557
#
#
#
# Elastic Compliance Matrix: (Units=1/GPa)
#
#
# Indices 1 2 3 4 5 6 
#
# 1 0.008962 -0.006512 -0.001103 0.000000 0.000000 0.000000
# 2 -0.006512 0.022178 -0.008169 0.000000 0.000000 0.000000
# 3 -0.001103 -0.008169 0.015642 0.000000 0.000000 0.000000
# 4 0.000000 0.000000 0.000000 0.034005 0.000000 0.000000
# 5 0.000000 0.000000 0.000000 0.000000 0.036885 0.000000
# 6 0.000000 0.000000 0.000000 0.000000 0.000000 0.035019
#
#
# Mechanical properties :
#
#
# Convention : Reuss Voigt Hill
#
# Bulk Modulus (GPa) = 65.72381 72.61887 69.17134
# Shear Modulus (GPa) = 26.40890 29.01405 27.71147
#
# Velocity S-wave (km/s) = 3.82100 4.00503 3.91410
# Velocity P-wave (km/s) = 7.47006 7.84437 7.65950
#
# Compressibility (1/GPa) = 0.01521519
#
# Stress axis : x y z
#
# Youngs Moduli (GPa) = 111.57933 45.08938 63.93153
#
# Poissons Ratio (x) = 0.29360 0.07050
# Poissons Ratio (y) = 0.72656 0.52227
# Poissons Ratio (z) = 0.12304 0.36834
#
# Static dielectric constant tensor:
#      x y z
#    x 3.393270 0.000000 0.000000 
#    y 0.000000 3.093530 0.000000 
#    z 0.000000 0.000000 3.152730 
# 
# 
# High freq. dielectric constant tensor:
#      x y z
#    x 1.719090 0.000000 0.000000 
#    y 0.000000 1.678670 0.000000 
#    z 0.000000 0.000000 1.681640 
# 
# From -- ./inp_files/42319.got.cif
#   From: 2010.03.12/outbox.cif.g09.slc.cpg/sg69_22_cif.got.tgz:42319.got - 2010.04.10 23:52:46.
