data_PCOD8284971
_publ_section_title
;
Structure prediction by ZEFSAII (Michael W. Deem and Ramdas Pophale) SiO2 
 PCOD8284971
Probable space group: F M M M
;
_chemical_formula_sum "Si O2"
_cell_formula_units_Z 144
_cell_length_a 16.478007
_cell_length_b 16.479902
_cell_length_c 28.074645
_cell_angle_alpha 90.000000
_cell_angle_beta 90.000000
_cell_angle_gamma 90.000000
_cell_volume 7623.836628
_symmetry_space_group_name_H-M "F M M M"
_symmetry_group_IT_number 69
_symmetry_cell_setting 'orthorhombic'
loop_
_space_group_symop_operation_xyz
x,y,z
-x,-y,z
x,-y,-z
-x,y,-z
-x,-y,-z
x,y,-z
-x,y,z
x,-y,z
x,1/2+y,1/2+z
-x,1/2-y,1/2+z
x,1/2-y,1/2-z
-x,1/2+y,1/2-z
-x,1/2-y,1/2-z
x,1/2+y,1/2-z
-x,1/2+y,1/2+z
x,1/2-y,1/2+z
1/2+x,y,1/2+z
1/2-x,-y,1/2+z
1/2+x,-y,1/2-z
1/2-x,y,1/2-z
1/2-x,-y,1/2-z
1/2+x,y,1/2-z
1/2-x,y,1/2+z
1/2+x,-y,1/2+z
1/2+x,1/2+y,z
1/2-x,1/2-y,z
1/2+x,1/2-y,-z
1/2-x,1/2+y,-z
1/2-x,1/2-y,-z
1/2+x,1/2+y,-z
1/2-x,1/2+y,z
1/2+x,1/2-y,z
loop_
_atom_site_type_symbol
_atom_site_label
_atom_site_fract_x
_atom_site_fract_y
_atom_site_fract_z
Si Si1 0.905298 0.000000 0.446016
Si Si2 0.090899 0.590896 0.553917
Si Si3 0.747867 0.091770 0.805345
Si Si4 0.830060 0.206959 0.875855
Si Si5 0.593568 0.127624 0.866238
O O1 0.881448 0.919415 0.415284
O O2 0.865339 0.000000 0.500000
O O3 0.000000 0.000000 0.454261
O O4 0.120935 0.592861 0.500000
O O5 0.094407 0.500000 0.574042
O O6 0.151145 0.644443 0.583332
O O7 0.000000 0.625227 0.558338
O O8 0.750000 0.112356 0.750000
O O9 0.810702 0.156184 0.828012
O O10 0.655752 0.100471 0.824928
O O11 0.778188 0.000000 0.814832
O O12 0.750000 0.250000 0.894418
O O13 0.900209 0.274570 0.870541
O O14 0.500000 0.106064 0.852551
#
# Coordination Sequence:
#
# PCOD8284971 Si02
#       5
#    16  32  32  32  32
#     4   9  18  34  57  84 112 144 186 233 280 331
#     4   9  18  34  55  76 104 145 186 224 267 320
#     4  10  21  39  61  82 110 151 188 229 281 339
#     4  10  21  34  54  81 114 144 181 227 282 336
#     4  10  20  36  59  84 112 147 186 233 284 333
#
# _framework density 18.888127999999998
#
# number of rings (size 3 to 8) (size 9 to 14) (size 15 to 20)
#    0.000    2.333    1.111    2.000    0.000    5.333 
#    0.000    8.889    0.000    2.667    0.000    0.000 
#    0.000    0.000    0.000    0.000    0.000    0.000 
#
# Total GULP energy -446123.189549 kJ/mol
# GULP energy per Si atom -12392.310821 kJ/mol
# Density = 1.884514 g / cm^3
# Si number density = 18.888128 Si / 1000 Ang^3
#
#
#
# Elastic Constant Matrix: (Units=GPa)
#
#
# Indices 1 2 3 4 5 6 
#
# 1 52.8384 41.0977 53.4282 0.0000 0.0000 0.0000
# 2 41.0977 127.9454 76.3088 0.0000 0.0000 0.0000
# 3 53.4282 76.3088 130.8894 0.0000 0.0000 0.0000
# 4 0.0000 0.0000 0.0000 73.2207 0.0000 0.0000
# 5 0.0000 0.0000 0.0000 0.0000 22.9094 0.0000
# 6 0.0000 0.0000 0.0000 0.0000 0.0000 29.6894
#
#
#
# Elastic Compliance Matrix: (Units=1/GPa)
#
#
# Indices 1 2 3 4 5 6 
#
# 1 0.033508 -0.003995 -0.011349 0.000000 0.000000 0.000000
# 2 -0.003995 0.012458 -0.005633 0.000000 0.000000 0.000000
# 3 -0.011349 -0.005633 0.015557 0.000000 0.000000 0.000000
# 4 0.000000 0.000000 0.000000 0.013657 0.000000 0.000000
# 5 0.000000 0.000000 0.000000 0.000000 0.043650 0.000000
# 6 0.000000 0.000000 0.000000 0.000000 0.000000 0.033682
#
#
# Mechanical properties :
#
#
# Convention : Reuss Voigt Hill
#
# Bulk Modulus (GPa) = 51.09705 72.59363 61.84534
# Shear Modulus (GPa) = 24.87698 34.55312 29.71505
#
# Velocity S-wave (km/s) = 3.63308 4.28174 3.97068
# Velocity P-wave (km/s) = 6.68657 7.93481 7.33729
#
# Compressibility (1/GPa) = 0.01957060
#
# Stress axis : x y z
#
# Youngs Moduli (GPa) = 29.84337 80.26728 64.28171
#
# Poissons Ratio (x) = 0.32063 0.72954
# Poissons Ratio (y) = 0.11921 0.36208
# Poissons Ratio (z) = 0.33869 0.45212
#
# Static dielectric constant tensor:
#      x y z
#    x 3.343370 0.000000 0.000000 
#    y 0.000000 3.868940 0.000000 
#    z 0.000000 0.000000 3.405410 
# 
# 
# High freq. dielectric constant tensor:
#      x y z
#    x 1.720120 0.000000 0.000000 
#    y 0.000000 1.753540 0.000000 
#    z 0.000000 0.000000 1.721520 
# 
# From -- ./inp_files/23015.got.cif
#   From: 2010.03.12/outbox.cif.g09.slc.cpg/sg69_12_cif.got.tgz:23015.got - 2010.04.10 23:52:46.
