data_PCOD8284404
_publ_section_title
;
Structure prediction by ZEFSAII (Michael W. Deem and Ramdas Pophale) SiO2 
 PCOD8284404
Probable space group: F M M M
;
_chemical_formula_sum "Si O2"
_cell_formula_units_Z 224
_cell_length_a 29.123509
_cell_length_b 21.165617
_cell_length_c 19.128350
_cell_angle_alpha 90.000000
_cell_angle_beta 90.000000
_cell_angle_gamma 90.000000
_cell_volume 11791.040833
_symmetry_space_group_name_H-M "F M M M"
_symmetry_group_IT_number 69
_symmetry_cell_setting 'orthorhombic'
loop_
_space_group_symop_operation_xyz
x,y,z
-x,-y,z
x,-y,-z
-x,y,-z
-x,-y,-z
x,y,-z
-x,y,z
x,-y,z
x,1/2+y,1/2+z
-x,1/2-y,1/2+z
x,1/2-y,1/2-z
-x,1/2+y,1/2-z
-x,1/2-y,1/2-z
x,1/2+y,1/2-z
-x,1/2+y,1/2+z
x,1/2-y,1/2+z
1/2+x,y,1/2+z
1/2-x,-y,1/2+z
1/2+x,-y,1/2-z
1/2-x,y,1/2-z
1/2-x,-y,1/2-z
1/2+x,y,1/2-z
1/2-x,y,1/2+z
1/2+x,-y,1/2+z
1/2+x,1/2+y,z
1/2-x,1/2-y,z
1/2+x,1/2-y,-z
1/2-x,1/2+y,-z
1/2-x,1/2-y,-z
1/2+x,1/2+y,-z
1/2-x,1/2+y,z
1/2+x,1/2-y,z
loop_
_atom_site_type_symbol
_atom_site_label
_atom_site_fract_x
_atom_site_fract_y
_atom_site_fract_z
Si Si1 0.386182 0.152232 0.769860
Si Si2 0.949444 0.427097 0.145269
Si Si3 0.742080 0.570354 0.577782
Si Si4 0.112309 0.228829 0.136235
Si Si5 0.288847 0.798707 0.580686
Si Si6 0.447079 0.761864 0.500000
Si Si7 0.299638 0.928731 0.219052
Si Si8 0.551919 0.386813 0.500000
O O1 0.420339 0.096249 0.789169
O O2 0.404205 0.183412 0.698681
O O3 0.388630 0.199737 0.835689
O O4 0.335817 0.123175 0.755690
O O5 0.954777 0.500000 0.156932
O O6 0.924370 0.412714 0.070784
O O7 0.000000 0.394360 0.146067
O O8 0.720854 0.578850 0.500000
O O9 0.765801 0.500000 0.584151
O O10 0.777456 0.627209 0.592471
O O11 0.701546 0.574272 0.634431
O O12 0.164872 0.214312 0.121067
O O13 0.079448 0.215447 0.069901
O O14 0.297223 0.783296 0.500000
O O15 0.250000 0.750000 0.609435
O O16 0.500000 0.787030 0.500000
O O17 0.446227 0.687576 0.500000
O O18 0.250000 0.910169 0.250000
O O19 0.312998 0.000000 0.243291
O O20 0.500000 0.413347 0.500000
#
# Coordination Sequence:
#
# PCOD8284404 Si02
#       8
#    32  32  32  32  32  16  32  16
#     4  11  23  36  55  84 118 151 191 236 281 344
#     4  10  20  36  58  85 117 149 185 232 289 354
#     4   9  18  33  52  78 112 150 196 240 285 346
#     4  11  23  38  56  83 116 151 195 238 283 345
#     4  10  19  33  56  83 113 150 192 241 294 337
#     4  11  22  41  63  84 114 152 190 240 295 346
#     4  10  20  36  56  78 113 157 193 230 282 341
#     4   9  17  34  59  85 113 147 182 221 284 357
#
# _framework density 18.997475999999999
#
# number of rings (size 3 to 8) (size 9 to 14) (size 15 to 20)
#    0.000    1.857    2.143    2.357    0.000    1.429 
#    2.571    3.571    0.000    0.000    0.000    0.000 
#    0.000    4.000    0.000    0.000    0.000    0.000 
#
# Total GULP energy -694087.073612 kJ/mol
# GULP energy per Si atom -12394.412029 kJ/mol
# Density = 1.895424 g / cm^3
# Si number density = 18.997476 Si / 1000 Ang^3
#
#
#
# Elastic Constant Matrix: (Units=GPa)
#
#
# Indices 1 2 3 4 5 6 
#
# 1 82.3530 35.0332 43.1282 0.0000 0.0000 0.0000
# 2 35.0332 82.5573 42.2307 0.0000 0.0000 0.0000
# 3 43.1282 42.2307 99.3679 0.0000 0.0000 0.0000
# 4 0.0000 0.0000 0.0000 19.0458 0.0000 0.0000
# 5 0.0000 0.0000 0.0000 0.0000 24.2068 0.0000
# 6 0.0000 0.0000 0.0000 0.0000 0.0000 24.9202
#
#
#
# Elastic Compliance Matrix: (Units=1/GPa)
#
#
# Indices 1 2 3 4 5 6 
#
# 1 0.016859 -0.004359 -0.005465 0.000000 0.000000 0.000000
# 2 -0.004359 0.016604 -0.005165 0.000000 0.000000 0.000000
# 3 -0.005465 -0.005165 0.014631 0.000000 0.000000 0.000000
# 4 0.000000 0.000000 0.000000 0.052505 0.000000 0.000000
# 5 0.000000 0.000000 0.000000 0.000000 0.041311 0.000000
# 6 0.000000 0.000000 0.000000 0.000000 0.000000 0.040128
#
#
# Mechanical properties :
#
#
# Convention : Reuss Voigt Hill
#
# Bulk Modulus (GPa) = 55.19678 56.11807 55.65742
# Shear Modulus (GPa) = 22.93012 23.22697 23.07855
#
# Velocity S-wave (km/s) = 3.47797 3.50041 3.48921
# Velocity P-wave (km/s) = 6.72653 6.77798 6.75231
#
# Compressibility (1/GPa) = 0.01811700
#
# Stress axis : x y z
#
# Youngs Moduli (GPa) = 59.31556 60.22472 68.34997
#
# Poissons Ratio (x) = 0.26250 0.37352
# Poissons Ratio (y) = 0.25854 0.35303
# Poissons Ratio (z) = 0.32415 0.31106
#
# Static dielectric constant tensor:
#      x y z
#    x 3.302290 0.000000 0.000000 
#    y 0.000000 3.555550 0.000000 
#    z 0.000000 0.000000 3.695760 
# 
# 
# High freq. dielectric constant tensor:
#      x y z
#    x 1.709340 0.000000 0.000000 
#    y 0.000000 1.740610 0.000000 
#    z 0.000000 0.000000 1.747230 
# 
# From -- ./inp_files/27985.got.cif
#   From: 2010.03.12/outbox.cif.g09.slc.cpg/sg69_14_cif.got.tgz:27985.got - 2010.04.10 23:52:46.
