data_PCOD8284426
_publ_section_title
;
Structure prediction by ZEFSAII (Michael W. Deem and Ramdas Pophale) SiO2 
 PCOD8284426
Probable space group: F M M M
;
_chemical_formula_sum "Si O2"
_cell_formula_units_Z 104
_cell_length_a 20.530592
_cell_length_b 26.606773
_cell_length_c 11.855173
_cell_angle_alpha 90.000000
_cell_angle_beta 90.000000
_cell_angle_gamma 90.000000
_cell_volume 6475.921456
_symmetry_space_group_name_H-M "F M M M"
_symmetry_group_IT_number 69
_symmetry_cell_setting 'orthorhombic'
loop_
_space_group_symop_operation_xyz
x,y,z
-x,-y,z
x,-y,-z
-x,y,-z
-x,-y,-z
x,y,-z
-x,y,z
x,-y,z
x,1/2+y,1/2+z
-x,1/2-y,1/2+z
x,1/2-y,1/2-z
-x,1/2+y,1/2-z
-x,1/2-y,1/2-z
x,1/2+y,1/2-z
-x,1/2+y,1/2+z
x,1/2-y,1/2+z
1/2+x,y,1/2+z
1/2-x,-y,1/2+z
1/2+x,-y,1/2-z
1/2-x,y,1/2-z
1/2-x,-y,1/2-z
1/2+x,y,1/2-z
1/2-x,y,1/2+z
1/2+x,-y,1/2+z
1/2+x,1/2+y,z
1/2-x,1/2-y,z
1/2+x,1/2-y,-z
1/2-x,1/2+y,-z
1/2-x,1/2-y,-z
1/2+x,1/2+y,-z
1/2-x,1/2+y,z
1/2+x,1/2-y,z
loop_
_atom_site_type_symbol
_atom_site_label
_atom_site_fract_x
_atom_site_fract_y
_atom_site_fract_z
Si Si1 0.428166 0.617657 0.128289
Si Si2 0.500000 0.637070 0.500000
Si Si3 0.613671 0.056744 0.000000
Si Si4 0.678025 0.442333 0.736697
Si Si5 0.000000 0.690984 0.236289
O O1 0.500000 0.590418 0.133732
O O2 0.372842 0.583373 0.180173
O O3 0.435260 0.669193 0.200875
O O4 0.409355 0.630888 0.000000
O O5 0.560548 0.599849 0.500000
O O6 0.500000 0.673752 0.606748
O O7 0.658655 0.064572 0.892277
O O8 0.583224 0.000000 0.000000
O O9 0.679328 0.500000 0.774521
O O10 0.750000 0.418516 0.750000
O O11 0.000000 0.750000 0.250000
#
# Coordination Sequence:
#
# PCOD8284426 Si02
#       5
#    32   8  16  32  16
#     4   9  19  36  53  76 106 135 176 220 262 306
#     4  12  19  34  60  82 102 140 175 220 282 318
#     4  10  19  34  52  79 113 139 176 220 262 321
#     4  10  21  34  51  77 110 147 179 209 255 317
#     4  10  21  35  56  82 105 131 176 225 272 315
#
# _framework density 16.05949
#
# number of rings (size 3 to 8) (size 9 to 14) (size 15 to 20)
#    0.923    1.231    3.077    0.231    4.308    1.231 
#    0.000    1.538    0.000    0.923    0.000    4.308 
#    0.000    0.000    0.000    0.000    0.000    0.000 
#
# Total GULP energy -322170.642215 kJ/mol
# GULP energy per Si atom -12391.178547 kJ/mol
# Density = 1.602294 g / cm^3
# Si number density = 16.059490 Si / 1000 Ang^3
#
#
#
# Elastic Constant Matrix: (Units=GPa)
#
#
# Indices 1 2 3 4 5 6 
#
# 1 110.2894 57.1496 54.5735 0.0000 0.0000 0.0000
# 2 57.1496 96.1599 62.3465 0.0000 0.0000 0.0000
# 3 54.5735 62.3465 154.1350 0.0000 0.0000 0.0000
# 4 0.0000 0.0000 0.0000 17.3845 0.0000 0.0000
# 5 0.0000 0.0000 0.0000 0.0000 44.9546 0.0000
# 6 0.0000 0.0000 0.0000 0.0000 0.0000 -10.2091
#
#
#
# Elastic Compliance Matrix: (Units=1/GPa)
#
#
# Indices 1 2 3 4 5 6 
#
# 1 0.013582 -0.006715 -0.002093 0.000000 0.000000 0.000000
# 2 -0.006715 0.017416 -0.004667 0.000000 0.000000 0.000000
# 3 -0.002093 -0.004667 0.009117 0.000000 0.000000 0.000000
# 4 0.000000 0.000000 0.000000 0.057523 0.000000 0.000000
# 5 0.000000 0.000000 0.000000 0.000000 0.022245 0.000000
# 6 0.000000 0.000000 0.000000 0.000000 0.000000 -0.097951
#
#
# Mechanical properties :
#
#
# Convention : Reuss Voigt Hill
#
# Bulk Modulus (GPa) = 75.95956 78.74706 77.35331
# Shear Modulus (GPa) = 93.86157 22.86030 58.36094
#
# Velocity S-wave (km/s) = 7.65330 3.77699 6.03485
# Velocity P-wave (km/s) = 11.20263 8.25602 9.84025
#
# Compressibility (1/GPa) = 0.01316490
#
# Stress axis : x y z
#
# Youngs Moduli (GPa) = 73.62506 57.41699 109.69027
#
# Poissons Ratio (x) = 0.38558 0.22954
# Poissons Ratio (y) = 0.49442 0.51194
# Poissons Ratio (z) = 0.15407 0.26797
#
# Static dielectric constant tensor:
#      x y z
#    x 3.043580 0.000000 0.000000 
#    y 0.000000 2.778430 0.000000 
#    z 0.000000 0.000000 3.258540 
# 
# 
# High freq. dielectric constant tensor:
#      x y z
#    x 1.607210 0.000000 0.000000 
#    y 0.000000 1.585980 0.000000 
#    z 0.000000 0.000000 1.641530 
# 
# From -- ./inp_files/8452.got.cif
#   From: 2010.03.12/outbox.cif.g09.slc.cpg/sg69_5_cif.got.tgz:8452.got - 2010.04.10 23:52:46.
