data_PCOD8284899
_publ_section_title
;
Structure prediction by ZEFSAII (Michael W. Deem and Ramdas Pophale) SiO2 
 PCOD8284899
Probable space group: F M M M
;
_chemical_formula_sum "Si O2"
_cell_formula_units_Z 104
_cell_length_a 26.788466
_cell_length_b 23.723664
_cell_length_c 9.021058
_cell_angle_alpha 90.000000
_cell_angle_beta 90.000000
_cell_angle_gamma 90.000000
_cell_volume 5733.067890
_symmetry_space_group_name_H-M "F M M M"
_symmetry_group_IT_number 69
_symmetry_cell_setting 'orthorhombic'
loop_
_space_group_symop_operation_xyz
x,y,z
-x,-y,z
x,-y,-z
-x,y,-z
-x,-y,-z
x,y,-z
-x,y,z
x,-y,z
x,1/2+y,1/2+z
-x,1/2-y,1/2+z
x,1/2-y,1/2-z
-x,1/2+y,1/2-z
-x,1/2-y,1/2-z
x,1/2+y,1/2-z
-x,1/2+y,1/2+z
x,1/2-y,1/2+z
1/2+x,y,1/2+z
1/2-x,-y,1/2+z
1/2+x,-y,1/2-z
1/2-x,y,1/2-z
1/2-x,-y,1/2-z
1/2+x,y,1/2-z
1/2-x,y,1/2+z
1/2+x,-y,1/2+z
1/2+x,1/2+y,z
1/2-x,1/2-y,z
1/2+x,1/2-y,-z
1/2-x,1/2+y,-z
1/2-x,1/2-y,-z
1/2+x,1/2+y,-z
1/2-x,1/2+y,z
1/2+x,1/2-y,z
loop_
_atom_site_type_symbol
_atom_site_label
_atom_site_fract_x
_atom_site_fract_y
_atom_site_fract_z
Si Si1 0.092512 0.387316 0.175393
Si Si2 0.500000 0.690248 0.672841
Si Si3 0.250000 0.250000 0.750000
Si Si4 0.154206 0.697019 0.665356
Si Si5 0.058069 0.000000 0.175585
O O1 0.047859 0.345813 0.221265
O O2 0.143019 0.359495 0.240976
O O3 0.084895 0.446597 0.253729
O O4 0.097067 0.396198 0.000000
O O5 0.500000 0.701525 0.500000
O O6 0.500000 0.750000 0.750000
O O7 0.213980 0.291190 0.654175
O O8 0.132070 0.691791 0.500000
O O9 0.128082 0.750000 0.750000
O O10 0.000000 0.000000 0.220020
O O11 0.065600 0.000000 0.000000
#
# Coordination Sequence:
#
# PCOD8284899 Si02
#       5
#    32  16   8  32  16
#     4  11  22  37  57  81 114 155 196 238 284 339
#     4  10  22  35  50  77 113 152 186 228 279 334
#     4   8  22  36  62  84 118 152 186 236 296 350
#     4  10  20  35  57  87 117 148 188 234 288 346
#     4  11  23  39  59  82 111 156 203 243 283 331
#
# _framework density 18.140374000000001
#
# number of rings (size 3 to 8) (size 9 to 14) (size 15 to 20)
#    0.923    0.769    1.538    3.692    0.000    5.538 
#    0.000    0.000    0.000    0.923    0.000    0.000 
#    0.000    0.000    0.000    0.000    0.000    0.000 
#
# Total GULP energy -322276.452309 kJ/mol
# GULP energy per Si atom -12395.248166 kJ/mol
# Density = 1.809909 g / cm^3
# Si number density = 18.140374 Si / 1000 Ang^3
#
#
#
# Elastic Constant Matrix: (Units=GPa)
#
#
# Indices 1 2 3 4 5 6 
#
# 1 78.0768 54.0654 31.8915 -0.0022 0.0012 -0.0003
# 2 54.0654 161.4899 63.8346 -0.0022 0.0013 0.0008
# 3 31.8915 63.8346 117.2674 -0.0031 0.0018 0.0010
# 4 -0.0022 -0.0022 -0.0031 38.7467 0.0049 0.0009
# 5 0.0012 0.0013 0.0018 0.0049 19.9868 -0.0003
# 6 -0.0003 0.0008 0.0010 0.0009 -0.0003 23.6081
#
#
#
# Elastic Compliance Matrix: (Units=1/GPa)
#
#
# Indices 1 2 3 4 5 6 
#
# 1 0.017014 -0.004928 -0.001945 0.000001 -0.000001 0.000000
# 2 -0.004928 0.009317 -0.003732 0.000000 0.000000 0.000000
# 3 -0.001945 -0.003732 0.011088 0.000001 -0.000001 0.000000
# 4 0.000001 0.000000 0.000001 0.025809 -0.000006 -0.000001
# 5 -0.000001 0.000000 -0.000001 -0.000006 0.050033 0.000001
# 6 0.000000 0.000000 0.000000 -0.000001 0.000001 0.042358
#
#
# Mechanical properties :
#
#
# Convention : Reuss Voigt Hill
#
# Bulk Modulus (GPa) = 61.68588 72.93522 67.31055
# Shear Modulus (GPa) = 27.43765 30.27114 28.85439
#
# Velocity S-wave (km/s) = 3.89333 4.08942 3.99258
# Velocity P-wave (km/s) = 7.36812 7.91146 7.64462
#
# Compressibility (1/GPa) = 0.01621117
#
# Stress axis : x y z
#
# Youngs Moduli (GPa) = 58.77358 107.32925 90.18917
#
# Poissons Ratio (x) = 0.52887 0.17541
# Poissons Ratio (y) = 0.28961 0.33656
# Poissons Ratio (z) = 0.11431 0.40052
#
# Static dielectric constant tensor:
#      x y z
#    x 3.185060 0.000000 0.000000 
#    y 0.000000 3.370230 0.000000 
#    z 0.000000 0.000000 3.312690 
# 
# 
# High freq. dielectric constant tensor:
#      x y z
#    x 1.681330 0.000000 0.000000 
#    y 0.000000 1.697340 0.000000 
#    z 0.000000 0.000000 1.715180 
# 
# From -- ./inp_files/5190.got.cif
#   From: 2010.03.12/outbox.cif.g09.slc.cpg/sg69_3_cif.got.tgz:5190.got - 2010.04.10 23:52:46.
