data_PCOD8284603
_publ_section_title
;
Structure prediction by ZEFSAII (Michael W. Deem and Ramdas Pophale) SiO2 
 PCOD8284603
Probable space group: F M M M
;
_chemical_formula_sum "Si O2"
_cell_formula_units_Z 160
_cell_length_a 8.789914
_cell_length_b 30.001661
_cell_length_c 29.630644
_cell_angle_alpha 90.000000
_cell_angle_beta 90.000000
_cell_angle_gamma 90.000000
_cell_volume 7813.956985
_symmetry_space_group_name_H-M "F M M M"
_symmetry_group_IT_number 69
_symmetry_cell_setting 'orthorhombic'
loop_
_space_group_symop_operation_xyz
x,y,z
-x,-y,z
x,-y,-z
-x,y,-z
-x,-y,-z
x,y,-z
-x,y,z
x,-y,z
x,1/2+y,1/2+z
-x,1/2-y,1/2+z
x,1/2-y,1/2-z
-x,1/2+y,1/2-z
-x,1/2-y,1/2-z
x,1/2+y,1/2-z
-x,1/2+y,1/2+z
x,1/2-y,1/2+z
1/2+x,y,1/2+z
1/2-x,-y,1/2+z
1/2+x,-y,1/2-z
1/2-x,y,1/2-z
1/2-x,-y,1/2-z
1/2+x,y,1/2-z
1/2-x,y,1/2+z
1/2+x,-y,1/2+z
1/2+x,1/2+y,z
1/2-x,1/2-y,z
1/2+x,1/2-y,-z
1/2-x,1/2+y,-z
1/2-x,1/2-y,-z
1/2+x,1/2+y,-z
1/2-x,1/2+y,z
1/2+x,1/2-y,z
loop_
_atom_site_type_symbol
_atom_site_label
_atom_site_fract_x
_atom_site_fract_y
_atom_site_fract_z
Si Si1 0.677169 0.677326 0.704445
Si Si2 0.180902 0.552479 0.000000
Si Si3 0.681093 0.203865 0.895131
Si Si4 0.829212 0.406626 0.673568
Si Si5 0.328026 0.382011 0.929293
Si Si6 0.320532 0.000000 0.297976
O O1 0.500000 0.684283 0.708942
O O2 0.750000 0.698917 0.750000
O O3 0.737604 0.698366 0.657207
O O4 0.719963 0.625235 0.702411
O O5 0.242863 0.579269 0.043224
O O6 0.234371 0.500000 0.000000
O O7 0.000000 0.554374 0.000000
O O8 0.500000 0.203995 0.897299
O O9 0.750000 0.250000 0.913282
O O10 0.741127 0.165552 0.929295
O O11 0.829784 0.396906 0.621501
O O12 0.762204 0.456204 0.676639
O O13 0.000000 0.401921 0.693550
O O14 0.500000 0.375987 0.948010
O O15 0.250000 0.000000 0.250000
O O16 0.500000 0.000000 0.295164
#
# Coordination Sequence:
#
# PCOD8284603 Si02
#       6
#    32  16  32  32  32  16
#     4  10  20  33  51  76 110 150 195 245 293 343
#     4  11  25  43  64  93 128 159 191 237 289 347
#     4  10  21  38  60  86 119 157 198 244 297 355
#     4   9  19  34  53  75 106 145 189 238 289 345
#     4  10  21  39  64  90 117 152 194 242 294 352
#     4  10  20  32  46  71 104 141 187 236 281 330
#
# _framework density 20.476182000000001
#
# number of rings (size 3 to 8) (size 9 to 14) (size 15 to 20)
#    0.000    2.100    0.000    2.700    1.400    6.800 
#    0.000    2.500    0.000    0.000    0.000    0.000 
#    0.000    0.000    0.000    0.000    0.000    0.000 
#
# Total GULP energy -495755.328409 kJ/mol
# GULP energy per Si atom -12393.883210 kJ/mol
# Density = 2.042958 g / cm^3
# Si number density = 20.476182 Si / 1000 Ang^3
#
#
#
# Elastic Constant Matrix: (Units=GPa)
#
#
# Indices 1 2 3 4 5 6 
#
# 1 80.8961 44.7884 25.6815 0.0000 0.0000 0.0000
# 2 44.7884 157.7677 25.6645 0.0000 0.0000 0.0000
# 3 25.6815 25.6645 52.7565 0.0000 0.0000 0.0000
# 4 0.0000 0.0000 0.0000 16.8908 0.0000 0.0000
# 5 0.0000 0.0000 0.0000 0.0000 31.4060 0.0000
# 6 0.0000 0.0000 0.0000 0.0000 0.0000 32.9854
#
#
#
# Elastic Compliance Matrix: (Units=1/GPa)
#
#
# Indices 1 2 3 4 5 6 
#
# 1 0.016336 -0.003631 -0.006186 0.000000 0.000000 0.000000
# 2 -0.003631 0.007690 -0.001973 0.000000 0.000000 0.000000
# 3 -0.006186 -0.001973 0.022926 0.000000 0.000000 0.000000
# 4 0.000000 0.000000 0.000000 0.059204 0.000000 0.000000
# 5 0.000000 0.000000 0.000000 0.000000 0.031841 0.000000
# 6 0.000000 0.000000 0.000000 0.000000 0.000000 0.030316
#
#
# Mechanical properties :
#
#
# Convention : Reuss Voigt Hill
#
# Bulk Modulus (GPa) = 42.78705 53.74320 48.26512
# Shear Modulus (GPa) = 25.03946 29.27549 27.15748
#
# Velocity S-wave (km/s) = 3.50073 3.78528 3.64579
# Velocity P-wave (km/s) = 6.10586 6.73856 6.43000
#
# Compressibility (1/GPa) = 0.02337156
#
# Stress axis : x y z
#
# Youngs Moduli (GPa) = 61.21559 130.03331 43.61833
#
# Poissons Ratio (x) = 0.47219 0.26981
# Poissons Ratio (y) = 0.22229 0.08608
# Poissons Ratio (z) = 0.37865 0.25661
#
# Static dielectric constant tensor:
#      x y z
#    x 3.810970 0.000000 0.000000 
#    y 0.000000 3.978220 0.000000 
#    z 0.000000 0.000000 3.771360 
# 
# 
# High freq. dielectric constant tensor:
#      x y z
#    x 1.799850 0.000000 0.000000 
#    y 0.000000 1.808670 0.000000 
#    z 0.000000 0.000000 1.790280 
# 
# From -- ./inp_files/44616.got.cif
#   From: 2010.03.12/outbox.cif.g09.slc.cpg/sg69_23_cif.got.tgz:44616.got - 2010.04.10 23:52:46.
