data_PCOD8284283
_publ_section_title
;
Structure prediction by ZEFSAII (Michael W. Deem and Ramdas Pophale) SiO2 
 PCOD8284283
Probable space group: F M M M
;
_chemical_formula_sum "Si O2"
_cell_formula_units_Z 176
_cell_length_a 25.157130
_cell_length_b 24.740415
_cell_length_c 14.180831
_cell_angle_alpha 90.000000
_cell_angle_beta 90.000000
_cell_angle_gamma 90.000000
_cell_volume 8826.118533
_symmetry_space_group_name_H-M "F M M M"
_symmetry_group_IT_number 69
_symmetry_cell_setting 'orthorhombic'
loop_
_space_group_symop_operation_xyz
x,y,z
-x,-y,z
x,-y,-z
-x,y,-z
-x,-y,-z
x,y,-z
-x,y,z
x,-y,z
x,1/2+y,1/2+z
-x,1/2-y,1/2+z
x,1/2-y,1/2-z
-x,1/2+y,1/2-z
-x,1/2-y,1/2-z
x,1/2+y,1/2-z
-x,1/2+y,1/2+z
x,1/2-y,1/2+z
1/2+x,y,1/2+z
1/2-x,-y,1/2+z
1/2+x,-y,1/2-z
1/2-x,y,1/2-z
1/2-x,-y,1/2-z
1/2+x,y,1/2-z
1/2-x,y,1/2+z
1/2+x,-y,1/2+z
1/2+x,1/2+y,z
1/2-x,1/2-y,z
1/2+x,1/2-y,-z
1/2-x,1/2+y,-z
1/2-x,1/2-y,-z
1/2+x,1/2+y,-z
1/2-x,1/2+y,z
1/2+x,1/2-y,z
loop_
_atom_site_type_symbol
_atom_site_label
_atom_site_fract_x
_atom_site_fract_y
_atom_site_fract_z
Si Si1 0.249819 0.665409 0.603054
Si Si2 0.000000 0.064076 0.390149
Si Si3 0.207593 0.940351 0.667148
Si Si4 0.399692 0.112719 0.785266
Si Si5 0.133082 0.833326 0.890413
Si Si6 0.855940 0.288851 0.108837
O O1 0.233807 0.687195 0.500000
O O2 0.276235 0.605916 0.593392
O O3 0.192959 0.661413 0.655255
O O4 0.294234 0.706234 0.646842
O O5 0.049722 0.084659 0.330421
O O6 0.000000 0.084627 0.500000
O O7 0.000000 0.000000 0.390417
O O8 0.250000 0.937777 0.750000
O O9 0.148534 0.929043 0.704696
O O10 0.208232 0.000000 0.619913
O O11 0.405069 0.128640 0.673456
O O12 0.393036 0.169841 0.836943
O O13 0.118879 0.770238 0.877784
O O14 0.128211 0.851772 0.000000
O O15 0.854598 0.306239 0.000000
#
# Coordination Sequence:
#
# PCOD8284283 Si02
#       6
#    32  16  32  32  32  32
#     4   9  17  30  48  77 118 161 199 235 280 345
#     4  11  26  48  72  91 109 143 198 260 312 355
#     4  10  19  32  51  79 114 147 188 241 300 355
#     4  11  21  38  61  86 114 152 195 249 301 353
#     4  10  19  33  53  84 124 162 196 230 280 351
#     4   9  18  31  53  85 121 159 198 241 288 344
#
# _framework density 19.940816000000002
#
# number of rings (size 3 to 8) (size 9 to 14) (size 15 to 20)
#    0.000    2.091    1.818    2.182    0.000    3.273 
#    0.000    4.091    0.000    4.909    0.000    0.000 
#    0.000    0.000    0.000    0.000    0.000    0.000 
#
# Total GULP energy -545092.426908 kJ/mol
# GULP energy per Si atom -12388.464248 kJ/mol
# Density = 1.989543 g / cm^3
# Si number density = 19.940816 Si / 1000 Ang^3
#
#
#
# Elastic Constant Matrix: (Units=GPa)
#
#
# Indices 1 2 3 4 5 6 
#
# 1 102.8717 25.2941 44.7045 0.0000 0.0000 0.0000
# 2 25.2941 62.8795 29.8731 0.0000 0.0000 0.0000
# 3 44.7045 29.8731 98.0997 0.0000 0.0000 0.0000
# 4 0.0000 0.0000 0.0000 25.6387 0.0000 0.0000
# 5 0.0000 0.0000 0.0000 0.0000 25.1660 0.0000
# 6 0.0000 0.0000 0.0000 0.0000 0.0000 12.5115
#
#
#
# Elastic Compliance Matrix: (Units=1/GPa)
#
#
# Indices 1 2 3 4 5 6 
#
# 1 0.012506 -0.002716 -0.004872 0.000000 0.000000 0.000000
# 2 -0.002716 0.019183 -0.004604 0.000000 0.000000 0.000000
# 3 -0.004872 -0.004604 0.013816 0.000000 0.000000 0.000000
# 4 0.000000 0.000000 0.000000 0.039004 0.000000 0.000000
# 5 0.000000 0.000000 0.000000 0.000000 0.039736 0.000000
# 6 0.000000 0.000000 0.000000 0.000000 0.000000 0.079926
#
#
# Mechanical properties :
#
#
# Convention : Reuss Voigt Hill
#
# Bulk Modulus (GPa) = 47.34583 51.51048 49.42815
# Shear Modulus (GPa) = 21.22285 23.59519 22.40902
#
# Velocity S-wave (km/s) = 3.26589 3.44359 3.35591
# Velocity P-wave (km/s) = 6.16572 6.45746 6.31328
#
# Compressibility (1/GPa) = 0.02112118
#
# Stress axis : x y z
#
# Youngs Moduli (GPa) = 79.96275 52.12873 72.38085
#
# Poissons Ratio (x) = 0.14159 0.35263
# Poissons Ratio (y) = 0.21719 0.33323
# Poissons Ratio (z) = 0.38957 0.24000
#
# Static dielectric constant tensor:
#      x y z
#    x 3.406650 0.000000 0.000000 
#    y 0.000000 3.818900 0.000000 
#    z 0.000000 0.000000 3.657630 
# 
# 
# High freq. dielectric constant tensor:
#      x y z
#    x 1.739550 0.000000 0.000000 
#    y 0.000000 1.781690 0.000000 
#    z 0.000000 0.000000 1.775100 
# 
# From -- ./inp_files/18066.got.cif
#   From: 2010.03.12/outbox.cif.g09.slc.cpg/sg69_10_cif.got.tgz:18066.got - 2010.04.10 23:52:46.
