data_PCOD8284903
_publ_section_title
;
Structure prediction by ZEFSAII (Michael W. Deem and Ramdas Pophale) SiO2 
 PCOD8284903
Probable space group: F M M M
;
_chemical_formula_sum "Si O2"
_cell_formula_units_Z 176
_cell_length_a 25.248977
_cell_length_b 18.695772
_cell_length_c 20.728761
_cell_angle_alpha 90.000000
_cell_angle_beta 90.000000
_cell_angle_gamma 90.000000
_cell_volume 9784.993331
_symmetry_space_group_name_H-M "F M M M"
_symmetry_group_IT_number 69
_symmetry_cell_setting 'orthorhombic'
loop_
_space_group_symop_operation_xyz
x,y,z
-x,-y,z
x,-y,-z
-x,y,-z
-x,-y,-z
x,y,-z
-x,y,z
x,-y,z
x,1/2+y,1/2+z
-x,1/2-y,1/2+z
x,1/2-y,1/2-z
-x,1/2+y,1/2-z
-x,1/2-y,1/2-z
x,1/2+y,1/2-z
-x,1/2+y,1/2+z
x,1/2-y,1/2+z
1/2+x,y,1/2+z
1/2-x,-y,1/2+z
1/2+x,-y,1/2-z
1/2-x,y,1/2-z
1/2-x,-y,1/2-z
1/2+x,y,1/2-z
1/2-x,y,1/2+z
1/2+x,-y,1/2+z
1/2+x,1/2+y,z
1/2-x,1/2-y,z
1/2+x,1/2-y,-z
1/2-x,1/2+y,-z
1/2-x,1/2-y,-z
1/2+x,1/2+y,-z
1/2-x,1/2+y,z
1/2+x,1/2-y,z
loop_
_atom_site_type_symbol
_atom_site_label
_atom_site_fract_x
_atom_site_fract_y
_atom_site_fract_z
Si Si1 0.562361 0.580103 0.000000
Si Si2 0.308607 0.581187 0.667444
Si Si3 0.812815 0.418135 0.316891
Si Si4 0.500000 0.674459 0.427118
Si Si5 0.900369 0.829053 0.881361
Si Si6 0.115001 0.167103 0.574162
Si Si7 0.000000 0.790007 0.182703
O O1 0.582373 0.619965 0.937816
O O2 0.585732 0.500000 0.000000
O O3 0.500000 0.578523 0.000000
O O4 0.323892 0.500000 0.650846
O O5 0.246429 0.593899 0.657111
O O6 0.320462 0.598584 0.741564
O O7 0.342712 0.630721 0.620564
O O8 0.830278 0.500000 0.330721
O O9 0.846507 0.359747 0.353594
O O10 0.500000 0.706274 0.500000
O O11 0.444391 0.631413 0.416956
O O12 0.500000 0.739930 0.379241
O O13 0.889236 0.749908 0.907172
O O14 0.945433 0.834158 0.824892
O O15 0.133783 0.158712 0.500000
O O16 0.000000 0.750000 0.250000
#
# Coordination Sequence:
#
# PCOD8284903 Si02
#       7
#    16  32  32  16  32  32  16
#     4  11  22  38  58  83 115 159 197 229 281 346
#     4   9  20  40  60  78 107 147 191 236 289 346
#     4   9  20  39  59  79 108 149 189 234 291 341
#     4   8  18  34  55  77 111 150 181 215 282 350
#     4  11  21  36  58  83 117 148 191 233 285 341
#     4  10  20  35  58  84 111 148 186 230 285 340
#     4  10  22  32  52  86 121 149 183 231 286 340
#
# _framework density 17.986726999999998
#
# number of rings (size 3 to 8) (size 9 to 14) (size 15 to 20)
#    0.000    2.273    1.818    1.636    6.364    1.091 
#    1.636    3.182    0.000    3.818    0.000    0.000 
#    0.000    0.000    0.000    0.000    0.000    0.000 
#
# Total GULP energy -545254.527914 kJ/mol
# GULP energy per Si atom -12392.148362 kJ/mol
# Density = 1.794579 g / cm^3
# Si number density = 17.986727 Si / 1000 Ang^3
#
#
#
# Elastic Constant Matrix: (Units=GPa)
#
#
# Indices 1 2 3 4 5 6 
#
# 1 108.5503 54.4473 67.0589 0.0000 0.0000 0.0000
# 2 54.4473 87.8794 56.2396 0.0000 0.0000 0.0000
# 3 67.0589 56.2396 102.8912 0.0000 0.0000 0.0000
# 4 0.0000 0.0000 0.0000 34.4845 0.0000 0.0000
# 5 0.0000 0.0000 0.0000 0.0000 24.2460 0.0000
# 6 0.0000 0.0000 0.0000 0.0000 0.0000 35.7517
#
#
#
# Elastic Compliance Matrix: (Units=1/GPa)
#
#
# Indices 1 2 3 4 5 6 
#
# 1 0.016862 -0.005251 -0.008120 0.000000 0.000000 0.000000
# 2 -0.005251 0.019136 -0.007037 0.000000 0.000000 0.000000
# 3 -0.008120 -0.007037 0.018858 0.000000 0.000000 0.000000
# 4 0.000000 0.000000 0.000000 0.028999 0.000000 0.000000
# 5 0.000000 0.000000 0.000000 0.000000 0.041244 0.000000
# 6 0.000000 0.000000 0.000000 0.000000 0.000000 0.027971
#
#
# Mechanical properties :
#
#
# Convention : Reuss Voigt Hill
#
# Bulk Modulus (GPa) = 71.22605 72.75695 71.99150
# Shear Modulus (GPa) = 25.18058 27.00145 26.09102
#
# Velocity S-wave (km/s) = 3.74565 3.87872 3.81277
# Velocity P-wave (km/s) = 7.64145 7.78444 7.71328
#
# Compressibility (1/GPa) = 0.01403981
#
# Stress axis : x y z
#
# Youngs Moduli (GPa) = 59.30394 52.25672 53.02886
#
# Poissons Ratio (x) = 0.27440 0.43058
# Poissons Ratio (y) = 0.31140 0.37319
# Poissons Ratio (z) = 0.48153 0.36775
#
# Static dielectric constant tensor:
#      x y z
#    x 3.668700 0.000000 0.000000 
#    y 0.000000 3.207660 0.000000 
#    z 0.000000 0.000000 3.356900 
# 
# 
# High freq. dielectric constant tensor:
#      x y z
#    x 1.709620 0.000000 0.000000 
#    y 0.000000 1.676790 0.000000 
#    z 0.000000 0.000000 1.701160 
# 
# From -- ./inp_files/26807.got.cif
#   From: 2010.03.12/outbox.cif.g09.slc.cpg/sg69_14_cif.got.tgz:26807.got - 2010.04.10 23:52:46.
