data_PCOD8284756
_publ_section_title
;
Structure prediction by ZEFSAII (Michael W. Deem and Ramdas Pophale) SiO2 
 PCOD8284756
Probable space group: F M M M
;
_chemical_formula_sum "Si O2"
_cell_formula_units_Z 160
_cell_length_a 14.464990
_cell_length_b 23.675137
_cell_length_c 20.771781
_cell_angle_alpha 90.000000
_cell_angle_beta 90.000000
_cell_angle_gamma 90.000000
_cell_volume 7113.516999
_symmetry_space_group_name_H-M "F M M M"
_symmetry_group_IT_number 69
_symmetry_cell_setting 'orthorhombic'
loop_
_space_group_symop_operation_xyz
x,y,z
-x,-y,z
x,-y,-z
-x,y,-z
-x,-y,-z
x,y,-z
-x,y,z
x,-y,z
x,1/2+y,1/2+z
-x,1/2-y,1/2+z
x,1/2-y,1/2-z
-x,1/2+y,1/2-z
-x,1/2-y,1/2-z
x,1/2+y,1/2-z
-x,1/2+y,1/2+z
x,1/2-y,1/2+z
1/2+x,y,1/2+z
1/2-x,-y,1/2+z
1/2+x,-y,1/2-z
1/2-x,y,1/2-z
1/2-x,-y,1/2-z
1/2+x,y,1/2-z
1/2-x,y,1/2+z
1/2+x,-y,1/2+z
1/2+x,1/2+y,z
1/2-x,1/2-y,z
1/2+x,1/2-y,-z
1/2-x,1/2+y,-z
1/2-x,1/2-y,-z
1/2+x,1/2+y,-z
1/2-x,1/2+y,z
1/2+x,1/2-y,z
loop_
_atom_site_type_symbol
_atom_site_label
_atom_site_fract_x
_atom_site_fract_y
_atom_site_fract_z
Si Si1 0.720296 0.564527 0.394449
Si Si2 0.601618 0.937982 0.228311
Si Si3 0.892953 0.833599 0.570263
Si Si4 0.391037 0.247598 0.677225
Si Si5 0.395710 0.375779 0.143100
O O1 0.713741 0.500000 0.419982
O O2 0.684288 0.569531 0.321540
O O3 0.657622 0.606052 0.436321
O O4 0.826420 0.585667 0.398351
O O5 0.500000 0.932153 0.194609
O O6 0.610123 0.890731 0.281869
O O7 0.609900 0.000000 0.260891
O O8 0.880464 0.803591 0.500000
O O9 0.851408 0.796558 0.629696
O O10 0.000000 0.845040 0.583972
O O11 0.500000 0.254301 0.683008
O O12 0.348406 0.250000 0.750000
O O13 0.365993 0.189588 0.640686
O O14 0.500000 0.385173 0.116576
#
# Coordination Sequence:
#
# PCOD8284756 Si02
#       5
#    32  32  32  32  32
#     4  11  22  35  54  82 116 155 201 248 296 355
#     4   9  17  30  50  79 117 157 196 244 302 357
#     4  10  22  41  64  89 117 149 189 243 306 366
#     4   9  18  35  60  88 119 156 198 246 300 358
#     4  10  20  34  53  80 116 157 200 246 297 354
#
# _framework density 22.492391000000001
#
# number of rings (size 3 to 8) (size 9 to 14) (size 15 to 20)
#    0.000    2.200    0.000    3.000    0.000    8.400 
#    0.000    4.000    0.000    1.800    0.000    1.400 
#    0.000    0.000    0.000    0.000    0.000    4.200 
#
# Total GULP energy -495714.729168 kJ/mol
# GULP energy per Si atom -12392.868229 kJ/mol
# Density = 2.244120 g / cm^3
# Si number density = 22.492391 Si / 1000 Ang^3
#
#
#
# Elastic Constant Matrix: (Units=GPa)
#
#
# Indices 1 2 3 4 5 6 
#
# 1 99.7138 43.1714 18.2664 0.0000 0.0000 0.0000
# 2 43.1714 142.6684 48.8429 0.0000 0.0000 0.0000
# 3 18.2664 48.8429 93.9044 0.0000 0.0000 0.0000
# 4 0.0000 0.0000 0.0000 17.7669 0.0000 0.0000
# 5 0.0000 0.0000 0.0000 0.0000 10.4760 0.0000
# 6 0.0000 0.0000 0.0000 0.0000 0.0000 30.1800
#
#
#
# Elastic Compliance Matrix: (Units=1/GPa)
#
#
# Indices 1 2 3 4 5 6 
#
# 1 0.011562 -0.003320 -0.000522 0.000000 0.000000 0.000000
# 2 -0.003320 0.009481 -0.004286 0.000000 0.000000 0.000000
# 3 -0.000522 -0.004286 0.012980 0.000000 0.000000 0.000000
# 4 0.000000 0.000000 0.000000 0.056284 0.000000 0.000000
# 5 0.000000 0.000000 0.000000 0.000000 0.095456 0.000000
# 6 0.000000 0.000000 0.000000 0.000000 0.000000 0.033134
#
#
# Mechanical properties :
#
#
# Convention : Reuss Voigt Hill
#
# Bulk Modulus (GPa) = 56.28352 61.87200 59.07776
# Shear Modulus (GPa) = 20.74039 26.75165 23.74602
#
# Velocity S-wave (km/s) = 3.03992 3.45246 3.25273
# Velocity P-wave (km/s) = 6.11548 6.59244 6.35844
#
# Compressibility (1/GPa) = 0.01776719
#
# Stress axis : x y z
#
# Youngs Moduli (GPa) = 86.49265 105.47388 77.04259
#
# Poissons Ratio (x) = 0.35015 0.04024
# Poissons Ratio (y) = 0.28714 0.33018
# Poissons Ratio (z) = 0.04517 0.45202
#
# Static dielectric constant tensor:
#      x y z
#    x 4.062810 0.000000 0.000000 
#    y 0.000000 4.229480 0.000000 
#    z 0.000000 0.000000 3.667240 
# 
# 
# High freq. dielectric constant tensor:
#      x y z
#    x 1.884980 0.000000 0.000000 
#    y 0.000000 1.893350 0.000000 
#    z 0.000000 0.000000 1.844080 
# 
# From -- ./inp_files/35835.got.cif
#   From: 2010.03.12/outbox.cif.g09.slc.cpg/sg69_18_cif.got.tgz:35835.got - 2010.04.10 23:52:46.
