data_PCOD8284815
_publ_section_title
;
Structure prediction by ZEFSAII (Michael W. Deem and Ramdas Pophale) SiO2 
 PCOD8284815
Probable space group: F M M M
;
_chemical_formula_sum "Si O2"
_cell_formula_units_Z 144
_cell_length_a 28.708045
_cell_length_b 8.757889
_cell_length_c 31.057514
_cell_angle_alpha 90.000000
_cell_angle_beta 90.000000
_cell_angle_gamma 90.000000
_cell_volume 7808.538295
_symmetry_space_group_name_H-M "F M M M"
_symmetry_group_IT_number 69
_symmetry_cell_setting 'orthorhombic'
loop_
_space_group_symop_operation_xyz
x,y,z
-x,-y,z
x,-y,-z
-x,y,-z
-x,-y,-z
x,y,-z
-x,y,z
x,-y,z
x,1/2+y,1/2+z
-x,1/2-y,1/2+z
x,1/2-y,1/2-z
-x,1/2+y,1/2-z
-x,1/2-y,1/2-z
x,1/2+y,1/2-z
-x,1/2+y,1/2+z
x,1/2-y,1/2+z
1/2+x,y,1/2+z
1/2-x,-y,1/2+z
1/2+x,-y,1/2-z
1/2-x,y,1/2-z
1/2-x,-y,1/2-z
1/2+x,y,1/2-z
1/2-x,y,1/2+z
1/2+x,-y,1/2+z
1/2+x,1/2+y,z
1/2-x,1/2-y,z
1/2+x,1/2-y,-z
1/2-x,1/2+y,-z
1/2-x,1/2-y,-z
1/2+x,1/2+y,-z
1/2-x,1/2+y,z
1/2+x,1/2-y,z
loop_
_atom_site_type_symbol
_atom_site_label
_atom_site_fract_x
_atom_site_fract_y
_atom_site_fract_z
Si Si1 0.700532 0.322934 0.500000
Si Si2 0.947515 0.818536 0.047425
Si Si3 0.801094 0.319562 0.906558
Si Si4 0.946257 0.178652 0.295646
Si Si5 0.388906 0.818715 0.372469
O O1 0.709706 0.500000 0.500000
O O2 0.750000 0.250000 0.500000
O O3 0.677198 0.276636 0.545699
O O4 0.915341 0.752428 0.085333
O O5 0.000000 0.757781 0.054693
O O6 0.947424 0.000000 0.049181
O O7 0.929534 0.764088 0.000000
O O8 0.798076 0.500000 0.899374
O O9 0.750000 0.250000 0.899644
O O10 0.836327 0.245692 0.872309
O O11 0.932925 0.250000 0.250000
O O12 0.914568 0.260371 0.330464
O O13 0.000000 0.211907 0.306921
O O14 0.935432 0.000000 0.294701
O O15 0.387815 0.000000 0.372077
#
# Coordination Sequence:
#
# PCOD8284815 Si02
#       5
#    16  32  32  32  32
#     4   8  16  30  48  68  95 134 179 228 276 319
#     4   8  15  28  45  69 104 143 181 219 258 308
#     4  10  20  35  52  74 105 143 186 234 281 326
#     4  10  21  38  60  85 113 143 178 224 276 328
#     4  11  21  32  53  82 110 145 184 225 273 329
#
# _framework density 18.441351000000001
#
# number of rings (size 3 to 8) (size 9 to 14) (size 15 to 20)
#    0.000    2.444    0.000    3.333    1.556    3.111 
#    0.000    0.000    0.000    0.667    0.000    9.333 
#    0.000    0.000    0.000    0.000    0.000    0.000 
#
# Total GULP energy -446151.480609 kJ/mol
# GULP energy per Si atom -12393.096684 kJ/mol
# Density = 1.839938 g / cm^3
# Si number density = 18.441351 Si / 1000 Ang^3
#
#
#
# Elastic Constant Matrix: (Units=GPa)
#
#
# Indices 1 2 3 4 5 6 
#
# 1 107.1468 47.1142 77.9973 0.0000 0.0000 0.0000
# 2 47.1142 74.3308 49.8390 0.0000 0.0000 -0.0002
# 3 77.9973 49.8390 120.1078 0.0000 0.0000 0.0000
# 4 0.0000 0.0000 0.0000 26.2454 0.0000 0.0000
# 5 0.0000 0.0000 0.0000 0.0000 29.2273 0.0000
# 6 0.0000 -0.0002 0.0000 0.0000 0.0000 25.4052
#
#
#
# Elastic Compliance Matrix: (Units=1/GPa)
#
#
# Indices 1 2 3 4 5 6 
#
# 1 0.019069 -0.005242 -0.010208 0.000000 0.000000 0.000000
# 2 -0.005242 0.020080 -0.004928 0.000000 0.000000 0.000000
# 3 -0.010208 -0.004928 0.017000 0.000000 0.000000 0.000000
# 4 0.000000 0.000000 0.000000 0.038102 0.000000 0.000000
# 5 0.000000 0.000000 0.000000 0.000000 0.034215 0.000000
# 6 0.000000 0.000000 0.000000 0.000000 0.000000 0.039362
#
#
# Mechanical properties :
#
#
# Convention : Reuss Voigt Hill
#
# Bulk Modulus (GPa) = 64.96689 72.38739 68.67714
# Shear Modulus (GPa) = 23.39559 24.61791 24.00675
#
# Velocity S-wave (km/s) = 3.56567 3.65763 3.61195
# Velocity P-wave (km/s) = 7.22893 7.56146 7.39706
#
# Compressibility (1/GPa) = 0.01539246
#
# Stress axis : x y z
#
# Youngs Moduli (GPa) = 52.44107 49.79958 58.82419
#
# Poissons Ratio (x) = 0.26106 0.60048
# Poissons Ratio (y) = 0.27491 0.28989
# Poissons Ratio (z) = 0.53532 0.24542
#
# Static dielectric constant tensor:
#      x y z
#    x 3.302430 0.000000 0.000000 
#    y 0.000000 3.139980 0.000000 
#    z 0.000000 0.000000 3.430800 
# 
# 
# High freq. dielectric constant tensor:
#      x y z
#    x 1.707650 0.000000 0.000000 
#    y 0.000000 1.707690 0.000000 
#    z 0.000000 0.000000 1.706830 
# 
# From -- ./inp_files/5585.got.cif
#   From: 2010.03.12/outbox.cif.g09.slc.cpg/sg69_3_cif.got.tgz:5585.got - 2010.04.10 23:52:46.
