data_PCOD8284516
_publ_section_title
;
Structure prediction by ZEFSAII (Michael W. Deem and Ramdas Pophale) SiO2 
 PCOD8284516
Probable space group: F M M M
;
_chemical_formula_sum "Si O2"
_cell_formula_units_Z 192
_cell_length_a 30.351716
_cell_length_b 17.192634
_cell_length_c 18.663947
_cell_angle_alpha 90.000000
_cell_angle_beta 90.000000
_cell_angle_gamma 90.000000
_cell_volume 9739.331771
_symmetry_space_group_name_H-M "F M M M"
_symmetry_group_IT_number 69
_symmetry_cell_setting 'orthorhombic'
loop_
_space_group_symop_operation_xyz
x,y,z
-x,-y,z
x,-y,-z
-x,y,-z
-x,-y,-z
x,y,-z
-x,y,z
x,-y,z
x,1/2+y,1/2+z
-x,1/2-y,1/2+z
x,1/2-y,1/2-z
-x,1/2+y,1/2-z
-x,1/2-y,1/2-z
x,1/2+y,1/2-z
-x,1/2+y,1/2+z
x,1/2-y,1/2+z
1/2+x,y,1/2+z
1/2-x,-y,1/2+z
1/2+x,-y,1/2-z
1/2-x,y,1/2-z
1/2-x,-y,1/2-z
1/2+x,y,1/2-z
1/2-x,y,1/2+z
1/2+x,-y,1/2+z
1/2+x,1/2+y,z
1/2-x,1/2-y,z
1/2+x,1/2-y,-z
1/2-x,1/2+y,-z
1/2-x,1/2-y,-z
1/2+x,1/2+y,-z
1/2-x,1/2+y,z
1/2+x,1/2-y,z
loop_
_atom_site_type_symbol
_atom_site_label
_atom_site_fract_x
_atom_site_fract_y
_atom_site_fract_z
Si Si1 0.000000 0.408887 0.717364
Si Si2 0.081505 0.691972 0.683031
Si Si3 0.667193 0.089254 0.310414
Si Si4 0.241051 0.407670 0.419677
Si Si5 0.911863 0.173974 0.580697
Si Si6 0.169695 0.911108 0.646129
Si Si7 0.500000 0.409903 0.384888
O O1 0.042742 0.370465 0.683114
O O2 0.000000 0.391511 0.801232
O O3 0.000000 0.500000 0.699973
O O4 0.078744 0.750000 0.750000
O O5 0.126098 0.644532 0.680404
O O6 0.077362 0.740587 0.610082
O O7 0.704677 0.122505 0.363628
O O8 0.683830 0.094655 0.228974
O O9 0.654796 0.000000 0.329562
O O10 0.229186 0.379310 0.500000
O O11 0.242963 0.500000 0.414763
O O12 0.289464 0.375769 0.398718
O O13 0.893740 0.179792 0.500000
O O14 0.874741 0.136151 0.631307
O O15 0.956340 0.124483 0.579999
O O16 0.159910 0.000000 0.624148
O O17 0.500000 0.500000 0.401984
#
# Coordination Sequence:
#
# PCOD8284516 Si02
#       7
#    16  32  32  32  32  32  16
#     4  11  22  40  69  95 115 151 203 248 287 340
#     4  12  22  40  62  86 121 159 194 239 290 351
#     4  10  20  36  61  88 115 153 204 249 294 351
#     4   9  18  33  56  86 119 155 199 253 304 346
#     4  12  25  38  57  87 124 163 196 238 301 364
#     4  10  19  35  59  88 119 157 203 250 297 357
#     4  11  22  38  60  90 123 156 195 237 290 358
#
# _framework density 19.713878000000001
#
# number of rings (size 3 to 8) (size 9 to 14) (size 15 to 20)
#    0.000    1.333    3.333    3.000    0.000    7.667 
#    0.000    0.833    0.000    4.000    0.000    0.000 
#    0.000    0.000    0.000    0.000    0.000    0.000 
#
# Total GULP energy -595332.357099 kJ/mol
# GULP energy per Si atom -12402.757440 kJ/mol
# Density = 1.966901 g / cm^3
# Si number density = 19.713878 Si / 1000 Ang^3
#
#
#
# Elastic Constant Matrix: (Units=GPa)
#
#
# Indices 1 2 3 4 5 6 
#
# 1 134.9728 39.4601 45.7435 0.0000 0.0000 0.0000
# 2 39.4601 73.4911 37.9338 0.0000 0.0000 0.0000
# 3 45.7435 37.9338 111.7611 0.0000 0.0000 0.0000
# 4 0.0000 0.0000 0.0000 5.3147 0.0000 0.0000
# 5 0.0000 0.0000 0.0000 0.0000 26.4426 0.0000
# 6 0.0000 0.0000 0.0000 0.0000 0.0000 20.0457
#
#
#
# Elastic Compliance Matrix: (Units=1/GPa)
#
#
# Indices 1 2 3 4 5 6 
#
# 1 0.009363 -0.003697 -0.002578 0.000000 0.000000 0.000000
# 2 -0.003697 0.017957 -0.004582 0.000000 0.000000 0.000000
# 3 -0.002578 -0.004582 0.011558 0.000000 0.000000 0.000000
# 4 0.000000 0.000000 0.000000 0.188157 0.000000 0.000000
# 5 0.000000 0.000000 0.000000 0.000000 0.037818 0.000000
# 6 0.000000 0.000000 0.000000 0.000000 0.000000 0.049886
#
#
# Mechanical properties :
#
#
# Convention : Reuss Voigt Hill
#
# Bulk Modulus (GPa) = 58.25646 62.94440 60.60043
# Shear Modulus (GPa) = 14.61248 23.49980 19.05614
#
# Velocity S-wave (km/s) = 2.72550 3.45634 3.11245
# Velocity P-wave (km/s) = 6.28646 6.92291 6.61235
#
# Compressibility (1/GPa) = 0.01716548
#
# Stress axis : x y z
#
# Youngs Moduli (GPa) = 106.79994 55.68811 86.52191
#
# Poissons Ratio (x) = 0.20588 0.22301
# Poissons Ratio (y) = 0.39485 0.39642
# Poissons Ratio (z) = 0.27528 0.25515
#
# Static dielectric constant tensor:
#      x y z
#    x 3.693220 0.000000 0.000000 
#    y 0.000000 3.510120 0.000000 
#    z 0.000000 0.000000 3.682910 
# 
# 
# High freq. dielectric constant tensor:
#      x y z
#    x 1.779260 0.000000 0.000000 
#    y 0.000000 1.753640 0.000000 
#    z 0.000000 0.000000 1.767570 
# 
# From -- ./inp_files/27801.got.cif
#   From: 2010.03.12/outbox.cif.g09.slc.cpg/sg69_14_cif.got.tgz:27801.got - 2010.04.10 23:52:46.
