data_PCOD8284838
_publ_section_title
;
Structure prediction by ZEFSAII (Michael W. Deem and Ramdas Pophale) SiO2 
 PCOD8284838
Probable space group: F M M M
;
_chemical_formula_sum "Si O2"
_cell_formula_units_Z 160
_cell_length_a 20.031161
_cell_length_b 22.628697
_cell_length_c 18.959342
_cell_angle_alpha 90.000000
_cell_angle_beta 90.000000
_cell_angle_gamma 90.000000
_cell_volume 8593.872963
_symmetry_space_group_name_H-M "F M M M"
_symmetry_group_IT_number 69
_symmetry_cell_setting 'orthorhombic'
loop_
_space_group_symop_operation_xyz
x,y,z
-x,-y,z
x,-y,-z
-x,y,-z
-x,-y,-z
x,y,-z
-x,y,z
x,-y,z
x,1/2+y,1/2+z
-x,1/2-y,1/2+z
x,1/2-y,1/2-z
-x,1/2+y,1/2-z
-x,1/2-y,1/2-z
x,1/2+y,1/2-z
-x,1/2+y,1/2+z
x,1/2-y,1/2+z
1/2+x,y,1/2+z
1/2-x,-y,1/2+z
1/2+x,-y,1/2-z
1/2-x,y,1/2-z
1/2-x,-y,1/2-z
1/2+x,y,1/2-z
1/2-x,y,1/2+z
1/2+x,-y,1/2+z
1/2+x,1/2+y,z
1/2-x,1/2-y,z
1/2+x,1/2-y,-z
1/2-x,1/2+y,-z
1/2-x,1/2-y,-z
1/2+x,1/2+y,-z
1/2-x,1/2+y,z
1/2+x,1/2-y,z
loop_
_atom_site_type_symbol
_atom_site_label
_atom_site_fract_x
_atom_site_fract_y
_atom_site_fract_z
Si Si1 0.117034 0.128401 0.418893
Si Si2 0.325195 0.500000 0.224804
Si Si3 0.239347 0.681269 0.422129
Si Si4 0.183295 0.124681 0.203982
Si Si5 0.420210 0.000000 0.859173
Si Si6 0.075404 0.311345 0.784542
O O1 0.095774 0.140778 0.500000
O O2 0.195742 0.140754 0.409139
O O3 0.079966 0.177567 0.369342
O O4 0.099642 0.060019 0.401315
O O5 0.250000 0.500000 0.250000
O O6 0.331313 0.441715 0.177527
O O7 0.379418 0.500000 0.287076
O O8 0.210728 0.669774 0.500000
O O9 0.250000 0.750000 0.410189
O O10 0.183489 0.664151 0.365660
O O11 0.250000 0.133242 0.250000
O O12 0.120598 0.137832 0.252774
O O13 0.500000 0.000000 0.845509
O O14 0.101920 0.250000 0.750000
O O15 0.000000 0.320230 0.759341
#
# Coordination Sequence:
#
# PCOD8284838 Si02
#       6
#    32  16  32  32  16  32
#     4  11  22  38  59  88 124 159 197 245 304 373
#     4  10  20  35  54  81 114 150 195 248 284 339
#     4  10  21  37  59  88 118 152 200 254 306 360
#     4  11  20  35  59  80 110 151 197 238 290 346
#     4  12  23  38  58  88 127 170 204 243 304 383
#     4  11  23  37  55  84 116 151 198 245 292 356
#
# _framework density 18.617915
#
# number of rings (size 3 to 8) (size 9 to 14) (size 15 to 20)
#    0.000    1.200    4.000    3.300    0.000    2.000 
#    0.000    1.500    0.000    1.800    0.000    0.000 
#    0.000    2.400    0.000    0.000    0.000    0.000 
#
# Total GULP energy -495560.046289 kJ/mol
# GULP energy per Si atom -12389.001157 kJ/mol
# Density = 1.857554 g / cm^3
# Si number density = 18.617915 Si / 1000 Ang^3
#
#
#
# Elastic Constant Matrix: (Units=GPa)
#
#
# Indices 1 2 3 4 5 6 
#
# 1 72.2448 18.4165 28.5350 0.0000 0.0000 0.0000
# 2 18.4165 97.7264 57.3031 0.0000 0.0000 0.0000
# 3 28.5350 57.3031 125.1055 0.0000 0.0000 0.0000
# 4 0.0000 0.0000 0.0000 287.4287 0.0000 0.0000
# 5 0.0000 0.0000 0.0000 0.0000 20.9000 0.0000
# 6 0.0000 0.0000 0.0000 0.0000 0.0000 -32.2445
#
#
#
# Elastic Compliance Matrix: (Units=1/GPa)
#
#
# Indices 1 2 3 4 5 6 
#
# 1 0.015305 -0.001145 -0.002967 0.000000 0.000000 0.000000
# 2 -0.001145 0.014076 -0.006186 0.000000 0.000000 0.000000
# 3 -0.002967 -0.006186 0.011503 0.000000 0.000000 0.000000
# 4 0.000000 0.000000 0.000000 0.003479 0.000000 0.000000
# 5 0.000000 0.000000 0.000000 0.000000 0.047847 0.000000
# 6 0.000000 0.000000 0.000000 0.000000 0.000000 -0.031013
#
#
# Mechanical properties :
#
#
# Convention : Reuss Voigt Hill
#
# Bulk Modulus (GPa) = 49.28669 55.95400 52.62034
# Shear Modulus (GPa) = 56.46168 67.93830 62.19999
#
# Velocity S-wave (km/s) = 5.51293 6.04732 5.78629
# Velocity P-wave (km/s) = 8.18861 8.88139 8.54203
#
# Compressibility (1/GPa) = 0.02028946
#
# Stress axis : x y z
#
# Youngs Moduli (GPa) = 65.33647 71.04455 86.93109
#
# Poissons Ratio (x) = 0.08133 0.25789
# Poissons Ratio (y) = 0.07480 0.53776
# Poissons Ratio (z) = 0.19383 0.43949
#
# Static dielectric constant tensor:
#      x y z
#    x 3.367540 0.000000 0.000000 
#    y 0.000000 3.917600 0.000000 
#    z 0.000000 0.000000 3.276630 
# 
# 
# High freq. dielectric constant tensor:
#      x y z
#    x 1.709720 0.000000 0.000000 
#    y 0.000000 1.738410 0.000000 
#    z 0.000000 0.000000 1.714920 
# 
# From -- ./inp_files/24641.got.cif
#   From: 2010.03.12/outbox.cif.g09.slc.cpg/sg69_13_cif.got.tgz:24641.got - 2010.04.10 23:52:46.
