data_PCOD8284370
_publ_section_title
;
Structure prediction by ZEFSAII (Michael W. Deem and Ramdas Pophale) SiO2 
 PCOD8284370
Probable space group: F M M M
;
_chemical_formula_sum "Si O2"
_cell_formula_units_Z 160
_cell_length_a 18.364606
_cell_length_b 24.472086
_cell_length_c 19.116760
_cell_angle_alpha 90.000000
_cell_angle_beta 90.000000
_cell_angle_gamma 90.000000
_cell_volume 8591.458435
_symmetry_space_group_name_H-M "F M M M"
_symmetry_group_IT_number 69
_symmetry_cell_setting 'orthorhombic'
loop_
_space_group_symop_operation_xyz
x,y,z
-x,-y,z
x,-y,-z
-x,y,-z
-x,-y,-z
x,y,-z
-x,y,z
x,-y,z
x,1/2+y,1/2+z
-x,1/2-y,1/2+z
x,1/2-y,1/2-z
-x,1/2+y,1/2-z
-x,1/2-y,1/2-z
x,1/2+y,1/2-z
-x,1/2+y,1/2+z
x,1/2-y,1/2+z
1/2+x,y,1/2+z
1/2-x,-y,1/2+z
1/2+x,-y,1/2-z
1/2-x,y,1/2-z
1/2-x,-y,1/2-z
1/2+x,y,1/2-z
1/2-x,y,1/2+z
1/2+x,-y,1/2+z
1/2+x,1/2+y,z
1/2-x,1/2-y,z
1/2+x,1/2-y,-z
1/2-x,1/2+y,-z
1/2-x,1/2-y,-z
1/2+x,1/2+y,-z
1/2-x,1/2+y,z
1/2+x,1/2-y,z
loop_
_atom_site_type_symbol
_atom_site_label
_atom_site_fract_x
_atom_site_fract_y
_atom_site_fract_z
Si Si1 0.818499 0.785195 0.420860
Si Si2 0.416581 0.000000 0.158007
Si Si3 0.670190 0.894248 0.834438
Si Si4 0.662363 0.104844 0.674911
Si Si5 0.918880 0.000000 0.175719
Si Si6 0.082851 0.187140 0.079181
O O1 0.798282 0.802776 0.500000
O O2 0.750000 0.750000 0.390152
O O3 0.838217 0.838905 0.377601
O O4 0.892228 0.749954 0.418829
O O5 0.375980 0.055431 0.131874
O O6 0.500000 0.000000 0.130615
O O7 0.413063 0.000000 0.241111
O O8 0.643266 0.882121 0.755560
O O9 0.754058 0.911266 0.834328
O O10 0.639281 0.155911 0.628487
O O11 0.618456 0.053553 0.645099
O O12 0.000000 0.000000 0.147411
O O13 0.000000 0.182640 0.106947
O O14 0.088490 0.164487 0.000000
#
# Coordination Sequence:
#
# PCOD8284370 Si02
#       6
#    32  16  32  32  16  32
#     4  10  20  37  58  78 108 149 190 227 275 338
#     4   9  19  35  54  79 112 147 185 231 284 337
#     4  10  20  34  56  83 109 146 188 234 281 333
#     4  10  19  33  53  82 111 142 185 236 278 334
#     4   9  17  31  52  75 108 148 181 220 284 342
#     4  10  21  37  56  80 112 148 186 232 285 338
#
# _framework density 18.623148
#
# number of rings (size 3 to 8) (size 9 to 14) (size 15 to 20)
#    0.000    2.200    2.000    1.200    0.000    4.800 
#    0.000    2.000    0.000    4.800    0.000    0.000 
#    0.000    0.000    0.000    0.000    0.000    0.000 
#
# Total GULP energy -495923.165537 kJ/mol
# GULP energy per Si atom -12398.079138 kJ/mol
# Density = 1.858076 g / cm^3
# Si number density = 18.623148 Si / 1000 Ang^3
#
#
#
# Elastic Constant Matrix: (Units=GPa)
#
#
# Indices 1 2 3 4 5 6 
#
# 1 107.3726 52.6978 31.6085 0.0000 0.0000 0.0000
# 2 52.6978 138.1380 52.0816 0.0000 0.0000 0.0000
# 3 31.6085 52.0816 56.8893 0.0000 0.0000 0.0000
# 4 0.0000 0.0000 0.0000 -32.8110 0.0000 0.0000
# 5 0.0000 0.0000 0.0000 0.0000 21.9480 0.0000
# 6 0.0000 0.0000 0.0000 0.0000 0.0000 30.1050
#
#
#
# Elastic Compliance Matrix: (Units=1/GPa)
#
#
# Indices 1 2 3 4 5 6 
#
# 1 0.011966 -0.003143 -0.003771 0.000000 0.000000 0.000000
# 2 -0.003143 0.011880 -0.009130 0.000000 0.000000 0.000000
# 3 -0.003771 -0.009130 0.028032 0.000000 0.000000 0.000000
# 4 0.000000 0.000000 0.000000 -0.030478 0.000000 0.000000
# 5 0.000000 0.000000 0.000000 0.000000 0.045562 0.000000
# 6 0.000000 0.000000 0.000000 0.000000 0.000000 0.033217
#
#
# Mechanical properties :
#
#
# Convention : Reuss Voigt Hill
#
# Bulk Modulus (GPa) = 50.53099 63.90840 57.21970
# Shear Modulus (GPa) = 36.00612 14.91587 25.46099
#
# Velocity S-wave (km/s) = 4.40182 2.83314 3.70154
# Velocity P-wave (km/s) = 7.28197 6.71516 7.00430
#
# Compressibility (1/GPa) = 0.01978984
#
# Stress axis : x y z
#
# Youngs Moduli (GPa) = 83.56929 84.17164 35.67381
#
# Poissons Ratio (x) = 0.26456 0.13453
# Poissons Ratio (y) = 0.26267 0.32571
# Poissons Ratio (z) = 0.31514 0.76850
#
# Static dielectric constant tensor:
#      x y z
#    x 3.562840 0.000000 0.000000 
#    y 0.000000 3.418350 0.000000 
#    z 0.000000 0.000000 3.173010 
# 
# 
# High freq. dielectric constant tensor:
#      x y z
#    x 1.733040 0.000000 0.000000 
#    y 0.000000 1.725440 0.000000 
#    z 0.000000 0.000000 1.691160 
# 
# From -- ./inp_files/23176.got.cif
#   From: 2010.03.12/outbox.cif.g09.slc.cpg/sg69_12_cif.got.tgz:23176.got - 2010.04.10 23:52:46.
