data_PCOD8284104
_publ_section_title
;
Structure prediction by ZEFSAII (Michael W. Deem and Ramdas Pophale) SiO2 
 PCOD8284104
Probable space group: F M M M
;
_chemical_formula_sum "Si O2"
_cell_formula_units_Z 64
_cell_length_a 32.911439
_cell_length_b 13.640561
_cell_length_c 7.926991
_cell_angle_alpha 90.000000
_cell_angle_beta 90.000000
_cell_angle_gamma 90.000000
_cell_volume 3558.667964
_symmetry_space_group_name_H-M "F M M M"
_symmetry_group_IT_number 69
_symmetry_cell_setting 'orthorhombic'
loop_
_space_group_symop_operation_xyz
x,y,z
-x,-y,z
x,-y,-z
-x,y,-z
-x,-y,-z
x,y,-z
-x,y,z
x,-y,z
x,1/2+y,1/2+z
-x,1/2-y,1/2+z
x,1/2-y,1/2-z
-x,1/2+y,1/2-z
-x,1/2-y,1/2-z
x,1/2+y,1/2-z
-x,1/2+y,1/2+z
x,1/2-y,1/2+z
1/2+x,y,1/2+z
1/2-x,-y,1/2+z
1/2+x,-y,1/2-z
1/2-x,y,1/2-z
1/2-x,-y,1/2-z
1/2+x,y,1/2-z
1/2-x,y,1/2+z
1/2+x,-y,1/2+z
1/2+x,1/2+y,z
1/2-x,1/2-y,z
1/2+x,1/2-y,-z
1/2-x,1/2+y,-z
1/2-x,1/2-y,-z
1/2+x,1/2+y,-z
1/2-x,1/2+y,z
1/2+x,1/2-y,z
loop_
_atom_site_type_symbol
_atom_site_label
_atom_site_fract_x
_atom_site_fract_y
_atom_site_fract_z
Si Si1 0.431859 0.500000 0.192463
Si Si2 0.793044 0.110627 0.500000
Si Si3 0.870574 0.500000 0.000000
Si Si4 0.750000 0.250000 0.250000
Si Si5 0.000000 0.139547 0.300992
O O1 0.395783 0.500000 0.327453
O O2 0.459531 0.595046 0.220319
O O3 0.414714 0.500000 0.000000
O O4 0.842011 0.097278 0.500000
O O5 0.779796 0.175807 0.343314
O O6 0.773089 0.000000 0.500000
O O7 0.000000 0.250000 0.250000
O O8 0.000000 0.120314 0.500000
#
# Coordination Sequence:
#
# PCOD8284104 Si02
#       5
#    16  16   8   8  16
#     4  11  21  41  58  83 123 157 197 247 304 354
#     4   9  21  38  64  89 123 155 205 248 310 363
#     4  10  22  43  52  92 128 154 192 260 318 355
#     4  10  18  42  64  88 116 164 206 250 284 388
#     4  11  20  37  62  84 112 162 211 245 287 358
#
# _framework density 17.984255999999998
#
# number of rings (size 3 to 8) (size 9 to 14) (size 15 to 20)
#    0.750    1.000    2.500    4.500    0.000    0.000 
#   13.500    0.000    0.000    0.000    0.000    0.000 
#    0.000    0.000    0.000    0.000    0.000    0.000 
#
# Total GULP energy -198225.920489 kJ/mol
# GULP energy per Si atom -12389.120031 kJ/mol
# Density = 1.794332 g / cm^3
# Si number density = 17.984256 Si / 1000 Ang^3
#
#
#
# Elastic Constant Matrix: (Units=GPa)
#
#
# Indices 1 2 3 4 5 6 
#
# 1 139.5506 62.7245 72.6120 0.0000 0.0000 0.0000
# 2 62.7245 166.1080 55.7655 0.0000 0.0000 0.0000
# 3 72.6120 55.7655 169.8639 0.0000 0.0000 0.0000
# 4 0.0000 0.0000 0.0000 32.1567 0.0000 0.0000
# 5 0.0000 0.0000 0.0000 0.0000 11.6176 0.0000
# 6 0.0000 0.0000 0.0000 0.0000 0.0000 -43.5707
#
#
#
# Elastic Compliance Matrix: (Units=1/GPa)
#
#
# Indices 1 2 3 4 5 6 
#
# 1 0.010175 -0.002677 -0.003471 0.000000 0.000000 0.000000
# 2 -0.002677 0.007470 -0.001308 0.000000 0.000000 0.000000
# 3 -0.003471 -0.001308 0.007800 0.000000 0.000000 0.000000
# 4 0.000000 0.000000 0.000000 0.031098 0.000000 0.000000
# 5 0.000000 0.000000 0.000000 0.000000 0.086076 0.000000
# 6 0.000000 0.000000 0.000000 0.000000 0.000000 -0.022951
#
#
# Mechanical properties :
#
#
# Convention : Reuss Voigt Hill
#
# Bulk Modulus (GPa) = 94.93287 95.30294 95.11790
# Shear Modulus (GPa) = 36.20799 19.00209 27.60504
#
# Velocity S-wave (km/s) = 4.49187 3.25406 3.92210
# Velocity P-wave (km/s) = 8.93329 8.19915 8.57408
#
# Compressibility (1/GPa) = 0.01053376
#
# Stress axis : x y z
#
# Youngs Moduli (GPa) = 98.28005 133.86499 128.20329
#
# Poissons Ratio (x) = 0.35836 0.44495
# Poissons Ratio (y) = 0.26310 0.16770
# Poissons Ratio (z) = 0.34110 0.17511
#
# Static dielectric constant tensor:
#      x y z
#    x 3.152850 0.000000 0.000000 
#    y 0.000000 3.384730 0.000000 
#    z 0.000000 0.000000 3.261800 
# 
# 
# High freq. dielectric constant tensor:
#      x y z
#    x 1.679650 0.000000 0.000000 
#    y 0.000000 1.706350 0.000000 
#    z 0.000000 0.000000 1.711100 
# 
# From -- ./inp_files/1735.got.cif
#   From: 2010.03.12/outbox.cif.g09.slc.cpg/sg69_1_cif.got.tgz:1735.got - 2010.04.10 23:52:46.
