data_PCOD8284652
_publ_section_title
;
Structure prediction by ZEFSAII (Michael W. Deem and Ramdas Pophale) SiO2 
 PCOD8284652
Probable space group: F M M M
;
_chemical_formula_sum "Si O2"
_cell_formula_units_Z 128
_cell_length_a 23.641596
_cell_length_b 17.170656
_cell_length_c 16.698347
_cell_angle_alpha 90.000000
_cell_angle_beta 90.000000
_cell_angle_gamma 90.000000
_cell_volume 6778.555572
_symmetry_space_group_name_H-M "F M M M"
_symmetry_group_IT_number 69
_symmetry_cell_setting 'orthorhombic'
loop_
_space_group_symop_operation_xyz
x,y,z
-x,-y,z
x,-y,-z
-x,y,-z
-x,-y,-z
x,y,-z
-x,y,z
x,-y,z
x,1/2+y,1/2+z
-x,1/2-y,1/2+z
x,1/2-y,1/2-z
-x,1/2+y,1/2-z
-x,1/2-y,1/2-z
x,1/2+y,1/2-z
-x,1/2+y,1/2+z
x,1/2-y,1/2+z
1/2+x,y,1/2+z
1/2-x,-y,1/2+z
1/2+x,-y,1/2-z
1/2-x,y,1/2-z
1/2-x,-y,1/2-z
1/2+x,y,1/2-z
1/2-x,y,1/2+z
1/2+x,-y,1/2+z
1/2+x,1/2+y,z
1/2-x,1/2-y,z
1/2+x,1/2-y,-z
1/2-x,1/2+y,-z
1/2-x,1/2-y,-z
1/2+x,1/2+y,-z
1/2-x,1/2+y,z
1/2+x,1/2-y,z
loop_
_atom_site_type_symbol
_atom_site_label
_atom_site_fract_x
_atom_site_fract_y
_atom_site_fract_z
Si Si1 0.335181 0.804506 0.673983
Si Si2 0.938596 0.157744 0.257334
Si Si3 0.753009 0.411309 0.091646
Si Si4 0.627565 0.658692 0.410190
O O1 0.319919 0.750000 0.750000
O O2 0.387474 0.863811 0.696248
O O3 0.281320 0.855095 0.650438
O O4 0.353044 0.748421 0.601112
O O5 0.944407 0.250000 0.250000
O O6 0.921675 0.134606 0.348117
O O7 0.000000 0.119191 0.236736
O O8 0.738815 0.500000 0.113958
O O9 0.819303 0.397638 0.104884
O O10 0.736099 0.393131 0.000000
O O11 0.603826 0.648832 0.500000
#
# Coordination Sequence:
#
# PCOD8284652 Si02
#       4
#    32  32  32  32
#     4   9  18  31  49  71  98 129 161 198 242 288
#     4   8  16  30  46  67  95 123 156 200 243 282
#     4  10  20  33  50  73 101 130 160 198 243 290
#     4   9  17  29  48  72  96 124 160 200 240 286
#
# _framework density 18.88308
#
# number of rings (size 3 to 8) (size 9 to 14) (size 15 to 20)
#    0.000    3.500    0.000    1.500    0.000   10.500 
#    0.000   10.000    0.000    5.250    0.000    5.250 
#    0.000    0.000    0.000    0.000    0.000    0.000 
#
# Total GULP energy -396471.428837 kJ/mol
# GULP energy per Si atom -12389.732151 kJ/mol
# Density = 1.884010 g / cm^3
# Si number density = 18.883080 Si / 1000 Ang^3
#
#
#
# Elastic Constant Matrix: (Units=GPa)
#
#
# Indices 1 2 3 4 5 6 
#
# 1 85.3790 23.4144 44.7541 0.0000 0.0000 0.0000
# 2 23.4144 45.2602 22.8834 0.0000 0.0000 0.0000
# 3 44.7541 22.8834 72.3886 0.0000 0.0000 0.0000
# 4 0.0000 0.0000 0.0000 17.6601 0.0000 0.0000
# 5 0.0000 0.0000 0.0000 0.0000 21.5041 0.0000
# 6 0.0000 0.0000 0.0000 0.0000 0.0000 -0.3450
#
#
#
# Elastic Compliance Matrix: (Units=1/GPa)
#
#
# Indices 1 2 3 4 5 6 
#
# 1 0.018034 -0.004395 -0.009760 0.000000 0.000000 0.000000
# 2 -0.004395 0.027369 -0.005935 0.000000 0.000000 0.000000
# 3 -0.009760 -0.005935 0.021725 0.000000 0.000000 0.000000
# 4 0.000000 0.000000 0.000000 0.056625 0.000000 0.000000
# 5 0.000000 0.000000 0.000000 0.000000 0.046503 0.000000
# 6 0.000000 0.000000 0.000000 0.000000 0.000000 -2.898198
#
#
# Mechanical properties :
#
#
# Convention : Reuss Voigt Hill
#
# Bulk Modulus (GPa) = 37.10868 42.79241 39.95055
# Shear Modulus (GPa) = -1.86652 15.22890 6.68119
#
# Velocity S-wave (km/s) = -0.99529 2.84295 1.88305
# Velocity P-wave (km/s) = 4.28645 5.78683 5.09220
#
# Compressibility (1/GPa) = 0.02694787
#
# Stress axis : x y z
#
# Youngs Moduli (GPa) = 55.45162 36.53828 46.03083
#
# Poissons Ratio (x) = 0.16057 0.44926
# Poissons Ratio (y) = 0.24369 0.27318
# Poissons Ratio (z) = 0.54121 0.21684
#
# Static dielectric constant tensor:
#      x y z
#    x 4.106040 0.000000 0.000000 
#    y 0.000000 3.110940 0.000000 
#    z 0.000000 0.000000 3.540110 
# 
# 
# High freq. dielectric constant tensor:
#      x y z
#    x 1.732060 0.000000 0.000000 
#    y 0.000000 1.688600 0.000000 
#    z 0.000000 0.000000 1.731230 
# 
# From -- ./inp_files/22764.got.cif
#   From: 2010.03.12/outbox.cif.g09.slc.cpg/sg69_12_cif.got.tgz:22764.got - 2010.04.10 23:52:46.
