data_PCOD8284722
_publ_section_title
;
Structure prediction by ZEFSAII (Michael W. Deem and Ramdas Pophale) SiO2 
 PCOD8284722
Probable space group: F M M M
;
_chemical_formula_sum "Si O2"
_cell_formula_units_Z 160
_cell_length_a 9.323784
_cell_length_b 26.922425
_cell_length_c 37.521602
_cell_angle_alpha 90.000000
_cell_angle_beta 90.000000
_cell_angle_gamma 90.000000
_cell_volume 9418.630339
_symmetry_space_group_name_H-M "F M M M"
_symmetry_group_IT_number 69
_symmetry_cell_setting 'orthorhombic'
loop_
_space_group_symop_operation_xyz
x,y,z
-x,-y,z
x,-y,-z
-x,y,-z
-x,-y,-z
x,y,-z
-x,y,z
x,-y,z
x,1/2+y,1/2+z
-x,1/2-y,1/2+z
x,1/2-y,1/2-z
-x,1/2+y,1/2-z
-x,1/2-y,1/2-z
x,1/2+y,1/2-z
-x,1/2+y,1/2+z
x,1/2-y,1/2+z
1/2+x,y,1/2+z
1/2-x,-y,1/2+z
1/2+x,-y,1/2-z
1/2-x,y,1/2-z
1/2-x,-y,1/2-z
1/2+x,y,1/2-z
1/2-x,y,1/2+z
1/2+x,-y,1/2+z
1/2+x,1/2+y,z
1/2-x,1/2-y,z
1/2+x,1/2-y,-z
1/2-x,1/2+y,-z
1/2-x,1/2-y,-z
1/2+x,1/2+y,-z
1/2-x,1/2+y,z
1/2+x,1/2-y,z
loop_
_atom_site_type_symbol
_atom_site_label
_atom_site_fract_x
_atom_site_fract_y
_atom_site_fract_z
Si Si1 0.666824 0.347195 0.040801
Si Si2 0.164596 0.055000 0.079861
Si Si3 0.331429 0.201646 0.103171
Si Si4 0.333638 0.101221 0.141673
Si Si5 0.333088 0.942764 0.784606
O O1 0.500000 0.335232 0.048331
O O2 0.702010 0.404805 0.049477
O O3 0.765697 0.311891 0.064688
O O4 0.707336 0.337155 0.000000
O O5 0.253604 0.063907 0.115516
O O6 0.000000 0.059626 0.091161
O O7 0.199627 0.000000 0.064780
O O8 0.500000 0.211994 0.098671
O O9 0.250000 0.250000 0.118045
O O10 0.300397 0.158224 0.131627
O O11 0.500000 0.088763 0.137426
O O12 0.283131 0.090722 0.181978
O O13 0.500000 0.936102 0.776812
O O14 0.250000 0.923092 0.750000
O O15 0.294406 0.000000 0.792771
#
# Coordination Sequence:
#
# PCOD8284722 Si02
#       5
#    32  32  32  32  32
#     4   9  18  32  48  67  93 123 154 189 230 276
#     4   9  17  28  44  68  95 123 156 191 226 267
#     4  10  20  34  52  71  90 115 151 194 238 281
#     4   9  18  32  49  68  92 123 156 190 228 272
#     4   9  17  29  46  70  99 127 153 181 216 260
#
# _framework density 16.987607000000001
#
# number of rings (size 3 to 8) (size 9 to 14) (size 15 to 20)
#    0.000    2.800    0.000    1.200    0.000    4.000 
#    0.000    4.000    0.000    0.600    0.000    9.800 
#    0.000    0.000    0.000    0.000    0.000    0.000 
#
# Total GULP energy -495992.456650 kJ/mol
# GULP energy per Si atom -12399.811416 kJ/mol
# Density = 1.694894 g / cm^3
# Si number density = 16.987607 Si / 1000 Ang^3
#
#
#
# Elastic Constant Matrix: (Units=GPa)
#
#
# Indices 1 2 3 4 5 6 
#
# 1 56.1411 33.6728 39.6395 0.0000 0.0000 0.0000
# 2 33.6728 81.5585 35.1646 0.0000 0.0000 0.0000
# 3 39.6395 35.1646 111.1281 0.0000 0.0000 0.0000
# 4 0.0000 0.0000 0.0000 16.9690 0.0000 0.0000
# 5 0.0000 0.0000 0.0000 0.0000 27.8387 0.0000
# 6 0.0000 0.0000 0.0000 0.0000 0.0000 23.9332
#
#
#
# Elastic Compliance Matrix: (Units=1/GPa)
#
#
# Indices 1 2 3 4 5 6 
#
# 1 0.028040 -0.008412 -0.007340 0.000000 0.000000 0.000000
# 2 -0.008412 0.016722 -0.002291 0.000000 0.000000 0.000000
# 3 -0.007340 -0.002291 0.012342 0.000000 0.000000 0.000000
# 4 0.000000 0.000000 0.000000 0.058931 0.000000 0.000000
# 5 0.000000 0.000000 0.000000 0.000000 0.035921 0.000000
# 6 0.000000 0.000000 0.000000 0.000000 0.000000 0.041783
#
#
# Mechanical properties :
#
#
# Convention : Reuss Voigt Hill
#
# Bulk Modulus (GPa) = 47.57841 51.75349 49.66595
# Shear Modulus (GPa) = 21.11207 23.10490 22.10848
#
# Velocity S-wave (km/s) = 3.52915 3.69196 3.61147
# Velocity P-wave (km/s) = 6.68394 6.97894 6.83303
#
# Compressibility (1/GPa) = 0.02101794
#
# Stress axis : x y z
#
# Youngs Moduli (GPa) = 35.66274 59.80171 81.02593
#
# Poissons Ratio (x) = 0.50306 0.59474
# Poissons Ratio (y) = 0.30000 0.18561
# Poissons Ratio (z) = 0.26177 0.13699
#
# Static dielectric constant tensor:
#      x y z
#    x 3.189570 0.000000 0.000000 
#    y 0.000000 3.257450 0.000000 
#    z 0.000000 0.000000 3.110560 
# 
# 
# High freq. dielectric constant tensor:
#      x y z
#    x 1.656520 0.000000 0.000000 
#    y 0.000000 1.651250 0.000000 
#    z 0.000000 0.000000 1.640760 
# 
# From -- ./inp_files/45184.got.cif
#   From: 2010.03.12/outbox.cif.g09.slc.cpg/sg69_23_cif.got.tgz:45184.got - 2010.04.10 23:52:46.
