data_PCOD8284322
_publ_section_title
;
Structure prediction by ZEFSAII (Michael W. Deem and Ramdas Pophale) SiO2 
 PCOD8284322
Probable space group: F M M M
;
_chemical_formula_sum "Si O2"
_cell_formula_units_Z 176
_cell_length_a 16.398346
_cell_length_b 25.233658
_cell_length_c 22.502568
_cell_angle_alpha 90.000000
_cell_angle_beta 90.000000
_cell_angle_gamma 90.000000
_cell_volume 9311.343345
_symmetry_space_group_name_H-M "F M M M"
_symmetry_group_IT_number 69
_symmetry_cell_setting 'orthorhombic'
loop_
_space_group_symop_operation_xyz
x,y,z
-x,-y,z
x,-y,-z
-x,y,-z
-x,-y,-z
x,y,-z
-x,y,z
x,-y,z
x,1/2+y,1/2+z
-x,1/2-y,1/2+z
x,1/2-y,1/2-z
-x,1/2+y,1/2-z
-x,1/2-y,1/2-z
x,1/2+y,1/2-z
-x,1/2+y,1/2+z
x,1/2-y,1/2+z
1/2+x,y,1/2+z
1/2-x,-y,1/2+z
1/2+x,-y,1/2-z
1/2-x,y,1/2-z
1/2-x,-y,1/2-z
1/2+x,y,1/2-z
1/2-x,y,1/2+z
1/2+x,-y,1/2+z
1/2+x,1/2+y,z
1/2-x,1/2-y,z
1/2+x,1/2-y,-z
1/2-x,1/2+y,-z
1/2-x,1/2-y,-z
1/2+x,1/2+y,-z
1/2-x,1/2+y,z
1/2+x,1/2-y,z
loop_
_atom_site_type_symbol
_atom_site_label
_atom_site_fract_x
_atom_site_fract_y
_atom_site_fract_z
Si Si1 0.091796 0.361777 0.151593
Si Si2 0.223310 0.060973 0.686831
Si Si3 0.408731 0.695537 0.225902
Si Si4 0.716555 0.806711 0.932241
Si Si5 0.500000 0.561269 0.929821
Si Si6 0.347280 0.377122 0.120748
O O1 0.142115 0.415974 0.156164
O O2 0.087369 0.343168 0.218856
O O3 0.139241 0.320722 0.109105
O O4 0.000000 0.371102 0.126698
O O5 0.250000 0.086549 0.750000
O O6 0.299662 0.071831 0.644747
O O7 0.204871 0.000000 0.694864
O O8 0.500000 0.709276 0.202876
O O9 0.366291 0.750000 0.250000
O O10 0.362387 0.666900 0.171987
O O11 0.750000 0.750000 0.911749
O O12 0.790575 0.848472 0.927682
O O13 0.685474 0.805559 0.000000
O O14 0.500000 0.500000 0.904996
O O15 0.425531 0.596948 0.908311
O O16 0.500000 0.558175 0.000000
#
# Coordination Sequence:
#
# PCOD8284322 Si02
#       6
#    32  32  32  32  16  32
#     4  10  21  37  57  84 115 150 192 240 292 351
#     4  10  20  35  55  83 117 152 188 235 295 353
#     4  10  19  32  53  84 115 146 184 231 290 353
#     4  10  22  39  58  83 115 155 199 241 290 351
#     4  11  24  40  59  86 118 156 202 249 300 361
#     4  11  20  37  59  84 116 155 192 244 294 362
#
# _framework density 18.901675999999998
#
# number of rings (size 3 to 8) (size 9 to 14) (size 15 to 20)
#    0.000    1.727    2.727    2.182    0.000    0.727 
#    1.636    2.727    0.000    4.909    0.000    5.091 
#    0.000    0.000    0.000    0.000    0.000    0.000 
#
# Total GULP energy -545286.335395 kJ/mol
# GULP energy per Si atom -12392.871259 kJ/mol
# Density = 1.885866 g / cm^3
# Si number density = 18.901676 Si / 1000 Ang^3
#
#
#
# Elastic Constant Matrix: (Units=GPa)
#
#
# Indices 1 2 3 4 5 6 
#
# 1 132.2244 36.7313 34.1197 0.0000 0.0000 0.0000
# 2 36.7313 81.2226 25.5396 0.0000 0.0000 0.0000
# 3 34.1197 25.5396 72.1784 0.0000 0.0000 0.0000
# 4 0.0000 0.0000 0.0000 27.4524 0.0000 0.0000
# 5 0.0000 0.0000 0.0000 0.0000 17.8214 0.0000
# 6 0.0000 0.0000 0.0000 0.0000 0.0000 15.3445
#
#
#
# Elastic Compliance Matrix: (Units=1/GPa)
#
#
# Indices 1 2 3 4 5 6 
#
# 1 0.009287 -0.003173 -0.003268 0.000000 0.000000 0.000000
# 2 -0.003173 0.014937 -0.003786 0.000000 0.000000 0.000000
# 3 -0.003268 -0.003786 0.016739 0.000000 0.000000 0.000000
# 4 0.000000 0.000000 0.000000 0.036427 0.000000 0.000000
# 5 0.000000 0.000000 0.000000 0.000000 0.056112 0.000000
# 6 0.000000 0.000000 0.000000 0.000000 0.000000 0.065170
#
#
# Mechanical properties :
#
#
# Convention : Reuss Voigt Hill
#
# Bulk Modulus (GPa) = 48.75338 53.15630 50.95484
# Shear Modulus (GPa) = 22.12772 24.73931 23.43352
#
# Velocity S-wave (km/s) = 3.42522 3.62172 3.52484
# Velocity P-wave (km/s) = 6.44143 6.75816 6.60169
#
# Compressibility (1/GPa) = 0.02051140
#
# Stress axis : x y z
#
# Youngs Moduli (GPa) = 107.67236 66.94830 59.74168
#
# Poissons Ratio (x) = 0.21240 0.19522
# Poissons Ratio (y) = 0.34160 0.22616
# Poissons Ratio (z) = 0.35184 0.25344
#
# Static dielectric constant tensor:
#      x y z
#    x 3.617620 0.000000 0.000000 
#    y 0.000000 3.409490 0.000000 
#    z 0.000000 0.000000 3.369340 
# 
# 
# High freq. dielectric constant tensor:
#      x y z
#    x 1.737530 0.000000 0.000000 
#    y 0.000000 1.735930 0.000000 
#    z 0.000000 0.000000 1.727150 
# 
# From -- ./inp_files/17882.got.cif
#   From: 2010.03.12/outbox.cif.g09.slc.cpg/sg69_9_cif.got.tgz:17882.got - 2010.04.10 23:52:46.
