data_PCOD8284297
_publ_section_title
;
Structure prediction by ZEFSAII (Michael W. Deem and Ramdas Pophale) SiO2 
 PCOD8284297
Probable space group: F M M M
;
_chemical_formula_sum "Si O2"
_cell_formula_units_Z 160
_cell_length_a 29.629972
_cell_length_b 19.165540
_cell_length_c 15.262561
_cell_angle_alpha 90.000000
_cell_angle_beta 90.000000
_cell_angle_gamma 90.000000
_cell_volume 8667.217877
_symmetry_space_group_name_H-M "F M M M"
_symmetry_group_IT_number 69
_symmetry_cell_setting 'orthorhombic'
loop_
_space_group_symop_operation_xyz
x,y,z
-x,-y,z
x,-y,-z
-x,y,-z
-x,-y,-z
x,y,-z
-x,y,z
x,-y,z
x,1/2+y,1/2+z
-x,1/2-y,1/2+z
x,1/2-y,1/2-z
-x,1/2+y,1/2-z
-x,1/2-y,1/2-z
x,1/2+y,1/2-z
-x,1/2+y,1/2+z
x,1/2-y,1/2+z
1/2+x,y,1/2+z
1/2-x,-y,1/2+z
1/2+x,-y,1/2-z
1/2-x,y,1/2-z
1/2-x,-y,1/2-z
1/2+x,y,1/2-z
1/2-x,y,1/2+z
1/2+x,-y,1/2+z
1/2+x,1/2+y,z
1/2-x,1/2-y,z
1/2+x,1/2-y,-z
1/2-x,1/2+y,-z
1/2-x,1/2-y,-z
1/2+x,1/2+y,-z
1/2-x,1/2+y,z
1/2+x,1/2-y,z
loop_
_atom_site_type_symbol
_atom_site_label
_atom_site_fract_x
_atom_site_fract_y
_atom_site_fract_z
Si Si1 0.127874 0.582123 0.175459
Si Si2 0.724137 0.916998 0.500000
Si Si3 0.292908 0.582344 0.194311
Si Si4 0.552784 0.330583 0.747703
Si Si5 0.824693 0.582442 0.000000
Si Si6 0.446705 0.923788 0.404364
O O1 0.116678 0.500000 0.173613
O O2 0.160714 0.601617 0.256297
O O3 0.081537 0.626211 0.177551
O O4 0.150294 0.608562 0.086349
O O5 0.703037 0.889481 0.593011
O O6 0.774664 0.887029 0.500000
O O7 0.722001 0.000000 0.500000
O O8 0.285855 0.500000 0.190519
O O9 0.250000 0.612956 0.250000
O O10 0.500000 0.341283 0.726402
O O11 0.566121 0.250000 0.750000
O O12 0.567840 0.362115 0.840953
O O13 0.821474 0.500000 0.000000
O O14 0.425607 0.908723 0.500000
O O15 0.500000 0.926685 0.411801
O O16 0.429232 0.000000 0.370455
#
# Coordination Sequence:
#
# PCOD8284297 Si02
#       6
#    32  16  32  32  16  32
#     4  10  19  32  52  79 107 139 178 218 261 311
#     4   9  14  24  44  74 109 138 166 209 263 316
#     4   9  15  25  45  74 105 135 169 210 258 312
#     4  10  21  37  53  72 101 139 182 225 273 322
#     4   9  16  28  49  77 109 140 170 205 255 316
#     4   8  14  28  52  76  95 121 162 214 270 321
#
# _framework density 18.460364999999999
#
# number of rings (size 3 to 8) (size 9 to 14) (size 15 to 20)
#    0.000    2.800    2.000    1.200    0.000    1.200 
#    3.600    0.500    0.000    2.400    0.000    1.400 
#    0.000    0.000    0.000    0.000    0.000    0.000 
#
# Total GULP energy -495567.621910 kJ/mol
# GULP energy per Si atom -12389.190548 kJ/mol
# Density = 1.841835 g / cm^3
# Si number density = 18.460365 Si / 1000 Ang^3
#
#
#
# Elastic Constant Matrix: (Units=GPa)
#
#
# Indices 1 2 3 4 5 6 
#
# 1 77.1404 34.5774 42.9627 0.0000 0.0000 0.0000
# 2 34.5774 78.0269 40.8029 0.0000 0.0000 0.0000
# 3 42.9627 40.8029 154.0230 0.0000 0.0000 0.0000
# 4 0.0000 0.0000 0.0000 8.1080 0.0000 0.0000
# 5 0.0000 0.0000 0.0000 0.0000 18.2734 0.0000
# 6 0.0000 0.0000 0.0000 0.0000 0.0000 21.2958
#
#
#
# Elastic Compliance Matrix: (Units=1/GPa)
#
#
# Indices 1 2 3 4 5 6 
#
# 1 0.017497 -0.006038 -0.003281 0.000000 0.000000 0.000000
# 2 -0.006038 0.016961 -0.002809 0.000000 0.000000 0.000000
# 3 -0.003281 -0.002809 0.008152 0.000000 0.000000 0.000000
# 4 0.000000 0.000000 0.000000 0.123334 0.000000 0.000000
# 5 0.000000 0.000000 0.000000 0.000000 0.054724 0.000000
# 6 0.000000 0.000000 0.000000 0.000000 0.000000 0.046958
#
#
# Mechanical properties :
#
#
# Convention : Reuss Voigt Hill
#
# Bulk Modulus (GPa) = 54.48475 60.65293 57.56884
# Shear Modulus (GPa) = 16.77851 22.25860 19.51856
#
# Velocity S-wave (km/s) = 3.01806 3.47616 3.25518
# Velocity P-wave (km/s) = 6.45937 7.00276 6.73655
#
# Compressibility (1/GPa) = 0.01835376
#
# Stress axis : x y z
#
# Youngs Moduli (GPa) = 57.15192 58.95975 122.67138
#
# Poissons Ratio (x) = 0.35600 0.40249
# Poissons Ratio (y) = 0.34509 0.34457
# Poissons Ratio (z) = 0.18752 0.16561
#
# Static dielectric constant tensor:
#      x y z
#    x 3.315740 0.000000 0.000000 
#    y 0.000000 2.901270 0.000000 
#    z 0.000000 0.000000 3.897770 
# 
# 
# High freq. dielectric constant tensor:
#      x y z
#    x 1.709170 0.000000 0.000000 
#    y 0.000000 1.655440 0.000000 
#    z 0.000000 0.000000 1.727120 
# 
# From -- ./inp_files/19573.got.cif
#   From: 2010.03.12/outbox.cif.g09.slc.cpg/sg69_10_cif.got.tgz:19573.got - 2010.04.10 23:52:46.
