data_PCOD8284314
_publ_section_title
;
Structure prediction by ZEFSAII (Michael W. Deem and Ramdas Pophale) SiO2 
 PCOD8284314
Probable space group: F M M M
;
_chemical_formula_sum "Si O2"
_cell_formula_units_Z 176
_cell_length_a 13.300466
_cell_length_b 28.580600
_cell_length_c 22.395594
_cell_angle_alpha 90.000000
_cell_angle_beta 90.000000
_cell_angle_gamma 90.000000
_cell_volume 8513.355812
_symmetry_space_group_name_H-M "F M M M"
_symmetry_group_IT_number 69
_symmetry_cell_setting 'orthorhombic'
loop_
_space_group_symop_operation_xyz
x,y,z
-x,-y,z
x,-y,-z
-x,y,-z
-x,-y,-z
x,y,-z
-x,y,z
x,-y,z
x,1/2+y,1/2+z
-x,1/2-y,1/2+z
x,1/2-y,1/2-z
-x,1/2+y,1/2-z
-x,1/2-y,1/2-z
x,1/2+y,1/2-z
-x,1/2+y,1/2+z
x,1/2-y,1/2+z
1/2+x,y,1/2+z
1/2-x,-y,1/2+z
1/2+x,-y,1/2-z
1/2-x,y,1/2-z
1/2-x,-y,1/2-z
1/2+x,y,1/2-z
1/2-x,y,1/2+z
1/2+x,-y,1/2+z
1/2+x,1/2+y,z
1/2-x,1/2-y,z
1/2+x,1/2-y,-z
1/2-x,1/2+y,-z
1/2-x,1/2-y,-z
1/2+x,1/2+y,-z
1/2-x,1/2+y,z
1/2+x,1/2-y,z
loop_
_atom_site_type_symbol
_atom_site_label
_atom_site_fract_x
_atom_site_fract_y
_atom_site_fract_z
Si Si1 0.119309 0.357899 0.851806
Si Si2 0.386986 0.000000 0.570404
Si Si3 0.116255 0.724298 0.933268
Si Si4 0.882838 0.302441 0.738485
Si Si5 0.118529 0.677419 0.604542
Si Si6 0.262391 0.090033 0.568859
O O1 0.162829 0.315287 0.891628
O O2 0.155350 0.342070 0.785590
O O3 0.173213 0.403140 0.881675
O O4 0.000000 0.366431 0.855861
O O5 0.324609 0.954808 0.591268
O O6 0.500000 0.000000 0.598783
O O7 0.398380 0.000000 0.500000
O O8 0.165969 0.775360 0.924586
O O9 0.000000 0.729369 0.914028
O O10 0.128632 0.706166 0.000000
O O11 0.837604 0.250000 0.750000
O O12 0.852788 0.322382 0.674323
O O13 0.000000 0.297728 0.747706
O O14 0.162299 0.633490 0.570177
O O15 0.000000 0.675845 0.594506
O O16 0.222707 0.083895 0.500000
#
# Coordination Sequence:
#
# PCOD8284314 Si02
#       6
#    32  16  32  32  32  32
#     4  10  20  35  54  78 115 158 195 232 269 324
#     4   9  20  42  67  86 109 139 176 234 300 357
#     4   9  16  27  45  71 109 153 184 219 277 327
#     4   9  16  32  55  77 110 159 204 232 266 317
#     4  10  19  32  53  81 112 145 188 240 282 329
#     4  11  23  37  57  85 110 140 185 233 291 354
#
# _framework density 20.673399
#
# number of rings (size 3 to 8) (size 9 to 14) (size 15 to 20)
#    0.000    2.273    1.818    1.636    0.000    4.364 
#    0.000    3.182    0.000    3.818    0.000    3.818 
#    0.000    0.000    0.000    0.000    0.000    0.000 
#
# Total GULP energy -545325.300554 kJ/mol
# GULP energy per Si atom -12393.756831 kJ/mol
# Density = 2.062635 g / cm^3
# Si number density = 20.673399 Si / 1000 Ang^3
#
#
#
# Elastic Constant Matrix: (Units=GPa)
#
#
# Indices 1 2 3 4 5 6 
#
# 1 58.3598 32.3126 10.9811 0.0000 0.0000 0.0000
# 2 32.3126 107.0914 19.6825 0.0000 0.0000 0.0000
# 3 10.9811 19.6825 82.2053 0.0000 0.0000 0.0000
# 4 0.0000 0.0000 0.0000 19.3212 0.0000 0.0000
# 5 0.0000 0.0000 0.0000 0.0000 16.6786 0.0000
# 6 0.0000 0.0000 0.0000 0.0000 0.0000 -10.4614
#
#
#
# Elastic Compliance Matrix: (Units=1/GPa)
#
#
# Indices 1 2 3 4 5 6 
#
# 1 0.020710 -0.006004 -0.001329 0.000000 0.000000 0.000000
# 2 -0.006004 0.011509 -0.001953 0.000000 0.000000 0.000000
# 3 -0.001329 -0.001953 0.012810 0.000000 0.000000 0.000000
# 4 0.000000 0.000000 0.000000 0.051757 0.000000 0.000000
# 5 0.000000 0.000000 0.000000 0.000000 0.059957 0.000000
# 6 0.000000 0.000000 0.000000 0.000000 0.000000 -0.095590
#
#
# Mechanical properties :
#
#
# Convention : Reuss Voigt Hill
#
# Bulk Modulus (GPa) = 37.80039 41.51210 39.65625
# Shear Modulus (GPa) = 56.46917 17.41970 36.94444
#
# Velocity S-wave (km/s) = 5.23204 2.90593 4.23194
# Velocity P-wave (km/s) = 7.40427 5.60204 6.56529
#
# Compressibility (1/GPa) = 0.02645475
#
# Stress axis : x y z
#
# Youngs Moduli (GPa) = 48.28664 86.89175 78.06482
#
# Poissons Ratio (x) = 0.52174 0.10373
# Poissons Ratio (y) = 0.28994 0.15249
# Poissons Ratio (z) = 0.06416 0.16974
#
# Static dielectric constant tensor:
#      x y z
#    x 3.910620 0.000000 0.000000 
#    y 0.000000 3.587700 0.000000 
#    z 0.000000 0.000000 3.805770 
# 
# 
# High freq. dielectric constant tensor:
#      x y z
#    x 1.831320 0.000000 0.000000 
#    y 0.000000 1.764270 0.000000 
#    z 0.000000 0.000000 1.805160 
# 
# From -- ./inp_files/36067.got.cif
#   From: 2010.03.12/outbox.cif.g09.slc.cpg/sg69_19_cif.got.tgz:36067.got - 2010.04.10 23:52:46.
