data_PCOD8284948
_publ_section_title
;
Structure prediction by ZEFSAII (Michael W. Deem and Ramdas Pophale) SiO2 
 PCOD8284948
Probable space group: F M M M
;
_chemical_formula_sum "Si O2"
_cell_formula_units_Z 208
_cell_length_a 16.479435
_cell_length_b 24.947039
_cell_length_c 25.477513
_cell_angle_alpha 90.000000
_cell_angle_beta 90.000000
_cell_angle_gamma 90.000000
_cell_volume 10474.139544
_symmetry_space_group_name_H-M "F M M M"
_symmetry_group_IT_number 69
_symmetry_cell_setting 'orthorhombic'
loop_
_space_group_symop_operation_xyz
x,y,z
-x,-y,z
x,-y,-z
-x,y,-z
-x,-y,-z
x,y,-z
-x,y,z
x,-y,z
x,1/2+y,1/2+z
-x,1/2-y,1/2+z
x,1/2-y,1/2-z
-x,1/2+y,1/2-z
-x,1/2-y,1/2-z
x,1/2+y,1/2-z
-x,1/2+y,1/2+z
x,1/2-y,1/2+z
1/2+x,y,1/2+z
1/2-x,-y,1/2+z
1/2+x,-y,1/2-z
1/2-x,y,1/2-z
1/2-x,-y,1/2-z
1/2+x,y,1/2-z
1/2-x,y,1/2+z
1/2+x,-y,1/2+z
1/2+x,1/2+y,z
1/2-x,1/2-y,z
1/2+x,1/2-y,-z
1/2-x,1/2+y,-z
1/2-x,1/2-y,-z
1/2+x,1/2+y,-z
1/2-x,1/2+y,z
1/2+x,1/2-y,z
loop_
_atom_site_type_symbol
_atom_site_label
_atom_site_fract_x
_atom_site_fract_y
_atom_site_fract_z
Si Si1 0.590710 0.609171 0.840461
Si Si2 0.643594 0.158874 0.442330
Si Si3 0.404710 0.780908 0.702166
Si Si4 0.094681 0.231433 0.405989
Si Si5 0.750551 0.561302 0.310866
Si Si6 0.681490 0.620551 0.590906
Si Si7 0.908504 0.062730 0.500000
O O1 0.500000 0.589753 0.824411
O O2 0.584132 0.631497 0.899970
O O3 0.625424 0.658054 0.804539
O O4 0.656307 0.562446 0.832350
O O5 0.616494 0.139602 0.500000
O O6 0.639913 0.223859 0.441138
O O7 0.733308 0.138742 0.431504
O O8 0.500000 0.785076 0.711041
O O9 0.361507 0.750000 0.750000
O O10 0.382582 0.744758 0.653248
O O11 0.123031 0.171311 0.413913
O O12 0.000000 0.235341 0.418740
O O13 0.720161 0.500000 0.313920
O O14 0.750000 0.581117 0.250000
O O15 0.692810 0.596907 0.349550
O O16 0.640847 0.577426 0.552662
O O17 0.000000 0.087818 0.500000
O O18 0.916546 0.000000 0.500000
#
# Coordination Sequence:
#
# PCOD8284948 Si02
#       7
#    32  32  32  32  32  32  16
#     4   9  19  35  58  86 115 148 191 238 293 354
#     4  10  20  36  57  85 121 160 188 231 289 359
#     4   8  15  29  49  76 110 146 179 221 278 337
#     4  10  21  33  52  85 121 154 193 237 285 348
#     4  10  23  42  62  85 115 154 202 256 311 361
#     4  11  22  39  61  85 116 159 203 245 298 364
#     4  11  24  42  63  88 119 157 208 267 314 356
#
# _framework density 19.858433000000002
#
# number of rings (size 3 to 8) (size 9 to 14) (size 15 to 20)
#    0.000    2.231    0.769    2.769    3.231    2.154 
#    0.000    0.769    0.000    1.846    0.000    2.154 
#    0.000    0.000    0.000    0.000    0.000    0.000 
#
# Total GULP energy -644370.639159 kJ/mol
# GULP energy per Si atom -12391.743061 kJ/mol
# Density = 1.981323 g / cm^3
# Si number density = 19.858433 Si / 1000 Ang^3
#
#
#
# Elastic Constant Matrix: (Units=GPa)
#
#
# Indices 1 2 3 4 5 6 
#
# 1 82.7775 23.6471 24.4120 0.0000 0.0000 0.0000
# 2 23.6471 62.4269 21.7708 0.0000 0.0000 0.0000
# 3 24.4120 21.7708 122.9557 0.0000 0.0000 0.0000
# 4 0.0000 0.0000 0.0000 21.7050 0.0000 0.0000
# 5 0.0000 0.0000 0.0000 0.0000 22.8953 0.0000
# 6 0.0000 0.0000 0.0000 0.0000 0.0000 26.1234
#
#
#
# Elastic Compliance Matrix: (Units=1/GPa)
#
#
# Indices 1 2 3 4 5 6 
#
# 1 0.013975 -0.004611 -0.001958 0.000000 0.000000 0.000000
# 2 -0.004611 0.018594 -0.002377 0.000000 0.000000 0.000000
# 3 -0.001958 -0.002377 0.008943 0.000000 0.000000 0.000000
# 4 0.000000 0.000000 0.000000 0.046072 0.000000 0.000000
# 5 0.000000 0.000000 0.000000 0.000000 0.043677 0.000000
# 6 0.000000 0.000000 0.000000 0.000000 0.000000 0.038280
#
#
# Mechanical properties :
#
#
# Convention : Reuss Voigt Hill
#
# Bulk Modulus (GPa) = 42.33676 45.31332 43.82504
# Shear Modulus (GPa) = 25.60072 27.36674 26.48373
#
# Velocity S-wave (km/s) = 3.59438 3.71629 3.65585
# Velocity P-wave (km/s) = 6.21222 6.42512 6.31957
#
# Compressibility (1/GPa) = 0.02362013
#
# Stress axis : x y z
#
# Youngs Moduli (GPa) = 71.55492 53.78012 111.82340
#
# Poissons Ratio (x) = 0.24797 0.21898
# Poissons Ratio (y) = 0.32993 0.26579
# Poissons Ratio (z) = 0.14012 0.12783
#
# Static dielectric constant tensor:
#      x y z
#    x 3.481840 0.000000 0.000000 
#    y 0.000000 3.551750 0.000000 
#    z 0.000000 0.000000 3.938150 
# 
# 
# High freq. dielectric constant tensor:
#      x y z
#    x 1.765150 0.000000 0.000000 
#    y 0.000000 1.763610 0.000000 
#    z 0.000000 0.000000 1.779840 
# 
# From -- ./inp_files/42111.got.cif
#   From: 2010.03.12/outbox.cif.g09.slc.cpg/sg69_22_cif.got.tgz:42111.got - 2010.04.10 23:52:46.
