data_PCOD8284046
_publ_section_title
;
Structure prediction by ZEFSAII (Michael W. Deem and Ramdas Pophale) SiO2 
 PCOD8284046
Probable space group: F M M M
;
_chemical_formula_sum "Si O2"
_cell_formula_units_Z 112
_cell_length_a 28.305129
_cell_length_b 8.630622
_cell_length_c 20.950122
_cell_angle_alpha 90.000000
_cell_angle_beta 90.000000
_cell_angle_gamma 90.000000
_cell_volume 5117.923510
_symmetry_space_group_name_H-M "F M M M"
_symmetry_group_IT_number 69
_symmetry_cell_setting 'orthorhombic'
loop_
_space_group_symop_operation_xyz
x,y,z
-x,-y,z
x,-y,-z
-x,y,-z
-x,-y,-z
x,y,-z
-x,y,z
x,-y,z
x,1/2+y,1/2+z
-x,1/2-y,1/2+z
x,1/2-y,1/2-z
-x,1/2+y,1/2-z
-x,1/2-y,1/2-z
x,1/2+y,1/2-z
-x,1/2+y,1/2+z
x,1/2-y,1/2+z
1/2+x,y,1/2+z
1/2-x,-y,1/2+z
1/2+x,-y,1/2-z
1/2-x,y,1/2-z
1/2-x,-y,1/2-z
1/2+x,y,1/2-z
1/2-x,y,1/2+z
1/2+x,-y,1/2+z
1/2+x,1/2+y,z
1/2-x,1/2-y,z
1/2+x,1/2-y,-z
1/2-x,1/2+y,-z
1/2-x,1/2-y,-z
1/2+x,1/2+y,-z
1/2-x,1/2+y,z
1/2+x,1/2-y,z
loop_
_atom_site_type_symbol
_atom_site_label
_atom_site_fract_x
_atom_site_fract_y
_atom_site_fract_z
Si Si1 0.444205 0.823113 0.428237
Si Si2 0.110787 0.181302 0.313900
Si Si3 0.198327 0.682455 0.370389
Si Si4 0.197500 0.684306 0.000000
O O1 0.429083 0.771238 0.500000
O O2 0.500000 0.808050 0.421096
O O3 0.420664 0.713814 0.375905
O O4 0.428065 0.000000 0.416189
O O5 0.085955 0.250000 0.250000
O O6 0.161984 0.265040 0.316258
O O7 0.118158 0.000000 0.306984
O O8 0.203128 0.500000 0.374956
O O9 0.250000 0.750000 0.356216
O O10 0.174248 0.749444 0.435595
O O11 0.250000 0.750000 0.000000
O O12 0.196598 0.500000 0.000000
#
# Coordination Sequence:
#
# PCOD8284046 Si02
#       4
#    32  32  32  16
#     4   9  20  42  71 100 130 165 207 257 317 382
#     4  12  26  43  63  92 129 170 217 265 318 381
#     4  11  22  39  61  88 124 167 213 264 318 375
#     4  10  18  32  54  84 117 154 203 256 310 364
#
# _framework density 21.883873999999999
#
# number of rings (size 3 to 8) (size 9 to 14) (size 15 to 20)
#    0.000    1.429    0.000    9.000    2.000    2.286 
#    0.000    4.286    0.000    0.000    0.000    0.000 
#    0.000    0.000    0.000    0.000    0.000    0.000 
#
# Total GULP energy -347212.481162 kJ/mol
# GULP energy per Si atom -12400.445756 kJ/mol
# Density = 2.183407 g / cm^3
# Si number density = 21.883874 Si / 1000 Ang^3
#
#
#
# Elastic Constant Matrix: (Units=GPa)
#
#
# Indices 1 2 3 4 5 6 
#
# 1 47.2824 29.4752 40.7338 0.0000 0.0000 0.0000
# 2 29.4752 194.5283 55.9120 0.0000 0.0000 0.0000
# 3 40.7338 55.9120 133.2169 0.0000 0.0000 0.0000
# 4 0.0000 0.0000 0.0000 37.7256 0.0000 0.0000
# 5 0.0000 0.0000 0.0000 0.0000 15.5365 0.0000
# 6 0.0000 0.0000 0.0000 0.0000 0.0000 34.0793
#
#
#
# Elastic Compliance Matrix: (Units=1/GPa)
#
#
# Indices 1 2 3 4 5 6 
#
# 1 0.029471 -0.002133 -0.008116 0.000000 0.000000 0.000000
# 2 -0.002133 0.006000 -0.001866 0.000000 0.000000 0.000000
# 3 -0.008116 -0.001866 0.010772 0.000000 0.000000 0.000000
# 4 0.000000 0.000000 0.000000 0.026507 0.000000 0.000000
# 5 0.000000 0.000000 0.000000 0.000000 0.064364 0.000000
# 6 0.000000 0.000000 0.000000 0.000000 0.000000 0.029343
#
#
# Mechanical properties :
#
#
# Convention : Reuss Voigt Hill
#
# Bulk Modulus (GPa) = 45.42869 69.69661 57.56265
# Shear Modulus (GPa) = 25.24922 34.06205 29.65563
#
# Velocity S-wave (km/s) = 3.40042 3.94952 3.68521
# Velocity P-wave (km/s) = 6.01841 7.26056 6.66847
#
# Compressibility (1/GPa) = 0.02201252
#
# Stress axis : x y z
#
# Youngs Moduli (GPa) = 33.93136 166.66168 92.83713
#
# Poissons Ratio (x) = 0.35544 0.75350
# Poissons Ratio (y) = 0.07237 0.17325
# Poissons Ratio (z) = 0.27540 0.31102
#
# Static dielectric constant tensor:
#      x y z
#    x 3.773630 0.000000 0.000000 
#    y 0.000000 3.863700 0.000000 
#    z 0.000000 0.000000 4.743430 
# 
# 
# High freq. dielectric constant tensor:
#      x y z
#    x 1.852130 0.000000 0.000000 
#    y 0.000000 1.864140 0.000000 
#    z 0.000000 0.000000 1.872520 
# 
# From -- ./inp_files/38070.got.cif
#   From: 2010.03.12/outbox.cif.g09.slc.cpg/sg69_20_cif.got.tgz:38070.got - 2010.04.10 23:52:46.
