data_PCOD8284833
_publ_section_title
;
Structure prediction by ZEFSAII (Michael W. Deem and Ramdas Pophale) SiO2 
 PCOD8284833
Probable space group: F M M M
;
_chemical_formula_sum "Si O2"
_cell_formula_units_Z 192
_cell_length_a 23.204072
_cell_length_b 20.630732
_cell_length_c 21.645242
_cell_angle_alpha 90.000000
_cell_angle_beta 90.000000
_cell_angle_gamma 90.000000
_cell_volume 10361.945114
_symmetry_space_group_name_H-M "F M M M"
_symmetry_group_IT_number 69
_symmetry_cell_setting 'orthorhombic'
loop_
_space_group_symop_operation_xyz
x,y,z
-x,-y,z
x,-y,-z
-x,y,-z
-x,-y,-z
x,y,-z
-x,y,z
x,-y,z
x,1/2+y,1/2+z
-x,1/2-y,1/2+z
x,1/2-y,1/2-z
-x,1/2+y,1/2-z
-x,1/2-y,1/2-z
x,1/2+y,1/2-z
-x,1/2+y,1/2+z
x,1/2-y,1/2+z
1/2+x,y,1/2+z
1/2-x,-y,1/2+z
1/2+x,-y,1/2-z
1/2-x,y,1/2-z
1/2-x,-y,1/2-z
1/2+x,y,1/2-z
1/2-x,y,1/2+z
1/2+x,-y,1/2+z
1/2+x,1/2+y,z
1/2-x,1/2-y,z
1/2+x,1/2-y,-z
1/2-x,1/2+y,-z
1/2-x,1/2-y,-z
1/2+x,1/2+y,-z
1/2-x,1/2+y,z
1/2+x,1/2-y,z
loop_
_atom_site_type_symbol
_atom_site_label
_atom_site_fract_x
_atom_site_fract_y
_atom_site_fract_z
Si Si1 0.500000 0.706010 0.343995
Si Si2 0.695339 0.070648 0.209583
Si Si3 0.891486 0.926045 0.184831
Si Si4 0.105715 0.727426 0.930577
Si Si5 0.157535 0.364160 0.431172
Si Si6 0.725255 0.182268 0.885383
Si Si7 0.500000 0.654328 0.785608
O O1 0.557679 0.698163 0.384846
O O2 0.500000 0.651798 0.289643
O O3 0.500000 0.773565 0.309773
O O4 0.750000 0.056406 0.250000
O O5 0.644683 0.093374 0.254944
O O6 0.708691 0.129596 0.165061
O O7 0.680420 0.000000 0.177558
O O8 0.855191 0.916713 0.121628
O O9 0.945931 0.880492 0.184749
O O10 0.911395 0.000000 0.187875
O O11 0.115510 0.803425 0.918065
O O12 0.167132 0.692290 0.923859
O O13 0.083359 0.715839 0.000000
O O14 0.145356 0.392130 0.500000
O O15 0.224799 0.344547 0.429760
O O16 0.750000 0.250000 0.855776
#
# Coordination Sequence:
#
# PCOD8284833 Si02
#       7
#    16  32  32  32  32  32  16
#     4  11  21  36  60  83 112 143 185 242 285 336
#     4  10  20  35  55  80 113 148 184 234 290 341
#     4  11  22  39  57  79 114 151 191 232 282 341
#     4  10  20  36  56  82 115 149 184 228 286 340
#     4  10  20  35  54  79 113 149 189 235 280 329
#     4  10  20  35  56  87 116 149 190 235 288 344
#     4  11  23  38  56  84 111 144 192 236 285 332
#
# _framework density 18.529339
#
# number of rings (size 3 to 8) (size 9 to 14) (size 15 to 20)
#    0.000    1.667    3.333    2.000    0.000    2.667 
#    0.000    0.417    0.000    2.500    0.000    0.000 
#    0.000    6.667    0.000    0.000    0.000    0.000 
#
# Total GULP energy -594906.279993 kJ/mol
# GULP energy per Si atom -12393.880833 kJ/mol
# Density = 1.848717 g / cm^3
# Si number density = 18.529339 Si / 1000 Ang^3
#
#
#
# Elastic Constant Matrix: (Units=GPa)
#
#
# Indices 1 2 3 4 5 6 
#
# 1 98.8136 14.4517 26.5011 0.0000 0.0000 0.0000
# 2 14.4517 67.6465 39.5239 0.0000 0.0000 0.0000
# 3 26.5011 39.5239 98.6484 0.0000 0.0000 0.0000
# 4 0.0000 0.0000 0.0000 14.4086 0.0000 0.0000
# 5 0.0000 0.0000 0.0000 0.0000 27.3730 0.0000
# 6 0.0000 0.0000 0.0000 0.0000 0.0000 43.6584
#
#
#
# Elastic Compliance Matrix: (Units=1/GPa)
#
#
# Indices 1 2 3 4 5 6 
#
# 1 0.010940 -0.000810 -0.002615 0.000000 0.000000 0.000000
# 2 -0.000810 0.019361 -0.007540 0.000000 0.000000 0.000000
# 3 -0.002615 -0.007540 0.013860 0.000000 0.000000 0.000000
# 4 0.000000 0.000000 0.000000 0.069403 0.000000 0.000000
# 5 0.000000 0.000000 0.000000 0.000000 0.036532 0.000000
# 6 0.000000 0.000000 0.000000 0.000000 0.000000 0.022905
#
#
# Mechanical properties :
#
#
# Convention : Reuss Voigt Hill
#
# Bulk Modulus (GPa) = 44.97722 47.34023 46.15872
# Shear Modulus (GPa) = 24.71095 29.39678 27.05386
#
# Velocity S-wave (km/s) = 3.65583 3.98741 3.82521
# Velocity P-wave (km/s) = 6.49202 6.84131 6.66895
#
# Compressibility (1/GPa) = 0.02223348
#
# Stress axis : x y z
#
# Youngs Moduli (GPa) = 91.41062 51.65074 72.14947
#
# Poissons Ratio (x) = 0.04181 0.18864
# Poissons Ratio (y) = 0.07400 0.54397
# Poissons Ratio (z) = 0.23899 0.38942
#
# Static dielectric constant tensor:
#      x y z
#    x 3.468700 0.000000 0.000000 
#    y 0.000000 3.504190 0.000000 
#    z 0.000000 0.000000 3.166210 
# 
# 
# High freq. dielectric constant tensor:
#      x y z
#    x 1.726770 0.000000 0.000000 
#    y 0.000000 1.705350 0.000000 
#    z 0.000000 0.000000 1.712710 
# 
# From -- ./inp_files/37371.got.cif
#   From: 2010.03.12/outbox.cif.g09.slc.cpg/sg69_19_cif.got.tgz:37371.got - 2010.04.10 23:52:46.
