data_PCOD8284839
_publ_section_title
;
Structure prediction by ZEFSAII (Michael W. Deem and Ramdas Pophale) SiO2 
 PCOD8284839
Probable space group: F M M M
;
_chemical_formula_sum "Si O2"
_cell_formula_units_Z 160
_cell_length_a 19.791327
_cell_length_b 16.056384
_cell_length_c 27.786907
_cell_angle_alpha 90.000000
_cell_angle_beta 90.000000
_cell_angle_gamma 90.000000
_cell_volume 8830.044008
_symmetry_space_group_name_H-M "F M M M"
_symmetry_group_IT_number 69
_symmetry_cell_setting 'orthorhombic'
loop_
_space_group_symop_operation_xyz
x,y,z
-x,-y,z
x,-y,-z
-x,y,-z
-x,-y,-z
x,y,-z
-x,y,z
x,-y,z
x,1/2+y,1/2+z
-x,1/2-y,1/2+z
x,1/2-y,1/2-z
-x,1/2+y,1/2-z
-x,1/2-y,1/2-z
x,1/2+y,1/2-z
-x,1/2+y,1/2+z
x,1/2-y,1/2+z
1/2+x,y,1/2+z
1/2-x,-y,1/2+z
1/2+x,-y,1/2-z
1/2-x,y,1/2-z
1/2-x,-y,1/2-z
1/2+x,y,1/2-z
1/2-x,y,1/2+z
1/2+x,-y,1/2+z
1/2+x,1/2+y,z
1/2-x,1/2-y,z
1/2+x,1/2-y,-z
1/2-x,1/2+y,-z
1/2-x,1/2-y,-z
1/2+x,1/2+y,-z
1/2-x,1/2+y,z
1/2+x,1/2-y,z
loop_
_atom_site_type_symbol
_atom_site_label
_atom_site_fract_x
_atom_site_fract_y
_atom_site_fract_z
Si Si1 0.730086 0.401286 0.360642
Si Si2 0.000000 0.095534 0.149786
Si Si3 0.126098 0.817354 0.876942
Si Si4 0.317913 0.301128 0.447148
Si Si5 0.500000 0.099223 0.757602
Si Si6 0.630082 0.307210 0.705534
O O1 0.733921 0.500000 0.355418
O O2 0.804663 0.363048 0.362799
O O3 0.690576 0.377885 0.410005
O O4 0.692764 0.362773 0.314025
O O5 0.065903 0.117088 0.118537
O O6 0.000000 0.135149 0.203231
O O7 0.000000 0.000000 0.159962
O O8 0.128822 0.765979 0.926698
O O9 0.104728 0.753385 0.835898
O O10 0.340828 0.334086 0.500000
O O11 0.250000 0.250000 0.452185
O O12 0.567856 0.132722 0.782249
O O13 0.500000 0.000000 0.762043
O O14 0.654599 0.250000 0.750000
#
# Coordination Sequence:
#
# PCOD8284839 Si02
#       6
#    32  16  32  32  16  32
#     4  10  21  35  53  82 113 141 180 231 279 320
#     4  11  21  35  52  76 107 143 182 230 280 322
#     4  10  20  35  55  76 109 147 184 225 270 332
#     4   8  16  33  57  80 102 135 177 218 266 326
#     4  11  22  36  54  78 105 140 190 233 272 324
#     4  11  20  36  54  75 106 145 186 225 268 325
#
# _framework density 18.119955000000001
#
# number of rings (size 3 to 8) (size 9 to 14) (size 15 to 20)
#    0.000    2.000    2.000    3.900    0.000    2.000 
#    0.000    1.500    0.000    2.400    0.000    0.000 
#    0.000    9.600    0.000    0.000    0.000    0.000 
#
# Total GULP energy -495756.972602 kJ/mol
# GULP energy per Si atom -12393.924315 kJ/mol
# Density = 1.807871 g / cm^3
# Si number density = 18.119955 Si / 1000 Ang^3
#
#
#
# Elastic Constant Matrix: (Units=GPa)
#
#
# Indices 1 2 3 4 5 6 
#
# 1 120.1140 44.9617 46.7968 0.0000 0.0000 0.0000
# 2 44.9617 103.6656 43.4402 0.0000 0.0000 0.0000
# 3 46.7968 43.4402 115.1844 0.0000 0.0000 0.0000
# 4 0.0000 0.0000 0.0000 20.5053 0.0000 0.0000
# 5 0.0000 0.0000 0.0000 0.0000 9.7862 0.0000
# 6 0.0000 0.0000 0.0000 0.0000 0.0000 26.2602
#
#
#
# Elastic Compliance Matrix: (Units=1/GPa)
#
#
# Indices 1 2 3 4 5 6 
#
# 1 0.010804 -0.003381 -0.003114 0.000000 0.000000 0.000000
# 2 -0.003381 0.012515 -0.003346 0.000000 0.000000 0.000000
# 3 -0.003114 -0.003346 0.011209 0.000000 0.000000 0.000000
# 4 0.000000 0.000000 0.000000 0.048768 0.000000 0.000000
# 5 0.000000 0.000000 0.000000 0.000000 0.102185 0.000000
# 6 0.000000 0.000000 0.000000 0.000000 0.000000 0.038080
#
#
# Mechanical properties :
#
#
# Convention : Reuss Voigt Hill
#
# Bulk Modulus (GPa) = 67.36248 67.70681 67.53464
# Shear Modulus (GPa) = 20.14554 24.89468 22.52011
#
# Velocity S-wave (km/s) = 3.33797 3.71061 3.52921
# Velocity P-wave (km/s) = 7.21890 7.47029 7.34567
#
# Compressibility (1/GPa) = 0.01484506
#
# Stress axis : x y z
#
# Youngs Moduli (GPa) = 92.55464 79.90403 89.21352
#
# Poissons Ratio (x) = 0.27015 0.27786
# Poissons Ratio (y) = 0.31293 0.29853
# Poissons Ratio (z) = 0.28826 0.26738
#
# Static dielectric constant tensor:
#      x y z
#    x 3.287500 0.000000 0.000000 
#    y 0.000000 3.331800 0.000000 
#    z 0.000000 0.000000 3.833650 
# 
# 
# High freq. dielectric constant tensor:
#      x y z
#    x 1.692920 0.000000 0.000000 
#    y 0.000000 1.702980 0.000000 
#    z 0.000000 0.000000 1.695600 
# 
# From -- ./inp_files/15673.got.cif
#   From: 2010.03.12/outbox.cif.g09.slc.cpg/sg69_8_cif.got.tgz:15673.got - 2010.04.10 23:52:46.
