data_PCOD8284475
_publ_section_title
;
Structure prediction by ZEFSAII (Michael W. Deem and Ramdas Pophale) SiO2 
 PCOD8284475
Probable space group: F M M M
;
_chemical_formula_sum "Si O2"
_cell_formula_units_Z 144
_cell_length_a 15.940300
_cell_length_b 26.568105
_cell_length_c 18.082931
_cell_angle_alpha 90.000000
_cell_angle_beta 90.000000
_cell_angle_gamma 90.000000
_cell_volume 7658.185728
_symmetry_space_group_name_H-M "F M M M"
_symmetry_group_IT_number 69
_symmetry_cell_setting 'orthorhombic'
loop_
_space_group_symop_operation_xyz
x,y,z
-x,-y,z
x,-y,-z
-x,y,-z
-x,-y,-z
x,y,-z
-x,y,z
x,-y,z
x,1/2+y,1/2+z
-x,1/2-y,1/2+z
x,1/2-y,1/2-z
-x,1/2+y,1/2-z
-x,1/2-y,1/2-z
x,1/2+y,1/2-z
-x,1/2+y,1/2+z
x,1/2-y,1/2+z
1/2+x,y,1/2+z
1/2-x,-y,1/2+z
1/2+x,-y,1/2-z
1/2-x,y,1/2-z
1/2-x,-y,1/2-z
1/2+x,y,1/2-z
1/2-x,y,1/2+z
1/2+x,-y,1/2+z
1/2+x,1/2+y,z
1/2-x,1/2-y,z
1/2+x,1/2-y,-z
1/2-x,1/2+y,-z
1/2-x,1/2-y,-z
1/2+x,1/2+y,-z
1/2-x,1/2+y,z
1/2+x,1/2-y,z
loop_
_atom_site_type_symbol
_atom_site_label
_atom_site_fract_x
_atom_site_fract_y
_atom_site_fract_z
Si Si1 0.500000 0.942650 0.587280
Si Si2 0.160074 0.557673 0.826030
Si Si3 0.404526 0.359253 0.584228
Si Si4 0.258760 0.805328 0.836806
Si Si5 0.662662 0.097171 0.334224
O O1 0.500000 0.937780 0.500000
O O2 0.583104 0.916504 0.617302
O O3 0.500000 0.000000 0.614134
O O4 0.133309 0.500000 0.813712
O O5 0.104409 0.582323 0.890827
O O6 0.258064 0.560507 0.849418
O O7 0.142111 0.591069 0.752725
O O8 0.373215 0.354198 0.500000
O O9 0.500000 0.341452 0.591796
O O10 0.349362 0.324852 0.638036
O O11 0.250000 0.799697 0.750000
O O12 0.250000 0.750000 0.873831
O O13 0.187209 0.845883 0.858919
#
# Coordination Sequence:
#
# PCOD8284475 Si02
#       5
#    16  32  32  32  32
#     4  11  24  38  56  87 127 163 195 240 297 354
#     4  10  19  34  58  85 113 153 197 233 281 344
#     4  10  22  39  57  83 119 153 189 239 292 342
#     4  10  20  40  64  88 111 148 197 245 299 351
#     4  10  19  37  57  85 116 152 191 242 285 346
#
# _framework density 18.80341
#
# number of rings (size 3 to 8) (size 9 to 14) (size 15 to 20)
#    0.000    1.889    4.444    2.667    1.556    4.889 
#    2.000    2.222    0.000    0.000    0.000    0.000 
#    0.000    0.000    0.000    0.000    0.000    0.000 
#
# Total GULP energy -446177.578591 kJ/mol
# GULP energy per Si atom -12393.821628 kJ/mol
# Density = 1.876061 g / cm^3
# Si number density = 18.803410 Si / 1000 Ang^3
#
#
#
# Elastic Constant Matrix: (Units=GPa)
#
#
# Indices 1 2 3 4 5 6 
#
# 1 98.6047 50.1118 53.1344 0.0000 0.0000 0.0000
# 2 50.1118 159.9632 36.0736 0.0000 0.0000 0.0000
# 3 53.1344 36.0736 79.0066 0.0000 0.0000 0.0000
# 4 0.0000 0.0000 0.0000 7.7464 0.0000 0.0000
# 5 0.0000 0.0000 0.0000 0.0000 25.5089 0.0000
# 6 0.0000 0.0000 0.0000 0.0000 0.0000 13.3310
#
#
#
# Elastic Compliance Matrix: (Units=1/GPa)
#
#
# Indices 1 2 3 4 5 6 
#
# 1 0.017178 -0.003095 -0.010140 0.000000 0.000000 0.000000
# 2 -0.003095 0.007527 -0.001355 0.000000 0.000000 0.000000
# 3 -0.010140 -0.001355 0.020095 0.000000 0.000000 0.000000
# 4 0.000000 0.000000 0.000000 0.129093 0.000000 0.000000
# 5 0.000000 0.000000 0.000000 0.000000 0.039202 0.000000
# 6 0.000000 0.000000 0.000000 0.000000 0.000000 0.075013
#
#
# Mechanical properties :
#
#
# Convention : Reuss Voigt Hill
#
# Bulk Modulus (GPa) = 64.01878 68.46823 66.24350
# Shear Modulus (GPa) = 15.50412 22.53423 19.01917
#
# Velocity S-wave (km/s) = 2.87459 3.46556 3.18382
# Velocity P-wave (km/s) = 6.71848 7.24605 6.98725
#
# Compressibility (1/GPa) = 0.01562042
#
# Stress axis : x y z
#
# Youngs Moduli (GPa) = 58.21283 132.86275 49.76278
#
# Poissons Ratio (x) = 0.41118 0.50459
# Poissons Ratio (y) = 0.18016 0.06744
# Poissons Ratio (z) = 0.59027 0.18005
#
# Static dielectric constant tensor:
#      x y z
#    x 3.371950 0.000000 0.000000 
#    y 0.000000 3.896470 0.000000 
#    z 0.000000 0.000000 3.377900 
# 
# 
# High freq. dielectric constant tensor:
#      x y z
#    x 1.722950 0.000000 0.000000 
#    y 0.000000 1.729760 0.000000 
#    z 0.000000 0.000000 1.720240 
# 
# From -- ./inp_files/21746.got.cif
#   From: 2010.03.12/outbox.cif.g09.slc.cpg/sg69_11_cif.got.tgz:21746.got - 2010.04.10 23:52:46.
