data_PCOD8284358
_publ_section_title
;
Structure prediction by ZEFSAII (Michael W. Deem and Ramdas Pophale) SiO2 
 PCOD8284358
Probable space group: F M M M
;
_chemical_formula_sum "Si O2"
_cell_formula_units_Z 176
_cell_length_a 21.171656
_cell_length_b 24.675020
_cell_length_c 18.208195
_cell_angle_alpha 90.000000
_cell_angle_beta 90.000000
_cell_angle_gamma 90.000000
_cell_volume 9512.162000
_symmetry_space_group_name_H-M "F M M M"
_symmetry_group_IT_number 69
_symmetry_cell_setting 'orthorhombic'
loop_
_space_group_symop_operation_xyz
x,y,z
-x,-y,z
x,-y,-z
-x,y,-z
-x,-y,-z
x,y,-z
-x,y,z
x,-y,z
x,1/2+y,1/2+z
-x,1/2-y,1/2+z
x,1/2-y,1/2-z
-x,1/2+y,1/2-z
-x,1/2-y,1/2-z
x,1/2+y,1/2-z
-x,1/2+y,1/2+z
x,1/2-y,1/2+z
1/2+x,y,1/2+z
1/2-x,-y,1/2+z
1/2+x,-y,1/2-z
1/2-x,y,1/2-z
1/2-x,-y,1/2-z
1/2+x,y,1/2-z
1/2-x,y,1/2+z
1/2+x,-y,1/2+z
1/2+x,1/2+y,z
1/2-x,1/2-y,z
1/2+x,1/2-y,-z
1/2-x,1/2+y,-z
1/2-x,1/2-y,-z
1/2+x,1/2+y,-z
1/2-x,1/2+y,z
1/2+x,1/2-y,z
loop_
_atom_site_type_symbol
_atom_site_label
_atom_site_fract_x
_atom_site_fract_y
_atom_site_fract_z
Si Si1 0.700066 0.360003 0.585824
Si Si2 0.500000 0.435293 0.582008
Si Si3 0.381334 0.936596 0.169375
Si Si4 0.925349 0.436787 0.669802
Si Si5 0.651189 0.849310 0.583801
Si Si6 0.175226 0.245839 0.334136
O O1 0.680837 0.363170 0.500000
O O2 0.681423 0.412371 0.633344
O O3 0.774961 0.360055 0.594465
O O4 0.661578 0.310560 0.624120
O O5 0.500000 0.500000 0.584202
O O6 0.500000 0.412437 0.500000
O O7 0.439384 0.412213 0.623473
O O8 0.391197 0.921506 0.254126
O O9 0.376249 0.000000 0.159410
O O10 0.914836 0.500000 0.649873
O O11 0.891706 0.399460 0.609700
O O12 0.000000 0.424265 0.674531
O O13 0.633606 0.839462 0.500000
O O14 0.636411 0.793682 0.626320
O O15 0.152829 0.250000 0.250000
O O16 0.250000 0.250000 0.340560
#
# Coordination Sequence:
#
# PCOD8284358 Si02
#       6
#    32  16  32  32  32  32
#     4  10  20  33  53  83 115 143 174 218 273 332
#     4   9  16  28  48  72  98 135 175 205 245 309
#     4  10  19  33  53  77 108 143 177 218 268 323
#     4  10  21  38  58  78 104 143 191 235 273 319
#     4  10  21  36  55  80 110 143 180 226 275 322
#     4   9  17  32  55  80 106 140 179 216 264 327
#
# _framework density 18.502628000000001
#
# number of rings (size 3 to 8) (size 9 to 14) (size 15 to 20)
#    0.000    2.273    0.909    2.182    0.000    6.909 
#    0.000    4.545    2.000    1.636    0.000    0.000 
#    0.000    0.000    0.000    0.000    0.000    0.000 
#
# Total GULP energy -545389.343632 kJ/mol
# GULP energy per Si atom -12395.212355 kJ/mol
# Density = 1.846052 g / cm^3
# Si number density = 18.502628 Si / 1000 Ang^3
#
#
#
# Elastic Constant Matrix: (Units=GPa)
#
#
# Indices 1 2 3 4 5 6 
#
# 1 41.9147 37.7029 40.8446 0.0000 0.0000 0.0000
# 2 37.7029 67.9108 57.8200 0.0000 0.0000 0.0000
# 3 40.8446 57.8200 136.1244 0.0000 0.0000 0.0000
# 4 0.0000 0.0000 0.0000 32.9563 0.0000 0.0000
# 5 0.0000 0.0000 0.0000 0.0000 29.0242 0.0000
# 6 0.0000 0.0000 0.0000 0.0000 0.0000 16.7960
#
#
#
# Elastic Compliance Matrix: (Units=1/GPa)
#
#
# Indices 1 2 3 4 5 6 
#
# 1 0.049744 -0.023355 -0.005006 0.000000 0.000000 0.000000
# 2 -0.023355 0.034033 -0.007448 0.000000 0.000000 0.000000
# 3 -0.005006 -0.007448 0.012012 0.000000 0.000000 0.000000
# 4 0.000000 0.000000 0.000000 0.030343 0.000000 0.000000
# 5 0.000000 0.000000 0.000000 0.000000 0.034454 0.000000
# 6 0.000000 0.000000 0.000000 0.000000 0.000000 0.059538
#
#
# Mechanical properties :
#
#
# Convention : Reuss Voigt Hill
#
# Bulk Modulus (GPa) = 41.37149 57.63165 49.50157
# Shear Modulus (GPa) = 16.67785 23.06080 19.86933
#
# Velocity S-wave (km/s) = 3.00555 3.53420 3.28054
# Velocity P-wave (km/s) = 5.86965 6.91878 6.41570
#
# Compressibility (1/GPa) = 0.02417123
#
# Stress axis : x y z
#
# Youngs Moduli (GPa) = 20.10281 29.38327 83.25208
#
# Poissons Ratio (x) = 0.68626 0.41672
# Poissons Ratio (y) = 0.46951 0.62006
# Poissons Ratio (z) = 0.10062 0.21884
#
# Static dielectric constant tensor:
#      x y z
#    x 3.260410 0.000000 0.000000 
#    y 0.000000 3.384750 0.000000 
#    z 0.000000 0.000000 3.562250 
# 
# 
# High freq. dielectric constant tensor:
#      x y z
#    x 1.692180 0.000000 0.000000 
#    y 0.000000 1.711700 0.000000 
#    z 0.000000 0.000000 1.734030 
# 
# From -- ./inp_files/17861.got.cif
#   From: 2010.03.12/outbox.cif.g09.slc.cpg/sg69_9_cif.got.tgz:17861.got - 2010.04.10 23:52:46.
