data_PCOD8284530
_publ_section_title
;
Structure prediction by ZEFSAII (Michael W. Deem and Ramdas Pophale) SiO2 
 PCOD8284530
Probable space group: F M M M
;
_chemical_formula_sum "Si O2"
_cell_formula_units_Z 144
_cell_length_a 26.372392
_cell_length_b 17.535768
_cell_length_c 17.024938
_cell_angle_alpha 90.000000
_cell_angle_beta 90.000000
_cell_angle_gamma 90.000000
_cell_volume 7873.355342
_symmetry_space_group_name_H-M "F M M M"
_symmetry_group_IT_number 69
_symmetry_cell_setting 'orthorhombic'
loop_
_space_group_symop_operation_xyz
x,y,z
-x,-y,z
x,-y,-z
-x,y,-z
-x,-y,-z
x,y,-z
-x,y,z
x,-y,z
x,1/2+y,1/2+z
-x,1/2-y,1/2+z
x,1/2-y,1/2-z
-x,1/2+y,1/2-z
-x,1/2-y,1/2-z
x,1/2+y,1/2-z
-x,1/2+y,1/2+z
x,1/2-y,1/2+z
1/2+x,y,1/2+z
1/2-x,-y,1/2+z
1/2+x,-y,1/2-z
1/2-x,y,1/2-z
1/2-x,-y,1/2-z
1/2+x,y,1/2-z
1/2-x,y,1/2+z
1/2+x,-y,1/2+z
1/2+x,1/2+y,z
1/2-x,1/2-y,z
1/2+x,1/2-y,-z
1/2-x,1/2+y,-z
1/2-x,1/2-y,-z
1/2+x,1/2+y,-z
1/2-x,1/2+y,z
1/2+x,1/2-y,z
loop_
_atom_site_type_symbol
_atom_site_label
_atom_site_fract_x
_atom_site_fract_y
_atom_site_fract_z
Si Si1 0.440060 0.587671 0.500000
Si Si2 0.306540 0.765100 0.592827
Si Si3 0.904165 0.187470 0.354602
Si Si4 0.860154 0.416564 0.409678
Si Si5 0.941491 0.347532 0.312650
O O1 0.420283 0.500000 0.500000
O O2 0.500000 0.589231 0.500000
O O3 0.420533 0.630444 0.422859
O O4 0.310816 0.751143 0.500000
O O5 0.250000 0.750000 0.623695
O O6 0.344677 0.707148 0.635947
O O7 0.320306 0.851937 0.616572
O O8 0.936832 0.265484 0.355754
O O9 0.913366 0.148485 0.271059
O O10 0.873791 0.405633 0.500000
O O11 0.836237 0.500000 0.393106
O O12 0.913708 0.410260 0.365181
O O13 0.000000 0.369166 0.302179
#
# Coordination Sequence:
#
# PCOD8284530 Si02
#       5
#    16  32  32  32  32
#     4  11  22  34  51  74 105 145 182 223 274 324
#     4   9  17  33  59  82 103 138 181 223 270 320
#     4  10  19  36  52  77 108 137 183 228 261 320
#     4   9  19  35  53  79 110 137 174 225 278 328
#     4  10  20  33  54  79 106 145 181 218 269 322
#
# _framework density 18.289532999999999
#
# number of rings (size 3 to 8) (size 9 to 14) (size 15 to 20)
#    0.000    2.333    1.111    2.667    1.556    1.778 
#    0.000   11.111    0.000    1.333    0.000    0.000 
#    0.000    0.000    0.000    0.000    0.000    0.000 
#
# Total GULP energy -446315.916703 kJ/mol
# GULP energy per Si atom -12397.664353 kJ/mol
# Density = 1.824791 g / cm^3
# Si number density = 18.289533 Si / 1000 Ang^3
#
#
#
# Elastic Constant Matrix: (Units=GPa)
#
#
# Indices 1 2 3 4 5 6 
#
# 1 157.6385 53.8770 50.8817 0.0000 0.0000 0.0000
# 2 53.8770 110.2363 63.7359 0.0000 0.0000 0.0000
# 3 50.8817 63.7359 78.1855 0.0000 0.0000 0.0000
# 4 0.0000 0.0000 0.0000 22.5096 0.0000 0.0000
# 5 0.0000 0.0000 0.0000 0.0000 27.8341 0.0000
# 6 0.0000 0.0000 0.0000 0.0000 0.0000 15.8700
#
#
#
# Elastic Compliance Matrix: (Units=1/GPa)
#
#
# Indices 1 2 3 4 5 6 
#
# 1 0.008204 -0.001745 -0.003916 0.000000 0.000000 0.000000
# 2 -0.001745 0.017530 -0.013154 0.000000 0.000000 0.000000
# 3 -0.003916 -0.013154 0.026062 0.000000 0.000000 0.000000
# 4 0.000000 0.000000 0.000000 0.044425 0.000000 0.000000
# 5 0.000000 0.000000 0.000000 0.000000 0.035927 0.000000
# 6 0.000000 0.000000 0.000000 0.000000 0.000000 0.063012
#
#
# Mechanical properties :
#
#
# Convention : Reuss Voigt Hill
#
# Bulk Modulus (GPa) = 70.60115 75.89439 73.24777
# Shear Modulus (GPa) = 21.05133 25.08046 23.06590
#
# Velocity S-wave (km/s) = 3.39633 3.70713 3.55512
# Velocity P-wave (km/s) = 7.35294 7.74015 7.54903
#
# Compressibility (1/GPa) = 0.01416408
#
# Stress axis : x y z
#
# Youngs Moduli (GPa) = 121.88781 57.04498 38.36993
#
# Poissons Ratio (x) = 0.09957 0.15027
# Poissons Ratio (y) = 0.21275 0.50473
# Poissons Ratio (z) = 0.47735 0.75039
#
# Static dielectric constant tensor:
#      x y z
#    x 3.384140 0.000000 0.000000 
#    y 0.000000 3.479190 0.000000 
#    z 0.000000 0.000000 3.407600 
# 
# 
# High freq. dielectric constant tensor:
#      x y z
#    x 1.697840 0.000000 0.000000 
#    y 0.000000 1.699720 0.000000 
#    z 0.000000 0.000000 1.711100 
# 
# From -- ./inp_files/19479.got.cif
#   From: 2010.03.12/outbox.cif.g09.slc.cpg/sg69_10_cif.got.tgz:19479.got - 2010.04.10 23:52:46.
