data_PCOD8284372
_publ_section_title
;
Structure prediction by ZEFSAII (Michael W. Deem and Ramdas Pophale) SiO2 
 PCOD8284372
Probable space group: F M M M
;
_chemical_formula_sum "Si O2"
_cell_formula_units_Z 208
_cell_length_a 22.677958
_cell_length_b 16.761164
_cell_length_c 27.783773
_cell_angle_alpha 90.000000
_cell_angle_beta 90.000000
_cell_angle_gamma 90.000000
_cell_volume 10560.861427
_symmetry_space_group_name_H-M "F M M M"
_symmetry_group_IT_number 69
_symmetry_cell_setting 'orthorhombic'
loop_
_space_group_symop_operation_xyz
x,y,z
-x,-y,z
x,-y,-z
-x,y,-z
-x,-y,-z
x,y,-z
-x,y,z
x,-y,z
x,1/2+y,1/2+z
-x,1/2-y,1/2+z
x,1/2-y,1/2-z
-x,1/2+y,1/2-z
-x,1/2-y,1/2-z
x,1/2+y,1/2-z
-x,1/2+y,1/2+z
x,1/2-y,1/2+z
1/2+x,y,1/2+z
1/2-x,-y,1/2+z
1/2+x,-y,1/2-z
1/2-x,y,1/2-z
1/2-x,-y,1/2-z
1/2+x,y,1/2-z
1/2-x,y,1/2+z
1/2+x,-y,1/2+z
1/2+x,1/2+y,z
1/2-x,1/2-y,z
1/2+x,1/2-y,-z
1/2-x,1/2+y,-z
1/2-x,1/2-y,-z
1/2+x,1/2+y,-z
1/2-x,1/2+y,z
1/2+x,1/2-y,z
loop_
_atom_site_type_symbol
_atom_site_label
_atom_site_fract_x
_atom_site_fract_y
_atom_site_fract_z
Si Si1 0.629951 0.410411 0.319977
Si Si2 0.877498 0.594488 0.353566
Si Si3 0.430533 0.829010 0.555601
Si Si4 0.929686 0.500000 0.053128
Si Si5 0.569117 0.161635 0.901509
Si Si6 0.760427 0.091145 0.197808
Si Si7 0.432738 0.339726 0.763914
O O1 0.609349 0.500000 0.334898
O O2 0.596940 0.338889 0.348284
O O3 0.699171 0.401147 0.330586
O O4 0.612495 0.398204 0.264071
O O5 0.884635 0.500000 0.348295
O O6 0.891136 0.616368 0.409201
O O7 0.812716 0.625865 0.335998
O O8 0.924694 0.641577 0.320564
O O9 0.414478 0.847839 0.500000
O O10 0.500000 0.844233 0.564654
O O11 0.413265 0.737339 0.566586
O O12 0.904379 0.580830 0.075919
O O13 0.000000 0.500000 0.054720
O O14 0.904786 0.500000 0.000000
O O15 0.500000 0.157297 0.895609
O O16 0.750000 0.134033 0.250000
O O17 0.777472 0.000000 0.208487
O O18 0.500000 0.358540 0.749371
O O19 0.416180 0.250000 0.750000
#
# Coordination Sequence:
#
# PCOD8284372 Si02
#       7
#    32  32  32  16  32  32  32
#     4  11  20  33  56  83 114 149 191 236 286 344
#     4  11  22  39  62  85 111 151 200 247 289 344
#     4  10  22  40  61  85 117 155 194 247 308 351
#     4   9  16  28  50  78 107 142 186 226 263 330
#     4  10  19  33  53  83 118 151 187 229 288 352
#     4   9  18  36  58  81 111 149 194 237 283 340
#     4  11  23  36  51  79 121 158 185 227 291 354
#
# _framework density 19.695364000000001
#
# number of rings (size 3 to 8) (size 9 to 14) (size 15 to 20)
#    0.000    1.769    2.308    2.769    0.000    7.385 
#    0.000    4.615    0.000    2.769    0.000    0.000 
#    0.000    0.000    0.000    0.000    0.000    0.000 
#
# Total GULP energy -644554.264848 kJ/mol
# GULP energy per Si atom -12395.274324 kJ/mol
# Density = 1.965054 g / cm^3
# Si number density = 19.695364 Si / 1000 Ang^3
#
#
#
# Elastic Constant Matrix: (Units=GPa)
#
#
# Indices 1 2 3 4 5 6 
#
# 1 68.2566 43.0232 36.0171 0.0000 0.0000 0.0000
# 2 43.0232 81.4684 39.9876 0.0000 0.0000 0.0000
# 3 36.0171 39.9876 126.9586 0.0000 0.0000 0.0000
# 4 0.0000 0.0000 0.0000 31.0019 0.0000 0.0000
# 5 0.0000 0.0000 0.0000 0.0000 24.3485 0.0000
# 6 0.0000 0.0000 0.0000 0.0000 0.0000 17.7157
#
#
#
# Elastic Compliance Matrix: (Units=1/GPa)
#
#
# Indices 1 2 3 4 5 6 
#
# 1 0.023006 -0.010582 -0.003194 0.000000 0.000000 0.000000
# 2 -0.010582 0.019386 -0.003104 0.000000 0.000000 0.000000
# 3 -0.003194 -0.003104 0.009760 0.000000 0.000000 0.000000
# 4 0.000000 0.000000 0.000000 0.032256 0.000000 0.000000
# 5 0.000000 0.000000 0.000000 0.000000 0.041070 0.000000
# 6 0.000000 0.000000 0.000000 0.000000 0.000000 0.056447
#
#
# Mechanical properties :
#
#
# Convention : Reuss Voigt Hill
#
# Bulk Modulus (GPa) = 54.36707 57.19327 55.78017
# Shear Modulus (GPa) = 22.54125 25.12361 23.83243
#
# Velocity S-wave (km/s) = 3.38671 3.57544 3.48236
# Velocity P-wave (km/s) = 6.55416 6.79316 6.67473
#
# Compressibility (1/GPa) = 0.01839349
#
# Stress axis : x y z
#
# Youngs Moduli (GPa) = 43.46776 51.58250 102.45600
#
# Poissons Ratio (x) = 0.54583 0.32721
# Poissons Ratio (y) = 0.45996 0.31804
# Poissons Ratio (z) = 0.13882 0.16012
#
# Static dielectric constant tensor:
#      x y z
#    x 3.395510 0.000000 0.000000 
#    y 0.000000 3.507230 0.000000 
#    z 0.000000 0.000000 3.673160 
# 
# 
# High freq. dielectric constant tensor:
#      x y z
#    x 1.746120 0.000000 0.000000 
#    y 0.000000 1.759950 0.000000 
#    z 0.000000 0.000000 1.764370 
# 
# From -- ./inp_files/42103.got.cif
#   From: 2010.03.12/outbox.cif.g09.slc.cpg/sg69_22_cif.got.tgz:42103.got - 2010.04.10 23:52:46.
