data_PCOD8284649
_publ_section_title
;
Structure prediction by ZEFSAII (Michael W. Deem and Ramdas Pophale) SiO2 
 PCOD8284649
Probable space group: F M M M
;
_chemical_formula_sum "Si O2"
_cell_formula_units_Z 160
_cell_length_a 20.982078
_cell_length_b 14.266616
_cell_length_c 26.872899
_cell_angle_alpha 90.000000
_cell_angle_beta 90.000000
_cell_angle_gamma 90.000000
_cell_volume 8044.220916
_symmetry_space_group_name_H-M "F M M M"
_symmetry_group_IT_number 69
_symmetry_cell_setting 'orthorhombic'
loop_
_space_group_symop_operation_xyz
x,y,z
-x,-y,z
x,-y,-z
-x,y,-z
-x,-y,-z
x,y,-z
-x,y,z
x,-y,z
x,1/2+y,1/2+z
-x,1/2-y,1/2+z
x,1/2-y,1/2-z
-x,1/2+y,1/2-z
-x,1/2-y,1/2-z
x,1/2+y,1/2-z
-x,1/2+y,1/2+z
x,1/2-y,1/2+z
1/2+x,y,1/2+z
1/2-x,-y,1/2+z
1/2+x,-y,1/2-z
1/2-x,y,1/2-z
1/2-x,-y,1/2-z
1/2+x,y,1/2-z
1/2-x,y,1/2+z
1/2+x,-y,1/2+z
1/2+x,1/2+y,z
1/2-x,1/2-y,z
1/2+x,1/2-y,-z
1/2-x,1/2+y,-z
1/2-x,1/2-y,-z
1/2+x,1/2+y,-z
1/2-x,1/2+y,z
1/2+x,1/2-y,z
loop_
_atom_site_type_symbol
_atom_site_label
_atom_site_fract_x
_atom_site_fract_y
_atom_site_fract_z
Si Si1 0.425921 0.211766 0.895236
Si Si2 0.240923 0.888611 0.153681
Si Si3 0.652807 0.764626 0.193382
Si Si4 0.313467 0.609966 0.444681
Si Si5 0.075279 0.899033 0.055043
O O1 0.500000 0.190299 0.905375
O O2 0.409647 0.201111 0.836842
O O3 0.383778 0.144131 0.929202
O O4 0.404270 0.317380 0.908351
O O5 0.295484 0.848160 0.190329
O O6 0.177377 0.832565 0.168510
O O7 0.260187 0.862091 0.096479
O O8 0.232817 0.000000 0.161817
O O9 0.632427 0.750000 0.250000
O O10 0.295134 0.648452 0.500000
O O11 0.319034 0.500000 0.446439
O O12 0.000000 0.903983 0.051371
O O13 0.101870 0.000000 0.074687
O O14 0.103445 0.879883 0.000000
#
# Coordination Sequence:
#
# PCOD8284649 Si02
#       5
#    32  32  32  32  32
#     4  10  20  33  49  72 105 142 176 209 246 292
#     4   9  18  35  57  78 101 128 162 211 265 311
#     4  10  21  35  52  76 100 129 175 219 259 306
#     4   9  18  33  54  80 107 133 163 202 250 306
#     4   8  14  26  44  65  92 128 166 200 235 281
#
# _framework density 19.890055
#
# number of rings (size 3 to 8) (size 9 to 14) (size 15 to 20)
#    0.000    2.800    0.000    2.400    0.000    4.400 
#    0.000   10.000    0.000    2.400    0.000    5.600 
#    0.000    0.000    0.000    0.000    0.000    0.000 
#
# Total GULP energy -495636.009693 kJ/mol
# GULP energy per Si atom -12390.900242 kJ/mol
# Density = 1.984478 g / cm^3
# Si number density = 19.890055 Si / 1000 Ang^3
#
#
#
# Elastic Constant Matrix: (Units=GPa)
#
#
# Indices 1 2 3 4 5 6 
#
# 1 36.0298 9.6174 16.3604 0.0000 0.0000 0.0000
# 2 9.6174 51.6065 18.6250 0.0000 0.0000 0.0000
# 3 16.3604 18.6250 123.6833 0.0000 0.0000 0.0000
# 4 0.0000 0.0000 0.0000 22.7433 0.0000 0.0000
# 5 0.0000 0.0000 0.0000 0.0000 15.4713 0.0000
# 6 0.0000 0.0000 0.0000 0.0000 0.0000 16.1470
#
#
#
# Elastic Compliance Matrix: (Units=1/GPa)
#
#
# Indices 1 2 3 4 5 6 
#
# 1 0.030472 -0.004467 -0.003358 0.000000 0.000000 0.000000
# 2 -0.004467 0.021146 -0.002593 0.000000 0.000000 0.000000
# 3 -0.003358 -0.002593 0.008920 0.000000 0.000000 0.000000
# 4 0.000000 0.000000 0.000000 0.043969 0.000000 0.000000
# 5 0.000000 0.000000 0.000000 0.000000 0.064636 0.000000
# 6 0.000000 0.000000 0.000000 0.000000 0.000000 0.061931
#
#
# Mechanical properties :
#
#
# Convention : Reuss Voigt Hill
#
# Bulk Modulus (GPa) = 25.18822 33.39169 29.28996
# Shear Modulus (GPa) = 18.85770 21.98678 20.42224
#
# Velocity S-wave (km/s) = 3.08246 3.32839 3.20778
# Velocity P-wave (km/s) = 5.03587 5.62098 5.33645
#
# Compressibility (1/GPa) = 0.03970109
#
# Stress axis : x y z
#
# Youngs Moduli (GPa) = 32.81702 47.29068 112.10895
#
# Poissons Ratio (x) = 0.21124 0.37647
# Poissons Ratio (y) = 0.14659 0.29075
# Poissons Ratio (z) = 0.11020 0.12264
#
# Static dielectric constant tensor:
#      x y z
#    x 3.248470 0.000000 0.000000 
#    y 0.000000 4.019350 0.000000 
#    z 0.000000 0.000000 3.829910 
# 
# 
# High freq. dielectric constant tensor:
#      x y z
#    x 1.748290 0.000000 0.000000 
#    y 0.000000 1.779170 0.000000 
#    z 0.000000 0.000000 1.772650 
# 
# From -- ./inp_files/17741.got.cif
#   From: 2010.03.12/outbox.cif.g09.slc.cpg/sg69_9_cif.got.tgz:17741.got - 2010.04.10 23:52:46.
