data_PCOD8284084
_publ_section_title
;
Structure prediction by ZEFSAII (Michael W. Deem and Ramdas Pophale) SiO2 
 PCOD8284084
Probable space group: F M M M
;
_chemical_formula_sum "Si O2"
_cell_formula_units_Z 192
_cell_length_a 18.697892
_cell_length_b 27.423588
_cell_length_c 19.410210
_cell_angle_alpha 90.000000
_cell_angle_beta 90.000000
_cell_angle_gamma 90.000000
_cell_volume 9952.843075
_symmetry_space_group_name_H-M "F M M M"
_symmetry_group_IT_number 69
_symmetry_cell_setting 'orthorhombic'
loop_
_space_group_symop_operation_xyz
x,y,z
-x,-y,z
x,-y,-z
-x,y,-z
-x,-y,-z
x,y,-z
-x,y,z
x,-y,z
x,1/2+y,1/2+z
-x,1/2-y,1/2+z
x,1/2-y,1/2-z
-x,1/2+y,1/2-z
-x,1/2-y,1/2-z
x,1/2+y,1/2-z
-x,1/2+y,1/2+z
x,1/2-y,1/2+z
1/2+x,y,1/2+z
1/2-x,-y,1/2+z
1/2+x,-y,1/2-z
1/2-x,y,1/2-z
1/2-x,-y,1/2-z
1/2+x,y,1/2-z
1/2-x,y,1/2+z
1/2+x,-y,1/2+z
1/2+x,1/2+y,z
1/2-x,1/2-y,z
1/2+x,1/2-y,-z
1/2-x,1/2+y,-z
1/2-x,1/2-y,-z
1/2+x,1/2+y,-z
1/2-x,1/2+y,z
1/2+x,1/2-y,z
loop_
_atom_site_type_symbol
_atom_site_label
_atom_site_fract_x
_atom_site_fract_y
_atom_site_fract_z
Si Si1 0.081216 0.774457 0.316805
Si Si2 0.870261 0.875918 0.351450
Si Si3 0.678300 0.224897 0.579644
Si Si4 0.265494 0.445873 0.500000
Si Si5 0.288141 0.119800 0.377722
Si Si6 0.334098 0.945571 0.261779
Si Si7 0.083488 0.409490 0.000000
O O1 0.118959 0.750000 0.250000
O O2 0.087634 0.832838 0.313725
O O3 0.113289 0.752619 0.385920
O O4 0.000000 0.758177 0.317740
O O5 0.786738 0.861104 0.346769
O O6 0.877081 0.925470 0.305605
O O7 0.902150 0.879620 0.429189
O O8 0.671182 0.236152 0.500000
O O9 0.750000 0.250000 0.608817
O O10 0.672399 0.166942 0.592299
O O11 0.234823 0.500000 0.500000
O O12 0.234529 0.419494 0.434005
O O13 0.352927 0.449620 0.500000
O O14 0.342211 0.092816 0.324760
O O15 0.250000 0.950258 0.250000
O O16 0.364556 0.000000 0.278157
O O17 0.000000 0.428367 0.000000
#
# Coordination Sequence:
#
# PCOD8284084 Si02
#       7
#    32  32  32  16  32  32  16
#     4  11  24  39  56  82 115 151 194 239 288 346
#     4  10  20  35  55  78 111 150 193 238 284 333
#     4  11  22  36  59  86 117 152 194 242 286 349
#     4  10  20  33  54  82 118 151 186 241 291 335
#     4  10  18  34  55  84 114 146 190 235 289 345
#     4   9  18  32  53  79 110 146 187 236 287 336
#     4  10  22  35  53  77 108 155 198 229 276 339
#
# _framework density 19.290970999999999
#
# number of rings (size 3 to 8) (size 9 to 14) (size 15 to 20)
#    0.000    1.833    2.500    2.000    1.167    4.833 
#    0.000    0.000    0.000    1.500    0.000    0.000 
#    0.000    2.667    0.000    0.000    0.000    0.000 
#
# Total GULP energy -594820.670094 kJ/mol
# GULP energy per Si atom -12392.097294 kJ/mol
# Density = 1.924706 g / cm^3
# Si number density = 19.290971 Si / 1000 Ang^3
#
#
#
# Elastic Constant Matrix: (Units=GPa)
#
#
# Indices 1 2 3 4 5 6 
#
# 1 49.9216 26.9829 33.7204 0.0000 0.0000 0.0000
# 2 26.9829 132.2947 50.3086 0.0000 0.0000 0.0000
# 3 33.7204 50.3086 112.3313 0.0000 0.0000 0.0000
# 4 0.0000 0.0000 0.0000 33.1449 0.0000 0.0000
# 5 0.0000 0.0000 0.0000 0.0000 69.9937 0.0000
# 6 0.0000 0.0000 0.0000 0.0000 0.0000 14.1448
#
#
#
# Elastic Compliance Matrix: (Units=1/GPa)
#
#
# Indices 1 2 3 4 5 6 
#
# 1 0.025965 -0.002810 -0.006536 0.000000 0.000000 0.000000
# 2 -0.002810 0.009415 -0.003373 0.000000 0.000000 0.000000
# 3 -0.006536 -0.003373 0.012375 0.000000 0.000000 0.000000
# 4 0.000000 0.000000 0.000000 0.030171 0.000000 0.000000
# 5 0.000000 0.000000 0.000000 0.000000 0.014287 0.000000
# 6 0.000000 0.000000 0.000000 0.000000 0.000000 0.070697
#
#
# Mechanical properties :
#
#
# Convention : Reuss Voigt Hill
#
# Bulk Modulus (GPa) = 44.80970 57.39683 51.10326
# Shear Modulus (GPa) = 25.53803 35.69237 30.61520
#
# Velocity S-wave (km/s) = 3.64240 4.30607 3.98807
# Velocity P-wave (km/s) = 6.40064 7.38518 6.91046
#
# Compressibility (1/GPa) = 0.02231660
#
# Stress axis : x y z
#
# Youngs Moduli (GPa) = 38.51318 106.21676 80.81000
#
# Poissons Ratio (x) = 0.29852 0.52815
# Poissons Ratio (y) = 0.10824 0.27256
# Poissons Ratio (z) = 0.25171 0.35825
#
# Static dielectric constant tensor:
#      x y z
#    x 3.205190 0.000000 0.000000 
#    y 0.000000 3.733860 0.000000 
#    z 0.000000 0.000000 3.682080 
# 
# 
# High freq. dielectric constant tensor:
#      x y z
#    x 1.704410 0.000000 0.000000 
#    y 0.000000 1.757020 0.000000 
#    z 0.000000 0.000000 1.760720 
# 
# From -- ./inp_files/23688.got.cif
#   From: 2010.03.12/outbox.cif.g09.slc.cpg/sg69_12_cif.got.tgz:23688.got - 2010.04.10 23:52:46.
