data_PCOD8284522
_publ_section_title
;
Structure prediction by ZEFSAII (Michael W. Deem and Ramdas Pophale) SiO2 
 PCOD8284522
Probable space group: F M M M
;
_chemical_formula_sum "Si O2"
_cell_formula_units_Z 192
_cell_length_a 28.173504
_cell_length_b 14.380429
_cell_length_c 23.477688
_cell_angle_alpha 90.000000
_cell_angle_beta 90.000000
_cell_angle_gamma 90.000000
_cell_volume 9511.916596
_symmetry_space_group_name_H-M "F M M M"
_symmetry_group_IT_number 69
_symmetry_cell_setting 'orthorhombic'
loop_
_space_group_symop_operation_xyz
x,y,z
-x,-y,z
x,-y,-z
-x,y,-z
-x,-y,-z
x,y,-z
-x,y,z
x,-y,z
x,1/2+y,1/2+z
-x,1/2-y,1/2+z
x,1/2-y,1/2-z
-x,1/2+y,1/2-z
-x,1/2-y,1/2-z
x,1/2+y,1/2-z
-x,1/2+y,1/2+z
x,1/2-y,1/2+z
1/2+x,y,1/2+z
1/2-x,-y,1/2+z
1/2+x,-y,1/2-z
1/2-x,y,1/2-z
1/2-x,-y,1/2-z
1/2+x,y,1/2-z
1/2-x,y,1/2+z
1/2+x,-y,1/2+z
1/2+x,1/2+y,z
1/2-x,1/2-y,z
1/2+x,1/2-y,-z
1/2-x,1/2+y,-z
1/2-x,1/2-y,-z
1/2+x,1/2+y,-z
1/2-x,1/2+y,z
1/2+x,1/2-y,z
loop_
_atom_site_type_symbol
_atom_site_label
_atom_site_fract_x
_atom_site_fract_y
_atom_site_fract_z
Si Si1 0.769655 0.111027 0.000000
Si Si2 0.142391 0.890831 0.313068
Si Si3 0.410507 0.394574 0.880107
Si Si4 0.318626 0.394971 0.194620
Si Si5 0.552158 0.727736 0.684622
Si Si6 0.265593 0.890325 0.120311
Si Si7 0.875722 0.109542 0.000000
O O1 0.743039 0.149236 0.056693
O O2 0.822897 0.152459 0.000000
O O3 0.769143 0.000000 0.000000
O O4 0.162241 0.848521 0.253203
O O5 0.093744 0.842653 0.333494
O O6 0.180858 0.867046 0.361455
O O7 0.131749 0.000000 0.307303
O O8 0.430638 0.500000 0.875659
O O9 0.358609 0.389656 0.853031
O O10 0.446044 0.324974 0.849072
O O11 0.405713 0.360072 0.945030
O O12 0.305443 0.500000 0.211579
O O13 0.271867 0.346876 0.166548
O O14 0.500000 0.683454 0.672962
O O15 0.558675 0.750000 0.750000
O O16 0.256009 0.000000 0.120043
O O17 0.868557 0.000000 0.000000
#
# Coordination Sequence:
#
# PCOD8284522 Si02
#       7
#    16  32  32  32  32  32  16
#     4   9  14  24  47  81 112 147 189 220 262 324
#     4  10  20  35  55  81 114 152 191 229 274 331
#     4  10  19  35  60  88 117 149 183 226 285 350
#     4   9  15  27  51  82 115 148 180 217 267 332
#     4  11  24  40  58  80 108 143 190 247 296 337
#     4   9  16  27  49  80 115 151 184 221 268 327
#     4   9  16  30  58  88 117 152 184 220 278 351
#
# _framework density 20.185206000000001
#
# number of rings (size 3 to 8) (size 9 to 14) (size 15 to 20)
#    0.000    2.333    3.333    0.500    0.000    2.667 
#    0.000    3.750    0.000    2.500    0.000    0.000 
#    0.000    4.667    0.000    0.000    0.000    0.000 
#
# Total GULP energy -594964.978157 kJ/mol
# GULP energy per Si atom -12395.103712 kJ/mol
# Density = 2.013926 g / cm^3
# Si number density = 20.185206 Si / 1000 Ang^3
#
#
#
# Elastic Constant Matrix: (Units=GPa)
#
#
# Indices 1 2 3 4 5 6 
#
# 1 125.5964 36.8672 47.9698 0.0000 0.0000 0.0000
# 2 36.8672 50.6435 31.6746 0.0000 0.0000 0.0000
# 3 47.9698 31.6746 141.6637 0.0000 0.0000 0.0000
# 4 0.0000 0.0000 0.0000 8.1603 0.0000 0.0000
# 5 0.0000 0.0000 0.0000 0.0000 53.5679 0.0000
# 6 0.0000 0.0000 0.0000 0.0000 0.0000 6.9540
#
#
#
# Elastic Compliance Matrix: (Units=1/GPa)
#
#
# Indices 1 2 3 4 5 6 
#
# 1 0.010676 -0.006407 -0.002183 0.000000 0.000000 0.000000
# 2 -0.006407 0.026801 -0.003823 0.000000 0.000000 0.000000
# 3 -0.002183 -0.003823 0.008653 0.000000 0.000000 0.000000
# 4 0.000000 0.000000 0.000000 0.122545 0.000000 0.000000
# 5 0.000000 0.000000 0.000000 0.000000 0.018668 0.000000
# 6 0.000000 0.000000 0.000000 0.000000 0.000000 0.143803
#
#
# Mechanical properties :
#
#
# Convention : Reuss Voigt Hill
#
# Bulk Modulus (GPa) = 46.93724 61.21408 54.07566
# Shear Modulus (GPa) = 13.77136 27.16256 20.46696
#
# Velocity S-wave (km/s) = 2.61483 3.67231 3.18773
# Velocity P-wave (km/s) = 5.69387 6.95509 6.35584
#
# Compressibility (1/GPa) = 0.02130505
#
# Stress axis : x y z
#
# Youngs Moduli (GPa) = 93.66512 37.31202 115.56919
#
# Poissons Ratio (x) = 0.23906 0.25225
# Poissons Ratio (y) = 0.60011 0.44181
# Poissons Ratio (z) = 0.20444 0.14264
#
# Static dielectric constant tensor:
#      x y z
#    x 3.551400 0.000000 0.000000 
#    y 0.000000 3.373610 0.000000 
#    z 0.000000 0.000000 4.170210 
# 
# 
# High freq. dielectric constant tensor:
#      x y z
#    x 1.773650 0.000000 0.000000 
#    y 0.000000 1.758220 0.000000 
#    z 0.000000 0.000000 1.788540 
# 
# From -- ./inp_files/38411.got.cif
#   From: 2010.03.12/outbox.cif.g09.slc.cpg/sg69_20_cif.got.tgz:38411.got - 2010.04.10 23:52:46.
