data_PCOD8284710
_publ_section_title
;
Structure prediction by ZEFSAII (Michael W. Deem and Ramdas Pophale) SiO2 
 PCOD8284710
Probable space group: F M M M
;
_chemical_formula_sum "Si O2"
_cell_formula_units_Z 160
_cell_length_a 9.285296
_cell_length_b 30.491467
_cell_length_c 29.740953
_cell_angle_alpha 90.000000
_cell_angle_beta 90.000000
_cell_angle_gamma 90.000000
_cell_volume 8420.326916
_symmetry_space_group_name_H-M "F M M M"
_symmetry_group_IT_number 69
_symmetry_cell_setting 'orthorhombic'
loop_
_space_group_symop_operation_xyz
x,y,z
-x,-y,z
x,-y,-z
-x,y,-z
-x,-y,-z
x,y,-z
-x,y,z
x,-y,z
x,1/2+y,1/2+z
-x,1/2-y,1/2+z
x,1/2-y,1/2-z
-x,1/2+y,1/2-z
-x,1/2-y,1/2-z
x,1/2+y,1/2-z
-x,1/2+y,1/2+z
x,1/2-y,1/2+z
1/2+x,y,1/2+z
1/2-x,-y,1/2+z
1/2+x,-y,1/2-z
1/2-x,y,1/2-z
1/2-x,-y,1/2-z
1/2+x,y,1/2-z
1/2-x,y,1/2+z
1/2+x,-y,1/2+z
1/2+x,1/2+y,z
1/2-x,1/2-y,z
1/2+x,1/2-y,-z
1/2-x,1/2+y,-z
1/2-x,1/2-y,-z
1/2+x,1/2+y,-z
1/2-x,1/2+y,z
1/2+x,1/2-y,z
loop_
_atom_site_type_symbol
_atom_site_label
_atom_site_fract_x
_atom_site_fract_y
_atom_site_fract_z
Si Si1 0.328540 0.707451 0.672696
Si Si2 0.339013 0.792764 0.500000
Si Si3 0.336742 0.111794 0.792262
Si Si4 0.166697 0.417011 0.111013
Si Si5 0.830618 0.000000 0.551659
Si Si6 0.167366 0.831046 0.094062
O O1 0.500000 0.714817 0.670811
O O2 0.250000 0.750000 0.695469
O O3 0.286775 0.661966 0.697346
O O4 0.262599 0.703058 0.622757
O O5 0.500000 0.775716 0.500000
O O6 0.250000 0.750000 0.500000
O O7 0.303915 0.821996 0.457506
O O8 0.500000 0.113391 0.776652
O O9 0.250000 0.092846 0.750000
O O10 0.317683 0.078610 0.834628
O O11 0.217526 0.458708 0.081941
O O12 0.278006 0.380074 0.098122
O O13 0.000000 0.404522 0.100204
O O14 0.765752 0.000000 0.500000
O O15 0.000000 0.000000 0.546722
O O16 0.000000 0.827287 0.108365
#
# Coordination Sequence:
#
# PCOD8284710 Si02
#       6
#    32  16  32  32  16  32
#     4  10  20  34  51  75 105 139 181 228 273 316
#     4  10  22  34  46  69 100 135 179 222 261 308
#     4   9  19  34  52  75 106 142 180 223 269 319
#     4   9  19  36  56  82 110 137 175 223 269 317
#     4   9  18  34  60  89 113 139 177 219 266 325
#     4  10  20  34  51  72 103 142 180 220 269 323
#
# _framework density 19.001638
#
# number of rings (size 3 to 8) (size 9 to 14) (size 15 to 20)
#    0.000    2.500    0.000    3.000    1.400    7.600 
#    0.000    3.000    0.000    0.600    0.000    0.000 
#    0.000    0.000    0.000    0.000    0.000    0.000 
#
# Total GULP energy -495652.976117 kJ/mol
# GULP energy per Si atom -12391.324403 kJ/mol
# Density = 1.895839 g / cm^3
# Si number density = 19.001638 Si / 1000 Ang^3
#
#
#
# Elastic Constant Matrix: (Units=GPa)
#
#
# Indices 1 2 3 4 5 6 
#
# 1 59.2643 17.6242 41.1447 0.0000 0.0000 0.0000
# 2 17.6242 72.3682 32.3324 0.0000 0.0000 0.0000
# 3 41.1447 32.3324 119.1810 0.0000 0.0000 0.0000
# 4 0.0000 0.0000 0.0000 27.1353 0.0000 0.0000
# 5 0.0000 0.0000 0.0000 0.0000 31.1030 0.0000
# 6 0.0000 0.0000 0.0000 0.0000 0.0000 21.8188
#
#
#
# Elastic Compliance Matrix: (Units=1/GPa)
#
#
# Indices 1 2 3 4 5 6 
#
# 1 0.022521 -0.002288 -0.007154 0.000000 0.000000 0.000000
# 2 -0.002288 0.015957 -0.003539 0.000000 0.000000 0.000000
# 3 -0.007154 -0.003539 0.011820 0.000000 0.000000 0.000000
# 4 0.000000 0.000000 0.000000 0.036852 0.000000 0.000000
# 5 0.000000 0.000000 0.000000 0.000000 0.032151 0.000000
# 6 0.000000 0.000000 0.000000 0.000000 0.000000 0.045832
#
#
# Mechanical properties :
#
#
# Convention : Reuss Voigt Hill
#
# Bulk Modulus (GPa) = 41.09243 48.11291 44.60267
# Shear Modulus (GPa) = 25.09943 26.65890 25.87916
#
# Velocity S-wave (km/s) = 3.63837 3.74970 3.69446
# Velocity P-wave (km/s) = 6.27081 6.64247 6.45931
#
# Compressibility (1/GPa) = 0.02433538
#
# Stress axis : x y z
#
# Youngs Moduli (GPa) = 44.40341 62.67009 84.59949
#
# Poissons Ratio (x) = 0.14341 0.60523
# Poissons Ratio (y) = 0.10161 0.29938
# Poissons Ratio (z) = 0.31766 0.22178
#
# Static dielectric constant tensor:
#      x y z
#    x 3.411590 0.000000 0.000000 
#    y 0.000000 3.340140 0.000000 
#    z 0.000000 0.000000 3.830010 
# 
# 
# High freq. dielectric constant tensor:
#      x y z
#    x 1.732140 0.000000 0.000000 
#    y 0.000000 1.720860 0.000000 
#    z 0.000000 0.000000 1.743920 
# 
# From -- ./inp_files/5724.got.cif
#   From: 2010.03.12/outbox.cif.g09.slc.cpg/sg69_3_cif.got.tgz:5724.got - 2010.04.10 23:52:46.
