data_PCOD8284165
_publ_section_title
;
Structure prediction by ZEFSAII (Michael W. Deem and Ramdas Pophale) SiO2 
 PCOD8284165
Probable space group: F M M M
;
_chemical_formula_sum "Si O2"
_cell_formula_units_Z 192
_cell_length_a 14.350672
_cell_length_b 21.807396
_cell_length_c 31.845454
_cell_angle_alpha 90.000000
_cell_angle_beta 90.000000
_cell_angle_gamma 90.000000
_cell_volume 9966.059897
_symmetry_space_group_name_H-M "F M M M"
_symmetry_group_IT_number 69
_symmetry_cell_setting 'orthorhombic'
loop_
_space_group_symop_operation_xyz
x,y,z
-x,-y,z
x,-y,-z
-x,y,-z
-x,-y,-z
x,y,-z
-x,y,z
x,-y,z
x,1/2+y,1/2+z
-x,1/2-y,1/2+z
x,1/2-y,1/2-z
-x,1/2+y,1/2-z
-x,1/2-y,1/2-z
x,1/2+y,1/2-z
-x,1/2+y,1/2+z
x,1/2-y,1/2+z
1/2+x,y,1/2+z
1/2-x,-y,1/2+z
1/2+x,-y,1/2-z
1/2-x,y,1/2-z
1/2-x,-y,1/2-z
1/2+x,y,1/2-z
1/2-x,y,1/2+z
1/2+x,-y,1/2+z
1/2+x,1/2+y,z
1/2-x,1/2-y,z
1/2+x,1/2-y,-z
1/2-x,1/2+y,-z
1/2-x,1/2-y,-z
1/2+x,1/2+y,-z
1/2-x,1/2+y,z
1/2+x,1/2-y,z
loop_
_atom_site_type_symbol
_atom_site_label
_atom_site_fract_x
_atom_site_fract_y
_atom_site_fract_z
Si Si1 0.390141 0.245242 0.167390
Si Si2 0.104515 0.569115 0.921377
Si Si3 0.221944 0.930232 0.868767
Si Si4 0.101920 0.636663 0.000000
Si Si5 0.262372 0.342713 0.201509
Si Si6 0.893709 0.673649 0.410717
Si Si7 0.145123 0.229028 0.000000
O O1 0.500000 0.233133 0.175223
O O2 0.351870 0.298109 0.198319
O O3 0.329318 0.185091 0.178168
O O4 0.369572 0.268077 0.119482
O O5 0.102965 0.500000 0.938835
O O6 0.169185 0.573908 0.880783
O O7 0.150513 0.612517 0.957483
O O8 0.000000 0.591085 0.908596
O O9 0.213343 0.906720 0.821058
O O10 0.164305 0.886840 0.899898
O O11 0.184675 0.000000 0.871788
O O12 0.085698 0.709185 0.000000
O O13 0.000000 0.604950 0.000000
O O14 0.250000 0.357101 0.250000
O O15 0.876879 0.689640 0.459073
O O16 0.000000 0.655522 0.403190
O O17 0.250000 0.250000 0.000000
#
# Coordination Sequence:
#
# PCOD8284165 Si02
#       7
#    32  32  32  16  32  32  16
#     4   9  19  35  59  84 115 152 183 220 279 350
#     4   9  18  33  52  77 111 149 190 232 275 334
#     4  10  22  39  58  78 106 148 197 241 287 339
#     4  10  19  30  50  77 107 143 180 219 275 323
#     4  10  21  35  56  85 114 141 184 238 287 348
#     4  10  22  39  57  83 116 152 192 232 276 330
#     4  12  24  33  54  85 120 149 180 235 281 330
#
# _framework density 19.265387
#
# number of rings (size 3 to 8) (size 9 to 14) (size 15 to 20)
#    0.000    2.167    0.000    3.000    7.000    3.667 
#    0.000    1.250    0.000    1.000    0.000    4.667 
#    0.000    0.000    0.000    0.000    0.000    0.000 
#
# Total GULP energy -594964.044345 kJ/mol
# GULP energy per Si atom -12395.084257 kJ/mol
# Density = 1.922154 g / cm^3
# Si number density = 19.265387 Si / 1000 Ang^3
#
#
#
# Elastic Constant Matrix: (Units=GPa)
#
#
# Indices 1 2 3 4 5 6 
#
# 1 91.9652 26.8347 17.3140 0.0000 0.0000 0.0000
# 2 26.8347 109.9340 51.3057 0.0000 0.0000 0.0000
# 3 17.3140 51.3057 125.6307 0.0000 0.0000 0.0000
# 4 0.0000 0.0000 0.0000 20.8132 0.0000 0.0000
# 5 0.0000 0.0000 0.0000 0.0000 20.0881 0.0000
# 6 0.0000 0.0000 0.0000 0.0000 0.0000 22.8584
#
#
#
# Elastic Compliance Matrix: (Units=1/GPa)
#
#
# Indices 1 2 3 4 5 6 
#
# 1 0.011739 -0.002607 -0.000553 0.000000 0.000000 0.000000
# 2 -0.002607 0.011817 -0.004467 0.000000 0.000000 0.000000
# 3 -0.000553 -0.004467 0.009860 0.000000 0.000000 0.000000
# 4 0.000000 0.000000 0.000000 0.048046 0.000000 0.000000
# 5 0.000000 0.000000 0.000000 0.000000 0.049781 0.000000
# 6 0.000000 0.000000 0.000000 0.000000 0.000000 0.043748
#
#
# Mechanical properties :
#
#
# Convention : Reuss Voigt Hill
#
# Bulk Modulus (GPa) = 55.05954 57.60431 56.33193
# Shear Modulus (GPa) = 25.47137 28.22365 26.84751
#
# Velocity S-wave (km/s) = 3.64006 3.83167 3.73709
# Velocity P-wave (km/s) = 6.80502 7.03853 6.92276
#
# Compressibility (1/GPa) = 0.01816216
#
# Stress axis : x y z
#
# Youngs Moduli (GPa) = 85.18922 84.62101 101.41798
#
# Poissons Ratio (x) = 0.22063 0.05608
# Poissons Ratio (y) = 0.22211 0.45301
# Poissons Ratio (z) = 0.04711 0.37798
#
# Static dielectric constant tensor:
#      x y z
#    x 3.607500 0.000000 0.000000 
#    y 0.000000 3.370590 0.000000 
#    z 0.000000 0.000000 3.452190 
# 
# 
# High freq. dielectric constant tensor:
#      x y z
#    x 1.750480 0.000000 0.000000 
#    y 0.000000 1.738260 0.000000 
#    z 0.000000 0.000000 1.743660 
# 
# From -- ./inp_files/41138.got.cif
#   From: 2010.03.12/outbox.cif.g09.slc.cpg/sg69_21_cif.got.tgz:41138.got - 2010.04.10 23:52:46.
