data_PCOD8284632
_publ_section_title
;
Structure prediction by ZEFSAII (Michael W. Deem and Ramdas Pophale) SiO2 
 PCOD8284632
Probable space group: F M M M
;
_chemical_formula_sum "Si O2"
_cell_formula_units_Z 192
_cell_length_a 31.265450
_cell_length_b 18.504945
_cell_length_c 16.154890
_cell_angle_alpha 90.000000
_cell_angle_beta 90.000000
_cell_angle_gamma 90.000000
_cell_volume 9346.660922
_symmetry_space_group_name_H-M "F M M M"
_symmetry_group_IT_number 69
_symmetry_cell_setting 'orthorhombic'
loop_
_space_group_symop_operation_xyz
x,y,z
-x,-y,z
x,-y,-z
-x,y,-z
-x,-y,-z
x,y,-z
-x,y,z
x,-y,z
x,1/2+y,1/2+z
-x,1/2-y,1/2+z
x,1/2-y,1/2-z
-x,1/2+y,1/2-z
-x,1/2-y,1/2-z
x,1/2+y,1/2-z
-x,1/2+y,1/2+z
x,1/2-y,1/2+z
1/2+x,y,1/2+z
1/2-x,-y,1/2+z
1/2+x,-y,1/2-z
1/2-x,y,1/2-z
1/2-x,-y,1/2-z
1/2+x,y,1/2-z
1/2-x,y,1/2+z
1/2+x,-y,1/2+z
1/2+x,1/2+y,z
1/2-x,1/2-y,z
1/2+x,1/2-y,-z
1/2-x,1/2+y,-z
1/2-x,1/2-y,-z
1/2+x,1/2+y,-z
1/2-x,1/2+y,z
1/2+x,1/2-y,z
loop_
_atom_site_type_symbol
_atom_site_label
_atom_site_fract_x
_atom_site_fract_y
_atom_site_fract_z
Si Si1 0.000000 0.153087 0.408338
Si Si2 0.751422 0.331467 0.348973
Si Si3 0.408682 0.838106 0.097559
Si Si4 0.328372 0.579976 0.658597
Si Si5 0.332582 0.918765 0.647127
Si Si6 0.914363 0.172206 0.902887
Si Si7 0.000000 0.297061 0.334917
O O1 0.045278 0.132916 0.364956
O O2 0.000000 0.240830 0.412059
O O3 0.000000 0.120794 0.500000
O O4 0.750000 0.331003 0.250000
O O5 0.750000 0.250000 0.383647
O O6 0.709492 0.373114 0.381906
O O7 0.793206 0.370772 0.387384
O O8 0.373688 0.885801 0.140245
O O9 0.400198 0.754221 0.118222
O O10 0.408761 0.850438 0.000000
O O11 0.325854 0.500000 0.619891
O O12 0.324297 0.575932 0.756198
O O13 0.377330 0.881638 0.625794
O O14 0.331905 0.000000 0.609121
O O15 0.957068 0.154813 0.848074
O O16 0.923265 0.161034 0.000000
O O17 0.000000 0.250000 0.250000
#
# Coordination Sequence:
#
# PCOD8284632 Si02
#       7
#    16  32  32  32  32  32  16
#     4   8  16  32  51  74 110 144 174 221 278 331
#     4   9  17  32  54  81 108 144 189 242 295 345
#     4   9  18  33  54  78 106 142 182 228 288 349
#     4  10  20  33  52  79 114 147 184 237 290 341
#     4  10  21  35  54  80 113 153 196 236 283 345
#     4  10  21  37  57  82 115 150 188 237 287 338
#     4  10  20  32  57  90 110 141 184 239 283 335
#
# _framework density 20.542095
#
# number of rings (size 3 to 8) (size 9 to 14) (size 15 to 20)
#    0.000    2.500    0.000    3.250    4.667    4.000 
#    0.000    1.667    0.000    9.500    0.000    0.000 
#    0.000    0.000    0.000    0.000    0.000    0.000 
#
# Total GULP energy -594747.764078 kJ/mol
# GULP energy per Si atom -12390.578418 kJ/mol
# Density = 2.049534 g / cm^3
# Si number density = 20.542095 Si / 1000 Ang^3
#
#
#
# Elastic Constant Matrix: (Units=GPa)
#
#
# Indices 1 2 3 4 5 6 
#
# 1 197.5145 89.3168 13.4153 0.0000 0.0000 0.0000
# 2 89.3168 143.8318 16.1395 0.0000 0.0000 0.0000
# 3 13.4153 16.1395 25.7109 0.0000 0.0000 0.0000
# 4 0.0000 0.0000 0.0000 12.6678 0.0000 0.0000
# 5 0.0000 0.0000 0.0000 0.0000 58.2139 0.0000
# 6 0.0000 0.0000 0.0000 0.0000 0.0000 -1.7785
#
#
#
# Elastic Compliance Matrix: (Units=1/GPa)
#
#
# Indices 1 2 3 4 5 6 
#
# 1 0.007064 -0.004274 -0.001003 0.000000 0.000000 0.000000
# 2 -0.004274 0.010065 -0.004088 0.000000 0.000000 0.000000
# 3 -0.001003 -0.004088 0.041984 0.000000 0.000000 0.000000
# 4 0.000000 0.000000 0.000000 0.078941 0.000000 0.000000
# 5 0.000000 0.000000 0.000000 0.000000 0.017178 0.000000
# 6 0.000000 0.000000 0.000000 0.000000 0.000000 -0.562265
#
#
# Mechanical properties :
#
#
# Convention : Reuss Voigt Hill
#
# Bulk Modulus (GPa) = 24.76315 67.20006 45.98161
# Shear Modulus (GPa) = -13.33891 30.36633 8.51371
#
# Velocity S-wave (km/s) = -2.55099 3.84897 2.03802
# Velocity P-wave (km/s) = 1.84507 7.24825 5.28873
#
# Compressibility (1/GPa) = 0.04038258
#
# Stress axis : x y z
#
# Youngs Moduli (GPa) = 141.56871 99.35098 23.81886
#
# Poissons Ratio (x) = 0.42462 0.02389
# Poissons Ratio (y) = 0.60505 0.09738
# Poissons Ratio (z) = 0.14197 0.40617
#
# Static dielectric constant tensor:
#      x y z
#    x 4.494760 0.000000 0.000000 
#    y 0.000000 3.742520 0.000000 
#    z 0.000000 0.000000 3.391570 
# 
# 
# High freq. dielectric constant tensor:
#      x y z
#    x 1.826640 0.000000 0.000000 
#    y 0.000000 1.779870 0.000000 
#    z 0.000000 0.000000 1.772620 
# 
# From -- ./inp_files/27811.got.cif
#   From: 2010.03.12/outbox.cif.g09.slc.cpg/sg69_14_cif.got.tgz:27811.got - 2010.04.10 23:52:46.
