data_PCOD8284691
_publ_section_title
;
Structure prediction by ZEFSAII (Michael W. Deem and Ramdas Pophale) SiO2 
 PCOD8284691
Probable space group: F M M M
;
_chemical_formula_sum "Si O2"
_cell_formula_units_Z 208
_cell_length_a 18.848807
_cell_length_b 20.469023
_cell_length_c 29.373714
_cell_angle_alpha 90.000000
_cell_angle_beta 90.000000
_cell_angle_gamma 90.000000
_cell_volume 11332.868345
_symmetry_space_group_name_H-M "F M M M"
_symmetry_group_IT_number 69
_symmetry_cell_setting 'orthorhombic'
loop_
_space_group_symop_operation_xyz
x,y,z
-x,-y,z
x,-y,-z
-x,y,-z
-x,-y,-z
x,y,-z
-x,y,z
x,-y,z
x,1/2+y,1/2+z
-x,1/2-y,1/2+z
x,1/2-y,1/2-z
-x,1/2+y,1/2-z
-x,1/2-y,1/2-z
x,1/2+y,1/2-z
-x,1/2+y,1/2+z
x,1/2-y,1/2+z
1/2+x,y,1/2+z
1/2-x,-y,1/2+z
1/2+x,-y,1/2-z
1/2-x,y,1/2-z
1/2-x,-y,1/2-z
1/2+x,y,1/2-z
1/2-x,y,1/2+z
1/2+x,-y,1/2+z
1/2+x,1/2+y,z
1/2-x,1/2-y,z
1/2+x,1/2-y,-z
1/2-x,1/2+y,-z
1/2-x,1/2-y,-z
1/2+x,1/2+y,-z
1/2-x,1/2+y,z
1/2+x,1/2-y,z
loop_
_atom_site_type_symbol
_atom_site_label
_atom_site_fract_x
_atom_site_fract_y
_atom_site_fract_z
Si Si1 0.415608 0.427088 0.218725
Si Si2 0.084436 0.310465 0.220638
Si Si3 0.341332 0.128686 0.946549
Si Si4 0.918132 0.625503 0.622079
Si Si5 0.582104 0.220675 0.879793
Si Si6 0.920217 0.000000 0.554098
Si Si7 0.808658 0.574766 0.448432
O O1 0.500000 0.427100 0.218986
O O2 0.385819 0.500000 0.227843
O O3 0.387303 0.378426 0.257963
O O4 0.388906 0.401138 0.170044
O O5 0.115406 0.250000 0.250000
O O6 0.109967 0.306797 0.168534
O O7 0.000000 0.306465 0.222306
O O8 0.370302 0.191320 0.919931
O O9 0.381714 0.064741 0.927698
O O10 0.257995 0.120782 0.936394
O O11 0.355845 0.139358 0.000000
O O12 0.906836 0.702364 0.619931
O O13 0.875370 0.590420 0.582527
O O14 0.000000 0.606429 0.615395
O O15 0.500000 0.202246 0.888076
O O16 0.917872 0.000000 0.500000
O O17 0.000000 0.000000 0.573158
O O18 0.833084 0.587542 0.500000
O O19 0.784119 0.500000 0.442111
#
# Coordination Sequence:
#
# PCOD8284691 Si02
#       7
#    32  32  32  32  32  16  32
#     4   9  16  28  49  77 107 139 179 223 268 325
#     4   9  15  29  51  75 109 146 175 218 277 328
#     4  10  20  36  55  76 106 145 185 223 272 334
#     4  10  20  34  54  81 110 142 182 227 276 326
#     4  10  20  33  53  83 114 144 181 226 275 326
#     4   9  16  30  54  78 101 136 179 223 270 319
#     4  10  21  38  57  76 105 145 186 228 275 330
#
# _framework density 18.353694000000001
#
# number of rings (size 3 to 8) (size 9 to 14) (size 15 to 20)
#    0.000    2.385    2.308    0.923    0.000    3.385 
#    1.385    3.846    0.000    0.923    0.000    2.154 
#    0.000    0.000    0.000    0.000    0.000    0.000 
#
# Total GULP energy -644802.852802 kJ/mol
# GULP energy per Si atom -12400.054862 kJ/mol
# Density = 1.831192 g / cm^3
# Si number density = 18.353694 Si / 1000 Ang^3
#
#
#
# Elastic Constant Matrix: (Units=GPa)
#
#
# Indices 1 2 3 4 5 6 
#
# 1 43.8918 18.5358 32.4855 0.0000 0.0000 0.0000
# 2 18.5358 94.3659 41.5800 0.0000 0.0000 0.0000
# 3 32.4855 41.5800 95.1919 0.0000 0.0000 0.0000
# 4 0.0000 0.0000 0.0000 37.1824 0.0000 0.0000
# 5 0.0000 0.0000 0.0000 0.0000 11.8280 0.0000
# 6 0.0000 0.0000 0.0000 0.0000 0.0000 23.4345
#
#
#
# Elastic Compliance Matrix: (Units=1/GPa)
#
#
# Indices 1 2 3 4 5 6 
#
# 1 0.030715 -0.001752 -0.009717 0.000000 0.000000 0.000000
# 2 -0.001752 0.013223 -0.005178 0.000000 0.000000 0.000000
# 3 -0.009717 -0.005178 0.016083 0.000000 0.000000 0.000000
# 4 0.000000 0.000000 0.000000 0.026894 0.000000 0.000000
# 5 0.000000 0.000000 0.000000 0.000000 0.084545 0.000000
# 6 0.000000 0.000000 0.000000 0.000000 0.000000 0.042672
#
#
# Mechanical properties :
#
#
# Convention : Reuss Voigt Hill
#
# Bulk Modulus (GPa) = 37.41457 46.51691 41.96574
# Shear Modulus (GPa) = 19.50588 23.87888 21.69238
#
# Velocity S-wave (km/s) = 3.26356 3.61091 3.44162
# Velocity P-wave (km/s) = 5.88478 6.54099 6.22155
#
# Compressibility (1/GPa) = 0.02672756
#
# Stress axis : x y z
#
# Youngs Moduli (GPa) = 32.55778 75.62792 62.17852
#
# Poissons Ratio (x) = 0.13248 0.60417
# Poissons Ratio (y) = 0.05703 0.32195
# Poissons Ratio (z) = 0.31635 0.39159
#
# Static dielectric constant tensor:
#      x y z
#    x 3.038340 0.000000 0.000000 
#    y 0.000000 3.515490 0.000000 
#    z 0.000000 0.000000 3.367490 
# 
# 
# High freq. dielectric constant tensor:
#      x y z
#    x 1.672480 0.000000 0.000000 
#    y 0.000000 1.721670 0.000000 
#    z 0.000000 0.000000 1.707310 
# 
# From -- ./inp_files/46505.got.cif
#   From: 2010.03.12/outbox.cif.g09.slc.cpg/sg69_24_cif.got.tgz:46505.got - 2010.04.10 23:52:46.
