data_PCOD8284190
_publ_section_title
;
Structure prediction by ZEFSAII (Michael W. Deem and Ramdas Pophale) SiO2 
 PCOD8284190
Probable space group: F M M M
;
_chemical_formula_sum "Si O2"
_cell_formula_units_Z 192
_cell_length_a 18.850719
_cell_length_b 26.483655
_cell_length_c 20.666928
_cell_angle_alpha 90.000000
_cell_angle_beta 90.000000
_cell_angle_gamma 90.000000
_cell_volume 10317.673196
_symmetry_space_group_name_H-M "F M M M"
_symmetry_group_IT_number 69
_symmetry_cell_setting 'orthorhombic'
loop_
_space_group_symop_operation_xyz
x,y,z
-x,-y,z
x,-y,-z
-x,y,-z
-x,-y,-z
x,y,-z
-x,y,z
x,-y,z
x,1/2+y,1/2+z
-x,1/2-y,1/2+z
x,1/2-y,1/2-z
-x,1/2+y,1/2-z
-x,1/2-y,1/2-z
x,1/2+y,1/2-z
-x,1/2+y,1/2+z
x,1/2-y,1/2+z
1/2+x,y,1/2+z
1/2-x,-y,1/2+z
1/2+x,-y,1/2-z
1/2-x,y,1/2-z
1/2-x,-y,1/2-z
1/2+x,y,1/2-z
1/2-x,y,1/2+z
1/2+x,-y,1/2+z
1/2+x,1/2+y,z
1/2-x,1/2-y,z
1/2+x,1/2-y,-z
1/2-x,1/2+y,-z
1/2-x,1/2-y,-z
1/2+x,1/2+y,-z
1/2-x,1/2+y,z
1/2+x,1/2-y,z
loop_
_atom_site_type_symbol
_atom_site_label
_atom_site_fract_x
_atom_site_fract_y
_atom_site_fract_z
Si Si1 0.581653 0.057679 0.212771
Si Si2 0.649264 0.055407 0.348138
Si Si3 0.778639 0.614367 0.182439
Si Si4 0.213373 0.803786 0.575110
Si Si5 0.422861 0.249525 0.076339
Si Si6 0.420659 0.360117 0.924024
O O1 0.500000 0.074749 0.197981
O O2 0.594053 0.059598 0.289392
O O3 0.638936 0.096225 0.180651
O O4 0.593086 0.000000 0.187802
O O5 0.730126 0.064530 0.325652
O O6 0.631902 0.097239 0.400504
O O7 0.644422 0.000000 0.379727
O O8 0.750000 0.639407 0.250000
O O9 0.761272 0.653186 0.124183
O O10 0.224334 0.820990 0.500000
O O11 0.250000 0.750000 0.586649
O O12 0.130940 0.795027 0.593571
O O13 0.500000 0.236080 0.106101
O O14 0.396610 0.304638 0.101934
O O15 0.429380 0.255028 0.000000
O O16 0.500000 0.371276 0.899414
O O17 0.416915 0.361037 0.000000
#
# Coordination Sequence:
#
# PCOD8284190 Si02
#       6
#    32  32  32  32  32  32
#     4   9  18  34  55  75  96 127 167 208 251 300
#     4  10  19  31  48  70  98 132 169 205 244 297
#     4  10  21  35  52  76 104 132 165 209 255 296
#     4  10  20  34  53  75 100 133 171 206 244 297
#     4   8  15  29  48  69  94 126 164 204 246 295
#     4   9  17  29  46  70 101 134 166 204 251 298
#
# _framework density 18.608846
#
# number of rings (size 3 to 8) (size 9 to 14) (size 15 to 20)
#    0.000    2.667    0.000    3.000    0.000    6.333 
#    0.000    0.833    0.000    1.500    0.000   10.500 
#    0.000    0.000    0.000    0.000    0.000    0.000 
#
# Total GULP energy -594646.325998 kJ/mol
# GULP energy per Si atom -12388.465125 kJ/mol
# Density = 1.856649 g / cm^3
# Si number density = 18.608846 Si / 1000 Ang^3
#
#
#
# Elastic Constant Matrix: (Units=GPa)
#
#
# Indices 1 2 3 4 5 6 
#
# 1 87.7426 31.0620 27.9026 0.0000 0.0000 0.0000
# 2 31.0620 68.0485 40.1979 0.0000 0.0000 0.0000
# 3 27.9026 40.1979 51.4092 0.0000 0.0000 0.0000
# 4 0.0000 0.0000 0.0000 27.5556 0.0000 0.0000
# 5 0.0000 0.0000 0.0000 0.0000 21.1791 0.0000
# 6 0.0000 0.0000 0.0000 0.0000 0.0000 21.9722
#
#
#
# Elastic Compliance Matrix: (Units=1/GPa)
#
#
# Indices 1 2 3 4 5 6 
#
# 1 0.014232 -0.003593 -0.004915 0.000000 0.000000 0.000000
# 2 -0.003593 0.028217 -0.020113 0.000000 0.000000 0.000000
# 3 -0.004915 -0.020113 0.037846 0.000000 0.000000 0.000000
# 4 0.000000 0.000000 0.000000 0.036290 0.000000 0.000000
# 5 0.000000 0.000000 0.000000 0.000000 0.047216 0.000000
# 6 0.000000 0.000000 0.000000 0.000000 0.000000 0.045512
#
#
# Mechanical properties :
#
#
# Convention : Reuss Voigt Hill
#
# Bulk Modulus (GPa) = 43.37888 45.05835 44.21862
# Shear Modulus (GPa) = 18.23218 21.34391 19.78805
#
# Velocity S-wave (km/s) = 3.13351 3.39038 3.26447
# Velocity P-wave (km/s) = 6.03766 6.29223 6.16626
#
# Compressibility (1/GPa) = 0.02305269
#
# Stress axis : x y z
#
# Youngs Moduli (GPa) = 70.26452 35.43979 26.42265
#
# Poissons Ratio (x) = 0.12734 0.12987
# Poissons Ratio (y) = 0.25246 0.53144
# Poissons Ratio (z) = 0.34535 0.71281
#
# Static dielectric constant tensor:
#      x y z
#    x 4.098070 0.000000 0.000000 
#    y 0.000000 3.432520 0.000000 
#    z 0.000000 0.000000 3.035250 
# 
# 
# High freq. dielectric constant tensor:
#      x y z
#    x 1.743200 0.000000 0.000000 
#    y 0.000000 1.711260 0.000000 
#    z 0.000000 0.000000 1.678880 
# 
# From -- ./inp_files/32042.got.cif
#   From: 2010.03.12/outbox.cif.g09.slc.cpg/sg69_17_cif.got.tgz:32042.got - 2010.04.10 23:52:46.
