data_PCOD8284275
_publ_section_title
;
Structure prediction by ZEFSAII (Michael W. Deem and Ramdas Pophale) SiO2 
 PCOD8284275
Probable space group: F M M M
;
_chemical_formula_sum "Si O2"
_cell_formula_units_Z 160
_cell_length_a 11.437556
_cell_length_b 22.542077
_cell_length_c 34.589439
_cell_angle_alpha 90.000000
_cell_angle_beta 90.000000
_cell_angle_gamma 90.000000
_cell_volume 8918.065971
_symmetry_space_group_name_H-M "F M M M"
_symmetry_group_IT_number 69
_symmetry_cell_setting 'orthorhombic'
loop_
_space_group_symop_operation_xyz
x,y,z
-x,-y,z
x,-y,-z
-x,y,-z
-x,-y,-z
x,y,-z
-x,y,z
x,-y,z
x,1/2+y,1/2+z
-x,1/2-y,1/2+z
x,1/2-y,1/2-z
-x,1/2+y,1/2-z
-x,1/2-y,1/2-z
x,1/2+y,1/2-z
-x,1/2+y,1/2+z
x,1/2-y,1/2+z
1/2+x,y,1/2+z
1/2-x,-y,1/2+z
1/2+x,-y,1/2-z
1/2-x,y,1/2-z
1/2-x,-y,1/2-z
1/2+x,y,1/2-z
1/2-x,y,1/2+z
1/2+x,-y,1/2+z
1/2+x,1/2+y,z
1/2-x,1/2-y,z
1/2+x,1/2-y,-z
1/2-x,1/2+y,-z
1/2-x,1/2-y,-z
1/2+x,1/2+y,-z
1/2-x,1/2+y,z
1/2+x,1/2-y,z
loop_
_atom_site_type_symbol
_atom_site_label
_atom_site_fract_x
_atom_site_fract_y
_atom_site_fract_z
Si Si1 0.636079 0.356696 0.543384
Si Si2 0.750000 0.750000 0.087998
Si Si3 0.219499 0.569013 0.593968
Si Si4 0.131726 0.334854 0.644091
Si Si5 0.500000 0.570010 0.956919
Si Si6 0.131961 0.684550 0.732721
O O1 0.682802 0.367699 0.500000
O O2 0.500000 0.346822 0.543415
O O3 0.692805 0.298096 0.560527
O O4 0.664968 0.414222 0.569784
O O5 0.846475 0.779847 0.115574
O O6 0.217940 0.500000 0.605002
O O7 0.212465 0.608076 0.633175
O O8 0.113578 0.590417 0.566482
O O9 0.156593 0.313219 0.687253
O O10 0.000000 0.356797 0.639571
O O11 0.500000 0.500000 0.960783
O O12 0.500000 0.598655 0.000000
O O13 0.129003 0.750000 0.750000
O O14 0.250000 0.651677 0.750000
O O15 0.000000 0.656076 0.740954
#
# Coordination Sequence:
#
# PCOD8284275 Si02
#       6
#    32  16  32  32  16  32
#     4  10  21  35  50  71 102 141 182 223 271 327
#     4  10  19  32  51  74 102 136 176 218 269 316
#     4  10  20  34  52  75 101 132 176 224 270 317
#     4  10  19  32  52  77 105 135 169 215 265 320
#     4   9  16  28  48  72  97 124 164 218 264 303
#     4   9  17  30  49  75 104 133 167 207 258 317
#
# _framework density 17.941110999999999
#
# number of rings (size 3 to 8) (size 9 to 14) (size 15 to 20)
#    0.000    2.300    1.000    2.700    0.000    1.600 
#    0.000    5.000    0.000    0.600    0.000    0.000 
#    0.000    0.000    0.000    0.000    0.000    0.000 
#
# Total GULP energy -495630.186058 kJ/mol
# GULP energy per Si atom -12390.754651 kJ/mol
# Density = 1.790028 g / cm^3
# Si number density = 17.941111 Si / 1000 Ang^3
#
#
#
# Elastic Constant Matrix: (Units=GPa)
#
#
# Indices 1 2 3 4 5 6 
#
# 1 88.5325 11.5804 38.8852 0.0000 0.0000 0.0000
# 2 11.5804 75.6110 37.5237 0.0000 0.0000 0.0000
# 3 38.8852 37.5237 117.0427 0.0000 0.0000 0.0000
# 4 0.0000 0.0000 0.0000 19.3396 0.0000 0.0000
# 5 0.0000 0.0000 0.0000 0.0000 27.6649 0.0000
# 6 0.0000 0.0000 0.0000 0.0000 0.0000 16.6608
#
#
#
# Elastic Compliance Matrix: (Units=1/GPa)
#
#
# Indices 1 2 3 4 5 6 
#
# 1 0.013227 0.000184 -0.004454 0.000000 0.000000 0.000000
# 2 0.000184 0.015731 -0.005104 0.000000 0.000000 0.000000
# 3 -0.004454 -0.005104 0.011660 0.000000 0.000000 0.000000
# 4 0.000000 0.000000 0.000000 0.051707 0.000000 0.000000
# 5 0.000000 0.000000 0.000000 0.000000 0.036147 0.000000
# 6 0.000000 0.000000 0.000000 0.000000 0.000000 0.060021
#
#
# Mechanical properties :
#
#
# Convention : Reuss Voigt Hill
#
# Bulk Modulus (GPa) = 45.72385 50.79608 48.25997
# Shear Modulus (GPa) = 23.30668 25.61286 24.45977
#
# Velocity S-wave (km/s) = 3.60817 3.78247 3.69634
# Velocity P-wave (km/s) = 6.54976 6.88841 6.72122
#
# Compressibility (1/GPa) = 0.02187043
#
# Stress axis : x y z
#
# Youngs Moduli (GPa) = 75.60127 63.57064 85.76337
#
# Poissons Ratio (x) = -0.01172 0.38196
# Poissons Ratio (y) = -0.01394 0.43777
# Poissons Ratio (z) = 0.33670 0.32449
#
# Static dielectric constant tensor:
#      x y z
#    x 3.784670 0.000000 0.000000 
#    y 0.000000 3.000900 0.000000 
#    z 0.000000 0.000000 3.481700 
# 
# 
# High freq. dielectric constant tensor:
#      x y z
#    x 1.702320 0.000000 0.000000 
#    y 0.000000 1.661310 0.000000 
#    z 0.000000 0.000000 1.697890 
# 
# From -- ./inp_files/45084.got.cif
#   From: 2010.03.12/outbox.cif.g09.slc.cpg/sg69_23_cif.got.tgz:45084.got - 2010.04.10 23:52:46.
