data_PCOD8284974
_publ_section_title
;
Structure prediction by ZEFSAII (Michael W. Deem and Ramdas Pophale) SiO2 
 PCOD8284974
Probable space group: F M M M
;
_chemical_formula_sum "Si O2"
_cell_formula_units_Z 160
_cell_length_a 31.875197
_cell_length_b 8.828707
_cell_length_c 29.171412
_cell_angle_alpha 90.000000
_cell_angle_beta 90.000000
_cell_angle_gamma 90.000000
_cell_volume 8209.324684
_symmetry_space_group_name_H-M "F M M M"
_symmetry_group_IT_number 69
_symmetry_cell_setting 'orthorhombic'
loop_
_space_group_symop_operation_xyz
x,y,z
-x,-y,z
x,-y,-z
-x,y,-z
-x,-y,-z
x,y,-z
-x,y,z
x,-y,z
x,1/2+y,1/2+z
-x,1/2-y,1/2+z
x,1/2-y,1/2-z
-x,1/2+y,1/2-z
-x,1/2-y,1/2-z
x,1/2+y,1/2-z
-x,1/2+y,1/2+z
x,1/2-y,1/2+z
1/2+x,y,1/2+z
1/2-x,-y,1/2+z
1/2+x,-y,1/2-z
1/2-x,y,1/2-z
1/2-x,-y,1/2-z
1/2+x,y,1/2-z
1/2-x,y,1/2+z
1/2+x,-y,1/2+z
1/2+x,1/2+y,z
1/2-x,1/2-y,z
1/2+x,1/2-y,-z
1/2-x,1/2+y,-z
1/2-x,1/2-y,-z
1/2+x,1/2+y,-z
1/2-x,1/2+y,z
1/2+x,1/2-y,z
loop_
_atom_site_type_symbol
_atom_site_label
_atom_site_fract_x
_atom_site_fract_y
_atom_site_fract_z
Si Si1 0.000000 0.819945 0.079341
Si Si2 0.795601 0.318478 0.701839
Si Si3 0.918955 0.832264 0.290227
Si Si4 0.500000 0.677008 0.181300
Si Si5 0.908365 0.324847 0.447735
Si Si6 0.643324 0.671183 0.630080
O O1 0.000000 0.753810 0.130382
O O2 0.043733 0.760326 0.056750
O O3 0.000000 0.000000 0.075338
O O4 0.794287 0.500000 0.705645
O O5 0.813218 0.250000 0.750000
O O6 0.750000 0.250000 0.693098
O O7 0.822424 0.270718 0.657155
O O8 0.891342 0.750000 0.250000
O O9 0.897556 0.832710 0.338907
O O10 0.960019 0.731319 0.291609
O O11 0.930287 0.000000 0.274299
O O12 0.500000 0.500000 0.176822
O O13 0.893955 0.303491 0.500000
O O14 0.908056 0.500000 0.432560
O O15 0.872619 0.241326 0.417700
O O16 0.660479 0.500000 0.622017
#
# Coordination Sequence:
#
# PCOD8284974 Si02
#       6
#    16  32  32  16  32  32
#     4   9  17  32  55  80 107 145 193 245 297 345
#     4  11  22  39  64  93 125 156 190 228 276 336
#     4  11  23  36  51  73 105 145 188 232 279 333
#     4  11  20  33  53  72 101 144 188 233 283 335
#     4  10  20  36  59  85 113 149 195 246 298 349
#     4  11  23  38  57  83 116 151 190 236 286 339
#
# _framework density 19.490030999999998
#
# number of rings (size 3 to 8) (size 9 to 14) (size 15 to 20)
#    0.000    1.400    2.000    5.100    0.000    5.600 
#    0.000    0.500    0.000    1.800    0.000    0.000 
#    0.000    0.000    0.000    0.000    0.000    0.000 
#
# Total GULP energy -495686.064462 kJ/mol
# GULP energy per Si atom -12392.151612 kJ/mol
# Density = 1.944567 g / cm^3
# Si number density = 19.490031 Si / 1000 Ang^3
#
#
#
# Elastic Constant Matrix: (Units=GPa)
#
#
# Indices 1 2 3 4 5 6 
#
# 1 87.3220 41.4971 37.8197 0.0000 -0.0021 0.0002
# 2 41.4971 127.6615 49.4078 0.0001 -0.0017 0.0000
# 3 37.8197 49.4078 119.4548 0.0000 0.0003 0.0000
# 4 0.0000 0.0001 0.0000 30.1666 0.0003 0.0000
# 5 -0.0021 -0.0017 0.0003 0.0003 125.6958 0.0020
# 6 0.0002 0.0000 0.0000 0.0000 0.0020 23.6927
#
#
#
# Elastic Compliance Matrix: (Units=1/GPa)
#
#
# Indices 1 2 3 4 5 6 
#
# 1 0.014469 -0.003489 -0.003138 0.000000 0.000000 0.000000
# 2 -0.003489 0.010167 -0.003101 0.000000 0.000000 0.000000
# 3 -0.003138 -0.003101 0.010647 0.000000 0.000000 0.000000
# 4 0.000000 0.000000 0.000000 0.033149 0.000000 0.000000
# 5 0.000000 0.000000 0.000000 0.000000 0.007956 -0.000001
# 6 0.000000 0.000000 0.000000 0.000000 -0.000001 0.042207
#
#
# Mechanical properties :
#
#
# Convention : Reuss Voigt Hill
#
# Bulk Modulus (GPa) = 63.17642 65.76528 64.47085
# Shear Modulus (GPa) = 34.88540 49.62529 42.25535
#
# Velocity S-wave (km/s) = 4.23532 5.05145 4.66128
# Velocity P-wave (km/s) = 7.51015 8.23645 7.88167
#
# Compressibility (1/GPa) = 0.01582869
#
# Stress axis : x y z
#
# Youngs Moduli (GPa) = 69.11414 98.35440 93.92018
#
# Poissons Ratio (x) = 0.34313 0.29471
# Poissons Ratio (y) = 0.24112 0.29122
# Poissons Ratio (z) = 0.21687 0.30497
#
# Static dielectric constant tensor:
#      x y z
#    x 4.565750 0.000010 0.000000 
#    y 0.000010 3.657600 0.000000 
#    z 0.000000 0.000000 3.667520 
# 
# 
# High freq. dielectric constant tensor:
#      x y z
#    x 1.743220 0.000000 0.000000 
#    y 0.000000 1.757250 0.000000 
#    z 0.000000 0.000000 1.760950 
# 
# From -- ./inp_files/47493.got.cif
#   From: 2010.03.12/outbox.cif.g09.slc.cpg/sg69_24_cif.got.tgz:47493.got - 2010.04.10 23:52:46.
