data_PCOD8284735
_publ_section_title
;
Structure prediction by ZEFSAII (Michael W. Deem and Ramdas Pophale) SiO2 
 PCOD8284735
Probable space group: F M M M
;
_chemical_formula_sum "Si O2"
_cell_formula_units_Z 144
_cell_length_a 27.200090
_cell_length_b 32.289685
_cell_length_c 8.620489
_cell_angle_alpha 90.000000
_cell_angle_beta 90.000000
_cell_angle_gamma 90.000000
_cell_volume 7571.223234
_symmetry_space_group_name_H-M "F M M M"
_symmetry_group_IT_number 69
_symmetry_cell_setting 'orthorhombic'
loop_
_space_group_symop_operation_xyz
x,y,z
-x,-y,z
x,-y,-z
-x,y,-z
-x,-y,-z
x,y,-z
-x,y,z
x,-y,z
x,1/2+y,1/2+z
-x,1/2-y,1/2+z
x,1/2-y,1/2-z
-x,1/2+y,1/2-z
-x,1/2-y,1/2-z
x,1/2+y,1/2-z
-x,1/2+y,1/2+z
x,1/2-y,1/2+z
1/2+x,y,1/2+z
1/2-x,-y,1/2+z
1/2+x,-y,1/2-z
1/2-x,y,1/2-z
1/2-x,-y,1/2-z
1/2+x,y,1/2-z
1/2-x,y,1/2+z
1/2+x,-y,1/2+z
1/2+x,1/2+y,z
1/2-x,1/2-y,z
1/2+x,1/2-y,-z
1/2-x,1/2+y,-z
1/2-x,1/2-y,-z
1/2+x,1/2+y,-z
1/2-x,1/2+y,z
1/2+x,1/2-y,z
loop_
_atom_site_type_symbol
_atom_site_label
_atom_site_fract_x
_atom_site_fract_y
_atom_site_fract_z
Si Si1 0.848656 0.793779 0.315833
Si Si2 0.553600 0.334325 0.317081
Si Si3 0.055390 0.500000 0.184526
Si Si4 0.698386 0.125791 0.682985
Si Si5 0.106990 0.583252 0.183079
O O1 0.845837 0.793752 0.500000
O O2 0.830879 0.750000 0.250000
O O3 0.904437 0.802943 0.255891
O O4 0.812856 0.829208 0.254167
O O5 0.550028 0.330282 0.500000
O O6 0.500000 0.323991 0.242827
O O7 0.568126 0.381104 0.272450
O O8 0.084562 0.540248 0.244027
O O9 0.000000 0.500000 0.252394
O O10 0.052686 0.500000 0.000000
O O11 0.700899 0.129816 0.500000
O O12 0.750000 0.110024 0.750000
O O13 0.658176 0.091692 0.730836
O O14 0.117307 0.582776 0.000000
#
# Coordination Sequence:
#
# PCOD8284735 Si02
#       5
#    32  32  16  32  32
#     4  10  20  34  52  77 107 137 173 216 261 310
#     4   8  14  26  46  71 102 140 176 210 250 298
#     4   9  16  28  54  89 118 145 178 215 254 301
#     4  11  22  38  58  77 100 133 174 218 268 318
#     4   9  17  31  52  80 111 140 175 216 258 307
#
# _framework density 19.019385
#
# number of rings (size 3 to 8) (size 9 to 14) (size 15 to 20)
#    0.000    2.556    0.000    4.667    0.000    3.556 
#    0.000    3.333    0.000   22.667    0.000    0.000 
#    0.000    0.000    0.000    0.000    0.000    0.000 
#
# Total GULP energy -446327.417892 kJ/mol
# GULP energy per Si atom -12397.983830 kJ/mol
# Density = 1.897610 g / cm^3
# Si number density = 19.019385 Si / 1000 Ang^3
#
#
#
# Elastic Constant Matrix: (Units=GPa)
#
#
# Indices 1 2 3 4 5 6 
#
# 1 125.1725 35.7417 31.9093 0.0150 -0.0183 0.0526
# 2 35.7417 112.9169 26.0058 -0.0197 0.0165 0.0516
# 3 31.9093 26.0058 75.6406 0.0132 -0.0748 0.2668
# 4 0.0150 -0.0197 0.0132 20.5583 -0.0138 0.0846
# 5 -0.0183 0.0165 -0.0748 -0.0138 21.6971 -0.1611
# 6 0.0526 0.0516 0.2668 0.0846 -0.1611 56.4719
#
#
#
# Elastic Compliance Matrix: (Units=1/GPa)
#
#
# Indices 1 2 3 4 5 6 
#
# 1 0.009451 -0.002252 -0.003213 -0.000007 -0.000001 0.000008
# 2 -0.002252 0.010154 -0.002541 0.000013 -0.000018 0.000005
# 3 -0.003213 -0.002541 0.015450 -0.000010 0.000052 -0.000068
# 4 -0.000007 0.000013 -0.000010 0.048642 0.000030 -0.000073
# 5 -0.000001 -0.000018 0.000052 0.000030 0.046090 0.000131
# 6 0.000008 0.000005 -0.000068 -0.000073 0.000131 0.017709
#
#
# Mechanical properties :
#
#
# Convention : Reuss Voigt Hill
#
# Bulk Modulus (GPa) = 52.51159 55.67153 54.09156
# Shear Modulus (GPa) = 29.43683 34.41700 31.92692
#
# Velocity S-wave (km/s) = 3.93839 4.25852 4.10158
# Velocity P-wave (km/s) = 6.95346 7.31536 7.13671
#
# Compressibility (1/GPa) = 0.01904342
#
# Stress axis : x y z
#
# Youngs Moduli (GPa) = 105.80998 98.48298 64.72602
#
# Poissons Ratio (x) = 0.22174 0.20795
# Poissons Ratio (y) = 0.23824 0.16448
# Poissons Ratio (z) = 0.33995 0.25027
#
# Static dielectric constant tensor:
#      x y z
#    x 3.787090 0.000140 0.000170 
#    y 0.000140 3.556120 -0.000170 
#    z 0.000170 -0.000170 3.135110 
# 
# 
# High freq. dielectric constant tensor:
#      x y z
#    x 1.748370 0.000010 0.000010 
#    y 0.000010 1.730000 -0.000010 
#    z 0.000010 -0.000010 1.709330 
# 
# From -- ./inp_files/5567.got.cif
#   From: 2010.03.12/outbox.cif.g09.slc.cpg/sg69_3_cif.got.tgz:5567.got - 2010.04.10 23:52:46.
