data_PCOD8284304
_publ_section_title
;
Structure prediction by ZEFSAII (Michael W. Deem and Ramdas Pophale) SiO2 
 PCOD8284304
Probable space group: F M M M
;
_chemical_formula_sum "Si O2"
_cell_formula_units_Z 120
_cell_length_a 24.270898
_cell_length_b 25.098332
_cell_length_c 10.146540
_cell_angle_alpha 90.000000
_cell_angle_beta 90.000000
_cell_angle_gamma 90.000000
_cell_volume 6180.856727
_symmetry_space_group_name_H-M "F M M M"
_symmetry_group_IT_number 69
_symmetry_cell_setting 'orthorhombic'
loop_
_space_group_symop_operation_xyz
x,y,z
-x,-y,z
x,-y,-z
-x,y,-z
-x,-y,-z
x,y,-z
-x,y,z
x,-y,z
x,1/2+y,1/2+z
-x,1/2-y,1/2+z
x,1/2-y,1/2-z
-x,1/2+y,1/2-z
-x,1/2-y,1/2-z
x,1/2+y,1/2-z
-x,1/2+y,1/2+z
x,1/2-y,1/2+z
1/2+x,y,1/2+z
1/2-x,-y,1/2+z
1/2+x,-y,1/2-z
1/2-x,y,1/2-z
1/2-x,-y,1/2-z
1/2+x,y,1/2-z
1/2-x,y,1/2+z
1/2+x,-y,1/2+z
1/2+x,1/2+y,z
1/2-x,1/2-y,z
1/2+x,1/2-y,-z
1/2-x,1/2+y,-z
1/2-x,1/2-y,-z
1/2+x,1/2+y,-z
1/2-x,1/2+y,z
1/2+x,1/2-y,z
loop_
_atom_site_type_symbol
_atom_site_label
_atom_site_fract_x
_atom_site_fract_y
_atom_site_fract_z
Si Si1 0.867032 0.604616 0.785850
Si Si2 0.559485 0.000000 0.220392
Si Si3 0.790250 0.562252 0.000000
Si Si4 0.562888 0.205738 0.148227
Si Si5 0.164828 0.907772 0.000000
Si Si6 0.079248 0.000000 0.000000
O O1 0.905242 0.552714 0.807193
O O2 0.899945 0.653770 0.844519
O O3 0.847310 0.622204 0.638561
O O4 0.812656 0.592214 0.870516
O O5 0.500000 0.000000 0.143744
O O6 0.541270 0.000000 0.372742
O O7 0.806697 0.500000 0.000000
O O8 0.724874 0.567071 0.000000
O O9 0.500000 0.190177 0.184086
O O10 0.584900 0.250000 0.250000
O O11 0.566603 0.229059 0.000000
O O12 0.119035 0.951129 0.000000
#
# Coordination Sequence:
#
# PCOD8284304 Si02
#       6
#    32  16  16  32  16   8
#     4  11  22  38  58  91 121 156 198 248 302 356
#     4  10  19  32  52  84 123 158 183 231 302 365
#     4  12  22  38  60  88 123 163 204 250 298 360
#     4  10  22  41  65  91 120 159 203 246 294 359
#     4  10  22  35  59  83 119 157 203 243 291 348
#     4   8  17  32  48  76 114 156 195 234 270 340
#
# _framework density 19.414784000000001
#
# number of rings (size 3 to 8) (size 9 to 14) (size 15 to 20)
#    0.000    1.600    3.333    1.800    1.867    1.067 
#    0.000    2.000    0.000    4.800    0.000    0.000 
#    0.000    0.000    0.000    0.000    0.000    0.000 
#
# Total GULP energy -371668.265916 kJ/mol
# GULP energy per Si atom -12388.942197 kJ/mol
# Density = 1.937059 g / cm^3
# Si number density = 19.414784 Si / 1000 Ang^3
#
#
#
# Elastic Constant Matrix: (Units=GPa)
#
#
# Indices 1 2 3 4 5 6 
#
# 1 91.5498 29.3379 28.8854 -0.0002 0.0003 0.0000
# 2 29.3379 92.7635 28.0419 -0.0002 0.0003 0.0001
# 3 28.8854 28.0419 124.1736 -0.0019 0.0021 0.0005
# 4 -0.0002 -0.0002 -0.0019 27.6480 0.0009 0.0003
# 5 0.0003 0.0003 0.0021 0.0009 20.2115 -0.0002
# 6 0.0000 0.0001 0.0005 0.0003 -0.0002 23.2052
#
#
#
# Elastic Compliance Matrix: (Units=1/GPa)
#
#
# Indices 1 2 3 4 5 6 
#
# 1 0.012689 -0.003349 -0.002195 0.000000 0.000000 0.000000
# 2 -0.003349 0.012454 -0.002033 0.000000 0.000000 0.000000
# 3 -0.002195 -0.002033 0.009023 0.000001 -0.000001 0.000000
# 4 0.000000 0.000000 0.000001 0.036169 -0.000002 -0.000001
# 5 0.000000 0.000000 -0.000001 -0.000002 0.049477 0.000000
# 6 0.000000 0.000000 0.000000 -0.000001 0.000000 0.043094
#
#
# Mechanical properties :
#
#
# Convention : Reuss Voigt Hill
#
# Bulk Modulus (GPa) = 52.60396 53.44637 53.02516
# Shear Modulus (GPa) = 27.11515 29.02771 28.07143
#
# Velocity S-wave (km/s) = 3.74120 3.87089 3.80660
# Velocity P-wave (km/s) = 6.76873 6.89687 6.83310
#
# Compressibility (1/GPa) = 0.01900998
#
# Stress axis : x y z
#
# Youngs Moduli (GPa) = 78.80814 80.29498 110.82658
#
# Poissons Ratio (x) = 0.26895 0.24330
# Poissons Ratio (y) = 0.26396 0.22535
# Poissons Ratio (z) = 0.17301 0.16327
#
# Static dielectric constant tensor:
#      x y z
#    x 3.395720 0.000000 0.000000 
#    y 0.000000 3.233190 0.000000 
#    z 0.000000 0.000000 4.275880 
# 
# 
# High freq. dielectric constant tensor:
#      x y z
#    x 1.761150 0.000000 0.000000 
#    y 0.000000 1.722770 0.000000 
#    z 0.000000 0.000000 1.776990 
# 
# From -- ./inp_files/9972.got.cif
#   From: 2010.03.12/outbox.cif.g09.slc.cpg/sg69_5_cif.got.tgz:9972.got - 2010.04.10 23:52:46.
