data_PCOD8284425
_publ_section_title
;
Structure prediction by ZEFSAII (Michael W. Deem and Ramdas Pophale) SiO2 
 PCOD8284425
Probable space group: F M M M
;
_chemical_formula_sum "Si O2"
_cell_formula_units_Z 88
_cell_length_a 13.674342
_cell_length_b 17.452213
_cell_length_c 19.845585
_cell_angle_alpha 90.000000
_cell_angle_beta 90.000000
_cell_angle_gamma 90.000000
_cell_volume 4736.099826
_symmetry_space_group_name_H-M "F M M M"
_symmetry_group_IT_number 69
_symmetry_cell_setting 'orthorhombic'
loop_
_space_group_symop_operation_xyz
x,y,z
-x,-y,z
x,-y,-z
-x,y,-z
-x,-y,-z
x,y,-z
-x,y,z
x,-y,z
x,1/2+y,1/2+z
-x,1/2-y,1/2+z
x,1/2-y,1/2-z
-x,1/2+y,1/2-z
-x,1/2-y,1/2-z
x,1/2+y,1/2-z
-x,1/2+y,1/2+z
x,1/2-y,1/2+z
1/2+x,y,1/2+z
1/2-x,-y,1/2+z
1/2+x,-y,1/2-z
1/2-x,y,1/2-z
1/2-x,-y,1/2-z
1/2+x,y,1/2-z
1/2-x,y,1/2+z
1/2+x,-y,1/2+z
1/2+x,1/2+y,z
1/2-x,1/2-y,z
1/2+x,1/2-y,-z
1/2-x,1/2+y,-z
1/2-x,1/2-y,-z
1/2+x,1/2+y,-z
1/2-x,1/2+y,z
1/2+x,1/2-y,z
loop_
_atom_site_type_symbol
_atom_site_label
_atom_site_fract_x
_atom_site_fract_y
_atom_site_fract_z
Si Si1 0.391211 0.299590 0.423571
Si Si2 0.384695 0.000000 0.422519
Si Si3 0.804540 0.345293 0.369679
Si Si4 0.250000 0.250000 0.250000
O O1 0.391649 0.327972 0.500000
O O2 0.500000 0.309922 0.392382
O O3 0.312534 0.350089 0.382770
O O4 0.359149 0.210194 0.422575
O O5 0.349226 0.928643 0.378041
O O6 0.500000 0.000000 0.425542
O O7 0.343572 0.000000 0.500000
O O8 0.818187 0.306040 0.295884
#
# Coordination Sequence:
#
# PCOD8284425 Si02
#       4
#    32  16  32   8
#     4   9  16  29  51  76 101 135 178 217 255 300
#     4  11  22  35  55  83 109 132 163 213 276 322
#     4  10  19  34  52  75 106 137 172 215 256 302
#     4   8  20  38  56  72 100 144 184 214 238 294
#
# _framework density 18.580690000000001
#
# number of rings (size 3 to 8) (size 9 to 14) (size 15 to 20)
#    0.000    2.727    0.000    5.455    0.000    3.636 
#    0.000   23.636    0.000    3.273    0.000    0.000 
#    0.000    0.000    0.000    0.000    0.000    0.000 
#
# Total GULP energy -272592.521374 kJ/mol
# GULP energy per Si atom -12390.569153 kJ/mol
# Density = 1.853840 g / cm^3
# Si number density = 18.580690 Si / 1000 Ang^3
#
#
#
# Elastic Constant Matrix: (Units=GPa)
#
#
# Indices 1 2 3 4 5 6 
#
# 1 129.3826 24.1867 28.5071 0.0000 0.0000 0.0000
# 2 24.1867 117.1165 42.9538 0.0000 0.0000 0.0000
# 3 28.5071 42.9538 100.3650 0.0000 0.0000 0.0000
# 4 0.0000 0.0000 0.0000 19.3886 0.0000 0.0000
# 5 0.0000 0.0000 0.0000 0.0000 14.2108 0.0000
# 6 0.0000 0.0000 0.0000 0.0000 0.0000 18.8192
#
#
#
# Elastic Compliance Matrix: (Units=1/GPa)
#
#
# Indices 1 2 3 4 5 6 
#
# 1 0.008345 -0.001013 -0.001937 0.000000 0.000000 0.000000
# 2 -0.001013 0.010251 -0.004100 0.000000 0.000000 0.000000
# 3 -0.001937 -0.004100 0.012268 0.000000 0.000000 0.000000
# 4 0.000000 0.000000 0.000000 0.051577 0.000000 0.000000
# 5 0.000000 0.000000 0.000000 0.000000 0.070369 0.000000
# 6 0.000000 0.000000 0.000000 0.000000 0.000000 0.053137
#
#
# Mechanical properties :
#
#
# Convention : Reuss Voigt Hill
#
# Bulk Modulus (GPa) = 59.64486 59.79548 59.72017
# Shear Modulus (GPa) = 22.15971 27.23150 24.69561
#
# Velocity S-wave (km/s) = 3.45718 3.83244 3.64964
# Velocity P-wave (km/s) = 6.93587 7.19964 7.06899
#
# Compressibility (1/GPa) = 0.01676591
#
# Stress axis : x y z
#
# Youngs Moduli (GPa) = 119.83048 97.54870 81.51134
#
# Poissons Ratio (x) = 0.09883 0.15786
# Poissons Ratio (y) = 0.12140 0.33416
# Poissons Ratio (z) = 0.23208 0.39991
#
# Static dielectric constant tensor:
#      x y z
#    x 3.549000 0.000000 0.000000 
#    y 0.000000 3.143300 0.000000 
#    z 0.000000 0.000000 3.391580 
# 
# 
# High freq. dielectric constant tensor:
#      x y z
#    x 1.721800 0.000000 0.000000 
#    y 0.000000 1.691610 0.000000 
#    z 0.000000 0.000000 1.710260 
# 
# From -- ./inp_files/21343.got.cif
#   From: 2010.03.12/outbox.cif.g09.slc.cpg/sg69_11_cif.got.tgz:21343.got - 2010.04.10 23:52:46.
