data_PCOD8284517
_publ_section_title
;
Structure prediction by ZEFSAII (Michael W. Deem and Ramdas Pophale) SiO2 
 PCOD8284517
Probable space group: F M M M
;
_chemical_formula_sum "Si O2"
_cell_formula_units_Z 192
_cell_length_a 17.397479
_cell_length_b 18.189547
_cell_length_c 30.134738
_cell_angle_alpha 90.000000
_cell_angle_beta 90.000000
_cell_angle_gamma 90.000000
_cell_volume 9536.206003
_symmetry_space_group_name_H-M "F M M M"
_symmetry_group_IT_number 69
_symmetry_cell_setting 'orthorhombic'
loop_
_space_group_symop_operation_xyz
x,y,z
-x,-y,z
x,-y,-z
-x,y,-z
-x,-y,-z
x,y,-z
-x,y,z
x,-y,z
x,1/2+y,1/2+z
-x,1/2-y,1/2+z
x,1/2-y,1/2-z
-x,1/2+y,1/2-z
-x,1/2-y,1/2-z
x,1/2+y,1/2-z
-x,1/2+y,1/2+z
x,1/2-y,1/2+z
1/2+x,y,1/2+z
1/2-x,-y,1/2+z
1/2+x,-y,1/2-z
1/2-x,y,1/2-z
1/2-x,-y,1/2-z
1/2+x,y,1/2-z
1/2-x,y,1/2+z
1/2+x,-y,1/2+z
1/2+x,1/2+y,z
1/2-x,1/2-y,z
1/2+x,1/2-y,-z
1/2-x,1/2+y,-z
1/2-x,1/2-y,-z
1/2+x,1/2+y,-z
1/2-x,1/2+y,z
1/2+x,1/2-y,z
loop_
_atom_site_type_symbol
_atom_site_label
_atom_site_fract_x
_atom_site_fract_y
_atom_site_fract_z
Si Si1 0.412942 0.196497 0.672211
Si Si2 0.590836 0.081190 0.741024
Si Si3 0.088580 0.362695 0.832856
Si Si4 0.414437 0.246651 0.000000
Si Si5 0.179969 0.803513 0.915452
Si Si6 0.698732 0.918357 0.091325
Si Si7 0.387423 0.420246 0.500000
O O1 0.500000 0.170259 0.667832
O O2 0.371923 0.142150 0.708020
O O3 0.406348 0.280692 0.687256
O O4 0.379068 0.190021 0.623876
O O5 0.500000 0.093242 0.742838
O O6 0.619358 0.088276 0.791976
O O7 0.613470 0.000000 0.723700
O O8 0.143665 0.372550 0.875285
O O9 0.000000 0.381135 0.847048
O O10 0.365624 0.274772 0.958230
O O11 0.430901 0.158266 0.000000
O O12 0.500000 0.282345 0.000000
O O13 0.250000 0.750000 0.904225
O O14 0.217716 0.883966 0.918119
O O15 0.708913 0.000000 0.111081
O O16 0.662729 0.920424 0.043423
O O17 0.434207 0.500000 0.500000
#
# Coordination Sequence:
#
# PCOD8284517 Si02
#       7
#    32  32  32  16  32  32  16
#     4  10  20  35  59  88 117 154 204 252 300 356
#     4   9  18  33  55  84 119 158 201 253 307 353
#     4  10  19  35  59  88 119 157 205 254 301 362
#     4  12  24  41  68  95 120 158 204 246 291 348
#     4  12  22  40  63  87 122 162 199 242 291 359
#     4  11  23  38  60  88 123 165 200 242 306 366
#     4  10  21  38  58  89 128 158 189 232 296 364
#
# _framework density 20.133793000000001
#
# number of rings (size 3 to 8) (size 9 to 14) (size 15 to 20)
#    0.000    1.500    3.333    2.250    0.000    5.833 
#    0.000    2.500    0.000    4.000    0.000    0.000 
#    0.000    0.000    0.000    0.000    0.000    0.000 
#
# Total GULP energy -594677.927045 kJ/mol
# GULP energy per Si atom -12389.123480 kJ/mol
# Density = 2.008797 g / cm^3
# Si number density = 20.133793 Si / 1000 Ang^3
#
#
#
# Elastic Constant Matrix: (Units=GPa)
#
#
# Indices 1 2 3 4 5 6 
#
# 1 63.0238 43.7620 29.6221 0.0000 0.0000 0.0000
# 2 43.7620 114.2308 52.6720 0.0000 0.0000 0.0000
# 3 29.6221 52.6720 131.1240 0.0000 0.0000 0.0000
# 4 0.0000 0.0000 0.0000 32.4448 0.0000 0.0000
# 5 0.0000 0.0000 0.0000 0.0000 -65.4713 0.0000
# 6 0.0000 0.0000 0.0000 0.0000 0.0000 -444.8339
#
#
#
# Elastic Compliance Matrix: (Units=1/GPa)
#
#
# Indices 1 2 3 4 5 6 
#
# 1 0.022015 -0.007537 -0.001946 0.000000 0.000000 0.000000
# 2 -0.007537 0.013324 -0.003650 0.000000 0.000000 0.000000
# 3 -0.001946 -0.003650 0.009532 0.000000 0.000000 0.000000
# 4 0.000000 0.000000 0.000000 0.030822 0.000000 0.000000
# 5 0.000000 0.000000 0.000000 0.000000 -0.015274 0.000000
# 6 0.000000 0.000000 0.000000 0.000000 0.000000 -0.002248
#
#
# Mechanical properties :
#
#
# Convention : Reuss Voigt Hill
#
# Bulk Modulus (GPa) = 53.74412 62.27675 58.01044
# Shear Modulus (GPa) = 55.16449 -83.41724 -14.12638
#
# Velocity S-wave (km/s) = 5.24008 -6.44371 -2.65169
# Velocity P-wave (km/s) = 7.96007 4.93592 4.41585
#
# Compressibility (1/GPa) = 0.01860669
#
# Stress axis : x y z
#
# Youngs Moduli (GPa) = 45.42381 75.05015 104.90908
#
# Poissons Ratio (x) = 0.56563 0.20414
# Poissons Ratio (y) = 0.34234 0.38289
# Poissons Ratio (z) = 0.08839 0.27392
#
# Static dielectric constant tensor:
#      x y z
#    x 3.496500 0.000000 0.000000 
#    y 0.000000 4.285310 0.000000 
#    z 0.000000 0.000000 3.681320 
# 
# 
# High freq. dielectric constant tensor:
#      x y z
#    x 1.756410 0.000000 0.000000 
#    y 0.000000 1.797280 0.000000 
#    z 0.000000 0.000000 1.796090 
# 
# From -- ./inp_files/46422.got.cif
#   From: 2010.03.12/outbox.cif.g09.slc.cpg/sg69_24_cif.got.tgz:46422.got - 2010.04.10 23:52:46.
