data_PCOD8284072
_publ_section_title
;
Structure prediction by ZEFSAII (Michael W. Deem and Ramdas Pophale) SiO2 
 PCOD8284072
Probable space group: F M M M
;
_chemical_formula_sum "Si O2"
_cell_formula_units_Z 192
_cell_length_a 16.058370
_cell_length_b 36.021803
_cell_length_c 17.760603
_cell_angle_alpha 90.000000
_cell_angle_beta 90.000000
_cell_angle_gamma 90.000000
_cell_volume 10273.646392
_symmetry_space_group_name_H-M "F M M M"
_symmetry_group_IT_number 69
_symmetry_cell_setting 'orthorhombic'
loop_
_space_group_symop_operation_xyz
x,y,z
-x,-y,z
x,-y,-z
-x,y,-z
-x,-y,-z
x,y,-z
-x,y,z
x,-y,z
x,1/2+y,1/2+z
-x,1/2-y,1/2+z
x,1/2-y,1/2-z
-x,1/2+y,1/2-z
-x,1/2-y,1/2-z
x,1/2+y,1/2-z
-x,1/2+y,1/2+z
x,1/2-y,1/2+z
1/2+x,y,1/2+z
1/2-x,-y,1/2+z
1/2+x,-y,1/2-z
1/2-x,y,1/2-z
1/2-x,-y,1/2-z
1/2+x,y,1/2-z
1/2-x,y,1/2+z
1/2+x,-y,1/2+z
1/2+x,1/2+y,z
1/2-x,1/2-y,z
1/2+x,1/2-y,-z
1/2-x,1/2+y,-z
1/2-x,1/2-y,-z
1/2+x,1/2+y,-z
1/2-x,1/2+y,z
1/2+x,1/2-y,z
loop_
_atom_site_type_symbol
_atom_site_label
_atom_site_fract_x
_atom_site_fract_y
_atom_site_fract_z
Si Si1 0.000000 0.042962 0.231065
Si Si2 0.674252 0.636400 0.415399
Si Si3 0.095495 0.712477 0.327499
Si Si4 0.342815 0.590829 0.729834
Si Si5 0.140562 0.635868 0.375157
Si Si6 0.098454 0.293364 0.160064
Si Si7 0.500000 0.418484 0.919561
O O1 0.914670 0.060089 0.263360
O O2 0.000000 0.049109 0.141589
O O3 0.000000 0.000000 0.251363
O O4 0.640892 0.627311 0.500000
O O5 0.644265 0.605905 0.354856
O O6 0.773110 0.633728 0.417714
O O7 0.646357 0.677649 0.392558
O O8 0.110069 0.678241 0.383344
O O9 0.133959 0.703273 0.245395
O O10 0.125057 0.751368 0.365116
O O11 0.000000 0.718852 0.309142
O O12 0.250000 0.574394 0.750000
O O13 0.356672 0.625052 0.786748
O O14 0.079940 0.607685 0.416012
O O15 0.000000 0.301525 0.152076
O O16 0.500000 0.438898 0.000000
#
# Coordination Sequence:
#
# PCOD8284072 Si02
#       7
#    16  32  32  32  32  32  16
#     4  10  22  39  65  93 113 141 185 218 248 325
#     4  11  22  34  50  78 112 143 186 237 279 318
#     4   9  16  31  53  75  97 138 192 240 276 324
#     4   9  20  37  59  85 114 146 182 224 269 321
#     4  10  18  33  56  79 103 144 192 226 268 331
#     4   9  19  31  49  73 102 141 191 237 281 322
#     4  10  20  35  58  85 117 143 165 215 282 329
#
# _framework density 18.688593000000001
#
# number of rings (size 3 to 8) (size 9 to 14) (size 15 to 20)
#    0.000    2.333    2.500    1.500    1.167    1.500 
#    0.000    4.167    0.000    1.000    0.000    0.000 
#    0.000    0.000    0.000    0.000    0.000    0.000 
#
# Total GULP energy -594762.860828 kJ/mol
# GULP energy per Si atom -12390.892934 kJ/mol
# Density = 1.864606 g / cm^3
# Si number density = 18.688593 Si / 1000 Ang^3
#
#
#
# Elastic Constant Matrix: (Units=GPa)
#
#
# Indices 1 2 3 4 5 6 
#
# 1 90.9428 44.2826 25.8277 0.0000 0.0000 0.0000
# 2 44.2826 110.0525 38.1122 0.0000 0.0000 0.0000
# 3 25.8277 38.1122 120.9345 0.0000 0.0000 0.0000
# 4 0.0000 0.0000 0.0000 11.5471 0.0000 0.0000
# 5 0.0000 0.0000 0.0000 0.0000 13.1955 0.0000
# 6 0.0000 0.0000 0.0000 0.0000 0.0000 20.1853
#
#
#
# Elastic Compliance Matrix: (Units=1/GPa)
#
#
# Indices 1 2 3 4 5 6 
#
# 1 0.013869 -0.005113 -0.001351 0.000000 0.000000 0.000000
# 2 -0.005113 0.012085 -0.002716 0.000000 0.000000 0.000000
# 3 -0.001351 -0.002716 0.009413 0.000000 0.000000 0.000000
# 4 0.000000 0.000000 0.000000 0.086602 0.000000 0.000000
# 5 0.000000 0.000000 0.000000 0.000000 0.075783 0.000000
# 6 0.000000 0.000000 0.000000 0.000000 0.000000 0.049541
#
#
# Mechanical properties :
#
#
# Convention : Reuss Voigt Hill
#
# Bulk Modulus (GPa) = 58.79881 59.81941 59.30911
# Shear Modulus (GPa) = 18.42828 23.23275 20.83052
#
# Velocity S-wave (km/s) = 3.14358 3.52966 3.34220
# Velocity P-wave (km/s) = 6.68632 6.97777 6.83360
#
# Compressibility (1/GPa) = 0.01700715
#
# Stress axis : x y z
#
# Youngs Moduli (GPa) = 72.10275 82.74988 106.23046
#
# Poissons Ratio (x) = 0.42309 0.14348
# Poissons Ratio (y) = 0.36865 0.28857
# Poissons Ratio (z) = 0.09739 0.22479
#
# Static dielectric constant tensor:
#      x y z
#    x 3.477060 0.000000 0.000000 
#    y 0.000000 3.134030 0.000000 
#    z 0.000000 0.000000 3.268200 
# 
# 
# High freq. dielectric constant tensor:
#      x y z
#    x 1.726770 0.000000 0.000000 
#    y 0.000000 1.699910 0.000000 
#    z 0.000000 0.000000 1.707440 
# 
# From -- ./inp_files/23681.got.cif
#   From: 2010.03.12/outbox.cif.g09.slc.cpg/sg69_12_cif.got.tgz:23681.got - 2010.04.10 23:52:46.
