data_PCOD8284359
_publ_section_title
;
Structure prediction by ZEFSAII (Michael W. Deem and Ramdas Pophale) SiO2 
 PCOD8284359
Probable space group: F M M M
;
_chemical_formula_sum "Si O2"
_cell_formula_units_Z 208
_cell_length_a 24.263150
_cell_length_b 25.128721
_cell_length_c 19.055941
_cell_angle_alpha 90.000000
_cell_angle_beta 90.000000
_cell_angle_gamma 90.000000
_cell_volume 11618.443947
_symmetry_space_group_name_H-M "F M M M"
_symmetry_group_IT_number 69
_symmetry_cell_setting 'orthorhombic'
loop_
_space_group_symop_operation_xyz
x,y,z
-x,-y,z
x,-y,-z
-x,y,-z
-x,-y,-z
x,y,-z
-x,y,z
x,-y,z
x,1/2+y,1/2+z
-x,1/2-y,1/2+z
x,1/2-y,1/2-z
-x,1/2+y,1/2-z
-x,1/2-y,1/2-z
x,1/2+y,1/2-z
-x,1/2+y,1/2+z
x,1/2-y,1/2+z
1/2+x,y,1/2+z
1/2-x,-y,1/2+z
1/2+x,-y,1/2-z
1/2-x,y,1/2-z
1/2-x,-y,1/2-z
1/2+x,y,1/2-z
1/2-x,y,1/2+z
1/2+x,-y,1/2+z
1/2+x,1/2+y,z
1/2-x,1/2-y,z
1/2+x,1/2-y,-z
1/2-x,1/2+y,-z
1/2-x,1/2-y,-z
1/2+x,1/2+y,-z
1/2-x,1/2+y,z
1/2+x,1/2-y,z
loop_
_atom_site_type_symbol
_atom_site_label
_atom_site_fract_x
_atom_site_fract_y
_atom_site_fract_z
Si Si1 0.595029 0.622122 0.168539
Si Si2 0.836305 0.303214 0.579453
Si Si3 0.240006 0.622414 0.919760
Si Si4 0.062508 0.197526 0.286830
Si Si5 0.634710 0.314662 0.419974
Si Si6 0.207302 0.061432 0.806786
Si Si7 0.000000 0.063318 0.083225
O O1 0.613151 0.673107 0.123456
O O2 0.565760 0.645558 0.237497
O O3 0.647869 0.588981 0.194169
O O4 0.554162 0.586329 0.121724
O O5 0.848819 0.319560 0.500000
O O6 0.778257 0.327977 0.604015
O O7 0.831849 0.240153 0.588179
O O8 0.176908 0.637416 0.903788
O O9 0.260695 0.569899 0.879932
O O10 0.248183 0.608274 0.000000
O O11 0.090096 0.250000 0.250000
O O12 0.087364 0.182934 0.362425
O O13 0.000000 0.211891 0.303450
O O14 0.611178 0.319584 0.500000
O O15 0.250000 0.085953 0.750000
O O16 0.196631 0.000000 0.792331
O O17 0.000000 0.000000 0.092642
O O18 0.000000 0.078211 0.000000
#
# Coordination Sequence:
#
# PCOD8284359 Si02
#       7
#    32  32  32  32  32  32  16
#     4  11  20  37  56  78 112 151 183 237 282 328
#     4   9  17  30  50  77 107 142 180 217 270 330
#     4   9  18  32  52  77 106 139 175 221 275 328
#     4  11  22  36  52  76 108 146 188 231 278 335
#     4  10  19  33  53  77 108 144 182 223 270 332
#     4  10  21  36  55  79 107 141 183 230 281 336
#     4  11  24  40  59  86 115 151 200 241 282 342
#
# _framework density 17.902569
#
# number of rings (size 3 to 8) (size 9 to 14) (size 15 to 20)
#    0.000    1.923    2.308    2.308    0.000    3.077 
#    0.000    0.000    0.000    0.000    0.000    0.000 
#    0.000    0.615    0.000    0.000    0.000    0.000 
#
# Total GULP energy -644566.954912 kJ/mol
# GULP energy per Si atom -12395.518364 kJ/mol
# Density = 1.786182 g / cm^3
# Si number density = 17.902569 Si / 1000 Ang^3
#
#
#
# Elastic Constant Matrix: (Units=GPa)
#
#
# Indices 1 2 3 4 5 6 
#
# 1 90.1079 19.8862 51.6074 0.0000 0.0000 0.0000
# 2 19.8862 49.2848 26.3196 0.0000 0.0000 0.0000
# 3 51.6074 26.3196 102.7709 0.0000 0.0000 0.0000
# 4 0.0000 0.0000 0.0000 27.6703 0.0000 0.0000
# 5 0.0000 0.0000 0.0000 0.0000 34.4720 0.0000
# 6 0.0000 0.0000 0.0000 0.0000 0.0000 23.3945
#
#
#
# Elastic Compliance Matrix: (Units=1/GPa)
#
#
# Indices 1 2 3 4 5 6 
#
# 1 0.015836 -0.002483 -0.007316 0.000000 0.000000 0.000000
# 2 -0.002483 0.023894 -0.004873 0.000000 0.000000 0.000000
# 3 -0.007316 -0.004873 0.014652 0.000000 0.000000 0.000000
# 4 0.000000 0.000000 0.000000 0.036140 0.000000 0.000000
# 5 0.000000 0.000000 0.000000 0.000000 0.029009 0.000000
# 6 0.000000 0.000000 0.000000 0.000000 0.000000 0.042745
#
#
# Mechanical properties :
#
#
# Convention : Reuss Voigt Hill
#
# Bulk Modulus (GPa) = 39.93750 48.64332 44.29041
# Shear Modulus (GPa) = 25.00428 26.73074 25.86751
#
# Velocity S-wave (km/s) = 3.74128 3.86829 3.80531
# Velocity P-wave (km/s) = 6.40465 6.86889 6.64083
#
# Compressibility (1/GPa) = 0.02503912
#
# Stress axis : x y z
#
# Youngs Moduli (GPa) = 63.14717 41.85144 68.24891
#
# Poissons Ratio (x) = 0.10390 0.49934
# Poissons Ratio (y) = 0.15677 0.33255
# Poissons Ratio (z) = 0.46201 0.20392
#
# Static dielectric constant tensor:
#      x y z
#    x 3.236190 0.000000 0.000000 
#    y 0.000000 3.157900 0.000000 
#    z 0.000000 0.000000 3.429130 
# 
# 
# High freq. dielectric constant tensor:
#      x y z
#    x 1.687460 0.000000 0.000000 
#    y 0.000000 1.677440 0.000000 
#    z 0.000000 0.000000 1.700270 
# 
# From -- ./inp_files/26088.got.cif
#   From: 2010.03.12/outbox.cif.g09.slc.cpg/sg69_14_cif.got.tgz:26088.got - 2010.04.10 23:52:46.
