data_PCOD8284822
_publ_section_title
;
Structure prediction by ZEFSAII (Michael W. Deem and Ramdas Pophale) SiO2 
 PCOD8284822
Probable space group: F M M M
;
_chemical_formula_sum "Si O2"
_cell_formula_units_Z 160
_cell_length_a 30.207746
_cell_length_b 8.673428
_cell_length_c 29.907517
_cell_angle_alpha 90.000000
_cell_angle_beta 90.000000
_cell_angle_gamma 90.000000
_cell_volume 7835.910318
_symmetry_space_group_name_H-M "F M M M"
_symmetry_group_IT_number 69
_symmetry_cell_setting 'orthorhombic'
loop_
_space_group_symop_operation_xyz
x,y,z
-x,-y,z
x,-y,-z
-x,y,-z
-x,-y,-z
x,y,-z
-x,y,z
x,-y,z
x,1/2+y,1/2+z
-x,1/2-y,1/2+z
x,1/2-y,1/2-z
-x,1/2+y,1/2-z
-x,1/2-y,1/2-z
x,1/2+y,1/2-z
-x,1/2+y,1/2+z
x,1/2-y,1/2+z
1/2+x,y,1/2+z
1/2-x,-y,1/2+z
1/2+x,-y,1/2-z
1/2-x,y,1/2-z
1/2-x,-y,1/2-z
1/2+x,y,1/2-z
1/2-x,y,1/2+z
1/2+x,-y,1/2+z
1/2+x,1/2+y,z
1/2-x,1/2-y,z
1/2+x,1/2-y,-z
1/2-x,1/2+y,-z
1/2-x,1/2-y,-z
1/2+x,1/2+y,-z
1/2-x,1/2+y,z
1/2+x,1/2-y,z
loop_
_atom_site_type_symbol
_atom_site_label
_atom_site_fract_x
_atom_site_fract_y
_atom_site_fract_z
Si Si1 0.794960 0.682515 0.674379
Si Si2 0.297756 0.180530 0.500000
Si Si3 0.671247 0.320310 0.411395
Si Si4 0.109436 0.822784 0.794812
Si Si5 0.580282 0.319343 0.109962
Si Si6 0.000000 0.816336 0.446682
O O1 0.792833 0.500000 0.675440
O O2 0.750000 0.750000 0.697442
O O3 0.795245 0.741975 0.623424
O O4 0.840707 0.745373 0.696521
O O5 0.250000 0.250000 0.500000
O O6 0.324623 0.237787 0.541892
O O7 0.294062 0.000000 0.500000
O O8 0.682182 0.500000 0.414430
O O9 0.620755 0.291963 0.399321
O O10 0.088803 0.750000 0.750000
O O11 0.074725 0.799095 0.836025
O O12 0.116298 0.000000 0.785105
O O13 0.589469 0.500000 0.099254
O O14 0.541008 0.259169 0.079016
O O15 0.000000 0.774686 0.500000
O O16 0.000000 0.000000 0.440510
#
# Coordination Sequence:
#
# PCOD8284822 Si02
#       6
#    32  16  32  32  32  16
#     4  10  20  35  53  79 114 155 202 250 300 354
#     4  12  24  38  54  77 110 151 198 248 296 350
#     4  11  22  37  57  81 112 152 196 245 298 353
#     4   9  20  37  59  86 118 156 201 249 298 358
#     4  10  22  42  64  90 122 158 197 240 295 358
#     4  11  25  43  66  97 128 155 194 245 293 352
#
# _framework density 20.418814000000001
#
# number of rings (size 3 to 8) (size 9 to 14) (size 15 to 20)
#    0.000    1.700    0.000    6.000    1.400    6.000 
#    0.000    2.500    0.000    0.000    0.000    0.000 
#    0.000    0.000    0.000    0.000    0.000    0.000 
#
# Total GULP energy -495691.035450 kJ/mol
# GULP energy per Si atom -12392.275886 kJ/mol
# Density = 2.037234 g / cm^3
# Si number density = 20.418814 Si / 1000 Ang^3
#
#
#
# Elastic Constant Matrix: (Units=GPa)
#
#
# Indices 1 2 3 4 5 6 
#
# 1 72.4504 21.6041 27.0734 -0.0002 0.0003 0.0024
# 2 21.6041 102.1451 44.9273 -0.0003 0.0003 0.0023
# 3 27.0734 44.9273 137.7261 0.0000 0.0000 0.0001
# 4 -0.0002 -0.0003 0.0000 33.8482 0.0000 0.0001
# 5 0.0003 0.0003 0.0000 0.0000 16.6496 -0.0002
# 6 0.0024 0.0023 0.0001 0.0001 -0.0002 33.8772
#
#
#
# Elastic Compliance Matrix: (Units=1/GPa)
#
#
# Indices 1 2 3 4 5 6 
#
# 1 0.015322 -0.002237 -0.002282 0.000000 0.000000 -0.000001
# 2 -0.002237 0.011757 -0.003395 0.000000 0.000000 -0.000001
# 3 -0.002282 -0.003395 0.008817 0.000000 0.000000 0.000000
# 4 0.000000 0.000000 0.000000 0.029544 0.000000 0.000000
# 5 0.000000 0.000000 0.000000 0.000000 0.060062 0.000000
# 6 -0.000001 -0.000001 0.000000 0.000000 0.000000 0.029518
#
#
# Mechanical properties :
#
#
# Convention : Reuss Voigt Hill
#
# Bulk Modulus (GPa) = 49.83343 55.50346 52.66844
# Shear Modulus (GPa) = 28.16305 31.45612 29.80958
#
# Velocity S-wave (km/s) = 3.71788 3.92924 3.82502
# Velocity P-wave (km/s) = 6.54895 6.91569 6.73482
#
# Compressibility (1/GPa) = 0.02006685
#
# Stress axis : x y z
#
# Youngs Moduli (GPa) = 65.26382 85.05920 113.41710
#
# Poissons Ratio (x) = 0.19027 0.25885
# Poissons Ratio (y) = 0.14599 0.38509
# Poissons Ratio (z) = 0.14895 0.28881
#
# Static dielectric constant tensor:
#      x y z
#    x 3.757030 0.000000 0.000000 
#    y 0.000000 3.707570 0.000000 
#    z 0.000000 0.000000 3.916050 
# 
# 
# High freq. dielectric constant tensor:
#      x y z
#    x 1.781790 0.000000 0.000000 
#    y 0.000000 1.806050 0.000000 
#    z 0.000000 0.000000 1.806710 
# 
# From -- ./inp_files/44587.got.cif
#   From: 2010.03.12/outbox.cif.g09.slc.cpg/sg69_23_cif.got.tgz:44587.got - 2010.04.10 23:52:46.
