data_PCOD8284357
_publ_section_title
;
Structure prediction by ZEFSAII (Michael W. Deem and Ramdas Pophale) SiO2 
 PCOD8284357
Probable space group: F M M M
;
_chemical_formula_sum "Si O2"
_cell_formula_units_Z 160
_cell_length_a 15.234551
_cell_length_b 23.213366
_cell_length_c 23.412969
_cell_angle_alpha 90.000000
_cell_angle_beta 90.000000
_cell_angle_gamma 90.000000
_cell_volume 8279.884297
_symmetry_space_group_name_H-M "F M M M"
_symmetry_group_IT_number 69
_symmetry_cell_setting 'orthorhombic'
loop_
_space_group_symop_operation_xyz
x,y,z
-x,-y,z
x,-y,-z
-x,y,-z
-x,-y,-z
x,y,-z
-x,y,z
x,-y,z
x,1/2+y,1/2+z
-x,1/2-y,1/2+z
x,1/2-y,1/2-z
-x,1/2+y,1/2-z
-x,1/2-y,1/2-z
x,1/2+y,1/2-z
-x,1/2+y,1/2+z
x,1/2-y,1/2+z
1/2+x,y,1/2+z
1/2-x,-y,1/2+z
1/2+x,-y,1/2-z
1/2-x,y,1/2-z
1/2-x,-y,1/2-z
1/2+x,y,1/2-z
1/2-x,y,1/2+z
1/2+x,-y,1/2+z
1/2+x,1/2+y,z
1/2-x,1/2-y,z
1/2+x,1/2-y,-z
1/2-x,1/2+y,-z
1/2-x,1/2-y,-z
1/2+x,1/2+y,-z
1/2-x,1/2+y,z
1/2+x,1/2-y,z
loop_
_atom_site_type_symbol
_atom_site_label
_atom_site_fract_x
_atom_site_fract_y
_atom_site_fract_z
Si Si1 0.101087 0.655749 0.934648
Si Si2 0.598217 0.065819 0.349419
Si Si3 0.249450 0.433755 0.065351
Si Si4 0.598792 0.734383 0.333417
Si Si5 0.846319 0.339144 0.268143
O O1 0.162694 0.602025 0.918579
O O2 0.127689 0.709744 0.894906
O O3 0.000000 0.637390 0.923281
O O4 0.114868 0.675184 0.000000
O O5 0.500000 0.072322 0.374899
O O6 0.667898 0.086488 0.396880
O O7 0.606154 0.104919 0.293189
O O8 0.616223 0.000000 0.331196
O O9 0.225667 0.500000 0.076949
O O10 0.277156 0.423527 0.000000
O O11 0.500000 0.758676 0.336362
O O12 0.600852 0.683235 0.286768
O O13 0.660624 0.787757 0.315415
O O14 0.750000 0.358070 0.250000
#
# Coordination Sequence:
#
# PCOD8284357 Si02
#       5
#    32  32  32  32  32
#     4   9  18  33  54  81 112 143 176 220 271 317
#     4  10  21  37  56  78 106 139 177 224 273 317
#     4   9  18  33  53  77 106 142 183 223 265 318
#     4  10  19  33  53  76 105 140 176 212 255 314
#     4  11  21  34  54  77 103 136 176 216 261 318
#
# _framework density 19.323941999999999
#
# number of rings (size 3 to 8) (size 9 to 14) (size 15 to 20)
#    0.000    2.200    0.000    4.800    0.000    1.200 
#    0.000    6.000    0.000    8.400    0.000    0.000 
#    0.000    0.000    0.000    0.000    0.000    0.000 
#
# Total GULP energy -496012.506648 kJ/mol
# GULP energy per Si atom -12400.312666 kJ/mol
# Density = 1.927996 g / cm^3
# Si number density = 19.323942 Si / 1000 Ang^3
#
#
#
# Elastic Constant Matrix: (Units=GPa)
#
#
# Indices 1 2 3 4 5 6 
#
# 1 95.0487 38.5970 42.2381 0.0000 0.0000 0.0000
# 2 38.5970 78.6038 54.9276 0.0000 0.0000 0.0000
# 3 42.2381 54.9276 94.0636 0.0000 0.0000 0.0000
# 4 0.0000 0.0000 0.0000 31.8959 0.0000 0.0000
# 5 0.0000 0.0000 0.0000 0.0000 33.9666 0.0000
# 6 0.0000 0.0000 0.0000 0.0000 0.0000 22.3936
#
#
#
# Elastic Compliance Matrix: (Units=1/GPa)
#
#
# Indices 1 2 3 4 5 6 
#
# 1 0.013906 -0.004164 -0.003813 0.000000 0.000000 0.000000
# 2 -0.004164 0.022739 -0.011408 0.000000 0.000000 0.000000
# 3 -0.003813 -0.011408 0.019005 0.000000 0.000000 0.000000
# 4 0.000000 0.000000 0.000000 0.031352 0.000000 0.000000
# 5 0.000000 0.000000 0.000000 0.000000 0.029441 0.000000
# 6 0.000000 0.000000 0.000000 0.000000 0.000000 0.044656
#
#
# Mechanical properties :
#
#
# Convention : Reuss Voigt Hill
#
# Bulk Modulus (GPa) = 59.24312 59.91572 59.57942
# Shear Modulus (GPa) = 24.33152 26.44813 25.38982
#
# Velocity S-wave (km/s) = 3.55228 3.70357 3.62872
# Velocity P-wave (km/s) = 6.89561 7.02580 6.96101
#
# Compressibility (1/GPa) = 0.01687960
#
# Stress axis : x y z
#
# Youngs Moduli (GPa) = 71.91037 43.97796 52.61779
#
# Poissons Ratio (x) = 0.18312 0.20063
# Poissons Ratio (y) = 0.29943 0.60028
# Poissons Ratio (z) = 0.27419 0.50171
#
# Static dielectric constant tensor:
#      x y z
#    x 3.569780 0.000000 0.000000 
#    y 0.000000 3.402700 0.000000 
#    z 0.000000 0.000000 3.573510 
# 
# 
# High freq. dielectric constant tensor:
#      x y z
#    x 1.760260 0.000000 0.000000 
#    y 0.000000 1.739540 0.000000 
#    z 0.000000 0.000000 1.746070 
# 
# From -- ./inp_files/17682.got.cif
#   From: 2010.03.12/outbox.cif.g09.slc.cpg/sg69_9_cif.got.tgz:17682.got - 2010.04.10 23:52:46.
