data_PCOD8284674
_publ_section_title
;
Structure prediction by ZEFSAII (Michael W. Deem and Ramdas Pophale) SiO2 
 PCOD8284674
Probable space group: F M M M
;
_chemical_formula_sum "Si O2"
_cell_formula_units_Z 144
_cell_length_a 19.733323
_cell_length_b 18.428405
_cell_length_c 20.207390
_cell_angle_alpha 90.000000
_cell_angle_beta 90.000000
_cell_angle_gamma 90.000000
_cell_volume 7348.491499
_symmetry_space_group_name_H-M "F M M M"
_symmetry_group_IT_number 69
_symmetry_cell_setting 'orthorhombic'
loop_
_space_group_symop_operation_xyz
x,y,z
-x,-y,z
x,-y,-z
-x,y,-z
-x,-y,-z
x,y,-z
-x,y,z
x,-y,z
x,1/2+y,1/2+z
-x,1/2-y,1/2+z
x,1/2-y,1/2-z
-x,1/2+y,1/2-z
-x,1/2-y,1/2-z
x,1/2+y,1/2-z
-x,1/2+y,1/2+z
x,1/2-y,1/2+z
1/2+x,y,1/2+z
1/2-x,-y,1/2+z
1/2+x,-y,1/2-z
1/2-x,y,1/2-z
1/2-x,-y,1/2-z
1/2+x,y,1/2-z
1/2-x,y,1/2+z
1/2+x,-y,1/2+z
1/2+x,1/2+y,z
1/2-x,1/2-y,z
1/2+x,1/2-y,-z
1/2-x,1/2+y,-z
1/2-x,1/2-y,-z
1/2+x,1/2+y,-z
1/2-x,1/2+y,z
1/2+x,1/2-y,z
loop_
_atom_site_type_symbol
_atom_site_label
_atom_site_fract_x
_atom_site_fract_y
_atom_site_fract_z
Si Si1 0.396721 0.416996 0.134196
Si Si2 0.000000 0.840650 0.381226
Si Si3 0.134671 0.915565 0.575030
Si Si4 0.500000 0.684453 0.073316
Si Si5 0.000000 0.080087 0.248393
Si Si6 0.749962 0.085962 0.324614
O O1 0.401998 0.500000 0.108811
O O2 0.433369 0.364646 0.082547
O O3 0.432581 0.409758 0.205281
O O4 0.319676 0.390838 0.140305
O O5 0.934101 0.870780 0.418049
O O6 0.000000 0.753531 0.378900
O O7 0.000000 0.860791 0.304745
O O8 0.162514 0.904960 0.500000
O O9 0.188938 0.885461 0.628859
O O10 0.119325 0.000000 0.588776
O O11 0.500000 0.716125 0.000000
O O12 0.000000 0.000000 0.280827
O O13 0.750000 0.118992 0.250000
O O14 0.754473 0.000000 0.319456
#
# Coordination Sequence:
#
# PCOD8284674 Si02
#       6
#    32  16  32  16  16  32
#     4   9  19  36  58  84 110 136 176 227 273 323
#     4  12  22  35  54  75 109 148 182 223 268 317
#     4  10  20  33  52  79 107 139 180 222 268 322
#     4  11  24  38  53  76 107 149 192 224 265 317
#     4   9  17  32  57  85 108 136 174 219 275 327
#     4   9  17  32  56  84 110 135 169 219 276 329
#
# _framework density 19.595858
#
# number of rings (size 3 to 8) (size 9 to 14) (size 15 to 20)
#    0.000    2.222    0.000    4.333    0.000    8.000 
#    0.000    3.333    0.000    4.000    0.000    0.000 
#    0.000    0.000    0.000    0.000    0.000    0.000 
#
# Total GULP energy -446369.329927 kJ/mol
# GULP energy per Si atom -12399.148054 kJ/mol
# Density = 1.955126 g / cm^3
# Si number density = 19.595858 Si / 1000 Ang^3
#
#
#
# Elastic Constant Matrix: (Units=GPa)
#
#
# Indices 1 2 3 4 5 6 
#
# 1 154.0843 38.0869 47.0360 0.0000 0.0000 0.0000
# 2 38.0869 76.1468 28.5954 0.0000 0.0000 0.0000
# 3 47.0360 28.5954 103.6130 0.0000 0.0000 0.0000
# 4 0.0000 0.0000 0.0000 21.4487 0.0000 0.0000
# 5 0.0000 0.0000 0.0000 0.0000 16.3326 0.0000
# 6 0.0000 0.0000 0.0000 0.0000 0.0000 2.1225
#
#
#
# Elastic Compliance Matrix: (Units=1/GPa)
#
#
# Indices 1 2 3 4 5 6 
#
# 1 0.008097 -0.002978 -0.002854 0.000000 0.000000 0.000000
# 2 -0.002978 0.015746 -0.002994 0.000000 0.000000 0.000000
# 3 -0.002854 -0.002994 0.011773 0.000000 0.000000 0.000000
# 4 0.000000 0.000000 0.000000 0.046623 0.000000 0.000000
# 5 0.000000 0.000000 0.000000 0.000000 0.061227 0.000000
# 6 0.000000 0.000000 0.000000 0.000000 0.000000 0.471139
#
#
# Mechanical properties :
#
#
# Convention : Reuss Voigt Hill
#
# Bulk Modulus (GPa) = 55.66396 62.36455 59.01425
# Shear Modulus (GPa) = 7.83396 22.65580 15.24488
#
# Velocity S-wave (km/s) = 2.00161 3.40391 2.79223
# Velocity P-wave (km/s) = 5.81460 6.88065 6.36996
#
# Compressibility (1/GPa) = 0.01796495
#
# Stress axis : x y z
#
# Youngs Moduli (GPa) = 123.49744 63.50626 84.93983
#
# Poissons Ratio (x) = 0.18915 0.24241
# Poissons Ratio (y) = 0.36782 0.25428
# Poissons Ratio (z) = 0.35245 0.19012
#
# Static dielectric constant tensor:
#      x y z
#    x 3.749790 0.000000 0.000000 
#    y 0.000000 3.212250 0.000000 
#    z 0.000000 0.000000 3.552330 
# 
# 
# High freq. dielectric constant tensor:
#      x y z
#    x 1.770400 0.000000 0.000000 
#    y 0.000000 1.724810 0.000000 
#    z 0.000000 0.000000 1.765080 
# 
# From -- ./inp_files/31705.got.cif
#   From: 2010.03.12/outbox.cif.g09.slc.cpg/sg69_16_cif.got.tgz:31705.got - 2010.04.10 23:52:46.
