data_PCOD8284054
_publ_section_title
;
Structure prediction by ZEFSAII (Michael W. Deem and Ramdas Pophale) SiO2 
 PCOD8284054
Probable space group: F M M M
;
_chemical_formula_sum "Si O2"
_cell_formula_units_Z 176
_cell_length_a 14.857486
_cell_length_b 24.285057
_cell_length_c 24.052680
_cell_angle_alpha 90.000000
_cell_angle_beta 90.000000
_cell_angle_gamma 90.000000
_cell_volume 8678.565194
_symmetry_space_group_name_H-M "F M M M"
_symmetry_group_IT_number 69
_symmetry_cell_setting 'orthorhombic'
loop_
_space_group_symop_operation_xyz
x,y,z
-x,-y,z
x,-y,-z
-x,y,-z
-x,-y,-z
x,y,-z
-x,y,z
x,-y,z
x,1/2+y,1/2+z
-x,1/2-y,1/2+z
x,1/2-y,1/2-z
-x,1/2+y,1/2-z
-x,1/2-y,1/2-z
x,1/2+y,1/2-z
-x,1/2+y,1/2+z
x,1/2-y,1/2+z
1/2+x,y,1/2+z
1/2-x,-y,1/2+z
1/2+x,-y,1/2-z
1/2-x,y,1/2-z
1/2-x,-y,1/2-z
1/2+x,y,1/2-z
1/2-x,y,1/2+z
1/2+x,-y,1/2+z
1/2+x,1/2+y,z
1/2-x,1/2-y,z
1/2+x,1/2-y,-z
1/2-x,1/2+y,-z
1/2-x,1/2-y,-z
1/2+x,1/2+y,-z
1/2-x,1/2+y,z
1/2+x,1/2-y,z
loop_
_atom_site_type_symbol
_atom_site_label
_atom_site_fract_x
_atom_site_fract_y
_atom_site_fract_z
Si Si1 0.851167 0.828734 0.231258
Si Si2 0.398902 0.935296 0.500000
Si Si3 0.253096 0.063300 0.082884
Si Si4 0.895616 0.344730 0.937645
Si Si5 0.180016 0.941150 0.798705
Si Si6 0.599557 0.230058 0.161959
O O1 0.750000 0.836529 0.250000
O O2 0.886754 0.889035 0.211419
O O3 0.908734 0.809184 0.283813
O O4 0.847888 0.785397 0.179941
O O5 0.500000 0.907979 0.500000
O O6 0.339995 0.917083 0.553509
O O7 0.413284 0.000000 0.500000
O O8 0.337990 0.099566 0.064346
O O9 0.240420 0.071288 0.147847
O O10 0.274513 0.000000 0.066496
O O11 0.857943 0.300919 0.891701
O O12 0.000000 0.358970 0.923905
O O13 0.887336 0.319491 0.000000
O O14 0.250000 0.948296 0.750000
O O15 0.126987 0.000000 0.805686
O O16 0.500000 0.249001 0.145305
#
# Coordination Sequence:
#
# PCOD8284054 Si02
#       6
#    32  16  32  32  32  32
#     4  10  18  32  57  80 105 139 188 233 270 331
#     4   9  18  34  55  77 102 143 200 246 278 327
#     4  10  19  34  56  79 111 152 190 231 284 340
#     4  10  20  33  52  81 114 146 185 233 285 340
#     4   9  18  32  54  84 114 144 180 228 286 344
#     4  10  20  34  53  77 108 147 186 228 277 328
#
# _framework density 20.279848999999999
#
# number of rings (size 3 to 8) (size 9 to 14) (size 15 to 20)
#    0.000    2.273    0.909    4.364    0.000    0.364 
#    0.000    2.727    2.000    9.818    0.000    5.091 
#    0.000    0.000    0.000    0.000    0.000    0.000 
#
# Total GULP energy -545085.935995 kJ/mol
# GULP energy per Si atom -12388.316727 kJ/mol
# Density = 2.023369 g / cm^3
# Si number density = 20.279849 Si / 1000 Ang^3
#
#
#
# Elastic Constant Matrix: (Units=GPa)
#
#
# Indices 1 2 3 4 5 6 
#
# 1 74.8388 29.3897 28.0560 0.0000 0.0000 0.0000
# 2 29.3897 164.4832 53.4944 0.0000 0.0000 0.0000
# 3 28.0560 53.4944 144.1033 0.0000 0.0000 0.0000
# 4 0.0000 0.0000 0.0000 32.0305 0.0000 0.0000
# 5 0.0000 0.0000 0.0000 0.0000 21.3593 0.0000
# 6 0.0000 0.0000 0.0000 0.0000 0.0000 280.6271
#
#
#
# Elastic Compliance Matrix: (Units=1/GPa)
#
#
# Indices 1 2 3 4 5 6 
#
# 1 0.014951 -0.001962 -0.002183 0.000000 0.000000 0.000000
# 2 -0.001962 0.007172 -0.002280 0.000000 0.000000 0.000000
# 3 -0.002183 -0.002280 0.008211 0.000000 0.000000 0.000000
# 4 0.000000 0.000000 0.000000 0.031220 0.000000 0.000000
# 5 0.000000 0.000000 0.000000 0.000000 0.046818 0.000000
# 6 0.000000 0.000000 0.000000 0.000000 0.000000 0.003563
#
#
# Mechanical properties :
#
#
# Convention : Reuss Voigt Hill
#
# Bulk Modulus (GPa) = 57.19453 67.25615 62.22534
# Shear Modulus (GPa) = 38.28124 84.96906 61.62515
#
# Velocity S-wave (km/s) = 4.34942 6.47991 5.51846
# Velocity P-wave (km/s) = 7.31349 9.44572 8.44715
#
# Compressibility (1/GPa) = 0.01748419
#
# Stress axis : x y z
#
# Youngs Moduli (GPa) = 66.88705 139.43524 121.78842
#
# Poissons Ratio (x) = 0.27350 0.26582
# Poissons Ratio (y) = 0.13120 0.27773
# Poissons Ratio (z) = 0.14599 0.31797
#
# Static dielectric constant tensor:
#      x y z
#    x 3.419350 0.000000 0.000000 
#    y 0.000000 4.244730 0.000000 
#    z 0.000000 0.000000 3.932900 
# 
# 
# High freq. dielectric constant tensor:
#      x y z
#    x 1.761960 0.000000 0.000000 
#    y 0.000000 1.785730 0.000000 
#    z 0.000000 0.000000 1.803020 
# 
# From -- ./inp_files/36060.got.cif
#   From: 2010.03.12/outbox.cif.g09.slc.cpg/sg69_19_cif.got.tgz:36060.got - 2010.04.10 23:52:46.
