data_PCOD8284868
_publ_section_title
;
Structure prediction by ZEFSAII (Michael W. Deem and Ramdas Pophale) SiO2 
 PCOD8284868
Probable space group: F M M M
;
_chemical_formula_sum "Si O2"
_cell_formula_units_Z 224
_cell_length_a 18.253641
_cell_length_b 31.761907
_cell_length_c 20.286431
_cell_angle_alpha 90.000000
_cell_angle_beta 90.000000
_cell_angle_gamma 90.000000
_cell_volume 11761.473186
_symmetry_space_group_name_H-M "F M M M"
_symmetry_group_IT_number 69
_symmetry_cell_setting 'orthorhombic'
loop_
_space_group_symop_operation_xyz
x,y,z
-x,-y,z
x,-y,-z
-x,y,-z
-x,-y,-z
x,y,-z
-x,y,z
x,-y,z
x,1/2+y,1/2+z
-x,1/2-y,1/2+z
x,1/2-y,1/2-z
-x,1/2+y,1/2-z
-x,1/2-y,1/2-z
x,1/2+y,1/2-z
-x,1/2+y,1/2+z
x,1/2-y,1/2+z
1/2+x,y,1/2+z
1/2-x,-y,1/2+z
1/2+x,-y,1/2-z
1/2-x,y,1/2-z
1/2-x,-y,1/2-z
1/2+x,y,1/2-z
1/2-x,y,1/2+z
1/2+x,-y,1/2+z
1/2+x,1/2+y,z
1/2-x,1/2-y,z
1/2+x,1/2-y,-z
1/2-x,1/2+y,-z
1/2-x,1/2-y,-z
1/2+x,1/2+y,-z
1/2-x,1/2+y,z
1/2+x,1/2-y,z
loop_
_atom_site_type_symbol
_atom_site_label
_atom_site_fract_x
_atom_site_fract_y
_atom_site_fract_z
Si Si1 0.685002 0.584787 0.425009
Si Si2 0.328475 0.731925 0.076576
Si Si3 0.087045 0.128290 0.320330
Si Si4 0.328513 0.634808 0.073749
Si Si5 0.417352 0.909510 0.685665
Si Si6 0.237603 0.000000 0.077390
Si Si7 0.086504 0.775726 0.313156
Si Si8 0.581634 0.000000 0.641286
O O1 0.656766 0.577850 0.500000
O O2 0.618273 0.601173 0.380893
O O3 0.744428 0.621601 0.423151
O O4 0.720862 0.541685 0.395789
O O5 0.250000 0.750000 0.097515
O O6 0.332204 0.683086 0.094236
O O7 0.391047 0.753878 0.118965
O O8 0.344561 0.740996 0.000000
O O9 0.117191 0.107549 0.253111
O O10 0.115330 0.176350 0.316920
O O11 0.000000 0.125584 0.326780
O O12 0.375688 0.606648 0.121942
O O13 0.359631 0.627645 0.000000
O O14 0.500000 0.892763 0.679394
O O15 0.412977 0.959828 0.688671
O O16 0.150646 0.000000 0.092134
O O17 0.243090 0.000000 0.000000
O O18 0.119003 0.750000 0.250000
O O19 0.000000 0.775564 0.308173
O O20 0.500000 0.000000 0.605809
#
# Coordination Sequence:
#
# PCOD8284868 Si02
#       8
#    32  32  32  32  32  16  32  16
#     4  10  21  38  59  84 114 148 191 238 284 338
#     4  10  21  36  55  81 112 146 186 233 285 338
#     4  10  22  39  59  82 111 150 193 240 289 334
#     4  10  20  35  56  81 114 151 183 227 283 341
#     4  10  21  37  56  84 118 148 185 227 273 339
#     4  10  20  38  60  87 121 153 187 232 282 336
#     4  10  21  38  59  82 111 148 190 239 290 338
#     4  10  20  36  59  86 119 155 185 226 279 336
#
# _framework density 19.045233
#
# number of rings (size 3 to 8) (size 9 to 14) (size 15 to 20)
#    0.000    2.000    1.429    1.714    0.000    5.857 
#    0.000    8.929    0.000    1.286    0.000    0.000 
#    0.000    0.000    0.000    0.000    0.000    0.000 
#
# Total GULP energy -694331.593801 kJ/mol
# GULP energy per Si atom -12398.778461 kJ/mol
# Density = 1.900188 g / cm^3
# Si number density = 19.045233 Si / 1000 Ang^3
#
#
#
# Elastic Constant Matrix: (Units=GPa)
#
#
# Indices 1 2 3 4 5 6 
#
# 1 46.9511 41.4675 36.2151 0.0000 0.0000 0.0000
# 2 41.4675 145.9251 60.5289 0.0000 0.0000 0.0000
# 3 36.2151 60.5289 96.5889 0.0000 0.0000 0.0000
# 4 0.0000 0.0000 0.0000 29.4554 0.0000 0.0000
# 5 0.0000 0.0000 0.0000 0.0000 -122.5965 0.0000
# 6 0.0000 0.0000 0.0000 0.0000 0.0000 31.4351
#
#
#
# Elastic Compliance Matrix: (Units=1/GPa)
#
#
# Indices 1 2 3 4 5 6 
#
# 1 0.033212 -0.005773 -0.008835 0.000000 0.000000 0.000000
# 2 -0.005773 0.010263 -0.004267 0.000000 0.000000 0.000000
# 3 -0.008835 -0.004267 0.016340 0.000000 0.000000 0.000000
# 4 0.000000 0.000000 0.000000 0.033950 0.000000 0.000000
# 5 0.000000 0.000000 0.000000 0.000000 -0.008157 0.000000
# 6 0.000000 0.000000 0.000000 0.000000 0.000000 0.031812
#
#
# Mechanical properties :
#
#
# Convention : Reuss Voigt Hill
#
# Bulk Modulus (GPa) = 45.32022 62.87645 54.09834
# Shear Modulus (GPa) = 30.76447 -2.25764 14.25341
#
# Velocity S-wave (km/s) = 4.02349 -1.08995 2.73865
# Velocity P-wave (km/s) = 6.74035 5.61266 6.20219
#
# Compressibility (1/GPa) = 0.02206521
#
# Stress axis : x y z
#
# Youngs Moduli (GPa) = 30.10923 97.43363 61.20086
#
# Poissons Ratio (x) = 0.56252 0.54069
# Poissons Ratio (y) = 0.17383 0.26115
# Poissons Ratio (z) = 0.26601 0.41575
#
# Static dielectric constant tensor:
#      x y z
#    x 3.324430 0.000000 0.000000 
#    y 0.000000 3.932960 0.000000 
#    z 0.000000 0.000000 3.457560 
# 
# 
# High freq. dielectric constant tensor:
#      x y z
#    x 1.725900 0.000000 0.000000 
#    y 0.000000 1.761290 0.000000 
#    z 0.000000 0.000000 1.735110 
# 
# From -- ./inp_files/31210.got.cif
#   From: 2010.03.12/outbox.cif.g09.slc.cpg/sg69_16_cif.got.tgz:31210.got - 2010.04.10 23:52:46.
