data_PCOD8284588
_publ_section_title
;
Structure prediction by ZEFSAII (Michael W. Deem and Ramdas Pophale) SiO2 
 PCOD8284588
Probable space group: F M M M
;
_chemical_formula_sum "Si O2"
_cell_formula_units_Z 160
_cell_length_a 10.468812
_cell_length_b 26.907139
_cell_length_c 33.088160
_cell_angle_alpha 90.000000
_cell_angle_beta 90.000000
_cell_angle_gamma 90.000000
_cell_volume 9320.464147
_symmetry_space_group_name_H-M "F M M M"
_symmetry_group_IT_number 69
_symmetry_cell_setting 'orthorhombic'
loop_
_space_group_symop_operation_xyz
x,y,z
-x,-y,z
x,-y,-z
-x,y,-z
-x,-y,-z
x,y,-z
-x,y,z
x,-y,z
x,1/2+y,1/2+z
-x,1/2-y,1/2+z
x,1/2-y,1/2-z
-x,1/2+y,1/2-z
-x,1/2-y,1/2-z
x,1/2+y,1/2-z
-x,1/2+y,1/2+z
x,1/2-y,1/2+z
1/2+x,y,1/2+z
1/2-x,-y,1/2+z
1/2+x,-y,1/2-z
1/2-x,y,1/2-z
1/2-x,-y,1/2-z
1/2+x,y,1/2-z
1/2-x,y,1/2+z
1/2+x,-y,1/2+z
1/2+x,1/2+y,z
1/2-x,1/2-y,z
1/2+x,1/2-y,-z
1/2-x,1/2+y,-z
1/2-x,1/2-y,-z
1/2+x,1/2+y,-z
1/2-x,1/2+y,z
1/2+x,1/2-y,z
loop_
_atom_site_type_symbol
_atom_site_label
_atom_site_fract_x
_atom_site_fract_y
_atom_site_fract_z
Si Si1 0.500000 0.443593 0.044255
Si Si2 0.351379 0.207215 0.452909
Si Si3 0.732646 0.059020 0.841978
Si Si4 0.000000 0.058677 0.286220
Si Si5 0.259685 0.896261 0.424766
Si Si6 0.000000 0.558785 0.696132
Si Si7 0.643840 0.554619 0.500000
O O1 0.500000 0.500000 0.033682
O O2 0.618348 0.431026 0.071778
O O3 0.500000 0.415172 0.000000
O O4 0.342283 0.193614 0.500000
O O5 0.500000 0.221218 0.442158
O O6 0.250000 0.250000 0.441865
O O7 0.304054 0.160706 0.426679
O O8 0.628225 0.075759 0.809089
O O9 0.695861 0.090080 0.882084
O O10 0.872661 0.076204 0.827097
O O11 0.725816 0.000000 0.850522
O O12 0.000000 0.082078 0.241277
O O13 0.000000 0.000000 0.282684
O O14 0.167513 0.911097 0.461245
O O15 0.000000 0.500000 0.699746
O O16 0.717927 0.500000 0.500000
O O17 0.500000 0.539205 0.500000
#
# Coordination Sequence:
#
# PCOD8284588 Si02
#       7
#    16  32  32  16  32  16  16
#     4  11  19  29  49  72  98 136 178 211 251 304
#     4  10  21  39  58  76  99 134 183 235 281 323
#     4  10  20  31  49  77 108 141 177 219 259 311
#     4   9  18  33  50  69 103 146 181 212 256 310
#     4  12  21  35  52  75 106 139 182 224 268 315
#     4   9  17  32  51  73 101 140 179 214 261 314
#     4  11  24  35  46  69 110 158 188 213 253 318
#
# _framework density 17.166526999999999
#
# number of rings (size 3 to 8) (size 9 to 14) (size 15 to 20)
#    0.000    1.600    3.000    3.000    1.400    4.000 
#    0.000    0.000    0.000    0.000    0.000    0.000 
#    0.000    4.800    0.000    0.000    0.000    0.000 
#
# Total GULP energy -495767.071362 kJ/mol
# GULP energy per Si atom -12394.176784 kJ/mol
# Density = 1.712746 g / cm^3
# Si number density = 17.166527 Si / 1000 Ang^3
#
#
#
# Elastic Constant Matrix: (Units=GPa)
#
#
# Indices 1 2 3 4 5 6 
#
# 1 99.6170 32.8691 32.4473 0.0000 0.0000 0.0000
# 2 32.8691 71.6697 28.4560 0.0000 0.0000 0.0000
# 3 32.4473 28.4560 113.5727 0.0000 0.0000 0.0000
# 4 0.0000 0.0000 0.0000 13.0490 0.0000 0.0000
# 5 0.0000 0.0000 0.0000 0.0000 1.6625 0.0000
# 6 0.0000 0.0000 0.0000 0.0000 0.0000 18.8859
#
#
#
# Elastic Compliance Matrix: (Units=1/GPa)
#
#
# Indices 1 2 3 4 5 6 
#
# 1 0.012366 -0.004740 -0.002345 0.000000 0.000000 0.000000
# 2 -0.004740 0.017311 -0.002983 0.000000 0.000000 0.000000
# 3 -0.002345 -0.002983 0.010222 0.000000 0.000000 0.000000
# 4 0.000000 0.000000 0.000000 0.076634 0.000000 0.000000
# 5 0.000000 0.000000 0.000000 0.000000 0.601500 0.000000
# 6 0.000000 0.000000 0.000000 0.000000 0.000000 0.052950
#
#
# Mechanical properties :
#
#
# Convention : Reuss Voigt Hill
#
# Bulk Modulus (GPa) = 50.60048 52.48938 51.54493
# Shear Modulus (GPa) = 6.26795 19.45861 12.86328
#
# Velocity S-wave (km/s) = 1.91290 3.37043 2.74035
# Velocity P-wave (km/s) = 5.86678 6.76679 6.33279
#
# Compressibility (1/GPa) = 0.01976266
#
# Stress axis : x y z
#
# Youngs Moduli (GPa) = 80.86391 57.76566 97.82416
#
# Poissons Ratio (x) = 0.27383 0.22943
# Poissons Ratio (y) = 0.38332 0.29182
# Poissons Ratio (z) = 0.18965 0.17232
#
# Static dielectric constant tensor:
#      x y z
#    x 3.418220 0.000000 0.000000 
#    y 0.000000 2.830540 0.000000 
#    z 0.000000 0.000000 3.334840 
# 
# 
# High freq. dielectric constant tensor:
#      x y z
#    x 1.678670 0.000000 0.000000 
#    y 0.000000 1.613640 0.000000 
#    z 0.000000 0.000000 1.653040 
# 
# From -- ./inp_files/45108.got.cif
#   From: 2010.03.12/outbox.cif.g09.slc.cpg/sg69_23_cif.got.tgz:45108.got - 2010.04.10 23:52:46.
