data_PCOD8284894
_publ_section_title
;
Structure prediction by ZEFSAII (Michael W. Deem and Ramdas Pophale) SiO2 
 PCOD8284894
Probable space group: F M M M
;
_chemical_formula_sum "Si O2"
_cell_formula_units_Z 192
_cell_length_a 16.527376
_cell_length_b 25.771090
_cell_length_c 23.504895
_cell_angle_alpha 90.000000
_cell_angle_beta 90.000000
_cell_angle_gamma 90.000000
_cell_volume 10011.404537
_symmetry_space_group_name_H-M "F M M M"
_symmetry_group_IT_number 69
_symmetry_cell_setting 'orthorhombic'
loop_
_space_group_symop_operation_xyz
x,y,z
-x,-y,z
x,-y,-z
-x,y,-z
-x,-y,-z
x,y,-z
-x,y,z
x,-y,z
x,1/2+y,1/2+z
-x,1/2-y,1/2+z
x,1/2-y,1/2-z
-x,1/2+y,1/2-z
-x,1/2-y,1/2-z
x,1/2+y,1/2-z
-x,1/2+y,1/2+z
x,1/2-y,1/2+z
1/2+x,y,1/2+z
1/2-x,-y,1/2+z
1/2+x,-y,1/2-z
1/2-x,y,1/2-z
1/2-x,-y,1/2-z
1/2+x,y,1/2-z
1/2-x,y,1/2+z
1/2+x,-y,1/2+z
1/2+x,1/2+y,z
1/2-x,1/2-y,z
1/2+x,1/2-y,-z
1/2-x,1/2+y,-z
1/2-x,1/2-y,-z
1/2+x,1/2+y,-z
1/2-x,1/2+y,z
1/2+x,1/2-y,z
loop_
_atom_site_type_symbol
_atom_site_label
_atom_site_fract_x
_atom_site_fract_y
_atom_site_fract_z
Si Si1 0.750000 0.750000 0.613945
Si Si2 0.908363 0.560734 0.249453
Si Si3 0.658299 0.438678 0.370601
Si Si4 0.090493 0.737764 0.315071
Si Si5 0.274765 0.138321 0.565809
Si Si6 0.910676 0.622782 0.353598
Si Si7 0.500000 0.938908 0.937241
O O1 0.832790 0.759417 0.649550
O O2 0.745718 0.801258 0.575112
O O3 0.911124 0.500000 0.256435
O O4 0.852596 0.575283 0.195764
O O5 0.870262 0.583616 0.307610
O O6 0.000000 0.582215 0.240270
O O7 0.677676 0.500000 0.379635
O O8 0.726046 0.401882 0.395734
O O9 0.577859 0.420978 0.402987
O O10 0.107808 0.750000 0.250000
O O11 0.088777 0.676590 0.320746
O O12 0.000000 0.759487 0.333626
O O13 0.264402 0.124176 0.500000
O O14 0.365817 0.127404 0.586235
O O15 0.000000 0.603182 0.369329
O O16 0.500000 0.000000 0.943219
O O17 0.500000 0.913041 0.000000
#
# Coordination Sequence:
#
# PCOD8284894 Si02
#       7
#    16  32  32  32  32  32  16
#     4  10  22  40  58  80 114 153 197 242 294 346
#     4   9  17  33  57  85 118 149 180 226 286 348
#     4  10  20  35  57  85 116 153 190 230 286 345
#     4   9  18  34  57  84 113 145 182 232 290 347
#     4  11  24  40  58  80 112 153 196 245 289 337
#     4   9  20  37  58  82 107 143 188 232 286 344
#     4   9  16  30  52  78 114 155 189 221 268 337
#
# _framework density 19.178128999999998
#
# number of rings (size 3 to 8) (size 9 to 14) (size 15 to 20)
#    0.000    2.417    0.833    1.000    2.333    2.667 
#    1.500    1.667    0.000    1.000    0.000    3.500 
#    0.000    0.000    0.000    0.000    0.000    0.000 
#
# Total GULP energy -594795.993300 kJ/mol
# GULP energy per Si atom -12391.583194 kJ/mol
# Density = 1.913448 g / cm^3
# Si number density = 19.178129 Si / 1000 Ang^3
#
#
#
# Elastic Constant Matrix: (Units=GPa)
#
#
# Indices 1 2 3 4 5 6 
#
# 1 91.8930 30.1264 43.6170 0.0000 0.0000 0.0000
# 2 30.1264 49.8126 34.3487 0.0000 0.0000 0.0000
# 3 43.6170 34.3487 99.5938 0.0000 0.0000 0.0000
# 4 0.0000 0.0000 0.0000 26.9824 0.0000 0.0000
# 5 0.0000 0.0000 0.0000 0.0000 6.5110 0.0000
# 6 0.0000 0.0000 0.0000 0.0000 0.0000 23.0109
#
#
#
# Elastic Compliance Matrix: (Units=1/GPa)
#
#
# Indices 1 2 3 4 5 6 
#
# 1 0.014970 -0.005948 -0.004505 0.000000 0.000000 0.000000
# 2 -0.005948 0.028702 -0.007294 0.000000 0.000000 0.000000
# 3 -0.004505 -0.007294 0.014529 0.000000 0.000000 0.000000
# 4 0.000000 0.000000 0.000000 0.037061 0.000000 0.000000
# 5 0.000000 0.000000 0.000000 0.000000 0.153587 0.000000
# 6 0.000000 0.000000 0.000000 0.000000 0.000000 0.043458
#
#
# Mechanical properties :
#
#
# Convention : Reuss Voigt Hill
#
# Bulk Modulus (GPa) = 44.03685 50.83154 47.43420
# Shear Modulus (GPa) = 14.90886 20.18133 17.54510
#
# Velocity S-wave (km/s) = 2.79119 3.24745 3.02793
# Velocity P-wave (km/s) = 5.77923 6.37368 6.08372
#
# Compressibility (1/GPa) = 0.02270825
#
# Stress axis : x y z
#
# Youngs Moduli (GPa) = 66.79845 34.84056 68.82557
#
# Poissons Ratio (x) = 0.20722 0.31006
# Poissons Ratio (y) = 0.39729 0.50204
# Poissons Ratio (z) = 0.30093 0.25414
#
# Static dielectric constant tensor:
#      x y z
#    x 4.122420 0.000000 0.000000 
#    y 0.000000 3.395520 0.000000 
#    z 0.000000 0.000000 3.533820 
# 
# 
# High freq. dielectric constant tensor:
#      x y z
#    x 1.749580 0.000000 0.000000 
#    y 0.000000 1.735840 0.000000 
#    z 0.000000 0.000000 1.739210 
# 
# From -- ./inp_files/36081.got.cif
#   From: 2010.03.12/outbox.cif.g09.slc.cpg/sg69_19_cif.got.tgz:36081.got - 2010.04.10 23:52:46.
