data_PCOD8284590
_publ_section_title
;
Structure prediction by ZEFSAII (Michael W. Deem and Ramdas Pophale) SiO2 
 PCOD8284590
Probable space group: F M M M
;
_chemical_formula_sum "Si O2"
_cell_formula_units_Z 160
_cell_length_a 29.507166
_cell_length_b 18.240770
_cell_length_c 15.760121
_cell_angle_alpha 90.000000
_cell_angle_beta 90.000000
_cell_angle_gamma 90.000000
_cell_volume 8482.623957
_symmetry_space_group_name_H-M "F M M M"
_symmetry_group_IT_number 69
_symmetry_cell_setting 'orthorhombic'
loop_
_space_group_symop_operation_xyz
x,y,z
-x,-y,z
x,-y,-z
-x,y,-z
-x,-y,-z
x,y,-z
-x,y,z
x,-y,z
x,1/2+y,1/2+z
-x,1/2-y,1/2+z
x,1/2-y,1/2-z
-x,1/2+y,1/2-z
-x,1/2-y,1/2-z
x,1/2+y,1/2-z
-x,1/2+y,1/2+z
x,1/2-y,1/2+z
1/2+x,y,1/2+z
1/2-x,-y,1/2+z
1/2+x,-y,1/2-z
1/2-x,y,1/2-z
1/2-x,-y,1/2-z
1/2+x,y,1/2-z
1/2-x,y,1/2+z
1/2+x,-y,1/2+z
1/2+x,1/2+y,z
1/2-x,1/2-y,z
1/2+x,1/2-y,-z
1/2-x,1/2+y,-z
1/2-x,1/2-y,-z
1/2+x,1/2+y,-z
1/2-x,1/2+y,z
1/2+x,1/2-y,z
loop_
_atom_site_type_symbol
_atom_site_label
_atom_site_fract_x
_atom_site_fract_y
_atom_site_fract_z
Si Si1 0.799617 0.913669 0.837282
Si Si2 0.947320 0.809359 0.500000
Si Si3 0.135656 0.912584 0.500000
Si Si4 0.299541 0.087025 0.852257
Si Si5 0.947245 0.712571 0.664070
Si Si6 0.606511 0.416314 0.096293
O O1 0.751616 0.883649 0.873455
O O2 0.811031 0.884640 0.742419
O O3 0.840822 0.891624 0.898680
O O4 0.793954 0.000000 0.830184
O O5 0.914992 0.880010 0.500000
O O6 0.935822 0.762146 0.583036
O O7 0.000000 0.834687 0.500000
O O8 0.163497 0.882360 0.418424
O O9 0.130370 0.000000 0.500000
O O10 0.301052 0.000000 0.859462
O O11 0.929163 0.750000 0.750000
O O12 0.923589 0.633843 0.656648
O O13 0.000000 0.696257 0.671178
O O14 0.601014 0.500000 0.128085
O O15 0.589845 0.408074 0.000000
#
# Coordination Sequence:
#
# PCOD8284590 Si02
#       6
#    32  16  16  32  32  32
#     4   8  15  28  47  74 110 143 175 220 273 323
#     4  10  22  41  58  77 109 146 190 234 280 345
#     4  10  20  31  53  84 108 141 188 230 270 316
#     4   8  15  28  46  73 108 145 180 218 264 323
#     4  10  22  41  61  79 106 150 190 223 280 351
#     4  10  20  33  57  90 115 139 179 237 290 327
#
# _framework density 18.862089000000001
#
# number of rings (size 3 to 8) (size 9 to 14) (size 15 to 20)
#    0.000    2.800    1.000    1.200    4.200    0.600 
#    0.000    1.000    0.000    6.000    0.000    0.000 
#    0.000    0.000    0.000    0.000    0.000    0.000 
#
# Total GULP energy -495758.618668 kJ/mol
# GULP energy per Si atom -12393.965467 kJ/mol
# Density = 1.881916 g / cm^3
# Si number density = 18.862089 Si / 1000 Ang^3
#
#
#
# Elastic Constant Matrix: (Units=GPa)
#
#
# Indices 1 2 3 4 5 6 
#
# 1 97.9151 53.5929 46.5050 0.0000 0.0000 0.0000
# 2 53.5929 65.5584 40.2874 0.0000 0.0000 0.0000
# 3 46.5050 40.2874 106.6862 0.0000 0.0000 0.0000
# 4 0.0000 0.0000 0.0000 21.4192 0.0000 0.0000
# 5 0.0000 0.0000 0.0000 0.0000 25.9378 0.0000
# 6 0.0000 0.0000 0.0000 0.0000 0.0000 9.6925
#
#
#
# Elastic Compliance Matrix: (Units=1/GPa)
#
#
# Indices 1 2 3 4 5 6 
#
# 1 0.019284 -0.013802 -0.003194 0.000000 0.000000 0.000000
# 2 -0.013802 0.029741 -0.005215 0.000000 0.000000 0.000000
# 3 -0.003194 -0.005215 0.012735 0.000000 0.000000 0.000000
# 4 0.000000 0.000000 0.000000 0.046687 0.000000 0.000000
# 5 0.000000 0.000000 0.000000 0.000000 0.038554 0.000000
# 6 0.000000 0.000000 0.000000 0.000000 0.000000 0.103173
#
#
# Mechanical properties :
#
#
# Convention : Reuss Voigt Hill
#
# Bulk Modulus (GPa) = 57.67420 61.21448 59.44434
# Shear Modulus (GPa) = 16.64593 20.06153 18.35373
#
# Velocity S-wave (km/s) = 2.97393 3.26481 3.12276
# Velocity P-wave (km/s) = 6.51425 6.83638 6.67726
#
# Compressibility (1/GPa) = 0.01733877
#
# Stress axis : x y z
#
# Youngs Moduli (GPa) = 51.85593 33.62403 78.52468
#
# Poissons Ratio (x) = 0.46406 0.25083
# Poissons Ratio (y) = 0.71569 0.40948
# Poissons Ratio (z) = 0.16564 0.17534
#
# Static dielectric constant tensor:
#      x y z
#    x 3.601040 0.000000 0.000000 
#    y 0.000000 2.958430 0.000000 
#    z 0.000000 0.000000 3.620970 
# 
# 
# High freq. dielectric constant tensor:
#      x y z
#    x 1.738110 0.000000 0.000000 
#    y 0.000000 1.681550 0.000000 
#    z 0.000000 0.000000 1.738370 
# 
# From -- ./inp_files/19610.got.cif
#   From: 2010.03.12/outbox.cif.g09.slc.cpg/sg69_10_cif.got.tgz:19610.got - 2010.04.10 23:52:46.
