data_PCOD8284270
_publ_section_title
;
Structure prediction by ZEFSAII (Michael W. Deem and Ramdas Pophale) SiO2 
 PCOD8284270
Probable space group: F M M M
;
_chemical_formula_sum "Si O2"
_cell_formula_units_Z 144
_cell_length_a 17.898361
_cell_length_b 24.633672
_cell_length_c 18.201078
_cell_angle_alpha 90.000000
_cell_angle_beta 90.000000
_cell_angle_gamma 90.000000
_cell_volume 8024.898139
_symmetry_space_group_name_H-M "F M M M"
_symmetry_group_IT_number 69
_symmetry_cell_setting 'orthorhombic'
loop_
_space_group_symop_operation_xyz
x,y,z
-x,-y,z
x,-y,-z
-x,y,-z
-x,-y,-z
x,y,-z
-x,y,z
x,-y,z
x,1/2+y,1/2+z
-x,1/2-y,1/2+z
x,1/2-y,1/2-z
-x,1/2+y,1/2-z
-x,1/2-y,1/2-z
x,1/2+y,1/2-z
-x,1/2+y,1/2+z
x,1/2-y,1/2+z
1/2+x,y,1/2+z
1/2-x,-y,1/2+z
1/2+x,-y,1/2-z
1/2-x,y,1/2-z
1/2-x,-y,1/2-z
1/2+x,y,1/2-z
1/2-x,y,1/2+z
1/2+x,-y,1/2+z
1/2+x,1/2+y,z
1/2-x,1/2-y,z
1/2+x,1/2-y,-z
1/2-x,1/2+y,-z
1/2-x,1/2-y,-z
1/2+x,1/2+y,-z
1/2-x,1/2+y,z
1/2+x,1/2-y,z
loop_
_atom_site_type_symbol
_atom_site_label
_atom_site_fract_x
_atom_site_fract_y
_atom_site_fract_z
Si Si1 0.179032 0.659295 0.912635
Si Si2 0.416255 0.940192 0.912671
Si Si3 0.588708 0.561801 0.000000
Si Si4 0.085422 0.750898 0.835360
Si Si5 0.848569 0.655029 0.581279
O O1 0.138573 0.605598 0.880836
O O2 0.141641 0.712045 0.878124
O O3 0.264666 0.655421 0.887155
O O4 0.171499 0.662742 0.000000
O O5 0.500000 0.927751 0.884578
O O6 0.390786 0.000000 0.884992
O O7 0.414748 0.939128 0.000000
O O8 0.620630 0.593024 0.072515
O O9 0.618086 0.500000 0.000000
O O10 0.500000 0.564158 0.000000
O O11 0.104827 0.750000 0.750000
O O12 0.097768 0.811970 0.864473
O O13 0.000000 0.733246 0.850039
O O14 0.849566 0.682768 0.500000
#
# Coordination Sequence:
#
# PCOD8284270 Si02
#       5
#    32  32  16  32  32
#     4  10  19  32  50  79 107 137 174 214 263 323
#     4   8  14  25  43  69 101 134 165 201 246 299
#     4   9  18  34  57  82 107 139 177 220 270 316
#     4  11  23  36  52  74 104 145 185 220 265 318
#     4   9  20  34  53  80 107 136 173 224 270 313
#
# _framework density 17.944153
#
# number of rings (size 3 to 8) (size 9 to 14) (size 15 to 20)
#    0.667    1.889    0.000    3.333    0.000    6.667 
#    0.000    0.000    0.000    1.333    0.000    9.333 
#    0.000    0.000    0.000    0.000    0.000    0.000 
#
# Total GULP energy -446210.668137 kJ/mol
# GULP energy per Si atom -12394.740782 kJ/mol
# Density = 1.790331 g / cm^3
# Si number density = 17.944153 Si / 1000 Ang^3
#
#
#
# Elastic Constant Matrix: (Units=GPa)
#
#
# Indices 1 2 3 4 5 6 
#
# 1 91.1475 41.1032 24.8567 0.0000 0.0000 0.0000
# 2 41.1032 126.5143 30.8327 0.0000 0.0000 0.0000
# 3 24.8567 30.8327 41.0948 0.0000 0.0000 0.0000
# 4 0.0000 0.0000 0.0000 3.9231 0.0000 0.0000
# 5 0.0000 0.0000 0.0000 0.0000 7.6918 0.0000
# 6 0.0000 0.0000 0.0000 0.0000 0.0000 27.3137
#
#
#
# Elastic Compliance Matrix: (Units=1/GPa)
#
#
# Indices 1 2 3 4 5 6 
#
# 1 0.014038 -0.003049 -0.006203 0.000000 0.000000 0.000000
# 2 -0.003049 0.010335 -0.005910 0.000000 0.000000 0.000000
# 3 -0.006203 -0.005910 0.032520 0.000000 0.000000 0.000000
# 4 0.000000 0.000000 0.000000 0.254902 0.000000 0.000000
# 5 0.000000 0.000000 0.000000 0.000000 0.130009 0.000000
# 6 0.000000 0.000000 0.000000 0.000000 0.000000 0.036612
#
#
# Mechanical properties :
#
#
# Convention : Reuss Voigt Hill
#
# Bulk Modulus (GPa) = 37.63850 50.26021 43.94935
# Shear Modulus (GPa) = 9.66003 18.58332 14.12167
#
# Velocity S-wave (km/s) = 2.32273 3.22160 2.80836
# Velocity P-wave (km/s) = 5.31172 6.47366 5.92126
#
# Compressibility (1/GPa) = 0.02656854
#
# Stress axis : x y z
#
# Youngs Moduli (GPa) = 71.23584 96.75710 30.74989
#
# Poissons Ratio (x) = 0.29500 0.19075
# Poissons Ratio (y) = 0.21719 0.18174
# Poissons Ratio (z) = 0.44191 0.57185
#
# Static dielectric constant tensor:
#      x y z
#    x 3.411400 0.000000 0.000000 
#    y 0.000000 3.501230 0.000000 
#    z 0.000000 0.000000 2.852350 
# 
# 
# High freq. dielectric constant tensor:
#      x y z
#    x 1.706320 0.000000 0.000000 
#    y 0.000000 1.698860 0.000000 
#    z 0.000000 0.000000 1.641070 
# 
# From -- ./inp_files/24798.got.cif
#   From: 2010.03.12/outbox.cif.g09.slc.cpg/sg69_13_cif.got.tgz:24798.got - 2010.04.10 23:52:46.
