data_PCOD8284041
_publ_section_title
;
Structure prediction by ZEFSAII (Michael W. Deem and Ramdas Pophale) SiO2 
 PCOD8284041
Probable space group: F M M M
;
_chemical_formula_sum "Si O2"
_cell_formula_units_Z 208
_cell_length_a 27.743415
_cell_length_b 17.195700
_cell_length_c 24.075122
_cell_angle_alpha 90.000000
_cell_angle_beta 90.000000
_cell_angle_gamma 90.000000
_cell_volume 11485.456852
_symmetry_space_group_name_H-M "F M M M"
_symmetry_group_IT_number 69
_symmetry_cell_setting 'orthorhombic'
loop_
_space_group_symop_operation_xyz
x,y,z
-x,-y,z
x,-y,-z
-x,y,-z
-x,-y,-z
x,y,-z
-x,y,z
x,-y,z
x,1/2+y,1/2+z
-x,1/2-y,1/2+z
x,1/2-y,1/2-z
-x,1/2+y,1/2-z
-x,1/2-y,1/2-z
x,1/2+y,1/2-z
-x,1/2+y,1/2+z
x,1/2-y,1/2+z
1/2+x,y,1/2+z
1/2-x,-y,1/2+z
1/2+x,-y,1/2-z
1/2-x,y,1/2-z
1/2-x,-y,1/2-z
1/2+x,y,1/2-z
1/2-x,y,1/2+z
1/2+x,-y,1/2+z
1/2+x,1/2+y,z
1/2-x,1/2-y,z
1/2+x,1/2-y,-z
1/2-x,1/2+y,-z
1/2-x,1/2-y,-z
1/2+x,1/2+y,-z
1/2-x,1/2+y,z
1/2+x,1/2-y,z
loop_
_atom_site_type_symbol
_atom_site_label
_atom_site_fract_x
_atom_site_fract_y
_atom_site_fract_z
Si Si1 0.945331 0.328374 0.388861
Si Si2 0.130177 0.809303 0.800173
Si Si3 0.300027 0.206586 0.866888
Si Si4 0.803412 0.415196 0.769764
Si Si5 0.149354 0.915323 0.435086
Si Si6 0.447055 0.839238 0.935973
Si Si7 0.442961 0.910523 0.500000
O O1 0.916305 0.345004 0.331632
O O2 0.943784 0.236569 0.398306
O O3 0.922645 0.371518 0.443192
O O4 0.000000 0.357641 0.379059
O O5 0.116216 0.750000 0.750000
O O6 0.160480 0.769324 0.849415
O O7 0.161469 0.880313 0.776836
O O8 0.250000 0.250000 0.878925
O O9 0.297227 0.143918 0.819115
O O10 0.315867 0.156483 0.920081
O O11 0.824397 0.500000 0.787347
O O12 0.750000 0.428118 0.750000
O O13 0.151734 0.922670 0.500000
O O14 0.094298 0.898342 0.415819
O O15 0.164146 0.000000 0.409392
O O16 0.500000 0.878234 0.928412
O O17 0.439287 0.814343 0.000000
O O18 0.500000 0.898169 0.500000
O O19 0.427233 0.000000 0.500000
#
# Coordination Sequence:
#
# PCOD8284041 Si02
#       7
#    32  32  32  32  32  32  16
#     4  10  18  32  54  81 113 149 188 229 273 328
#     4  10  21  34  54  81 107 141 183 227 278 332
#     4  11  20  35  56  79 103 138 178 227 271 324
#     4  10  20  35  56  80 104 131 172 227 277 318
#     4  10  21  35  53  79 110 144 179 219 275 340
#     4   9  16  29  51  78 106 138 181 226 269 319
#     4   9  18  32  54  82 110 147 193 235 272 316
#
# _framework density 18.109857999999999
#
# number of rings (size 3 to 8) (size 9 to 14) (size 15 to 20)
#    0.000    2.077    3.846    0.462    0.000    1.538 
#    0.000    1.538    0.000    0.000    0.000    0.000 
#    0.000    0.000    0.000    0.000    0.000    0.000 
#
# Total GULP energy -644356.903322 kJ/mol
# GULP energy per Si atom -12391.478910 kJ/mol
# Density = 1.806864 g / cm^3
# Si number density = 18.109858 Si / 1000 Ang^3
#
#
#
# Elastic Constant Matrix: (Units=GPa)
#
#
# Indices 1 2 3 4 5 6 
#
# 1 97.2442 47.6708 47.2290 0.0000 0.0000 0.0000
# 2 47.6708 103.9568 29.5755 0.0000 0.0000 0.0000
# 3 47.2290 29.5755 62.8420 0.0000 0.0000 0.0000
# 4 0.0000 0.0000 0.0000 39.1558 0.0000 0.0000
# 5 0.0000 0.0000 0.0000 0.0000 29.6882 0.0000
# 6 0.0000 0.0000 0.0000 0.0000 0.0000 46.3377
#
#
#
# Elastic Compliance Matrix: (Units=1/GPa)
#
#
# Indices 1 2 3 4 5 6 
#
# 1 0.018329 -0.005179 -0.011337 0.000000 0.000000 0.000000
# 2 -0.005179 0.012570 -0.002023 0.000000 0.000000 0.000000
# 3 -0.011337 -0.002023 0.025386 0.000000 0.000000 0.000000
# 4 0.000000 0.000000 0.000000 0.025539 0.000000 0.000000
# 5 0.000000 0.000000 0.000000 0.000000 0.033683 0.000000
# 6 0.000000 0.000000 0.000000 0.000000 0.000000 0.021581
#
#
# Mechanical properties :
#
#
# Convention : Reuss Voigt Hill
#
# Bulk Modulus (GPa) = 52.07139 56.99930 54.53535
# Shear Modulus (GPa) = 27.69019 32.34084 30.01551
#
# Velocity S-wave (km/s) = 3.91450 4.23047 4.07555
# Velocity P-wave (km/s) = 7.01759 7.44346 7.23366
#
# Compressibility (1/GPa) = 0.01920440
#
# Stress axis : x y z
#
# Youngs Moduli (GPa) = 54.55921 79.55381 39.39216
#
# Poissons Ratio (x) = 0.41204 0.44660
# Poissons Ratio (y) = 0.28259 0.07970
# Poissons Ratio (z) = 0.61856 0.16096
#
# Static dielectric constant tensor:
#      x y z
#    x 3.147090 0.000000 0.000000 
#    y 0.000000 3.563860 0.000000 
#    z 0.000000 0.000000 3.270520 
# 
# 
# High freq. dielectric constant tensor:
#      x y z
#    x 1.687610 0.000000 0.000000 
#    y 0.000000 1.701710 0.000000 
#    z 0.000000 0.000000 1.689300 
# 
# From -- ./inp_files/25196.got.cif
#   From: 2010.03.12/outbox.cif.g09.slc.cpg/sg69_13_cif.got.tgz:25196.got - 2010.04.10 23:52:46.
