data_PCOD8284350
_publ_section_title
;
Structure prediction by ZEFSAII (Michael W. Deem and Ramdas Pophale) SiO2 
 PCOD8284350
Probable space group: F M M M
;
_chemical_formula_sum "Si O2"
_cell_formula_units_Z 144
_cell_length_a 8.783022
_cell_length_b 29.399075
_cell_length_c 31.015896
_cell_angle_alpha 90.000000
_cell_angle_beta 90.000000
_cell_angle_gamma 90.000000
_cell_volume 8008.698947
_symmetry_space_group_name_H-M "F M M M"
_symmetry_group_IT_number 69
_symmetry_cell_setting 'orthorhombic'
loop_
_space_group_symop_operation_xyz
x,y,z
-x,-y,z
x,-y,-z
-x,y,-z
-x,-y,-z
x,y,-z
-x,y,z
x,-y,z
x,1/2+y,1/2+z
-x,1/2-y,1/2+z
x,1/2-y,1/2-z
-x,1/2+y,1/2-z
-x,1/2-y,1/2-z
x,1/2+y,1/2-z
-x,1/2+y,1/2+z
x,1/2-y,1/2+z
1/2+x,y,1/2+z
1/2-x,-y,1/2+z
1/2+x,-y,1/2-z
1/2-x,y,1/2-z
1/2-x,-y,1/2-z
1/2+x,y,1/2-z
1/2-x,y,1/2+z
1/2+x,-y,1/2+z
1/2+x,1/2+y,z
1/2-x,1/2-y,z
1/2+x,1/2-y,-z
1/2-x,1/2+y,-z
1/2-x,1/2-y,-z
1/2+x,1/2+y,-z
1/2-x,1/2+y,z
1/2+x,1/2-y,z
loop_
_atom_site_type_symbol
_atom_site_label
_atom_site_fract_x
_atom_site_fract_y
_atom_site_fract_z
Si Si1 0.817888 0.798788 0.795435
Si Si2 0.179924 0.141191 0.125902
Si Si3 0.168938 0.446162 0.000000
Si Si4 0.679678 0.949444 0.412322
Si Si5 0.680077 0.298347 0.951810
O O1 0.750000 0.815138 0.750000
O O2 0.750000 0.750000 0.808502
O O3 0.759194 0.835424 0.830541
O O4 0.000000 0.795378 0.792650
O O5 0.227713 0.087648 0.124023
O O6 0.244630 0.166158 0.083297
O O7 0.000000 0.145703 0.125543
O O8 0.257375 0.430358 0.042552
O O9 0.160956 0.500000 0.000000
O O10 0.000000 0.424953 0.000000
O O11 0.500000 0.951775 0.417327
O O12 0.743435 0.000000 0.400346
O O13 0.500000 0.293793 0.948833
O O14 0.750000 0.250000 0.940099
O O15 0.729851 0.314087 0.000000
#
# Coordination Sequence:
#
# PCOD8284350 Si02
#       5
#    32  32  16  32  32
#     4  10  19  33  52  74  99 124 154 194 241 288
#     4   9  18  30  48  72  94 121 156 196 238 278
#     4   9  17  29  43  63  94 127 158 197 242 277
#     4   9  17  30  49  70  91 122 164 202 234 276
#     4   9  17  29  44  62  89 123 152 184 224 271
#
# _framework density 17.980449
#
# number of rings (size 3 to 8) (size 9 to 14) (size 15 to 20)
#    0.000    2.778    0.000    2.333    1.556    1.333 
#    0.000    4.444    0.000    0.667    0.000    0.000 
#    0.000    0.000    0.000    0.000    0.000    0.889 
#
# Total GULP energy -446146.842428 kJ/mol
# GULP energy per Si atom -12392.967845 kJ/mol
# Density = 1.793952 g / cm^3
# Si number density = 17.980449 Si / 1000 Ang^3
#
#
#
# Elastic Constant Matrix: (Units=GPa)
#
#
# Indices 1 2 3 4 5 6 
#
# 1 33.9339 23.0386 21.9406 0.0000 0.0000 0.0000
# 2 23.0386 128.3537 92.4860 0.0000 0.0000 0.0000
# 3 21.9406 92.4860 132.1263 0.0000 0.0000 0.0000
# 4 0.0000 0.0000 0.0000 29.9468 0.0000 0.0000
# 5 0.0000 0.0000 0.0000 0.0000 12.6762 0.0000
# 6 0.0000 0.0000 0.0000 0.0000 0.0000 15.8776
#
#
#
# Elastic Compliance Matrix: (Units=1/GPa)
#
#
# Indices 1 2 3 4 5 6 
#
# 1 0.034056 -0.004112 -0.002777 0.000000 0.000000 0.000000
# 2 -0.004112 0.016216 -0.010668 0.000000 0.000000 0.000000
# 3 -0.002777 -0.010668 0.015497 0.000000 0.000000 0.000000
# 4 0.000000 0.000000 0.000000 0.033393 0.000000 0.000000
# 5 0.000000 0.000000 0.000000 0.000000 0.078888 0.000000
# 6 0.000000 0.000000 0.000000 0.000000 0.000000 0.062982
#
#
# Mechanical properties :
#
#
# Convention : Reuss Voigt Hill
#
# Bulk Modulus (GPa) = 32.62071 63.26049 47.94060
# Shear Modulus (GPa) = 17.46028 22.16336 19.81182
#
# Velocity S-wave (km/s) = 3.11958 3.51470 3.32302
# Velocity P-wave (km/s) = 5.58188 7.19237 6.43768
#
# Compressibility (1/GPa) = 0.03065537
#
# Stress axis : x y z
#
# Youngs Moduli (GPa) = 29.36316 61.66771 64.52811
#
# Poissons Ratio (x) = 0.25357 0.17920
# Poissons Ratio (y) = 0.12074 0.68839
# Poissons Ratio (z) = 0.08154 0.65788
#
# Static dielectric constant tensor:
#      x y z
#    x 3.164440 0.000000 0.000000 
#    y 0.000000 3.574930 0.000000 
#    z 0.000000 0.000000 3.478980 
# 
# 
# High freq. dielectric constant tensor:
#      x y z
#    x 1.675160 0.000000 0.000000 
#    y 0.000000 1.694450 0.000000 
#    z 0.000000 0.000000 1.680270 
# 
# From -- ./inp_files/5629.got.cif
#   From: 2010.03.12/outbox.cif.g09.slc.cpg/sg69_3_cif.got.tgz:5629.got - 2010.04.10 23:52:46.
