data_PCOD8284904
_publ_section_title
;
Structure prediction by ZEFSAII (Michael W. Deem and Ramdas Pophale) SiO2 
 PCOD8284904
Probable space group: F M M M
;
_chemical_formula_sum "Si O2"
_cell_formula_units_Z 192
_cell_length_a 18.905508
_cell_length_b 20.635726
_cell_length_c 25.365250
_cell_angle_alpha 90.000000
_cell_angle_beta 90.000000
_cell_angle_gamma 90.000000
_cell_volume 9895.716649
_symmetry_space_group_name_H-M "F M M M"
_symmetry_group_IT_number 69
_symmetry_cell_setting 'orthorhombic'
loop_
_space_group_symop_operation_xyz
x,y,z
-x,-y,z
x,-y,-z
-x,y,-z
-x,-y,-z
x,y,-z
-x,y,z
x,-y,z
x,1/2+y,1/2+z
-x,1/2-y,1/2+z
x,1/2-y,1/2-z
-x,1/2+y,1/2-z
-x,1/2-y,1/2-z
x,1/2+y,1/2-z
-x,1/2+y,1/2+z
x,1/2-y,1/2+z
1/2+x,y,1/2+z
1/2-x,-y,1/2+z
1/2+x,-y,1/2-z
1/2-x,y,1/2-z
1/2-x,-y,1/2-z
1/2+x,y,1/2-z
1/2-x,y,1/2+z
1/2+x,-y,1/2+z
1/2+x,1/2+y,z
1/2-x,1/2-y,z
1/2+x,1/2-y,-z
1/2-x,1/2+y,-z
1/2-x,1/2-y,-z
1/2+x,1/2+y,-z
1/2-x,1/2+y,z
1/2+x,1/2-y,z
loop_
_atom_site_type_symbol
_atom_site_label
_atom_site_fract_x
_atom_site_fract_y
_atom_site_fract_z
Si Si1 0.083976 0.000000 0.942487
Si Si2 0.422192 0.636902 0.061725
Si Si3 0.828846 0.765837 0.115786
Si Si4 0.916041 0.927005 0.500000
Si Si5 0.081469 0.926717 0.284006
Si Si6 0.081800 0.139632 0.392023
Si Si7 0.328846 0.817807 0.729136
O O1 0.104774 0.932267 0.913070
O O2 0.000000 0.000000 0.948468
O O3 0.120681 0.000000 0.000000
O O4 0.500000 0.655711 0.084709
O O5 0.367290 0.694309 0.070267
O O6 0.429479 0.625201 0.000000
O O7 0.750000 0.750000 0.096933
O O8 0.871441 0.700181 0.126085
O O9 0.827490 0.812748 0.166263
O O10 0.890128 0.889431 0.447509
O O11 0.000000 0.931208 0.500000
O O12 0.884604 0.000000 0.500000
O O13 0.091533 0.913341 0.346218
O O14 0.124517 0.878183 0.246929
O O15 0.000000 0.918395 0.268147
O O16 0.107474 0.000000 0.273341
O O17 0.000000 0.161054 0.397427
O O18 0.361132 0.750000 0.750000
O O19 0.250000 0.827811 0.750000
#
# Coordination Sequence:
#
# PCOD8284904 Si02
#       7
#    16  32  32  16  32  32  32
#     4   7  12  30  58  82 107 146 187 223 274 338
#     4   9  19  36  60  87 116 151 190 234 289 349
#     4  12  23  37  58  82 115 151 195 239 286 337
#     4   9  18  34  57  82 110 145 187 230 272 336
#     4  10  21  37  60  90 118 143 184 246 304 350
#     4  10  20  35  58  84 112 150 191 232 288 346
#     4  11  21  42  62  79 108 156 200 238 286 346
#
# _framework density 19.402334
#
# number of rings (size 3 to 8) (size 9 to 14) (size 15 to 20)
#    0.000    2.000    3.333    2.000    1.167    4.333 
#    1.500    0.000    3.667    0.000    0.000    0.000 
#    0.000    0.000    0.000    0.000    0.000    0.000 
#
# Total GULP energy -594932.086241 kJ/mol
# GULP energy per Si atom -12394.418463 kJ/mol
# Density = 1.935817 g / cm^3
# Si number density = 19.402334 Si / 1000 Ang^3
#
#
#
# Elastic Constant Matrix: (Units=GPa)
#
#
# Indices 1 2 3 4 5 6 
#
# 1 91.5929 73.6556 31.6113 0.0000 0.0000 0.0000
# 2 73.6556 157.3724 37.3573 0.0000 0.0000 0.0000
# 3 31.6113 37.3573 63.8707 0.0000 0.0000 0.0000
# 4 0.0000 0.0000 0.0000 27.4136 0.0000 0.0000
# 5 0.0000 0.0000 0.0000 0.0000 21.5971 0.0000
# 6 0.0000 0.0000 0.0000 0.0000 0.0000 11.5485
#
#
#
# Elastic Compliance Matrix: (Units=1/GPa)
#
#
# Indices 1 2 3 4 5 6 
#
# 1 0.018695 -0.007610 -0.004801 0.000000 0.000000 0.000000
# 2 -0.007610 0.010477 -0.002361 0.000000 0.000000 0.000000
# 3 -0.004801 -0.002361 0.019414 0.000000 0.000000 0.000000
# 4 0.000000 0.000000 0.000000 0.036478 0.000000 0.000000
# 5 0.000000 0.000000 0.000000 0.000000 0.046302 0.000000
# 6 0.000000 0.000000 0.000000 0.000000 0.000000 0.086591
#
#
# Mechanical properties :
#
#
# Convention : Reuss Voigt Hill
#
# Bulk Modulus (GPa) = 52.52129 66.45382 59.48755
# Shear Modulus (GPa) = 19.69672 23.45931 21.57801
#
# Velocity S-wave (km/s) = 3.18963 3.48098 3.33849
# Velocity P-wave (km/s) = 6.37913 7.10500 6.75183
#
# Compressibility (1/GPa) = 0.01903990
#
# Stress axis : x y z
#
# Youngs Moduli (GPa) = 53.49135 95.45098 51.50895
#
# Poissons Ratio (x) = 0.72637 0.24732
# Poissons Ratio (y) = 0.40707 0.12163
# Poissons Ratio (z) = 0.25684 0.22539
#
# Static dielectric constant tensor:
#      x y z
#    x 3.325670 0.000000 0.000000 
#    y 0.000000 3.769600 0.000000 
#    z 0.000000 0.000000 3.405580 
# 
# 
# High freq. dielectric constant tensor:
#      x y z
#    x 1.728920 0.000000 0.000000 
#    y 0.000000 1.769740 0.000000 
#    z 0.000000 0.000000 1.742810 
# 
# From -- ./inp_files/37404.got.cif
#   From: 2010.03.12/outbox.cif.g09.slc.cpg/sg69_19_cif.got.tgz:37404.got - 2010.04.10 23:52:46.
