data_PCOD8284117
_publ_section_title
;
Structure prediction by ZEFSAII (Michael W. Deem and Ramdas Pophale) SiO2 
 PCOD8284117
Probable space group: F M M M
;
_chemical_formula_sum "Si O2"
_cell_formula_units_Z 208
_cell_length_a 20.923917
_cell_length_b 29.284913
_cell_length_c 18.298335
_cell_angle_alpha 90.000000
_cell_angle_beta 90.000000
_cell_angle_gamma 90.000000
_cell_volume 11212.397891
_symmetry_space_group_name_H-M "F M M M"
_symmetry_group_IT_number 69
_symmetry_cell_setting 'orthorhombic'
loop_
_space_group_symop_operation_xyz
x,y,z
-x,-y,z
x,-y,-z
-x,y,-z
-x,-y,-z
x,y,-z
-x,y,z
x,-y,z
x,1/2+y,1/2+z
-x,1/2-y,1/2+z
x,1/2-y,1/2-z
-x,1/2+y,1/2-z
-x,1/2-y,1/2-z
x,1/2+y,1/2-z
-x,1/2+y,1/2+z
x,1/2-y,1/2+z
1/2+x,y,1/2+z
1/2-x,-y,1/2+z
1/2+x,-y,1/2-z
1/2-x,y,1/2-z
1/2-x,-y,1/2-z
1/2+x,y,1/2-z
1/2-x,y,1/2+z
1/2+x,-y,1/2+z
1/2+x,1/2+y,z
1/2-x,1/2-y,z
1/2+x,1/2-y,-z
1/2-x,1/2+y,-z
1/2-x,1/2-y,-z
1/2+x,1/2+y,-z
1/2-x,1/2+y,z
1/2+x,1/2-y,z
loop_
_atom_site_type_symbol
_atom_site_label
_atom_site_fract_x
_atom_site_fract_y
_atom_site_fract_z
Si Si1 0.810009 0.551589 0.799696
Si Si2 0.571519 0.199902 0.413227
Si Si3 0.428939 0.197971 0.913408
Si Si4 0.500000 0.554153 0.081926
Si Si5 0.180481 0.133674 0.083712
Si Si6 0.127414 0.948276 0.156734
Si Si7 0.677862 0.870902 0.915361
O O1 0.798498 0.500000 0.828395
O O2 0.750000 0.567425 0.750000
O O3 0.871136 0.553464 0.744883
O O4 0.824729 0.582970 0.868718
O O5 0.577225 0.201359 0.500000
O O6 0.500000 0.182588 0.390847
O O7 0.582616 0.251036 0.382159
O O8 0.627643 0.167651 0.380638
O O9 0.500000 0.181002 0.890317
O O10 0.375040 0.163723 0.882832
O O11 0.423297 0.199663 0.000000
O O12 0.500000 0.500000 0.077981
O O13 0.439046 0.571671 0.126438
O O14 0.500000 0.575226 0.000000
O O15 0.181719 0.084484 0.123367
O O16 0.252458 0.153270 0.091936
O O17 0.162445 0.125179 0.000000
O O18 0.139956 0.000000 0.129053
O O19 0.664087 0.883530 0.000000
#
# Coordination Sequence:
#
# PCOD8284117 Si02
#       7
#    32  32  32  16  32  32  32
#     4  10  20  37  55  72 103 144 180 215 260 321
#     4   8  15  28  47  73 106 141 171 205 258 323
#     4   8  15  31  53  75 101 132 168 215 271 324
#     4   9  18  32  50  76 107 138 177 221 260 309
#     4  10  19  28  45  78 110 136 173 219 262 307
#     4  10  20  34  51  71 104 149 184 211 258 318
#     4  10  20  33  53  81 104 128 175 231 271 307
#
# _framework density 18.550894
#
# number of rings (size 3 to 8) (size 9 to 14) (size 15 to 20)
#    0.000    2.692    1.538    1.385    1.077    1.846 
#    1.385    4.615    0.000    0.923    0.000    4.308 
#    0.000    0.000    0.000    0.000    0.000    0.000 
#
# Total GULP energy -644408.306531 kJ/mol
# GULP energy per Si atom -12392.467433 kJ/mol
# Density = 1.850867 g / cm^3
# Si number density = 18.550894 Si / 1000 Ang^3
#
#
#
# Elastic Constant Matrix: (Units=GPa)
#
#
# Indices 1 2 3 4 5 6 
#
# 1 122.4414 62.5934 33.1819 0.0000 0.0000 0.0000
# 2 62.5934 100.6382 30.4040 0.0000 0.0000 0.0000
# 3 33.1819 30.4040 51.5370 0.0000 0.0000 0.0000
# 4 0.0000 0.0000 0.0000 13.4365 0.0000 0.0000
# 5 0.0000 0.0000 0.0000 0.0000 20.0017 0.0000
# 6 0.0000 0.0000 0.0000 0.0000 0.0000 29.6051
#
#
#
# Elastic Compliance Matrix: (Units=1/GPa)
#
#
# Indices 1 2 3 4 5 6 
#
# 1 0.012706 -0.006609 -0.004282 0.000000 0.000000 0.000000
# 2 -0.006609 0.015530 -0.004906 0.000000 0.000000 0.000000
# 3 -0.004282 -0.004906 0.025055 0.000000 0.000000 0.000000
# 4 0.000000 0.000000 0.000000 0.074424 0.000000 0.000000
# 5 0.000000 0.000000 0.000000 0.000000 0.049996 0.000000
# 6 0.000000 0.000000 0.000000 0.000000 0.000000 0.033778
#
#
# Mechanical properties :
#
#
# Convention : Reuss Voigt Hill
#
# Bulk Modulus (GPa) = 46.09139 58.55280 52.32210
# Shear Modulus (GPa) = 19.97484 22.50448 21.23966
#
# Velocity S-wave (km/s) = 3.28496 3.48677 3.38737
# Velocity P-wave (km/s) = 6.26800 6.91678 6.60037
#
# Compressibility (1/GPa) = 0.02169602
#
# Stress axis : x y z
#
# Youngs Moduli (GPa) = 78.70120 64.39335 39.91256
#
# Poissons Ratio (x) = 0.42559 0.17090
# Poissons Ratio (y) = 0.52016 0.19582
# Poissons Ratio (z) = 0.33698 0.31593
#
# Static dielectric constant tensor:
#      x y z
#    x 3.748670 0.000000 0.000000 
#    y 0.000000 3.453140 0.000000 
#    z 0.000000 0.000000 3.069710 
# 
# 
# High freq. dielectric constant tensor:
#      x y z
#    x 1.726800 0.000000 0.000000 
#    y 0.000000 1.711550 0.000000 
#    z 0.000000 0.000000 1.676050 
# 
# From -- ./inp_files/26144.got.cif
#   From: 2010.03.12/outbox.cif.g09.slc.cpg/sg69_14_cif.got.tgz:26144.got - 2010.04.10 23:52:46.
