data_PCOD8284381
_publ_section_title
;
Structure prediction by ZEFSAII (Michael W. Deem and Ramdas Pophale) SiO2 
 PCOD8284381
Probable space group: F M M M
;
_chemical_formula_sum "Si O2"
_cell_formula_units_Z 224
_cell_length_a 17.950003
_cell_length_b 27.980354
_cell_length_c 22.310254
_cell_angle_alpha 90.000000
_cell_angle_beta 90.000000
_cell_angle_gamma 90.000000
_cell_volume 11205.267918
_symmetry_space_group_name_H-M "F M M M"
_symmetry_group_IT_number 69
_symmetry_cell_setting 'orthorhombic'
loop_
_space_group_symop_operation_xyz
x,y,z
-x,-y,z
x,-y,-z
-x,y,-z
-x,-y,-z
x,y,-z
-x,y,z
x,-y,z
x,1/2+y,1/2+z
-x,1/2-y,1/2+z
x,1/2-y,1/2-z
-x,1/2+y,1/2-z
-x,1/2-y,1/2-z
x,1/2+y,1/2-z
-x,1/2+y,1/2+z
x,1/2-y,1/2+z
1/2+x,y,1/2+z
1/2-x,-y,1/2+z
1/2+x,-y,1/2-z
1/2-x,y,1/2-z
1/2-x,-y,1/2-z
1/2+x,y,1/2-z
1/2-x,y,1/2+z
1/2+x,-y,1/2+z
1/2+x,1/2+y,z
1/2-x,1/2-y,z
1/2+x,1/2-y,-z
1/2-x,1/2+y,-z
1/2-x,1/2-y,-z
1/2+x,1/2+y,-z
1/2-x,1/2+y,z
1/2+x,1/2-y,z
loop_
_atom_site_type_symbol
_atom_site_label
_atom_site_fract_x
_atom_site_fract_y
_atom_site_fract_z
Si Si1 0.917648 0.579046 0.182027
Si Si2 0.173087 0.188446 0.857977
Si Si3 0.408852 0.000000 0.378546
Si Si4 0.840590 0.112368 0.433267
Si Si5 0.917731 0.820494 0.260331
Si Si6 0.162589 0.000000 0.748300
Si Si7 0.168269 0.095498 0.930547
Si Si8 0.337230 0.707337 0.373953
O O1 0.896487 0.588752 0.113417
O O2 0.915176 0.623922 0.225460
O O3 0.856873 0.545473 0.209834
O O4 0.000000 0.556187 0.182008
O O5 0.136233 0.192532 0.793499
O O6 0.141060 0.142558 0.893976
O O7 0.260905 0.186949 0.844829
O O8 0.162056 0.237651 0.896808
O O9 0.374583 0.952299 0.408948
O O10 0.500000 0.000000 0.382959
O O11 0.382155 0.000000 0.310330
O O12 0.865295 0.097844 0.500000
O O13 0.757198 0.092333 0.421358
O O14 0.850794 0.170144 0.428180
O O15 0.897588 0.793053 0.321149
O O16 0.000000 0.804364 0.240928
O O17 0.250000 0.000000 0.750000
O O18 0.148383 0.103401 0.000000
#
# Coordination Sequence:
#
# PCOD8284381 Si02
#       8
#    32  32  16  32  32  16  32  32
#     4  10  21  37  56  82 115 146 182 230 279 332
#     4  10  19  33  54  79 109 146 186 231 286 338
#     4  12  25  42  64  87 115 153 190 227 284 347
#     4   9  19  37  59  82 111 149 190 230 277 334
#     4  10  20  33  51  77 110 147 184 225 277 338
#     4  12  24  39  62  89 114 141 179 229 281 332
#     4  10  22  39  58  82 112 148 193 240 281 329
#     4   9  19  33  52  80 111 144 184 232 282 333
#
# _framework density 19.990597000000001
#
# number of rings (size 3 to 8) (size 9 to 14) (size 15 to 20)
#    0.000    2.000    0.000    3.429    0.000    7.714 
#    0.000    3.929    0.000    0.857    0.000    4.000 
#    0.000    0.000    0.000    0.000    0.000    0.000 
#
# Total GULP energy -693921.468511 kJ/mol
# GULP energy per Si atom -12391.454795 kJ/mol
# Density = 1.994510 g / cm^3
# Si number density = 19.990597 Si / 1000 Ang^3
#
#
#
# Elastic Constant Matrix: (Units=GPa)
#
#
# Indices 1 2 3 4 5 6 
#
# 1 90.8858 45.9555 34.2536 0.0000 0.0000 0.0000
# 2 45.9555 130.4687 35.6499 0.0000 0.0000 0.0000
# 3 34.2536 35.6499 71.4458 0.0000 0.0000 0.0000
# 4 0.0000 0.0000 0.0000 15.4482 0.0000 0.0000
# 5 0.0000 0.0000 0.0000 0.0000 15.6144 0.0000
# 6 0.0000 0.0000 0.0000 0.0000 0.0000 18.4158
#
#
#
# Elastic Compliance Matrix: (Units=1/GPa)
#
#
# Indices 1 2 3 4 5 6 
#
# 1 0.014910 -0.003819 -0.005243 0.000000 0.000000 0.000000
# 2 -0.003819 0.009853 -0.003085 0.000000 0.000000 0.000000
# 3 -0.005243 -0.003085 0.018050 0.000000 0.000000 0.000000
# 4 0.000000 0.000000 0.000000 0.064732 0.000000 0.000000
# 5 0.000000 0.000000 0.000000 0.000000 0.064043 0.000000
# 6 0.000000 0.000000 0.000000 0.000000 0.000000 0.054301
#
#
# Mechanical properties :
#
#
# Convention : Reuss Voigt Hill
#
# Bulk Modulus (GPa) = 54.00120 58.27982 56.14051
# Shear Modulus (GPa) = 19.50408 21.69176 20.59792
#
# Velocity S-wave (km/s) = 3.12695 3.29766 3.21344
# Velocity P-wave (km/s) = 6.33317 6.61183 6.47400
#
# Compressibility (1/GPa) = 0.01851811
#
# Stress axis : x y z
#
# Youngs Moduli (GPa) = 67.06979 101.49190 55.40279
#
# Poissons Ratio (x) = 0.38762 0.29045
# Poissons Ratio (y) = 0.25616 0.17094
# Poissons Ratio (z) = 0.35162 0.31314
#
# Static dielectric constant tensor:
#      x y z
#    x 3.730490 0.000000 0.000000 
#    y 0.000000 3.874320 0.000000 
#    z 0.000000 0.000000 3.505850 
# 
# 
# High freq. dielectric constant tensor:
#      x y z
#    x 1.776230 0.000000 0.000000 
#    y 0.000000 1.791920 0.000000 
#    z 0.000000 0.000000 1.769910 
# 
# From -- ./inp_files/31233.got.cif
#   From: 2010.03.12/outbox.cif.g09.slc.cpg/sg69_16_cif.got.tgz:31233.got - 2010.04.10 23:52:46.
