data_PCOD8284413
_publ_section_title
;
Structure prediction by ZEFSAII (Michael W. Deem and Ramdas Pophale) SiO2 
 PCOD8284413
Probable space group: F M M M
;
_chemical_formula_sum "Si O2"
_cell_formula_units_Z 144
_cell_length_a 20.499794
_cell_length_b 20.066136
_cell_length_c 17.510420
_cell_angle_alpha 90.000000
_cell_angle_beta 90.000000
_cell_angle_gamma 90.000000
_cell_volume 7202.940236
_symmetry_space_group_name_H-M "F M M M"
_symmetry_group_IT_number 69
_symmetry_cell_setting 'orthorhombic'
loop_
_space_group_symop_operation_xyz
x,y,z
-x,-y,z
x,-y,-z
-x,y,-z
-x,-y,-z
x,y,-z
-x,y,z
x,-y,z
x,1/2+y,1/2+z
-x,1/2-y,1/2+z
x,1/2-y,1/2-z
-x,1/2+y,1/2-z
-x,1/2-y,1/2-z
x,1/2+y,1/2-z
-x,1/2+y,1/2+z
x,1/2-y,1/2+z
1/2+x,y,1/2+z
1/2-x,-y,1/2+z
1/2+x,-y,1/2-z
1/2-x,y,1/2-z
1/2-x,-y,1/2-z
1/2+x,y,1/2-z
1/2-x,y,1/2+z
1/2+x,-y,1/2+z
1/2+x,1/2+y,z
1/2-x,1/2-y,z
1/2+x,1/2-y,-z
1/2-x,1/2+y,-z
1/2-x,1/2-y,-z
1/2+x,1/2+y,-z
1/2-x,1/2+y,z
1/2+x,1/2-y,z
loop_
_atom_site_type_symbol
_atom_site_label
_atom_site_fract_x
_atom_site_fract_y
_atom_site_fract_z
Si Si1 0.000000 0.227039 0.091191
Si Si2 0.500000 0.876615 0.909460
Si Si3 0.618455 0.138238 0.590547
Si Si4 0.253061 0.670915 0.662600
Si Si5 0.574816 0.000000 0.589281
Si Si6 0.140142 0.575758 0.909613
O O1 0.000000 0.301659 0.123974
O O2 0.934655 0.190783 0.122787
O O3 0.000000 0.226191 0.000000
O O4 0.434626 0.914224 0.881535
O O5 0.500000 0.873745 0.000000
O O6 0.612118 0.137569 0.500000
O O7 0.691217 0.151016 0.614190
O O8 0.604179 0.066050 0.626851
O O9 0.250000 0.647946 0.750000
O O10 0.250000 0.750000 0.655508
O O11 0.315807 0.633656 0.627622
O O12 0.500000 0.000000 0.607414
O O13 0.590044 0.000000 0.500000
O O14 0.161780 0.500000 0.887092
O O15 0.145266 0.585445 0.000000
#
# Coordination Sequence:
#
# PCOD8284413 Si02
#       6
#    16  16  32  32  16  32
#     4   9  16  28  53  88 115 142 181 228 284 341
#     4   9  17  32  57  86 114 141 181 237 287 331
#     4  10  19  33  57  86 115 146 186 234 285 339
#     4  11  25  42  57  79 116 158 196 237 285 336
#     4   9  16  30  53  86 120 143 175 232 289 343
#     4  10  21  38  62  89 114 146 190 238 288 339
#
# _framework density 19.991835999999999
#
# number of rings (size 3 to 8) (size 9 to 14) (size 15 to 20)
#    0.000    2.111    1.111    2.333    1.556    5.333 
#    0.000    1.111    0.000    4.000    0.000    0.000 
#    0.000    0.000    0.000    0.000    0.000    0.000 
#
# Total GULP energy -446119.749214 kJ/mol
# GULP energy per Si atom -12392.215256 kJ/mol
# Density = 1.994633 g / cm^3
# Si number density = 19.991836 Si / 1000 Ang^3
#
#
#
# Elastic Constant Matrix: (Units=GPa)
#
#
# Indices 1 2 3 4 5 6 
#
# 1 136.6578 38.7757 22.4894 0.0000 0.0000 0.0000
# 2 38.7757 124.9096 27.5347 0.0000 0.0000 0.0000
# 3 22.4894 27.5347 29.9235 0.0000 0.0000 0.0000
# 4 0.0000 0.0000 0.0000 6.2159 0.0000 0.0000
# 5 0.0000 0.0000 0.0000 0.0000 -2.6181 0.0000
# 6 0.0000 0.0000 0.0000 0.0000 0.0000 45.5308
#
#
#
# Elastic Compliance Matrix: (Units=1/GPa)
#
#
# Indices 1 2 3 4 5 6 
#
# 1 0.008586 -0.001559 -0.005018 0.000000 0.000000 0.000000
# 2 -0.001559 0.010326 -0.008330 0.000000 0.000000 0.000000
# 3 -0.005018 -0.008330 0.044855 0.000000 0.000000 0.000000
# 4 0.000000 0.000000 0.000000 0.160877 0.000000 0.000000
# 5 0.000000 0.000000 0.000000 0.000000 -0.381949 0.000000
# 6 0.000000 0.000000 0.000000 0.000000 0.000000 0.021963
#
#
# Mechanical properties :
#
#
# Convention : Reuss Voigt Hill
#
# Bulk Modulus (GPa) = 29.45293 52.12115 40.78704
# Shear Modulus (GPa) = -53.07270 23.33846 -14.86712
#
# Velocity S-wave (km/s) = -5.15799 3.42043 -2.72997
# Velocity P-wave (km/s) = 4.55067 6.45964 3.24178
#
# Compressibility (1/GPa) = 0.03395248
#
# Stress axis : x y z
#
# Youngs Moduli (GPa) = 116.47213 96.84290 22.29407
#
# Poissons Ratio (x) = 0.15099 0.11187
# Poissons Ratio (y) = 0.18159 0.18571
# Poissons Ratio (z) = 0.58447 0.80669
#
# Static dielectric constant tensor:
#      x y z
#    x 3.726440 0.000000 0.000000 
#    y 0.000000 4.020460 0.000000 
#    z 0.000000 0.000000 3.191510 
# 
# 
# High freq. dielectric constant tensor:
#      x y z
#    x 1.792770 0.000000 0.000000 
#    y 0.000000 1.803270 0.000000 
#    z 0.000000 0.000000 1.727320 
# 
# From -- ./inp_files/24504.got.cif
#   From: 2010.03.12/outbox.cif.g09.slc.cpg/sg69_13_cif.got.tgz:24504.got - 2010.04.10 23:52:46.
