data_PCOD8284609
_publ_section_title
;
Structure prediction by ZEFSAII (Michael W. Deem and Ramdas Pophale) SiO2 
 PCOD8284609
Probable space group: F M M M
;
_chemical_formula_sum "Si O2"
_cell_formula_units_Z 208
_cell_length_a 25.949114
_cell_length_b 25.845919
_cell_length_c 17.717148
_cell_angle_alpha 90.000000
_cell_angle_beta 90.000000
_cell_angle_gamma 90.000000
_cell_volume 11882.513763
_symmetry_space_group_name_H-M "F M M M"
_symmetry_group_IT_number 69
_symmetry_cell_setting 'orthorhombic'
loop_
_space_group_symop_operation_xyz
x,y,z
-x,-y,z
x,-y,-z
-x,y,-z
-x,-y,-z
x,y,-z
-x,y,z
x,-y,z
x,1/2+y,1/2+z
-x,1/2-y,1/2+z
x,1/2-y,1/2-z
-x,1/2+y,1/2-z
-x,1/2-y,1/2-z
x,1/2+y,1/2-z
-x,1/2+y,1/2+z
x,1/2-y,1/2+z
1/2+x,y,1/2+z
1/2-x,-y,1/2+z
1/2+x,-y,1/2-z
1/2-x,y,1/2-z
1/2-x,-y,1/2-z
1/2+x,y,1/2-z
1/2-x,y,1/2+z
1/2+x,-y,1/2+z
1/2+x,1/2+y,z
1/2-x,1/2-y,z
1/2+x,1/2-y,-z
1/2-x,1/2+y,-z
1/2-x,1/2-y,-z
1/2+x,1/2+y,-z
1/2-x,1/2+y,z
1/2+x,1/2-y,z
loop_
_atom_site_type_symbol
_atom_site_label
_atom_site_fract_x
_atom_site_fract_y
_atom_site_fract_z
Si Si1 0.061214 0.558453 0.500000
Si Si2 0.440204 0.606586 0.845521
Si Si3 0.940782 0.616247 0.085999
Si Si4 0.388672 0.290027 0.187289
Si Si5 0.381244 0.059305 0.209108
Si Si6 0.306911 0.649782 0.718295
Si Si7 0.357122 0.797691 0.913434
O O1 0.083380 0.500000 0.500000
O O2 0.081425 0.589439 0.572990
O O3 0.000000 0.556958 0.500000
O O4 0.500000 0.594246 0.837918
O O5 0.431806 0.667806 0.833013
O O6 0.411451 0.571394 0.785263
O O7 0.918568 0.571223 0.138610
O O8 0.908537 0.668435 0.099747
O O9 0.000000 0.628161 0.107304
O O10 0.935756 0.597123 0.000000
O O11 0.410557 0.250000 0.250000
O O12 0.339146 0.319181 0.219828
O O13 0.371749 0.260269 0.111494
O O14 0.328807 0.092295 0.205582
O O15 0.364683 0.000000 0.206296
O O16 0.250000 0.645954 0.750000
O O17 0.310532 0.680133 0.638191
O O18 0.338739 0.797883 0.000000
#
# Coordination Sequence:
#
# PCOD8284609 Si02
#       7
#    16  32  32  32  32  32  32
#     4   9  18  32  48  66  92 131 174 216 257 286
#     4  10  20  32  48  72 103 137 174 209 245 295
#     4   9  18  32  49  75 111 143 168 200 246 299
#     4   9  19  32  48  74 102 133 166 202 251 299
#     4  10  20  33  52  76  97 128 173 214 256 304
#     4   9  19  37  54  69  98 129 160 210 264 309
#     4   9  18  32  52  76 102 134 169 202 243 299
#
# _framework density 17.504714
#
# number of rings (size 3 to 8) (size 9 to 14) (size 15 to 20)
#    0.000    2.692    0.000    1.846    1.077    6.154 
#    0.000    2.308    1.692    0.000    0.000    0.000 
#    0.000    0.000    0.000    0.000    0.000    0.000 
#
# Total GULP energy -644770.336857 kJ/mol
# GULP energy per Si atom -12399.429555 kJ/mol
# Density = 1.746487 g / cm^3
# Si number density = 17.504714 Si / 1000 Ang^3
#
#
#
# Elastic Constant Matrix: (Units=GPa)
#
#
# Indices 1 2 3 4 5 6 
#
# 1 50.7574 6.6464 26.5572 0.0000 0.0000 0.0000
# 2 6.6464 106.1408 36.8347 0.0000 0.0000 0.0000
# 3 26.5572 36.8347 109.4621 0.0000 0.0000 0.0000
# 4 0.0000 0.0000 0.0000 23.7757 0.0000 0.0000
# 5 0.0000 0.0000 0.0000 0.0000 23.6204 0.0000
# 6 0.0000 0.0000 0.0000 0.0000 0.0000 12.3251
#
#
#
# Elastic Compliance Matrix: (Units=1/GPa)
#
#
# Indices 1 2 3 4 5 6 
#
# 1 0.022595 0.000552 -0.005668 0.000000 0.000000 0.000000
# 2 0.000552 0.010681 -0.003728 0.000000 0.000000 0.000000
# 3 -0.005668 -0.003728 0.011765 0.000000 0.000000 0.000000
# 4 0.000000 0.000000 0.000000 0.042060 0.000000 0.000000
# 5 0.000000 0.000000 0.000000 0.000000 0.042336 0.000000
# 6 0.000000 0.000000 0.000000 0.000000 0.000000 0.081135
#
#
# Mechanical properties :
#
#
# Convention : Reuss Voigt Hill
#
# Bulk Modulus (GPa) = 36.55875 45.15965 40.85920
# Shear Modulus (GPa) = 21.06358 25.03238 23.04798
#
# Velocity S-wave (km/s) = 3.47264 3.78568 3.63254
# Velocity P-wave (km/s) = 6.08353 6.70545 6.40205
#
# Compressibility (1/GPa) = 0.02735323
#
# Stress axis : x y z
#
# Youngs Moduli (GPa) = 44.25827 93.62732 84.99693
#
# Poissons Ratio (x) = -0.05168 0.48173
# Poissons Ratio (y) = -0.02443 0.31687
# Poissons Ratio (z) = 0.25084 0.34905
#
# Static dielectric constant tensor:
#      x y z
#    x 2.927140 0.000000 0.000000 
#    y 0.000000 3.293040 0.000000 
#    z 0.000000 0.000000 3.512170 
# 
# 
# High freq. dielectric constant tensor:
#      x y z
#    x 1.643980 0.000000 0.000000 
#    y 0.000000 1.678450 0.000000 
#    z 0.000000 0.000000 1.689840 
# 
# From -- ./inp_files/26985.got.cif
#   From: 2010.03.12/outbox.cif.g09.slc.cpg/sg69_14_cif.got.tgz:26985.got - 2010.04.10 23:52:46.
