data_PCOD8284907
_publ_section_title
;
Structure prediction by ZEFSAII (Michael W. Deem and Ramdas Pophale) SiO2 
 PCOD8284907
Probable space group: F M M M
;
_chemical_formula_sum "Si O2"
_cell_formula_units_Z 144
_cell_length_a 27.148878
_cell_length_b 17.444730
_cell_length_c 14.604275
_cell_angle_alpha 90.000000
_cell_angle_beta 90.000000
_cell_angle_gamma 90.000000
_cell_volume 6916.655420
_symmetry_space_group_name_H-M "F M M M"
_symmetry_group_IT_number 69
_symmetry_cell_setting 'orthorhombic'
loop_
_space_group_symop_operation_xyz
x,y,z
-x,-y,z
x,-y,-z
-x,y,-z
-x,-y,-z
x,y,-z
-x,y,z
x,-y,z
x,1/2+y,1/2+z
-x,1/2-y,1/2+z
x,1/2-y,1/2-z
-x,1/2+y,1/2-z
-x,1/2-y,1/2-z
x,1/2+y,1/2-z
-x,1/2+y,1/2+z
x,1/2-y,1/2+z
1/2+x,y,1/2+z
1/2-x,-y,1/2+z
1/2+x,-y,1/2-z
1/2-x,y,1/2-z
1/2-x,-y,1/2-z
1/2+x,y,1/2-z
1/2-x,y,1/2+z
1/2+x,-y,1/2+z
1/2+x,1/2+y,z
1/2-x,1/2-y,z
1/2+x,1/2-y,-z
1/2-x,1/2+y,-z
1/2-x,1/2-y,-z
1/2+x,1/2+y,-z
1/2-x,1/2+y,z
1/2+x,1/2-y,z
loop_
_atom_site_type_symbol
_atom_site_label
_atom_site_fract_x
_atom_site_fract_y
_atom_site_fract_z
Si Si1 0.669397 0.809420 0.900237
Si Si2 0.914085 0.337896 0.230055
Si Si3 0.000000 0.908932 0.608210
Si Si4 0.855359 0.638481 0.602368
Si Si5 0.753574 0.915485 0.144696
O O1 0.636437 0.850158 0.824619
O O2 0.670952 0.719748 0.875297
O O3 0.722915 0.849058 0.906039
O O4 0.644398 0.818365 0.000000
O O5 0.929838 0.250000 0.250000
O O6 0.901586 0.377065 0.328646
O O7 0.954092 0.378925 0.167056
O O8 0.000000 0.881065 0.500000
O O9 0.000000 0.000000 0.609199
O O10 0.877508 0.633744 0.500000
O O11 0.810398 0.579837 0.612962
O O12 0.750000 0.895123 0.250000
O O13 0.731159 0.000000 0.123740
#
# Coordination Sequence:
#
# PCOD8284907 Si02
#       5
#    32  32  16  32  32
#     4  10  20  35  58  85 113 151 200 248 294 343
#     4  10  21  40  64  89 118 153 198 246 300 355
#     4  11  25  44  67  95 125 153 186 241 310 372
#     4  10  21  37  59  86 116 154 201 248 290 341
#     4  11  22  34  51  80 119 163 204 241 288 348
#
# _framework density 20.819310000000002
#
# number of rings (size 3 to 8) (size 9 to 14) (size 15 to 20)
#    0.000    1.667    2.222    2.333    0.000    7.111 
#    0.000    0.556    0.000    0.667    0.000    0.000 
#    0.000    0.000    0.000    0.000    0.000    0.000 
#
# Total GULP energy -446055.967371 kJ/mol
# GULP energy per Si atom -12390.443538 kJ/mol
# Density = 2.077192 g / cm^3
# Si number density = 20.819310 Si / 1000 Ang^3
#
#
#
# Elastic Constant Matrix: (Units=GPa)
#
#
# Indices 1 2 3 4 5 6 
#
# 1 91.6937 23.1622 57.9623 0.0000 0.0000 0.0000
# 2 23.1622 66.2088 33.0919 0.0000 0.0000 0.0000
# 3 57.9623 33.0919 163.2051 0.0000 0.0000 0.0000
# 4 0.0000 0.0000 0.0000 20.6817 0.0000 0.0000
# 5 0.0000 0.0000 0.0000 0.0000 22.1585 0.0000
# 6 0.0000 0.0000 0.0000 0.0000 0.0000 17.4349
#
#
#
# Elastic Compliance Matrix: (Units=1/GPa)
#
#
# Indices 1 2 3 4 5 6 
#
# 1 0.014509 -0.002782 -0.004589 0.000000 0.000000 0.000000
# 2 -0.002782 0.017341 -0.002528 0.000000 0.000000 0.000000
# 3 -0.004589 -0.002528 0.008270 0.000000 0.000000 0.000000
# 4 0.000000 0.000000 0.000000 0.048352 0.000000 0.000000
# 5 0.000000 0.000000 0.000000 0.000000 0.045129 0.000000
# 6 0.000000 0.000000 0.000000 0.000000 0.000000 0.057356
#
#
# Mechanical properties :
#
#
# Convention : Reuss Voigt Hill
#
# Bulk Modulus (GPa) = 49.20926 61.06006 55.13466
# Shear Modulus (GPa) = 22.98544 25.84777 24.41660
#
# Velocity S-wave (km/s) = 3.32632 3.52736 3.42831
# Velocity P-wave (km/s) = 6.20002 6.78099 6.49700
#
# Compressibility (1/GPa) = 0.02032138
#
# Stress axis : x y z
#
# Youngs Moduli (GPa) = 68.92045 57.66827 120.92536
#
# Poissons Ratio (x) = 0.16045 0.55491
# Poissons Ratio (y) = 0.19176 0.30568
# Poissons Ratio (z) = 0.31627 0.14578
#
# Static dielectric constant tensor:
#      x y z
#    x 3.597190 0.000000 0.000000 
#    y 0.000000 3.600810 0.000000 
#    z 0.000000 0.000000 4.160920 
# 
# 
# High freq. dielectric constant tensor:
#      x y z
#    x 1.778580 0.000000 0.000000 
#    y 0.000000 1.800420 0.000000 
#    z 0.000000 0.000000 1.843070 
# 
# From -- ./inp_files/19469.got.cif
#   From: 2010.03.12/outbox.cif.g09.slc.cpg/sg69_10_cif.got.tgz:19469.got - 2010.04.10 23:52:46.
