data_PCOD8284207
_publ_section_title
;
Structure prediction by ZEFSAII (Michael W. Deem and Ramdas Pophale) SiO2 
 PCOD8284207
Probable space group: F M M M
;
_chemical_formula_sum "Si O2"
_cell_formula_units_Z 160
_cell_length_a 16.942390
_cell_length_b 18.214040
_cell_length_c 28.085739
_cell_angle_alpha 90.000000
_cell_angle_beta 90.000000
_cell_angle_gamma 90.000000
_cell_volume 8666.960480
_symmetry_space_group_name_H-M "F M M M"
_symmetry_group_IT_number 69
_symmetry_cell_setting 'orthorhombic'
loop_
_space_group_symop_operation_xyz
x,y,z
-x,-y,z
x,-y,-z
-x,y,-z
-x,-y,-z
x,y,-z
-x,y,z
x,-y,z
x,1/2+y,1/2+z
-x,1/2-y,1/2+z
x,1/2-y,1/2-z
-x,1/2+y,1/2-z
-x,1/2-y,1/2-z
x,1/2+y,1/2-z
-x,1/2+y,1/2+z
x,1/2-y,1/2+z
1/2+x,y,1/2+z
1/2-x,-y,1/2+z
1/2+x,-y,1/2-z
1/2-x,y,1/2-z
1/2-x,-y,1/2-z
1/2+x,y,1/2-z
1/2-x,y,1/2+z
1/2+x,-y,1/2+z
1/2+x,1/2+y,z
1/2-x,1/2-y,z
1/2+x,1/2-y,-z
1/2-x,1/2+y,-z
1/2-x,1/2-y,-z
1/2+x,1/2+y,-z
1/2-x,1/2+y,z
1/2+x,1/2-y,z
loop_
_atom_site_type_symbol
_atom_site_label
_atom_site_fract_x
_atom_site_fract_y
_atom_site_fract_z
Si Si1 0.409080 0.294040 0.445372
Si Si2 0.187668 0.412744 0.102489
Si Si3 0.182997 0.192120 0.875393
Si Si4 0.091818 0.178667 0.779207
Si Si5 0.912642 0.414122 0.807128
O O1 0.398713 0.270771 0.500000
O O2 0.500000 0.306871 0.431922
O O3 0.363002 0.371003 0.437695
O O4 0.375280 0.227172 0.414195
O O5 0.187100 0.500000 0.092964
O O6 0.277048 0.381756 0.102919
O O7 0.148294 0.388833 0.152676
O O8 0.250000 0.250000 0.861760
O O9 0.137451 0.169456 0.828149
O O10 0.117954 0.250000 0.750000
O O11 0.115377 0.111062 0.745016
O O12 0.000000 0.180266 0.792057
O O13 0.918690 0.500000 0.806732
O O14 0.000000 0.380032 0.817984
#
# Coordination Sequence:
#
# PCOD8284207 Si02
#       5
#    32  32  32  32  32
#     4  10  21  38  60  81 101 132 175 220 265 314
#     4  10  21  35  53  80 112 142 171 211 265 318
#     4  10  21  34  51  76 107 139 172 213 265 318
#     4  10  19  31  49  72  99 136 183 226 257 293
#     4   9  18  32  49  71 103 141 176 212 256 303
#
# _framework density 18.460913000000001
#
# number of rings (size 3 to 8) (size 9 to 14) (size 15 to 20)
#    0.000    2.200    0.000    3.600    0.000   10.400 
#    0.000    3.000    0.000    1.800    0.000    1.400 
#    0.000    0.000    0.000    0.000    0.000    0.000 
#
# Total GULP energy -495947.940609 kJ/mol
# GULP energy per Si atom -12398.698515 kJ/mol
# Density = 1.841889 g / cm^3
# Si number density = 18.460913 Si / 1000 Ang^3
#
#
#
# Elastic Constant Matrix: (Units=GPa)
#
#
# Indices 1 2 3 4 5 6 
#
# 1 87.7073 37.6217 43.7023 0.0000 0.0000 0.0000
# 2 37.6217 55.7460 25.8584 0.0000 0.0000 0.0000
# 3 43.7023 25.8584 92.6755 0.0000 0.0000 0.0000
# 4 0.0000 0.0000 0.0000 27.9814 0.0000 0.0000
# 5 0.0000 0.0000 0.0000 0.0000 20.2208 0.0000
# 6 0.0000 0.0000 0.0000 0.0000 0.0000 22.4820
#
#
#
# Elastic Compliance Matrix: (Units=1/GPa)
#
#
# Indices 1 2 3 4 5 6 
#
# 1 0.018596 -0.009743 -0.006050 0.000000 0.000000 0.000000
# 2 -0.009743 0.025710 -0.002579 0.000000 0.000000 0.000000
# 3 -0.006050 -0.002579 0.014363 0.000000 0.000000 0.000000
# 4 0.000000 0.000000 0.000000 0.035738 0.000000 0.000000
# 5 0.000000 0.000000 0.000000 0.000000 0.049454 0.000000
# 6 0.000000 0.000000 0.000000 0.000000 0.000000 0.044480
#
#
# Mechanical properties :
#
#
# Convention : Reuss Voigt Hill
#
# Bulk Modulus (GPa) = 45.61326 50.05485 47.83405
# Shear Modulus (GPa) = 21.51509 22.73325 22.12417
#
# Velocity S-wave (km/s) = 3.41756 3.51298 3.46560
# Velocity P-wave (km/s) = 6.35095 6.60511 6.47928
#
# Compressibility (1/GPa) = 0.02192345
#
# Stress axis : x y z
#
# Youngs Moduli (GPa) = 53.77595 38.89479 69.62263
#
# Poissons Ratio (x) = 0.37896 0.42125
# Poissons Ratio (y) = 0.52395 0.17957
# Poissons Ratio (z) = 0.32537 0.10032
#
# Static dielectric constant tensor:
#      x y z
#    x 3.696670 0.000000 0.000000 
#    y 0.000000 3.418880 0.000000 
#    z 0.000000 0.000000 3.739380 
# 
# 
# High freq. dielectric constant tensor:
#      x y z
#    x 1.718060 0.000000 0.000000 
#    y 0.000000 1.707730 0.000000 
#    z 0.000000 0.000000 1.712330 
# 
# From -- ./inp_files/23090.got.cif
#   From: 2010.03.12/outbox.cif.g09.slc.cpg/sg69_12_cif.got.tgz:23090.got - 2010.04.10 23:52:46.
