data_PCOD8284627
_publ_section_title
;
Structure prediction by ZEFSAII (Michael W. Deem and Ramdas Pophale) SiO2 
 PCOD8284627
Probable space group: F M M M
;
_chemical_formula_sum "Si O2"
_cell_formula_units_Z 176
_cell_length_a 10.923418
_cell_length_b 34.476452
_cell_length_c 25.730517
_cell_angle_alpha 90.000000
_cell_angle_beta 90.000000
_cell_angle_gamma 90.000000
_cell_volume 9690.130620
_symmetry_space_group_name_H-M "F M M M"
_symmetry_group_IT_number 69
_symmetry_cell_setting 'orthorhombic'
loop_
_space_group_symop_operation_xyz
x,y,z
-x,-y,z
x,-y,-z
-x,y,-z
-x,-y,-z
x,y,-z
-x,y,z
x,-y,z
x,1/2+y,1/2+z
-x,1/2-y,1/2+z
x,1/2-y,1/2-z
-x,1/2+y,1/2-z
-x,1/2-y,1/2-z
x,1/2+y,1/2-z
-x,1/2+y,1/2+z
x,1/2-y,1/2+z
1/2+x,y,1/2+z
1/2-x,-y,1/2+z
1/2+x,-y,1/2-z
1/2-x,y,1/2-z
1/2-x,-y,1/2-z
1/2+x,y,1/2-z
1/2-x,y,1/2+z
1/2+x,-y,1/2+z
1/2+x,1/2+y,z
1/2-x,1/2-y,z
1/2+x,1/2-y,-z
1/2-x,1/2+y,-z
1/2-x,1/2-y,-z
1/2+x,1/2+y,-z
1/2-x,1/2+y,z
1/2+x,1/2-y,z
loop_
_atom_site_type_symbol
_atom_site_label
_atom_site_fract_x
_atom_site_fract_y
_atom_site_fract_z
Si Si1 0.500000 0.790722 0.938292
Si Si2 0.869713 0.612817 0.728540
Si Si3 0.862594 0.457375 0.197072
Si Si4 0.244150 0.664671 0.061769
Si Si5 0.203197 0.090152 0.879133
Si Si6 0.500000 0.203395 0.438340
Si Si7 0.500000 0.455241 0.061247
O O1 0.625826 0.810945 0.918668
O O2 0.500000 0.747052 0.916101
O O3 0.500000 0.790305 0.000000
O O4 0.750000 0.636559 0.750000
O O5 0.856877 0.568785 0.750602
O O6 0.873589 0.611352 0.666419
O O7 0.000000 0.631203 0.747380
O O8 0.805455 0.500000 0.208502
O O9 0.800817 0.437444 0.147704
O O10 0.000000 0.462453 0.178722
O O11 0.229059 0.622301 0.086327
O O12 0.374624 0.682626 0.080917
O O13 0.243221 0.661261 0.000000
O O14 0.119529 0.064871 0.916381
O O15 0.500000 0.204117 0.500000
O O16 0.500000 0.500000 0.077533
O O17 0.500000 0.449394 0.000000
#
# Coordination Sequence:
#
# PCOD8284627 Si02
#       7
#    16  32  32  32  32  16  16
#     4   9  18  33  52  76 103 136 173 210 259 309
#     4   9  18  32  49  73  98 125 163 212 264 319
#     4   9  19  34  52  74 100 129 169 222 276 323
#     4  10  20  32  51  77 107 142 174 209 254 308
#     4  11  20  32  51  72 103 136 171 212 263 313
#     4   9  17  32  53  76 105 136 169 211 256 306
#     4  11  23  35  47  66  96 140 190 226 252 296
#
# _framework density 18.16281
#
# number of rings (size 3 to 8) (size 9 to 14) (size 15 to 20)
#    0.000    2.273    0.909    2.182    1.273    6.909 
#    0.000    0.000    0.000    0.000    0.000    3.818 
#    0.000   39.273    0.000    0.000    0.000    0.000 
#
# Total GULP energy -545146.166055 kJ/mol
# GULP energy per Si atom -12389.685592 kJ/mol
# Density = 1.812147 g / cm^3
# Si number density = 18.162810 Si / 1000 Ang^3
#
#
#
# Elastic Constant Matrix: (Units=GPa)
#
#
# Indices 1 2 3 4 5 6 
#
# 1 138.4395 28.5585 25.5867 0.0000 0.0000 0.0000
# 2 28.5585 73.1137 32.0924 0.0000 0.0000 0.0000
# 3 25.5867 32.0924 52.9655 0.0000 0.0000 0.0000
# 4 0.0000 0.0000 0.0000 7.0943 0.0000 0.0000
# 5 0.0000 0.0000 0.0000 0.0000 17.1261 0.0000
# 6 0.0000 0.0000 0.0000 0.0000 0.0000 154.5616
#
#
#
# Elastic Compliance Matrix: (Units=1/GPa)
#
#
# Indices 1 2 3 4 5 6 
#
# 1 0.008136 -0.001979 -0.002731 0.000000 0.000000 0.000000
# 2 -0.001979 0.019114 -0.010625 0.000000 0.000000 0.000000
# 3 -0.002731 -0.010625 0.026638 0.000000 0.000000 0.000000
# 4 0.000000 0.000000 0.000000 0.140957 0.000000 0.000000
# 5 0.000000 0.000000 0.000000 0.000000 0.058390 0.000000
# 6 0.000000 0.000000 0.000000 0.000000 0.000000 0.006470
#
#
# Mechanical properties :
#
#
# Convention : Reuss Voigt Hill
#
# Bulk Modulus (GPa) = 43.07284 48.55489 45.81387
# Shear Modulus (GPa) = 16.77192 47.64181 32.20687
#
# Velocity S-wave (km/s) = 3.04208 5.12712 4.21554
# Velocity P-wave (km/s) = 6.00877 7.86390 6.99808
#
# Compressibility (1/GPa) = 0.02321649
#
# Stress axis : x y z
#
# Youngs Moduli (GPa) = 122.90319 52.31670 37.54068
#
# Poissons Ratio (x) = 0.10355 0.10254
# Poissons Ratio (y) = 0.24326 0.39889
# Poissons Ratio (z) = 0.33569 0.55589
#
# Static dielectric constant tensor:
#      x y z
#    x 3.864720 0.000000 0.000000 
#    y 0.000000 3.241730 0.000000 
#    z 0.000000 0.000000 3.089960 
# 
# 
# High freq. dielectric constant tensor:
#      x y z
#    x 1.730490 0.000000 0.000000 
#    y 0.000000 1.675990 0.000000 
#    z 0.000000 0.000000 1.676380 
# 
# From -- ./inp_files/40474.got.cif
#   From: 2010.03.12/outbox.cif.g09.slc.cpg/sg69_21_cif.got.tgz:40474.got - 2010.04.10 23:52:46.
