data_PCOD8284010
_publ_section_title
;
Structure prediction by ZEFSAII (Michael W. Deem and Ramdas Pophale) SiO2 
 PCOD8284010
Probable space group: F M M M
;
_chemical_formula_sum "Si O2"
_cell_formula_units_Z 112
_cell_length_a 25.349453
_cell_length_b 7.485654
_cell_length_c 32.750154
_cell_angle_alpha 90.000000
_cell_angle_beta 90.000000
_cell_angle_gamma 90.000000
_cell_volume 6214.578644
_symmetry_space_group_name_H-M "F M M M"
_symmetry_group_IT_number 69
_symmetry_cell_setting 'orthorhombic'
loop_
_space_group_symop_operation_xyz
x,y,z
-x,-y,z
x,-y,-z
-x,y,-z
-x,-y,-z
x,y,-z
-x,y,z
x,-y,z
x,1/2+y,1/2+z
-x,1/2-y,1/2+z
x,1/2-y,1/2-z
-x,1/2+y,1/2-z
-x,1/2-y,1/2-z
x,1/2+y,1/2-z
-x,1/2+y,1/2+z
x,1/2-y,1/2+z
1/2+x,y,1/2+z
1/2-x,-y,1/2+z
1/2+x,-y,1/2-z
1/2-x,y,1/2-z
1/2-x,-y,1/2-z
1/2+x,y,1/2-z
1/2-x,y,1/2+z
1/2+x,-y,1/2+z
1/2+x,1/2+y,z
1/2-x,1/2-y,z
1/2+x,1/2-y,-z
1/2-x,1/2+y,-z
1/2-x,1/2-y,-z
1/2+x,1/2+y,-z
1/2-x,1/2+y,z
1/2+x,1/2-y,z
loop_
_atom_site_type_symbol
_atom_site_label
_atom_site_fract_x
_atom_site_fract_y
_atom_site_fract_z
Si Si1 0.693788 0.795437 0.109514
Si Si2 0.916900 0.208468 0.639316
Si Si3 0.668310 0.000000 0.454153
Si Si4 0.442948 0.500000 0.075249
Si Si5 0.000000 0.793313 0.297172
O O1 0.750000 0.750000 0.130901
O O2 0.646451 0.755701 0.141804
O O3 0.688475 0.675881 0.069056
O O4 0.691874 0.000000 0.095037
O O5 0.940068 0.321175 0.602261
O O6 0.946493 0.276928 0.680589
O O7 0.928375 0.000000 0.630765
O O8 0.690942 0.000000 0.500000
O O9 0.604551 0.000000 0.456930
O O10 0.500000 0.500000 0.052923
O O11 0.000000 0.750000 0.250000
O O12 0.000000 0.000000 0.302862
#
# Coordination Sequence:
#
# PCOD8284010 Si02
#       5
#    32  32  16  16  16
#     4  10  19  35  54  74  97 133 175 209 251 299
#     4   9  19  33  50  73 103 133 167 206 244 300
#     4  10  22  35  48  76 104 130 169 212 261 304
#     4  10  18  31  56  72  94 137 173 202 249 298
#     4  10  20  32  50  80 108 131 159 203 257 297
#
# _framework density 18.022138000000002
#
# number of rings (size 3 to 8) (size 9 to 14) (size 15 to 20)
#    0.000    2.286    2.857    0.000    2.000    1.429 
#    0.000    0.000    0.000    0.857    0.000   14.000 
#    0.000    0.000    0.000    0.000    0.000    0.000 
#
# Total GULP energy -346890.100090 kJ/mol
# GULP energy per Si atom -12388.932146 kJ/mol
# Density = 1.798112 g / cm^3
# Si number density = 18.022138 Si / 1000 Ang^3
#
#
#
# Elastic Constant Matrix: (Units=GPa)
#
#
# Indices 1 2 3 4 5 6 
#
# 1 168.8766 28.7755 45.1624 -0.0003 0.0002 -0.0033
# 2 28.7755 84.9897 22.2839 -0.0012 -0.0004 -0.0103
# 3 45.1624 22.2839 86.9706 0.0002 0.0000 0.0005
# 4 -0.0003 -0.0012 0.0002 17.1919 0.0001 0.0008
# 5 0.0002 -0.0004 0.0000 0.0001 17.2464 0.0000
# 6 -0.0033 -0.0103 0.0005 0.0008 0.0000 17.4695
#
#
#
# Elastic Compliance Matrix: (Units=1/GPa)
#
#
# Indices 1 2 3 4 5 6 
#
# 1 0.007058 -0.001532 -0.003272 0.000000 0.000000 0.000001
# 2 -0.001532 0.012946 -0.002522 0.000001 0.000000 0.000007
# 3 -0.003272 -0.002522 0.013844 0.000000 0.000000 -0.000002
# 4 0.000000 0.000001 0.000000 0.058167 0.000000 -0.000003
# 5 0.000000 0.000000 0.000000 0.000000 0.057983 0.000000
# 6 0.000001 0.000007 -0.000002 -0.000003 0.000000 0.057243
#
#
# Mechanical properties :
#
#
# Convention : Reuss Voigt Hill
#
# Bulk Modulus (GPa) = 52.09529 59.25339 55.67434
# Shear Modulus (GPa) = 21.90200 26.68923 24.29562
#
# Velocity S-wave (km/s) = 3.48987 3.85244 3.67563
# Velocity P-wave (km/s) = 6.72369 7.26208 6.99807
#
# Compressibility (1/GPa) = 0.01919559
#
# Stress axis : x y z
#
# Youngs Moduli (GPa) = 141.69124 77.24475 72.23544
#
# Poissons Ratio (x) = 0.11830 0.23639
# Poissons Ratio (y) = 0.21700 0.18216
# Poissons Ratio (z) = 0.46368 0.19479
#
# Static dielectric constant tensor:
#      x y z
#    x 4.110670 0.000010 0.000000 
#    y 0.000010 3.553350 0.000000 
#    z 0.000000 0.000000 2.651790 
# 
# 
# High freq. dielectric constant tensor:
#      x y z
#    x 1.721500 0.000000 0.000000 
#    y 0.000000 1.716840 0.000000 
#    z 0.000000 0.000000 1.635870 
# 
# From -- ./inp_files/4036.got.cif
#   From: 2010.03.12/outbox.cif.g09.slc.cpg/sg69_3_cif.got.tgz:4036.got - 2010.04.10 23:52:46.
