data_PCOD8284256
_publ_section_title
;
Structure prediction by ZEFSAII (Michael W. Deem and Ramdas Pophale) SiO2 
 PCOD8284256
Probable space group: F M M M
;
_chemical_formula_sum "Si O2"
_cell_formula_units_Z 160
_cell_length_a 18.923112
_cell_length_b 27.177402
_cell_length_c 15.795477
_cell_angle_alpha 90.000000
_cell_angle_beta 90.000000
_cell_angle_gamma 90.000000
_cell_volume 8123.314053
_symmetry_space_group_name_H-M "F M M M"
_symmetry_group_IT_number 69
_symmetry_cell_setting 'orthorhombic'
loop_
_space_group_symop_operation_xyz
x,y,z
-x,-y,z
x,-y,-z
-x,y,-z
-x,-y,-z
x,y,-z
-x,y,z
x,-y,z
x,1/2+y,1/2+z
-x,1/2-y,1/2+z
x,1/2-y,1/2-z
-x,1/2+y,1/2-z
-x,1/2-y,1/2-z
x,1/2+y,1/2-z
-x,1/2+y,1/2+z
x,1/2-y,1/2+z
1/2+x,y,1/2+z
1/2-x,-y,1/2+z
1/2+x,-y,1/2-z
1/2-x,y,1/2-z
1/2-x,-y,1/2-z
1/2+x,y,1/2-z
1/2-x,y,1/2+z
1/2+x,-y,1/2+z
1/2+x,1/2+y,z
1/2-x,1/2-y,z
1/2+x,1/2-y,-z
1/2-x,1/2+y,-z
1/2-x,1/2-y,-z
1/2+x,1/2+y,-z
1/2-x,1/2+y,z
1/2+x,1/2-y,z
loop_
_atom_site_type_symbol
_atom_site_label
_atom_site_fract_x
_atom_site_fract_y
_atom_site_fract_z
Si Si1 0.083729 0.602825 0.760851
Si Si2 0.787856 0.945214 0.660608
Si Si3 0.921736 0.210333 0.676740
Si Si4 0.816572 0.774391 0.095992
Si Si5 0.164088 0.615940 0.402522
O O1 0.130050 0.570392 0.826555
O O2 0.103113 0.658248 0.787529
O O3 0.108357 0.591362 0.663547
O O4 0.000000 0.590908 0.768973
O O5 0.750000 0.944566 0.750000
O O6 0.742246 0.908675 0.601083
O O7 0.787037 0.000000 0.620803
O O8 0.914465 0.250000 0.750000
O O9 0.877477 0.233143 0.599849
O O10 0.000000 0.205435 0.640910
O O11 0.750000 0.750000 0.144854
O O12 0.834263 0.828052 0.132354
O O13 0.795585 0.784834 0.000000
O O14 0.136420 0.611774 0.500000
#
# Coordination Sequence:
#
# PCOD8284256 Si02
#       5
#    32  32  32  32  32
#     4  10  20  35  55  81 111 143 184 227 268 322
#     4   9  19  36  56  77 103 139 180 221 269 325
#     4  10  19  32  49  73 106 146 183 214 256 318
#     4  10  20  32  48  74 106 139 179 226 271 315
#     4  10  20  34  54  81 110 139 176 225 279 332
#
# _framework density 19.696394999999999
#
# number of rings (size 3 to 8) (size 9 to 14) (size 15 to 20)
#    0.000    2.200    2.000    1.200    0.000    2.000 
#    0.000    2.000    0.000    1.800    0.000    7.000 
#    0.000    0.000    0.000    0.000    0.000    0.000 
#
# Total GULP energy -495541.048841 kJ/mol
# GULP energy per Si atom -12388.526221 kJ/mol
# Density = 1.965156 g / cm^3
# Si number density = 19.696395 Si / 1000 Ang^3
#
#
#
# Elastic Constant Matrix: (Units=GPa)
#
#
# Indices 1 2 3 4 5 6 
#
# 1 111.3881 40.7743 21.5284 0.0000 0.0000 0.0000
# 2 40.7743 87.0883 20.3674 0.0000 0.0000 0.0000
# 3 21.5284 20.3674 33.2865 0.0000 0.0000 0.0000
# 4 0.0000 0.0000 0.0000 10.0058 0.0000 0.0000
# 5 0.0000 0.0000 0.0000 0.0000 21.8817 0.0000
# 6 0.0000 0.0000 0.0000 0.0000 0.0000 26.8930
#
#
#
# Elastic Compliance Matrix: (Units=1/GPa)
#
#
# Indices 1 2 3 4 5 6 
#
# 1 0.011461 -0.004239 -0.004819 0.000000 0.000000 0.000000
# 2 -0.004239 0.014968 -0.006417 0.000000 0.000000 0.000000
# 3 -0.004819 -0.006417 0.037085 0.000000 0.000000 0.000000
# 4 0.000000 0.000000 0.000000 0.099942 0.000000 0.000000
# 5 0.000000 0.000000 0.000000 0.000000 0.045700 0.000000
# 6 0.000000 0.000000 0.000000 0.000000 0.000000 0.037184
#
#
# Mechanical properties :
#
#
# Convention : Reuss Voigt Hill
#
# Bulk Modulus (GPa) = 30.70811 44.12255 37.41533
# Shear Modulus (GPa) = 17.35241 21.69562 19.52401
#
# Velocity S-wave (km/s) = 2.97137 3.32249 3.15182
# Velocity P-wave (km/s) = 5.23418 6.09660 5.68178
#
# Compressibility (1/GPa) = 0.03256469
#
# Stress axis : x y z
#
# Youngs Moduli (GPa) = 87.25562 66.80923 26.96492
#
# Poissons Ratio (x) = 0.28319 0.12993
# Poissons Ratio (y) = 0.36986 0.17304
# Poissons Ratio (z) = 0.42045 0.42872
#
# Static dielectric constant tensor:
#      x y z
#    x 3.674700 0.000000 0.000000 
#    y 0.000000 3.879620 0.000000 
#    z 0.000000 0.000000 3.273250 
# 
# 
# High freq. dielectric constant tensor:
#      x y z
#    x 1.763420 0.000000 0.000000 
#    y 0.000000 1.765710 0.000000 
#    z 0.000000 0.000000 1.741480 
# 
# From -- ./inp_files/23107.got.cif
#   From: 2010.03.12/outbox.cif.g09.slc.cpg/sg69_12_cif.got.tgz:23107.got - 2010.04.10 23:52:46.
