data_PCOD8284792
_publ_section_title
;
Structure prediction by ZEFSAII (Michael W. Deem and Ramdas Pophale) SiO2 
 PCOD8284792
Probable space group: F M M M
;
_chemical_formula_sum "Si O2"
_cell_formula_units_Z 128
_cell_length_a 27.276389
_cell_length_b 26.027872
_cell_length_c 9.689239
_cell_angle_alpha 90.000000
_cell_angle_beta 90.000000
_cell_angle_gamma 90.000000
_cell_volume 6878.839974
_symmetry_space_group_name_H-M "F M M M"
_symmetry_group_IT_number 69
_symmetry_cell_setting 'orthorhombic'
loop_
_space_group_symop_operation_xyz
x,y,z
-x,-y,z
x,-y,-z
-x,y,-z
-x,-y,-z
x,y,-z
-x,y,z
x,-y,z
x,1/2+y,1/2+z
-x,1/2-y,1/2+z
x,1/2-y,1/2-z
-x,1/2+y,1/2-z
-x,1/2-y,1/2-z
x,1/2+y,1/2-z
-x,1/2+y,1/2+z
x,1/2-y,1/2+z
1/2+x,y,1/2+z
1/2-x,-y,1/2+z
1/2+x,-y,1/2-z
1/2-x,y,1/2-z
1/2-x,-y,1/2-z
1/2+x,y,1/2-z
1/2-x,y,1/2+z
1/2+x,-y,1/2+z
1/2+x,1/2+y,z
1/2-x,1/2-y,z
1/2+x,1/2-y,-z
1/2-x,1/2+y,-z
1/2-x,1/2-y,-z
1/2+x,1/2+y,-z
1/2-x,1/2+y,z
1/2+x,1/2-y,z
loop_
_atom_site_type_symbol
_atom_site_label
_atom_site_fract_x
_atom_site_fract_y
_atom_site_fract_z
Si Si1 0.597342 0.139520 0.711555
Si Si2 0.558442 0.940435 0.500000
Si Si3 0.298636 0.111706 0.340785
Si Si4 0.441828 0.334454 0.500000
Si Si5 0.557814 0.217766 0.500000
Si Si6 0.205263 0.000000 0.152432
O O1 0.579690 0.087883 0.634549
O O2 0.656411 0.146927 0.708439
O O3 0.575758 0.189830 0.638182
O O4 0.578890 0.136035 0.867439
O O5 0.500000 0.936601 0.500000
O O6 0.576132 0.000000 0.500000
O O7 0.284929 0.123067 0.500000
O O8 0.250000 0.121384 0.250000
O O9 0.322286 0.054010 0.323157
O O10 0.500000 0.337395 0.500000
O O11 0.422665 0.275892 0.500000
O O12 0.500000 0.216691 0.500000
O O13 0.250000 0.000000 0.250000
O O14 0.227691 0.000000 0.000000
#
# Coordination Sequence:
#
# PCOD8284792 Si02
#       6
#    32  16  32  16  16  16
#     4  11  21  36  60  88 116 151 193 238 291 354
#     4  10  21  37  60  84 116 160 198 230 280 357
#     4  10  20  34  56  81 113 151 193 240 281 333
#     4  11  23  38  60  89 118 144 186 253 304 339
#     4  10  20  39  64  87 110 145 192 245 300 353
#     4   8  16  30  50  76 103 138 186 234 273 314
#
# _framework density 18.607789
#
# number of rings (size 3 to 8) (size 9 to 14) (size 15 to 20)
#    0.000    1.875    2.500    3.750    3.500    2.000 
#    0.000    0.625    0.000    6.750    0.000    0.000 
#    0.000    0.000    0.000    0.000    0.000    0.000 
#
# Total GULP energy -396569.268035 kJ/mol
# GULP energy per Si atom -12392.789626 kJ/mol
# Density = 1.856544 g / cm^3
# Si number density = 18.607789 Si / 1000 Ang^3
#
#
#
# Elastic Constant Matrix: (Units=GPa)
#
#
# Indices 1 2 3 4 5 6 
#
# 1 109.3405 37.6386 51.5685 -0.0004 0.0019 0.0005
# 2 37.6386 89.1194 46.5597 -0.0012 0.0014 0.0000
# 3 51.5685 46.5597 151.1457 -0.0055 0.0088 0.0015
# 4 -0.0004 -0.0012 -0.0055 -20.2276 0.0093 0.0022
# 5 0.0019 0.0014 0.0088 0.0093 28.5100 -0.0020
# 6 0.0005 0.0000 0.0015 0.0022 -0.0020 13.5702
#
#
#
# Elastic Compliance Matrix: (Units=1/GPa)
#
#
# Indices 1 2 3 4 5 6 
#
# 1 0.011707 -0.003406 -0.002945 0.000001 0.000000 0.000000
# 2 -0.003406 0.014364 -0.003263 0.000000 0.000001 0.000000
# 3 -0.002945 -0.003263 0.008626 -0.000002 -0.000002 -0.000001
# 4 0.000001 0.000000 -0.000002 -0.049437 0.000016 0.000008
# 5 0.000000 0.000001 -0.000002 0.000016 0.035075 0.000005
# 6 0.000000 0.000000 -0.000001 0.000008 0.000005 0.073691
#
#
# Mechanical properties :
#
#
# Convention : Reuss Voigt Hill
#
# Bulk Modulus (GPa) = 64.64205 69.01545 66.82875
# Shear Modulus (GPa) = 42.22635 18.62645 30.42640
#
# Velocity S-wave (km/s) = 4.76887 3.16730 4.04808
# Velocity P-wave (km/s) = 8.07078 7.10955 7.60537
#
# Compressibility (1/GPa) = 0.01546981
#
# Stress axis : x y z
#
# Youngs Moduli (GPa) = 85.41794 69.61919 115.92781
#
# Poissons Ratio (x) = 0.23710 0.34143
# Poissons Ratio (y) = 0.29091 0.37824
# Poissons Ratio (z) = 0.25157 0.22715
#
# Static dielectric constant tensor:
#      x y z
#    x 3.266820 0.000000 0.000000 
#    y 0.000000 3.385030 0.000000 
#    z 0.000000 0.000000 3.448290 
# 
# 
# High freq. dielectric constant tensor:
#      x y z
#    x 1.722000 0.000000 0.000000 
#    y 0.000000 1.710630 0.000000 
#    z 0.000000 0.000000 1.726580 
# 
# From -- ./inp_files/4923.got.cif
#   From: 2010.03.12/outbox.cif.g09.slc.cpg/sg69_3_cif.got.tgz:4923.got - 2010.04.10 23:52:46.
