data_PCOD8284317
_publ_section_title
;
Structure prediction by ZEFSAII (Michael W. Deem and Ramdas Pophale) SiO2 
 PCOD8284317
Probable space group: F M M M
;
_chemical_formula_sum "Si O2"
_cell_formula_units_Z 160
_cell_length_a 25.143191
_cell_length_b 18.948231
_cell_length_c 18.619770
_cell_angle_alpha 90.000000
_cell_angle_beta 90.000000
_cell_angle_gamma 90.000000
_cell_volume 8870.812039
_symmetry_space_group_name_H-M "F M M M"
_symmetry_group_IT_number 69
_symmetry_cell_setting 'orthorhombic'
loop_
_space_group_symop_operation_xyz
x,y,z
-x,-y,z
x,-y,-z
-x,y,-z
-x,-y,-z
x,y,-z
-x,y,z
x,-y,z
x,1/2+y,1/2+z
-x,1/2-y,1/2+z
x,1/2-y,1/2-z
-x,1/2+y,1/2-z
-x,1/2-y,1/2-z
x,1/2+y,1/2-z
-x,1/2+y,1/2+z
x,1/2-y,1/2+z
1/2+x,y,1/2+z
1/2-x,-y,1/2+z
1/2+x,-y,1/2-z
1/2-x,y,1/2-z
1/2-x,-y,1/2-z
1/2+x,y,1/2-z
1/2-x,y,1/2+z
1/2+x,-y,1/2+z
1/2+x,1/2+y,z
1/2-x,1/2-y,z
1/2+x,1/2-y,-z
1/2-x,1/2+y,-z
1/2-x,1/2-y,-z
1/2+x,1/2+y,-z
1/2-x,1/2+y,z
1/2+x,1/2-y,z
loop_
_atom_site_type_symbol
_atom_site_label
_atom_site_fract_x
_atom_site_fract_y
_atom_site_fract_z
Si Si1 0.103699 0.420030 0.810567
Si Si2 0.500000 0.227251 0.666717
Si Si3 0.693529 0.714356 0.078959
Si Si4 0.809136 0.668987 0.270833
Si Si5 0.500000 0.922465 0.714691
Si Si6 0.909761 0.695396 0.080839
O O1 0.120598 0.500000 0.826487
O O2 0.150808 0.382291 0.768418
O O3 0.092218 0.382863 0.886492
O O4 0.051046 0.415085 0.764141
O O5 0.500000 0.250000 0.750000
O O6 0.500000 0.141928 0.658205
O O7 0.552751 0.255029 0.628569
O O8 0.750000 0.750000 0.094571
O O9 0.683268 0.658729 0.142919
O O10 0.649662 0.775147 0.081551
O O11 0.692924 0.677297 0.000000
O O12 0.821305 0.750000 0.250000
O O13 0.750000 0.646223 0.250000
O O14 0.500000 0.000000 0.676260
O O15 0.932387 0.690922 0.000000
#
# Coordination Sequence:
#
# PCOD8284317 Si02
#       6
#    32  16  32  32  16  32
#     4  11  22  36  55  81 116 153 192 234 290 350
#     4  12  21  36  63  82 109 149 190 243 280 343
#     4  10  19  32  53  82 114 145 182 236 295 342
#     4  11  19  34  57  83 112 148 195 246 287 339
#     4  10  22  36  54  84 113 145 184 232 291 340
#     4  11  22  35  55  85 114 146 193 237 285 344
#
# _framework density 18.03668
#
# number of rings (size 3 to 8) (size 9 to 14) (size 15 to 20)
#    0.000    1.200    6.000    1.500    0.000    0.800 
#    0.000    0.000    0.000    4.800    0.000    8.400 
#    0.000    0.000    0.000    0.000    0.000    0.000 
#
# Total GULP energy -495940.777252 kJ/mol
# GULP energy per Si atom -12398.519431 kJ/mol
# Density = 1.799563 g / cm^3
# Si number density = 18.036680 Si / 1000 Ang^3
#
#
#
# Elastic Constant Matrix: (Units=GPa)
#
#
# Indices 1 2 3 4 5 6 
#
# 1 112.3085 57.7421 34.1952 0.0000 0.0000 0.0000
# 2 57.7421 128.9454 64.5845 0.0000 0.0000 0.0000
# 3 34.1952 64.5845 143.2551 0.0000 0.0000 0.0000
# 4 0.0000 0.0000 0.0000 22.0936 0.0000 0.0000
# 5 0.0000 0.0000 0.0000 0.0000 24.2452 0.0000
# 6 0.0000 0.0000 0.0000 0.0000 0.0000 29.0801
#
#
#
# Elastic Compliance Matrix: (Units=1/GPa)
#
#
# Indices 1 2 3 4 5 6 
#
# 1 0.011601 -0.004919 -0.000552 0.000000 0.000000 0.000000
# 2 -0.004919 0.012103 -0.004282 0.000000 0.000000 0.000000
# 3 -0.000552 -0.004282 0.009043 0.000000 0.000000 0.000000
# 4 0.000000 0.000000 0.000000 0.045262 0.000000 0.000000
# 5 0.000000 0.000000 0.000000 0.000000 0.041245 0.000000
# 6 0.000000 0.000000 0.000000 0.000000 0.000000 0.034388
#
#
# Mechanical properties :
#
#
# Convention : Reuss Voigt Hill
#
# Bulk Modulus (GPa) = 75.52107 77.50586 76.51346
# Shear Modulus (GPa) = 28.15948 30.28291 29.22119
#
# Velocity S-wave (km/s) = 3.95553 4.10196 4.02941
# Velocity P-wave (km/s) = 7.92612 8.09316 8.01008
#
# Compressibility (1/GPa) = 0.01324134
#
# Stress axis : x y z
#
# Youngs Moduli (GPa) = 86.20060 82.62698 110.58505
#
# Poissons Ratio (x) = 0.40641 0.06101
# Poissons Ratio (y) = 0.42398 0.47355
# Poissons Ratio (z) = 0.04755 0.35383
#
# Static dielectric constant tensor:
#      x y z
#    x 3.477880 0.000000 0.000000 
#    y 0.000000 3.374600 0.000000 
#    z 0.000000 0.000000 3.718060 
# 
# 
# High freq. dielectric constant tensor:
#      x y z
#    x 1.722520 0.000000 0.000000 
#    y 0.000000 1.664640 0.000000 
#    z 0.000000 0.000000 1.703810 
# 
# From -- ./inp_files/25828.got.cif
#   From: 2010.03.12/outbox.cif.g09.slc.cpg/sg69_13_cif.got.tgz:25828.got - 2010.04.10 23:52:46.
