data_PCOD8284407
_publ_section_title
;
Structure prediction by ZEFSAII (Michael W. Deem and Ramdas Pophale) SiO2 
 PCOD8284407
Probable space group: F M M M
;
_chemical_formula_sum "Si O2"
_cell_formula_units_Z 160
_cell_length_a 13.596202
_cell_length_b 24.227124
_cell_length_c 22.409829
_cell_angle_alpha 90.000000
_cell_angle_beta 90.000000
_cell_angle_gamma 90.000000
_cell_volume 7381.727570
_symmetry_space_group_name_H-M "F M M M"
_symmetry_group_IT_number 69
_symmetry_cell_setting 'orthorhombic'
loop_
_space_group_symop_operation_xyz
x,y,z
-x,-y,z
x,-y,-z
-x,y,-z
-x,-y,-z
x,y,-z
-x,y,z
x,-y,z
x,1/2+y,1/2+z
-x,1/2-y,1/2+z
x,1/2-y,1/2-z
-x,1/2+y,1/2-z
-x,1/2-y,1/2-z
x,1/2+y,1/2-z
-x,1/2+y,1/2+z
x,1/2-y,1/2+z
1/2+x,y,1/2+z
1/2-x,-y,1/2+z
1/2+x,-y,1/2-z
1/2-x,y,1/2-z
1/2-x,-y,1/2-z
1/2+x,y,1/2-z
1/2-x,y,1/2+z
1/2+x,-y,1/2+z
1/2+x,1/2+y,z
1/2-x,1/2-y,z
1/2+x,1/2-y,-z
1/2-x,1/2+y,-z
1/2-x,1/2-y,-z
1/2+x,1/2+y,-z
1/2-x,1/2+y,z
1/2+x,1/2-y,z
loop_
_atom_site_type_symbol
_atom_site_label
_atom_site_fract_x
_atom_site_fract_y
_atom_site_fract_z
Si Si1 0.111160 0.840104 0.254531
Si Si2 0.389135 0.060851 0.839118
Si Si3 0.309789 0.167923 0.627779
Si Si4 0.891792 0.782424 0.628684
Si Si5 0.779624 0.061185 0.069360
O O1 0.145674 0.894164 0.291416
O O2 0.187161 0.834899 0.199869
O O3 0.112435 0.787014 0.298855
O O4 0.000000 0.848233 0.229206
O O5 0.500000 0.073842 0.859238
O O6 0.325424 0.064210 0.898894
O O7 0.379893 0.000000 0.809757
O O8 0.197760 0.179794 0.604670
O O9 0.378468 0.218979 0.608404
O O10 0.346574 0.110570 0.597660
O O11 0.000000 0.802466 0.605947
O O12 0.827548 0.000000 0.079594
O O13 0.764517 0.072708 0.000000
#
# Coordination Sequence:
#
# PCOD8284407 Si02
#       5
#    32  32  32  32  32
#     4  10  19  33  56  88 122 152 186 234 289 353
#     4   9  18  33  54  83 118 151 188 239 296 352
#     4  11  21  35  59  85 116 157 193 233 294 346
#     4  10  21  36  55  86 120 151 189 232 282 348
#     4  10  22  39  58  81 111 152 202 247 287 340
#
# _framework density 21.675142999999998
#
# number of rings (size 3 to 8) (size 9 to 14) (size 15 to 20)
#    0.000    2.000    2.000    1.800    0.000    4.400 
#    0.000    6.000    0.000    5.400    0.000    5.600 
#    0.000    0.000    0.000    0.000    0.000    0.000 
#
# Total GULP energy -495579.738259 kJ/mol
# GULP energy per Si atom -12389.493456 kJ/mol
# Density = 2.162581 g / cm^3
# Si number density = 21.675143 Si / 1000 Ang^3
#
#
#
# Elastic Constant Matrix: (Units=GPa)
#
#
# Indices 1 2 3 4 5 6 
#
# 1 76.3878 32.2942 9.0936 0.0000 0.0000 0.0000
# 2 32.2942 158.3826 30.4995 0.0000 0.0000 0.0000
# 3 9.0936 30.4995 41.5286 0.0000 0.0000 0.0000
# 4 0.0000 0.0000 0.0000 28.2112 0.0000 0.0000
# 5 0.0000 0.0000 0.0000 0.0000 8.4434 0.0000
# 6 0.0000 0.0000 0.0000 0.0000 0.0000 24.1553
#
#
#
# Elastic Compliance Matrix: (Units=1/GPa)
#
#
# Indices 1 2 3 4 5 6 
#
# 1 0.014374 -0.002708 -0.001159 0.000000 0.000000 0.000000
# 2 -0.002708 0.007864 -0.005183 0.000000 0.000000 0.000000
# 3 -0.001159 -0.005183 0.028140 0.000000 0.000000 0.000000
# 4 0.000000 0.000000 0.000000 0.035447 0.000000 0.000000
# 5 0.000000 0.000000 0.000000 0.000000 0.118436 0.000000
# 6 0.000000 0.000000 0.000000 0.000000 0.000000 0.041399
#
#
# Mechanical properties :
#
#
# Convention : Reuss Voigt Hill
#
# Bulk Modulus (GPa) = 30.97964 46.67482 38.82723
# Shear Modulus (GPa) = 18.21381 25.78942 22.00162
#
# Velocity S-wave (km/s) = 2.90195 3.45311 3.18946
# Velocity P-wave (km/s) = 5.05492 6.12203 5.61388
#
# Compressibility (1/GPa) = 0.03227926
#
# Stress axis : x y z
#
# Youngs Moduli (GPa) = 69.57126 127.16331 35.53698
#
# Poissons Ratio (x) = 0.34431 0.04118
# Poissons Ratio (y) = 0.18837 0.18417
# Poissons Ratio (z) = 0.08063 0.65903
#
# Static dielectric constant tensor:
#      x y z
#    x 3.818660 0.000000 0.000000 
#    y 0.000000 4.542230 0.000000 
#    z 0.000000 0.000000 3.353810 
# 
# 
# High freq. dielectric constant tensor:
#      x y z
#    x 1.839230 0.000000 0.000000 
#    y 0.000000 1.879590 0.000000 
#    z 0.000000 0.000000 1.791780 
# 
# From -- ./inp_files/35967.got.cif
#   From: 2010.03.12/outbox.cif.g09.slc.cpg/sg69_18_cif.got.tgz:35967.got - 2010.04.10 23:52:46.
