data_PCOD8284861
_publ_section_title
;
Structure prediction by ZEFSAII (Michael W. Deem and Ramdas Pophale) SiO2 
 PCOD8284861
Probable space group: F M M M
;
_chemical_formula_sum "Si O2"
_cell_formula_units_Z 160
_cell_length_a 22.084810
_cell_length_b 22.080233
_cell_length_c 17.227676
_cell_angle_alpha 90.000000
_cell_angle_beta 90.000000
_cell_angle_gamma 90.000000
_cell_volume 8400.865172
_symmetry_space_group_name_H-M "F M M M"
_symmetry_group_IT_number 69
_symmetry_cell_setting 'orthorhombic'
loop_
_space_group_symop_operation_xyz
x,y,z
-x,-y,z
x,-y,-z
-x,y,-z
-x,-y,-z
x,y,-z
-x,y,z
x,-y,z
x,1/2+y,1/2+z
-x,1/2-y,1/2+z
x,1/2-y,1/2-z
-x,1/2+y,1/2-z
-x,1/2-y,1/2-z
x,1/2+y,1/2-z
-x,1/2+y,1/2+z
x,1/2-y,1/2+z
1/2+x,y,1/2+z
1/2-x,-y,1/2+z
1/2+x,-y,1/2-z
1/2-x,y,1/2-z
1/2-x,-y,1/2-z
1/2+x,y,1/2-z
1/2-x,y,1/2+z
1/2+x,-y,1/2+z
1/2+x,1/2+y,z
1/2-x,1/2-y,z
1/2+x,1/2-y,-z
1/2-x,1/2+y,-z
1/2-x,1/2-y,-z
1/2+x,1/2+y,-z
1/2-x,1/2+y,z
1/2+x,1/2-y,z
loop_
_atom_site_type_symbol
_atom_site_label
_atom_site_fract_x
_atom_site_fract_y
_atom_site_fract_z
Si Si1 0.933697 0.129816 0.728445
Si Si2 0.805200 0.000000 0.591371
Si Si3 0.614844 0.193296 0.085794
Si Si4 0.663917 0.296300 0.182523
Si Si5 0.068039 0.500000 0.829183
Si Si6 0.241434 0.627119 0.087204
O O1 0.930817 0.158258 0.642140
O O2 0.882319 0.155363 0.783414
O O3 0.000000 0.146199 0.762095
O O4 0.925210 0.057941 0.725930
O O5 0.876746 0.000000 0.610353
O O6 0.769116 0.940570 0.621723
O O7 0.802657 0.000000 0.500000
O O8 0.628563 0.260906 0.115336
O O9 0.676752 0.157152 0.082254
O O10 0.585679 0.197207 0.000000
O O11 0.686257 0.250000 0.250000
O O12 0.719651 0.333266 0.146909
O O13 0.000000 0.500000 0.868497
O O14 0.270355 0.625881 0.000000
#
# Coordination Sequence:
#
# PCOD8284861 Si02
#       6
#    32  16  32  32  16  32
#     4  10  22  38  56  80 110 143 184 232 272 319
#     4  10  20  36  57  85 112 140 178 230 278 320
#     4  10  20  35  56  80 110 145 183 223 270 328
#     4  10  22  36  55  79 112 151 187 219 270 326
#     4  10  20  38  57  77 108 146 182 221 275 329
#     4  10  20  36  56  81 113 142 179 226 273 325
#
# _framework density 19.045656999999999
#
# number of rings (size 3 to 8) (size 9 to 14) (size 15 to 20)
#    0.000    2.000    2.000    1.200    0.000   12.200 
#    0.000    3.000    0.000    1.800    0.000    0.000 
#    0.000   12.000    0.000    0.000    0.000    0.000 
#
# Total GULP energy -495825.563652 kJ/mol
# GULP energy per Si atom -12395.639091 kJ/mol
# Density = 1.900231 g / cm^3
# Si number density = 19.045657 Si / 1000 Ang^3
#
#
#
# Elastic Constant Matrix: (Units=GPa)
#
#
# Indices 1 2 3 4 5 6 
#
# 1 62.9080 38.0335 8.5398 0.0000 0.0000 0.0000
# 2 38.0335 137.3487 32.5526 0.0000 0.0000 0.0000
# 3 8.5398 32.5526 50.0502 0.0000 0.0000 0.0000
# 4 0.0000 0.0000 0.0000 12.3930 0.0000 0.0000
# 5 0.0000 0.0000 0.0000 0.0000 48.4703 0.0000
# 6 0.0000 0.0000 0.0000 0.0000 0.0000 41.8964
#
#
#
# Elastic Compliance Matrix: (Units=1/GPa)
#
#
# Indices 1 2 3 4 5 6 
#
# 1 0.019095 -0.005338 0.000214 0.000000 0.000000 0.000000
# 2 -0.005338 0.010100 -0.005658 0.000000 0.000000 0.000000
# 3 0.000214 -0.005658 0.023623 0.000000 0.000000 0.000000
# 4 0.000000 0.000000 0.000000 0.080691 0.000000 0.000000
# 5 0.000000 0.000000 0.000000 0.000000 0.020631 0.000000
# 6 0.000000 0.000000 0.000000 0.000000 0.000000 0.023868
#
#
# Mechanical properties :
#
#
# Convention : Reuss Voigt Hill
#
# Bulk Modulus (GPa) = 31.99669 45.39540 38.69605
# Shear Modulus (GPa) = 23.81052 31.96400 27.88726
#
# Velocity S-wave (km/s) = 3.53963 4.10113 3.83068
# Velocity P-wave (km/s) = 5.79152 6.80533 6.31879
#
# Compressibility (1/GPa) = 0.03125323
#
# Stress axis : x y z
#
# Youngs Moduli (GPa) = 52.37074 99.01000 42.33074
#
# Poissons Ratio (x) = 0.52854 -0.00906
# Poissons Ratio (y) = 0.27957 0.23952
# Poissons Ratio (z) = -0.01121 0.56022
#
# Static dielectric constant tensor:
#      x y z
#    x 3.425640 0.000000 0.000000 
#    y 0.000000 4.015340 0.000000 
#    z 0.000000 0.000000 3.682460 
# 
# 
# High freq. dielectric constant tensor:
#      x y z
#    x 1.729320 0.000000 0.000000 
#    y 0.000000 1.757740 0.000000 
#    z 0.000000 0.000000 1.722210 
# 
# From -- ./inp_files/24613.got.cif
#   From: 2010.03.12/outbox.cif.g09.slc.cpg/sg69_13_cif.got.tgz:24613.got - 2010.04.10 23:52:46.
