data_PCOD8284449
_publ_section_title
;
Structure prediction by ZEFSAII (Michael W. Deem and Ramdas Pophale) SiO2 
 PCOD8284449
Probable space group: F M M M
;
_chemical_formula_sum "Si O2"
_cell_formula_units_Z 208
_cell_length_a 17.593131
_cell_length_b 23.048732
_cell_length_c 27.190975
_cell_angle_alpha 90.000000
_cell_angle_beta 90.000000
_cell_angle_gamma 90.000000
_cell_volume 11025.923000
_symmetry_space_group_name_H-M "F M M M"
_symmetry_group_IT_number 69
_symmetry_cell_setting 'orthorhombic'
loop_
_space_group_symop_operation_xyz
x,y,z
-x,-y,z
x,-y,-z
-x,y,-z
-x,-y,-z
x,y,-z
-x,y,z
x,-y,z
x,1/2+y,1/2+z
-x,1/2-y,1/2+z
x,1/2-y,1/2-z
-x,1/2+y,1/2-z
-x,1/2-y,1/2-z
x,1/2+y,1/2-z
-x,1/2+y,1/2+z
x,1/2-y,1/2+z
1/2+x,y,1/2+z
1/2-x,-y,1/2+z
1/2+x,-y,1/2-z
1/2-x,y,1/2-z
1/2-x,-y,1/2-z
1/2+x,y,1/2-z
1/2-x,y,1/2+z
1/2+x,-y,1/2+z
1/2+x,1/2+y,z
1/2-x,1/2-y,z
1/2+x,1/2-y,-z
1/2-x,1/2+y,-z
1/2-x,1/2-y,-z
1/2+x,1/2+y,-z
1/2-x,1/2+y,z
1/2+x,1/2-y,z
loop_
_atom_site_type_symbol
_atom_site_label
_atom_site_fract_x
_atom_site_fract_y
_atom_site_fract_z
Si Si1 0.911816 0.364688 0.642176
Si Si2 0.328391 0.433313 0.592607
Si Si3 0.411026 0.936963 0.267086
Si Si4 0.415121 0.430717 0.500000
Si Si5 0.089912 0.635326 0.824906
Si Si6 0.160179 0.753747 0.807569
Si Si7 0.658468 0.433112 0.942146
O O1 0.889461 0.417728 0.677993
O O2 0.865248 0.309801 0.661825
O O3 0.894504 0.387075 0.586784
O O4 0.000000 0.348173 0.645753
O O5 0.350306 0.500000 0.598736
O O6 0.373807 0.405046 0.547429
O O7 0.356398 0.402145 0.640818
O O8 0.240077 0.424922 0.582443
O O9 0.500000 0.944714 0.261576
O O10 0.385609 0.887183 0.229129
O O11 0.372364 0.000000 0.256852
O O12 0.409626 0.500000 0.500000
O O13 0.500000 0.407195 0.500000
O O14 0.114564 0.701290 0.832488
O O15 0.000000 0.627407 0.835892
O O16 0.137669 0.750000 0.750000
O O17 0.250000 0.750000 0.814439
O O18 0.630663 0.500000 0.936097
O O19 0.659673 0.416862 0.000000
#
# Coordination Sequence:
#
# PCOD8284449 Si02
#       7
#    32  32  32  16  32  32  32
#     4  11  22  38  62  87 117 156 202 252 298 353
#     4  10  19  34  55  84 121 158 192 233 293 356
#     4   9  18  32  51  82 121 153 182 228 293 352
#     4   9  16  28  50  78 108 147 193 233 273 333
#     4  11  21  34  57  86 119 155 196 244 289 348
#     4  11  23  40  61  84 116 157 202 242 291 360
#     4  10  21  39  62  88 121 160 202 250 307 363
#
# _framework density 18.864633000000001
#
# number of rings (size 3 to 8) (size 9 to 14) (size 15 to 20)
#    0.000    1.769    2.308    2.769    0.000    3.385 
#    0.000    0.769    1.692    5.077    0.000    0.000 
#    0.000    0.000    0.000    0.000    0.000    0.000 
#
# Total GULP energy -644556.436896 kJ/mol
# GULP energy per Si atom -12395.316094 kJ/mol
# Density = 1.882170 g / cm^3
# Si number density = 18.864633 Si / 1000 Ang^3
#
#
#
# Elastic Constant Matrix: (Units=GPa)
#
#
# Indices 1 2 3 4 5 6 
#
# 1 63.0026 38.1856 35.8582 0.0000 0.0000 0.0000
# 2 38.1856 101.4331 40.8676 0.0000 0.0000 0.0000
# 3 35.8582 40.8676 110.1747 0.0000 0.0000 0.0000
# 4 0.0000 0.0000 0.0000 19.9652 0.0000 0.0000
# 5 0.0000 0.0000 0.0000 0.0000 32.3490 0.0000
# 6 0.0000 0.0000 0.0000 0.0000 0.0000 24.1376
#
#
#
# Elastic Compliance Matrix: (Units=1/GPa)
#
#
# Indices 1 2 3 4 5 6 
#
# 1 0.022648 -0.006532 -0.004948 0.000000 0.000000 0.000000
# 2 -0.006532 0.013475 -0.002872 0.000000 0.000000 0.000000
# 3 -0.004948 -0.002872 0.011752 0.000000 0.000000 0.000000
# 4 0.000000 0.000000 0.000000 0.050087 0.000000 0.000000
# 5 0.000000 0.000000 0.000000 0.000000 0.030913 0.000000
# 6 0.000000 0.000000 0.000000 0.000000 0.000000 0.041429
#
#
# Mechanical properties :
#
#
# Convention : Reuss Voigt Hill
#
# Bulk Modulus (GPa) = 52.16537 56.04815 54.10676
# Shear Modulus (GPa) = 24.34274 25.93696 25.13985
#
# Velocity S-wave (km/s) = 3.59610 3.71199 3.65450
# Velocity P-wave (km/s) = 6.70485 6.93880 6.82283
#
# Compressibility (1/GPa) = 0.01916981
#
# Stress axis : x y z
#
# Youngs Moduli (GPa) = 44.15432 74.21048 85.08938
#
# Poissons Ratio (x) = 0.48478 0.42102
# Poissons Ratio (y) = 0.28844 0.24440
# Poissons Ratio (z) = 0.21848 0.21316
#
# Static dielectric constant tensor:
#      x y z
#    x 3.355050 0.000000 0.000000 
#    y 0.000000 3.059270 0.000000 
#    z 0.000000 0.000000 3.542060 
# 
# 
# High freq. dielectric constant tensor:
#      x y z
#    x 1.729810 0.000000 0.000000 
#    y 0.000000 1.720300 0.000000 
#    z 0.000000 0.000000 1.734310 
# 
# From -- ./inp_files/42124.got.cif
#   From: 2010.03.12/outbox.cif.g09.slc.cpg/sg69_22_cif.got.tgz:42124.got - 2010.04.10 23:52:46.
