data_PCOD8284272
_publ_section_title
;
Structure prediction by ZEFSAII (Michael W. Deem and Ramdas Pophale) SiO2 
 PCOD8284272
Probable space group: F M M M
;
_chemical_formula_sum "Si O2"
_cell_formula_units_Z 208
_cell_length_a 18.432838
_cell_length_b 31.111711
_cell_length_c 20.765761
_cell_angle_alpha 90.000000
_cell_angle_beta 90.000000
_cell_angle_gamma 90.000000
_cell_volume 11908.688995
_symmetry_space_group_name_H-M "F M M M"
_symmetry_group_IT_number 69
_symmetry_cell_setting 'orthorhombic'
loop_
_space_group_symop_operation_xyz
x,y,z
-x,-y,z
x,-y,-z
-x,y,-z
-x,-y,-z
x,y,-z
-x,y,z
x,-y,z
x,1/2+y,1/2+z
-x,1/2-y,1/2+z
x,1/2-y,1/2-z
-x,1/2+y,1/2-z
-x,1/2-y,1/2-z
x,1/2+y,1/2-z
-x,1/2+y,1/2+z
x,1/2-y,1/2+z
1/2+x,y,1/2+z
1/2-x,-y,1/2+z
1/2+x,-y,1/2-z
1/2-x,y,1/2-z
1/2-x,-y,1/2-z
1/2+x,y,1/2-z
1/2-x,y,1/2+z
1/2+x,-y,1/2+z
1/2+x,1/2+y,z
1/2-x,1/2-y,z
1/2+x,1/2-y,-z
1/2-x,1/2+y,-z
1/2-x,1/2-y,-z
1/2+x,1/2+y,-z
1/2-x,1/2+y,z
1/2+x,1/2-y,z
loop_
_atom_site_type_symbol
_atom_site_label
_atom_site_fract_x
_atom_site_fract_y
_atom_site_fract_z
Si Si1 0.577601 0.000000 0.572880
Si Si2 0.638102 0.420282 0.136283
Si Si3 0.419474 0.258639 0.576150
Si Si4 0.858900 0.171077 0.072603
Si Si5 0.713638 0.100172 0.817104
Si Si6 0.193152 0.169273 0.426028
Si Si7 0.581250 0.949836 0.765016
O O1 0.622196 0.956659 0.584512
O O2 0.500000 0.000000 0.611357
O O3 0.557256 0.000000 0.500000
O O4 0.625200 0.371920 0.112180
O O5 0.722207 0.428404 0.153283
O O6 0.584867 0.426769 0.196238
O O7 0.415028 0.254570 0.500000
O O8 0.500000 0.272642 0.599130
O O9 0.401999 0.211135 0.604250
O O10 0.360862 0.293549 0.598493
O O11 0.775248 0.185856 0.073336
O O12 0.884891 0.161789 0.000000
O O13 0.750000 0.119291 0.750000
O O14 0.687003 0.134095 0.870090
O O15 0.643131 0.070550 0.809412
O O16 0.173359 0.153556 0.500000
O O17 0.500000 0.942554 0.793643
O O18 0.598209 0.000000 0.756207
#
# Coordination Sequence:
#
# PCOD8284272 Si02
#       7
#    16  32  32  32  32  32  32
#     4  11  22  32  45  72 109 141 165 200 256 308
#     4  10  19  32  51  72 100 134 173 212 252 302
#     4   9  17  28  46  74 103 134 172 210 252 304
#     4   9  17  30  48  72 102 135 171 210 253 306
#     4   9  20  34  55  79 102 131 176 215 259 304
#     4   9  17  32  53  76 102 131 168 213 258 304
#     4  10  20  34  53  73  96 130 174 216 259 312
#
# _framework density 17.466238000000001
#
# number of rings (size 3 to 8) (size 9 to 14) (size 15 to 20)
#    0.000    2.538    0.769    1.385    1.077    5.231 
#    0.000    1.538    0.000   15.692    0.000   11.846 
#    0.000    0.000    0.000    0.000    0.000    0.000 
#
# Total GULP energy -644214.356282 kJ/mol
# GULP energy per Si atom -12388.737621 kJ/mol
# Density = 1.742648 g / cm^3
# Si number density = 17.466238 Si / 1000 Ang^3
#
#
#
# Elastic Constant Matrix: (Units=GPa)
#
#
# Indices 1 2 3 4 5 6 
#
# 1 102.9552 67.9854 37.7200 0.0000 0.0000 0.0000
# 2 67.9854 115.5494 51.2384 0.0000 0.0000 0.0000
# 3 37.7200 51.2384 66.7608 0.0000 0.0000 0.0000
# 4 0.0000 0.0000 0.0000 18.1595 0.0000 0.0000
# 5 0.0000 0.0000 0.0000 0.0000 16.4534 0.0000
# 6 0.0000 0.0000 0.0000 0.0000 0.0000 24.8557
#
#
#
# Elastic Compliance Matrix: (Units=1/GPa)
#
#
# Indices 1 2 3 4 5 6 
#
# 1 0.016220 -0.008306 -0.002789 0.000000 0.000000 0.000000
# 2 -0.008306 0.017373 -0.008640 0.000000 0.000000 0.000000
# 3 -0.002789 -0.008640 0.023186 0.000000 0.000000 0.000000
# 4 0.000000 0.000000 0.000000 0.055068 0.000000 0.000000
# 5 0.000000 0.000000 0.000000 0.000000 0.060778 0.000000
# 6 0.000000 0.000000 0.000000 0.000000 0.000000 0.040232
#
#
# Mechanical properties :
#
#
# Convention : Reuss Voigt Hill
#
# Bulk Modulus (GPa) = 57.78015 66.57256 62.17635
# Shear Modulus (GPa) = 19.37248 20.44848 19.91048
#
# Velocity S-wave (km/s) = 3.33399 3.42532 3.37996
# Velocity P-wave (km/s) = 6.92629 7.33768 7.13495
#
# Compressibility (1/GPa) = 0.01730698
#
# Stress axis : x y z
#
# Youngs Moduli (GPa) = 61.65267 57.56056 43.12900
#
# Poissons Ratio (x) = 0.47812 0.12029
# Poissons Ratio (y) = 0.51211 0.37266
# Poissons Ratio (z) = 0.17196 0.49735
#
# Static dielectric constant tensor:
#      x y z
#    x 3.440180 0.000000 0.000000 
#    y 0.000000 3.220470 0.000000 
#    z 0.000000 0.000000 3.133120 
# 
# 
# High freq. dielectric constant tensor:
#      x y z
#    x 1.687580 0.000000 0.000000 
#    y 0.000000 1.668440 0.000000 
#    z 0.000000 0.000000 1.648470 
# 
# From -- ./inp_files/34016.got.cif
#   From: 2010.03.12/outbox.cif.g09.slc.cpg/sg69_18_cif.got.tgz:34016.got - 2010.04.10 23:52:46.
