data_PCOD8284287
_publ_section_title
;
Structure prediction by ZEFSAII (Michael W. Deem and Ramdas Pophale) SiO2 
 PCOD8284287
Probable space group: F M M M
;
_chemical_formula_sum "Si O2"
_cell_formula_units_Z 160
_cell_length_a 17.783948
_cell_length_b 32.896371
_cell_length_c 15.085382
_cell_angle_alpha 90.000000
_cell_angle_beta 90.000000
_cell_angle_gamma 90.000000
_cell_volume 8825.361074
_symmetry_space_group_name_H-M "F M M M"
_symmetry_group_IT_number 69
_symmetry_cell_setting 'orthorhombic'
loop_
_space_group_symop_operation_xyz
x,y,z
-x,-y,z
x,-y,-z
-x,y,-z
-x,-y,-z
x,y,-z
-x,y,z
x,-y,z
x,1/2+y,1/2+z
-x,1/2-y,1/2+z
x,1/2-y,1/2-z
-x,1/2+y,1/2-z
-x,1/2-y,1/2-z
x,1/2+y,1/2-z
-x,1/2+y,1/2+z
x,1/2-y,1/2+z
1/2+x,y,1/2+z
1/2-x,-y,1/2+z
1/2+x,-y,1/2-z
1/2-x,y,1/2-z
1/2-x,-y,1/2-z
1/2+x,y,1/2-z
1/2-x,y,1/2+z
1/2+x,-y,1/2+z
1/2+x,1/2+y,z
1/2-x,1/2-y,z
1/2+x,1/2-y,-z
1/2-x,1/2+y,-z
1/2-x,1/2-y,-z
1/2+x,1/2+y,-z
1/2-x,1/2+y,z
1/2+x,1/2-y,z
loop_
_atom_site_type_symbol
_atom_site_label
_atom_site_fract_x
_atom_site_fract_y
_atom_site_fract_z
Si Si1 0.669074 0.059048 0.602233
Si Si2 0.303500 0.000000 0.898426
Si Si3 0.415932 0.702550 0.270400
Si Si4 0.806393 0.647685 0.668604
Si Si5 0.588671 0.000000 0.729527
Si Si6 0.791947 0.787975 0.597449
O O1 0.643883 0.051576 0.500000
O O2 0.668627 0.106384 0.623084
O O3 0.751821 0.039835 0.616918
O O4 0.610403 0.039127 0.670697
O O5 0.369770 0.000000 0.825551
O O6 0.335811 0.000000 0.000000
O O7 0.500000 0.686506 0.285922
O O8 0.415512 0.750000 0.250000
O O9 0.379294 0.674054 0.195492
O O10 0.368934 0.697481 0.359412
O O11 0.750000 0.639641 0.750000
O O12 0.763564 0.673767 0.594663
O O13 0.500000 0.000000 0.749065
O O14 0.813314 0.773211 0.500000
O O15 0.750000 0.750000 0.647411
#
# Coordination Sequence:
#
# PCOD8284287 Si02
#       6
#    32  16  32  32  16  32
#     4  10  20  36  58  84 112 147 191 233 275 332
#     4   9  19  37  61  85 114 147 187 234 278 323
#     4  10  20  34  50  71 103 139 173 214 273 335
#     4  10  19  32  56  78 104 138 183 230 276 323
#     4  11  22  36  57  83 119 157 185 223 282 338
#     4  10  19  32  52  75  99 129 173 226 275 324
#
# _framework density 18.129570000000001
#
# number of rings (size 3 to 8) (size 9 to 14) (size 15 to 20)
#    0.000    2.000    2.000    3.900    0.000    2.200 
#    0.000    0.000    0.000    1.800    0.000    5.600 
#    0.000    0.000    0.000    0.000    0.000    0.000 
#
# Total GULP energy -495755.275609 kJ/mol
# GULP energy per Si atom -12393.881890 kJ/mol
# Density = 1.808831 g / cm^3
# Si number density = 18.129570 Si / 1000 Ang^3
#
#
#
# Elastic Constant Matrix: (Units=GPa)
#
#
# Indices 1 2 3 4 5 6 
#
# 1 142.7822 42.5499 59.9069 0.0000 0.0000 0.0000
# 2 42.5499 121.1541 31.0646 0.0000 0.0000 0.0000
# 3 59.9069 31.0646 105.6444 0.0000 0.0000 0.0000
# 4 0.0000 0.0000 0.0000 27.5630 0.0000 0.0000
# 5 0.0000 0.0000 0.0000 0.0000 14.3220 0.0000
# 6 0.0000 0.0000 0.0000 0.0000 0.0000 8.6251
#
#
#
# Elastic Compliance Matrix: (Units=1/GPa)
#
#
# Indices 1 2 3 4 5 6 
#
# 1 0.009684 -0.002156 -0.004858 0.000000 0.000000 0.000000
# 2 -0.002156 0.009407 -0.001544 0.000000 0.000000 0.000000
# 3 -0.004858 -0.001544 0.012674 0.000000 0.000000 0.000000
# 4 0.000000 0.000000 0.000000 0.036281 0.000000 0.000000
# 5 0.000000 0.000000 0.000000 0.000000 0.069823 0.000000
# 6 0.000000 0.000000 0.000000 0.000000 0.000000 0.115940
#
#
# Mechanical properties :
#
#
# Convention : Reuss Voigt Hill
#
# Bulk Modulus (GPa) = 68.25339 70.73594 69.49467
# Shear Modulus (GPa) = 18.12864 25.83931 21.98398
#
# Velocity S-wave (km/s) = 3.16563 3.77935 3.48602
# Velocity P-wave (km/s) = 7.14779 7.62537 7.39044
#
# Compressibility (1/GPa) = 0.01465129
#
# Stress axis : x y z
#
# Youngs Moduli (GPa) = 103.26117 106.30582 78.90017
#
# Poissons Ratio (x) = 0.22915 0.38327
# Poissons Ratio (y) = 0.22259 0.12180
# Poissons Ratio (z) = 0.50161 0.16410
#
# Static dielectric constant tensor:
#      x y z
#    x 3.295820 0.000000 0.000000 
#    y 0.000000 3.441740 0.000000 
#    z 0.000000 0.000000 3.290340 
# 
# 
# High freq. dielectric constant tensor:
#      x y z
#    x 1.682960 0.000000 0.000000 
#    y 0.000000 1.707030 0.000000 
#    z 0.000000 0.000000 1.703280 
# 
# From -- ./inp_files/15715.got.cif
#   From: 2010.03.12/outbox.cif.g09.slc.cpg/sg69_8_cif.got.tgz:15715.got - 2010.04.10 23:52:46.
