data_PCOD8284777
_publ_section_title
;
Structure prediction by ZEFSAII (Michael W. Deem and Ramdas Pophale) SiO2 
 PCOD8284777
Probable space group: F M M M
;
_chemical_formula_sum "Si O2"
_cell_formula_units_Z 192
_cell_length_a 14.742876
_cell_length_b 23.386614
_cell_length_c 27.503851
_cell_angle_alpha 90.000000
_cell_angle_beta 90.000000
_cell_angle_gamma 90.000000
_cell_volume 9482.941403
_symmetry_space_group_name_H-M "F M M M"
_symmetry_group_IT_number 69
_symmetry_cell_setting 'orthorhombic'
loop_
_space_group_symop_operation_xyz
x,y,z
-x,-y,z
x,-y,-z
-x,y,-z
-x,-y,-z
x,y,-z
-x,y,z
x,-y,z
x,1/2+y,1/2+z
-x,1/2-y,1/2+z
x,1/2-y,1/2-z
-x,1/2+y,1/2-z
-x,1/2-y,1/2-z
x,1/2+y,1/2-z
-x,1/2+y,1/2+z
x,1/2-y,1/2+z
1/2+x,y,1/2+z
1/2-x,-y,1/2+z
1/2+x,-y,1/2-z
1/2-x,y,1/2-z
1/2-x,-y,1/2-z
1/2+x,y,1/2-z
1/2-x,y,1/2+z
1/2+x,-y,1/2+z
1/2+x,1/2+y,z
1/2-x,1/2-y,z
1/2+x,1/2-y,-z
1/2-x,1/2+y,-z
1/2-x,1/2-y,-z
1/2+x,1/2+y,-z
1/2-x,1/2+y,z
1/2+x,1/2-y,z
loop_
_atom_site_type_symbol
_atom_site_label
_atom_site_fract_x
_atom_site_fract_y
_atom_site_fract_z
Si Si1 0.810008 0.806229 0.943764
Si Si2 0.778106 0.436444 0.305973
Si Si3 0.106569 0.167172 0.213312
Si Si4 0.500000 0.870325 0.942598
Si Si5 0.823332 0.376994 0.113151
Si Si6 0.500000 0.263642 0.942744
Si Si7 0.892341 0.789229 0.316322
O O1 0.750000 0.750000 0.937532
O O2 0.764387 0.862328 0.919617
O O3 0.909994 0.793856 0.920717
O O4 0.820319 0.821882 0.000000
O O5 0.816061 0.500000 0.317190
O O6 0.750000 0.433805 0.250000
O O7 0.854054 0.388209 0.313575
O O8 0.698005 0.423982 0.345109
O O9 0.136152 0.172234 0.269763
O O10 0.144284 0.224358 0.187359
O O11 0.000000 0.163266 0.209106
O O12 0.590692 0.898397 0.918963
O O13 0.500000 0.803262 0.930408
O O14 0.500000 0.882807 0.000000
O O15 0.848037 0.316511 0.136970
O O16 0.500000 0.270615 0.000000
O O17 0.000000 0.787974 0.320724
#
# Coordination Sequence:
#
# PCOD8284777 Si02
#       7
#    32  32  32  16  32  16  32
#     4  10  20  34  54  86 123 159 197 240 308 387
#     4  11  25  43  58  80 117 163 216 258 298 362
#     4   9  19  37  59  82 122 155 199 250 305 362
#     4  11  22  36  61  92 124 157 204 262 316 378
#     4  12  22  36  61  88 122 162 203 251 318 370
#     4   9  18  34  52  82 129 164 186 232 303 392
#     4   9  18  33  55  91 122 154 190 246 309 384
#
# _framework density 20.246881999999999
#
# number of rings (size 3 to 8) (size 9 to 14) (size 15 to 20)
#    0.000    1.833    4.167    1.500    2.333    0.333 
#    1.500    0.417    0.000    2.500    0.000    0.000 
#    0.000    2.000    0.000    0.000    0.000    0.000 
#
# Total GULP energy -594991.947100 kJ/mol
# GULP energy per Si atom -12395.665565 kJ/mol
# Density = 2.020080 g / cm^3
# Si number density = 20.246882 Si / 1000 Ang^3
#
#
#
# Elastic Constant Matrix: (Units=GPa)
#
#
# Indices 1 2 3 4 5 6 
#
# 1 98.0429 36.2264 38.8831 0.0000 0.0000 0.0000
# 2 36.2264 104.6481 32.1734 0.0000 0.0000 0.0000
# 3 38.8831 32.1734 86.7934 0.0000 0.0000 0.0000
# 4 0.0000 0.0000 0.0000 7.1131 0.0000 0.0000
# 5 0.0000 0.0000 0.0000 0.0000 37.1370 0.0000
# 6 0.0000 0.0000 0.0000 0.0000 0.0000 14.4421
#
#
#
# Elastic Compliance Matrix: (Units=1/GPa)
#
#
# Indices 1 2 3 4 5 6 
#
# 1 0.013246 -0.003116 -0.004779 0.000000 0.000000 0.000000
# 2 -0.003116 0.011518 -0.002874 0.000000 0.000000 0.000000
# 3 -0.004779 -0.002874 0.014728 0.000000 0.000000 0.000000
# 4 0.000000 0.000000 0.000000 0.140587 0.000000 0.000000
# 5 0.000000 0.000000 0.000000 0.000000 0.026927 0.000000
# 6 0.000000 0.000000 0.000000 0.000000 0.000000 0.069242
#
#
# Mechanical properties :
#
#
# Convention : Reuss Voigt Hill
#
# Bulk Modulus (GPa) = 55.69671 56.00559 55.85115
# Shear Modulus (GPa) = 16.45977 23.88520 20.17248
#
# Velocity S-wave (km/s) = 2.85433 3.43840 3.15989
# Velocity P-wave (km/s) = 6.19931 6.59430 6.39985
#
# Compressibility (1/GPa) = 0.01795438
#
# Stress axis : x y z
#
# Youngs Moduli (GPa) = 75.49196 86.82021 67.89850
#
# Poissons Ratio (x) = 0.27055 0.32450
# Poissons Ratio (y) = 0.23525 0.19511
# Poissons Ratio (z) = 0.36079 0.24948
#
# Static dielectric constant tensor:
#      x y z
#    x 3.836240 0.000000 0.000000 
#    y 0.000000 3.415670 0.000000 
#    z 0.000000 0.000000 3.993460 
# 
# 
# High freq. dielectric constant tensor:
#      x y z
#    x 1.792820 0.000000 0.000000 
#    y 0.000000 1.737670 0.000000 
#    z 0.000000 0.000000 1.804390 
# 
# From -- ./inp_files/41169.got.cif
#   From: 2010.03.12/outbox.cif.g09.slc.cpg/sg69_21_cif.got.tgz:41169.got - 2010.04.10 23:52:46.
