data_PCOD8284767
_publ_section_title
;
Structure prediction by ZEFSAII (Michael W. Deem and Ramdas Pophale) SiO2 
 PCOD8284767
Probable space group: F M M M
;
_chemical_formula_sum "Si O2"
_cell_formula_units_Z 192
_cell_length_a 30.841129
_cell_length_b 19.408404
_cell_length_c 17.878619
_cell_angle_alpha 90.000000
_cell_angle_beta 90.000000
_cell_angle_gamma 90.000000
_cell_volume 10701.731760
_symmetry_space_group_name_H-M "F M M M"
_symmetry_group_IT_number 69
_symmetry_cell_setting 'orthorhombic'
loop_
_space_group_symop_operation_xyz
x,y,z
-x,-y,z
x,-y,-z
-x,y,-z
-x,-y,-z
x,y,-z
-x,y,z
x,-y,z
x,1/2+y,1/2+z
-x,1/2-y,1/2+z
x,1/2-y,1/2-z
-x,1/2+y,1/2-z
-x,1/2-y,1/2-z
x,1/2+y,1/2-z
-x,1/2+y,1/2+z
x,1/2-y,1/2+z
1/2+x,y,1/2+z
1/2-x,-y,1/2+z
1/2+x,-y,1/2-z
1/2-x,y,1/2-z
1/2-x,-y,1/2-z
1/2+x,y,1/2-z
1/2-x,y,1/2+z
1/2+x,-y,1/2+z
1/2+x,1/2+y,z
1/2-x,1/2-y,z
1/2+x,1/2-y,-z
1/2-x,1/2+y,-z
1/2-x,1/2-y,-z
1/2+x,1/2+y,-z
1/2-x,1/2+y,z
1/2+x,1/2-y,z
loop_
_atom_site_type_symbol
_atom_site_label
_atom_site_fract_x
_atom_site_fract_y
_atom_site_fract_z
Si Si1 0.000000 0.191569 0.350003
Si Si2 0.700276 0.323000 0.226641
Si Si3 0.405602 0.679626 0.586536
Si Si4 0.085487 0.921779 0.850714
Si Si5 0.852515 0.315679 0.414582
Si Si6 0.364410 0.078339 0.199930
Si Si7 0.000000 0.650224 0.688236
O O1 0.956920 0.179363 0.398272
O O2 0.000000 0.269413 0.324377
O O3 0.000000 0.140006 0.278341
O O4 0.679552 0.250000 0.250000
O O5 0.750000 0.325550 0.250000
O O6 0.690183 0.326408 0.137481
O O7 0.679206 0.385432 0.271770
O O8 0.397815 0.666513 0.500000
O O9 0.382101 0.750749 0.611141
O O10 0.383300 0.616138 0.628038
O O11 0.118243 0.883652 0.906519
O O12 0.100536 0.917745 0.765242
O O13 0.039840 0.884409 0.853701
O O14 0.081373 0.000000 0.878653
O O15 0.836539 0.308163 0.500000
O O16 0.353080 0.000000 0.178142
#
# Coordination Sequence:
#
# PCOD8284767 Si02
#       7
#    16  32  32  32  32  32  16
#     4  11  21  32  54  81 110 152 194 251 289 329
#     4  10  20  37  63  91 117 145 184 231 283 348
#     4  11  21  36  55  79 114 154 195 239 286 337
#     4  10  20  34  54  79 112 151 191 237 289 341
#     4  10  21  37  59  84 115 150 190 232 282 344
#     4  10  21  37  58  82 110 148 193 237 285 340
#     4  11  19  30  54  79 110 146 194 249 289 329
#
# _framework density 17.941020999999999
#
# number of rings (size 3 to 8) (size 9 to 14) (size 15 to 20)
#    0.000    1.667    5.000    0.500    0.000    1.000 
#    0.000    3.333    0.000    2.000    0.000    0.000 
#    0.000    0.000    0.000    0.000    0.000    0.000 
#
# Total GULP energy -595087.771610 kJ/mol
# GULP energy per Si atom -12397.661909 kJ/mol
# Density = 1.790019 g / cm^3
# Si number density = 17.941021 Si / 1000 Ang^3
#
#
#
# Elastic Constant Matrix: (Units=GPa)
#
#
# Indices 1 2 3 4 5 6 
#
# 1 105.9323 39.8322 52.7151 0.0000 0.0000 0.0000
# 2 39.8322 123.8164 39.0150 0.0000 0.0000 0.0000
# 3 52.7151 39.0150 91.9305 0.0000 0.0000 0.0000
# 4 0.0000 0.0000 0.0000 22.6402 0.0000 0.0000
# 5 0.0000 0.0000 0.0000 0.0000 24.8496 0.0000
# 6 0.0000 0.0000 0.0000 0.0000 0.0000 26.6148
#
#
#
# Elastic Compliance Matrix: (Units=1/GPa)
#
#
# Indices 1 2 3 4 5 6 
#
# 1 0.013725 -0.002234 -0.006922 0.000000 0.000000 0.000000
# 2 -0.002234 0.009687 -0.002830 0.000000 0.000000 0.000000
# 3 -0.006922 -0.002830 0.016048 0.000000 0.000000 0.000000
# 4 0.000000 0.000000 0.000000 0.044169 0.000000 0.000000
# 5 0.000000 0.000000 0.000000 0.000000 0.040242 0.000000
# 6 0.000000 0.000000 0.000000 0.000000 0.000000 0.037573
#
#
# Mechanical properties :
#
#
# Convention : Reuss Voigt Hill
#
# Bulk Modulus (GPa) = 64.56805 64.97821 64.77313
# Shear Modulus (GPa) = 26.23593 27.49538 26.86565
#
# Velocity S-wave (km/s) = 3.82821 3.91902 3.87388
# Velocity P-wave (km/s) = 7.45704 7.53489 7.49607
#
# Compressibility (1/GPa) = 0.01548754
#
# Stress axis : x y z
#
# Youngs Moduli (GPa) = 72.86195 103.23162 62.31319
#
# Poissons Ratio (x) = 0.23063 0.43132
# Poissons Ratio (y) = 0.16278 0.17635
# Poissons Ratio (z) = 0.50434 0.29215
#
# Static dielectric constant tensor:
#      x y z
#    x 3.117920 0.000000 0.000000 
#    y 0.000000 3.539020 0.000000 
#    z 0.000000 0.000000 3.227080 
# 
# 
# High freq. dielectric constant tensor:
#      x y z
#    x 1.685740 0.000000 0.000000 
#    y 0.000000 1.699010 0.000000 
#    z 0.000000 0.000000 1.687310 
# 
# From -- ./inp_files/23687.got.cif
#   From: 2010.03.12/outbox.cif.g09.slc.cpg/sg69_12_cif.got.tgz:23687.got - 2010.04.10 23:52:46.
