data_PCOD8284978
_publ_section_title
;
Structure prediction by ZEFSAII (Michael W. Deem and Ramdas Pophale) SiO2 
 PCOD8284978
Probable space group: F M M M
;
_chemical_formula_sum "Si O2"
_cell_formula_units_Z 208
_cell_length_a 17.280091
_cell_length_b 21.308571
_cell_length_c 28.723041
_cell_angle_alpha 90.000000
_cell_angle_beta 90.000000
_cell_angle_gamma 90.000000
_cell_volume 10576.227139
_symmetry_space_group_name_H-M "F M M M"
_symmetry_group_IT_number 69
_symmetry_cell_setting 'orthorhombic'
loop_
_space_group_symop_operation_xyz
x,y,z
-x,-y,z
x,-y,-z
-x,y,-z
-x,-y,-z
x,y,-z
-x,y,z
x,-y,z
x,1/2+y,1/2+z
-x,1/2-y,1/2+z
x,1/2-y,1/2-z
-x,1/2+y,1/2-z
-x,1/2-y,1/2-z
x,1/2+y,1/2-z
-x,1/2+y,1/2+z
x,1/2-y,1/2+z
1/2+x,y,1/2+z
1/2-x,-y,1/2+z
1/2+x,-y,1/2-z
1/2-x,y,1/2-z
1/2-x,-y,1/2-z
1/2+x,y,1/2-z
1/2-x,y,1/2+z
1/2+x,-y,1/2+z
1/2+x,1/2+y,z
1/2-x,1/2-y,z
1/2+x,1/2-y,-z
1/2-x,1/2+y,-z
1/2-x,1/2-y,-z
1/2+x,1/2+y,-z
1/2-x,1/2+y,z
1/2+x,1/2-y,z
loop_
_atom_site_type_symbol
_atom_site_label
_atom_site_fract_x
_atom_site_fract_y
_atom_site_fract_z
Si Si1 0.587908 0.729485 0.551956
Si Si2 0.346824 0.138403 0.446164
Si Si3 0.242485 0.571135 0.878215
Si Si4 0.412124 0.134673 0.865463
Si Si5 0.676719 0.069938 0.717479
Si Si6 0.000000 0.928826 0.055322
Si Si7 0.911126 0.682949 0.764027
O O1 0.602282 0.701783 0.500000
O O2 0.500000 0.754785 0.555811
O O3 0.645173 0.787275 0.560966
O O4 0.604204 0.676812 0.589662
O O5 0.336077 0.120809 0.500000
O O6 0.270023 0.116301 0.419615
O O7 0.422703 0.104063 0.425087
O O8 0.254048 0.500000 0.894302
O O9 0.151350 0.579800 0.866760
O O10 0.295135 0.587204 0.833968
O O11 0.500000 0.107127 0.866419
O O12 0.398816 0.175169 0.819084
O O13 0.750000 0.068386 0.750000
O O14 0.620383 0.124212 0.734919
O O15 0.637491 0.000000 0.718648
O O16 0.000000 0.000000 0.073070
O O17 0.000000 0.923318 0.000000
O O18 0.872108 0.750000 0.750000
O O19 0.000000 0.685473 0.749991
#
# Coordination Sequence:
#
# PCOD8284978 Si02
#       7
#    32  32  32  32  32  16  32
#     4   9  18  36  60  86 118 152 191 239 289 346
#     4  10  20  36  59  85 118 158 193 236 290 347
#     4  11  24  40  58  86 120 153 195 246 294 345
#     4  10  22  40  62  86 112 152 199 242 295 353
#     4  10  21  41  62  84 119 158 195 240 292 348
#     4   9  16  30  54  82 112 153 197 227 271 344
#     4  10  22  40  62  89 119 152 195 247 296 346
#
# _framework density 19.666748999999999
#
# number of rings (size 3 to 8) (size 9 to 14) (size 15 to 20)
#    0.000    2.077    2.308    0.462    2.154    3.077 
#    1.385    3.077    0.000    0.000    0.000    3.231 
#    0.000    0.000    0.000    0.000    0.000    0.000 
#
# Total GULP energy -644706.028605 kJ/mol
# GULP energy per Si atom -12398.192858 kJ/mol
# Density = 1.962199 g / cm^3
# Si number density = 19.666749 Si / 1000 Ang^3
#
#
#
# Elastic Constant Matrix: (Units=GPa)
#
#
# Indices 1 2 3 4 5 6 
#
# 1 77.7895 37.0134 32.5069 0.0000 0.0000 0.0000
# 2 37.0134 95.0048 47.3215 0.0000 0.0000 0.0000
# 3 32.5069 47.3215 96.2826 0.0000 0.0000 0.0000
# 4 0.0000 0.0000 0.0000 27.8695 0.0000 0.0000
# 5 0.0000 0.0000 0.0000 0.0000 30.1422 0.0000
# 6 0.0000 0.0000 0.0000 0.0000 0.0000 33.5897
#
#
#
# Elastic Compliance Matrix: (Units=1/GPa)
#
#
# Indices 1 2 3 4 5 6 
#
# 1 0.016489 -0.004835 -0.003191 0.000000 0.000000 0.000000
# 2 -0.004835 0.015355 -0.005915 0.000000 0.000000 0.000000
# 3 -0.003191 -0.005915 0.014370 0.000000 0.000000 0.000000
# 4 0.000000 0.000000 0.000000 0.035882 0.000000 0.000000
# 5 0.000000 0.000000 0.000000 0.000000 0.033176 0.000000
# 6 0.000000 0.000000 0.000000 0.000000 0.000000 0.029771
#
#
# Mechanical properties :
#
#
# Convention : Reuss Voigt Hill
#
# Bulk Modulus (GPa) = 54.54232 55.86227 55.20229
# Shear Modulus (GPa) = 27.92743 28.46927 28.19835
#
# Velocity S-wave (km/s) = 3.77242 3.80884 3.79067
# Velocity P-wave (km/s) = 6.83874 6.91441 6.87668
#
# Compressibility (1/GPa) = 0.01833439
#
# Stress axis : x y z
#
# Youngs Moduli (GPa) = 60.64639 65.12348 69.58764
#
# Poissons Ratio (x) = 0.31485 0.22204
# Poissons Ratio (y) = 0.29321 0.41159
# Poissons Ratio (z) = 0.19351 0.38519
#
# Static dielectric constant tensor:
#      x y z
#    x 3.519060 0.000000 0.000000 
#    y 0.000000 3.628780 0.000000 
#    z 0.000000 0.000000 4.495210 
# 
# 
# High freq. dielectric constant tensor:
#      x y z
#    x 1.759300 0.000000 0.000000 
#    y 0.000000 1.759680 0.000000 
#    z 0.000000 0.000000 1.767770 
# 
# From -- ./inp_files/42035.got.cif
#   From: 2010.03.12/outbox.cif.g09.slc.cpg/sg69_22_cif.got.tgz:42035.got - 2010.04.10 23:52:46.
