data_PCOD8284175
_publ_section_title
;
Structure prediction by ZEFSAII (Michael W. Deem and Ramdas Pophale) SiO2 
 PCOD8284175
Probable space group: F M M M
;
_chemical_formula_sum "Si O2"
_cell_formula_units_Z 144
_cell_length_a 22.715119
_cell_length_b 28.009680
_cell_length_c 13.796110
_cell_angle_alpha 90.000000
_cell_angle_beta 90.000000
_cell_angle_gamma 90.000000
_cell_volume 8777.681372
_symmetry_space_group_name_H-M "F M M M"
_symmetry_group_IT_number 69
_symmetry_cell_setting 'orthorhombic'
loop_
_space_group_symop_operation_xyz
x,y,z
-x,-y,z
x,-y,-z
-x,y,-z
-x,-y,-z
x,y,-z
-x,y,z
x,-y,z
x,1/2+y,1/2+z
-x,1/2-y,1/2+z
x,1/2-y,1/2-z
-x,1/2+y,1/2-z
-x,1/2-y,1/2-z
x,1/2+y,1/2-z
-x,1/2+y,1/2+z
x,1/2-y,1/2+z
1/2+x,y,1/2+z
1/2-x,-y,1/2+z
1/2+x,-y,1/2-z
1/2-x,y,1/2-z
1/2-x,-y,1/2-z
1/2+x,y,1/2-z
1/2-x,y,1/2+z
1/2+x,-y,1/2+z
1/2+x,1/2+y,z
1/2-x,1/2-y,z
1/2+x,1/2-y,-z
1/2-x,1/2+y,-z
1/2-x,1/2-y,-z
1/2+x,1/2+y,-z
1/2-x,1/2+y,z
1/2+x,1/2-y,z
loop_
_atom_site_type_symbol
_atom_site_label
_atom_site_fract_x
_atom_site_fract_y
_atom_site_fract_z
Si Si1 0.500000 0.943359 0.610480
Si Si2 0.114613 0.555871 0.726283
Si Si3 0.198343 0.384914 0.611458
Si Si4 0.819007 0.197555 0.748178
Si Si5 0.336210 0.118764 0.111493
O O1 0.500000 0.922482 0.500000
O O2 0.443618 0.925542 0.671110
O O3 0.500000 0.000000 0.603322
O O4 0.112058 0.500000 0.747437
O O5 0.169191 0.567782 0.656113
O O6 0.122692 0.582047 0.829763
O O7 0.182756 0.379994 0.500000
O O8 0.169113 0.338037 0.661493
O O9 0.267522 0.392613 0.629271
O O10 0.849682 0.250000 0.750000
O O11 0.750000 0.205836 0.750000
O O12 0.844283 0.172693 0.650916
O O13 0.354936 0.116025 0.000000
#
# Coordination Sequence:
#
# PCOD8284175 Si02
#       5
#    16  32  32  32  32
#     4   9  18  32  49  67  84 107 145 190 230 261
#     4  10  19  31  46  64  88 117 149 186 223 259
#     4   9  17  28  43  66  93 118 147 182 220 264
#     4   8  14  25  41  62  89 119 148 179 216 258
#     4   9  18  30  43  64  94 123 149 177 213 262
#
# _framework density 16.405244
#
# number of rings (size 3 to 8) (size 9 to 14) (size 15 to 20)
#    0.000    3.000    0.000    2.667    0.000    4.444 
#    0.000    7.222    0.000    2.000    0.000   12.444 
#    0.000   14.222    0.000    0.000    0.000    0.000 
#
# Total GULP energy -446056.141210 kJ/mol
# GULP energy per Si atom -12390.448367 kJ/mol
# Density = 1.636790 g / cm^3
# Si number density = 16.405244 Si / 1000 Ang^3
#
#
#
# Elastic Constant Matrix: (Units=GPa)
#
#
# Indices 1 2 3 4 5 6 
#
# 1 41.6727 34.0995 51.8319 0.0000 0.0000 0.0000
# 2 34.0995 93.4731 51.8961 0.0000 0.0000 0.0000
# 3 51.8319 51.8961 152.4766 0.0000 0.0000 0.0000
# 4 0.0000 0.0000 0.0000 21.2632 0.0000 0.0000
# 5 0.0000 0.0000 0.0000 0.0000 24.4345 0.0000
# 6 0.0000 0.0000 0.0000 0.0000 0.0000 2.8124
#
#
#
# Elastic Compliance Matrix: (Units=1/GPa)
#
#
# Indices 1 2 3 4 5 6 
#
# 1 0.048828 -0.010600 -0.012990 0.000000 0.000000 0.000000
# 2 -0.010600 0.015492 -0.001669 0.000000 0.000000 0.000000
# 3 -0.012990 -0.001669 0.011542 0.000000 0.000000 0.000000
# 4 0.000000 0.000000 0.000000 0.047030 0.000000 0.000000
# 5 0.000000 0.000000 0.000000 0.000000 0.040926 0.000000
# 6 0.000000 0.000000 0.000000 0.000000 0.000000 0.355565
#
#
# Mechanical properties :
#
#
# Convention : Reuss Voigt Hill
#
# Bulk Modulus (GPa) = 39.46005 62.58637 51.02321
# Shear Modulus (GPa) = 8.64528 19.68835 14.16682
#
# Velocity S-wave (km/s) = 2.29810 3.46804 2.94182
# Velocity P-wave (km/s) = 5.58097 7.36678 6.53516
#
# Compressibility (1/GPa) = 0.02534208
#
# Stress axis : x y z
#
# Youngs Moduli (GPa) = 20.48020 64.54858 86.63720
#
# Poissons Ratio (x) = 0.68424 1.12544
# Poissons Ratio (y) = 0.21710 0.14463
# Poissons Ratio (z) = 0.26604 0.10776
#
# Static dielectric constant tensor:
#      x y z
#    x 2.856100 0.000000 0.000000 
#    y 0.000000 3.181580 0.000000 
#    z 0.000000 0.000000 3.254400 
# 
# 
# High freq. dielectric constant tensor:
#      x y z
#    x 1.591320 0.000000 0.000000 
#    y 0.000000 1.622430 0.000000 
#    z 0.000000 0.000000 1.641130 
# 
# From -- ./inp_files/15527.got.cif
#   From: 2010.03.12/outbox.cif.g09.slc.cpg/sg69_8_cif.got.tgz:15527.got - 2010.04.10 23:52:46.
