data_PCOD8284878
_publ_section_title
;
Structure prediction by ZEFSAII (Michael W. Deem and Ramdas Pophale) SiO2 
 PCOD8284878
Probable space group: F M M M
;
_chemical_formula_sum "Si O2"
_cell_formula_units_Z 160
_cell_length_a 14.345732
_cell_length_b 19.402883
_cell_length_c 24.979577
_cell_angle_alpha 90.000000
_cell_angle_beta 90.000000
_cell_angle_gamma 90.000000
_cell_volume 6953.029276
_symmetry_space_group_name_H-M "F M M M"
_symmetry_group_IT_number 69
_symmetry_cell_setting 'orthorhombic'
loop_
_space_group_symop_operation_xyz
x,y,z
-x,-y,z
x,-y,-z
-x,y,-z
-x,-y,-z
x,y,-z
-x,y,z
x,-y,z
x,1/2+y,1/2+z
-x,1/2-y,1/2+z
x,1/2-y,1/2-z
-x,1/2+y,1/2-z
-x,1/2-y,1/2-z
x,1/2+y,1/2-z
-x,1/2+y,1/2+z
x,1/2-y,1/2+z
1/2+x,y,1/2+z
1/2-x,-y,1/2+z
1/2+x,-y,1/2-z
1/2-x,y,1/2-z
1/2-x,-y,1/2-z
1/2+x,y,1/2-z
1/2-x,y,1/2+z
1/2+x,-y,1/2+z
1/2+x,1/2+y,z
1/2-x,1/2-y,z
1/2+x,1/2-y,-z
1/2-x,1/2+y,-z
1/2-x,1/2-y,-z
1/2+x,1/2+y,-z
1/2-x,1/2+y,z
1/2+x,1/2-y,z
loop_
_atom_site_type_symbol
_atom_site_label
_atom_site_fract_x
_atom_site_fract_y
_atom_site_fract_z
Si Si1 0.106077 0.201067 0.334554
Si Si2 0.610070 0.576377 0.265733
Si Si3 0.102011 0.370034 0.059261
Si Si4 0.610069 0.852013 0.341757
Si Si5 0.202948 0.076821 0.060460
O O1 0.155131 0.136114 0.303856
O O2 0.114003 0.191290 0.398270
O O3 0.149118 0.276720 0.322856
O O4 0.000000 0.202129 0.313882
O O5 0.500000 0.574452 0.274493
O O6 0.651294 0.500000 0.279102
O O7 0.635124 0.593261 0.204246
O O8 0.184577 0.424991 0.066829
O O9 0.000000 0.406019 0.068016
O O10 0.107035 0.336707 0.000000
O O11 0.500000 0.847692 0.351955
O O12 0.657543 0.871522 0.397511
O O13 0.165631 0.000000 0.071358
O O14 0.176083 0.100117 0.000000
#
# Coordination Sequence:
#
# PCOD8284878 Si02
#       5
#    32  32  32  32  32
#     4   9  18  33  56  86 116 148 191 239 285 341
#     4   9  17  31  54  83 115 153 195 240 291 341
#     4   9  19  37  60  84 110 142 184 240 303 354
#     4  10  20  35  56  83 120 163 198 230 276 337
#     4  10  22  38  56  83 117 152 195 243 287 338
#
# _framework density 23.011551999999998
#
# number of rings (size 3 to 8) (size 9 to 14) (size 15 to 20)
#    0.000    2.600    0.000    1.200    0.000    6.800 
#    0.000   10.000    0.000    4.800    0.000    0.000 
#    0.000    0.000    0.000    0.000    0.000    0.000 
#
# Total GULP energy -495652.953250 kJ/mol
# GULP energy per Si atom -12391.323831 kJ/mol
# Density = 2.295918 g / cm^3
# Si number density = 23.011552 Si / 1000 Ang^3
#
#
#
# Elastic Constant Matrix: (Units=GPa)
#
#
# Indices 1 2 3 4 5 6 
#
# 1 41.8089 25.8921 28.1414 0.0000 0.0000 0.0000
# 2 25.8921 186.8241 79.3403 0.0000 0.0000 0.0000
# 3 28.1414 79.3403 131.9454 0.0000 0.0000 0.0000
# 4 0.0000 0.0000 0.0000 32.6554 0.0000 0.0000
# 5 0.0000 0.0000 0.0000 0.0000 3.2990 0.0000
# 6 0.0000 0.0000 0.0000 0.0000 0.0000 16.9873
#
#
#
# Elastic Compliance Matrix: (Units=1/GPa)
#
#
# Indices 1 2 3 4 5 6 
#
# 1 0.028386 -0.001830 -0.004954 0.000000 0.000000 0.000000
# 2 -0.001830 0.007306 -0.004003 0.000000 0.000000 0.000000
# 3 -0.004954 -0.004003 0.011042 0.000000 0.000000 0.000000
# 4 0.000000 0.000000 0.000000 0.030623 0.000000 0.000000
# 5 0.000000 0.000000 0.000000 0.000000 0.303123 0.000000
# 6 0.000000 0.000000 0.000000 0.000000 0.000000 0.058867
#
#
# Mechanical properties :
#
#
# Convention : Reuss Voigt Hill
#
# Bulk Modulus (GPa) = 39.74408 69.70288 54.72348
# Shear Modulus (GPa) = 10.65396 25.73531 18.19464
#
# Velocity S-wave (km/s) = 2.15404 3.34782 2.81494
# Velocity P-wave (km/s) = 4.84720 6.73053 5.86496
#
# Compressibility (1/GPa) = 0.02516098
#
# Stress axis : x y z
#
# Youngs Moduli (GPa) = 35.22845 136.86859 90.55972
#
# Poissons Ratio (x) = 0.25052 0.44860
# Poissons Ratio (y) = 0.06448 0.36251
# Poissons Ratio (z) = 0.17451 0.54788
#
# Static dielectric constant tensor:
#      x y z
#    x 3.948650 0.000000 0.000000 
#    y 0.000000 4.146620 0.000000 
#    z 0.000000 0.000000 4.191500 
# 
# 
# High freq. dielectric constant tensor:
#      x y z
#    x 1.889830 0.000000 0.000000 
#    y 0.000000 1.894390 0.000000 
#    z 0.000000 0.000000 1.916310 
# 
# From -- ./inp_files/41759.got.cif
#   From: 2010.03.12/outbox.cif.g09.slc.cpg/sg69_21_cif.got.tgz:41759.got - 2010.04.10 23:52:46.
