data_PCOD8284542
_publ_section_title
;
Structure prediction by ZEFSAII (Michael W. Deem and Ramdas Pophale) SiO2 
 PCOD8284542
Probable space group: F M M M
;
_chemical_formula_sum "Si O2"
_cell_formula_units_Z 160
_cell_length_a 23.001156
_cell_length_b 13.553731
_cell_length_c 28.361173
_cell_angle_alpha 90.000000
_cell_angle_beta 90.000000
_cell_angle_gamma 90.000000
_cell_volume 8841.637689
_symmetry_space_group_name_H-M "F M M M"
_symmetry_group_IT_number 69
_symmetry_cell_setting 'orthorhombic'
loop_
_space_group_symop_operation_xyz
x,y,z
-x,-y,z
x,-y,-z
-x,y,-z
-x,-y,-z
x,y,-z
-x,y,z
x,-y,z
x,1/2+y,1/2+z
-x,1/2-y,1/2+z
x,1/2-y,1/2-z
-x,1/2+y,1/2-z
-x,1/2-y,1/2-z
x,1/2+y,1/2-z
-x,1/2+y,1/2+z
x,1/2-y,1/2+z
1/2+x,y,1/2+z
1/2-x,-y,1/2+z
1/2+x,-y,1/2-z
1/2-x,y,1/2-z
1/2-x,-y,1/2-z
1/2+x,y,1/2-z
1/2-x,y,1/2+z
1/2+x,-y,1/2+z
1/2+x,1/2+y,z
1/2-x,1/2-y,z
1/2+x,1/2-y,-z
1/2-x,1/2+y,-z
1/2-x,1/2-y,-z
1/2+x,1/2+y,-z
1/2-x,1/2+y,z
1/2+x,1/2-y,z
loop_
_atom_site_type_symbol
_atom_site_label
_atom_site_fract_x
_atom_site_fract_y
_atom_site_fract_z
Si Si1 0.893272 0.611631 0.552405
Si Si2 0.500000 0.618316 0.355719
Si Si3 0.723346 0.385518 0.300037
Si Si4 0.396643 0.725959 0.696828
Si Si5 0.000000 0.253894 0.054126
Si Si6 0.834317 0.612946 0.354776
O O1 0.868386 0.630727 0.500000
O O2 0.917961 0.500000 0.556690
O O3 0.944257 0.687031 0.564357
O O4 0.840300 0.627177 0.588900
O O5 0.500000 0.500000 0.354974
O O6 0.555874 0.659360 0.328671
O O7 0.500000 0.653733 0.410233
O O8 0.709138 0.500000 0.303614
O O9 0.750000 0.356107 0.250000
O O10 0.663847 0.330063 0.307296
O O11 0.770183 0.351151 0.339337
O O12 0.416129 0.750000 0.750000
O O13 0.387146 0.829758 0.670512
O O14 0.000000 0.292753 0.000000
O O15 0.842270 0.500000 0.338799
#
# Coordination Sequence:
#
# PCOD8284542 Si02
#       6
#    32  16  32  32  16  32
#     4   9  17  32  57  88 119 147 182 233 290 345
#     4  12  27  43  57  81 114 155 195 238 288 340
#     4  10  20  35  58  86 113 150 193 232 271 331
#     4  12  23  39  59  81 114 156 193 234 283 334
#     4  10  19  36  60  84 109 148 196 236 281 340
#     4  10  20  33  56  90 118 143 184 231 286 339
#
# _framework density 18.096195000000002
#
# number of rings (size 3 to 8) (size 9 to 14) (size 15 to 20)
#    0.000    1.600    4.000    1.800    0.000    2.200 
#    0.000    0.500    0.000    3.600    0.000    2.800 
#    0.000    0.000    0.000    0.000    0.000    0.000 
#
# Total GULP energy -495927.676647 kJ/mol
# GULP energy per Si atom -12398.191916 kJ/mol
# Density = 1.805501 g / cm^3
# Si number density = 18.096195 Si / 1000 Ang^3
#
#
#
# Elastic Constant Matrix: (Units=GPa)
#
#
# Indices 1 2 3 4 5 6 
#
# 1 101.7784 54.1749 60.7988 0.0000 0.0000 0.0000
# 2 54.1749 99.7179 53.3196 0.0000 0.0000 0.0000
# 3 60.7988 53.3196 139.2895 0.0000 0.0000 0.0000
# 4 0.0000 0.0000 0.0000 22.5539 0.0000 0.0000
# 5 0.0000 0.0000 0.0000 0.0000 33.7692 0.0000
# 6 0.0000 0.0000 0.0000 0.0000 0.0000 28.3094
#
#
#
# Elastic Compliance Matrix: (Units=1/GPa)
#
#
# Indices 1 2 3 4 5 6 
#
# 1 0.015823 -0.006165 -0.004547 0.000000 0.000000 0.000000
# 2 -0.006165 0.015011 -0.003055 0.000000 0.000000 0.000000
# 3 -0.004547 -0.003055 0.010333 0.000000 0.000000 0.000000
# 4 0.000000 0.000000 0.000000 0.044338 0.000000 0.000000
# 5 0.000000 0.000000 0.000000 0.000000 0.029613 0.000000
# 6 0.000000 0.000000 0.000000 0.000000 0.000000 0.035324
#
#
# Mechanical properties :
#
#
# Convention : Reuss Voigt Hill
#
# Bulk Modulus (GPa) = 73.34811 75.26360 74.30585
# Shear Modulus (GPa) = 27.39410 28.42600 27.91005
#
# Velocity S-wave (km/s) = 3.89498 3.96767 3.93149
# Velocity P-wave (km/s) = 7.80053 7.91650 7.85873
#
# Compressibility (1/GPa) = 0.01363362
#
# Stress axis : x y z
#
# Youngs Moduli (GPa) = 63.19984 66.61613 96.77409
#
# Poissons Ratio (x) = 0.41070 0.43998
# Poissons Ratio (y) = 0.38964 0.29567
# Poissons Ratio (z) = 0.28734 0.20353
#
# Static dielectric constant tensor:
#      x y z
#    x 3.465260 0.000000 0.000000 
#    y 0.000000 3.475470 0.000000 
#    z 0.000000 0.000000 3.535690 
# 
# 
# High freq. dielectric constant tensor:
#      x y z
#    x 1.687230 0.000000 0.000000 
#    y 0.000000 1.709110 0.000000 
#    z 0.000000 0.000000 1.705720 
# 
# From -- ./inp_files/46256.got.cif
#   From: 2010.03.12/outbox.cif.g09.slc.cpg/sg69_24_cif.got.tgz:46256.got - 2010.04.10 23:52:46.
