data_PCOD8284511
_publ_section_title
;
Structure prediction by ZEFSAII (Michael W. Deem and Ramdas Pophale) SiO2 
 PCOD8284511
Probable space group: F M M M
;
_chemical_formula_sum "Si O2"
_cell_formula_units_Z 208
_cell_length_a 18.814849
_cell_length_b 19.358288
_cell_length_c 32.494725
_cell_angle_alpha 90.000000
_cell_angle_beta 90.000000
_cell_angle_gamma 90.000000
_cell_volume 11835.334855
_symmetry_space_group_name_H-M "F M M M"
_symmetry_group_IT_number 69
_symmetry_cell_setting 'orthorhombic'
loop_
_space_group_symop_operation_xyz
x,y,z
-x,-y,z
x,-y,-z
-x,y,-z
-x,-y,-z
x,y,-z
-x,y,z
x,-y,z
x,1/2+y,1/2+z
-x,1/2-y,1/2+z
x,1/2-y,1/2-z
-x,1/2+y,1/2-z
-x,1/2-y,1/2-z
x,1/2+y,1/2-z
-x,1/2+y,1/2+z
x,1/2-y,1/2+z
1/2+x,y,1/2+z
1/2-x,-y,1/2+z
1/2+x,-y,1/2-z
1/2-x,y,1/2-z
1/2-x,-y,1/2-z
1/2+x,y,1/2-z
1/2-x,y,1/2+z
1/2+x,-y,1/2+z
1/2+x,1/2+y,z
1/2-x,1/2-y,z
1/2+x,1/2-y,-z
1/2-x,1/2+y,-z
1/2-x,1/2-y,-z
1/2+x,1/2+y,-z
1/2-x,1/2+y,z
1/2+x,1/2-y,z
loop_
_atom_site_type_symbol
_atom_site_label
_atom_site_fract_x
_atom_site_fract_y
_atom_site_fract_z
Si Si1 0.174104 0.173726 0.368083
Si Si2 0.831997 0.732248 0.954399
Si Si3 0.171321 0.079034 0.766763
Si Si4 0.583665 0.856036 0.420764
Si Si5 0.581068 0.080398 0.812619
Si Si6 0.084330 0.500000 0.545326
Si Si7 0.170299 0.172778 0.155177
O O1 0.150370 0.182025 0.415996
O O2 0.120906 0.118400 0.349457
O O3 0.169523 0.244092 0.341221
O O4 0.255401 0.147164 0.365019
O O5 0.750000 0.750000 0.949776
O O6 0.878042 0.801539 0.950514
O O7 0.847278 0.699798 0.000000
O O8 0.250000 0.089364 0.750000
O O9 0.116104 0.097353 0.731076
O O10 0.156962 0.134852 0.801942
O O11 0.160811 0.000000 0.782606
O O12 0.500000 0.846992 0.426744
O O13 0.604146 0.846474 0.373443
O O14 0.611649 0.931964 0.431952
O O15 0.500000 0.105805 0.810994
O O16 0.586857 0.000000 0.822624
O O17 0.117376 0.500000 0.500000
O O18 0.000000 0.500000 0.543569
#
# Coordination Sequence:
#
# PCOD8284511 Si02
#       7
#    32  32  32  32  32  16  32
#     4  10  19  37  55  83 113 146 182 229 282 335
#     4  10  19  35  58  82 112 146 183 228 278 330
#     4  10  20  35  57  83 111 148 190 228 271 334
#     4  10  20  34  52  79 111 147 182 221 274 328
#     4  10  22  40  60  83 111 146 190 237 283 334
#     4   9  18  32  48  72 109 146 179 213 262 329
#     4  10  20  34  53  83 113 144 185 226 279 327
#
# _framework density 17.574491999999999
#
# number of rings (size 3 to 8) (size 9 to 14) (size 15 to 20)
#    0.000    2.077    4.615    0.462    1.077    4.615 
#    0.000    0.769    0.000    0.462    0.000    1.077 
#    0.000    0.000    0.000    0.000    0.000    0.000 
#
# Total GULP energy -644647.578894 kJ/mol
# GULP energy per Si atom -12397.068825 kJ/mol
# Density = 1.753449 g / cm^3
# Si number density = 17.574492 Si / 1000 Ang^3
#
#
#
# Elastic Constant Matrix: (Units=GPa)
#
#
# Indices 1 2 3 4 5 6 
#
# 1 95.6158 36.9237 32.1867 0.0000 0.0000 0.0000
# 2 36.9237 58.6590 51.1454 0.0000 0.0000 0.0000
# 3 32.1867 51.1454 125.5270 0.0000 0.0000 0.0000
# 4 0.0000 0.0000 0.0000 20.9042 0.0000 0.0000
# 5 0.0000 0.0000 0.0000 0.0000 8.5415 0.0000
# 6 0.0000 0.0000 0.0000 0.0000 0.0000 15.0262
#
#
#
# Elastic Compliance Matrix: (Units=1/GPa)
#
#
# Indices 1 2 3 4 5 6 
#
# 1 0.013817 -0.008699 0.000001 0.000000 0.000000 0.000000
# 2 -0.008699 0.031917 -0.010774 0.000000 0.000000 0.000000
# 3 0.000001 -0.010774 0.012356 0.000000 0.000000 0.000000
# 4 0.000000 0.000000 0.000000 0.047837 0.000000 0.000000
# 5 0.000000 0.000000 0.000000 0.000000 0.117075 0.000000
# 6 0.000000 0.000000 0.000000 0.000000 0.000000 0.066550
#
#
# Mechanical properties :
#
#
# Convention : Reuss Voigt Hill
#
# Bulk Modulus (GPa) = 52.22587 57.81259 55.01923
# Shear Modulus (GPa) = 14.93082 19.53080 17.23081
#
# Velocity S-wave (km/s) = 2.91791 3.33726 3.13460
# Velocity P-wave (km/s) = 6.41355 6.91497 6.66898
#
# Compressibility (1/GPa) = 0.01914760
#
# Stress axis : x y z
#
# Youngs Moduli (GPa) = 72.37367 31.33116 80.93283
#
# Poissons Ratio (x) = 0.27253 -0.00010
# Poissons Ratio (y) = 0.62954 0.87198
# Poissons Ratio (z) = -0.00009 0.33756
#
# Static dielectric constant tensor:
#      x y z
#    x 3.268400 0.000000 0.000000 
#    y 0.000000 3.240220 0.000000 
#    z 0.000000 0.000000 3.397130 
# 
# 
# High freq. dielectric constant tensor:
#      x y z
#    x 1.676980 0.000000 0.000000 
#    y 0.000000 1.666860 0.000000 
#    z 0.000000 0.000000 1.681170 
# 
# From -- ./inp_files/46511.got.cif
#   From: 2010.03.12/outbox.cif.g09.slc.cpg/sg69_24_cif.got.tgz:46511.got - 2010.04.10 23:52:46.
