data_PCOD8284435
_publ_section_title
;
Structure prediction by ZEFSAII (Michael W. Deem and Ramdas Pophale) SiO2 
 PCOD8284435
Probable space group: F M M M
;
_chemical_formula_sum "Si O2"
_cell_formula_units_Z 128
_cell_length_a 15.788768
_cell_length_b 25.787643
_cell_length_c 14.958894
_cell_angle_alpha 90.000000
_cell_angle_beta 90.000000
_cell_angle_gamma 90.000000
_cell_volume 6090.590171
_symmetry_space_group_name_H-M "F M M M"
_symmetry_group_IT_number 69
_symmetry_cell_setting 'orthorhombic'
loop_
_space_group_symop_operation_xyz
x,y,z
-x,-y,z
x,-y,-z
-x,y,-z
-x,-y,-z
x,y,-z
-x,y,z
x,-y,z
x,1/2+y,1/2+z
-x,1/2-y,1/2+z
x,1/2-y,1/2-z
-x,1/2+y,1/2-z
-x,1/2-y,1/2-z
x,1/2+y,1/2-z
-x,1/2+y,1/2+z
x,1/2-y,1/2+z
1/2+x,y,1/2+z
1/2-x,-y,1/2+z
1/2+x,-y,1/2-z
1/2-x,y,1/2-z
1/2-x,-y,1/2-z
1/2+x,y,1/2-z
1/2-x,y,1/2+z
1/2+x,-y,1/2+z
1/2+x,1/2+y,z
1/2-x,1/2-y,z
1/2+x,1/2-y,-z
1/2-x,1/2+y,-z
1/2-x,1/2-y,-z
1/2+x,1/2+y,-z
1/2-x,1/2+y,z
1/2+x,1/2-y,z
loop_
_atom_site_type_symbol
_atom_site_label
_atom_site_fract_x
_atom_site_fract_y
_atom_site_fract_z
Si Si1 0.899423 0.641259 0.362633
Si Si2 0.095056 0.831824 0.500000
Si Si3 0.601039 0.390192 0.669553
Si Si4 0.099615 0.943297 0.000000
Si Si5 0.100713 0.000000 0.601629
Si Si6 0.840687 0.776913 0.000000
O O1 0.865093 0.634524 0.261923
O O2 0.873277 0.588218 0.412058
O O3 0.853429 0.689464 0.410424
O O4 0.000000 0.650992 0.368719
O O5 0.138867 0.854944 0.589197
O O6 0.092485 0.769870 0.500000
O O7 0.000000 0.853585 0.500000
O O8 0.500000 0.388713 0.673272
O O9 0.633037 0.449110 0.654642
O O10 0.000000 0.950911 0.000000
O O11 0.143896 0.000000 0.000000
O O12 0.136122 0.000000 0.500000
O O13 0.000000 0.000000 0.597765
O O14 0.750000 0.750000 0.000000
#
# Coordination Sequence:
#
# PCOD8284435 Si02
#       6
#    32  16  32  16  16  16
#     4   9  18  33  52  79 112 140 175 223 273 326
#     4  10  19  34  54  78 106 140 180 221 272 323
#     4   9  17  28  49  81 113 143 173 215 269 325
#     4   8  14  24  42  72 107 140 169 200 249 314
#     4   9  14  24  44  79 122 148 170 213 266 319
#     4  11  23  39  55  72  97 142 188 236 280 320
#
# _framework density 21.016026
#
# number of rings (size 3 to 8) (size 9 to 14) (size 15 to 20)
#    0.000    2.750    1.250    1.875    1.750    1.000 
#    0.000    6.250    0.000    0.000   13.000    1.750 
#    0.000    0.000    0.000    0.000    0.000    0.000 
#
# Total GULP energy -396625.440413 kJ/mol
# GULP energy per Si atom -12394.545013 kJ/mol
# Density = 2.096819 g / cm^3
# Si number density = 21.016026 Si / 1000 Ang^3
#
#
#
# Elastic Constant Matrix: (Units=GPa)
#
#
# Indices 1 2 3 4 5 6 
#
# 1 27.0835 18.3003 20.3688 0.0000 0.0000 0.0000
# 2 18.3003 196.9600 108.7791 0.0000 0.0000 0.0000
# 3 20.3688 108.7791 226.4001 0.0000 0.0000 0.0000
# 4 0.0000 0.0000 0.0000 35.6513 0.0000 0.0000
# 5 0.0000 0.0000 0.0000 0.0000 6.3811 0.0000
# 6 0.0000 0.0000 0.0000 0.0000 0.0000 10.2337
#
#
#
# Elastic Compliance Matrix: (Units=1/GPa)
#
#
# Indices 1 2 3 4 5 6 
#
# 1 0.040404 -0.002377 -0.002493 0.000000 0.000000 0.000000
# 2 -0.002377 0.007051 -0.003174 0.000000 0.000000 0.000000
# 3 -0.002493 -0.003174 0.006166 0.000000 0.000000 0.000000
# 4 0.000000 0.000000 0.000000 0.028049 0.000000 0.000000
# 5 0.000000 0.000000 0.000000 0.000000 0.156713 0.000000
# 6 0.000000 0.000000 0.000000 0.000000 0.000000 0.097717
#
#
# Mechanical properties :
#
#
# Convention : Reuss Voigt Hill
#
# Bulk Modulus (GPa) = 26.64319 82.81556 54.72937
# Shear Modulus (GPa) = 13.70991 30.65291 22.18141
#
# Velocity S-wave (km/s) = 2.55690 3.82324 3.25230
# Velocity P-wave (km/s) = 4.62839 7.67991 6.34047
#
# Compressibility (1/GPa) = 0.03753304
#
# Stress axis : x y z
#
# Youngs Moduli (GPa) = 24.75003 141.82407 162.17396
#
# Poissons Ratio (x) = 0.33716 0.40427
# Poissons Ratio (y) = 0.05884 0.51473
# Poissons Ratio (z) = 0.06170 0.45014
#
# Static dielectric constant tensor:
#      x y z
#    x 3.120200 0.000000 0.000000 
#    y 0.000000 4.061820 0.000000 
#    z 0.000000 0.000000 4.062640 
# 
# 
# High freq. dielectric constant tensor:
#      x y z
#    x 1.765880 0.000000 0.000000 
#    y 0.000000 1.831640 0.000000 
#    z 0.000000 0.000000 1.830070 
# 
# From -- ./inp_files/15377.got.cif
#   From: 2010.03.12/outbox.cif.g09.slc.cpg/sg69_8_cif.got.tgz:15377.got - 2010.04.10 23:52:46.
