data_PCOD8284203
_publ_section_title
;
Structure prediction by ZEFSAII (Michael W. Deem and Ramdas Pophale) SiO2 
 PCOD8284203
Probable space group: F M M M
;
_chemical_formula_sum "Si O2"
_cell_formula_units_Z 192
_cell_length_a 15.403935
_cell_length_b 28.148462
_cell_length_c 29.317518
_cell_angle_alpha 90.000000
_cell_angle_beta 90.000000
_cell_angle_gamma 90.000000
_cell_volume 12711.990168
_symmetry_space_group_name_H-M "F M M M"
_symmetry_group_IT_number 69
_symmetry_cell_setting 'orthorhombic'
loop_
_space_group_symop_operation_xyz
x,y,z
-x,-y,z
x,-y,-z
-x,y,-z
-x,-y,-z
x,y,-z
-x,y,z
x,-y,z
x,1/2+y,1/2+z
-x,1/2-y,1/2+z
x,1/2-y,1/2-z
-x,1/2+y,1/2-z
-x,1/2-y,1/2-z
x,1/2+y,1/2-z
-x,1/2+y,1/2+z
x,1/2-y,1/2+z
1/2+x,y,1/2+z
1/2-x,-y,1/2+z
1/2+x,-y,1/2-z
1/2-x,y,1/2-z
1/2-x,-y,1/2-z
1/2+x,y,1/2-z
1/2-x,y,1/2+z
1/2+x,-y,1/2+z
1/2+x,1/2+y,z
1/2-x,1/2-y,z
1/2+x,1/2-y,-z
1/2-x,1/2+y,-z
1/2-x,1/2-y,-z
1/2+x,1/2+y,-z
1/2-x,1/2+y,z
1/2+x,1/2-y,z
loop_
_atom_site_type_symbol
_atom_site_label
_atom_site_fract_x
_atom_site_fract_y
_atom_site_fract_z
Si Si1 0.101299 0.346634 0.948734
Si Si2 0.830978 0.285036 0.132060
Si Si3 0.098962 0.449162 0.072328
Si Si4 0.901939 0.447219 0.179898
Si Si5 0.327059 0.357214 0.284197
Si Si6 0.500000 0.322318 0.248023
Si Si7 0.500000 0.746491 0.828033
O O1 0.156948 0.314117 0.914759
O O2 0.139762 0.400784 0.948202
O O3 0.000000 0.346595 0.933042
O O4 0.111129 0.326459 0.000000
O O5 0.750000 0.250000 0.127031
O O6 0.817782 0.321222 0.173739
O O7 0.915623 0.252920 0.140582
O O8 0.142201 0.500000 0.056175
O O9 0.105797 0.446194 0.126122
O O10 0.000000 0.450655 0.056049
O O11 0.882530 0.500000 0.198884
O O12 0.828973 0.411501 0.198744
O O13 0.000000 0.431392 0.193528
O O14 0.250000 0.346808 0.250000
O O15 0.414083 0.352522 0.255041
O O16 0.500000 0.305090 0.195431
O O17 0.500000 0.281780 0.285813
#
# Coordination Sequence:
#
# PCOD8284203 Si02
#       7
#    32  32  32  32  32  16  16
#     4  10  19  31  49  71  94 123 160 192 231 287
#     4  11  21  33  49  66  93 125 159 201 241 274
#     4   8  14  25  45  69  93 121 152 186 230 282
#     4   9  16  28  47  68  92 125 157 185 228 283
#     4  11  20  30  48  70  93 122 162 196 233 279
#     4   9  18  30  45  64  88 117 151 200 234 266
#     4   9  18  32  47  62  86 118 156 194 240 269
#
# _framework density 15.103851000000001
#
# number of rings (size 3 to 8) (size 9 to 14) (size 15 to 20)
#    0.000    2.333    3.333    2.000    0.000    2.667 
#    0.000    1.667    0.000    0.000    0.000    0.000 
#    0.000    0.000    0.000    0.000    0.000    1.917 
#
# Total GULP energy -594737.120611 kJ/mol
# GULP energy per Si atom -12390.356679 kJ/mol
# Density = 1.506947 g / cm^3
# Si number density = 15.103851 Si / 1000 Ang^3
#
#
#
# Elastic Constant Matrix: (Units=GPa)
#
#
# Indices 1 2 3 4 5 6 
#
# 1 79.5580 42.2272 37.7216 0.0000 0.0000 0.0000
# 2 42.2272 94.1543 45.9233 0.0000 0.0000 0.0000
# 3 37.7216 45.9233 76.8207 0.0000 0.0000 0.0000
# 4 0.0000 0.0000 0.0000 10.2551 0.0000 0.0000
# 5 0.0000 0.0000 0.0000 0.0000 16.9658 0.0000
# 6 0.0000 0.0000 0.0000 0.0000 0.0000 23.0086
#
#
#
# Elastic Compliance Matrix: (Units=1/GPa)
#
#
# Indices 1 2 3 4 5 6 
#
# 1 0.018106 -0.005341 -0.005698 0.000000 0.000000 0.000000
# 2 -0.005341 0.016568 -0.007282 0.000000 0.000000 0.000000
# 3 -0.005698 -0.007282 0.020168 0.000000 0.000000 0.000000
# 4 0.000000 0.000000 0.000000 0.097512 0.000000 0.000000
# 5 0.000000 0.000000 0.000000 0.000000 0.058942 0.000000
# 6 0.000000 0.000000 0.000000 0.000000 0.000000 0.043462
#
#
# Mechanical properties :
#
#
# Convention : Reuss Voigt Hill
#
# Bulk Modulus (GPa) = 54.94234 55.80858 55.37546
# Shear Modulus (GPa) = 16.80865 18.35663 17.58264
#
# Velocity S-wave (km/s) = 3.33959 3.48998 3.41562
# Velocity P-wave (km/s) = 7.16421 7.29864 7.23173
#
# Compressibility (1/GPa) = 0.01820090
#
# Stress axis : x y z
#
# Youngs Moduli (GPa) = 55.23046 60.35759 49.58368
#
# Poissons Ratio (x) = 0.32239 0.28251
# Poissons Ratio (y) = 0.29500 0.36104
# Poissons Ratio (z) = 0.31468 0.43949
#
# Static dielectric constant tensor:
#      x y z
#    x 2.680960 0.000000 0.000000 
#    y 0.000000 3.287570 0.000000 
#    z 0.000000 0.000000 2.801580 
# 
# 
# High freq. dielectric constant tensor:
#      x y z
#    x 1.535520 0.000000 0.000000 
#    y 0.000000 1.584460 0.000000 
#    z 0.000000 0.000000 1.569590 
# 
# From -- ./inp_files/45966.got.cif
#   From: 2010.03.12/outbox.cif.g09.slc.cpg/sg69_23_cif.got.tgz:45966.got - 2010.04.10 23:52:46.
