data_PCOD8284962
_publ_section_title
;
Structure prediction by ZEFSAII (Michael W. Deem and Ramdas Pophale) SiO2 
 PCOD8284962
Probable space group: F M M M
;
_chemical_formula_sum "Si O2"
_cell_formula_units_Z 160
_cell_length_a 27.708489
_cell_length_b 19.404122
_cell_length_c 15.044560
_cell_angle_alpha 90.000000
_cell_angle_beta 90.000000
_cell_angle_gamma 90.000000
_cell_volume 8088.841596
_symmetry_space_group_name_H-M "F M M M"
_symmetry_group_IT_number 69
_symmetry_cell_setting 'orthorhombic'
loop_
_space_group_symop_operation_xyz
x,y,z
-x,-y,z
x,-y,-z
-x,y,-z
-x,-y,-z
x,y,-z
-x,y,z
x,-y,z
x,1/2+y,1/2+z
-x,1/2-y,1/2+z
x,1/2-y,1/2-z
-x,1/2+y,1/2-z
-x,1/2-y,1/2-z
x,1/2+y,1/2-z
-x,1/2+y,1/2+z
x,1/2-y,1/2+z
1/2+x,y,1/2+z
1/2-x,-y,1/2+z
1/2+x,-y,1/2-z
1/2-x,y,1/2-z
1/2-x,-y,1/2-z
1/2+x,y,1/2-z
1/2-x,y,1/2+z
1/2+x,-y,1/2+z
1/2+x,1/2+y,z
1/2-x,1/2-y,z
1/2+x,1/2-y,-z
1/2-x,1/2+y,-z
1/2-x,1/2-y,-z
1/2+x,1/2+y,-z
1/2-x,1/2+y,z
1/2+x,1/2-y,z
loop_
_atom_site_type_symbol
_atom_site_label
_atom_site_fract_x
_atom_site_fract_y
_atom_site_fract_z
Si Si1 0.175374 0.628779 0.398944
Si Si2 0.114615 0.500000 0.393203
Si Si3 0.726877 0.175807 0.901449
Si Si4 0.555355 0.876291 0.899904
Si Si5 0.056638 0.500000 0.777892
Si Si6 0.631380 0.269690 0.347025
O O1 0.186264 0.610918 0.500000
O O2 0.144361 0.566360 0.360315
O O3 0.229441 0.631987 0.355086
O O4 0.145202 0.699594 0.397016
O O5 0.101137 0.500000 0.500000
O O6 0.068479 0.500000 0.327668
O O7 0.750000 0.250000 0.913479
O O8 0.678388 0.179349 0.841802
O O9 0.712058 0.148403 0.000000
O O10 0.500000 0.856498 0.877877
O O11 0.576068 0.932163 0.829592
O O12 0.587163 0.806987 0.895175
O O13 0.559053 0.906278 0.000000
O O14 0.000000 0.500000 0.788708
O O15 0.613744 0.250000 0.250000
#
# Coordination Sequence:
#
# PCOD8284962 Si02
#       6
#    32  16  32  32  16  32
#     4   9  18  33  52  75 107 147 185 218 260 321
#     4  10  20  36  58  83 115 152 183 220 279 339
#     4   8  15  29  48  69  98 139 180 214 252 304
#     4  10  21  38  60  82 105 140 186 236 287 332
#     4  10  21  39  59  80 108 141 184 232 277 336
#     4  11  20  31  52  81 112 141 176 224 277 331
#
# _framework density 19.780335000000001
#
# number of rings (size 3 to 8) (size 9 to 14) (size 15 to 20)
#    0.000    2.400    0.000    4.500    0.000    5.400 
#    0.000    2.000    0.000    6.000    0.000    0.000 
#    0.000    0.000    0.000    0.000    0.000    0.000 
#
# Total GULP energy -495531.635595 kJ/mol
# GULP energy per Si atom -12388.290890 kJ/mol
# Density = 1.973531 g / cm^3
# Si number density = 19.780335 Si / 1000 Ang^3
#
#
#
# Elastic Constant Matrix: (Units=GPa)
#
#
# Indices 1 2 3 4 5 6 
#
# 1 87.6657 46.8060 25.5035 0.0000 0.0000 0.0000
# 2 46.8060 85.9360 15.8320 0.0000 0.0000 0.0000
# 3 25.5035 15.8320 77.5562 0.0000 0.0000 0.0000
# 4 0.0000 0.0000 0.0000 23.7656 0.0000 0.0000
# 5 0.0000 0.0000 0.0000 0.0000 -11.8359 0.0000
# 6 0.0000 0.0000 0.0000 0.0000 0.0000 26.8274
#
#
#
# Elastic Compliance Matrix: (Units=1/GPa)
#
#
# Indices 1 2 3 4 5 6 
#
# 1 0.017137 -0.008620 -0.003876 0.000000 0.000000 0.000000
# 2 -0.008620 0.016427 -0.000519 0.000000 0.000000 0.000000
# 3 -0.003876 -0.000519 0.014274 0.000000 0.000000 0.000000
# 4 0.000000 0.000000 0.000000 0.042078 0.000000 0.000000
# 5 0.000000 0.000000 0.000000 0.000000 -0.084489 0.000000
# 6 0.000000 0.000000 0.000000 0.000000 0.000000 0.037275
#
#
# Mechanical properties :
#
#
# Convention : Reuss Voigt Hill
#
# Bulk Modulus (GPa) = 45.85140 47.49344 46.67242
# Shear Modulus (GPa) = 65.78942 18.61917 42.20430
#
# Velocity S-wave (km/s) = 5.77341 3.07138 4.62416
# Velocity P-wave (km/s) = 8.22639 6.05313 7.22198
#
# Compressibility (1/GPa) = 0.02180959
#
# Stress axis : x y z
#
# Youngs Moduli (GPa) = 58.35458 60.87564 70.05621
#
# Poissons Ratio (x) = 0.52473 0.27151
# Poissons Ratio (y) = 0.50300 0.03635
# Poissons Ratio (z) = 0.22616 0.03158
#
# Static dielectric constant tensor:
#      x y z
#    x 3.718150 0.000000 0.000000 
#    y 0.000000 3.641880 0.000000 
#    z 0.000000 0.000000 3.489430 
# 
# 
# High freq. dielectric constant tensor:
#      x y z
#    x 1.766480 0.000000 0.000000 
#    y 0.000000 1.745640 0.000000 
#    z 0.000000 0.000000 1.765450 
# 
# From -- ./inp_files/19598.got.cif
#   From: 2010.03.12/outbox.cif.g09.slc.cpg/sg69_10_cif.got.tgz:19598.got - 2010.04.10 23:52:46.
