data_PCOD8284816
_publ_section_title
;
Structure prediction by ZEFSAII (Michael W. Deem and Ramdas Pophale) SiO2 
 PCOD8284816
Probable space group: F M M M
;
_chemical_formula_sum "Si O2"
_cell_formula_units_Z 136
_cell_length_a 33.345085
_cell_length_b 10.912006
_cell_length_c 20.603806
_cell_angle_alpha 90.000000
_cell_angle_beta 90.000000
_cell_angle_gamma 90.000000
_cell_volume 7496.937270
_symmetry_space_group_name_H-M "F M M M"
_symmetry_group_IT_number 69
_symmetry_cell_setting 'orthorhombic'
loop_
_space_group_symop_operation_xyz
x,y,z
-x,-y,z
x,-y,-z
-x,y,-z
-x,-y,-z
x,y,-z
-x,y,z
x,-y,z
x,1/2+y,1/2+z
-x,1/2-y,1/2+z
x,1/2-y,1/2-z
-x,1/2+y,1/2-z
-x,1/2-y,1/2-z
x,1/2+y,1/2-z
-x,1/2+y,1/2+z
x,1/2-y,1/2+z
1/2+x,y,1/2+z
1/2-x,-y,1/2+z
1/2+x,-y,1/2-z
1/2-x,y,1/2-z
1/2-x,-y,1/2-z
1/2+x,y,1/2-z
1/2-x,y,1/2+z
1/2+x,-y,1/2+z
1/2+x,1/2+y,z
1/2-x,1/2-y,z
1/2+x,1/2-y,-z
1/2-x,1/2+y,-z
1/2-x,1/2-y,-z
1/2+x,1/2+y,-z
1/2-x,1/2+y,z
1/2+x,1/2-y,z
loop_
_atom_site_type_symbol
_atom_site_label
_atom_site_fract_x
_atom_site_fract_y
_atom_site_fract_z
Si Si1 0.199740 0.500000 0.923057
Si Si2 0.576316 0.712257 0.572223
Si Si3 0.791872 0.500000 0.422862
Si Si4 0.044729 0.000000 0.652347
Si Si5 0.834338 0.243029 0.075298
Si Si6 0.000000 0.132695 0.901578
Si Si7 0.500000 0.000000 0.723414
O O1 0.245826 0.500000 0.901444
O O2 0.179337 0.375042 0.894609
O O3 0.194674 0.500000 0.000000
O O4 0.578096 0.651495 0.500000
O O5 0.569574 0.615701 0.629001
O O6 0.618348 0.778384 0.586882
O O7 0.540027 0.805914 0.573114
O O8 0.797098 0.500000 0.500000
O O9 0.812069 0.375608 0.393719
O O10 0.039739 0.000000 0.730696
O O11 0.000000 0.000000 0.619917
O O12 0.822893 0.246821 0.000000
O O13 0.000000 0.121384 0.822281
O O14 0.000000 0.000000 0.934115
#
# Coordination Sequence:
#
# PCOD8284816 Si02
#       7
#    16  32  16  16  32  16   8
#     4   9  15  27  43  60  87 129 173 199 228 283
#     4  11  21  32  50  74 101 131 164 206 252 297
#     4   9  16  26  42  61  87 131 171 196 231 286
#     4  10  20  35  53  68  90 125 172 213 250 283
#     4   9  18  28  41  65  97 127 161 204 242 288
#     4  10  22  36  48  68  94 134 168 200 246 294
#     4   8  22  38  50  70  88 128 180 208 258 280
#
# _framework density 18.140740999999998
#
# number of rings (size 3 to 8) (size 9 to 14) (size 15 to 20)
#    0.706    1.647    1.176    2.118    1.647    8.000 
#    0.000    0.000    0.000    0.000    0.000    0.000 
#    0.000    0.000    0.000   74.118    0.000   32.941 
#
# Total GULP energy -421250.543233 kJ/mol
# GULP energy per Si atom -12389.721860 kJ/mol
# Density = 1.809945 g / cm^3
# Si number density = 18.140741 Si / 1000 Ang^3
#
#
#
# Elastic Constant Matrix: (Units=GPa)
#
#
# Indices 1 2 3 4 5 6 
#
# 1 140.3256 62.6638 9.8058 0.0000 0.0000 0.0000
# 2 62.6638 133.4485 0.9184 0.0000 0.0000 0.0000
# 3 9.8058 0.9184 54.4082 0.0000 0.0000 0.0000
# 4 0.0000 0.0000 0.0000 18.7108 0.0000 0.0000
# 5 0.0000 0.0000 0.0000 0.0000 -3.2288 0.0000
# 6 0.0000 0.0000 0.0000 0.0000 0.0000 5.8639
#
#
#
# Elastic Compliance Matrix: (Units=1/GPa)
#
#
# Indices 1 2 3 4 5 6 
#
# 1 0.009150 -0.004286 -0.001577 0.000000 0.000000 0.000000
# 2 -0.004286 0.009502 0.000612 0.000000 0.000000 0.000000
# 3 -0.001577 0.000612 0.018653 0.000000 0.000000 0.000000
# 4 0.000000 0.000000 0.000000 0.053445 0.000000 0.000000
# 5 0.000000 0.000000 0.000000 0.000000 -0.309714 0.000000
# 6 0.000000 0.000000 0.000000 0.000000 0.000000 0.170534
#
#
# Mechanical properties :
#
#
# Convention : Reuss Voigt Hill
#
# Bulk Modulus (GPa) = 37.30736 52.77313 45.04024
# Shear Modulus (GPa) = -172.45358 21.25548 -75.59905
#
# Velocity S-wave (km/s) = -9.76067 3.42672 -6.46251
# Velocity P-wave (km/s) = 10.31588 6.69408 5.55008
#
# Compressibility (1/GPa) = 0.02680436
#
# Stress axis : x y z
#
# Youngs Moduli (GPa) = 109.28497 105.24245 53.60939
#
# Poissons Ratio (x) = 0.45106 0.08453
# Poissons Ratio (y) = 0.46839 -0.03281
# Poissons Ratio (z) = 0.17232 -0.06441
#
# Static dielectric constant tensor:
#      x y z
#    x 3.346780 0.000000 0.000000 
#    y 0.000000 1.394230 0.000000 
#    z 0.000000 0.000000 2.772250 
# 
# 
# High freq. dielectric constant tensor:
#      x y z
#    x 1.710310 0.000000 0.000000 
#    y 0.000000 1.713040 0.000000 
#    z 0.000000 0.000000 1.628780 
# 
# From -- ./inp_files/38819.got.cif
#   From: 2010.03.12/outbox.cif.g09.slc.cpg/sg69_20_cif.got.tgz:38819.got - 2010.04.10 23:52:46.
