data_PCOD8284656
_publ_section_title
;
Structure prediction by ZEFSAII (Michael W. Deem and Ramdas Pophale) SiO2 
 PCOD8284656
Probable space group: F M M M
;
_chemical_formula_sum "Si O2"
_cell_formula_units_Z 160
_cell_length_a 26.374503
_cell_length_b 13.988606
_cell_length_c 22.768791
_cell_angle_alpha 90.000000
_cell_angle_beta 90.000000
_cell_angle_gamma 90.000000
_cell_volume 8400.375377
_symmetry_space_group_name_H-M "F M M M"
_symmetry_group_IT_number 69
_symmetry_cell_setting 'orthorhombic'
loop_
_space_group_symop_operation_xyz
x,y,z
-x,-y,z
x,-y,-z
-x,y,-z
-x,-y,-z
x,y,-z
-x,y,z
x,-y,z
x,1/2+y,1/2+z
-x,1/2-y,1/2+z
x,1/2-y,1/2-z
-x,1/2+y,1/2-z
-x,1/2-y,1/2-z
x,1/2+y,1/2-z
-x,1/2+y,1/2+z
x,1/2-y,1/2+z
1/2+x,y,1/2+z
1/2-x,-y,1/2+z
1/2+x,-y,1/2-z
1/2-x,y,1/2-z
1/2-x,-y,1/2-z
1/2+x,y,1/2-z
1/2-x,y,1/2+z
1/2+x,-y,1/2+z
1/2+x,1/2+y,z
1/2-x,1/2-y,z
1/2+x,1/2-y,-z
1/2-x,1/2+y,-z
1/2-x,1/2-y,-z
1/2+x,1/2+y,-z
1/2-x,1/2+y,z
1/2+x,1/2-y,z
loop_
_atom_site_type_symbol
_atom_site_label
_atom_site_fract_x
_atom_site_fract_y
_atom_site_fract_z
Si Si1 0.831042 0.391949 0.618393
Si Si2 0.273710 0.889621 0.067097
Si Si3 0.906337 0.109521 0.783996
Si Si4 0.942562 0.801146 0.670860
Si Si5 0.124935 0.216031 0.433246
O O1 0.837256 0.500000 0.595631
O O2 0.772412 0.360679 0.610442
O O3 0.850033 0.381858 0.686365
O O4 0.867274 0.329055 0.576700
O O5 0.323164 0.833314 0.087647
O O6 0.287366 0.000000 0.072328
O O7 0.258568 0.862607 0.000000
O O8 0.906248 0.139810 0.715607
O O9 0.942574 0.186933 0.816059
O O10 0.926292 0.000000 0.791311
O O11 0.921317 0.822369 0.606075
O O12 0.000000 0.838971 0.675309
O O13 0.111083 0.192167 0.500000
#
# Coordination Sequence:
#
# PCOD8284656 Si02
#       5
#    32  32  32  32  32
#     4   9  17  30  51  79 105 128 159 199 246 304
#     4   9  17  30  49  73 103 138 171 201 238 291
#     4   9  18  34  55  77 100 125 159 207 257 303
#     4  10  21  35  52  75  99 129 173 214 250 296
#     4  10  20  33  50  73 103 137 170 206 246 289
#
# _framework density 19.046768
#
# number of rings (size 3 to 8) (size 9 to 14) (size 15 to 20)
#    0.000    2.600    0.000    2.400    0.000    5.600 
#    0.000    1.000    0.000    8.400    0.000    9.800 
#    0.000    0.000    0.000    0.000    0.000    0.000 
#
# Total GULP energy -495674.186511 kJ/mol
# GULP energy per Si atom -12391.854663 kJ/mol
# Density = 1.900342 g / cm^3
# Si number density = 19.046768 Si / 1000 Ang^3
#
#
#
# Elastic Constant Matrix: (Units=GPa)
#
#
# Indices 1 2 3 4 5 6 
#
# 1 100.6882 28.7492 71.9971 0.0000 0.0000 0.0000
# 2 28.7492 66.3540 26.1647 0.0000 0.0000 0.0000
# 3 71.9971 26.1647 116.7989 0.0000 0.0000 0.0000
# 4 0.0000 0.0000 0.0000 19.6472 0.0000 0.0000
# 5 0.0000 0.0000 0.0000 0.0000 28.5451 0.0000
# 6 0.0000 0.0000 0.0000 0.0000 0.0000 18.3114
#
#
#
# Elastic Compliance Matrix: (Units=1/GPa)
#
#
# Indices 1 2 3 4 5 6 
#
# 1 0.018631 -0.003887 -0.010614 0.000000 0.000000 0.000000
# 2 -0.003887 0.017342 -0.001489 0.000000 0.000000 0.000000
# 3 -0.010614 -0.001489 0.015438 0.000000 0.000000 0.000000
# 4 0.000000 0.000000 0.000000 0.050898 0.000000 0.000000
# 5 0.000000 0.000000 0.000000 0.000000 0.035032 0.000000
# 6 0.000000 0.000000 0.000000 0.000000 0.000000 0.054611
#
#
# Mechanical properties :
#
#
# Convention : Reuss Voigt Hill
#
# Bulk Modulus (GPa) = 51.46296 59.74036 55.60166
# Shear Modulus (GPa) = 21.70070 23.76273 22.73172
#
# Velocity S-wave (km/s) = 3.37907 3.53597 3.45841
# Velocity P-wave (km/s) = 6.50400 6.93570 6.72332
#
# Compressibility (1/GPa) = 0.01943145
#
# Stress axis : x y z
#
# Youngs Moduli (GPa) = 53.67467 57.66385 64.77654
#
# Poissons Ratio (x) = 0.22414 0.68751
# Poissons Ratio (y) = 0.20863 0.09644
# Poissons Ratio (z) = 0.56968 0.08585
#
# Static dielectric constant tensor:
#      x y z
#    x 3.308760 0.000000 0.000000 
#    y 0.000000 3.644550 0.000000 
#    z 0.000000 0.000000 3.429030 
# 
# 
# High freq. dielectric constant tensor:
#      x y z
#    x 1.716230 0.000000 0.000000 
#    y 0.000000 1.750620 0.000000 
#    z 0.000000 0.000000 1.722100 
# 
# From -- ./inp_files/17689.got.cif
#   From: 2010.03.12/outbox.cif.g09.slc.cpg/sg69_9_cif.got.tgz:17689.got - 2010.04.10 23:52:46.
