data_PCOD8284050
_publ_section_title
;
Structure prediction by ZEFSAII (Michael W. Deem and Ramdas Pophale) SiO2 
 PCOD8284050
Probable space group: F M M M
;
_chemical_formula_sum "Si O2"
_cell_formula_units_Z 192
_cell_length_a 14.764567
_cell_length_b 23.670571
_cell_length_c 27.970203
_cell_angle_alpha 90.000000
_cell_angle_beta 90.000000
_cell_angle_gamma 90.000000
_cell_volume 9775.186854
_symmetry_space_group_name_H-M "F M M M"
_symmetry_group_IT_number 69
_symmetry_cell_setting 'orthorhombic'
loop_
_space_group_symop_operation_xyz
x,y,z
-x,-y,z
x,-y,-z
-x,y,-z
-x,-y,-z
x,y,-z
-x,y,z
x,-y,z
x,1/2+y,1/2+z
-x,1/2-y,1/2+z
x,1/2-y,1/2-z
-x,1/2+y,1/2-z
-x,1/2-y,1/2-z
x,1/2+y,1/2-z
-x,1/2+y,1/2+z
x,1/2-y,1/2+z
1/2+x,y,1/2+z
1/2-x,-y,1/2+z
1/2+x,-y,1/2-z
1/2-x,y,1/2-z
1/2-x,-y,1/2-z
1/2+x,y,1/2-z
1/2-x,y,1/2+z
1/2+x,-y,1/2+z
1/2+x,1/2+y,z
1/2-x,1/2-y,z
1/2+x,1/2-y,-z
1/2-x,1/2+y,-z
1/2-x,1/2-y,-z
1/2+x,1/2+y,-z
1/2-x,1/2+y,z
1/2+x,1/2-y,z
loop_
_atom_site_type_symbol
_atom_site_label
_atom_site_fract_x
_atom_site_fract_y
_atom_site_fract_z
Si Si1 0.107767 0.350186 0.139424
Si Si2 0.747822 0.564475 0.604835
Si Si3 0.895649 0.134616 0.160121
Si Si4 0.186699 0.062933 0.000000
Si Si5 0.392845 0.812796 0.756720
Si Si6 0.104287 0.262597 0.406728
Si Si7 0.894710 0.180706 0.000000
O O1 0.154828 0.406496 0.120774
O O2 0.140079 0.339270 0.193536
O O3 0.145733 0.298161 0.107173
O O4 0.000000 0.357209 0.135761
O O5 0.742140 0.500000 0.621089
O O6 0.835022 0.590171 0.631553
O O7 0.753025 0.569931 0.547462
O O8 0.863183 0.143447 0.214889
O O9 0.884469 0.196556 0.138037
O O10 0.000000 0.113787 0.156488
O O11 0.113410 0.112827 0.000000
O O12 0.140788 0.000000 0.000000
O O13 0.500000 0.806723 0.755889
O O14 0.350631 0.750000 0.750000
O O15 0.151479 0.290520 0.453408
O O16 0.000000 0.252577 0.418401
O O17 0.000000 0.193382 0.000000
#
# Coordination Sequence:
#
# PCOD8284050 Si02
#       7
#    32  32  32  16  32  32  16
#     4  10  21  39  61  85 116 154 194 241 293 337
#     4  11  25  42  59  82 113 153 204 246 280 338
#     4  10  19  35  59  88 122 151 180 230 291 348
#     4  10  22  40  56  77 113 155 201 244 275 331
#     4   9  16  32  59  89 120 151 188 232 281 349
#     4   9  17  31  54  85 119 147 177 227 288 347
#     4  10  18  32  55  88 123 151 185 232 288 357
#
# _framework density 19.641567999999999
#
# number of rings (size 3 to 8) (size 9 to 14) (size 15 to 20)
#    0.000    2.167    3.333    0.000    0.000    2.833 
#    0.000    6.250    0.000    4.500    0.000    0.000 
#    0.000    0.000    0.000    0.000    0.000    0.000 
#
# Total GULP energy -594975.788464 kJ/mol
# GULP energy per Si atom -12395.328926 kJ/mol
# Density = 1.959686 g / cm^3
# Si number density = 19.641568 Si / 1000 Ang^3
#
#
#
# Elastic Constant Matrix: (Units=GPa)
#
#
# Indices 1 2 3 4 5 6 
#
# 1 54.0774 50.1610 33.9209 0.0000 0.0000 0.0000
# 2 50.1610 137.3400 70.8736 0.0000 0.0000 0.0000
# 3 33.9209 70.8736 152.7339 0.0000 0.0000 0.0000
# 4 0.0000 0.0000 0.0000 26.3540 0.0000 0.0000
# 5 0.0000 0.0000 0.0000 0.0000 16.6131 0.0000
# 6 0.0000 0.0000 0.0000 0.0000 0.0000 26.6564
#
#
#
# Elastic Compliance Matrix: (Units=1/GPa)
#
#
# Indices 1 2 3 4 5 6 
#
# 1 0.028408 -0.009361 -0.001965 0.000000 0.000000 0.000000
# 2 -0.009361 0.012659 -0.003795 0.000000 0.000000 0.000000
# 3 -0.001965 -0.003795 0.008745 0.000000 0.000000 0.000000
# 4 0.000000 0.000000 0.000000 0.037945 0.000000 0.000000
# 5 0.000000 0.000000 0.000000 0.000000 0.060193 0.000000
# 6 0.000000 0.000000 0.000000 0.000000 0.000000 0.037514
#
#
# Mechanical properties :
#
#
# Convention : Reuss Voigt Hill
#
# Bulk Modulus (GPa) = 51.10271 72.67358 61.88815
# Shear Modulus (GPa) = 22.49920 26.53778 24.51849
#
# Velocity S-wave (km/s) = 3.38818 3.67972 3.53696
# Velocity P-wave (km/s) = 6.43276 7.42523 6.94674
#
# Compressibility (1/GPa) = 0.01956843
#
# Stress axis : x y z
#
# Youngs Moduli (GPa) = 35.20118 78.99727 114.35411
#
# Poissons Ratio (x) = 0.73953 0.22473
# Poissons Ratio (y) = 0.32953 0.43397
# Poissons Ratio (z) = 0.06918 0.29979
#
# Static dielectric constant tensor:
#      x y z
#    x 3.221730 0.000000 0.000000 
#    y 0.000000 3.495700 0.000000 
#    z 0.000000 0.000000 4.114760 
# 
# 
# High freq. dielectric constant tensor:
#      x y z
#    x 1.740190 0.000000 0.000000 
#    y 0.000000 1.749220 0.000000 
#    z 0.000000 0.000000 1.783840 
# 
# From -- ./inp_files/38999.got.cif
#   From: 2010.03.12/outbox.cif.g09.slc.cpg/sg69_20_cif.got.tgz:38999.got - 2010.04.10 23:52:46.
