data_PCOD8284066
_publ_section_title
;
Structure prediction by ZEFSAII (Michael W. Deem and Ramdas Pophale) SiO2 
 PCOD8284066
Probable space group: F M M M
;
_chemical_formula_sum "Si O2"
_cell_formula_units_Z 240
_cell_length_a 21.998230
_cell_length_b 19.964055
_cell_length_c 28.324282
_cell_angle_alpha 90.000000
_cell_angle_beta 90.000000
_cell_angle_gamma 90.000000
_cell_volume 12439.284644
_symmetry_space_group_name_H-M "F M M M"
_symmetry_group_IT_number 69
_symmetry_cell_setting 'orthorhombic'
loop_
_space_group_symop_operation_xyz
x,y,z
-x,-y,z
x,-y,-z
-x,y,-z
-x,-y,-z
x,y,-z
-x,y,z
x,-y,z
x,1/2+y,1/2+z
-x,1/2-y,1/2+z
x,1/2-y,1/2-z
-x,1/2+y,1/2-z
-x,1/2-y,1/2-z
x,1/2+y,1/2-z
-x,1/2+y,1/2+z
x,1/2-y,1/2+z
1/2+x,y,1/2+z
1/2-x,-y,1/2+z
1/2+x,-y,1/2-z
1/2-x,y,1/2-z
1/2-x,-y,1/2-z
1/2+x,y,1/2-z
1/2-x,y,1/2+z
1/2+x,-y,1/2+z
1/2+x,1/2+y,z
1/2-x,1/2-y,z
1/2+x,1/2-y,-z
1/2-x,1/2+y,-z
1/2-x,1/2-y,-z
1/2+x,1/2+y,-z
1/2-x,1/2+y,z
1/2+x,1/2-y,z
loop_
_atom_site_type_symbol
_atom_site_label
_atom_site_fract_x
_atom_site_fract_y
_atom_site_fract_z
Si Si1 0.431133 0.127223 0.826573
Si Si2 0.696564 0.575436 0.825740
Si Si3 0.680663 0.924697 0.122483
Si Si4 0.567324 0.774020 0.359048
Si Si5 0.641617 0.131285 0.583793
Si Si6 0.373423 0.178368 0.267083
Si Si7 0.266082 0.676636 0.446563
Si Si8 0.571289 0.926913 0.500000
O O1 0.500000 0.097865 0.826624
O O2 0.384531 0.076620 0.851743
O O3 0.428402 0.194625 0.856825
O O4 0.410539 0.140321 0.773232
O O5 0.688691 0.500000 0.805926
O O6 0.766379 0.590015 0.839506
O O7 0.653086 0.582409 0.871683
O O8 0.679992 0.629373 0.785472
O O9 0.684583 0.866579 0.082660
O O10 0.688898 0.000000 0.101160
O O11 0.500000 0.796337 0.375313
O O12 0.617958 0.797461 0.396469
O O13 0.578412 0.806990 0.308091
O O14 0.703047 0.136628 0.553933
O O15 0.590286 0.107099 0.548575
O O16 0.345259 0.250000 0.250000
O O17 0.290638 0.683894 0.500000
O O18 0.250000 0.750000 0.424791
O O19 0.500000 0.929323 0.500000
O O20 0.601048 0.000000 0.500000
#
# Coordination Sequence:
#
# PCOD8284066 Si02
#       8
#    32  32  32  32  32  32  32  16
#     4  10  20  35  55  78 105 140 183 232 276 318
#     4   9  19  35  54  76 108 144 180 219 269 327
#     4  10  22  38  55  80 111 145 180 220 273 331
#     4   9  17  31  53  77 107 145 184 222 267 321
#     4  10  18  33  52  78 107 142 177 214 265 317
#     4   9  18  33  54  80 108 141 184 233 276 326
#     4  10  20  36  59  86 109 134 171 227 277 325
#     4  11  22  32  45  72 110 146 179 212 248 301
#
# _framework density 19.293714000000001
#
# number of rings (size 3 to 8) (size 9 to 14) (size 15 to 20)
#    0.000    2.333    0.667    2.000    0.000    4.800 
#    0.000    3.333    0.000    8.000    0.000    0.933 
#    0.000    0.000    0.000    0.000    0.000    0.000 
#
# Total GULP energy -743746.230382 kJ/mol
# GULP energy per Si atom -12395.770506 kJ/mol
# Density = 1.924980 g / cm^3
# Si number density = 19.293714 Si / 1000 Ang^3
#
#
#
# Elastic Constant Matrix: (Units=GPa)
#
#
# Indices 1 2 3 4 5 6 
#
# 1 94.2973 31.4946 37.3481 0.0000 0.0000 0.0000
# 2 31.4946 98.1725 36.5473 0.0000 0.0000 0.0000
# 3 37.3481 36.5473 80.9868 0.0000 0.0000 0.0000
# 4 0.0000 0.0000 0.0000 25.4473 0.0000 0.0000
# 5 0.0000 0.0000 0.0000 0.0000 21.1123 0.0000
# 6 0.0000 0.0000 0.0000 0.0000 0.0000 21.7823
#
#
#
# Elastic Compliance Matrix: (Units=1/GPa)
#
#
# Indices 1 2 3 4 5 6 
#
# 1 0.013432 -0.002408 -0.005108 0.000000 0.000000 0.000000
# 2 -0.002408 0.012674 -0.004609 0.000000 0.000000 0.000000
# 3 -0.005108 -0.004609 0.016783 0.000000 0.000000 0.000000
# 4 0.000000 0.000000 0.000000 0.039297 0.000000 0.000000
# 5 0.000000 0.000000 0.000000 0.000000 0.047366 0.000000
# 6 0.000000 0.000000 0.000000 0.000000 0.000000 0.045909
#
#
# Mechanical properties :
#
#
# Convention : Reuss Voigt Hill
#
# Bulk Modulus (GPa) = 53.64761 53.80408 53.72585
# Shear Modulus (GPa) = 24.28078 24.87282 24.57680
#
# Velocity S-wave (km/s) = 3.55136 3.59439 3.57294
# Velocity P-wave (km/s) = 6.68448 6.72113 6.70283
#
# Compressibility (1/GPa) = 0.01864016
#
# Stress axis : x y z
#
# Youngs Moduli (GPa) = 74.44957 78.89863 59.58284
#
# Poissons Ratio (x) = 0.18995 0.30434
# Poissons Ratio (y) = 0.17924 0.27464
# Poissons Ratio (z) = 0.38028 0.36368
#
# Static dielectric constant tensor:
#      x y z
#    x 3.462120 0.000000 0.000000 
#    y 0.000000 3.524800 0.000000 
#    z 0.000000 0.000000 3.384420 
# 
# 
# High freq. dielectric constant tensor:
#      x y z
#    x 1.742780 0.000000 0.000000 
#    y 0.000000 1.747730 0.000000 
#    z 0.000000 0.000000 1.738810 
# 
# From -- ./inp_files/42842.got.cif
#   From: 2010.03.12/outbox.cif.g09.slc.cpg/sg69_22_cif.got.tgz:42842.got - 2010.04.10 23:52:46.
