data_PCOD8284578
_publ_section_title
;
Structure prediction by ZEFSAII (Michael W. Deem and Ramdas Pophale) SiO2 
 PCOD8284578
Probable space group: F M M M
;
_chemical_formula_sum "Si O2"
_cell_formula_units_Z 192
_cell_length_a 33.232354
_cell_length_b 23.085306
_cell_length_c 14.079434
_cell_angle_alpha 90.000000
_cell_angle_beta 90.000000
_cell_angle_gamma 90.000000
_cell_volume 10801.446958
_symmetry_space_group_name_H-M "F M M M"
_symmetry_group_IT_number 69
_symmetry_cell_setting 'orthorhombic'
loop_
_space_group_symop_operation_xyz
x,y,z
-x,-y,z
x,-y,-z
-x,y,-z
-x,-y,-z
x,y,-z
-x,y,z
x,-y,z
x,1/2+y,1/2+z
-x,1/2-y,1/2+z
x,1/2-y,1/2-z
-x,1/2+y,1/2-z
-x,1/2-y,1/2-z
x,1/2+y,1/2-z
-x,1/2+y,1/2+z
x,1/2-y,1/2+z
1/2+x,y,1/2+z
1/2-x,-y,1/2+z
1/2+x,-y,1/2-z
1/2-x,y,1/2-z
1/2-x,-y,1/2-z
1/2+x,y,1/2-z
1/2-x,y,1/2+z
1/2+x,-y,1/2+z
1/2+x,1/2+y,z
1/2-x,1/2-y,z
1/2+x,1/2-y,-z
1/2-x,1/2+y,-z
1/2-x,1/2-y,-z
1/2+x,1/2+y,-z
1/2-x,1/2+y,z
1/2+x,1/2-y,z
loop_
_atom_site_type_symbol
_atom_site_label
_atom_site_fract_x
_atom_site_fract_y
_atom_site_fract_z
Si Si1 0.000000 0.930913 0.608261
Si Si2 0.338528 0.565738 0.388340
Si Si3 0.920211 0.932491 0.296893
Si Si4 0.113829 0.933654 0.104819
Si Si5 0.727727 0.841864 0.108954
Si Si6 0.819824 0.341406 0.392865
Si Si7 0.695319 0.750000 0.750000
O O1 0.039696 0.904054 0.658594
O O2 0.000000 0.910362 0.500000
O O3 0.000000 0.000000 0.617276
O O4 0.345090 0.566738 0.500000
O O5 0.330220 0.500000 0.352920
O O6 0.379058 0.592481 0.341922
O O7 0.300973 0.605619 0.357967
O O8 0.920376 0.920548 0.183338
O O9 0.921113 0.000000 0.321640
O O10 0.153496 0.897327 0.127823
O O11 0.127772 0.000000 0.112046
O O12 0.096180 0.919469 0.000000
O O13 0.773772 0.861702 0.120662
O O14 0.722540 0.786989 0.177290
O O15 0.718385 0.823746 0.000000
O O16 0.827142 0.318012 0.500000
O O17 0.831877 0.291543 0.316824
#
# Coordination Sequence:
#
# PCOD8284578 Si02
#       7
#    16  32  32  32  32  32  16
#     4   9  16  26  43  67  93 122 154 183 215 264
#     4   9  17  29  45  66  93 121 148 185 233 279
#     4   9  16  27  43  64  91 122 153 183 220 269
#     4   9  18  32  48  66  91 123 157 192 227 264
#     4  10  20  31  45  66  89 118 157 195 232 275
#     4  10  20  32  47  66  88 120 160 196 231 272
#     4  12  21  32  46  60  86 121 156 199 242 272
#
# _framework density 17.775395
#
# number of rings (size 3 to 8) (size 9 to 14) (size 15 to 20)
#    0.000    2.417    0.000    3.500    0.000    4.000 
#    0.000    3.750    0.000    7.500    0.000    0.000 
#    0.000   10.667    0.000   31.333    0.000    7.333 
#
# Total GULP energy -594965.348734 kJ/mol
# GULP energy per Si atom -12395.111432 kJ/mol
# Density = 1.773494 g / cm^3
# Si number density = 17.775395 Si / 1000 Ang^3
#
#
#
# Elastic Constant Matrix: (Units=GPa)
#
#
# Indices 1 2 3 4 5 6 
#
# 1 92.5911 41.4487 67.3206 0.0000 0.0000 0.0000
# 2 41.4487 60.5657 47.2177 0.0000 0.0000 0.0000
# 3 67.3206 47.2177 116.5076 0.0000 0.0000 0.0000
# 4 0.0000 0.0000 0.0000 26.1315 0.0000 0.0000
# 5 0.0000 0.0000 0.0000 0.0000 27.7674 0.0000
# 6 0.0000 0.0000 0.0000 0.0000 0.0000 5.0017
#
#
#
# Elastic Compliance Matrix: (Units=1/GPa)
#
#
# Indices 1 2 3 4 5 6 
#
# 1 0.020471 -0.006999 -0.008992 0.000000 0.000000 0.000000
# 2 -0.006999 0.026531 -0.006708 0.000000 0.000000 0.000000
# 3 -0.008992 -0.006708 0.016497 0.000000 0.000000 0.000000
# 4 0.000000 0.000000 0.000000 0.038268 0.000000 0.000000
# 5 0.000000 0.000000 0.000000 0.000000 0.036013 0.000000
# 6 0.000000 0.000000 0.000000 0.000000 0.000000 0.199932
#
#
# Mechanical properties :
#
#
# Convention : Reuss Voigt Hill
#
# Bulk Modulus (GPa) = 55.24621 64.62651 59.93636
# Shear Modulus (GPa) = 12.84866 19.35861 16.10364
#
# Velocity S-wave (km/s) = 2.69147 3.30368 3.01317
# Velocity P-wave (km/s) = 6.38798 7.14063 6.77477
#
# Compressibility (1/GPa) = 0.01810079
#
# Stress axis : x y z
#
# Youngs Moduli (GPa) = 48.84854 37.69234 60.61534
#
# Poissons Ratio (x) = 0.26383 0.54506
# Poissons Ratio (y) = 0.34191 0.40659
# Poissons Ratio (z) = 0.43925 0.25283
#
# Static dielectric constant tensor:
#      x y z
#    x 3.178200 0.000000 0.000000 
#    y 0.000000 3.125300 0.000000 
#    z 0.000000 0.000000 3.748540 
# 
# 
# High freq. dielectric constant tensor:
#      x y z
#    x 1.655630 0.000000 0.000000 
#    y 0.000000 1.648210 0.000000 
#    z 0.000000 0.000000 1.716900 
# 
# From -- ./inp_files/19830.got.cif
#   From: 2010.03.12/outbox.cif.g09.slc.cpg/sg69_10_cif.got.tgz:19830.got - 2010.04.10 23:52:46.
