data_PCOD8284065
_publ_section_title
;
Structure prediction by ZEFSAII (Michael W. Deem and Ramdas Pophale) SiO2 
 PCOD8284065
Probable space group: F M M M
;
_chemical_formula_sum "Si O2"
_cell_formula_units_Z 192
_cell_length_a 28.071858
_cell_length_b 15.403880
_cell_length_c 21.935525
_cell_angle_alpha 90.000000
_cell_angle_beta 90.000000
_cell_angle_gamma 90.000000
_cell_volume 9485.261713
_symmetry_space_group_name_H-M "F M M M"
_symmetry_group_IT_number 69
_symmetry_cell_setting 'orthorhombic'
loop_
_space_group_symop_operation_xyz
x,y,z
-x,-y,z
x,-y,-z
-x,y,-z
-x,-y,-z
x,y,-z
-x,y,z
x,-y,z
x,1/2+y,1/2+z
-x,1/2-y,1/2+z
x,1/2-y,1/2-z
-x,1/2+y,1/2-z
-x,1/2-y,1/2-z
x,1/2+y,1/2-z
-x,1/2+y,1/2+z
x,1/2-y,1/2+z
1/2+x,y,1/2+z
1/2-x,-y,1/2+z
1/2+x,-y,1/2-z
1/2-x,y,1/2-z
1/2-x,-y,1/2-z
1/2+x,y,1/2-z
1/2-x,y,1/2+z
1/2+x,-y,1/2+z
1/2+x,1/2+y,z
1/2-x,1/2-y,z
1/2+x,1/2-y,-z
1/2-x,1/2+y,-z
1/2-x,1/2-y,-z
1/2+x,1/2+y,-z
1/2-x,1/2+y,z
1/2+x,1/2-y,z
loop_
_atom_site_type_symbol
_atom_site_label
_atom_site_fract_x
_atom_site_fract_y
_atom_site_fract_z
Si Si1 0.500000 0.661881 0.708726
Si Si2 0.605375 0.245927 0.933179
Si Si3 0.353409 0.902517 0.627368
Si Si4 0.098840 0.353526 0.253459
Si Si5 0.653406 0.596069 0.356940
Si Si6 0.247255 0.352734 0.680871
Si Si7 0.500000 0.786448 0.930218
O O1 0.500000 0.750000 0.750000
O O2 0.452190 0.612305 0.729130
O O3 0.500000 0.660669 0.634101
O O4 0.635370 0.333878 0.925493
O O5 0.621517 0.168808 0.889167
O O6 0.548969 0.268263 0.925579
O O7 0.616426 0.210194 0.000000
O O8 0.393650 0.885093 0.678084
O O9 0.300853 0.887355 0.652012
O O10 0.358166 0.000000 0.601884
O O11 0.103938 0.250000 0.250000
O O12 0.140272 0.398120 0.214224
O O13 0.641869 0.500000 0.383191
O O14 0.709869 0.611847 0.361212
O O15 0.250000 0.387668 0.750000
O O16 0.250000 0.250000 0.679931
O O17 0.500000 0.832079 0.000000
#
# Coordination Sequence:
#
# PCOD8284065 Si02
#       7
#    16  32  32  32  32  32  16
#     4  10  18  32  61  90 124 165 215 262 319 380
#     4  11  24  45  67  89 123 169 217 262 312 370
#     4  12  24  40  63  96 130 165 208 260 318 378
#     4  11  19  36  59  89 128 163 200 253 322 375
#     4  12  23  38  62  94 126 159 205 259 314 373
#     4  11  21  37  63  93 126 165 208 253 310 382
#     4  10  20  40  68  92 120 170 220 263 312 377
#
# _framework density 20.24193
#
# number of rings (size 3 to 8) (size 9 to 14) (size 15 to 20)
#    0.000    0.833    6.667    2.000    0.000    1.333 
#    0.000    5.833    0.000    5.000    0.000    0.000 
#    0.000    0.000    0.000    0.000    0.000    0.000 
#
# Total GULP energy -594776.296160 kJ/mol
# GULP energy per Si atom -12391.172837 kJ/mol
# Density = 2.019586 g / cm^3
# Si number density = 20.241930 Si / 1000 Ang^3
#
#
#
# Elastic Constant Matrix: (Units=GPa)
#
#
# Indices 1 2 3 4 5 6 
#
# 1 139.4351 33.1822 29.6708 0.0000 0.0000 0.0000
# 2 33.1822 124.0567 9.5431 0.0000 0.0000 0.0000
# 3 29.6708 9.5431 67.7864 0.0000 0.0000 0.0000
# 4 0.0000 0.0000 0.0000 0.1084 0.0000 0.0000
# 5 0.0000 0.0000 0.0000 0.0000 30.4289 0.0000
# 6 0.0000 0.0000 0.0000 0.0000 0.0000 2.2162
#
#
#
# Elastic Compliance Matrix: (Units=1/GPa)
#
#
# Indices 1 2 3 4 5 6 
#
# 1 0.008362 -0.001976 -0.003382 0.000000 0.000000 0.000000
# 2 -0.001976 0.008616 -0.000348 0.000000 0.000000 0.000000
# 3 -0.003382 -0.000348 0.016281 0.000000 0.000000 0.000000
# 4 0.000000 0.000000 0.000000 9.226134 0.000000 0.000000
# 5 0.000000 0.000000 0.000000 0.000000 0.032863 0.000000
# 6 0.000000 0.000000 0.000000 0.000000 0.000000 0.451229
#
#
# Mechanical properties :
#
#
# Convention : Reuss Voigt Hill
#
# Bulk Modulus (GPa) = 45.77242 52.89669 49.33456
# Shear Modulus (GPa) = 0.51218 23.80951 12.16085
#
# Velocity S-wave (km/s) = 0.50357 3.43337 2.45373
# Velocity P-wave (km/s) = 4.79582 6.47351 5.69676
#
# Compressibility (1/GPa) = 0.02184722
#
# Stress axis : x y z
#
# Youngs Moduli (GPa) = 119.59217 116.05996 61.41963
#
# Poissons Ratio (x) = 0.22938 0.20771
# Poissons Ratio (y) = 0.23636 0.02137
# Poissons Ratio (z) = 0.40443 0.04038
#
# Static dielectric constant tensor:
#      x y z
#    x 4.050820 0.000000 0.000000 
#    y 0.000000 3.564530 0.000000 
#    z 0.000000 0.000000 3.745490 
# 
# 
# High freq. dielectric constant tensor:
#      x y z
#    x 1.813270 0.000000 0.000000 
#    y 0.000000 1.765230 0.000000 
#    z 0.000000 0.000000 1.774730 
# 
# From -- ./inp_files/38998.got.cif
#   From: 2010.03.12/outbox.cif.g09.slc.cpg/sg69_20_cif.got.tgz:38998.got - 2010.04.10 23:52:46.
