data_PCOD8284927
_publ_section_title
;
Structure prediction by ZEFSAII (Michael W. Deem and Ramdas Pophale) SiO2 
 PCOD8284927
Probable space group: F M M M
;
_chemical_formula_sum "Si O2"
_cell_formula_units_Z 176
_cell_length_a 15.858854
_cell_length_b 17.517389
_cell_length_c 32.165676
_cell_angle_alpha 90.000000
_cell_angle_beta 90.000000
_cell_angle_gamma 90.000000
_cell_volume 8935.808607
_symmetry_space_group_name_H-M "F M M M"
_symmetry_group_IT_number 69
_symmetry_cell_setting 'orthorhombic'
loop_
_space_group_symop_operation_xyz
x,y,z
-x,-y,z
x,-y,-z
-x,y,-z
-x,-y,-z
x,y,-z
-x,y,z
x,-y,z
x,1/2+y,1/2+z
-x,1/2-y,1/2+z
x,1/2-y,1/2-z
-x,1/2+y,1/2-z
-x,1/2-y,1/2-z
x,1/2+y,1/2-z
-x,1/2+y,1/2+z
x,1/2-y,1/2+z
1/2+x,y,1/2+z
1/2-x,-y,1/2+z
1/2+x,-y,1/2-z
1/2-x,y,1/2-z
1/2-x,-y,1/2-z
1/2+x,y,1/2-z
1/2-x,y,1/2+z
1/2+x,-y,1/2+z
1/2+x,1/2+y,z
1/2-x,1/2-y,z
1/2+x,1/2-y,-z
1/2-x,1/2+y,-z
1/2-x,1/2-y,-z
1/2+x,1/2+y,-z
1/2-x,1/2+y,z
1/2+x,1/2-y,z
loop_
_atom_site_type_symbol
_atom_site_label
_atom_site_fract_x
_atom_site_fract_y
_atom_site_fract_z
Si Si1 0.346016 0.168017 0.263715
Si Si2 0.596410 0.160607 0.642629
Si Si3 0.677412 0.693911 0.374233
Si Si4 0.292172 0.088291 0.421742
Si Si5 0.402984 0.409692 0.000000
Si Si6 0.595116 0.085555 0.189581
O O1 0.380750 0.250000 0.250000
O O2 0.250000 0.156815 0.250000
O O3 0.361790 0.159502 0.312226
O O4 0.399901 0.105666 0.238304
O O5 0.500000 0.135960 0.645062
O O6 0.602166 0.244248 0.618986
O O7 0.646896 0.095636 0.617806
O O8 0.750000 0.750000 0.357258
O O9 0.710144 0.644470 0.414462
O O10 0.656888 0.637234 0.337221
O O11 0.347846 0.117587 0.460608
O O12 0.262722 0.000000 0.427161
O O13 0.410949 0.500000 0.000000
O O14 0.500000 0.376236 0.000000
O O15 0.500000 0.095946 0.173441
O O16 0.626354 0.000000 0.182674
#
# Coordination Sequence:
#
# PCOD8284927 Si02
#       6
#    32  32  32  32  16  32
#     4  11  22  36  57  79 107 149 196 238 284 338
#     4  11  22  35  57  83 113 150 189 235 283 339
#     4  10  20  36  55  80 111 146 188 224 273 335
#     4  10  21  37  60  87 114 145 182 230 284 340
#     4   9  18  36  61  88 119 149 179 223 286 351
#     4  11  23  37  55  81 111 147 194 243 288 332
#
# _framework density 19.696034999999998
#
# number of rings (size 3 to 8) (size 9 to 14) (size 15 to 20)
#    0.000    1.545    1.818    4.364    2.545    2.909 
#    0.000    4.091    0.000    0.000    0.000    1.909 
#    0.000   10.182    0.000    0.000    0.000    1.091 
#
# Total GULP energy -545172.211472 kJ/mol
# GULP energy per Si atom -12390.277533 kJ/mol
# Density = 1.965121 g / cm^3
# Si number density = 19.696035 Si / 1000 Ang^3
#
#
#
# Elastic Constant Matrix: (Units=GPa)
#
#
# Indices 1 2 3 4 5 6 
#
# 1 47.5840 18.1691 15.0352 0.0000 0.0000 0.0000
# 2 18.1691 90.9242 17.8857 0.0000 0.0000 0.0000
# 3 15.0352 17.8857 100.6486 0.0000 0.0000 0.0000
# 4 0.0000 0.0000 0.0000 24.5805 0.0000 0.0000
# 5 0.0000 0.0000 0.0000 0.0000 19.1796 0.0000
# 6 0.0000 0.0000 0.0000 0.0000 0.0000 24.4008
#
#
#
# Elastic Compliance Matrix: (Units=1/GPa)
#
#
# Indices 1 2 3 4 5 6 
#
# 1 0.023474 -0.004146 -0.002770 0.000000 0.000000 0.000000
# 2 -0.004146 0.012129 -0.001536 0.000000 0.000000 0.000000
# 3 -0.002770 -0.001536 0.010622 0.000000 0.000000 0.000000
# 4 0.000000 0.000000 0.000000 0.040683 0.000000 0.000000
# 5 0.000000 0.000000 0.000000 0.000000 0.052139 0.000000
# 6 0.000000 0.000000 0.000000 0.000000 0.000000 0.040982
#
#
# Mechanical properties :
#
#
# Convention : Reuss Voigt Hill
#
# Bulk Modulus (GPa) = 34.10480 37.92628 36.01554
# Shear Modulus (GPa) = 24.18901 26.16997 25.17949
#
# Velocity S-wave (km/s) = 3.50825 3.64908 3.57936
# Velocity P-wave (km/s) = 5.81064 6.08703 5.95044
#
# Compressibility (1/GPa) = 0.02932138
#
# Stress axis : x y z
#
# Youngs Moduli (GPa) = 42.60093 82.44859 94.14171
#
# Poissons Ratio (x) = 0.34182 0.26076
# Poissons Ratio (y) = 0.17662 0.14460
# Poissons Ratio (z) = 0.11800 0.12664
#
# Static dielectric constant tensor:
#      x y z
#    x 3.793420 0.000000 0.000000 
#    y 0.000000 3.718530 0.000000 
#    z 0.000000 0.000000 3.503310 
# 
# 
# High freq. dielectric constant tensor:
#      x y z
#    x 1.767530 0.000000 0.000000 
#    y 0.000000 1.765450 0.000000 
#    z 0.000000 0.000000 1.745410 
# 
# From -- ./inp_files/41816.got.cif
#   From: 2010.03.12/outbox.cif.g09.slc.cpg/sg69_21_cif.got.tgz:41816.got - 2010.04.10 23:52:46.
