data_PCOD8284387
_publ_section_title
;
Structure prediction by ZEFSAII (Michael W. Deem and Ramdas Pophale) SiO2 
 PCOD8284387
Probable space group: F M M M
;
_chemical_formula_sum "Si O2"
_cell_formula_units_Z 160
_cell_length_a 18.249209
_cell_length_b 30.180048
_cell_length_c 13.950850
_cell_angle_alpha 90.000000
_cell_angle_beta 90.000000
_cell_angle_gamma 90.000000
_cell_volume 7683.598098
_symmetry_space_group_name_H-M "F M M M"
_symmetry_group_IT_number 69
_symmetry_cell_setting 'orthorhombic'
loop_
_space_group_symop_operation_xyz
x,y,z
-x,-y,z
x,-y,-z
-x,y,-z
-x,-y,-z
x,y,-z
-x,y,z
x,-y,z
x,1/2+y,1/2+z
-x,1/2-y,1/2+z
x,1/2-y,1/2-z
-x,1/2+y,1/2-z
-x,1/2-y,1/2-z
x,1/2+y,1/2-z
-x,1/2+y,1/2+z
x,1/2-y,1/2+z
1/2+x,y,1/2+z
1/2-x,-y,1/2+z
1/2+x,-y,1/2-z
1/2-x,y,1/2-z
1/2-x,-y,1/2-z
1/2+x,y,1/2-z
1/2-x,y,1/2+z
1/2+x,-y,1/2+z
1/2+x,1/2+y,z
1/2-x,1/2-y,z
1/2+x,1/2-y,-z
1/2-x,1/2+y,-z
1/2-x,1/2-y,-z
1/2+x,1/2+y,-z
1/2-x,1/2+y,z
1/2+x,1/2-y,z
loop_
_atom_site_type_symbol
_atom_site_label
_atom_site_fract_x
_atom_site_fract_y
_atom_site_fract_z
Si Si1 0.775525 0.680800 0.851430
Si Si2 0.500000 0.687380 0.885725
Si Si3 0.707550 0.085174 0.893550
Si Si4 0.648532 0.551619 0.202174
Si Si5 0.500000 0.413730 0.114788
Si Si6 0.140457 0.737154 0.393562
O O1 0.750000 0.662300 0.750000
O O2 0.805496 0.638021 0.906555
O O3 0.837669 0.718709 0.834111
O O4 0.707440 0.702952 0.905569
O O5 0.500000 0.636965 0.849396
O O6 0.571413 0.712647 0.845158
O O7 0.500000 0.686728 0.000000
O O8 0.651920 0.065029 0.814934
O O9 0.791059 0.077269 0.860262
O O10 0.694191 0.064373 0.000000
O O11 0.665673 0.500000 0.193527
O O12 0.569944 0.562133 0.158774
O O13 0.500000 0.418280 0.000000
O O14 0.119749 0.753651 0.500000
#
# Coordination Sequence:
#
# PCOD8284387 Si02
#       6
#    32  16  32  32  16  32
#     4  11  20  35  55  84 117 158 208 251 296 357
#     4   9  20  35  56  85 120 158 199 247 301 358
#     4  11  22  40  65  91 126 167 206 259 314 369
#     4  11  24  41  64  97 127 156 206 262 316 388
#     4  11  23  42  67  94 129 167 203 256 320 376
#     4  10  19  33  54  83 116 157 205 250 300 359
#
# _framework density 20.823577
#
# number of rings (size 3 to 8) (size 9 to 14) (size 15 to 20)
#    0.000    1.400    2.000    6.900    0.000    4.800 
#    0.000    3.500    0.000    1.200    0.000    0.000 
#    0.000    0.000    0.000    0.000    0.000    0.000 
#
# Total GULP energy -495932.933438 kJ/mol
# GULP energy per Si atom -12398.323336 kJ/mol
# Density = 2.077618 g / cm^3
# Si number density = 20.823577 Si / 1000 Ang^3
#
#
#
# Elastic Constant Matrix: (Units=GPa)
#
#
# Indices 1 2 3 4 5 6 
#
# 1 94.2651 37.9036 24.6755 0.0000 0.0000 0.0000
# 2 37.9036 130.3639 13.7605 0.0000 0.0000 0.0000
# 3 24.6755 13.7605 123.7756 0.0000 0.0000 0.0000
# 4 0.0000 0.0000 0.0000 21.4252 0.0000 0.0000
# 5 0.0000 0.0000 0.0000 0.0000 42.3914 0.0000
# 6 0.0000 0.0000 0.0000 0.0000 0.0000 28.4939
#
#
#
# Elastic Compliance Matrix: (Units=1/GPa)
#
#
# Indices 1 2 3 4 5 6 
#
# 1 0.012539 -0.003422 -0.002119 0.000000 0.000000 0.000000
# 2 -0.003422 0.008696 -0.000285 0.000000 0.000000 0.000000
# 3 -0.002119 -0.000285 0.008533 0.000000 0.000000 0.000000
# 4 0.000000 0.000000 0.000000 0.046674 0.000000 0.000000
# 5 0.000000 0.000000 0.000000 0.000000 0.023590 0.000000
# 6 0.000000 0.000000 0.000000 0.000000 0.000000 0.035095
#
#
# Mechanical properties :
#
#
# Convention : Reuss Voigt Hill
#
# Bulk Modulus (GPa) = 55.19858 55.67597 55.43727
# Shear Modulus (GPa) = 32.71868 36.59978 34.65923
#
# Velocity S-wave (km/s) = 3.96818 4.19694 4.08416
# Velocity P-wave (km/s) = 6.89641 7.09089 6.99433
#
# Compressibility (1/GPa) = 0.01811641
#
# Stress axis : x y z
#
# Youngs Moduli (GPa) = 79.75021 114.99745 117.18834
#
# Poissons Ratio (x) = 0.39353 0.24836
# Poissons Ratio (y) = 0.27291 0.03334
# Poissons Ratio (z) = 0.16902 0.03272
#
# Static dielectric constant tensor:
#      x y z
#    x 3.644590 0.000000 0.000000 
#    y 0.000000 3.779640 0.000000 
#    z 0.000000 0.000000 3.778910 
# 
# 
# High freq. dielectric constant tensor:
#      x y z
#    x 1.789260 0.000000 0.000000 
#    y 0.000000 1.822490 0.000000 
#    z 0.000000 0.000000 1.818160 
# 
# From -- ./inp_files/15698.got.cif
#   From: 2010.03.12/outbox.cif.g09.slc.cpg/sg69_8_cif.got.tgz:15698.got - 2010.04.10 23:52:46.
