data_PCOD8284242
_publ_section_title
;
Structure prediction by ZEFSAII (Michael W. Deem and Ramdas Pophale) SiO2 
 PCOD8284242
Probable space group: F M M M
;
_chemical_formula_sum "Si O2"
_cell_formula_units_Z 136
_cell_length_a 23.726381
_cell_length_b 17.658047
_cell_length_c 16.504726
_cell_angle_alpha 90.000000
_cell_angle_beta 90.000000
_cell_angle_gamma 90.000000
_cell_volume 6914.845601
_symmetry_space_group_name_H-M "F M M M"
_symmetry_group_IT_number 69
_symmetry_cell_setting 'orthorhombic'
loop_
_space_group_symop_operation_xyz
x,y,z
-x,-y,z
x,-y,-z
-x,y,-z
-x,-y,-z
x,y,-z
-x,y,z
x,-y,z
x,1/2+y,1/2+z
-x,1/2-y,1/2+z
x,1/2-y,1/2-z
-x,1/2+y,1/2-z
-x,1/2-y,1/2-z
x,1/2+y,1/2-z
-x,1/2+y,1/2+z
x,1/2-y,1/2+z
1/2+x,y,1/2+z
1/2-x,-y,1/2+z
1/2+x,-y,1/2-z
1/2-x,y,1/2-z
1/2-x,-y,1/2-z
1/2+x,y,1/2-z
1/2-x,y,1/2+z
1/2+x,-y,1/2+z
1/2+x,1/2+y,z
1/2-x,1/2-y,z
1/2+x,1/2-y,-z
1/2-x,1/2+y,-z
1/2-x,1/2-y,-z
1/2+x,1/2+y,-z
1/2-x,1/2+y,z
1/2+x,1/2-y,z
loop_
_atom_site_type_symbol
_atom_site_label
_atom_site_fract_x
_atom_site_fract_y
_atom_site_fract_z
Si Si1 0.889874 0.910575 0.324593
Si Si2 0.500000 0.347718 0.408693
Si Si3 0.097058 0.915995 0.000000
Si Si4 0.275901 0.089898 0.089696
Si Si5 0.835233 0.086313 0.836417
Si Si6 0.000000 0.203396 0.000000
O O1 0.838060 0.887872 0.381952
O O2 0.873013 0.877460 0.235487
O O3 0.945355 0.870205 0.357598
O O4 0.902193 0.000000 0.323973
O O5 0.500000 0.385318 0.500000
O O6 0.500000 0.256477 0.419798
O O7 0.134644 0.906059 0.921546
O O8 0.053248 0.849566 0.000000
O O9 0.068928 0.000000 0.000000
O O10 0.227494 0.122220 0.150874
O O11 0.268570 0.000000 0.086367
O O12 0.267340 0.124242 0.000000
O O13 0.827292 0.000000 0.808359
#
# Coordination Sequence:
#
# PCOD8284242 Si02
#       6
#    32  16  16  32  32   8
#     4  10  19  31  53  84 117 156 192 226 264 316
#     4  10  23  40  53  71 113 149 194 230 265 322
#     4  10  19  38  63  83 104 136 177 231 291 349
#     4   9  15  26  48  83 121 150 179 225 284 329
#     4   9  17  30  53  86 117 138 177 235 286 327
#     4  10  25  42  57  76 104 142 188 232 285 334
#
# _framework density 19.667829000000001
#
# number of rings (size 3 to 8) (size 9 to 14) (size 15 to 20)
#    0.353    2.118    1.176    1.941    0.000    5.647 
#    0.000    5.882    0.000    2.824    0.000    3.294 
#    0.000    0.000    0.000    0.000    0.000    0.941 
#
# Total GULP energy -421247.634947 kJ/mol
# GULP energy per Si atom -12389.636322 kJ/mol
# Density = 1.962306 g / cm^3
# Si number density = 19.667829 Si / 1000 Ang^3
#
#
#
# Elastic Constant Matrix: (Units=GPa)
#
#
# Indices 1 2 3 4 5 6 
#
# 1 180.1134 51.6071 79.3421 0.0000 0.0000 0.0000
# 2 51.6071 54.9926 22.7322 0.0000 0.0000 0.0000
# 3 79.3421 22.7322 151.2241 0.0000 0.0000 0.0000
# 4 0.0000 0.0000 0.0000 60.0399 0.0000 0.0000
# 5 0.0000 0.0000 0.0000 0.0000 31.1504 0.0000
# 6 0.0000 0.0000 0.0000 0.0000 0.0000 97.1084
#
#
#
# Elastic Compliance Matrix: (Units=1/GPa)
#
#
# Indices 1 2 3 4 5 6 
#
# 1 0.009263 -0.007127 -0.003789 0.000000 0.000000 0.000000
# 2 -0.007127 0.024872 0.000000 0.000000 0.000000 0.000000
# 3 -0.003789 0.000000 0.008600 0.000000 0.000000 0.000000
# 4 0.000000 0.000000 0.000000 0.016656 0.000000 0.000000
# 5 0.000000 0.000000 0.000000 0.000000 0.032102 0.000000
# 6 0.000000 0.000000 0.000000 0.000000 0.000000 0.010298
#
#
# Mechanical properties :
#
#
# Convention : Reuss Voigt Hill
#
# Bulk Modulus (GPa) = 47.83441 77.07700 62.45570
# Shear Modulus (GPa) = 38.28789 53.16965 45.72877
#
# Velocity S-wave (km/s) = 4.41696 5.20505 4.82711
# Velocity P-wave (km/s) = 7.09836 8.68319 7.93046
#
# Compressibility (1/GPa) = 0.02090545
#
# Stress axis : x y z
#
# Youngs Moduli (GPa) = 107.95672 40.20579 116.27295
#
# Poissons Ratio (x) = 0.28653 0.44052
# Poissons Ratio (y) = 0.76936 -0.00003
# Poissons Ratio (z) = 0.40901 -0.00001
#
# Static dielectric constant tensor:
#      x y z
#    x 3.810740 0.000000 0.000000 
#    y 0.000000 3.038970 0.000000 
#    z 0.000000 0.000000 3.906990 
# 
# 
# High freq. dielectric constant tensor:
#      x y z
#    x 1.780290 0.000000 0.000000 
#    y 0.000000 1.695960 0.000000 
#    z 0.000000 0.000000 1.782450 
# 
# From -- ./inp_files/17581.got.cif
#   From: 2010.03.12/outbox.cif.g09.slc.cpg/sg69_9_cif.got.tgz:17581.got - 2010.04.10 23:52:46.
