data_PCOD8284320
_publ_section_title
;
Structure prediction by ZEFSAII (Michael W. Deem and Ramdas Pophale) SiO2 
 PCOD8284320
Probable space group: F M M M
;
_chemical_formula_sum "Si O2"
_cell_formula_units_Z 160
_cell_length_a 18.643821
_cell_length_b 17.590292
_cell_length_c 25.930248
_cell_angle_alpha 90.000000
_cell_angle_beta 90.000000
_cell_angle_gamma 90.000000
_cell_volume 8503.831454
_symmetry_space_group_name_H-M "F M M M"
_symmetry_group_IT_number 69
_symmetry_cell_setting 'orthorhombic'
loop_
_space_group_symop_operation_xyz
x,y,z
-x,-y,z
x,-y,-z
-x,y,-z
-x,-y,-z
x,y,-z
-x,y,z
x,-y,z
x,1/2+y,1/2+z
-x,1/2-y,1/2+z
x,1/2-y,1/2-z
-x,1/2+y,1/2-z
-x,1/2-y,1/2-z
x,1/2+y,1/2-z
-x,1/2+y,1/2+z
x,1/2-y,1/2+z
1/2+x,y,1/2+z
1/2-x,-y,1/2+z
1/2+x,-y,1/2-z
1/2-x,y,1/2-z
1/2-x,-y,1/2-z
1/2+x,y,1/2-z
1/2-x,y,1/2+z
1/2+x,-y,1/2+z
1/2+x,1/2+y,z
1/2-x,1/2-y,z
1/2+x,1/2-y,-z
1/2-x,1/2+y,-z
1/2-x,1/2-y,-z
1/2+x,1/2+y,-z
1/2-x,1/2+y,z
1/2+x,1/2-y,z
loop_
_atom_site_type_symbol
_atom_site_label
_atom_site_fract_x
_atom_site_fract_y
_atom_site_fract_z
Si Si1 0.919810 0.590485 0.816086
Si Si2 0.414728 0.336779 0.000000
Si Si3 0.415726 0.584923 0.795811
Si Si4 0.147536 0.086714 0.101792
Si Si5 0.321792 0.301784 0.500000
Si Si6 0.685722 0.413040 0.594362
O O1 0.921422 0.500000 0.811065
O O2 0.896603 0.623637 0.759531
O O3 0.862604 0.617049 0.858322
O O4 0.000000 0.619451 0.831004
O O5 0.379390 0.372554 0.949411
O O6 0.500000 0.347501 0.000000
O O7 0.393357 0.248706 0.000000
O O8 0.500000 0.582478 0.801769
O O9 0.382900 0.500000 0.796531
O O10 0.384231 0.627126 0.846520
O O11 0.231971 0.091853 0.109487
O O12 0.120995 0.000000 0.096682
O O13 0.250000 0.250000 0.500000
O O14 0.327660 0.356186 0.451616
O O15 0.665033 0.500000 0.579266
#
# Coordination Sequence:
#
# PCOD8284320 Si02
#       6
#    32  16  32  32  16  32
#     4   8  15  29  50  79 112 142 177 225 274 317
#     4  12  25  38  55  80 107 147 191 225 269 328
#     4   8  14  26  46  75 113 148 175 217 274 319
#     4  10  19  32  53  83 115 147 183 224 270 324
#     4  12  23  41  57  73 109 148 176 223 275 321
#     4  10  20  35  59  84 107 141 182 223 273 328
#
# _framework density 18.815048999999998
#
# number of rings (size 3 to 8) (size 9 to 14) (size 15 to 20)
#    0.000    2.400    2.000    2.400    0.000    4.800 
#    0.000    4.000    0.000    4.200    0.000    4.200 
#    0.000    0.000    0.000    0.000    0.000    0.000 
#
# Total GULP energy -495652.148034 kJ/mol
# GULP energy per Si atom -12391.303701 kJ/mol
# Density = 1.877223 g / cm^3
# Si number density = 18.815049 Si / 1000 Ang^3
#
#
#
# Elastic Constant Matrix: (Units=GPa)
#
#
# Indices 1 2 3 4 5 6 
#
# 1 90.0722 28.2385 81.7430 0.0000 0.0000 0.0000
# 2 28.2385 54.5069 55.5635 0.0000 0.0000 0.0000
# 3 81.7430 55.5635 208.3731 0.0000 0.0000 0.0000
# 4 0.0000 0.0000 0.0000 -31.9633 0.0000 0.0000
# 5 0.0000 0.0000 0.0000 0.0000 31.1723 0.0000
# 6 0.0000 0.0000 0.0000 0.0000 0.0000 19.9776
#
#
#
# Elastic Compliance Matrix: (Units=1/GPa)
#
#
# Indices 1 2 3 4 5 6 
#
# 1 0.017556 -0.002849 -0.006127 0.000000 0.000000 0.000000
# 2 -0.002849 0.025657 -0.005724 0.000000 0.000000 0.000000
# 3 -0.006127 -0.005724 0.008729 0.000000 0.000000 0.000000
# 4 0.000000 0.000000 0.000000 -0.031286 0.000000 0.000000
# 5 0.000000 0.000000 0.000000 0.000000 0.032080 0.000000
# 6 0.000000 0.000000 0.000000 0.000000 0.000000 0.050056
#
#
# Mechanical properties :
#
#
# Convention : Reuss Voigt Hill
#
# Bulk Modulus (GPa) = 44.36243 76.00469 60.18356
# Shear Modulus (GPa) = 35.78910 16.33115 26.06012
#
# Velocity S-wave (km/s) = 4.36610 2.94935 3.72569
# Velocity P-wave (km/s) = 7.00332 7.21676 7.11084
#
# Compressibility (1/GPa) = 0.02254159
#
# Stress axis : x y z
#
# Youngs Moduli (GPa) = 56.95978 38.97534 114.55919
#
# Poissons Ratio (x) = 0.11105 0.70195
# Poissons Ratio (y) = 0.16229 0.65572
# Poissons Ratio (z) = 0.34902 0.22309
#
# Static dielectric constant tensor:
#      x y z
#    x 3.510300 0.000000 0.000000 
#    y 0.000000 3.235910 0.000000 
#    z 0.000000 0.000000 3.932230 
# 
# 
# High freq. dielectric constant tensor:
#      x y z
#    x 1.728710 0.000000 0.000000 
#    y 0.000000 1.682730 0.000000 
#    z 0.000000 0.000000 1.753170 
# 
# From -- ./inp_files/24926.got.cif
#   From: 2010.03.12/outbox.cif.g09.slc.cpg/sg69_13_cif.got.tgz:24926.got - 2010.04.10 23:52:46.
