data_PCOD8284186
_publ_section_title
;
Structure prediction by ZEFSAII (Michael W. Deem and Ramdas Pophale) SiO2 
 PCOD8284186
Probable space group: F M M M
;
_chemical_formula_sum "Si O2"
_cell_formula_units_Z 176
_cell_length_a 26.690702
_cell_length_b 13.562695
_cell_length_c 28.252324
_cell_angle_alpha 90.000000
_cell_angle_beta 90.000000
_cell_angle_gamma 90.000000
_cell_volume 10227.280561
_symmetry_space_group_name_H-M "F M M M"
_symmetry_group_IT_number 69
_symmetry_cell_setting 'orthorhombic'
loop_
_space_group_symop_operation_xyz
x,y,z
-x,-y,z
x,-y,-z
-x,y,-z
-x,-y,-z
x,y,-z
-x,y,z
x,-y,z
x,1/2+y,1/2+z
-x,1/2-y,1/2+z
x,1/2-y,1/2-z
-x,1/2+y,1/2-z
-x,1/2-y,1/2-z
x,1/2+y,1/2-z
-x,1/2+y,1/2+z
x,1/2-y,1/2+z
1/2+x,y,1/2+z
1/2-x,-y,1/2+z
1/2+x,-y,1/2-z
1/2-x,y,1/2-z
1/2-x,-y,1/2-z
1/2+x,y,1/2-z
1/2-x,y,1/2+z
1/2+x,-y,1/2+z
1/2+x,1/2+y,z
1/2-x,1/2-y,z
1/2+x,1/2-y,-z
1/2-x,1/2+y,-z
1/2-x,1/2-y,-z
1/2+x,1/2+y,-z
1/2-x,1/2+y,z
1/2+x,1/2-y,z
loop_
_atom_site_type_symbol
_atom_site_label
_atom_site_fract_x
_atom_site_fract_y
_atom_site_fract_z
Si Si1 0.559108 0.226445 0.093447
Si Si2 0.882472 0.886538 0.856688
Si Si3 0.891296 0.115713 0.325135
Si Si4 0.307547 0.254645 0.193255
Si Si5 0.059066 0.611149 0.000000
Si Si6 0.554461 0.885449 0.265848
O O1 0.500000 0.255473 0.092575
O O2 0.595920 0.321822 0.099585
O O3 0.569617 0.147887 0.134816
O O4 0.576468 0.173152 0.045454
O O5 0.830546 0.852376 0.831916
O O6 0.924578 0.868460 0.817601
O O7 0.876911 0.000000 0.872648
O O8 0.836295 0.162809 0.330929
O O9 0.911810 0.161216 0.275615
O O10 0.884404 0.000000 0.325686
O O11 0.312825 0.250000 0.250000
O O12 0.250000 0.250000 0.178040
O O13 0.082600 0.500000 0.000000
O O14 0.000000 0.599710 0.000000
O O15 0.500000 0.836015 0.264441
O O16 0.551041 0.000000 0.253680
#
# Coordination Sequence:
#
# PCOD8284186 Si02
#       6
#    32  32  32  32  16  32
#     4  10  20  32  51  76 103 135 170 207 249 298
#     4  10  20  34  49  71 102 138 174 206 246 298
#     4  10  19  31  47  72  99 129 170 210 250 299
#     4  10  20  33  48  69  97 132 174 216 256 300
#     4   9  18  34  53  75 104 135 167 206 254 299
#     4   9  16  26  42  65  96 132 165 195 232 281
#
# _framework density 17.208874999999999
#
# number of rings (size 3 to 8) (size 9 to 14) (size 15 to 20)
#    0.000    2.273    1.818    1.636    0.000    3.636 
#    0.000    5.000    0.000    1.636    0.000   10.182 
#    0.000   11.636    0.000    0.000    0.000    0.000 
#
# Total GULP energy -545299.128599 kJ/mol
# GULP energy per Si atom -12393.162014 kJ/mol
# Density = 1.716971 g / cm^3
# Si number density = 17.208875 Si / 1000 Ang^3
#
#
#
# Elastic Constant Matrix: (Units=GPa)
#
#
# Indices 1 2 3 4 5 6 
#
# 1 109.2331 37.0441 22.1069 0.0000 0.0000 0.0000
# 2 37.0441 110.8014 43.7087 0.0000 0.0000 0.0000
# 3 22.1069 43.7087 80.8051 0.0000 0.0000 0.0000
# 4 0.0000 0.0000 0.0000 22.7300 0.0000 0.0000
# 5 0.0000 0.0000 0.0000 0.0000 12.5680 0.0000
# 6 0.0000 0.0000 0.0000 0.0000 0.0000 19.0709
#
#
#
# Elastic Compliance Matrix: (Units=1/GPa)
#
#
# Indices 1 2 3 4 5 6 
#
# 1 0.010421 -0.002999 -0.001229 0.000000 0.000000 0.000000
# 2 -0.002999 0.012337 -0.005852 0.000000 0.000000 0.000000
# 3 -0.001229 -0.005852 0.015877 0.000000 0.000000 0.000000
# 4 0.000000 0.000000 0.000000 0.043995 0.000000 0.000000
# 5 0.000000 0.000000 0.000000 0.000000 0.079567 0.000000
# 6 0.000000 0.000000 0.000000 0.000000 0.000000 0.052436
#
#
# Mechanical properties :
#
#
# Convention : Reuss Voigt Hill
#
# Bulk Modulus (GPa) = 54.13074 56.28432 55.20753
# Shear Modulus (GPa) = 20.75113 24.07244 22.41179
#
# Velocity S-wave (km/s) = 3.47629 3.74416 3.61271
# Velocity P-wave (km/s) = 6.90190 7.17421 7.03937
#
# Compressibility (1/GPa) = 0.01847379
#
# Stress axis : x y z
#
# Youngs Moduli (GPa) = 95.96468 81.05988 62.98320
#
# Poissons Ratio (x) = 0.24312 0.07738
# Poissons Ratio (y) = 0.28782 0.36861
# Poissons Ratio (z) = 0.11790 0.47440
#
# Static dielectric constant tensor:
#      x y z
#    x 3.122370 0.000000 0.000000 
#    y 0.000000 3.396050 0.000000 
#    z 0.000000 0.000000 3.087830 
# 
# 
# High freq. dielectric constant tensor:
#      x y z
#    x 1.646980 0.000000 0.000000 
#    y 0.000000 1.677330 0.000000 
#    z 0.000000 0.000000 1.636250 
# 
# From -- ./inp_files/19014.got.cif
#   From: 2010.03.12/outbox.cif.g09.slc.cpg/sg69_10_cif.got.tgz:19014.got - 2010.04.10 23:52:46.
