data_PCOD8284465
_publ_section_title
;
Structure prediction by ZEFSAII (Michael W. Deem and Ramdas Pophale) SiO2 
 PCOD8284465
Probable space group: F M M M
;
_chemical_formula_sum "Si O2"
_cell_formula_units_Z 192
_cell_length_a 19.589588
_cell_length_b 30.695878
_cell_length_c 17.789094
_cell_angle_alpha 90.000000
_cell_angle_beta 90.000000
_cell_angle_gamma 90.000000
_cell_volume 10696.930947
_symmetry_space_group_name_H-M "F M M M"
_symmetry_group_IT_number 69
_symmetry_cell_setting 'orthorhombic'
loop_
_space_group_symop_operation_xyz
x,y,z
-x,-y,z
x,-y,-z
-x,y,-z
-x,-y,-z
x,y,-z
-x,y,z
x,-y,z
x,1/2+y,1/2+z
-x,1/2-y,1/2+z
x,1/2-y,1/2-z
-x,1/2+y,1/2-z
-x,1/2-y,1/2-z
x,1/2+y,1/2-z
-x,1/2+y,1/2+z
x,1/2-y,1/2+z
1/2+x,y,1/2+z
1/2-x,-y,1/2+z
1/2+x,-y,1/2-z
1/2-x,y,1/2-z
1/2-x,-y,1/2-z
1/2+x,y,1/2-z
1/2-x,y,1/2+z
1/2+x,-y,1/2+z
1/2+x,1/2+y,z
1/2-x,1/2-y,z
1/2+x,1/2-y,-z
1/2-x,1/2+y,-z
1/2-x,1/2-y,-z
1/2+x,1/2+y,-z
1/2-x,1/2+y,z
1/2+x,1/2-y,z
loop_
_atom_site_type_symbol
_atom_site_label
_atom_site_fract_x
_atom_site_fract_y
_atom_site_fract_z
Si Si1 0.114917 0.000000 0.589329
Si Si2 0.321283 0.406866 0.911677
Si Si3 0.579535 0.130890 0.704616
Si Si4 0.310051 0.150457 0.915839
Si Si5 0.075371 0.908274 0.361868
Si Si6 0.268710 0.000000 0.410999
Si Si7 0.675496 0.199858 0.770586
O O1 0.075159 0.040924 0.621863
O O2 0.112072 0.000000 0.500000
O O3 0.192027 0.000000 0.620607
O O4 0.388767 0.390487 0.869690
O O5 0.258517 0.374931 0.891662
O O6 0.306082 0.456063 0.883179
O O7 0.336564 0.406241 0.000000
O O8 0.500000 0.140048 0.689580
O O9 0.593010 0.098707 0.774262
O O10 0.616620 0.176347 0.723348
O O11 0.370842 0.115399 0.915641
O O12 0.329815 0.190181 0.860128
O O13 0.302886 0.169629 0.000000
O O14 0.000000 0.889290 0.379033
O O15 0.265146 0.000000 0.500000
O O16 0.667929 0.250000 0.750000
O O17 0.750000 0.181767 0.750000
#
# Coordination Sequence:
#
# PCOD8284465 Si02
#       7
#    16  32  32  32  32  16  32
#     4  11  19  31  49  76 114 147 183 228 275 327
#     4  10  19  35  57  81 108 144 190 235 273 316
#     4  10  22  39  57  79 109 147 187 228 277 331
#     4  10  19  34  57  82 111 144 184 226 270 326
#     4  10  21  33  49  77 114 151 184 223 276 334
#     4   9  18  32  51  78 108 142 186 231 272 314
#     4  10  20  37  60  85 113 142 177 220 276 342
#
# _framework density 17.949072999999999
#
# number of rings (size 3 to 8) (size 9 to 14) (size 15 to 20)
#    0.000    2.000    3.333    0.750    0.000    3.000 
#    0.000    4.583    0.000    1.500    0.000    0.000 
#    0.000    0.000    0.000    0.000    0.000    0.000 
#
# Total GULP energy -595142.685344 kJ/mol
# GULP energy per Si atom -12398.805945 kJ/mol
# Density = 1.790822 g / cm^3
# Si number density = 17.949073 Si / 1000 Ang^3
#
#
#
# Elastic Constant Matrix: (Units=GPa)
#
#
# Indices 1 2 3 4 5 6 
#
# 1 124.7659 39.1328 40.6264 0.0000 0.0000 0.0000
# 2 39.1328 106.0670 52.4176 0.0000 0.0000 0.0000
# 3 40.6264 52.4176 75.8445 0.0000 0.0000 0.0000
# 4 0.0000 0.0000 0.0000 20.8708 0.0000 0.0000
# 5 0.0000 0.0000 0.0000 0.0000 25.6665 0.0000
# 6 0.0000 0.0000 0.0000 0.0000 0.0000 26.3014
#
#
#
# Elastic Compliance Matrix: (Units=1/GPa)
#
#
# Indices 1 2 3 4 5 6 
#
# 1 0.009876 -0.001563 -0.004210 0.000000 0.000000 0.000000
# 2 -0.001563 0.014566 -0.009229 0.000000 0.000000 0.000000
# 3 -0.004210 -0.009229 0.021818 0.000000 0.000000 0.000000
# 4 0.000000 0.000000 0.000000 0.047914 0.000000 0.000000
# 5 0.000000 0.000000 0.000000 0.000000 0.038961 0.000000
# 6 0.000000 0.000000 0.000000 0.000000 0.000000 0.038021
#
#
# Mechanical properties :
#
#
# Convention : Reuss Voigt Hill
#
# Bulk Modulus (GPa) = 61.51731 63.44787 62.48259
# Shear Modulus (GPa) = 24.20373 26.20110 25.20242
#
# Velocity S-wave (km/s) = 3.67613 3.82481 3.75121
# Velocity P-wave (km/s) = 7.23645 7.41155 7.32453
#
# Compressibility (1/GPa) = 0.01625559
#
# Stress axis : x y z
#
# Youngs Moduli (GPa) = 101.25424 68.65369 45.83281
#
# Poissons Ratio (x) = 0.10733 0.19294
# Poissons Ratio (y) = 0.15829 0.42301
# Poissons Ratio (z) = 0.42626 0.63363
#
# Static dielectric constant tensor:
#      x y z
#    x 3.386590 0.000000 0.000000 
#    y 0.000000 3.186080 0.000000 
#    z 0.000000 0.000000 3.204050 
# 
# 
# High freq. dielectric constant tensor:
#      x y z
#    x 1.698360 0.000000 0.000000 
#    y 0.000000 1.681420 0.000000 
#    z 0.000000 0.000000 1.689630 
# 
# From -- ./inp_files/23715.got.cif
#   From: 2010.03.12/outbox.cif.g09.slc.cpg/sg69_12_cif.got.tgz:23715.got - 2010.04.10 23:52:46.
