data_PCOD8284347
_publ_section_title
;
Structure prediction by ZEFSAII (Michael W. Deem and Ramdas Pophale) SiO2 
 PCOD8284347
Probable space group: F M M M
;
_chemical_formula_sum "Si O2"
_cell_formula_units_Z 112
_cell_length_a 8.591854
_cell_length_b 28.746498
_cell_length_c 24.479155
_cell_angle_alpha 90.000000
_cell_angle_beta 90.000000
_cell_angle_gamma 90.000000
_cell_volume 6046.001572
_symmetry_space_group_name_H-M "F M M M"
_symmetry_group_IT_number 69
_symmetry_cell_setting 'orthorhombic'
loop_
_space_group_symop_operation_xyz
x,y,z
-x,-y,z
x,-y,-z
-x,y,-z
-x,-y,-z
x,y,-z
-x,y,z
x,-y,z
x,1/2+y,1/2+z
-x,1/2-y,1/2+z
x,1/2-y,1/2-z
-x,1/2+y,1/2-z
-x,1/2-y,1/2-z
x,1/2+y,1/2-z
-x,1/2+y,1/2+z
x,1/2-y,1/2+z
1/2+x,y,1/2+z
1/2-x,-y,1/2+z
1/2+x,-y,1/2-z
1/2-x,y,1/2-z
1/2-x,-y,1/2-z
1/2+x,y,1/2-z
1/2-x,y,1/2+z
1/2+x,-y,1/2+z
1/2+x,1/2+y,z
1/2-x,1/2-y,z
1/2+x,1/2-y,-z
1/2-x,1/2+y,-z
1/2-x,1/2-y,-z
1/2+x,1/2+y,-z
1/2-x,1/2+y,z
1/2+x,1/2-y,z
loop_
_atom_site_type_symbol
_atom_site_label
_atom_site_fract_x
_atom_site_fract_y
_atom_site_fract_z
Si Si1 0.315242 0.198604 0.500000
Si Si2 0.816110 0.399349 0.310650
Si Si3 0.814923 0.445863 0.500000
Si Si4 0.819854 0.500000 0.308329
Si Si5 0.316130 0.373055 0.581448
O O1 0.500000 0.198921 0.500000
O O2 0.250000 0.250000 0.500000
O O3 0.253457 0.172473 0.553389
O O4 0.750000 0.390504 0.250000
O O5 0.772433 0.450986 0.335322
O O6 0.732902 0.366960 0.355078
O O7 0.000000 0.390329 0.309244
O O8 0.761356 0.500000 0.500000
O O9 0.751673 0.420011 0.446024
O O10 0.000000 0.442537 0.500000
O O11 0.750000 0.500000 0.250000
O O12 0.000000 0.500000 0.298890
O O13 0.500000 0.373631 0.574984
#
# Coordination Sequence:
#
# PCOD8284347 Si02
#       5
#    16  32  16  16  32
#     4  11  22  41  66  89 111 139 176 228 283 337
#     4  10  19  33  51  76 109 150 192 234 277 325
#     4  10  21  36  53  74 106 148 189 232 281 329
#     4   8  16  28  44  65  96 139 188 228 264 308
#     4  11  22  36  55  83 113 145 186 229 276 334
#
# _framework density 18.524639000000001
#
# number of rings (size 3 to 8) (size 9 to 14) (size 15 to 20)
#    0.000    1.857    0.000    6.857    2.000    2.286 
#    0.000    0.000    0.000    0.857    0.000    6.000 
#    0.000    0.000    0.000    0.000    0.000    0.000 
#
# Total GULP energy -346913.071321 kJ/mol
# GULP energy per Si atom -12389.752547 kJ/mol
# Density = 1.848248 g / cm^3
# Si number density = 18.524639 Si / 1000 Ang^3
#
#
#
# Elastic Constant Matrix: (Units=GPa)
#
#
# Indices 1 2 3 4 5 6 
#
# 1 125.2033 55.5147 57.8358 0.0000 0.0000 0.0000
# 2 55.5147 124.8326 59.3053 0.0000 0.0000 0.0000
# 3 57.8358 59.3053 143.0349 0.0000 0.0000 0.0000
# 4 0.0000 0.0000 0.0000 12.7257 0.0000 0.0000
# 5 0.0000 0.0000 0.0000 0.0000 32.7685 0.0000
# 6 0.0000 0.0000 0.0000 0.0000 0.0000 26.6213
#
#
#
# Elastic Compliance Matrix: (Units=1/GPa)
#
#
# Indices 1 2 3 4 5 6 
#
# 1 0.010882 -0.003423 -0.002981 0.000000 0.000000 0.000000
# 2 -0.003423 0.011053 -0.003198 0.000000 0.000000 0.000000
# 3 -0.002981 -0.003198 0.009523 0.000000 0.000000 0.000000
# 4 0.000000 0.000000 0.000000 0.078581 0.000000 0.000000
# 5 0.000000 0.000000 0.000000 0.000000 0.030517 0.000000
# 6 0.000000 0.000000 0.000000 0.000000 0.000000 0.037564
#
#
# Mechanical properties :
#
#
# Convention : Reuss Voigt Hill
#
# Bulk Modulus (GPa) = 81.61721 82.04248 81.82984
# Shear Modulus (GPa) = 24.82524 29.11743 26.97133
#
# Velocity S-wave (km/s) = 3.66474 3.96892 3.81986
# Velocity P-wave (km/s) = 7.87791 8.08626 7.98276
#
# Compressibility (1/GPa) = 0.01225232
#
# Stress axis : x y z
#
# Youngs Moduli (GPa) = 91.89730 90.47650 105.01237
#
# Poissons Ratio (x) = 0.30972 0.31301
# Poissons Ratio (y) = 0.31458 0.33588
# Poissons Ratio (z) = 0.27392 0.28939
#
# Static dielectric constant tensor:
#      x y z
#    x 3.493240 0.000000 0.000000 
#    y 0.000000 3.402360 0.000000 
#    z 0.000000 0.000000 3.417470 
# 
# 
# High freq. dielectric constant tensor:
#      x y z
#    x 1.736480 0.000000 0.000000 
#    y 0.000000 1.691270 0.000000 
#    z 0.000000 0.000000 1.720980 
# 
# From -- ./inp_files/34497.got.cif
#   From: 2010.03.12/outbox.cif.g09.slc.cpg/sg69_18_cif.got.tgz:34497.got - 2010.04.10 23:52:46.
