data_PCOD8284205
_publ_section_title
;
Structure prediction by ZEFSAII (Michael W. Deem and Ramdas Pophale) SiO2 
 PCOD8284205
Probable space group: F M M M
;
_chemical_formula_sum "Si O2"
_cell_formula_units_Z 176
_cell_length_a 22.829888
_cell_length_b 27.623335
_cell_length_c 15.036410
_cell_angle_alpha 90.000000
_cell_angle_beta 90.000000
_cell_angle_gamma 90.000000
_cell_volume 9482.526180
_symmetry_space_group_name_H-M "F M M M"
_symmetry_group_IT_number 69
_symmetry_cell_setting 'orthorhombic'
loop_
_space_group_symop_operation_xyz
x,y,z
-x,-y,z
x,-y,-z
-x,y,-z
-x,-y,-z
x,y,-z
-x,y,z
x,-y,z
x,1/2+y,1/2+z
-x,1/2-y,1/2+z
x,1/2-y,1/2-z
-x,1/2+y,1/2-z
-x,1/2-y,1/2-z
x,1/2+y,1/2-z
-x,1/2+y,1/2+z
x,1/2-y,1/2+z
1/2+x,y,1/2+z
1/2-x,-y,1/2+z
1/2+x,-y,1/2-z
1/2-x,y,1/2-z
1/2-x,-y,1/2-z
1/2+x,y,1/2-z
1/2-x,y,1/2+z
1/2+x,-y,1/2+z
1/2+x,1/2+y,z
1/2-x,1/2-y,z
1/2+x,1/2-y,-z
1/2-x,1/2+y,-z
1/2-x,1/2-y,-z
1/2+x,1/2+y,-z
1/2-x,1/2+y,z
1/2+x,1/2-y,z
loop_
_atom_site_type_symbol
_atom_site_label
_atom_site_fract_x
_atom_site_fract_y
_atom_site_fract_z
Si Si1 0.432544 0.359553 0.398337
Si Si2 0.250000 0.320420 0.750000
Si Si3 0.566576 0.096991 0.598710
Si Si4 0.830916 0.668089 0.402478
Si Si5 0.857854 0.730114 0.161877
Si Si6 0.068620 0.947383 0.719452
O O1 0.427090 0.376378 0.500000
O O2 0.500000 0.349086 0.372631
O O3 0.396157 0.310548 0.385636
O O4 0.405007 0.402861 0.338029
O O5 0.213419 0.350496 0.675295
O O6 0.204996 0.289161 0.806971
O O7 0.576407 0.073946 0.500000
O O8 0.500000 0.115319 0.609299
O O9 0.606646 0.143504 0.613549
O O10 0.581509 0.058282 0.675259
O O11 0.805282 0.654296 0.500000
O O12 0.843427 0.725497 0.403129
O O13 0.891576 0.750000 0.250000
O O14 0.000000 0.947964 0.700007
O O15 0.095074 0.000000 0.691291
#
# Coordination Sequence:
#
# PCOD8284205 Si02
#       6
#    32  16  32  32  32  32
#     4  10  21  34  48  72 104 134 166 200 236 287
#     4  10  21  34  46  68  97 126 169 210 236 274
#     4   9  18  32  50  75 104 128 156 198 246 298
#     4  10  19  31  49  71  98 132 163 195 239 286
#     4  10  19  32  50  70  97 130 164 203 245 285
#     4   9  17  30  49  71  97 131 164 196 241 291
#
# _framework density 18.560455999999999
#
# number of rings (size 3 to 8) (size 9 to 14) (size 15 to 20)
#    0.000    2.364    0.000    5.182    0.000    4.000 
#    0.000    5.455    0.000    0.000    0.000   10.182 
#    0.000   11.636    0.000    0.000    0.000    0.000 
#
# Total GULP energy -545113.951915 kJ/mol
# GULP energy per Si atom -12388.953453 kJ/mol
# Density = 1.851821 g / cm^3
# Si number density = 18.560456 Si / 1000 Ang^3
#
#
#
# Elastic Constant Matrix: (Units=GPa)
#
#
# Indices 1 2 3 4 5 6 
#
# 1 61.6405 30.0903 36.6826 0.0000 0.0000 0.0000
# 2 30.0903 59.2775 32.7646 0.0000 0.0000 0.0000
# 3 36.6826 32.7646 111.7920 0.0000 0.0000 0.0000
# 4 0.0000 0.0000 0.0000 20.5273 0.0000 0.0000
# 5 0.0000 0.0000 0.0000 0.0000 27.5774 0.0000
# 6 0.0000 0.0000 0.0000 0.0000 0.0000 4.4634
#
#
#
# Elastic Compliance Matrix: (Units=1/GPa)
#
#
# Indices 1 2 3 4 5 6 
#
# 1 0.023767 -0.009253 -0.005087 0.000000 0.000000 0.000000
# 2 -0.009253 0.023733 -0.003920 0.000000 0.000000 0.000000
# 3 -0.005087 -0.003920 0.011763 0.000000 0.000000 0.000000
# 4 0.000000 0.000000 0.000000 0.048716 0.000000 0.000000
# 5 0.000000 0.000000 0.000000 0.000000 0.036262 0.000000
# 6 0.000000 0.000000 0.000000 0.000000 0.000000 0.224044
#
#
# Mechanical properties :
#
#
# Convention : Reuss Voigt Hill
#
# Bulk Modulus (GPa) = 43.96648 47.97613 45.97130
# Shear Modulus (GPa) = 12.12459 19.39180 15.75819
#
# Velocity S-wave (km/s) = 2.55865 3.23583 2.91696
# Velocity P-wave (km/s) = 5.69812 6.31391 6.01390
#
# Compressibility (1/GPa) = 0.02274460
#
# Stress axis : x y z
#
# Youngs Moduli (GPa) = 42.07472 42.13482 85.01121
#
# Poissons Ratio (x) = 0.38987 0.43244
# Poissons Ratio (y) = 0.38932 0.33322
# Poissons Ratio (z) = 0.21403 0.16516
#
# Static dielectric constant tensor:
#      x y z
#    x 3.237390 0.000000 0.000000 
#    y 0.000000 3.313480 0.000000 
#    z 0.000000 0.000000 3.860120 
# 
# 
# High freq. dielectric constant tensor:
#      x y z
#    x 1.689860 0.000000 0.000000 
#    y 0.000000 1.691900 0.000000 
#    z 0.000000 0.000000 1.739920 
# 
# From -- ./inp_files/18107.got.cif
#   From: 2010.03.12/outbox.cif.g09.slc.cpg/sg69_10_cif.got.tgz:18107.got - 2010.04.10 23:52:46.
