data_PCOD8284150
_publ_section_title
;
Structure prediction by ZEFSAII (Michael W. Deem and Ramdas Pophale) SiO2 
 PCOD8284150
Probable space group: F M M M
;
_chemical_formula_sum "Si O2"
_cell_formula_units_Z 160
_cell_length_a 24.040498
_cell_length_b 23.636750
_cell_length_c 17.287598
_cell_angle_alpha 90.000000
_cell_angle_beta 90.000000
_cell_angle_gamma 90.000000
_cell_volume 9823.491568
_symmetry_space_group_name_H-M "F M M M"
_symmetry_group_IT_number 69
_symmetry_cell_setting 'orthorhombic'
loop_
_space_group_symop_operation_xyz
x,y,z
-x,-y,z
x,-y,-z
-x,y,-z
-x,-y,-z
x,y,-z
-x,y,z
x,-y,z
x,1/2+y,1/2+z
-x,1/2-y,1/2+z
x,1/2-y,1/2-z
-x,1/2+y,1/2-z
-x,1/2-y,1/2-z
x,1/2+y,1/2-z
-x,1/2+y,1/2+z
x,1/2-y,1/2+z
1/2+x,y,1/2+z
1/2-x,-y,1/2+z
1/2+x,-y,1/2-z
1/2-x,y,1/2-z
1/2-x,-y,1/2-z
1/2+x,y,1/2-z
1/2-x,y,1/2+z
1/2+x,-y,1/2+z
1/2+x,1/2+y,z
1/2-x,1/2-y,z
1/2+x,1/2-y,-z
1/2-x,1/2+y,-z
1/2-x,1/2-y,-z
1/2+x,1/2+y,-z
1/2-x,1/2+y,z
1/2+x,1/2-y,z
loop_
_atom_site_type_symbol
_atom_site_label
_atom_site_fract_x
_atom_site_fract_y
_atom_site_fract_z
Si Si1 0.170748 0.232868 0.589818
Si Si2 0.562263 0.258601 0.839142
Si Si3 0.763114 0.334383 0.660133
Si Si4 0.673697 0.064254 0.590059
Si Si5 0.061469 0.121779 0.911649
O O1 0.178391 0.246111 0.500000
O O2 0.106104 0.222368 0.610424
O O3 0.191230 0.287400 0.638000
O O4 0.206339 0.177753 0.612876
O O5 0.500000 0.237361 0.859701
O O6 0.576081 0.250000 0.750000
O O7 0.568892 0.324714 0.856585
O O8 0.750000 0.330793 0.750000
O O9 0.785516 0.396283 0.639357
O O10 0.685759 0.074798 0.500000
O O11 0.608794 0.076295 0.608996
O O12 0.686321 0.000000 0.614080
O O13 0.000000 0.094430 0.899455
O O14 0.068271 0.142936 0.000000
#
# Coordination Sequence:
#
# PCOD8284150 Si02
#       5
#    32  32  32  32  32
#     4  11  20  32  51  73  99 128 164 202 244 296
#     4  10  19  30  47  73 103 131 159 193 240 291
#     4  11  21  33  50  70  97 129 166 204 247 295
#     4  10  20  34  51  71  98 130 166 207 247 292
#     4   9  17  30  49  72 100 132 162 196 239 292
#
# _framework density 16.287489000000001
#
# number of rings (size 3 to 8) (size 9 to 14) (size 15 to 20)
#    0.000    1.800    2.000    5.400    0.000    2.000 
#    0.000    2.000    0.000    0.000    0.000    0.000 
#    0.000    0.800    0.000    4.200    0.000    0.000 
#
# Total GULP energy -495974.003648 kJ/mol
# GULP energy per Si atom -12399.350091 kJ/mol
# Density = 1.625042 g / cm^3
# Si number density = 16.287489 Si / 1000 Ang^3
#
#
#
# Elastic Constant Matrix: (Units=GPa)
#
#
# Indices 1 2 3 4 5 6 
#
# 1 122.7727 48.2575 51.1754 0.0000 0.0000 0.0000
# 2 48.2575 84.4056 46.1099 0.0000 0.0000 0.0000
# 3 51.1754 46.1099 108.0476 0.0000 0.0000 0.0000
# 4 0.0000 0.0000 0.0000 12.7283 0.0000 0.0000
# 5 0.0000 0.0000 0.0000 0.0000 25.5439 0.0000
# 6 0.0000 0.0000 0.0000 0.0000 0.0000 23.8635
#
#
#
# Elastic Compliance Matrix: (Units=1/GPa)
#
#
# Indices 1 2 3 4 5 6 
#
# 1 0.011396 -0.004651 -0.003413 0.000000 0.000000 0.000000
# 2 -0.004651 0.017348 -0.005200 0.000000 0.000000 0.000000
# 3 -0.003413 -0.005200 0.013091 0.000000 0.000000 0.000000
# 4 0.000000 0.000000 0.000000 0.078565 0.000000 0.000000
# 5 0.000000 0.000000 0.000000 0.000000 0.039148 0.000000
# 6 0.000000 0.000000 0.000000 0.000000 0.000000 0.041905
#
#
# Mechanical properties :
#
#
# Convention : Reuss Voigt Hill
#
# Bulk Modulus (GPa) = 65.33274 67.36793 66.35033
# Shear Modulus (GPa) = 21.45166 23.73935 22.59550
#
# Velocity S-wave (km/s) = 3.63307 3.82189 3.72868
# Velocity P-wave (km/s) = 7.60252 7.80560 7.70473
#
# Compressibility (1/GPa) = 0.01530626
#
# Stress axis : x y z
#
# Youngs Moduli (GPa) = 87.75179 57.64497 76.38982
#
# Poissons Ratio (x) = 0.26811 0.26069
# Poissons Ratio (y) = 0.40814 0.39725
# Poissons Ratio (z) = 0.29946 0.29977
#
# Static dielectric constant tensor:
#      x y z
#    x 3.434520 0.000000 0.000000 
#    y 0.000000 2.808460 0.000000 
#    z 0.000000 0.000000 3.034180 
# 
# 
# High freq. dielectric constant tensor:
#      x y z
#    x 1.643260 0.000000 0.000000 
#    y 0.000000 1.587920 0.000000 
#    z 0.000000 0.000000 1.623820 
# 
# From -- ./inp_files/17710.got.cif
#   From: 2010.03.12/outbox.cif.g09.slc.cpg/sg69_9_cif.got.tgz:17710.got - 2010.04.10 23:52:46.
