data_PCOD8284596
_publ_section_title
;
Structure prediction by ZEFSAII (Michael W. Deem and Ramdas Pophale) SiO2 
 PCOD8284596
Probable space group: F M M M
;
_chemical_formula_sum "Si O2"
_cell_formula_units_Z 144
_cell_length_a 36.153284
_cell_length_b 8.945987
_cell_length_c 28.322099
_cell_angle_alpha 90.000000
_cell_angle_beta 90.000000
_cell_angle_gamma 90.000000
_cell_volume 9160.126094
_symmetry_space_group_name_H-M "F M M M"
_symmetry_group_IT_number 69
_symmetry_cell_setting 'orthorhombic'
loop_
_space_group_symop_operation_xyz
x,y,z
-x,-y,z
x,-y,-z
-x,y,-z
-x,-y,-z
x,y,-z
-x,y,z
x,-y,z
x,1/2+y,1/2+z
-x,1/2-y,1/2+z
x,1/2-y,1/2-z
-x,1/2+y,1/2-z
-x,1/2-y,1/2-z
x,1/2+y,1/2-z
-x,1/2+y,1/2+z
x,1/2-y,1/2+z
1/2+x,y,1/2+z
1/2-x,-y,1/2+z
1/2+x,-y,1/2-z
1/2-x,y,1/2-z
1/2-x,-y,1/2-z
1/2+x,y,1/2-z
1/2-x,y,1/2+z
1/2+x,-y,1/2+z
1/2+x,1/2+y,z
1/2-x,1/2-y,z
1/2+x,1/2-y,-z
1/2-x,1/2+y,-z
1/2-x,1/2-y,-z
1/2+x,1/2+y,-z
1/2-x,1/2+y,z
1/2+x,1/2-y,z
loop_
_atom_site_type_symbol
_atom_site_label
_atom_site_fract_x
_atom_site_fract_y
_atom_site_fract_z
Si Si1 0.500000 0.670010 0.055863
Si Si2 0.569512 0.823301 0.897428
Si Si3 0.138732 0.325102 0.555125
Si Si4 0.458008 0.825279 0.203279
Si Si5 0.286276 0.668343 0.556080
O O1 0.500000 0.500000 0.074554
O O2 0.463674 0.752740 0.073408
O O3 0.500000 0.673822 0.000000
O O4 0.607964 0.759140 0.915146
O O5 0.565905 0.780511 0.842310
O O6 0.568151 0.000000 0.905194
O O7 0.132069 0.292543 0.500000
O O8 0.137293 0.500000 0.566082
O O9 0.178027 0.261527 0.572224
O O10 0.500000 0.768595 0.194908
O O11 0.440733 0.750000 0.250000
O O12 0.457402 0.000000 0.211784
O O13 0.283830 0.663697 0.500000
O O14 0.288497 0.500000 0.576369
O O15 0.250000 0.750000 0.576876
#
# Coordination Sequence:
#
# PCOD8284596 Si02
#       5
#    16  32  32  32  32
#     4  11  23  35  46  63  88 121 160 195 226 267
#     4  11  21  34  49  67  91 119 154 193 233 277
#     4  10  20  32  45  65  94 126 160 195 229 270
#     4   9  18  33  50  69  89 111 145 189 236 284
#     4   9  16  27  44  65  89 120 156 192 231 272
#
# _framework density 15.720307999999999
#
# number of rings (size 3 to 8) (size 9 to 14) (size 15 to 20)
#    0.000    2.111    1.111    3.000    0.000    9.333 
#    0.000    0.000    0.000    0.000    0.000    0.000 
#    0.000    0.889    0.000    9.333    0.000    5.556 
#
# Total GULP energy -446437.589209 kJ/mol
# GULP energy per Si atom -12401.044145 kJ/mol
# Density = 1.568453 g / cm^3
# Si number density = 15.720308 Si / 1000 Ang^3
#
#
#
# Elastic Constant Matrix: (Units=GPa)
#
#
# Indices 1 2 3 4 5 6 
#
# 1 125.5338 56.2641 52.8917 -0.0001 -0.0003 0.0003
# 2 56.2641 101.8449 51.5969 0.0004 -0.0002 0.0008
# 3 52.8917 51.5969 75.7008 0.0000 -0.0001 0.0002
# 4 -0.0001 0.0004 0.0000 23.3920 -0.0001 0.0002
# 5 -0.0003 -0.0002 -0.0001 -0.0001 -3.1444 0.0003
# 6 0.0003 0.0008 0.0002 0.0002 0.0003 34.4243
#
#
#
# Elastic Compliance Matrix: (Units=1/GPa)
#
#
# Indices 1 2 3 4 5 6 
#
# 1 0.012128 -0.003677 -0.005968 0.000000 -0.000001 0.000000
# 2 -0.003677 0.016112 -0.008413 0.000000 0.000000 0.000000
# 3 -0.005968 -0.008413 0.023114 0.000000 0.000000 0.000000
# 4 0.000000 0.000000 0.000000 0.042750 -0.000001 0.000000
# 5 -0.000001 0.000000 0.000000 -0.000001 -0.318021 0.000003
# 6 0.000000 0.000000 0.000000 0.000000 0.000003 0.029049
#
#
# Mechanical properties :
#
#
# Convention : Reuss Voigt Hill
#
# Bulk Modulus (GPa) = 65.62098 69.39834 67.50966
# Shear Modulus (GPa) = -32.53679 20.42283 -6.05698
#
# Velocity S-wave (km/s) = -4.55436 3.60826 -1.96503
# Velocity P-wave (km/s) = 3.76525 7.84863 6.15541
#
# Compressibility (1/GPa) = 0.01523903
#
# Stress axis : x y z
#
# Youngs Moduli (GPa) = 82.45072 62.06418 43.26397
#
# Poissons Ratio (x) = 0.22820 0.25820
# Poissons Ratio (y) = 0.30316 0.36398
# Poissons Ratio (z) = 0.49206 0.52215
#
# Static dielectric constant tensor:
#      x y z
#    x 3.052180 0.000000 0.000000 
#    y 0.000000 3.211510 0.000000 
#    z 0.000000 0.000000 2.831020 
# 
# 
# High freq. dielectric constant tensor:
#      x y z
#    x 1.597950 0.000000 0.000000 
#    y 0.000000 1.623110 0.000000 
#    z 0.000000 0.000000 1.567130 
# 
# From -- ./inp_files/44534.got.cif
#   From: 2010.03.12/outbox.cif.g09.slc.cpg/sg69_23_cif.got.tgz:44534.got - 2010.04.10 23:52:46.
