data_PCOD8284445
_publ_section_title
;
Structure prediction by ZEFSAII (Michael W. Deem and Ramdas Pophale) SiO2 
 PCOD8284445
Probable space group: F M M M
;
_chemical_formula_sum "Si O2"
_cell_formula_units_Z 120
_cell_length_a 28.392122
_cell_length_b 15.701249
_cell_length_c 15.287025
_cell_angle_alpha 90.000000
_cell_angle_beta 90.000000
_cell_angle_gamma 90.000000
_cell_volume 6814.830042
_symmetry_space_group_name_H-M "F M M M"
_symmetry_group_IT_number 69
_symmetry_cell_setting 'orthorhombic'
loop_
_space_group_symop_operation_xyz
x,y,z
-x,-y,z
x,-y,-z
-x,y,-z
-x,-y,-z
x,y,-z
-x,y,z
x,-y,z
x,1/2+y,1/2+z
-x,1/2-y,1/2+z
x,1/2-y,1/2-z
-x,1/2+y,1/2-z
-x,1/2-y,1/2-z
x,1/2+y,1/2-z
-x,1/2+y,1/2+z
x,1/2-y,1/2+z
1/2+x,y,1/2+z
1/2-x,-y,1/2+z
1/2+x,-y,1/2-z
1/2-x,y,1/2-z
1/2-x,-y,1/2-z
1/2+x,y,1/2-z
1/2-x,y,1/2+z
1/2+x,-y,1/2+z
1/2+x,1/2+y,z
1/2-x,1/2-y,z
1/2+x,1/2-y,-z
1/2-x,1/2+y,-z
1/2-x,1/2-y,-z
1/2+x,1/2+y,-z
1/2-x,1/2+y,z
1/2+x,1/2-y,z
loop_
_atom_site_type_symbol
_atom_site_label
_atom_site_fract_x
_atom_site_fract_y
_atom_site_fract_z
Si Si1 0.914928 0.000000 0.000000
Si Si2 0.946947 0.500000 0.688804
Si Si3 0.606095 0.171117 0.309335
Si Si4 0.209148 0.401460 0.316233
Si Si5 0.615891 0.820694 0.500000
Si Si6 0.281012 0.168385 0.500000
O O1 0.878139 0.923119 0.000000
O O2 0.948666 0.000000 0.083695
O O3 0.920971 0.585815 0.721759
O O4 0.000000 0.500000 0.725536
O O5 0.590935 0.250000 0.250000
O O6 0.661967 0.153963 0.302229
O O7 0.590232 0.201363 0.408131
O O8 0.196906 0.500000 0.299659
O O9 0.250000 0.370230 0.250000
O O10 0.228282 0.388820 0.414462
O O11 0.668240 0.785612 0.500000
O O12 0.250000 0.250000 0.500000
#
# Coordination Sequence:
#
# PCOD8284445 Si02
#       6
#     8  16  32  32  16  16
#     4   8  15  32  56  80  98 126 168 220 276 316
#     4  10  19  34  55  82 107 131 170 221 276 325
#     4  10  20  34  55  78 107 138 175 217 268 316
#     4  10  21  35  52  72 103 143 180 213 252 305
#     4   8  18  31  51  73 103 135 167 214 262 308
#     4  10  21  29  47  75 103 135 172 210 259 301
#
# _framework density 17.608656
#
# number of rings (size 3 to 8) (size 9 to 14) (size 15 to 20)
#    0.000    2.400    1.333    0.600   13.067    0.533 
#    0.000    0.000    0.000    0.800    0.000    0.933 
#    0.000    0.000    0.000    0.000    0.000    0.000 
#
# Total GULP energy -371731.091443 kJ/mol
# GULP energy per Si atom -12391.036381 kJ/mol
# Density = 1.756858 g / cm^3
# Si number density = 17.608656 Si / 1000 Ang^3
#
#
#
# Elastic Constant Matrix: (Units=GPa)
#
#
# Indices 1 2 3 4 5 6 
#
# 1 80.1964 36.5849 28.1000 0.0000 0.0000 0.0000
# 2 36.5849 103.0624 51.5359 0.0000 0.0000 0.0000
# 3 28.1000 51.5359 110.1956 0.0000 0.0000 0.0000
# 4 0.0000 0.0000 0.0000 31.1317 0.0000 0.0000
# 5 0.0000 0.0000 0.0000 0.0000 12.6104 0.0000
# 6 0.0000 0.0000 0.0000 0.0000 0.0000 16.5668
#
#
#
# Elastic Compliance Matrix: (Units=1/GPa)
#
#
# Indices 1 2 3 4 5 6 
#
# 1 0.015135 -0.004494 -0.001758 0.000000 0.000000 0.000000
# 2 -0.004494 0.013999 -0.005401 0.000000 0.000000 0.000000
# 3 -0.001758 -0.005401 0.012049 0.000000 0.000000 0.000000
# 4 0.000000 0.000000 0.000000 0.032122 0.000000 0.000000
# 5 0.000000 0.000000 0.000000 0.000000 0.079299 0.000000
# 6 0.000000 0.000000 0.000000 0.000000 0.000000 0.060362
#
#
# Mechanical properties :
#
#
# Convention : Reuss Voigt Hill
#
# Bulk Modulus (GPa) = 55.93516 58.43289 57.18402
# Shear Modulus (GPa) = 20.64152 23.87736 22.25944
#
# Velocity S-wave (km/s) = 3.42751 3.68639 3.55930
# Velocity P-wave (km/s) = 6.89191 7.16767 7.03114
#
# Compressibility (1/GPa) = 0.01787784
#
# Stress axis : x y z
#
# Youngs Moduli (GPa) = 66.07060 71.43486 82.99456
#
# Poissons Ratio (x) = 0.32100 0.14590
# Poissons Ratio (y) = 0.29690 0.44825
# Poissons Ratio (z) = 0.11615 0.38582
#
# Static dielectric constant tensor:
#      x y z
#    x 3.068420 0.000000 0.000000 
#    y 0.000000 3.129450 0.000000 
#    z 0.000000 0.000000 3.316330 
# 
# 
# High freq. dielectric constant tensor:
#      x y z
#    x 1.659220 0.000000 0.000000 
#    y 0.000000 1.669350 0.000000 
#    z 0.000000 0.000000 1.674590 
# 
# From -- ./inp_files/14449.got.cif
#   From: 2010.03.12/outbox.cif.g09.slc.cpg/sg69_8_cif.got.tgz:14449.got - 2010.04.10 23:52:46.
