data_PCOD8284212
_publ_section_title
;
Structure prediction by ZEFSAII (Michael W. Deem and Ramdas Pophale) SiO2 
 PCOD8284212
Probable space group: F M M M
;
_chemical_formula_sum "Si O2"
_cell_formula_units_Z 160
_cell_length_a 20.244321
_cell_length_b 13.937899
_cell_length_c 27.519356
_cell_angle_alpha 90.000000
_cell_angle_beta 90.000000
_cell_angle_gamma 90.000000
_cell_volume 7764.952342
_symmetry_space_group_name_H-M "F M M M"
_symmetry_group_IT_number 69
_symmetry_cell_setting 'orthorhombic'
loop_
_space_group_symop_operation_xyz
x,y,z
-x,-y,z
x,-y,-z
-x,y,-z
-x,-y,-z
x,y,-z
-x,y,z
x,-y,z
x,1/2+y,1/2+z
-x,1/2-y,1/2+z
x,1/2-y,1/2-z
-x,1/2+y,1/2-z
-x,1/2-y,1/2-z
x,1/2+y,1/2-z
-x,1/2+y,1/2+z
x,1/2-y,1/2+z
1/2+x,y,1/2+z
1/2-x,-y,1/2+z
1/2+x,-y,1/2-z
1/2-x,y,1/2-z
1/2-x,-y,1/2-z
1/2+x,y,1/2-z
1/2-x,y,1/2+z
1/2+x,-y,1/2+z
1/2+x,1/2+y,z
1/2-x,1/2-y,z
1/2+x,1/2-y,-z
1/2-x,1/2+y,-z
1/2-x,1/2-y,-z
1/2+x,1/2+y,-z
1/2-x,1/2+y,z
1/2+x,1/2-y,z
loop_
_atom_site_type_symbol
_atom_site_label
_atom_site_fract_x
_atom_site_fract_y
_atom_site_fract_z
Si Si1 0.427631 0.889273 0.644224
Si Si2 0.639753 0.891841 0.885617
Si Si3 0.895986 0.220473 0.944665
Si Si4 0.328345 0.752486 0.193489
Si Si5 0.732914 0.605366 0.946804
O O1 0.500000 0.871404 0.668957
O O2 0.435731 0.854387 0.588370
O O3 0.366358 0.837495 0.670173
O O4 0.409088 0.000000 0.645200
O O5 0.595212 0.827052 0.921781
O O6 0.641283 0.848369 0.831104
O O7 0.714197 0.889131 0.904556
O O8 0.611142 0.000000 0.883952
O O9 0.818951 0.191275 0.940876
O O10 0.922311 0.218304 0.000000
O O11 0.345042 0.750000 0.250000
O O12 0.250000 0.750000 0.184105
O O13 0.697881 0.500000 0.943920
O O14 0.767403 0.615886 0.000000
#
# Coordination Sequence:
#
# PCOD8284212 Si02
#       5
#    32  32  32  32  32
#     4  10  22  40  61  86 118 155 195 242 297 356
#     4  10  19  31  49  75 109 149 189 231 283 343
#     4  10  19  31  49  75 110 149 189 233 279 333
#     4  10  22  39  60  87 116 148 192 249 306 356
#     4   9  16  26  44  73 108 144 182 226 278 336
#
# _framework density 20.605405999999999
#
# number of rings (size 3 to 8) (size 9 to 14) (size 15 to 20)
#    0.000    2.200    0.000    4.200    0.000    8.000 
#    0.000    3.000    0.000    9.600    0.000    5.600 
#    0.000    0.000    0.000    0.000    0.000    0.000 
#
# Total GULP energy -495666.027545 kJ/mol
# GULP energy per Si atom -12391.650689 kJ/mol
# Density = 2.055851 g / cm^3
# Si number density = 20.605406 Si / 1000 Ang^3
#
#
#
# Elastic Constant Matrix: (Units=GPa)
#
#
# Indices 1 2 3 4 5 6 
#
# 1 75.5719 34.6159 32.6001 0.0000 0.0000 0.0000
# 2 34.6159 157.1939 61.0197 0.0000 0.0000 0.0000
# 3 32.6001 61.0197 137.1357 0.0000 0.0000 0.0000
# 4 0.0000 0.0000 0.0000 20.1784 0.0000 0.0000
# 5 0.0000 0.0000 0.0000 0.0000 5.3127 0.0000
# 6 0.0000 0.0000 0.0000 0.0000 0.0000 20.0779
#
#
#
# Elastic Compliance Matrix: (Units=1/GPa)
#
#
# Indices 1 2 3 4 5 6 
#
# 1 0.015453 -0.002390 -0.002610 0.000000 0.000000 0.000000
# 2 -0.002390 0.008059 -0.003018 0.000000 0.000000 0.000000
# 3 -0.002610 -0.003018 0.009255 0.000000 0.000000 0.000000
# 4 0.000000 0.000000 0.000000 0.049558 0.000000 0.000000
# 5 0.000000 0.000000 0.000000 0.000000 0.188229 0.000000
# 6 0.000000 0.000000 0.000000 0.000000 0.000000 0.049806
#
#
# Mechanical properties :
#
#
# Convention : Reuss Voigt Hill
#
# Bulk Modulus (GPa) = 59.76565 69.59697 64.68131
# Shear Modulus (GPa) = 14.62101 25.22485 19.92293
#
# Velocity S-wave (km/s) = 2.66667 3.50263 3.11284
# Velocity P-wave (km/s) = 6.20881 7.08571 6.66170
#
# Compressibility (1/GPa) = 0.01673202
#
# Stress axis : x y z
#
# Youngs Moduli (GPa) = 64.71227 124.07970 108.04469
#
# Poissons Ratio (x) = 0.29651 0.28202
# Poissons Ratio (y) = 0.15464 0.32608
# Poissons Ratio (z) = 0.16891 0.37447
#
# Static dielectric constant tensor:
#      x y z
#    x 3.365910 0.000000 0.000000 
#    y 0.000000 3.997000 0.000000 
#    z 0.000000 0.000000 3.823440 
# 
# 
# High freq. dielectric constant tensor:
#      x y z
#    x 1.772850 0.000000 0.000000 
#    y 0.000000 1.816050 0.000000 
#    z 0.000000 0.000000 1.799970 
# 
# From -- ./inp_files/43100.got.cif
#   From: 2010.03.12/outbox.cif.g09.slc.cpg/sg69_22_cif.got.tgz:43100.got - 2010.04.10 23:52:46.
