data_PCOD8284146
_publ_section_title
;
Structure prediction by ZEFSAII (Michael W. Deem and Ramdas Pophale) SiO2 
 PCOD8284146
Probable space group: F M M M
;
_chemical_formula_sum "Si O2"
_cell_formula_units_Z 160
_cell_length_a 14.826192
_cell_length_b 18.222146
_cell_length_c 33.189986
_cell_angle_alpha 90.000000
_cell_angle_beta 90.000000
_cell_angle_gamma 90.000000
_cell_volume 8966.773738
_symmetry_space_group_name_H-M "F M M M"
_symmetry_group_IT_number 69
_symmetry_cell_setting 'orthorhombic'
loop_
_space_group_symop_operation_xyz
x,y,z
-x,-y,z
x,-y,-z
-x,y,-z
-x,-y,-z
x,y,-z
-x,y,z
x,-y,z
x,1/2+y,1/2+z
-x,1/2-y,1/2+z
x,1/2-y,1/2-z
-x,1/2+y,1/2-z
-x,1/2-y,1/2-z
x,1/2+y,1/2-z
-x,1/2+y,1/2+z
x,1/2-y,1/2+z
1/2+x,y,1/2+z
1/2-x,-y,1/2+z
1/2+x,-y,1/2-z
1/2-x,y,1/2-z
1/2-x,-y,1/2-z
1/2+x,y,1/2-z
1/2-x,y,1/2+z
1/2+x,-y,1/2+z
1/2+x,1/2+y,z
1/2-x,1/2-y,z
1/2+x,1/2-y,-z
1/2-x,1/2+y,-z
1/2-x,1/2-y,-z
1/2+x,1/2+y,-z
1/2-x,1/2+y,z
1/2+x,1/2-y,z
loop_
_atom_site_type_symbol
_atom_site_label
_atom_site_fract_x
_atom_site_fract_y
_atom_site_fract_z
Si Si1 0.852479 0.165252 0.741607
Si Si2 0.398476 0.087289 0.455112
Si Si3 0.723423 0.913564 0.615912
Si Si4 0.102026 0.915108 0.339821
Si Si5 0.098335 0.418063 0.684242
O O1 0.871380 0.250000 0.750000
O O2 0.750000 0.143829 0.750000
O O3 0.880505 0.140162 0.696997
O O4 0.912466 0.122781 0.773632
O O5 0.376500 0.116953 0.500000
O O6 0.500000 0.112479 0.442310
O O7 0.320945 0.119517 0.424967
O O8 0.395073 0.000000 0.455306
O O9 0.829493 0.895541 0.623118
O O10 0.669127 0.879666 0.653978
O O11 0.705988 0.000000 0.614768
O O12 0.000000 0.903940 0.355733
O O13 0.117426 0.000000 0.326217
O O14 0.131546 0.500000 0.693846
O O15 0.000000 0.418238 0.663260
#
# Coordination Sequence:
#
# PCOD8284146 Si02
#       5
#    32  32  32  32  32
#     4  11  22  34  47  64  89 121 156 194 237 283
#     4   8  13  22  39  65  95 123 148 177 223 280
#     4   9  16  27  43  63  90 119 149 188 225 267
#     4  10  20  33  49  66  86 120 163 199 232 271
#     4  10  19  30  47  68  88 116 153 189 229 275
#
# _framework density 17.843653
#
# number of rings (size 3 to 8) (size 9 to 14) (size 15 to 20)
#    0.000    2.400    2.000    2.400    0.000    6.400 
#    0.000    0.000    0.000    0.600    0.000    4.200 
#    0.000    3.200    0.000    4.000    0.000    4.000 
#
# Total GULP energy -495606.003632 kJ/mol
# GULP energy per Si atom -12390.150091 kJ/mol
# Density = 1.780304 g / cm^3
# Si number density = 17.843653 Si / 1000 Ang^3
#
#
#
# Elastic Constant Matrix: (Units=GPa)
#
#
# Indices 1 2 3 4 5 6 
#
# 1 142.7039 25.4502 70.6823 0.0000 0.0000 0.0000
# 2 25.4502 34.6911 19.6312 0.0000 0.0000 0.0000
# 3 70.6823 19.6312 118.9620 0.0000 0.0000 0.0000
# 4 0.0000 0.0000 0.0000 3.9290 0.0000 0.0000
# 5 0.0000 0.0000 0.0000 0.0000 32.6650 0.0000
# 6 0.0000 0.0000 0.0000 0.0000 0.0000 9.1684
#
#
#
# Elastic Compliance Matrix: (Units=1/GPa)
#
#
# Indices 1 2 3 4 5 6 
#
# 1 0.010564 -0.004630 -0.005512 0.000000 0.000000 0.000000
# 2 -0.004630 0.033825 -0.002831 0.000000 0.000000 0.000000
# 3 -0.005512 -0.002831 0.012148 0.000000 0.000000 0.000000
# 4 0.000000 0.000000 0.000000 0.254517 0.000000 0.000000
# 5 0.000000 0.000000 0.000000 0.000000 0.030614 0.000000
# 6 0.000000 0.000000 0.000000 0.000000 0.000000 0.109070
#
#
# Mechanical properties :
#
#
# Convention : Reuss Voigt Hill
#
# Bulk Modulus (GPa) = 32.69051 58.65383 45.67217
# Shear Modulus (GPa) = 10.26946 21.19205 15.73076
#
# Velocity S-wave (km/s) = 2.40161 3.44997 2.97238
# Velocity P-wave (km/s) = 5.10398 6.98656 6.11812
#
# Compressibility (1/GPa) = 0.03058991
#
# Stress axis : x y z
#
# Youngs Moduli (GPa) = 94.66452 29.56436 82.31565
#
# Poissons Ratio (x) = 0.13689 0.45375
# Poissons Ratio (y) = 0.43833 0.23300
# Poissons Ratio (z) = 0.52182 0.08368
#
# Static dielectric constant tensor:
#      x y z
#    x 3.561810 0.000000 0.000000 
#    y 0.000000 2.836440 0.000000 
#    z 0.000000 0.000000 3.377350 
# 
# 
# High freq. dielectric constant tensor:
#      x y z
#    x 1.706020 0.000000 0.000000 
#    y 0.000000 1.633230 0.000000 
#    z 0.000000 0.000000 1.669210 
# 
# From -- ./inp_files/46314.got.cif
#   From: 2010.03.12/outbox.cif.g09.slc.cpg/sg69_24_cif.got.tgz:46314.got - 2010.04.10 23:52:46.
