data_PCOD8284787
_publ_section_title
;
Structure prediction by ZEFSAII (Michael W. Deem and Ramdas Pophale) SiO2 
 PCOD8284787
Probable space group: F M M M
;
_chemical_formula_sum "Si O2"
_cell_formula_units_Z 128
_cell_length_a 15.413795
_cell_length_b 24.185934
_cell_length_c 17.470557
_cell_angle_alpha 90.000000
_cell_angle_beta 90.000000
_cell_angle_gamma 90.000000
_cell_volume 6512.971737
_symmetry_space_group_name_H-M "F M M M"
_symmetry_group_IT_number 69
_symmetry_cell_setting 'orthorhombic'
loop_
_space_group_symop_operation_xyz
x,y,z
-x,-y,z
x,-y,-z
-x,y,-z
-x,-y,-z
x,y,-z
-x,y,z
x,-y,z
x,1/2+y,1/2+z
-x,1/2-y,1/2+z
x,1/2-y,1/2-z
-x,1/2+y,1/2-z
-x,1/2-y,1/2-z
x,1/2+y,1/2-z
-x,1/2+y,1/2+z
x,1/2-y,1/2+z
1/2+x,y,1/2+z
1/2-x,-y,1/2+z
1/2+x,-y,1/2-z
1/2-x,y,1/2-z
1/2-x,-y,1/2-z
1/2+x,y,1/2-z
1/2-x,y,1/2+z
1/2+x,-y,1/2+z
1/2+x,1/2+y,z
1/2-x,1/2-y,z
1/2+x,1/2-y,-z
1/2-x,1/2+y,-z
1/2-x,1/2-y,-z
1/2+x,1/2+y,-z
1/2-x,1/2+y,z
1/2+x,1/2-y,z
loop_
_atom_site_type_symbol
_atom_site_label
_atom_site_fract_x
_atom_site_fract_y
_atom_site_fract_z
Si Si1 0.338657 0.775282 0.591423
Si Si2 0.836248 0.000000 0.837135
Si Si3 0.360719 0.000000 0.156751
Si Si4 0.600152 0.391539 0.913815
Si Si5 0.500000 0.793458 0.909048
Si Si6 0.000000 0.419855 0.908476
O O1 0.340974 0.774468 0.500000
O O2 0.250000 0.750000 0.624082
O O3 0.347421 0.838767 0.619450
O O4 0.415699 0.737286 0.624367
O O5 0.884665 0.054609 0.864144
O O6 0.738712 0.000000 0.872187
O O7 0.849026 0.000000 0.747057
O O8 0.412723 0.946580 0.126447
O O9 0.500000 0.374500 0.911893
O O10 0.630226 0.404820 0.000000
O O11 0.500000 0.856691 0.881822
O O12 0.500000 0.791056 0.000000
O O13 0.000000 0.427730 0.000000
#
# Coordination Sequence:
#
# PCOD8284787 Si02
#       6
#    32  16  16  32  16  16
#     4   9  17  30  51  81 116 148 179 228 288 334
#     4  11  24  38  58  80 111 158 194 228 285 344
#     4  10  24  42  55  81 111 147 190 241 288 346
#     4  10  20  34  55  86 117 146 188 234 272 330
#     4   9  17  32  53  82 113 140 177 228 289 345
#     4  10  22  39  64  87 112 146 190 250 300 342
#
# _framework density 19.653085999999998
#
# number of rings (size 3 to 8) (size 9 to 14) (size 15 to 20)
#    0.000    2.250    1.250    1.500    7.000    3.000 
#    0.000    0.000    0.000    3.000    0.000    0.000 
#    0.000    0.000    0.000    0.000    0.000    0.000 
#
# Total GULP energy -396723.813606 kJ/mol
# GULP energy per Si atom -12397.619175 kJ/mol
# Density = 1.960836 g / cm^3
# Si number density = 19.653086 Si / 1000 Ang^3
#
#
#
# Elastic Constant Matrix: (Units=GPa)
#
#
# Indices 1 2 3 4 5 6 
#
# 1 126.5686 60.8644 23.0588 0.0000 0.0000 0.0000
# 2 60.8644 174.0012 25.8102 0.0000 0.0000 0.0000
# 3 23.0588 25.8102 41.1246 0.0000 0.0000 0.0000
# 4 0.0000 0.0000 0.0000 -3.5484 0.0000 0.0000
# 5 0.0000 0.0000 0.0000 0.0000 21.4368 0.0000
# 6 0.0000 0.0000 0.0000 0.0000 0.0000 7.6998
#
#
#
# Elastic Compliance Matrix: (Units=1/GPa)
#
#
# Indices 1 2 3 4 5 6 
#
# 1 0.010000 -0.002940 -0.003762 0.000000 0.000000 0.000000
# 2 -0.002940 0.007201 -0.002871 0.000000 0.000000 0.000000
# 3 -0.003762 -0.002871 0.028228 0.000000 0.000000 0.000000
# 4 0.000000 0.000000 0.000000 -0.281818 0.000000 0.000000
# 5 0.000000 0.000000 0.000000 0.000000 0.046649 0.000000
# 6 0.000000 0.000000 0.000000 0.000000 0.000000 0.129873
#
#
# Mechanical properties :
#
#
# Convention : Reuss Voigt Hill
#
# Bulk Modulus (GPa) = 38.04755 62.35124 50.19940
# Shear Modulus (GPa) = -156.44689 20.58172 -67.93259
#
# Velocity S-wave (km/s) = -8.93180 3.23964 -5.88565
# Velocity P-wave (km/s) = 9.32565 6.76672 4.53758
#
# Compressibility (1/GPa) = 0.02628290
#
# Stress axis : x y z
#
# Youngs Moduli (GPa) = 100.00043 138.86313 35.42622
#
# Poissons Ratio (x) = 0.40824 0.13327
# Poissons Ratio (y) = 0.29399 0.10172
# Poissons Ratio (z) = 0.37619 0.39870
#
# Static dielectric constant tensor:
#      x y z
#    x 3.844600 0.000000 0.000000 
#    y 0.000000 3.685580 0.000000 
#    z 0.000000 0.000000 3.132490 
# 
# 
# High freq. dielectric constant tensor:
#      x y z
#    x 1.775810 0.000000 0.000000 
#    y 0.000000 1.782280 0.000000 
#    z 0.000000 0.000000 1.720180 
# 
# From -- ./inp_files/21635.got.cif
#   From: 2010.03.12/outbox.cif.g09.slc.cpg/sg69_11_cif.got.tgz:21635.got - 2010.04.10 23:52:46.
