data_PCOD8284400
_publ_section_title
;
Structure prediction by ZEFSAII (Michael W. Deem and Ramdas Pophale) SiO2 
 PCOD8284400
Probable space group: F M M M
;
_chemical_formula_sum "Si O2"
_cell_formula_units_Z 144
_cell_length_a 16.815187
_cell_length_b 27.491466
_cell_length_c 14.535371
_cell_angle_alpha 90.000000
_cell_angle_beta 90.000000
_cell_angle_gamma 90.000000
_cell_volume 6719.326153
_symmetry_space_group_name_H-M "F M M M"
_symmetry_group_IT_number 69
_symmetry_cell_setting 'orthorhombic'
loop_
_space_group_symop_operation_xyz
x,y,z
-x,-y,z
x,-y,-z
-x,y,-z
-x,-y,-z
x,y,-z
-x,y,z
x,-y,z
x,1/2+y,1/2+z
-x,1/2-y,1/2+z
x,1/2-y,1/2-z
-x,1/2+y,1/2-z
-x,1/2-y,1/2-z
x,1/2+y,1/2-z
-x,1/2+y,1/2+z
x,1/2-y,1/2+z
1/2+x,y,1/2+z
1/2-x,-y,1/2+z
1/2+x,-y,1/2-z
1/2-x,y,1/2-z
1/2-x,-y,1/2-z
1/2+x,y,1/2-z
1/2-x,y,1/2+z
1/2+x,-y,1/2+z
1/2+x,1/2+y,z
1/2-x,1/2-y,z
1/2+x,1/2-y,-z
1/2-x,1/2+y,-z
1/2-x,1/2-y,-z
1/2+x,1/2+y,-z
1/2-x,1/2+y,z
1/2+x,1/2-y,z
loop_
_atom_site_type_symbol
_atom_site_label
_atom_site_fract_x
_atom_site_fract_y
_atom_site_fract_z
Si Si1 0.656830 0.741534 0.148912
Si Si2 0.088663 0.586048 0.762129
Si Si3 0.094593 0.000000 0.606306
Si Si4 0.820025 0.364447 0.604241
Si Si5 0.862187 0.656879 0.099254
O O1 0.622140 0.750000 0.250000
O O2 0.750000 0.750000 0.146715
O O3 0.634403 0.687670 0.113142
O O4 0.621235 0.785397 0.087994
O O5 0.124670 0.546102 0.833323
O O6 0.143359 0.594762 0.672337
O O7 0.082234 0.635366 0.821582
O O8 0.000000 0.571393 0.728800
O O9 0.128636 0.000000 0.500000
O O10 0.000000 0.000000 0.599895
O O11 0.830409 0.383480 0.500000
O O12 0.728274 0.355637 0.629725
O O13 0.881331 0.633014 0.000000
#
# Coordination Sequence:
#
# PCOD8284400 Si02
#       5
#    32  32  16  32  32
#     4   9  15  28  52  78 109 148 190 221 254 305
#     4  11  22  37  58  81 107 138 179 229 280 331
#     4   9  20  40  62  81 103 137 181 228 280 336
#     4  10  20  35  55  81 115 151 184 219 263 320
#     4  10  19  33  56  83 110 144 187 228 266 312
#
# _framework density 21.430720999999998
#
# number of rings (size 3 to 8) (size 9 to 14) (size 15 to 20)
#    0.000    2.111    2.222    2.000    0.000    4.444 
#    0.000    5.000    0.000    7.333    0.000    0.000 
#    0.000    0.000    0.000    0.000    0.000    0.000 
#
# Total GULP energy -445995.088115 kJ/mol
# GULP energy per Si atom -12388.752448 kJ/mol
# Density = 2.138194 g / cm^3
# Si number density = 21.430721 Si / 1000 Ang^3
#
#
#
# Elastic Constant Matrix: (Units=GPa)
#
#
# Indices 1 2 3 4 5 6 
#
# 1 30.9035 12.7380 19.0676 0.0000 0.0000 0.0000
# 2 12.7380 92.3451 47.2478 0.0000 0.0000 0.0000
# 3 19.0676 47.2478 132.9880 0.0000 0.0000 0.0000
# 4 0.0000 0.0000 0.0000 37.1861 0.0000 0.0000
# 5 0.0000 0.0000 0.0000 0.0000 22.9017 0.0000
# 6 0.0000 0.0000 0.0000 0.0000 0.0000 20.3861
#
#
#
# Elastic Compliance Matrix: (Units=1/GPa)
#
#
# Indices 1 2 3 4 5 6 
#
# 1 0.036102 -0.002849 -0.004164 0.000000 0.000000 0.000000
# 2 -0.002849 0.013460 -0.004373 0.000000 0.000000 0.000000
# 3 -0.004164 -0.004373 0.009670 0.000000 0.000000 0.000000
# 4 0.000000 0.000000 0.000000 0.026892 0.000000 0.000000
# 5 0.000000 0.000000 0.000000 0.000000 0.043665 0.000000
# 6 0.000000 0.000000 0.000000 0.000000 0.000000 0.049053
#
#
# Mechanical properties :
#
#
# Convention : Reuss Voigt Hill
#
# Bulk Modulus (GPa) = 27.42825 46.03815 36.73320
# Shear Modulus (GPa) = 23.38980 27.90701 25.64841
#
# Velocity S-wave (km/s) = 3.30724 3.61251 3.46324
# Velocity P-wave (km/s) = 5.23547 6.23933 5.75931
#
# Compressibility (1/GPa) = 0.03645876
#
# Stress axis : x y z
#
# Youngs Moduli (GPa) = 27.69894 74.29646 103.40985
#
# Poissons Ratio (x) = 0.21170 0.43059
# Poissons Ratio (y) = 0.07893 0.45225
# Poissons Ratio (z) = 0.11534 0.32492
#
# Static dielectric constant tensor:
#      x y z
#    x 3.320440 0.000000 0.000000 
#    y 0.000000 3.913280 0.000000 
#    z 0.000000 0.000000 4.008710 
# 
# 
# High freq. dielectric constant tensor:
#      x y z
#    x 1.783640 0.000000 0.000000 
#    y 0.000000 1.827100 0.000000 
#    z 0.000000 0.000000 1.852600 
# 
# From -- ./inp_files/15570.got.cif
#   From: 2010.03.12/outbox.cif.g09.slc.cpg/sg69_8_cif.got.tgz:15570.got - 2010.04.10 23:52:46.
