data_PCOD8284464
_publ_section_title
;
Structure prediction by ZEFSAII (Michael W. Deem and Ramdas Pophale) SiO2 
 PCOD8284464
Probable space group: F M M M
;
_chemical_formula_sum "Si O2"
_cell_formula_units_Z 208
_cell_length_a 18.919844
_cell_length_b 32.290577
_cell_length_c 17.913537
_cell_angle_alpha 90.000000
_cell_angle_beta 90.000000
_cell_angle_gamma 90.000000
_cell_volume 10943.965159
_symmetry_space_group_name_H-M "F M M M"
_symmetry_group_IT_number 69
_symmetry_cell_setting 'orthorhombic'
loop_
_space_group_symop_operation_xyz
x,y,z
-x,-y,z
x,-y,-z
-x,y,-z
-x,-y,-z
x,y,-z
-x,y,z
x,-y,z
x,1/2+y,1/2+z
-x,1/2-y,1/2+z
x,1/2-y,1/2-z
-x,1/2+y,1/2-z
-x,1/2-y,1/2-z
x,1/2+y,1/2-z
-x,1/2+y,1/2+z
x,1/2-y,1/2+z
1/2+x,y,1/2+z
1/2-x,-y,1/2+z
1/2+x,-y,1/2-z
1/2-x,y,1/2-z
1/2-x,-y,1/2-z
1/2+x,y,1/2-z
1/2-x,y,1/2+z
1/2+x,-y,1/2+z
1/2+x,1/2+y,z
1/2-x,1/2-y,z
1/2+x,1/2-y,-z
1/2-x,1/2+y,-z
1/2-x,1/2-y,-z
1/2+x,1/2+y,-z
1/2-x,1/2+y,z
1/2+x,1/2-y,z
loop_
_atom_site_type_symbol
_atom_site_label
_atom_site_fract_x
_atom_site_fract_y
_atom_site_fract_z
Si Si1 0.000000 0.454138 0.088934
Si Si2 0.825034 0.545940 0.783307
Si Si3 0.638032 0.409141 0.416526
Si Si4 0.419729 0.113781 0.713016
Si Si5 0.416925 0.169402 0.145432
Si Si6 0.167364 0.749148 0.338385
Si Si7 0.418192 0.675672 0.912813
O O1 0.932169 0.430338 0.118906
O O2 0.000000 0.500000 0.121021
O O3 0.000000 0.452889 0.000000
O O4 0.859177 0.500000 0.797399
O O5 0.750000 0.537883 0.750000
O O6 0.805830 0.571785 0.859374
O O7 0.871856 0.573724 0.727339
O O8 0.657273 0.423068 0.500000
O O9 0.622640 0.360488 0.413719
O O10 0.500000 0.098571 0.719459
O O11 0.405123 0.150968 0.771934
O O12 0.404134 0.132536 0.630805
O O13 0.500000 0.175020 0.126728
O O14 0.375974 0.211794 0.131596
O O15 0.157960 0.750000 0.250000
O O16 0.250000 0.750000 0.360742
O O17 0.133102 0.709477 0.376965
O O18 0.500000 0.689358 0.902061
O O19 0.399985 0.669115 0.000000
#
# Coordination Sequence:
#
# PCOD8284464 Si02
#       7
#    16  32  32  32  32  32  32
#     4   9  16  28  50  82 119 150 175 213 272 347
#     4  10  22  38  56  82 117 154 194 233 273 336
#     4  10  20  35  56  86 120 151 183 224 284 346
#     4   9  19  36  58  82 107 143 190 238 284 336
#     4  10  19  34  57  81 113 152 190 232 278 341
#     4  11  23  37  56  83 116 154 193 236 286 339
#     4  10  21  38  60  84 109 144 194 244 292 341
#
# _framework density 19.005908000000002
#
# number of rings (size 3 to 8) (size 9 to 14) (size 15 to 20)
#    0.000    2.077    2.308    0.923    1.077    5.231 
#    0.000    2.308    0.000    1.385    0.000    2.154 
#    0.000    0.000    0.000    0.000    0.000    0.000 
#
# Total GULP energy -644492.730727 kJ/mol
# GULP energy per Si atom -12394.090976 kJ/mol
# Density = 1.896265 g / cm^3
# Si number density = 19.005908 Si / 1000 Ang^3
#
#
#
# Elastic Constant Matrix: (Units=GPa)
#
#
# Indices 1 2 3 4 5 6 
#
# 1 74.8819 50.2127 37.0709 0.0000 0.0000 0.0000
# 2 50.2127 119.8056 36.1921 0.0000 0.0000 0.0000
# 3 37.0709 36.1921 108.2266 0.0000 0.0000 0.0000
# 4 0.0000 0.0000 0.0000 15.5959 0.0000 0.0000
# 5 0.0000 0.0000 0.0000 0.0000 13.3371 0.0000
# 6 0.0000 0.0000 0.0000 0.0000 0.0000 24.9991
#
#
#
# Elastic Compliance Matrix: (Units=1/GPa)
#
#
# Indices 1 2 3 4 5 6 
#
# 1 0.020447 -0.007179 -0.004603 0.000000 0.000000 0.000000
# 2 -0.007179 0.011806 -0.001489 0.000000 0.000000 0.000000
# 3 -0.004603 -0.001489 0.011314 0.000000 0.000000 0.000000
# 4 0.000000 0.000000 0.000000 0.064119 0.000000 0.000000
# 5 0.000000 0.000000 0.000000 0.000000 0.074979 0.000000
# 6 0.000000 0.000000 0.000000 0.000000 0.000000 0.040001
#
#
# Mechanical properties :
#
#
# Convention : Reuss Voigt Hill
#
# Bulk Modulus (GPa) = 58.73674 61.09616 59.91645
# Shear Modulus (GPa) = 19.61679 22.74900 21.18290
#
# Velocity S-wave (km/s) = 3.21618 3.46344 3.34210
# Velocity P-wave (km/s) = 6.69054 6.94331 6.81810
#
# Compressibility (1/GPa) = 0.01702512
#
# Stress axis : x y z
#
# Youngs Moduli (GPa) = 48.90635 84.70573 88.38297
#
# Poissons Ratio (x) = 0.60813 0.40682
# Poissons Ratio (y) = 0.35111 0.13158
# Poissons Ratio (z) = 0.22511 0.12611
#
# Static dielectric constant tensor:
#      x y z
#    x 3.453430 0.000000 0.000000 
#    y 0.000000 3.530730 0.000000 
#    z 0.000000 0.000000 3.436050 
# 
# 
# High freq. dielectric constant tensor:
#      x y z
#    x 1.726950 0.000000 0.000000 
#    y 0.000000 1.741660 0.000000 
#    z 0.000000 0.000000 1.732550 
# 
# From -- ./inp_files/25172.got.cif
#   From: 2010.03.12/outbox.cif.g09.slc.cpg/sg69_13_cif.got.tgz:25172.got - 2010.04.10 23:52:46.
