data_PCOD8284882
_publ_section_title
;
Structure prediction by ZEFSAII (Michael W. Deem and Ramdas Pophale) SiO2 
 PCOD8284882
Probable space group: F M M M
;
_chemical_formula_sum "Si O2"
_cell_formula_units_Z 160
_cell_length_a 24.494833
_cell_length_b 24.723434
_cell_length_c 13.842727
_cell_angle_alpha 90.000000
_cell_angle_beta 90.000000
_cell_angle_gamma 90.000000
_cell_volume 8383.105458
_symmetry_space_group_name_H-M "F M M M"
_symmetry_group_IT_number 69
_symmetry_cell_setting 'orthorhombic'
loop_
_space_group_symop_operation_xyz
x,y,z
-x,-y,z
x,-y,-z
-x,y,-z
-x,-y,-z
x,y,-z
-x,y,z
x,-y,z
x,1/2+y,1/2+z
-x,1/2-y,1/2+z
x,1/2-y,1/2-z
-x,1/2+y,1/2-z
-x,1/2-y,1/2-z
x,1/2+y,1/2-z
-x,1/2+y,1/2+z
x,1/2-y,1/2+z
1/2+x,y,1/2+z
1/2-x,-y,1/2+z
1/2+x,-y,1/2-z
1/2-x,y,1/2-z
1/2-x,-y,1/2-z
1/2+x,y,1/2-z
1/2-x,y,1/2+z
1/2+x,-y,1/2+z
1/2+x,1/2+y,z
1/2-x,1/2-y,z
1/2+x,1/2-y,-z
1/2-x,1/2+y,-z
1/2-x,1/2-y,-z
1/2+x,1/2+y,-z
1/2-x,1/2+y,z
1/2+x,1/2-y,z
loop_
_atom_site_type_symbol
_atom_site_label
_atom_site_fract_x
_atom_site_fract_y
_atom_site_fract_z
Si Si1 0.718216 0.303313 0.891135
Si Si2 0.437122 0.237754 0.110433
Si Si3 0.842671 0.559119 0.727946
Si Si4 0.387143 0.672363 0.776318
Si Si5 0.239144 0.583458 0.891671
O O1 0.750000 0.250000 0.864484
O O2 0.672669 0.309898 0.809824
O O3 0.761803 0.351695 0.883988
O O4 0.692972 0.301326 0.000000
O O5 0.500000 0.220972 0.121738
O O6 0.430032 0.299209 0.150487
O O7 0.399607 0.195243 0.169199
O O8 0.417938 0.235160 0.000000
O O9 0.871521 0.500000 0.720818
O O10 0.888748 0.606546 0.721744
O O11 0.810464 0.561217 0.828963
O O12 0.798645 0.563332 0.642241
O O13 0.230105 0.562554 0.000000
#
# Coordination Sequence:
#
# PCOD8284882 Si02
#       5
#    32  32  32  32  32
#     4   9  18  30  48  77 115 151 178 210 256 308
#     4  10  22  40  61  83 105 129 165 219 281 341
#     4  10  21  34  48  74 107 142 186 225 251 293
#     4  10  20  35  57  80 107 140 177 214 266 316
#     4   9  18  32  48  68 102 151 193 220 249 290
#
# _framework density 19.086006000000001
#
# number of rings (size 3 to 8) (size 9 to 14) (size 15 to 20)
#    0.000    2.400    0.000    3.000    5.600    3.200 
#    0.000    0.000    0.000    3.000    0.000    2.800 
#    0.000    0.000    0.000    0.000    0.000    0.000 
#
# Total GULP energy -495778.402008 kJ/mol
# GULP energy per Si atom -12394.460050 kJ/mol
# Density = 1.904257 g / cm^3
# Si number density = 19.086006 Si / 1000 Ang^3
#
#
#
# Elastic Constant Matrix: (Units=GPa)
#
#
# Indices 1 2 3 4 5 6 
#
# 1 36.6990 34.4346 18.9550 0.0000 0.0000 0.0000
# 2 34.4346 172.7289 39.3506 0.0000 0.0000 0.0000
# 3 18.9550 39.3506 129.8700 0.0000 0.0000 0.0000
# 4 0.0000 0.0000 0.0000 9.2370 0.0000 0.0000
# 5 0.0000 0.0000 0.0000 0.0000 23.8724 0.0000
# 6 0.0000 0.0000 0.0000 0.0000 0.0000 17.6991
#
#
#
# Elastic Compliance Matrix: (Units=1/GPa)
#
#
# Indices 1 2 3 4 5 6 
#
# 1 0.034706 -0.006192 -0.003189 0.000000 0.000000 0.000000
# 2 -0.006192 0.007324 -0.001315 0.000000 0.000000 0.000000
# 3 -0.003189 -0.001315 0.008564 0.000000 0.000000 0.000000
# 4 0.000000 0.000000 0.000000 0.108261 0.000000 0.000000
# 5 0.000000 0.000000 0.000000 0.000000 0.041889 0.000000
# 6 0.000000 0.000000 0.000000 0.000000 0.000000 0.056500
#
#
# Mechanical properties :
#
#
# Convention : Reuss Voigt Hill
#
# Bulk Modulus (GPa) = 34.24641 58.30869 46.27755
# Shear Modulus (GPa) = 17.33878 26.59886 21.96882
#
# Velocity S-wave (km/s) = 3.01733 3.73719 3.39638
# Velocity P-wave (km/s) = 5.48828 7.01704 6.29921
#
# Compressibility (1/GPa) = 0.02920014
#
# Stress axis : x y z
#
# Youngs Moduli (GPa) = 28.81332 136.54604 116.76784
#
# Poissons Ratio (x) = 0.84554 0.37240
# Poissons Ratio (y) = 0.17842 0.15358
# Poissons Ratio (z) = 0.09189 0.17959
#
# Static dielectric constant tensor:
#      x y z
#    x 3.082970 0.000000 0.000000 
#    y 0.000000 3.765490 0.000000 
#    z 0.000000 0.000000 3.718270 
# 
# 
# High freq. dielectric constant tensor:
#      x y z
#    x 1.688800 0.000000 0.000000 
#    y 0.000000 1.742670 0.000000 
#    z 0.000000 0.000000 1.759510 
# 
# From -- ./inp_files/17980.got.cif
#   From: 2010.03.12/outbox.cif.g09.slc.cpg/sg69_9_cif.got.tgz:17980.got - 2010.04.10 23:52:46.
