data_PCOD8284034
_publ_section_title
;
Structure prediction by ZEFSAII (Michael W. Deem and Ramdas Pophale) SiO2 
 PCOD8284034
Probable space group: F M M M
;
_chemical_formula_sum "Si O2"
_cell_formula_units_Z 112
_cell_length_a 8.680602
_cell_length_b 36.370336
_cell_length_c 18.680791
_cell_angle_alpha 90.000000
_cell_angle_beta 90.000000
_cell_angle_gamma 90.000000
_cell_volume 5897.832297
_symmetry_space_group_name_H-M "F M M M"
_symmetry_group_IT_number 69
_symmetry_cell_setting 'orthorhombic'
loop_
_space_group_symop_operation_xyz
x,y,z
-x,-y,z
x,-y,-z
-x,y,-z
-x,-y,-z
x,y,-z
-x,y,z
x,-y,z
x,1/2+y,1/2+z
-x,1/2-y,1/2+z
x,1/2-y,1/2-z
-x,1/2+y,1/2-z
-x,1/2-y,1/2-z
x,1/2+y,1/2-z
-x,1/2+y,1/2+z
x,1/2-y,1/2+z
1/2+x,y,1/2+z
1/2-x,-y,1/2+z
1/2+x,-y,1/2-z
1/2-x,y,1/2-z
1/2-x,-y,1/2-z
1/2+x,y,1/2-z
1/2-x,y,1/2+z
1/2+x,-y,1/2+z
1/2+x,1/2+y,z
1/2-x,1/2-y,z
1/2+x,1/2-y,-z
1/2-x,1/2+y,-z
1/2-x,1/2-y,-z
1/2+x,1/2+y,-z
1/2-x,1/2+y,z
1/2+x,1/2-y,z
loop_
_atom_site_type_symbol
_atom_site_label
_atom_site_fract_x
_atom_site_fract_y
_atom_site_fract_z
Si Si1 0.317256 0.000000 0.329302
Si Si2 0.319256 0.926035 0.171900
Si Si3 0.176420 0.862065 0.084432
Si Si4 0.326859 0.786939 0.914851
O O1 0.250000 0.000000 0.250000
O O2 0.254400 0.037457 0.365447
O O3 0.500000 0.000000 0.330294
O O4 0.500000 0.931849 0.179620
O O5 0.250000 0.918574 0.250000
O O6 0.284464 0.891866 0.121301
O O7 0.228370 0.821858 0.111178
O O8 0.000000 0.868298 0.107161
O O9 0.199211 0.865803 0.000000
O O10 0.500000 0.790317 0.884870
O O11 0.250000 0.750000 0.883317
O O12 0.328454 0.785009 0.000000
#
# Coordination Sequence:
#
# PCOD8284034 Si02
#       4
#    16  32  32  32
#     4  10  18  32  53  76 101 130 169 211 251 297
#     4  11  21  35  55  78 104 134 171 211 253 302
#     4  10  20  34  52  76 106 137 170 211 258 304
#     4   9  16  27  45  70  99 132 170 210 251 296
#
# _framework density 18.990027000000001
#
# number of rings (size 3 to 8) (size 9 to 14) (size 15 to 20)
#    0.000    2.000    0.000    7.286    0.000    5.143 
#    0.000    0.714    0.000    5.143    0.000    6.000 
#    0.000    0.000    0.000    0.000    0.000    0.000 
#
# Total GULP energy -347194.710729 kJ/mol
# GULP energy per Si atom -12399.811097 kJ/mol
# Density = 1.894680 g / cm^3
# Si number density = 18.990027 Si / 1000 Ang^3
#
#
#
# Elastic Constant Matrix: (Units=GPa)
#
#
# Indices 1 2 3 4 5 6 
#
# 1 162.8425 56.9699 25.4495 0.0000 0.0000 0.0000
# 2 56.9699 164.1839 32.0009 0.0000 0.0000 0.0000
# 3 25.4495 32.0009 21.9024 0.0000 0.0000 0.0000
# 4 0.0000 0.0000 0.0000 41.1520 0.0000 0.0000
# 5 0.0000 0.0000 0.0000 0.0000 21.2740 0.0000
# 6 0.0000 0.0000 0.0000 0.0000 0.0000 42.1679
#
#
#
# Elastic Compliance Matrix: (Units=1/GPa)
#
#
# Indices 1 2 3 4 5 6 
#
# 1 0.007696 -0.001297 -0.007048 0.000000 0.000000 0.000000
# 2 -0.001297 0.008734 -0.011255 0.000000 0.000000 0.000000
# 3 -0.007048 -0.011255 0.070290 0.000000 0.000000 0.000000
# 4 0.000000 0.000000 0.000000 0.024300 0.000000 0.000000
# 5 0.000000 0.000000 0.000000 0.000000 0.047006 0.000000
# 6 0.000000 0.000000 0.000000 0.000000 0.000000 0.023715
#
#
# Mechanical properties :
#
#
# Convention : Reuss Voigt Hill
#
# Bulk Modulus (GPa) = 21.04286 64.19662 42.61974
# Shear Modulus (GPa) = 21.11665 36.55270 28.83468
#
# Velocity S-wave (km/s) = 3.33826 4.39206 3.90091
# Velocity P-wave (km/s) = 5.09546 7.72004 6.54075
#
# Compressibility (1/GPa) = 0.04752206
#
# Stress axis : x y z
#
# Youngs Moduli (GPa) = 129.93746 114.49074 14.22676
#
# Poissons Ratio (x) = 0.14847 0.10027
# Poissons Ratio (y) = 0.16850 0.16012
# Poissons Ratio (z) = 0.91576 1.28856
#
# Static dielectric constant tensor:
#      x y z
#    x 3.654780 0.000000 0.000000 
#    y 0.000000 4.051480 0.000000 
#    z 0.000000 0.000000 2.890790 
# 
# 
# High freq. dielectric constant tensor:
#      x y z
#    x 1.760520 0.000000 0.000000 
#    y 0.000000 1.762900 0.000000 
#    z 0.000000 0.000000 1.672570 
# 
# From -- ./inp_files/3733.got.cif
#   From: 2010.03.12/outbox.cif.g09.slc.cpg/sg69_2_cif.got.tgz:3733.got - 2010.04.10 23:52:46.
