data_PCOD8284855
_publ_section_title
;
Structure prediction by ZEFSAII (Michael W. Deem and Ramdas Pophale) SiO2 
 PCOD8284855
Probable space group: F M M M
;
_chemical_formula_sum "Si O2"
_cell_formula_units_Z 160
_cell_length_a 29.864416
_cell_length_b 8.825522
_cell_length_c 29.463419
_cell_angle_alpha 90.000000
_cell_angle_beta 90.000000
_cell_angle_gamma 90.000000
_cell_volume 7765.645663
_symmetry_space_group_name_H-M "F M M M"
_symmetry_group_IT_number 69
_symmetry_cell_setting 'orthorhombic'
loop_
_space_group_symop_operation_xyz
x,y,z
-x,-y,z
x,-y,-z
-x,y,-z
-x,-y,-z
x,y,-z
-x,y,z
x,-y,z
x,1/2+y,1/2+z
-x,1/2-y,1/2+z
x,1/2-y,1/2-z
-x,1/2+y,1/2-z
-x,1/2-y,1/2-z
x,1/2+y,1/2-z
-x,1/2+y,1/2+z
x,1/2-y,1/2+z
1/2+x,y,1/2+z
1/2-x,-y,1/2+z
1/2+x,-y,1/2-z
1/2-x,y,1/2-z
1/2-x,-y,1/2-z
1/2+x,y,1/2-z
1/2-x,y,1/2+z
1/2+x,-y,1/2+z
1/2+x,1/2+y,z
1/2-x,1/2-y,z
1/2+x,1/2-y,-z
1/2-x,1/2+y,-z
1/2-x,1/2-y,-z
1/2+x,1/2+y,-z
1/2-x,1/2+y,z
1/2+x,1/2-y,z
loop_
_atom_site_type_symbol
_atom_site_label
_atom_site_fract_x
_atom_site_fract_y
_atom_site_fract_z
Si Si1 0.890234 0.180784 0.203481
Si Si2 0.500000 0.680164 0.946763
Si Si3 0.427637 0.829673 0.883066
Si Si4 0.796114 0.677305 0.821140
Si Si5 0.796631 0.829055 0.000000
Si Si6 0.328174 0.335847 0.582354
O O1 0.909701 0.250000 0.250000
O O2 0.924023 0.238060 0.164143
O O3 0.839037 0.237604 0.199122
O O4 0.890590 0.000000 0.204176
O O5 0.500000 0.500000 0.943891
O O6 0.456912 0.743632 0.920544
O O7 0.500000 0.731936 0.000000
O O8 0.378611 0.841123 0.902345
O O9 0.446522 0.000000 0.874413
O O10 0.798871 0.500000 0.808037
O O11 0.750000 0.750000 0.802001
O O12 0.796172 0.701096 0.875338
O O13 0.750000 0.750000 0.000000
O O14 0.824640 0.791480 0.044582
O O15 0.784826 0.000000 0.000000
O O16 0.314579 0.500000 0.562024
#
# Coordination Sequence:
#
# PCOD8284855 Si02
#       6
#    32  16  32  32  16  32
#     4  11  22  39  63  90 123 162 204 253 307 366
#     4  11  25  43  66  99 134 163 199 247 299 361
#     4  10  22  42  66  92 122 160 202 247 302 365
#     4  10  20  35  55  82 115 156 204 255 307 361
#     4  12  24  34  50  75 108 149 198 248 295 350
#     4   9  20  37  56  78 110 150 195 245 298 357
#
# _framework density 20.603566000000001
#
# number of rings (size 3 to 8) (size 9 to 14) (size 15 to 20)
#    0.000    1.700    0.000    6.000    1.400    7.600 
#    0.000    2.500    0.000    0.000    0.000    0.000 
#    0.000    0.000    0.000    0.000    0.000    0.000 
#
# Total GULP energy -495887.899883 kJ/mol
# GULP energy per Si atom -12397.197497 kJ/mol
# Density = 2.055667 g / cm^3
# Si number density = 20.603566 Si / 1000 Ang^3
#
#
#
# Elastic Constant Matrix: (Units=GPa)
#
#
# Indices 1 2 3 4 5 6 
#
# 1 59.7564 27.9949 34.7303 -0.0001 0.0000 0.0006
# 2 27.9949 173.8272 76.0010 -0.0002 0.0000 0.0010
# 3 34.7303 76.0010 142.0672 0.0000 0.0000 0.0001
# 4 -0.0001 -0.0002 0.0000 34.9736 0.0000 0.0001
# 5 0.0000 0.0000 0.0000 0.0000 12.1214 0.0000
# 6 0.0006 0.0010 0.0001 0.0001 0.0000 5.4497
#
#
#
# Elastic Compliance Matrix: (Units=1/GPa)
#
#
# Indices 1 2 3 4 5 6 
#
# 1 0.019763 -0.001397 -0.004084 0.000000 0.000000 -0.000002
# 2 -0.001397 0.007608 -0.003728 0.000000 0.000000 -0.000001
# 3 -0.004084 -0.003728 0.010032 0.000000 0.000000 0.000001
# 4 0.000000 0.000000 0.000000 0.028593 0.000000 -0.000001
# 5 0.000000 0.000000 0.000000 0.000000 0.082499 0.000000
# 6 -0.000002 -0.000001 0.000001 -0.000001 0.000000 0.183497
#
#
# Mechanical properties :
#
#
# Convention : Reuss Voigt Hill
#
# Bulk Modulus (GPa) = 52.67708 72.56700 62.62204
# Shear Modulus (GPa) = 14.01591 26.30392 20.15991
#
# Velocity S-wave (km/s) = 2.61102 3.57693 3.13144
# Velocity P-wave (km/s) = 5.89172 7.23576 6.59805
#
# Compressibility (1/GPa) = 0.01898359
#
# Stress axis : x y z
#
# Youngs Moduli (GPa) = 50.60039 131.44015 99.68262
#
# Poissons Ratio (x) = 0.18366 0.40708
# Poissons Ratio (y) = 0.07070 0.37166
# Poissons Ratio (z) = 0.20664 0.49007
#
# Static dielectric constant tensor:
#      x y z
#    x 3.705010 0.000000 0.000000 
#    y 0.000000 3.527750 0.000000 
#    z 0.000000 0.000000 3.817730 
# 
# 
# High freq. dielectric constant tensor:
#      x y z
#    x 1.792990 0.000000 0.000000 
#    y 0.000000 1.819680 0.000000 
#    z 0.000000 0.000000 1.813840 
# 
# From -- ./inp_files/5776.got.cif
#   From: 2010.03.12/outbox.cif.g09.slc.cpg/sg69_3_cif.got.tgz:5776.got - 2010.04.10 23:52:46.
