data_PCOD8284862
_publ_section_title
;
Structure prediction by ZEFSAII (Michael W. Deem and Ramdas Pophale) SiO2 
 PCOD8284862
Probable space group: F M M M
;
_chemical_formula_sum "Si O2"
_cell_formula_units_Z 192
_cell_length_a 27.978477
_cell_length_b 14.874779
_cell_length_c 23.090646
_cell_angle_alpha 90.000000
_cell_angle_beta 90.000000
_cell_angle_gamma 90.000000
_cell_volume 9609.718707
_symmetry_space_group_name_H-M "F M M M"
_symmetry_group_IT_number 69
_symmetry_cell_setting 'orthorhombic'
loop_
_space_group_symop_operation_xyz
x,y,z
-x,-y,z
x,-y,-z
-x,y,-z
-x,-y,-z
x,y,-z
-x,y,z
x,-y,z
x,1/2+y,1/2+z
-x,1/2-y,1/2+z
x,1/2-y,1/2-z
-x,1/2+y,1/2-z
-x,1/2-y,1/2-z
x,1/2+y,1/2-z
-x,1/2+y,1/2+z
x,1/2-y,1/2+z
1/2+x,y,1/2+z
1/2-x,-y,1/2+z
1/2+x,-y,1/2-z
1/2-x,y,1/2-z
1/2-x,-y,1/2-z
1/2+x,y,1/2-z
1/2-x,y,1/2+z
1/2+x,-y,1/2+z
1/2+x,1/2+y,z
1/2-x,1/2-y,z
1/2+x,1/2-y,-z
1/2-x,1/2+y,-z
1/2-x,1/2-y,-z
1/2+x,1/2+y,-z
1/2-x,1/2+y,z
1/2+x,1/2-y,z
loop_
_atom_site_type_symbol
_atom_site_label
_atom_site_fract_x
_atom_site_fract_y
_atom_site_fract_z
Si Si1 0.270550 0.847237 0.000000
Si Si2 0.413363 0.398306 0.622526
Si Si3 0.358745 0.606962 0.819453
Si Si4 0.764365 0.897810 0.875933
Si Si5 0.052929 0.228955 0.816087
Si Si6 0.820972 0.897289 0.697063
Si Si7 0.875716 0.897609 0.500000
O O1 0.250000 0.750000 0.000000
O O2 0.251084 0.894908 0.057460
O O3 0.327745 0.838813 0.000000
O O4 0.433149 0.500000 0.634037
O O5 0.447573 0.323488 0.649643
O O6 0.361029 0.387547 0.648690
O O7 0.409343 0.378086 0.554544
O O8 0.369592 0.500000 0.818797
O O9 0.318380 0.637802 0.865986
O O10 0.407332 0.658065 0.837899
O O11 0.339353 0.644405 0.757531
O O12 0.726112 0.850231 0.831903
O O13 0.765007 0.000000 0.855874
O O14 0.063649 0.250000 0.750000
O O15 0.000000 0.186325 0.824012
O O16 0.809215 0.000000 0.711031
O O17 0.857042 0.000000 0.500000
#
# Coordination Sequence:
#
# PCOD8284862 Si02
#       7
#    16  32  32  32  32  32  16
#     4  12  24  32  48  84 121 156 196 235 274 338
#     4  10  20  37  63  90 118 153 193 242 300 361
#     4  10  21  37  58  86 119 157 197 237 285 349
#     4  10  20  35  56  80 116 159 195 232 281 341
#     4  11  24  40  60  85 115 151 195 251 305 353
#     4   9  16  31  56  85 116 151 189 231 281 343
#     4  10  20  38  63  85 117 161 195 237 300 360
#
# _framework density 19.979773000000002
#
# number of rings (size 3 to 8) (size 9 to 14) (size 15 to 20)
#    0.000    1.833    3.333    1.250    2.333    2.667 
#    0.000    2.083    0.000    1.500    0.000    0.000 
#    0.000    4.000    0.000    0.000    0.000    0.000 
#
# Total GULP energy -594869.601295 kJ/mol
# GULP energy per Si atom -12393.116694 kJ/mol
# Density = 1.993430 g / cm^3
# Si number density = 19.979773 Si / 1000 Ang^3
#
#
#
# Elastic Constant Matrix: (Units=GPa)
#
#
# Indices 1 2 3 4 5 6 
#
# 1 113.1746 31.7100 28.6241 0.0000 0.0000 0.0000
# 2 31.7100 56.8343 13.3617 0.0000 0.0000 0.0000
# 3 28.6241 13.3617 101.9312 0.0000 0.0000 0.0000
# 4 0.0000 0.0000 0.0000 15.0437 0.0000 0.0000
# 5 0.0000 0.0000 0.0000 0.0000 54.3627 0.0000
# 6 0.0000 0.0000 0.0000 0.0000 0.0000 21.8860
#
#
#
# Elastic Compliance Matrix: (Units=1/GPa)
#
#
# Indices 1 2 3 4 5 6 
#
# 1 0.010996 -0.005581 -0.002356 0.000000 0.000000 0.000000
# 2 -0.005581 0.020987 -0.001184 0.000000 0.000000 0.000000
# 3 -0.002356 -0.001184 0.010627 0.000000 0.000000 0.000000
# 4 0.000000 0.000000 0.000000 0.066473 0.000000 0.000000
# 5 0.000000 0.000000 0.000000 0.000000 0.018395 0.000000
# 6 0.000000 0.000000 0.000000 0.000000 0.000000 0.045691
#
#
# Mechanical properties :
#
#
# Convention : Reuss Voigt Hill
#
# Bulk Modulus (GPa) = 41.03720 46.59241 43.81481
# Shear Modulus (GPa) = 25.05841 31.47478 28.26660
#
# Velocity S-wave (km/s) = 3.54530 3.97335 3.76541
# Velocity P-wave (km/s) = 6.11087 6.66487 6.39387
#
# Compressibility (1/GPa) = 0.02436814
#
# Stress axis : x y z
#
# Youngs Moduli (GPa) = 90.94616 47.64829 94.09656
#
# Poissons Ratio (x) = 0.26592 0.22171
# Poissons Ratio (y) = 0.50756 0.11140
# Poissons Ratio (z) = 0.21428 0.05641
#
# Static dielectric constant tensor:
#      x y z
#    x 3.663700 0.000000 0.000000 
#    y 0.000000 4.135920 0.000000 
#    z 0.000000 0.000000 3.560030 
# 
# 
# High freq. dielectric constant tensor:
#      x y z
#    x 1.771980 0.000000 0.000000 
#    y 0.000000 1.760530 0.000000 
#    z 0.000000 0.000000 1.775230 
# 
# From -- ./inp_files/38383.got.cif
#   From: 2010.03.12/outbox.cif.g09.slc.cpg/sg69_20_cif.got.tgz:38383.got - 2010.04.10 23:52:46.
