data_PCOD8284845
_publ_section_title
;
Structure prediction by ZEFSAII (Michael W. Deem and Ramdas Pophale) SiO2 
 PCOD8284845
Probable space group: F M M M
;
_chemical_formula_sum "Si O2"
_cell_formula_units_Z 144
_cell_length_a 9.023803
_cell_length_b 29.016676
_cell_length_c 30.757977
_cell_angle_alpha 90.000000
_cell_angle_beta 90.000000
_cell_angle_gamma 90.000000
_cell_volume 8053.692318
_symmetry_space_group_name_H-M "F M M M"
_symmetry_group_IT_number 69
_symmetry_cell_setting 'orthorhombic'
loop_
_space_group_symop_operation_xyz
x,y,z
-x,-y,z
x,-y,-z
-x,y,-z
-x,-y,-z
x,y,-z
-x,y,z
x,-y,z
x,1/2+y,1/2+z
-x,1/2-y,1/2+z
x,1/2-y,1/2-z
-x,1/2+y,1/2-z
-x,1/2-y,1/2-z
x,1/2+y,1/2-z
-x,1/2+y,1/2+z
x,1/2-y,1/2+z
1/2+x,y,1/2+z
1/2-x,-y,1/2+z
1/2+x,-y,1/2-z
1/2-x,y,1/2-z
1/2-x,-y,1/2-z
1/2+x,y,1/2-z
1/2-x,y,1/2+z
1/2+x,-y,1/2+z
1/2+x,1/2+y,z
1/2-x,1/2-y,z
1/2+x,1/2-y,-z
1/2-x,1/2+y,-z
1/2-x,1/2-y,-z
1/2+x,1/2+y,-z
1/2-x,1/2+y,z
1/2+x,1/2-y,z
loop_
_atom_site_type_symbol
_atom_site_label
_atom_site_fract_x
_atom_site_fract_y
_atom_site_fract_z
Si Si1 0.323986 0.797957 0.205260
Si Si2 0.173921 0.798184 0.451039
Si Si3 0.324711 0.050853 0.500000
Si Si4 0.325194 0.947007 0.405912
Si Si5 0.326837 0.862873 0.874177
O O1 0.500000 0.791189 0.210946
O O2 0.250000 0.815049 0.250000
O O3 0.250000 0.750000 0.190655
O O4 0.284923 0.835725 0.169303
O O5 0.213308 0.815172 0.500000
O O6 0.250000 0.750000 0.440617
O O7 0.233268 0.835096 0.416213
O O8 0.000000 0.790406 0.445345
O O9 0.500000 0.047299 0.500000
O O10 0.274680 0.072790 0.546060
O O11 0.256689 0.000000 0.500000
O O12 0.500000 0.944110 0.400045
O O13 0.249244 0.913104 0.371335
O O14 0.273109 0.000000 0.398946
O O15 0.500000 0.870942 0.878113
#
# Coordination Sequence:
#
# PCOD8284845 Si02
#       5
#    32  32  16  32  32
#     4  10  20  35  55  79 105 131 164 206 254 304
#     4   9  18  32  47  66  97 133 166 199 237 287
#     4   7  12  26  45  65  92 125 164 209 248 281
#     4   9  18  32  50  72  99 133 173 214 251 292
#     4  10  21  33  49  75 103 132 165 206 253 301
#
# _framework density 17.879996999999999
#
# number of rings (size 3 to 8) (size 9 to 14) (size 15 to 20)
#    0.000    2.778    0.000    3.333    1.556    3.111 
#    0.000    0.000    0.000    2.667    0.000    0.000 
#    0.000    0.000    0.000    0.000    0.000    0.000 
#
# Total GULP energy -446102.673744 kJ/mol
# GULP energy per Si atom -12391.740937 kJ/mol
# Density = 1.783930 g / cm^3
# Si number density = 17.879997 Si / 1000 Ang^3
#
#
#
# Elastic Constant Matrix: (Units=GPa)
#
#
# Indices 1 2 3 4 5 6 
#
# 1 46.7931 46.0136 44.4409 0.0000 0.0000 0.0000
# 2 46.0136 125.0596 82.0357 0.0000 0.0000 0.0000
# 3 44.4409 82.0357 108.5871 0.0000 0.0000 0.0000
# 4 0.0000 0.0000 0.0000 26.7099 0.0000 0.0000
# 5 0.0000 0.0000 0.0000 0.0000 24.5951 0.0000
# 6 0.0000 0.0000 0.0000 0.0000 0.0000 31.4009
#
#
#
# Elastic Compliance Matrix: (Units=1/GPa)
#
#
# Indices 1 2 3 4 5 6 
#
# 1 0.038238 -0.007540 -0.009953 0.000000 0.000000 0.000000
# 2 -0.007540 0.017339 -0.010013 0.000000 0.000000 0.000000
# 3 -0.009953 -0.010013 0.020848 0.000000 0.000000 0.000000
# 4 0.000000 0.000000 0.000000 0.037439 0.000000 0.000000
# 5 0.000000 0.000000 0.000000 0.000000 0.040659 0.000000
# 6 0.000000 0.000000 0.000000 0.000000 0.000000 0.031846
#
#
# Mechanical properties :
#
#
# Convention : Reuss Voigt Hill
#
# Bulk Modulus (GPa) = 46.70414 69.49111 58.09763
# Shear Modulus (GPa) = 20.11924 23.73781 21.92853
#
# Velocity S-wave (km/s) = 3.35810 3.64760 3.50584
# Velocity P-wave (km/s) = 6.41976 7.52925 6.99653
#
# Compressibility (1/GPa) = 0.02141138
#
# Stress axis : x y z
#
# Youngs Moduli (GPa) = 26.15218 57.67370 47.96729
#
# Poissons Ratio (x) = 0.43486 0.47742
# Poissons Ratio (y) = 0.19719 0.48031
# Poissons Ratio (z) = 0.26029 0.57751
#
# Static dielectric constant tensor:
#      x y z
#    x 3.121440 0.000000 0.000000 
#    y 0.000000 3.232200 0.000000 
#    z 0.000000 0.000000 3.387150 
# 
# 
# High freq. dielectric constant tensor:
#      x y z
#    x 1.679760 0.000000 0.000000 
#    y 0.000000 1.683520 0.000000 
#    z 0.000000 0.000000 1.682650 
# 
# From -- ./inp_files/5577.got.cif
#   From: 2010.03.12/outbox.cif.g09.slc.cpg/sg69_3_cif.got.tgz:5577.got - 2010.04.10 23:52:46.
