data_PCOD8284994
_publ_section_title
;
Structure prediction by ZEFSAII (Michael W. Deem and Ramdas Pophale) SiO2 
 PCOD8284994
Probable space group: F M M M
;
_chemical_formula_sum "Si O2"
_cell_formula_units_Z 144
_cell_length_a 16.040521
_cell_length_b 27.374353
_cell_length_c 16.650069
_cell_angle_alpha 90.000000
_cell_angle_beta 90.000000
_cell_angle_gamma 90.000000
_cell_volume 7311.026719
_symmetry_space_group_name_H-M "F M M M"
_symmetry_group_IT_number 69
_symmetry_cell_setting 'orthorhombic'
loop_
_space_group_symop_operation_xyz
x,y,z
-x,-y,z
x,-y,-z
-x,y,-z
-x,-y,-z
x,y,-z
-x,y,z
x,-y,z
x,1/2+y,1/2+z
-x,1/2-y,1/2+z
x,1/2-y,1/2-z
-x,1/2+y,1/2-z
-x,1/2-y,1/2-z
x,1/2+y,1/2-z
-x,1/2+y,1/2+z
x,1/2-y,1/2+z
1/2+x,y,1/2+z
1/2-x,-y,1/2+z
1/2+x,-y,1/2-z
1/2-x,y,1/2-z
1/2-x,-y,1/2-z
1/2+x,y,1/2-z
1/2-x,y,1/2+z
1/2+x,-y,1/2+z
1/2+x,1/2+y,z
1/2-x,1/2-y,z
1/2+x,1/2-y,-z
1/2-x,1/2+y,-z
1/2-x,1/2-y,-z
1/2+x,1/2+y,-z
1/2-x,1/2+y,z
1/2+x,1/2-y,z
loop_
_atom_site_type_symbol
_atom_site_label
_atom_site_fract_x
_atom_site_fract_y
_atom_site_fract_z
Si Si1 0.500000 0.446119 0.592734
Si Si2 0.857496 0.109371 0.675574
Si Si3 0.685623 0.135872 0.407497
Si Si4 0.597104 0.055511 0.326904
Si Si5 0.596067 0.197944 0.280973
O O1 0.500000 0.500000 0.636199
O O2 0.500000 0.456211 0.500000
O O3 0.581253 0.415110 0.612534
O O4 0.771617 0.118435 0.630956
O O5 0.847571 0.072482 0.750897
O O6 0.894163 0.160248 0.707861
O O7 0.696962 0.151111 0.500000
O O8 0.621171 0.090293 0.401543
O O9 0.650428 0.182162 0.358199
O O10 0.500000 0.062820 0.304553
O O11 0.617511 0.000000 0.350389
O O12 0.500000 0.201182 0.307943
O O13 0.629162 0.250000 0.250000
#
# Coordination Sequence:
#
# PCOD8284994 Si02
#       5
#    16  32  32  32  32
#     4  11  22  36  57  84 119 159 200 253 306 348
#     4  11  20  38  60  85 117 156 200 246 298 357
#     4  11  24  38  57  89 127 158 192 247 311 363
#     4  10  20  36  60  85 113 158 210 250 291 353
#     4  10  21  41  69  91 113 154 203 244 293 361
#
# _framework density 19.696275
#
# number of rings (size 3 to 8) (size 9 to 14) (size 15 to 20)
#    0.000    1.444    2.222    6.000    0.000    6.667 
#    0.000    4.444    0.000    0.000    0.000    0.000 
#    0.000    0.000    0.000    0.000    0.000    0.000 
#
# Total GULP energy -446390.508196 kJ/mol
# GULP energy per Si atom -12399.736339 kJ/mol
# Density = 1.965145 g / cm^3
# Si number density = 19.696275 Si / 1000 Ang^3
#
#
#
# Elastic Constant Matrix: (Units=GPa)
#
#
# Indices 1 2 3 4 5 6 
#
# 1 112.9181 44.2758 51.6014 0.0000 0.0000 0.0000
# 2 44.2758 132.0425 42.3255 0.0000 0.0000 0.0000
# 3 51.6014 42.3255 110.4650 0.0000 0.0000 0.0000
# 4 0.0000 0.0000 0.0000 21.9432 0.0000 0.0000
# 5 0.0000 0.0000 0.0000 0.0000 12.4176 0.0000
# 6 0.0000 0.0000 0.0000 0.0000 0.0000 7.4073
#
#
#
# Elastic Compliance Matrix: (Units=1/GPa)
#
#
# Indices 1 2 3 4 5 6 
#
# 1 0.011958 -0.002530 -0.004616 0.000000 0.000000 0.000000
# 2 -0.002530 0.009169 -0.002331 0.000000 0.000000 0.000000
# 3 -0.004616 -0.002331 0.012102 0.000000 0.000000 0.000000
# 4 0.000000 0.000000 0.000000 0.045572 0.000000 0.000000
# 5 0.000000 0.000000 0.000000 0.000000 0.080531 0.000000
# 6 0.000000 0.000000 0.000000 0.000000 0.000000 0.135003
#
#
# Mechanical properties :
#
#
# Convention : Reuss Voigt Hill
#
# Bulk Modulus (GPa) = 70.05913 70.20346 70.13129
# Shear Modulus (GPa) = 15.72091 22.83513 19.27802
#
# Velocity S-wave (km/s) = 2.82825 3.40864 3.13192
# Velocity P-wave (km/s) = 6.80531 7.15626 6.98299
#
# Compressibility (1/GPa) = 0.01427366
#
# Stress axis : x y z
#
# Youngs Moduli (GPa) = 83.62933 109.06424 82.62826
#
# Poissons Ratio (x) = 0.27591 0.38145
# Poissons Ratio (y) = 0.21156 0.19264
# Poissons Ratio (z) = 0.38607 0.25427
#
# Static dielectric constant tensor:
#      x y z
#    x 3.776740 0.000000 0.000000 
#    y 0.000000 3.763910 0.000000 
#    z 0.000000 0.000000 3.435010 
# 
# 
# High freq. dielectric constant tensor:
#      x y z
#    x 1.777380 0.000000 0.000000 
#    y 0.000000 1.772400 0.000000 
#    z 0.000000 0.000000 1.750480 
# 
# From -- ./inp_files/21729.got.cif
#   From: 2010.03.12/outbox.cif.g09.slc.cpg/sg69_11_cif.got.tgz:21729.got - 2010.04.10 23:52:46.
