data_PCOD8284496
_publ_section_title
;
Structure prediction by ZEFSAII (Michael W. Deem and Ramdas Pophale) SiO2 
 PCOD8284496
Probable space group: F M M M
;
_chemical_formula_sum "Si O2"
_cell_formula_units_Z 160
_cell_length_a 17.303451
_cell_length_b 28.074695
_cell_length_c 17.595949
_cell_angle_alpha 90.000000
_cell_angle_beta 90.000000
_cell_angle_gamma 90.000000
_cell_volume 8547.920392
_symmetry_space_group_name_H-M "F M M M"
_symmetry_group_IT_number 69
_symmetry_cell_setting 'orthorhombic'
loop_
_space_group_symop_operation_xyz
x,y,z
-x,-y,z
x,-y,-z
-x,y,-z
-x,-y,-z
x,y,-z
-x,y,z
x,-y,z
x,1/2+y,1/2+z
-x,1/2-y,1/2+z
x,1/2-y,1/2-z
-x,1/2+y,1/2-z
-x,1/2-y,1/2-z
x,1/2+y,1/2-z
-x,1/2+y,1/2+z
x,1/2-y,1/2+z
1/2+x,y,1/2+z
1/2-x,-y,1/2+z
1/2+x,-y,1/2-z
1/2-x,y,1/2-z
1/2-x,-y,1/2-z
1/2+x,y,1/2-z
1/2-x,y,1/2+z
1/2+x,-y,1/2+z
1/2+x,1/2+y,z
1/2-x,1/2-y,z
1/2+x,1/2-y,-z
1/2-x,1/2+y,-z
1/2-x,1/2-y,-z
1/2+x,1/2+y,-z
1/2-x,1/2+y,z
1/2+x,1/2-y,z
loop_
_atom_site_type_symbol
_atom_site_label
_atom_site_fract_x
_atom_site_fract_y
_atom_site_fract_z
Si Si1 0.161718 0.205517 0.910142
Si Si2 0.408972 0.051416 0.767209
Si Si3 0.089620 0.848516 0.214268
Si Si4 0.833562 0.191412 0.360323
Si Si5 0.911028 0.900070 0.416961
O O1 0.099763 0.170157 0.871567
O O2 0.133298 0.259149 0.893648
O O3 0.241369 0.193912 0.867232
O O4 0.167804 0.196185 0.000000
O O5 0.500000 0.046490 0.760410
O O6 0.380958 0.096262 0.716532
O O7 0.383990 0.061775 0.854396
O O8 0.371980 0.000000 0.742947
O O9 0.139145 0.816427 0.273209
O O10 0.000000 0.845876 0.238575
O O11 0.863484 0.148633 0.412101
O O12 0.897850 0.922855 0.500000
O O13 0.000000 0.886400 0.402908
#
# Coordination Sequence:
#
# PCOD8284496 Si02
#       5
#    32  32  32  32  32
#     4  11  22  34  51  74 102 137 172 205 241 288
#     4   8  15  29  48  69  94 125 162 204 248 296
#     4  10  21  35  53  77 101 129 167 209 251 293
#     4  10  19  35  52  71  99 135 173 200 237 296
#     4   9  16  26  45  74 103 128 157 201 254 299
#
# _framework density 18.718003
#
# number of rings (size 3 to 8) (size 9 to 14) (size 15 to 20)
#    0.000    2.400    0.000    5.400    0.000    4.800 
#    0.000    2.000    0.000   10.200    0.000    2.800 
#    0.000    0.000    0.000    0.000    0.000    0.000 
#
# Total GULP energy -495666.506189 kJ/mol
# GULP energy per Si atom -12391.662655 kJ/mol
# Density = 1.867540 g / cm^3
# Si number density = 18.718003 Si / 1000 Ang^3
#
#
#
# Elastic Constant Matrix: (Units=GPa)
#
#
# Indices 1 2 3 4 5 6 
#
# 1 34.1004 22.8755 22.1583 0.0000 0.0000 0.0000
# 2 22.8755 117.5004 48.2686 0.0000 0.0000 0.0000
# 3 22.1583 48.2686 98.2091 0.0000 0.0000 0.0000
# 4 0.0000 0.0000 0.0000 23.5226 0.0000 0.0000
# 5 0.0000 0.0000 0.0000 0.0000 21.8462 0.0000
# 6 0.0000 0.0000 0.0000 0.0000 0.0000 8.9487
#
#
#
# Elastic Compliance Matrix: (Units=1/GPa)
#
#
# Indices 1 2 3 4 5 6 
#
# 1 0.036272 -0.004636 -0.005906 0.000000 0.000000 0.000000
# 2 -0.004636 0.011256 -0.004486 0.000000 0.000000 0.000000
# 3 -0.005906 -0.004486 0.013720 0.000000 0.000000 0.000000
# 4 0.000000 0.000000 0.000000 0.042512 0.000000 0.000000
# 5 0.000000 0.000000 0.000000 0.000000 0.045774 0.000000
# 6 0.000000 0.000000 0.000000 0.000000 0.000000 0.111748
#
#
# Mechanical properties :
#
#
# Convention : Reuss Voigt Hill
#
# Bulk Modulus (GPa) = 32.05837 48.49053 40.27445
# Shear Modulus (GPa) = 16.57081 21.29735 18.93408
#
# Velocity S-wave (km/s) = 2.97861 3.37679 3.18393
# Velocity P-wave (km/s) = 5.38458 6.41605 5.92281
#
# Compressibility (1/GPa) = 0.03119310
#
# Stress axis : x y z
#
# Youngs Moduli (GPa) = 27.56924 88.84101 72.88770
#
# Poissons Ratio (x) = 0.41184 0.43044
# Poissons Ratio (y) = 0.12780 0.32700
# Poissons Ratio (z) = 0.16281 0.39857
#
# Static dielectric constant tensor:
#      x y z
#    x 3.159550 0.000000 0.000000 
#    y 0.000000 3.823570 0.000000 
#    z 0.000000 0.000000 3.335340 
# 
# 
# High freq. dielectric constant tensor:
#      x y z
#    x 1.698430 0.000000 0.000000 
#    y 0.000000 1.726930 0.000000 
#    z 0.000000 0.000000 1.717190 
# 
# From -- ./inp_files/23165.got.cif
#   From: 2010.03.12/outbox.cif.g09.slc.cpg/sg69_12_cif.got.tgz:23165.got - 2010.04.10 23:52:46.
