data_PCOD8284409
_publ_section_title
;
Structure prediction by ZEFSAII (Michael W. Deem and Ramdas Pophale) SiO2 
 PCOD8284409
Probable space group: F M M M
;
_chemical_formula_sum "Si O2"
_cell_formula_units_Z 144
_cell_length_a 22.756712
_cell_length_b 19.639560
_cell_length_c 16.429728
_cell_angle_alpha 90.000000
_cell_angle_beta 90.000000
_cell_angle_gamma 90.000000
_cell_volume 7342.968085
_symmetry_space_group_name_H-M "F M M M"
_symmetry_group_IT_number 69
_symmetry_cell_setting 'orthorhombic'
loop_
_space_group_symop_operation_xyz
x,y,z
-x,-y,z
x,-y,-z
-x,y,-z
-x,-y,-z
x,y,-z
-x,y,z
x,-y,z
x,1/2+y,1/2+z
-x,1/2-y,1/2+z
x,1/2-y,1/2-z
-x,1/2+y,1/2-z
-x,1/2-y,1/2-z
x,1/2+y,1/2-z
-x,1/2+y,1/2+z
x,1/2-y,1/2+z
1/2+x,y,1/2+z
1/2-x,-y,1/2+z
1/2+x,-y,1/2-z
1/2-x,y,1/2-z
1/2-x,-y,1/2-z
1/2+x,y,1/2-z
1/2-x,y,1/2+z
1/2+x,-y,1/2+z
1/2+x,1/2+y,z
1/2-x,1/2-y,z
1/2+x,1/2-y,-z
1/2-x,1/2+y,-z
1/2-x,1/2-y,-z
1/2+x,1/2+y,-z
1/2-x,1/2+y,z
1/2+x,1/2-y,z
loop_
_atom_site_type_symbol
_atom_site_label
_atom_site_fract_x
_atom_site_fract_y
_atom_site_fract_z
Si Si1 0.750000 0.250000 0.872638
Si Si2 0.067119 0.500000 0.720079
Si Si3 0.068875 0.577469 0.000000
Si Si4 0.348825 0.750000 0.750000
Si Si5 0.769932 0.396846 0.911007
Si Si6 0.614069 0.883691 0.829975
Si Si7 0.671073 0.000000 0.594041
O O1 0.694010 0.275713 0.821070
O O2 0.764185 0.315996 0.925640
O O3 0.076530 0.434511 0.775921
O O4 0.111030 0.500000 0.644173
O O5 0.000000 0.500000 0.688000
O O6 0.088283 0.620460 0.920953
O O7 0.094710 0.500000 0.000000
O O8 0.000000 0.572557 0.000000
O O9 0.389283 0.810959 0.784430
O O10 0.818492 0.410105 0.840911
O O11 0.709563 0.433153 0.883859
O O12 0.789323 0.426353 0.000000
O O13 0.652379 0.000000 0.500000
#
# Coordination Sequence:
#
# PCOD8284409 Si02
#       7
#    16  16  16  16  32  32  16
#     4   9  17  32  52  81 124 159 190 229 287 378
#     4  12  25  41  61  83 112 164 213 253 301 356
#     4  11  22  38  60  89 122 163 207 256 307 360
#     4   9  20  34  55  86 118 158 199 239 306 354
#     4  10  19  33  56  90 122 150 187 238 305 362
#     4  11  21  37  62  92 124 158 200 251 304 372
#     4  10  23  38  58  88 119 151 195 252 303 360
#
# _framework density 19.610598
#
# number of rings (size 3 to 8) (size 9 to 14) (size 15 to 20)
#    0.000    1.667    2.222    3.000    0.000    3.778 
#    0.000    2.222    2.444    0.000    0.000    0.000 
#    0.000    0.000    0.000    0.000    0.000    0.000 
#
# Total GULP energy -446202.912064 kJ/mol
# GULP energy per Si atom -12394.525335 kJ/mol
# Density = 1.956596 g / cm^3
# Si number density = 19.610598 Si / 1000 Ang^3
#
#
#
# Elastic Constant Matrix: (Units=GPa)
#
#
# Indices 1 2 3 4 5 6 
#
# 1 111.6880 50.7298 47.6135 0.0000 0.0000 0.0000
# 2 50.7298 125.4236 49.5138 0.0000 0.0000 0.0000
# 3 47.6135 49.5138 105.8356 0.0000 0.0000 0.0000
# 4 0.0000 0.0000 0.0000 43.6689 0.0000 0.0000
# 5 0.0000 0.0000 0.0000 0.0000 24.5325 0.0000
# 6 0.0000 0.0000 0.0000 0.0000 0.0000 16.8219
#
#
#
# Elastic Compliance Matrix: (Units=1/GPa)
#
#
# Indices 1 2 3 4 5 6 
#
# 1 0.012143 -0.003379 -0.003882 0.000000 0.000000 0.000000
# 2 -0.003379 0.010719 -0.003495 0.000000 0.000000 0.000000
# 3 -0.003882 -0.003495 0.012830 0.000000 0.000000 0.000000
# 4 0.000000 0.000000 0.000000 0.022900 0.000000 0.000000
# 5 0.000000 0.000000 0.000000 0.000000 0.040762 0.000000
# 6 0.000000 0.000000 0.000000 0.000000 0.000000 0.059446
#
#
# Mechanical properties :
#
#
# Convention : Reuss Voigt Hill
#
# Bulk Modulus (GPa) = 70.51777 70.96236 70.74007
# Shear Modulus (GPa) = 27.02121 30.01066 28.51593
#
# Velocity S-wave (km/s) = 3.71602 3.91619 3.81741
# Velocity P-wave (km/s) = 7.37894 7.53080 7.45526
#
# Compressibility (1/GPa) = 0.01418082
#
# Stress axis : x y z
#
# Youngs Moduli (GPa) = 82.34986 93.28976 77.94145
#
# Poissons Ratio (x) = 0.31522 0.30259
# Poissons Ratio (y) = 0.27826 0.27239
# Poissons Ratio (z) = 0.31970 0.32602
#
# Static dielectric constant tensor:
#      x y z
#    x 3.438830 0.000000 0.000000 
#    y 0.000000 3.774500 0.000000 
#    z 0.000000 0.000000 3.516360 
# 
# 
# High freq. dielectric constant tensor:
#      x y z
#    x 1.744010 0.000000 0.000000 
#    y 0.000000 1.760780 0.000000 
#    z 0.000000 0.000000 1.767220 
# 
# From -- ./inp_files/25784.got.cif
#   From: 2010.03.12/outbox.cif.g09.slc.cpg/sg69_13_cif.got.tgz:25784.got - 2010.04.10 23:52:46.
