data_PCOD8284490
_publ_section_title
;
Structure prediction by ZEFSAII (Michael W. Deem and Ramdas Pophale) SiO2 
 PCOD8284490
Probable space group: F M M M
;
_chemical_formula_sum "Si O2"
_cell_formula_units_Z 128
_cell_length_a 23.871464
_cell_length_b 28.777309
_cell_length_c 9.247888
_cell_angle_alpha 90.000000
_cell_angle_beta 90.000000
_cell_angle_gamma 90.000000
_cell_volume 6352.896734
_symmetry_space_group_name_H-M "F M M M"
_symmetry_group_IT_number 69
_symmetry_cell_setting 'orthorhombic'
loop_
_space_group_symop_operation_xyz
x,y,z
-x,-y,z
x,-y,-z
-x,y,-z
-x,-y,-z
x,y,-z
-x,y,z
x,-y,z
x,1/2+y,1/2+z
-x,1/2-y,1/2+z
x,1/2-y,1/2-z
-x,1/2+y,1/2-z
-x,1/2-y,1/2-z
x,1/2+y,1/2-z
-x,1/2+y,1/2+z
x,1/2-y,1/2+z
1/2+x,y,1/2+z
1/2-x,-y,1/2+z
1/2+x,-y,1/2-z
1/2-x,y,1/2-z
1/2-x,-y,1/2-z
1/2+x,y,1/2-z
1/2-x,y,1/2+z
1/2+x,-y,1/2+z
1/2+x,1/2+y,z
1/2-x,1/2-y,z
1/2+x,1/2-y,-z
1/2-x,1/2+y,-z
1/2-x,1/2-y,-z
1/2+x,1/2+y,-z
1/2-x,1/2+y,z
1/2+x,1/2-y,z
loop_
_atom_site_type_symbol
_atom_site_label
_atom_site_fract_x
_atom_site_fract_y
_atom_site_fract_z
Si Si1 0.500000 0.051617 0.266275
Si Si2 0.307063 0.634963 0.333272
Si Si3 0.500000 0.151273 0.659519
Si Si4 0.094335 0.798451 0.331409
Si Si5 0.622268 0.050043 0.834474
O O1 0.500000 0.095703 0.373017
O O2 0.444466 0.057374 0.170149
O O3 0.500000 0.000000 0.342478
O O4 0.293100 0.625507 0.500000
O O5 0.250000 0.642675 0.250000
O O6 0.343055 0.681875 0.317032
O O7 0.341913 0.591721 0.262784
O O8 0.500000 0.174989 0.500000
O O9 0.446273 0.165457 0.752521
O O10 0.077301 0.793028 0.500000
O O11 0.089733 0.750000 0.250000
O O12 0.638097 0.000000 0.762077
O O13 0.639715 0.049209 0.000000
#
# Coordination Sequence:
#
# PCOD8284490 Si02
#       5
#    16  32  16  32  32
#     4  10  19  34  59  91 126 158 196 240 294 356
#     4  10  22  39  60  86 118 157 202 251 297 351
#     4  12  24  39  63  94 128 162 194 240 298 358
#     4  11  24  43  65  90 120 156 200 249 303 362
#     4   9  17  32  57  88 120 156 198 243 295 356
#
# _framework density 20.148288999999998
#
# number of rings (size 3 to 8) (size 9 to 14) (size 15 to 20)
#    0.000    1.750    2.500    1.875    0.000    5.750 
#    0.000    2.500    0.000    0.000    0.000    0.000 
#    0.000    0.000    0.000    0.000    0.000    0.000 
#
# Total GULP energy -396496.300393 kJ/mol
# GULP energy per Si atom -12390.509387 kJ/mol
# Density = 2.010243 g / cm^3
# Si number density = 20.148289 Si / 1000 Ang^3
#
#
#
# Elastic Constant Matrix: (Units=GPa)
#
#
# Indices 1 2 3 4 5 6 
#
# 1 117.6550 39.8752 49.1545 0.0006 -0.0009 0.0001
# 2 39.8752 136.1681 47.4428 0.0012 -0.0015 -0.0003
# 3 49.1545 47.4428 102.3235 0.0024 -0.0055 0.0000
# 4 0.0006 0.0012 0.0024 20.3786 -0.0017 -0.0001
# 5 -0.0009 -0.0015 -0.0055 -0.0017 24.1998 0.0003
# 6 0.0001 -0.0003 0.0000 -0.0001 0.0003 22.5414
#
#
#
# Elastic Compliance Matrix: (Units=1/GPa)
#
#
# Indices 1 2 3 4 5 6 
#
# 1 0.010931 -0.001636 -0.004493 0.000000 -0.000001 0.000000
# 2 -0.001636 0.009004 -0.003389 0.000000 0.000000 0.000000
# 3 -0.004493 -0.003389 0.013502 -0.000001 0.000003 0.000000
# 4 0.000000 0.000000 -0.000001 0.049071 0.000004 0.000000
# 5 -0.000001 0.000000 0.000003 0.000004 0.041323 -0.000001
# 6 0.000000 0.000000 0.000000 0.000000 -0.000001 0.044363
#
#
# Mechanical properties :
#
#
# Convention : Reuss Voigt Hill
#
# Bulk Modulus (GPa) = 69.43215 69.89906 69.66561
# Shear Modulus (GPa) = 26.03789 28.06891 27.05340
#
# Velocity S-wave (km/s) = 3.59878 3.73650 3.66828
# Velocity P-wave (km/s) = 7.19747 7.30636 7.25212
#
# Compressibility (1/GPa) = 0.01440255
#
# Stress axis : x y z
#
# Youngs Moduli (GPa) = 91.48543 111.06734 74.06143
#
# Poissons Ratio (x) = 0.18167 0.33272
# Poissons Ratio (y) = 0.14964 0.25098
# Poissons Ratio (z) = 0.41100 0.37638
#
# Static dielectric constant tensor:
#      x y z
#    x 3.562200 0.000000 0.000010 
#    y 0.000000 4.074000 0.000000 
#    z 0.000010 0.000000 3.329620 
# 
# 
# High freq. dielectric constant tensor:
#      x y z
#    x 1.780020 0.000000 0.000000 
#    y 0.000000 1.806820 0.000000 
#    z 0.000000 0.000000 1.757750 
# 
# From -- ./inp_files/4790.got.cif
#   From: 2010.03.12/outbox.cif.g09.slc.cpg/sg69_3_cif.got.tgz:4790.got - 2010.04.10 23:52:46.
