data_PCOD8284061
_publ_section_title
;
Structure prediction by ZEFSAII (Michael W. Deem and Ramdas Pophale) SiO2 
 PCOD8284061
Probable space group: F M M M
;
_chemical_formula_sum "Si O2"
_cell_formula_units_Z 144
_cell_length_a 19.261286
_cell_length_b 22.639817
_cell_length_c 16.683266
_cell_angle_alpha 90.000000
_cell_angle_beta 90.000000
_cell_angle_gamma 90.000000
_cell_volume 7275.105008
_symmetry_space_group_name_H-M "F M M M"
_symmetry_group_IT_number 69
_symmetry_cell_setting 'orthorhombic'
loop_
_space_group_symop_operation_xyz
x,y,z
-x,-y,z
x,-y,-z
-x,y,-z
-x,-y,-z
x,y,-z
-x,y,z
x,-y,z
x,1/2+y,1/2+z
-x,1/2-y,1/2+z
x,1/2-y,1/2-z
-x,1/2+y,1/2-z
-x,1/2-y,1/2-z
x,1/2+y,1/2-z
-x,1/2+y,1/2+z
x,1/2-y,1/2+z
1/2+x,y,1/2+z
1/2-x,-y,1/2+z
1/2+x,-y,1/2-z
1/2-x,y,1/2-z
1/2-x,-y,1/2-z
1/2+x,y,1/2-z
1/2-x,y,1/2+z
1/2+x,-y,1/2+z
1/2+x,1/2+y,z
1/2-x,1/2-y,z
1/2+x,1/2-y,-z
1/2-x,1/2+y,-z
1/2-x,1/2-y,-z
1/2+x,1/2+y,-z
1/2-x,1/2+y,z
1/2+x,1/2-y,z
loop_
_atom_site_type_symbol
_atom_site_label
_atom_site_fract_x
_atom_site_fract_y
_atom_site_fract_z
Si Si1 0.077992 0.000000 0.904798
Si Si2 0.922950 0.834907 0.593983
Si Si3 0.327434 0.764140 0.342932
Si Si4 0.828294 0.391845 0.404764
Si Si5 0.677672 0.065651 0.095418
O O1 0.117306 0.941208 0.875375
O O2 0.000000 0.000000 0.869960
O O3 0.077675 0.000000 0.000000
O O4 0.929452 0.844022 0.500000
O O5 0.883005 0.774350 0.609519
O O6 0.880497 0.890285 0.630903
O O7 0.000000 0.832983 0.632677
O O8 0.333480 0.750000 0.250000
O O9 0.250000 0.750000 0.375298
O O10 0.347184 0.831762 0.359260
O O11 0.831071 0.381724 0.500000
O O12 0.752613 0.412327 0.375648
O O13 0.663195 0.000000 0.129168
O O14 0.676398 0.064906 0.000000
#
# Coordination Sequence:
#
# PCOD8284061 Si02
#       5
#    16  32  32  32  32
#     4   9  18  32  54  89 121 141 178 235 287 339
#     4  10  21  36  56  83 111 142 187 238 283 330
#     4  11  23  37  56  81 113 153 193 232 280 336
#     4  10  18  32  58  86 112 147 186 228 281 337
#     4   9  16  29  53  83 110 139 178 225 281 338
#
# _framework density 19.793527999999998
#
# number of rings (size 3 to 8) (size 9 to 14) (size 15 to 20)
#    0.000    2.111    3.333    0.667    0.000    2.667 
#    0.000    4.444    2.444    2.667    0.000    0.000 
#    0.000    0.000    0.000    0.000    0.000    0.000 
#
# Total GULP energy -446418.967196 kJ/mol
# GULP energy per Si atom -12400.526867 kJ/mol
# Density = 1.974848 g / cm^3
# Si number density = 19.793528 Si / 1000 Ang^3
#
#
#
# Elastic Constant Matrix: (Units=GPa)
#
#
# Indices 1 2 3 4 5 6 
#
# 1 188.5099 100.0262 17.8573 0.0000 0.0000 0.0000
# 2 100.0262 216.1745 23.6850 0.0000 0.0000 0.0000
# 3 17.8573 23.6850 23.0337 0.0000 0.0000 0.0000
# 4 0.0000 0.0000 0.0000 13.6298 0.0000 0.0000
# 5 0.0000 0.0000 0.0000 0.0000 12.1511 0.0000
# 6 0.0000 0.0000 0.0000 0.0000 0.0000 24.4412
#
#
#
# Elastic Compliance Matrix: (Units=1/GPa)
#
#
# Indices 1 2 3 4 5 6 
#
# 1 0.007148 -0.003043 -0.002412 0.000000 0.000000 0.000000
# 2 -0.003043 0.006509 -0.004334 0.000000 0.000000 0.000000
# 3 -0.002412 -0.004334 0.049741 0.000000 0.000000 0.000000
# 4 0.000000 0.000000 0.000000 0.073369 0.000000 0.000000
# 5 0.000000 0.000000 0.000000 0.000000 0.082297 0.000000
# 6 0.000000 0.000000 0.000000 0.000000 0.000000 0.040914
#
#
# Mechanical properties :
#
#
# Convention : Reuss Voigt Hill
#
# Bulk Modulus (GPa) = 22.82083 78.98391 50.90237
# Shear Modulus (GPa) = 16.99738 29.12106 23.05922
#
# Velocity S-wave (km/s) = 2.93360 3.83984 3.41689
# Velocity P-wave (km/s) = 4.79887 7.72332 6.42957
#
# Compressibility (1/GPa) = 0.04381962
#
# Stress axis : x y z
#
# Youngs Moduli (GPa) = 139.89868 153.63814 20.10407
#
# Poissons Ratio (x) = 0.46754 0.04850
# Poissons Ratio (y) = 0.42573 0.08712
# Poissons Ratio (z) = 0.33750 0.66581
#
# Static dielectric constant tensor:
#      x y z
#    x 3.916940 0.000000 0.000000 
#    y 0.000000 3.802380 0.000000 
#    z 0.000000 0.000000 3.056600 
# 
# 
# High freq. dielectric constant tensor:
#      x y z
#    x 1.774240 0.000000 0.000000 
#    y 0.000000 1.788780 0.000000 
#    z 0.000000 0.000000 1.722490 
# 
# From -- ./inp_files/22866.got.cif
#   From: 2010.03.12/outbox.cif.g09.slc.cpg/sg69_12_cif.got.tgz:22866.got - 2010.04.10 23:52:46.
