data_PCOD8284817
_publ_section_title
;
Structure prediction by ZEFSAII (Michael W. Deem and Ramdas Pophale) SiO2 
 PCOD8284817
Probable space group: F M M M
;
_chemical_formula_sum "Si O2"
_cell_formula_units_Z 144
_cell_length_a 9.110796
_cell_length_b 28.222627
_cell_length_c 30.876946
_cell_angle_alpha 90.000000
_cell_angle_beta 90.000000
_cell_angle_gamma 90.000000
_cell_volume 7939.407564
_symmetry_space_group_name_H-M "F M M M"
_symmetry_group_IT_number 69
_symmetry_cell_setting 'orthorhombic'
loop_
_space_group_symop_operation_xyz
x,y,z
-x,-y,z
x,-y,-z
-x,y,-z
-x,-y,-z
x,y,-z
-x,y,z
x,-y,z
x,1/2+y,1/2+z
-x,1/2-y,1/2+z
x,1/2-y,1/2-z
-x,1/2+y,1/2-z
-x,1/2-y,1/2-z
x,1/2+y,1/2-z
-x,1/2+y,1/2+z
x,1/2-y,1/2+z
1/2+x,y,1/2+z
1/2-x,-y,1/2+z
1/2+x,-y,1/2-z
1/2-x,y,1/2-z
1/2-x,-y,1/2-z
1/2+x,y,1/2-z
1/2-x,y,1/2+z
1/2+x,-y,1/2+z
1/2+x,1/2+y,z
1/2-x,1/2-y,z
1/2+x,1/2-y,-z
1/2-x,1/2+y,-z
1/2-x,1/2-y,-z
1/2+x,1/2+y,-z
1/2-x,1/2+y,z
1/2+x,1/2-y,z
loop_
_atom_site_type_symbol
_atom_site_label
_atom_site_fract_x
_atom_site_fract_y
_atom_site_fract_z
Si Si1 0.332609 0.055845 0.450689
Si Si2 0.671914 0.699354 0.094104
Si Si3 0.334704 0.702285 0.000000
Si Si4 0.173342 0.388814 0.877003
Si Si5 0.328036 0.445885 0.707248
O O1 0.299677 0.071933 0.500000
O O2 0.500000 0.069613 0.438649
O O3 0.221341 0.081747 0.418878
O O4 0.308727 0.000000 0.446093
O O5 0.500000 0.705064 0.104936
O O6 0.750000 0.750000 0.098768
O O7 0.697145 0.675984 0.045643
O O8 0.747755 0.662215 0.126184
O O9 0.250000 0.750000 0.000000
O O10 0.500000 0.719563 0.000000
O O11 0.223812 0.416335 0.834152
O O12 0.000000 0.381329 0.879039
O O13 0.500000 0.441530 0.714621
O O14 0.279595 0.500000 0.699146
O O15 0.250000 0.425316 0.750000
#
# Coordination Sequence:
#
# PCOD8284817 Si02
#       5
#    32  32  16  32  32
#     4   9  19  35  52  72 103 143 184 222 259 307
#     4  10  20  35  53  75 104 141 182 226 270 314
#     4   8  16  30  48  68  93 128 171 218 260 299
#     4  11  22  34  52  80 110 141 176 218 268 323
#     4   9  19  36  57  81 109 138 172 217 266 318
#
# _framework density 18.137374000000001
#
# number of rings (size 3 to 8) (size 9 to 14) (size 15 to 20)
#    0.000    2.444    0.000    2.667    1.556    4.444 
#    0.000    3.333    0.000    0.667    0.000    4.667 
#    0.000    0.000    0.000    0.000    0.000    0.000 
#
# Total GULP energy -446244.546439 kJ/mol
# GULP energy per Si atom -12395.681846 kJ/mol
# Density = 1.809609 g / cm^3
# Si number density = 18.137374 Si / 1000 Ang^3
#
#
#
# Elastic Constant Matrix: (Units=GPa)
#
#
# Indices 1 2 3 4 5 6 
#
# 1 83.0454 48.7302 54.2768 0.0000 0.0000 0.0000
# 2 48.7302 82.1054 67.0884 0.0000 0.0000 0.0000
# 3 54.2768 67.0884 116.5677 0.0000 0.0000 0.0000
# 4 0.0000 0.0000 0.0000 23.3805 0.0000 0.0000
# 5 0.0000 0.0000 0.0000 0.0000 29.7081 0.0000
# 6 0.0000 0.0000 0.0000 0.0000 0.0000 32.7845
#
#
#
# Elastic Compliance Matrix: (Units=1/GPa)
#
#
# Indices 1 2 3 4 5 6 
#
# 1 0.019709 -0.007927 -0.004615 0.000000 0.000000 0.000000
# 2 -0.007927 0.026180 -0.011376 0.000000 0.000000 0.000000
# 3 -0.004615 -0.011376 0.017275 0.000000 0.000000 0.000000
# 4 0.000000 0.000000 0.000000 0.042771 0.000000 0.000000
# 5 0.000000 0.000000 0.000000 0.000000 0.033661 0.000000
# 6 0.000000 0.000000 0.000000 0.000000 0.000000 0.030502
#
#
# Mechanical properties :
#
#
# Convention : Reuss Voigt Hill
#
# Bulk Modulus (GPa) = 65.24102 69.10102 67.17102
# Shear Modulus (GPa) = 22.41721 24.61614 23.51668
#
# Velocity S-wave (km/s) = 3.51945 3.68802 3.60472
# Velocity P-wave (km/s) = 7.25010 7.50445 7.37837
#
# Compressibility (1/GPa) = 0.01532778
#
# Stress axis : x y z
#
# Youngs Moduli (GPa) = 50.73786 38.19773 57.88685
#
# Poissons Ratio (x) = 0.30278 0.26715
# Poissons Ratio (y) = 0.40217 0.65854
# Poissons Ratio (z) = 0.23416 0.43455
#
# Static dielectric constant tensor:
#      x y z
#    x 3.325950 0.000000 0.000000 
#    y 0.000000 3.231700 0.000000 
#    z 0.000000 0.000000 3.310760 
# 
# 
# High freq. dielectric constant tensor:
#      x y z
#    x 1.706640 0.000000 0.000000 
#    y 0.000000 1.699000 0.000000 
#    z 0.000000 0.000000 1.688250 
# 
# From -- ./inp_files/5587.got.cif
#   From: 2010.03.12/outbox.cif.g09.slc.cpg/sg69_3_cif.got.tgz:5587.got - 2010.04.10 23:52:46.
