data_PCOD8284303
_publ_section_title
;
Structure prediction by ZEFSAII (Michael W. Deem and Ramdas Pophale) SiO2 
 PCOD8284303
Probable space group: F M M M
;
_chemical_formula_sum "Si O2"
_cell_formula_units_Z 176
_cell_length_a 26.795548
_cell_length_b 17.019333
_cell_length_c 19.093649
_cell_angle_alpha 90.000000
_cell_angle_beta 90.000000
_cell_angle_gamma 90.000000
_cell_volume 8707.512643
_symmetry_space_group_name_H-M "F M M M"
_symmetry_group_IT_number 69
_symmetry_cell_setting 'orthorhombic'
loop_
_space_group_symop_operation_xyz
x,y,z
-x,-y,z
x,-y,-z
-x,y,-z
-x,-y,-z
x,y,-z
-x,y,z
x,-y,z
x,1/2+y,1/2+z
-x,1/2-y,1/2+z
x,1/2-y,1/2-z
-x,1/2+y,1/2-z
-x,1/2-y,1/2-z
x,1/2+y,1/2-z
-x,1/2+y,1/2+z
x,1/2-y,1/2+z
1/2+x,y,1/2+z
1/2-x,-y,1/2+z
1/2+x,-y,1/2-z
1/2-x,y,1/2-z
1/2-x,-y,1/2-z
1/2+x,y,1/2-z
1/2-x,y,1/2+z
1/2+x,-y,1/2+z
1/2+x,1/2+y,z
1/2-x,1/2-y,z
1/2+x,1/2-y,-z
1/2-x,1/2+y,-z
1/2-x,1/2-y,-z
1/2+x,1/2+y,-z
1/2-x,1/2+y,z
1/2+x,1/2-y,z
loop_
_atom_site_type_symbol
_atom_site_label
_atom_site_fract_x
_atom_site_fract_y
_atom_site_fract_z
Si Si1 0.193744 0.268031 0.832740
Si Si2 0.057358 0.592806 0.500000
Si Si3 0.659146 0.090133 0.077591
Si Si4 0.444229 0.587209 0.764762
Si Si5 0.945138 0.856255 0.391288
Si Si6 0.901043 0.189082 0.123893
O O1 0.185596 0.250000 0.750000
O O2 0.250000 0.250000 0.854741
O O3 0.181365 0.357140 0.858579
O O4 0.157166 0.212896 0.878242
O O5 0.060503 0.500000 0.500000
O O6 0.086920 0.623707 0.433041
O O7 0.000000 0.621374 0.500000
O O8 0.599695 0.103628 0.066627
O O9 0.669881 0.000000 0.098328
O O10 0.682404 0.108681 0.000000
O O11 0.500000 0.592522 0.796606
O O12 0.422524 0.500000 0.777610
O O13 0.444917 0.604478 0.683773
O O14 0.409686 0.651969 0.800105
O O15 0.936838 0.763033 0.387194
O O16 0.000000 0.870237 0.426012
#
# Coordination Sequence:
#
# PCOD8284303 Si02
#       6
#    32  16  32  32  32  32
#     4  10  23  44  68  94 119 155 209 267 322 371
#     4  11  24  40  57  86 129 167 202 245 296 360
#     4  10  22  40  61  88 124 165 202 247 314 379
#     4  10  19  32  52  81 119 158 196 246 305 360
#     4  10  20  32  53  84 117 156 204 248 290 358
#     4  11  21  36  58  83 114 160 203 248 303 364
#
# _framework density 20.212430999999999
#
# number of rings (size 3 to 8) (size 9 to 14) (size 15 to 20)
#    0.000    1.727    0.000    5.455    5.091    4.727 
#    0.000    5.455    0.000    0.000    0.000    0.000 
#    0.000    0.000    0.000    0.000    0.000    0.000 
#
# Total GULP energy -545331.656725 kJ/mol
# GULP energy per Si atom -12393.901289 kJ/mol
# Density = 2.016643 g / cm^3
# Si number density = 20.212431 Si / 1000 Ang^3
#
#
#
# Elastic Constant Matrix: (Units=GPa)
#
#
# Indices 1 2 3 4 5 6 
#
# 1 124.9169 42.3444 31.0870 0.0000 0.0000 0.0000
# 2 42.3444 121.9352 48.2551 0.0000 0.0000 0.0000
# 3 31.0870 48.2551 84.1712 0.0000 0.0000 0.0000
# 4 0.0000 0.0000 0.0000 36.5864 0.0000 0.0000
# 5 0.0000 0.0000 0.0000 0.0000 20.4483 0.0000
# 6 0.0000 0.0000 0.0000 0.0000 0.0000 16.5776
#
#
#
# Elastic Compliance Matrix: (Units=1/GPa)
#
#
# Indices 1 2 3 4 5 6 
#
# 1 0.009341 -0.002430 -0.002057 0.000000 0.000000 0.000000
# 2 -0.002430 0.011240 -0.005546 0.000000 0.000000 0.000000
# 3 -0.002057 -0.005546 0.015820 0.000000 0.000000 0.000000
# 4 0.000000 0.000000 0.000000 0.027333 0.000000 0.000000
# 5 0.000000 0.000000 0.000000 0.000000 0.048904 0.000000
# 6 0.000000 0.000000 0.000000 0.000000 0.000000 0.060322
#
#
# Mechanical properties :
#
#
# Convention : Reuss Voigt Hill
#
# Bulk Modulus (GPa) = 61.21993 63.82180 62.52087
# Shear Modulus (GPa) = 25.19270 28.67824 26.93547
#
# Velocity S-wave (km/s) = 3.53426 3.77084 3.65447
# Velocity P-wave (km/s) = 6.85629 7.11358 6.98612
#
# Compressibility (1/GPa) = 0.01633455
#
# Stress axis : x y z
#
# Youngs Moduli (GPa) = 107.05657 88.96952 63.21155
#
# Poissons Ratio (x) = 0.21618 0.13002
# Poissons Ratio (y) = 0.26013 0.35059
# Poissons Ratio (z) = 0.22020 0.49345
#
# Static dielectric constant tensor:
#      x y z
#    x 3.718400 0.000000 0.000000 
#    y 0.000000 3.711800 0.000000 
#    z 0.000000 0.000000 3.645530 
# 
# 
# High freq. dielectric constant tensor:
#      x y z
#    x 1.768660 0.000000 0.000000 
#    y 0.000000 1.796710 0.000000 
#    z 0.000000 0.000000 1.790830 
# 
# From -- ./inp_files/26744.got.cif
#   From: 2010.03.12/outbox.cif.g09.slc.cpg/sg69_14_cif.got.tgz:26744.got - 2010.04.10 23:52:46.
