data_PCOD8284736
_publ_section_title
;
Structure prediction by ZEFSAII (Michael W. Deem and Ramdas Pophale) SiO2 
 PCOD8284736
Probable space group: F M M M
;
_chemical_formula_sum "Si O2"
_cell_formula_units_Z 144
_cell_length_a 32.376842
_cell_length_b 8.536014
_cell_length_c 27.316221
_cell_angle_alpha 90.000000
_cell_angle_beta 90.000000
_cell_angle_gamma 90.000000
_cell_volume 7549.361505
_symmetry_space_group_name_H-M "F M M M"
_symmetry_group_IT_number 69
_symmetry_cell_setting 'orthorhombic'
loop_
_space_group_symop_operation_xyz
x,y,z
-x,-y,z
x,-y,-z
-x,y,-z
-x,-y,-z
x,y,-z
-x,y,z
x,-y,z
x,1/2+y,1/2+z
-x,1/2-y,1/2+z
x,1/2-y,1/2-z
-x,1/2+y,1/2-z
-x,1/2-y,1/2-z
x,1/2+y,1/2-z
-x,1/2+y,1/2+z
x,1/2-y,1/2+z
1/2+x,y,1/2+z
1/2-x,-y,1/2+z
1/2+x,-y,1/2-z
1/2-x,y,1/2-z
1/2-x,-y,1/2-z
1/2+x,y,1/2-z
1/2-x,y,1/2+z
1/2+x,-y,1/2+z
1/2+x,1/2+y,z
1/2-x,1/2-y,z
1/2+x,1/2-y,-z
1/2-x,1/2+y,-z
1/2-x,1/2-y,-z
1/2+x,1/2+y,-z
1/2-x,1/2+y,z
1/2+x,1/2-y,z
loop_
_atom_site_type_symbol
_atom_site_label
_atom_site_fract_x
_atom_site_fract_y
_atom_site_fract_z
Si Si1 0.081582 0.685435 0.649590
Si Si2 0.793395 0.685253 0.608409
Si Si3 0.161380 0.815011 0.698284
Si Si4 0.500000 0.183140 0.195733
Si Si5 0.374472 0.814803 0.446317
O O1 0.076264 0.500000 0.651642
O O2 0.117810 0.733825 0.686268
O O3 0.093034 0.744653 0.594567
O O4 0.039495 0.765115 0.665173
O O5 0.792086 0.500000 0.616468
O O6 0.750000 0.750000 0.588533
O O7 0.803547 0.768018 0.659693
O O8 0.828099 0.733587 0.568938
O O9 0.176860 0.750000 0.750000
O O10 0.155293 0.000000 0.699543
O O11 0.500000 0.250000 0.250000
O O12 0.500000 0.000000 0.201465
O O13 0.384481 0.742098 0.500000
O O14 0.377402 0.000000 0.448987
#
# Coordination Sequence:
#
# PCOD8284736 Si02
#       5
#    32  32  32  16  32
#     4  10  20  36  57  82 111 141 178 220 264 314
#     4  10  20  34  52  77 108 140 179 224 269 317
#     4  11  21  35  54  76 105 141 180 219 267 322
#     4  12  24  38  57  82 113 145 180 219 263 312
#     4   8  16  33  57  81 106 139 178 220 265 314
#
# _framework density 19.074459999999998
#
# number of rings (size 3 to 8) (size 9 to 14) (size 15 to 20)
#    0.000    2.000    0.000    6.333    0.000    0.889 
#    0.000    2.778    0.000   26.667    0.000    0.000 
#    0.000    0.000    0.000    0.000    0.000    0.000 
#
# Total GULP energy -446398.881054 kJ/mol
# GULP energy per Si atom -12399.968918 kJ/mol
# Density = 1.903105 g / cm^3
# Si number density = 19.074460 Si / 1000 Ang^3
#
#
#
# Elastic Constant Matrix: (Units=GPa)
#
#
# Indices 1 2 3 4 5 6 
#
# 1 123.8133 32.8402 52.4584 0.0000 -0.0001 0.0002
# 2 32.8402 95.3928 36.1872 0.0000 0.0000 0.0002
# 3 52.4584 36.1872 149.3397 0.0000 0.0000 0.0000
# 4 0.0000 0.0000 0.0000 18.4831 0.0000 0.0000
# 5 -0.0001 0.0000 0.0000 0.0000 8.6911 0.0001
# 6 0.0002 0.0002 0.0000 0.0000 0.0001 35.3886
#
#
#
# Elastic Compliance Matrix: (Units=1/GPa)
#
#
# Indices 1 2 3 4 5 6 
#
# 1 0.009930 -0.002307 -0.002929 0.000000 0.000000 0.000000
# 2 -0.002307 0.012080 -0.002117 0.000000 0.000000 0.000000
# 3 -0.002929 -0.002117 0.008238 0.000000 0.000000 0.000000
# 4 0.000000 0.000000 0.000000 0.054104 0.000000 0.000000
# 5 0.000000 0.000000 0.000000 0.000000 0.115060 0.000000
# 6 0.000000 0.000000 0.000000 0.000000 0.000000 0.028258
#
#
# Mechanical properties :
#
#
# Convention : Reuss Voigt Hill
#
# Bulk Modulus (GPa) = 64.34215 67.94636 66.14426
# Shear Modulus (GPa) = 20.19746 28.98322 24.59034
#
# Velocity S-wave (km/s) = 3.25757 3.90228 3.59441
# Velocity P-wave (km/s) = 6.92490 7.48349 7.20961
#
# Compressibility (1/GPa) = 0.01554191
#
# Stress axis : x y z
#
# Youngs Moduli (GPa) = 100.70902 82.77954 121.39055
#
# Poissons Ratio (x) = 0.19100 0.35554
# Poissons Ratio (y) = 0.23237 0.25695
# Poissons Ratio (z) = 0.29496 0.17522
#
# Static dielectric constant tensor:
#      x y z
#    x 3.499330 0.000000 0.000000 
#    y 0.000000 3.427170 0.000000 
#    z 0.000000 0.000000 3.875670 
# 
# 
# High freq. dielectric constant tensor:
#      x y z
#    x 1.736040 0.000000 0.000000 
#    y 0.000000 1.737490 0.000000 
#    z 0.000000 0.000000 1.746320 
# 
# From -- ./inp_files/47378.got.cif
#   From: 2010.03.12/outbox.cif.g09.slc.cpg/sg69_24_cif.got.tgz:47378.got - 2010.04.10 23:52:46.
