data_PCOD8284282
_publ_section_title
;
Structure prediction by ZEFSAII (Michael W. Deem and Ramdas Pophale) SiO2 
 PCOD8284282
Probable space group: F M M M
;
_chemical_formula_sum "Si O2"
_cell_formula_units_Z 160
_cell_length_a 24.985474
_cell_length_b 18.239867
_cell_length_c 18.557071
_cell_angle_alpha 90.000000
_cell_angle_beta 90.000000
_cell_angle_gamma 90.000000
_cell_volume 8457.045935
_symmetry_space_group_name_H-M "F M M M"
_symmetry_group_IT_number 69
_symmetry_cell_setting 'orthorhombic'
loop_
_space_group_symop_operation_xyz
x,y,z
-x,-y,z
x,-y,-z
-x,y,-z
-x,-y,-z
x,y,-z
-x,y,z
x,-y,z
x,1/2+y,1/2+z
-x,1/2-y,1/2+z
x,1/2-y,1/2-z
-x,1/2+y,1/2-z
-x,1/2-y,1/2-z
x,1/2+y,1/2-z
-x,1/2+y,1/2+z
x,1/2-y,1/2+z
1/2+x,y,1/2+z
1/2-x,-y,1/2+z
1/2+x,-y,1/2-z
1/2-x,y,1/2-z
1/2-x,-y,1/2-z
1/2+x,y,1/2-z
1/2-x,y,1/2+z
1/2+x,-y,1/2+z
1/2+x,1/2+y,z
1/2-x,1/2-y,z
1/2+x,1/2-y,-z
1/2-x,1/2+y,-z
1/2-x,1/2-y,-z
1/2+x,1/2+y,-z
1/2-x,1/2+y,z
1/2+x,1/2-y,z
loop_
_atom_site_type_symbol
_atom_site_label
_atom_site_fract_x
_atom_site_fract_y
_atom_site_fract_z
Si Si1 0.726051 0.665974 0.826905
Si Si2 0.061346 0.707701 0.321605
Si Si3 0.653121 0.763702 0.080630
Si Si4 0.125226 0.918796 0.779874
Si Si5 0.673381 0.082904 0.123839
O O1 0.750000 0.690540 0.750000
O O2 0.705610 0.740227 0.870650
O O3 0.672293 0.620305 0.822299
O O4 0.765519 0.608520 0.864985
O O5 0.079465 0.750000 0.250000
O O6 0.097662 0.733497 0.387943
O O7 0.070516 0.622765 0.300686
O O8 0.000000 0.721690 0.342688
O O9 0.648384 0.852598 0.074892
O O10 0.660553 0.732173 0.000000
O O11 0.138073 0.918489 0.695613
O O12 0.118540 0.000000 0.809754
O O13 0.672860 0.000000 0.089888
#
# Coordination Sequence:
#
# PCOD8284282 Si02
#       5
#    32  32  32  32  32
#     4   9  19  33  55  80 111 149 188 226 263 320
#     4  10  20  37  60  82 104 139 186 232 279 330
#     4  11  23  37  55  82 112 146 187 231 278 329
#     4   9  17  31  54  85 112 139 180 229 274 318
#     4  10  19  32  51  78 114 150 182 220 269 324
#
# _framework density 18.919136000000002
#
# number of rings (size 3 to 8) (size 9 to 14) (size 15 to 20)
#    0.000    2.200    2.000    1.200    0.000    7.600 
#    0.000    0.000    0.000   15.000    0.000    7.000 
#    0.000    0.000    0.000    0.000    0.000    0.000 
#
# Total GULP energy -495608.761842 kJ/mol
# GULP energy per Si atom -12390.219046 kJ/mol
# Density = 1.887608 g / cm^3
# Si number density = 18.919136 Si / 1000 Ang^3
#
#
#
# Elastic Constant Matrix: (Units=GPa)
#
#
# Indices 1 2 3 4 5 6 
#
# 1 80.4557 31.9999 40.5680 0.0000 0.0000 0.0000
# 2 31.9999 155.1788 39.5639 0.0000 0.0000 0.0000
# 3 40.5680 39.5639 84.7160 0.0000 0.0000 0.0000
# 4 0.0000 0.0000 0.0000 11.6654 0.0000 0.0000
# 5 0.0000 0.0000 0.0000 0.0000 15.9310 0.0000
# 6 0.0000 0.0000 0.0000 0.0000 0.0000 9.3305
#
#
#
# Elastic Compliance Matrix: (Units=1/GPa)
#
#
# Indices 1 2 3 4 5 6 
#
# 1 0.016727 -0.001597 -0.007264 0.000000 0.000000 0.000000
# 2 -0.001597 0.007468 -0.002723 0.000000 0.000000 0.000000
# 3 -0.007264 -0.002723 0.016554 0.000000 0.000000 0.000000
# 4 0.000000 0.000000 0.000000 0.085724 0.000000 0.000000
# 5 0.000000 0.000000 0.000000 0.000000 0.062771 0.000000
# 6 0.000000 0.000000 0.000000 0.000000 0.000000 0.107175
#
#
# Mechanical properties :
#
#
# Convention : Reuss Voigt Hill
#
# Bulk Modulus (GPa) = 56.87983 60.51268 58.69625
# Shear Modulus (GPa) = 15.36344 21.26662 18.31503
#
# Velocity S-wave (km/s) = 2.85275 3.35637 3.11476
# Velocity P-wave (km/s) = 6.40163 6.86109 6.63534
#
# Compressibility (1/GPa) = 0.01758093
#
# Stress axis : x y z
#
# Youngs Moduli (GPa) = 59.78231 133.90956 60.40725
#
# Poissons Ratio (x) = 0.21390 0.43881
# Poissons Ratio (y) = 0.09549 0.16447
# Poissons Ratio (z) = 0.43427 0.36459
#
# Static dielectric constant tensor:
#      x y z
#    x 3.291770 0.000000 0.000000 
#    y 0.000000 3.867190 0.000000 
#    z 0.000000 0.000000 3.130050 
# 
# 
# High freq. dielectric constant tensor:
#      x y z
#    x 1.724580 0.000000 0.000000 
#    y 0.000000 1.752780 0.000000 
#    z 0.000000 0.000000 1.699950 
# 
# From -- ./inp_files/23093.got.cif
#   From: 2010.03.12/outbox.cif.g09.slc.cpg/sg69_12_cif.got.tgz:23093.got - 2010.04.10 23:52:46.
