data_PCOD8284703
_publ_section_title
;
Structure prediction by ZEFSAII (Michael W. Deem and Ramdas Pophale) SiO2 
 PCOD8284703
Probable space group: F M M M
;
_chemical_formula_sum "Si O2"
_cell_formula_units_Z 160
_cell_length_a 31.228051
_cell_length_b 17.407566
_cell_length_c 16.375631
_cell_angle_alpha 90.000000
_cell_angle_beta 90.000000
_cell_angle_gamma 90.000000
_cell_volume 8901.864390
_symmetry_space_group_name_H-M "F M M M"
_symmetry_group_IT_number 69
_symmetry_cell_setting 'orthorhombic'
loop_
_space_group_symop_operation_xyz
x,y,z
-x,-y,z
x,-y,-z
-x,y,-z
-x,-y,-z
x,y,-z
-x,y,z
x,-y,z
x,1/2+y,1/2+z
-x,1/2-y,1/2+z
x,1/2-y,1/2-z
-x,1/2+y,1/2-z
-x,1/2-y,1/2-z
x,1/2+y,1/2-z
-x,1/2+y,1/2+z
x,1/2-y,1/2+z
1/2+x,y,1/2+z
1/2-x,-y,1/2+z
1/2+x,-y,1/2-z
1/2-x,y,1/2-z
1/2-x,-y,1/2-z
1/2+x,y,1/2-z
1/2-x,y,1/2+z
1/2+x,-y,1/2+z
1/2+x,1/2+y,z
1/2-x,1/2-y,z
1/2+x,1/2-y,-z
1/2-x,1/2+y,-z
1/2-x,1/2-y,-z
1/2+x,1/2+y,-z
1/2-x,1/2+y,z
1/2+x,1/2-y,z
loop_
_atom_site_type_symbol
_atom_site_label
_atom_site_fract_x
_atom_site_fract_y
_atom_site_fract_z
Si Si1 0.781970 0.416164 0.325483
Si Si2 0.500000 0.817628 0.685199
Si Si3 0.650545 0.166553 0.227965
Si Si4 0.937847 0.591160 0.215949
Si Si5 0.000000 0.328181 0.904991
Si Si6 0.720702 0.318705 0.592655
O O1 0.801011 0.500000 0.343551
O O2 0.750000 0.416665 0.250000
O O3 0.821521 0.360309 0.305617
O O4 0.753417 0.390596 0.402875
O O5 0.500000 0.750000 0.750000
O O6 0.458419 0.872022 0.700985
O O7 0.500000 0.766848 0.601866
O O8 0.631621 0.250000 0.250000
O O9 0.612585 0.106521 0.213796
O O10 0.678332 0.169453 0.145610
O O11 0.946516 0.500000 0.213754
O O12 0.958571 0.632695 0.137057
O O13 0.000000 0.348969 0.000000
O O14 0.706019 0.304289 0.500000
O O15 0.750000 0.250000 0.628336
#
# Coordination Sequence:
#
# PCOD8284703 Si02
#       6
#    32  16  32  32  16  32
#     4   9  18  31  49  71  96 130 171 218 267 311
#     4   8  16  35  56  78 108 143 175 212 250 314
#     4  11  19  32  54  77 102 137 181 227 260 307
#     4  10  20  34  55  83 112 143 178 218 267 318
#     4  10  20  36  58  84 114 144 172 212 266 324
#     4  10  20  34  50  72 102 138 176 218 272 326
#
# _framework density 17.973763000000002
#
# number of rings (size 3 to 8) (size 9 to 14) (size 15 to 20)
#    0.000    2.400    2.000    3.600    0.000    2.800 
#    0.000    0.000    0.000    1.200    0.000    0.000 
#    0.000    0.000    0.000    0.000    0.000    0.000 
#
# Total GULP energy -495625.419241 kJ/mol
# GULP energy per Si atom -12390.635481 kJ/mol
# Density = 1.793285 g / cm^3
# Si number density = 17.973763 Si / 1000 Ang^3
#
#
#
# Elastic Constant Matrix: (Units=GPa)
#
#
# Indices 1 2 3 4 5 6 
#
# 1 106.6024 34.4459 27.0775 0.0000 0.0000 0.0000
# 2 34.4459 123.5871 23.0059 0.0000 0.0000 0.0000
# 3 27.0775 23.0059 50.8282 0.0000 0.0000 0.0000
# 4 0.0000 0.0000 0.0000 15.7789 0.0000 0.0000
# 5 0.0000 0.0000 0.0000 0.0000 13.7692 0.0000
# 6 0.0000 0.0000 0.0000 0.0000 0.0000 31.8513
#
#
#
# Elastic Compliance Matrix: (Units=1/GPa)
#
#
# Indices 1 2 3 4 5 6 
#
# 1 0.011386 -0.002232 -0.005055 0.000000 0.000000 0.000000
# 2 -0.002232 0.009274 -0.003008 0.000000 0.000000 0.000000
# 3 -0.005055 -0.003008 0.023729 0.000000 0.000000 0.000000
# 4 0.000000 0.000000 0.000000 0.063376 0.000000 0.000000
# 5 0.000000 0.000000 0.000000 0.000000 0.072626 0.000000
# 6 0.000000 0.000000 0.000000 0.000000 0.000000 0.031396
#
#
# Mechanical properties :
#
#
# Convention : Reuss Voigt Hill
#
# Bulk Modulus (GPa) = 42.02249 50.00850 46.01549
# Shear Modulus (GPa) = 20.80649 25.37912 23.09280
#
# Velocity S-wave (km/s) = 3.40605 3.76175 3.58831
# Velocity P-wave (km/s) = 6.23690 6.83748 6.54408
#
# Compressibility (1/GPa) = 0.02379678
#
# Stress axis : x y z
#
# Youngs Moduli (GPa) = 87.82672 107.83234 42.14304
#
# Poissons Ratio (x) = 0.24073 0.21304
# Poissons Ratio (y) = 0.19607 0.12677
# Poissons Ratio (z) = 0.44398 0.32438
#
# Static dielectric constant tensor:
#      x y z
#    x 3.231060 0.000000 0.000000 
#    y 0.000000 3.782070 0.000000 
#    z 0.000000 0.000000 3.191610 
# 
# 
# High freq. dielectric constant tensor:
#      x y z
#    x 1.690680 0.000000 0.000000 
#    y 0.000000 1.712010 0.000000 
#    z 0.000000 0.000000 1.655690 
# 
# From -- ./inp_files/27644.got.cif
#   From: 2010.03.12/outbox.cif.g09.slc.cpg/sg69_14_cif.got.tgz:27644.got - 2010.04.10 23:52:46.
