data_PCOD8284262
_publ_section_title
;
Structure prediction by ZEFSAII (Michael W. Deem and Ramdas Pophale) SiO2 
 PCOD8284262
Probable space group: F M M M
;
_chemical_formula_sum "Si O2"
_cell_formula_units_Z 192
_cell_length_a 19.785368
_cell_length_b 19.768499
_cell_length_c 29.647093
_cell_angle_alpha 90.000000
_cell_angle_beta 90.000000
_cell_angle_gamma 90.000000
_cell_volume 11595.779360
_symmetry_space_group_name_H-M "F M M M"
_symmetry_group_IT_number 69
_symmetry_cell_setting 'orthorhombic'
loop_
_space_group_symop_operation_xyz
x,y,z
-x,-y,z
x,-y,-z
-x,y,-z
-x,-y,-z
x,y,-z
-x,y,z
x,-y,z
x,1/2+y,1/2+z
-x,1/2-y,1/2+z
x,1/2-y,1/2-z
-x,1/2+y,1/2-z
-x,1/2-y,1/2-z
x,1/2+y,1/2-z
-x,1/2+y,1/2+z
x,1/2-y,1/2+z
1/2+x,y,1/2+z
1/2-x,-y,1/2+z
1/2+x,-y,1/2-z
1/2-x,y,1/2-z
1/2-x,-y,1/2-z
1/2+x,y,1/2-z
1/2-x,y,1/2+z
1/2+x,-y,1/2+z
1/2+x,1/2+y,z
1/2-x,1/2-y,z
1/2+x,1/2-y,-z
1/2-x,1/2+y,-z
1/2-x,1/2-y,-z
1/2+x,1/2+y,-z
1/2-x,1/2+y,z
1/2+x,1/2-y,z
loop_
_atom_site_type_symbol
_atom_site_label
_atom_site_fract_x
_atom_site_fract_y
_atom_site_fract_z
Si Si1 0.077297 0.700745 0.115955
Si Si2 0.323641 0.719817 0.948111
Si Si3 0.922267 0.189363 0.281307
Si Si4 0.719545 0.074530 0.448643
Si Si5 0.838101 0.074811 0.380075
Si Si6 0.314373 0.422142 0.279302
O O1 0.121253 0.749428 0.084906
O O2 0.088886 0.717924 0.168345
O O3 0.098917 0.623030 0.110132
O O4 0.000000 0.709096 0.101071
O O5 0.250000 0.750000 0.935743
O O6 0.329239 0.638480 0.940015
O O7 0.340986 0.737668 0.000000
O O8 0.898198 0.250000 0.250000
O O9 0.878970 0.123709 0.267687
O O10 0.000000 0.168879 0.273362
O O11 0.744618 0.076661 0.500000
O O12 0.785183 0.086022 0.419269
O O13 0.686121 0.000000 0.438072
O O14 0.799458 0.087795 0.332564
O O15 0.869239 0.000000 0.380454
O O16 0.331858 0.500000 0.267562
O O17 0.250000 0.398040 0.250000
#
# Coordination Sequence:
#
# PCOD8284262 Si02
#       6
#    32  32  32  32  32  32
#     4  10  20  33  50  72  99 130 162 200 245 293
#     4  10  19  32  50  73 100 129 163 202 241 287
#     4   9  19  35  50  68  97 130 163 199 243 295
#     4   9  17  30  49  70  94 127 163 198 239 285
#     4   9  17  30  48  71  99 128 158 194 241 293
#     4   9  18  31  47  71  99 124 159 204 242 282
#
# _framework density 16.557749000000001
#
# number of rings (size 3 to 8) (size 9 to 14) (size 15 to 20)
#    0.000    2.667    1.667    0.000    0.000    2.667 
#    0.000    3.333    0.000    0.500    0.000    8.167 
#    0.000    0.000    0.000    0.000    0.000    0.000 
#
# Total GULP energy -594908.904314 kJ/mol
# GULP energy per Si atom -12393.935507 kJ/mol
# Density = 1.652006 g / cm^3
# Si number density = 16.557749 Si / 1000 Ang^3
#
#
#
# Elastic Constant Matrix: (Units=GPa)
#
#
# Indices 1 2 3 4 5 6 
#
# 1 102.2270 66.6263 58.8123 0.0000 0.0000 0.0000
# 2 66.6263 121.2140 63.5671 0.0000 0.0000 0.0000
# 3 58.8123 63.5671 76.8213 0.0000 0.0000 0.0000
# 4 0.0000 0.0000 0.0000 27.4600 0.0000 0.0000
# 5 0.0000 0.0000 0.0000 0.0000 27.3732 0.0000
# 6 0.0000 0.0000 0.0000 0.0000 0.0000 26.5644
#
#
#
# Elastic Compliance Matrix: (Units=1/GPa)
#
#
# Indices 1 2 3 4 5 6 
#
# 1 0.019048 -0.004986 -0.010456 0.000000 0.000000 0.000000
# 2 -0.004986 0.015879 -0.009323 0.000000 0.000000 0.000000
# 3 -0.010456 -0.009323 0.028736 0.000000 0.000000 0.000000
# 4 0.000000 0.000000 0.000000 0.036417 0.000000 0.000000
# 5 0.000000 0.000000 0.000000 0.000000 0.036532 0.000000
# 6 0.000000 0.000000 0.000000 0.000000 0.000000 0.037644
#
#
# Mechanical properties :
#
#
# Convention : Reuss Voigt Hill
#
# Bulk Modulus (GPa) = 70.75458 75.36373 73.05916
# Shear Modulus (GPa) = 21.88206 23.69662 22.78934
#
# Velocity S-wave (km/s) = 3.63927 3.78716 3.71395
# Velocity P-wave (km/s) = 7.77713 8.04599 7.91270
#
# Compressibility (1/GPa) = 0.01413336
#
# Stress axis : x y z
#
# Youngs Moduli (GPa) = 52.50029 62.97463 34.79895
#
# Poissons Ratio (x) = 0.31399 0.36387
# Poissons Ratio (y) = 0.26177 0.32441
# Poissons Ratio (z) = 0.54897 0.58708
#
# Static dielectric constant tensor:
#      x y z
#    x 2.847090 0.000000 0.000000 
#    y 0.000000 3.416540 0.000000 
#    z 0.000000 0.000000 3.246180 
# 
# 
# High freq. dielectric constant tensor:
#      x y z
#    x 1.604820 0.000000 0.000000 
#    y 0.000000 1.650450 0.000000 
#    z 0.000000 0.000000 1.645440 
# 
# From -- ./inp_files/32106.got.cif
#   From: 2010.03.12/outbox.cif.g09.slc.cpg/sg69_17_cif.got.tgz:32106.got - 2010.04.10 23:52:46.
