data_PCOD8284559
_publ_section_title
;
Structure prediction by ZEFSAII (Michael W. Deem and Ramdas Pophale) SiO2 
 PCOD8284559
Probable space group: F M M M
;
_chemical_formula_sum "Si O2"
_cell_formula_units_Z 176
_cell_length_a 14.366189
_cell_length_b 25.046058
_cell_length_c 22.082366
_cell_angle_alpha 90.000000
_cell_angle_beta 90.000000
_cell_angle_gamma 90.000000
_cell_volume 7945.597502
_symmetry_space_group_name_H-M "F M M M"
_symmetry_group_IT_number 69
_symmetry_cell_setting 'orthorhombic'
loop_
_space_group_symop_operation_xyz
x,y,z
-x,-y,z
x,-y,-z
-x,y,-z
-x,-y,-z
x,y,-z
-x,y,z
x,-y,z
x,1/2+y,1/2+z
-x,1/2-y,1/2+z
x,1/2-y,1/2-z
-x,1/2+y,1/2-z
-x,1/2-y,1/2-z
x,1/2+y,1/2-z
-x,1/2+y,1/2+z
x,1/2-y,1/2+z
1/2+x,y,1/2+z
1/2-x,-y,1/2+z
1/2+x,-y,1/2-z
1/2-x,y,1/2-z
1/2-x,-y,1/2-z
1/2+x,y,1/2-z
1/2-x,y,1/2+z
1/2+x,-y,1/2+z
1/2+x,1/2+y,z
1/2-x,1/2-y,z
1/2+x,1/2-y,-z
1/2-x,1/2+y,-z
1/2-x,1/2-y,-z
1/2+x,1/2+y,-z
1/2-x,1/2+y,z
1/2+x,1/2-y,z
loop_
_atom_site_type_symbol
_atom_site_label
_atom_site_fract_x
_atom_site_fract_y
_atom_site_fract_z
Si Si1 0.605187 0.387846 0.342564
Si Si2 0.154661 0.282236 0.566619
Si Si3 0.605518 0.438392 0.217809
Si Si4 0.294641 0.397325 0.110058
Si Si5 0.899426 0.000000 0.931953
Si Si6 0.357415 0.232700 0.186010
O O1 0.500000 0.390932 0.369114
O O2 0.619363 0.430562 0.289112
O O3 0.681737 0.401073 0.393854
O O4 0.628085 0.329983 0.316340
O O5 0.105244 0.275198 0.500000
O O6 0.250000 0.250000 0.564437
O O7 0.171874 0.344754 0.576003
O O8 0.096666 0.259378 0.624918
O O9 0.500000 0.424072 0.200190
O O10 0.629614 0.500000 0.200851
O O11 0.672524 0.398338 0.180528
O O12 0.339383 0.447894 0.079101
O O13 0.000000 0.000000 0.896060
O O14 0.928627 0.000000 0.000000
O O15 0.404398 0.250000 0.250000
O O16 0.250000 0.250000 0.186382
#
# Coordination Sequence:
#
# PCOD8284559 Si02
#       6
#    32  32  32  32  16  32
#     4  11  24  38  58  95 134 175 222 272 333 408
#     4  10  20  37  64  94 125 172 229 274 332 411
#     4  10  22  39  62  96 133 171 224 284 345 415
#     4  12  21  40  69  93 131 180 215 277 346 413
#     4  11  26  46  70 101 129 161 222 290 348 411
#     4  10  19  37  63  92 126 170 228 283 344 406
#
# _framework density 22.150631000000001
#
# number of rings (size 3 to 8) (size 9 to 14) (size 15 to 20)
#    0.000    1.364    4.545    2.727    3.818    1.091 
#    0.000    1.818    0.000    7.636    0.000    0.000 
#    0.000    0.000    0.000    0.000    0.000    0.000 
#
# Total GULP energy -545122.773185 kJ/mol
# GULP energy per Si atom -12389.153936 kJ/mol
# Density = 2.210022 g / cm^3
# Si number density = 22.150631 Si / 1000 Ang^3
#
#
#
# Elastic Constant Matrix: (Units=GPa)
#
#
# Indices 1 2 3 4 5 6 
#
# 1 103.1208 31.9723 19.9107 0.0000 0.0000 0.0000
# 2 31.9723 131.3474 32.2274 0.0000 0.0000 0.0000
# 3 19.9107 32.2274 145.7096 0.0000 0.0000 0.0000
# 4 0.0000 0.0000 0.0000 20.9284 0.0000 0.0000
# 5 0.0000 0.0000 0.0000 0.0000 16.3738 0.0000
# 6 0.0000 0.0000 0.0000 0.0000 0.0000 15.1836
#
#
#
# Elastic Compliance Matrix: (Units=1/GPa)
#
#
# Indices 1 2 3 4 5 6 
#
# 1 0.010607 -0.002354 -0.000929 0.000000 0.000000 0.000000
# 2 -0.002354 0.008573 -0.001574 0.000000 0.000000 0.000000
# 3 -0.000929 -0.001574 0.007338 0.000000 0.000000 0.000000
# 4 0.000000 0.000000 0.000000 0.047782 0.000000 0.000000
# 5 0.000000 0.000000 0.000000 0.000000 0.061073 0.000000
# 6 0.000000 0.000000 0.000000 0.000000 0.000000 0.065861
#
#
# Mechanical properties :
#
#
# Convention : Reuss Voigt Hill
#
# Bulk Modulus (GPa) = 59.51258 60.93317 60.22288
# Shear Modulus (GPa) = 23.08955 30.23499 26.66227
#
# Velocity S-wave (km/s) = 3.23211 3.69856 3.47317
# Velocity P-wave (km/s) = 6.39173 6.76812 6.58261
#
# Compressibility (1/GPa) = 0.01680317
#
# Stress axis : x y z
#
# Youngs Moduli (GPa) = 94.28164 116.64950 136.27527
#
# Poissons Ratio (x) = 0.27459 0.12656
# Poissons Ratio (y) = 0.22193 0.21455
# Poissons Ratio (z) = 0.08756 0.18365
#
# Static dielectric constant tensor:
#      x y z
#    x 3.494580 0.000000 0.000000 
#    y 0.000000 3.772290 0.000000 
#    z 0.000000 0.000000 4.865530 
# 
# 
# High freq. dielectric constant tensor:
#      x y z
#    x 1.856280 0.000000 0.000000 
#    y 0.000000 1.877200 0.000000 
#    z 0.000000 0.000000 1.868470 
# 
# From -- ./inp_files/35918.got.cif
#   From: 2010.03.12/outbox.cif.g09.slc.cpg/sg69_18_cif.got.tgz:35918.got - 2010.04.10 23:52:46.
