data_PCOD8284069
_publ_section_title
;
Structure prediction by ZEFSAII (Michael W. Deem and Ramdas Pophale) SiO2 
 PCOD8284069
Probable space group: F M M M
;
_chemical_formula_sum "Si O2"
_cell_formula_units_Z 176
_cell_length_a 19.890184
_cell_length_b 17.254385
_cell_length_c 27.424037
_cell_angle_alpha 90.000000
_cell_angle_beta 90.000000
_cell_angle_gamma 90.000000
_cell_volume 9411.734581
_symmetry_space_group_name_H-M "F M M M"
_symmetry_group_IT_number 69
_symmetry_cell_setting 'orthorhombic'
loop_
_space_group_symop_operation_xyz
x,y,z
-x,-y,z
x,-y,-z
-x,y,-z
-x,-y,-z
x,y,-z
-x,y,z
x,-y,z
x,1/2+y,1/2+z
-x,1/2-y,1/2+z
x,1/2-y,1/2-z
-x,1/2+y,1/2-z
-x,1/2-y,1/2-z
x,1/2+y,1/2-z
-x,1/2+y,1/2+z
x,1/2-y,1/2+z
1/2+x,y,1/2+z
1/2-x,-y,1/2+z
1/2+x,-y,1/2-z
1/2-x,y,1/2-z
1/2-x,-y,1/2-z
1/2+x,y,1/2-z
1/2-x,y,1/2+z
1/2+x,-y,1/2+z
1/2+x,1/2+y,z
1/2-x,1/2-y,z
1/2+x,1/2-y,-z
1/2-x,1/2+y,-z
1/2-x,1/2-y,-z
1/2+x,1/2+y,-z
1/2-x,1/2+y,z
1/2+x,1/2-y,z
loop_
_atom_site_type_symbol
_atom_site_label
_atom_site_fract_x
_atom_site_fract_y
_atom_site_fract_z
Si Si1 0.153488 0.680589 0.415013
Si Si2 0.579182 0.312030 0.181762
Si Si3 0.199281 0.840793 0.555740
Si Si4 0.579465 0.408832 0.000000
Si Si5 0.420946 0.645264 0.713289
Si Si6 0.424425 0.500000 0.658329
Si Si7 0.122586 0.000000 0.445679
O O1 0.121681 0.656846 0.363439
O O2 0.148511 0.773425 0.425482
O O3 0.231724 0.657638 0.414100
O O4 0.111594 0.631038 0.453236
O O5 0.500000 0.312982 0.169095
O O6 0.594579 0.365444 0.229103
O O7 0.607149 0.226200 0.193398
O O8 0.217819 0.822127 0.500000
O O9 0.167126 0.924398 0.560845
O O10 0.596699 0.500000 0.000000
O O11 0.500000 0.394161 0.000000
O O12 0.500000 0.649012 0.705299
O O13 0.388287 0.575886 0.681207
O O14 0.500000 0.500000 0.678264
O O15 0.428695 0.500000 0.599406
O O16 0.088120 0.000000 0.500000
#
# Coordination Sequence:
#
# PCOD8284069 Si02
#       7
#    32  32  32  16  32  16  16
#     4  11  19  35  58  76 107 141 189 230 265 324
#     4   9  17  31  53  79 102 134 177 222 268 319
#     4  10  20  36  55  79 104 149 194 219 261 335
#     4  11  24  37  52  81 115 144 175 228 290 326
#     4   8  16  31  51  75 105 139 173 205 261 333
#     4  10  18  33  55  79 109 138 163 213 274 324
#     4  10  22  35  57  83 111 135 180 222 265 325
#
# _framework density 18.700059
#
# number of rings (size 3 to 8) (size 9 to 14) (size 15 to 20)
#    0.000    2.273    1.818    3.273    1.273    0.182 
#    1.636    0.909    0.000   19.636    0.000    0.000 
#    0.000    0.000    0.000    0.000    0.000    0.000 
#
# Total GULP energy -545312.928952 kJ/mol
# GULP energy per Si atom -12393.475658 kJ/mol
# Density = 1.865750 g / cm^3
# Si number density = 18.700059 Si / 1000 Ang^3
#
#
#
# Elastic Constant Matrix: (Units=GPa)
#
#
# Indices 1 2 3 4 5 6 
#
# 1 51.7592 21.5405 33.6198 0.0000 0.0000 0.0000
# 2 21.5405 104.9161 37.6368 0.0000 0.0000 0.0000
# 3 33.6198 37.6368 150.6511 0.0000 0.0000 0.0000
# 4 0.0000 0.0000 0.0000 30.3224 0.0000 0.0000
# 5 0.0000 0.0000 0.0000 0.0000 8.4138 0.0000
# 6 0.0000 0.0000 0.0000 0.0000 0.0000 18.5807
#
#
#
# Elastic Compliance Matrix: (Units=1/GPa)
#
#
# Indices 1 2 3 4 5 6 
#
# 1 0.023558 -0.003241 -0.004448 0.000000 0.000000 0.000000
# 2 -0.003241 0.010916 -0.002004 0.000000 0.000000 0.000000
# 3 -0.004448 -0.002004 0.008131 0.000000 0.000000 0.000000
# 4 0.000000 0.000000 0.000000 0.032979 0.000000 0.000000
# 5 0.000000 0.000000 0.000000 0.000000 0.118852 0.000000
# 6 0.000000 0.000000 0.000000 0.000000 0.000000 0.053819
#
#
# Mechanical properties :
#
#
# Convention : Reuss Voigt Hill
#
# Bulk Modulus (GPa) = 43.06693 54.76896 48.91795
# Shear Modulus (GPa) = 18.15675 25.76534 21.96104
#
# Velocity S-wave (km/s) = 3.11938 3.71593 3.43065
# Velocity P-wave (km/s) = 6.00453 6.91104 6.47368
#
# Compressibility (1/GPa) = 0.02321967
#
# Stress axis : x y z
#
# Youngs Moduli (GPa) = 42.44837 91.61123 122.98664
#
# Poissons Ratio (x) = 0.29694 0.54699
# Poissons Ratio (y) = 0.13759 0.24643
# Poissons Ratio (z) = 0.18879 0.18356
#
# Static dielectric constant tensor:
#      x y z
#    x 3.051520 0.000000 0.000000 
#    y 0.000000 3.770750 0.000000 
#    z 0.000000 0.000000 3.587270 
# 
# 
# High freq. dielectric constant tensor:
#      x y z
#    x 1.686810 0.000000 0.000000 
#    y 0.000000 1.731280 0.000000 
#    z 0.000000 0.000000 1.735070 
# 
# From -- ./inp_files/41918.got.cif
#   From: 2010.03.12/outbox.cif.g09.slc.cpg/sg69_21_cif.got.tgz:41918.got - 2010.04.10 23:52:46.
