data_PCOD8284600
_publ_section_title
;
Structure prediction by ZEFSAII (Michael W. Deem and Ramdas Pophale) SiO2 
 PCOD8284600
Probable space group: F M M M
;
_chemical_formula_sum "Si O2"
_cell_formula_units_Z 112
_cell_length_a 29.840678
_cell_length_b 25.357424
_cell_length_c 8.961186
_cell_angle_alpha 90.000000
_cell_angle_beta 90.000000
_cell_angle_gamma 90.000000
_cell_volume 6780.774637
_symmetry_space_group_name_H-M "F M M M"
_symmetry_group_IT_number 69
_symmetry_cell_setting 'orthorhombic'
loop_
_space_group_symop_operation_xyz
x,y,z
-x,-y,z
x,-y,-z
-x,y,-z
-x,-y,-z
x,y,-z
-x,y,z
x,-y,z
x,1/2+y,1/2+z
-x,1/2-y,1/2+z
x,1/2-y,1/2-z
-x,1/2+y,1/2-z
-x,1/2-y,1/2-z
x,1/2+y,1/2-z
-x,1/2+y,1/2+z
x,1/2-y,1/2+z
1/2+x,y,1/2+z
1/2-x,-y,1/2+z
1/2+x,-y,1/2-z
1/2-x,y,1/2-z
1/2-x,-y,1/2-z
1/2+x,y,1/2-z
1/2-x,y,1/2+z
1/2+x,-y,1/2+z
1/2+x,1/2+y,z
1/2-x,1/2-y,z
1/2+x,1/2-y,-z
1/2-x,1/2+y,-z
1/2-x,1/2-y,-z
1/2+x,1/2+y,-z
1/2-x,1/2+y,z
1/2+x,1/2-y,z
loop_
_atom_site_type_symbol
_atom_site_label
_atom_site_fract_x
_atom_site_fract_y
_atom_site_fract_z
Si Si1 0.890714 0.693406 0.325907
Si Si2 0.291678 0.693579 0.827043
Si Si3 0.946900 0.105100 0.671016
Si Si4 0.446706 0.000000 0.668350
O O1 0.901260 0.700378 0.500000
O O2 0.895420 0.750000 0.250000
O O3 0.840842 0.668162 0.302292
O O4 0.926626 0.654906 0.254451
O O5 0.293595 0.750000 0.750000
O O6 0.250000 0.661437 0.750000
O O7 0.280723 0.699807 0.000000
O O8 0.931304 0.104877 0.500000
O O9 0.000000 0.109264 0.685218
O O10 0.928756 0.051674 0.747039
O O11 0.500000 0.000000 0.668499
O O12 0.427852 0.000000 0.500000
#
# Coordination Sequence:
#
# PCOD8284600 Si02
#       4
#    32  32  32  16
#     4  10  20  32  46  67  95 126 158 190 228 276
#     4   9  16  26  42  63  87 116 150 187 226 268
#     4  10  20  33  49  69  93 122 156 193 231 271
#     4   9  17  31  51  71  90 115 150 193 235 271
#
# _framework density 16.517288000000001
#
# number of rings (size 3 to 8) (size 9 to 14) (size 15 to 20)
#    0.000    2.429    0.000    3.857    0.000    7.429 
#    0.000    0.000    0.000    0.000    0.000    1.000 
#    0.000    0.000    0.000    0.000    0.000    0.000 
#
# Total GULP energy -347012.256172 kJ/mol
# GULP energy per Si atom -12393.294863 kJ/mol
# Density = 1.647969 g / cm^3
# Si number density = 16.517288 Si / 1000 Ang^3
#
#
#
# Elastic Constant Matrix: (Units=GPa)
#
#
# Indices 1 2 3 4 5 6 
#
# 1 41.0736 32.4253 42.2156 -0.0069 0.0007 -0.0015
# 2 32.4253 90.9050 55.9403 -0.0210 0.0098 0.0017
# 3 42.2156 55.9403 150.9704 -0.0498 0.0211 0.0080
# 4 -0.0069 -0.0210 -0.0498 27.7463 0.0133 0.0013
# 5 0.0007 0.0098 0.0211 0.0133 27.7029 -0.0006
# 6 -0.0015 0.0017 0.0080 0.0013 -0.0006 -0.0482
#
#
#
# Elastic Compliance Matrix: (Units=1/GPa)
#
#
# Indices 1 2 3 4 5 6 
#
# 1 0.039595 -0.009469 -0.007563 -0.000011 0.000008 -0.002846
# 2 -0.009469 0.016514 -0.003471 0.000004 -0.000003 0.000317
# 3 -0.007563 -0.003471 0.010025 0.000013 -0.000006 0.001779
# 4 -0.000011 0.000004 0.000013 0.036041 -0.000017 0.001012
# 5 0.000008 -0.000003 -0.000006 -0.000017 0.036097 -0.000449
# 6 -0.002846 0.000317 0.001779 0.001012 -0.000449-20.758323
#
#
# Mechanical properties :
#
#
# Convention : Reuss Voigt Hill
#
# Bulk Modulus (GPa) = 39.79774 60.45683 50.12728
# Shear Modulus (GPa) = -0.24306 21.23807 10.49750
#
# Velocity S-wave (km/s) = -0.38403 3.58971 2.52374
# Velocity P-wave (km/s) = 4.89390 7.33914 6.23752
#
# Compressibility (1/GPa) = 0.02512706
#
# Stress axis : x y z
#
# Youngs Moduli (GPa) = 25.25557 60.55383 99.75223
#
# Poissons Ratio (x) = 0.57340 0.75444
# Poissons Ratio (y) = 0.23915 0.34627
# Poissons Ratio (z) = 0.19101 0.21020
#
# Static dielectric constant tensor:
#      x y z
#    x 3.693020 -0.000050 0.000000 
#    y -0.000050 2.728370 0.000090 
#    z 0.000000 0.000090 3.382110 
# 
# 
# High freq. dielectric constant tensor:
#      x y z
#    x 1.628580 0.000000 0.000000 
#    y 0.000000 1.594990 0.000000 
#    z 0.000000 0.000000 1.662230 
# 
# From -- ./inp_files/3736.got.cif
#   From: 2010.03.12/outbox.cif.g09.slc.cpg/sg69_2_cif.got.tgz:3736.got - 2010.04.10 23:52:46.
