data_PCOD8284960
_publ_section_title
;
Structure prediction by ZEFSAII (Michael W. Deem and Ramdas Pophale) SiO2 
 PCOD8284960
Probable space group: F M M M
;
_chemical_formula_sum "Si O2"
_cell_formula_units_Z 160
_cell_length_a 32.373725
_cell_length_b 9.599279
_cell_length_c 27.678455
_cell_angle_alpha 90.000000
_cell_angle_beta 90.000000
_cell_angle_gamma 90.000000
_cell_volume 8601.478974
_symmetry_space_group_name_H-M "F M M M"
_symmetry_group_IT_number 69
_symmetry_cell_setting 'orthorhombic'
loop_
_space_group_symop_operation_xyz
x,y,z
-x,-y,z
x,-y,-z
-x,y,-z
-x,-y,-z
x,y,-z
-x,y,z
x,-y,z
x,1/2+y,1/2+z
-x,1/2-y,1/2+z
x,1/2-y,1/2-z
-x,1/2+y,1/2-z
-x,1/2-y,1/2-z
x,1/2+y,1/2-z
-x,1/2+y,1/2+z
x,1/2-y,1/2+z
1/2+x,y,1/2+z
1/2-x,-y,1/2+z
1/2+x,-y,1/2-z
1/2-x,y,1/2-z
1/2-x,-y,1/2-z
1/2+x,y,1/2-z
1/2-x,y,1/2+z
1/2+x,-y,1/2+z
1/2+x,1/2+y,z
1/2-x,1/2-y,z
1/2+x,1/2-y,-z
1/2-x,1/2+y,-z
1/2-x,1/2-y,-z
1/2+x,1/2+y,-z
1/2-x,1/2+y,z
1/2+x,1/2-y,z
loop_
_atom_site_type_symbol
_atom_site_label
_atom_site_fract_x
_atom_site_fract_y
_atom_site_fract_z
Si Si1 0.208211 0.336284 0.944937
Si Si2 0.063760 0.154826 0.945045
Si Si3 0.643852 0.158045 0.389258
Si Si4 0.500000 0.846859 0.102264
Si Si5 0.090919 0.153386 0.203352
Si Si6 0.500000 0.216332 0.305144
O O1 0.215118 0.500000 0.932993
O O2 0.250000 0.250000 0.940186
O O3 0.178244 0.269996 0.904432
O O4 0.191161 0.320378 0.000000
O O5 0.111860 0.158640 0.933272
O O6 0.040757 0.267566 0.913324
O O7 0.046012 0.000000 0.934818
O O8 0.056786 0.197170 0.000000
O O9 0.620672 0.206342 0.339943
O O10 0.661789 0.000000 0.383543
O O11 0.500000 0.853197 0.160789
O O12 0.500000 0.000000 0.080101
O O13 0.095601 0.250000 0.250000
O O14 0.043351 0.137853 0.184397
O O15 0.105470 0.000000 0.218987
O O16 0.500000 0.250000 0.250000
#
# Coordination Sequence:
#
# PCOD8284960 Si02
#       6
#    32  32  32  16  32  16
#     4  10  21  37  59  88 119 150 183 224 274 330
#     4  10  21  37  55  74 104 149 191 225 271 334
#     4  10  20  36  58  83 111 147 186 227 276 334
#     4  12  24  36  52  76 107 142 184 238 288 326
#     4  10  21  36  58  83 111 147 189 237 286 335
#     4  10  21  38  54  75 107 146 191 235 288 339
#
# _framework density 18.601452999999999
#
# number of rings (size 3 to 8) (size 9 to 14) (size 15 to 20)
#    0.000    1.800    2.000    2.100    0.000    9.200 
#    0.000    0.000    0.000    0.600    0.000    4.200 
#    0.000    0.000    0.000    0.000    0.000    0.000 
#
# Total GULP energy -495574.341667 kJ/mol
# GULP energy per Si atom -12389.358542 kJ/mol
# Density = 1.855912 g / cm^3
# Si number density = 18.601453 Si / 1000 Ang^3
#
#
#
# Elastic Constant Matrix: (Units=GPa)
#
#
# Indices 1 2 3 4 5 6 
#
# 1 84.1327 51.2079 51.7295 0.0000 0.0000 0.0002
# 2 51.2079 127.1290 66.4277 0.0000 0.0000 0.0001
# 3 51.7295 66.4277 115.4828 0.0000 0.0000 0.0000
# 4 0.0000 0.0000 0.0000 28.4317 0.0000 0.0000
# 5 0.0000 0.0000 0.0000 0.0000 33.3168 0.0000
# 6 0.0002 0.0001 0.0000 0.0000 0.0000 -29.6065
#
#
#
# Elastic Compliance Matrix: (Units=1/GPa)
#
#
# Indices 1 2 3 4 5 6 
#
# 1 0.017926 -0.004325 -0.005542 0.000000 0.000000 0.000000
# 2 -0.004325 0.012290 -0.005132 0.000000 0.000000 0.000000
# 3 -0.005542 -0.005132 0.014094 0.000000 0.000000 0.000000
# 4 0.000000 0.000000 0.000000 0.035172 0.000000 0.000000
# 5 0.000000 0.000000 0.000000 0.000000 0.030015 0.000000
# 6 0.000000 0.000000 0.000000 0.000000 0.000000 -0.033776
#
#
# Mechanical properties :
#
#
# Convention : Reuss Voigt Hill
#
# Bulk Modulus (GPa) = 69.87274 73.94163 71.90719
# Shear Modulus (GPa) = 45.25389 16.92037 31.08713
#
# Velocity S-wave (km/s) = 4.93771 3.01927 4.09249
# Velocity P-wave (km/s) = 8.37571 7.21051 7.81486
#
# Compressibility (1/GPa) = 0.01431173
#
# Stress axis : x y z
#
# Youngs Moduli (GPa) = 55.78550 81.36966 70.95321
#
# Poissons Ratio (x) = 0.35190 0.39323
# Poissons Ratio (y) = 0.24126 0.36413
# Poissons Ratio (z) = 0.30917 0.41759
#
# Static dielectric constant tensor:
#      x y z
#    x 3.369010 0.000000 0.000000 
#    y 0.000000 3.429400 0.000000 
#    z 0.000000 0.000000 3.560030 
# 
# 
# High freq. dielectric constant tensor:
#      x y z
#    x 1.701050 0.000000 0.000000 
#    y 0.000000 1.719160 0.000000 
#    z 0.000000 0.000000 1.725690 
# 
# From -- ./inp_files/47475.got.cif
#   From: 2010.03.12/outbox.cif.g09.slc.cpg/sg69_24_cif.got.tgz:47475.got - 2010.04.10 23:52:46.
