data_PCOD8284802
_publ_section_title
;
Structure prediction by ZEFSAII (Michael W. Deem and Ramdas Pophale) SiO2 
 PCOD8284802
Probable space group: F M M M
;
_chemical_formula_sum "Si O2"
_cell_formula_units_Z 160
_cell_length_a 23.190704
_cell_length_b 18.819644
_cell_length_c 17.441024
_cell_angle_alpha 90.000000
_cell_angle_beta 90.000000
_cell_angle_gamma 90.000000
_cell_volume 7611.974352
_symmetry_space_group_name_H-M "F M M M"
_symmetry_group_IT_number 69
_symmetry_cell_setting 'orthorhombic'
loop_
_space_group_symop_operation_xyz
x,y,z
-x,-y,z
x,-y,-z
-x,y,-z
-x,-y,-z
x,y,-z
-x,y,z
x,-y,z
x,1/2+y,1/2+z
-x,1/2-y,1/2+z
x,1/2-y,1/2-z
-x,1/2+y,1/2-z
-x,1/2-y,1/2-z
x,1/2+y,1/2-z
-x,1/2+y,1/2+z
x,1/2-y,1/2+z
1/2+x,y,1/2+z
1/2-x,-y,1/2+z
1/2+x,-y,1/2-z
1/2-x,y,1/2-z
1/2-x,-y,1/2-z
1/2+x,y,1/2-z
1/2-x,y,1/2+z
1/2+x,-y,1/2+z
1/2+x,1/2+y,z
1/2-x,1/2-y,z
1/2+x,1/2-y,-z
1/2-x,1/2+y,-z
1/2-x,1/2-y,-z
1/2+x,1/2+y,-z
1/2-x,1/2+y,z
1/2+x,1/2-y,z
loop_
_atom_site_type_symbol
_atom_site_label
_atom_site_fract_x
_atom_site_fract_y
_atom_site_fract_z
Si Si1 0.394901 0.820453 0.910172
Si Si2 0.336019 0.576994 0.087153
Si Si3 0.431485 0.831569 0.353270
Si Si4 0.737311 0.825876 0.089517
Si Si5 0.434280 0.921431 0.790828
O O1 0.412488 0.750045 0.863056
O O2 0.329068 0.843957 0.896679
O O3 0.429274 0.887091 0.875399
O O4 0.409624 0.810016 0.000000
O O5 0.344528 0.500000 0.127632
O O6 0.395547 0.621465 0.086753
O O7 0.281700 0.617453 0.127235
O O8 0.319020 0.564041 0.000000
O O9 0.500000 0.838238 0.367491
O O10 0.410782 0.863983 0.271162
O O11 0.750000 0.750000 0.128298
O O12 0.752416 0.820965 0.000000
O O13 0.500000 0.933982 0.770685
O O14 0.404090 0.000000 0.787449
#
# Coordination Sequence:
#
# PCOD8284802 Si02
#       5
#    32  32  32  32  32
#     4  11  22  37  64  94 118 150 200 255 302 352
#     4  10  20  34  56  87 120 156 199 247 297 352
#     4  11  22  38  60  86 119 160 201 241 296 363
#     4   9  17  34  57  82 115 153 191 237 298 358
#     4  10  23  42  60  82 120 166 203 241 296 358
#
# _framework density 21.019514000000001
#
# number of rings (size 3 to 8) (size 9 to 14) (size 15 to 20)
#    0.000    1.800    2.000    2.400    0.000    6.800 
#    0.000    5.000    0.000    2.400    0.000    0.000 
#    0.000    0.000    0.000    0.000    0.000    0.000 
#
# Total GULP energy -495589.113219 kJ/mol
# GULP energy per Si atom -12389.727830 kJ/mol
# Density = 2.097167 g / cm^3
# Si number density = 21.019514 Si / 1000 Ang^3
#
#
#
# Elastic Constant Matrix: (Units=GPa)
#
#
# Indices 1 2 3 4 5 6 
#
# 1 103.2060 54.5350 15.3354 0.0000 0.0000 0.0000
# 2 54.5350 172.0514 52.9059 0.0000 0.0000 0.0000
# 3 15.3354 52.9059 69.7686 0.0000 0.0000 0.0000
# 4 0.0000 0.0000 0.0000 23.1011 0.0000 0.0000
# 5 0.0000 0.0000 0.0000 0.0000 14.7176 0.0000
# 6 0.0000 0.0000 0.0000 0.0000 0.0000 28.3935
#
#
#
# Elastic Compliance Matrix: (Units=1/GPa)
#
#
# Indices 1 2 3 4 5 6 
#
# 1 0.011644 -0.003787 0.000312 0.000000 0.000000 0.000000
# 2 -0.003787 0.008811 -0.005849 0.000000 0.000000 0.000000
# 3 0.000312 -0.005849 0.018700 0.000000 0.000000 0.000000
# 4 0.000000 0.000000 0.000000 0.043288 0.000000 0.000000
# 5 0.000000 0.000000 0.000000 0.000000 0.067946 0.000000
# 6 0.000000 0.000000 0.000000 0.000000 0.000000 0.035219
#
#
# Mechanical properties :
#
#
# Convention : Reuss Voigt Hill
#
# Bulk Modulus (GPa) = 48.76285 65.61984 57.19134
# Shear Modulus (GPa) = 23.68641 28.05910 25.87276
#
# Velocity S-wave (km/s) = 3.36054 3.65760 3.51221
# Velocity P-wave (km/s) = 6.18925 7.00883 6.61175
#
# Compressibility (1/GPa) = 0.02050742
#
# Stress axis : x y z
#
# Youngs Moduli (GPa) = 85.88158 113.49293 53.47614
#
# Poissons Ratio (x) = 0.42977 -0.01669
# Poissons Ratio (y) = 0.32521 0.31279
# Poissons Ratio (z) = -0.02681 0.66384
#
# Static dielectric constant tensor:
#      x y z
#    x 3.728870 0.000000 0.000000 
#    y 0.000000 4.329780 0.000000 
#    z 0.000000 0.000000 3.482080 
# 
# 
# High freq. dielectric constant tensor:
#      x y z
#    x 1.819900 0.000000 0.000000 
#    y 0.000000 1.838770 0.000000 
#    z 0.000000 0.000000 1.787910 
# 
# From -- ./inp_files/24582.got.cif
#   From: 2010.03.12/outbox.cif.g09.slc.cpg/sg69_13_cif.got.tgz:24582.got - 2010.04.10 23:52:46.
