data_PCOD8284288
_publ_section_title
;
Structure prediction by ZEFSAII (Michael W. Deem and Ramdas Pophale) SiO2 
 PCOD8284288
Probable space group: F M M M
;
_chemical_formula_sum "Si O2"
_cell_formula_units_Z 176
_cell_length_a 25.966155
_cell_length_b 26.598116
_cell_length_c 14.595241
_cell_angle_alpha 90.000000
_cell_angle_beta 90.000000
_cell_angle_gamma 90.000000
_cell_volume 10080.214913
_symmetry_space_group_name_H-M "F M M M"
_symmetry_group_IT_number 69
_symmetry_cell_setting 'orthorhombic'
loop_
_space_group_symop_operation_xyz
x,y,z
-x,-y,z
x,-y,-z
-x,y,-z
-x,-y,-z
x,y,-z
-x,y,z
x,-y,z
x,1/2+y,1/2+z
-x,1/2-y,1/2+z
x,1/2-y,1/2-z
-x,1/2+y,1/2-z
-x,1/2-y,1/2-z
x,1/2+y,1/2-z
-x,1/2+y,1/2+z
x,1/2-y,1/2+z
1/2+x,y,1/2+z
1/2-x,-y,1/2+z
1/2+x,-y,1/2-z
1/2-x,y,1/2-z
1/2-x,-y,1/2-z
1/2+x,y,1/2-z
1/2-x,y,1/2+z
1/2+x,-y,1/2+z
1/2+x,1/2+y,z
1/2-x,1/2-y,z
1/2+x,1/2-y,-z
1/2-x,1/2+y,-z
1/2-x,1/2-y,-z
1/2+x,1/2+y,-z
1/2-x,1/2+y,z
1/2+x,1/2-y,z
loop_
_atom_site_type_symbol
_atom_site_label
_atom_site_fract_x
_atom_site_fract_y
_atom_site_fract_z
Si Si1 0.354264 0.683719 0.396404
Si Si2 0.558452 0.887981 0.103493
Si Si3 0.698850 0.219329 0.605333
Si Si4 0.903157 0.558788 0.724210
Si Si5 0.500000 0.559770 0.104705
Si Si6 0.693490 0.125355 0.262970
O O1 0.334134 0.675963 0.500000
O O2 0.413159 0.665772 0.384427
O O3 0.348709 0.742758 0.371386
O O4 0.318938 0.647701 0.336077
O O5 0.500000 0.876613 0.127985
O O6 0.580611 0.930216 0.171226
O O7 0.565245 0.908751 0.000000
O O8 0.698911 0.202567 0.500000
O O9 0.750000 0.250000 0.631552
O O10 0.693707 0.169904 0.664272
O O11 0.894639 0.500000 0.711175
O O12 0.848717 0.585308 0.702294
O O13 0.948208 0.579042 0.656159
O O14 0.500000 0.500000 0.107254
O O15 0.500000 0.579853 0.000000
O O16 0.750000 0.100225 0.250000
#
# Coordination Sequence:
#
# PCOD8284288 Si02
#       6
#    32  32  32  32  16  32
#     4   9  18  31  49  76 108 137 166 205 258 311
#     4   9  17  31  54  81 107 135 167 206 258 319
#     4  10  19  32  52  76 101 134 177 218 255 303
#     4  10  21  36  53  76 107 139 178 222 266 314
#     4   9  18  36  59  75  94 133 184 234 271 301
#     4  11  21  32  53  77 106 141 177 219 259 314
#
# _framework density 17.459944
#
# number of rings (size 3 to 8) (size 9 to 14) (size 15 to 20)
#    0.000    2.273    2.727    0.545    0.000    1.455 
#    0.000    0.909    2.000    2.182    0.000    5.091 
#    0.000    0.000    0.000    0.000    0.000    0.000 
#
# Total GULP energy -545383.445543 kJ/mol
# GULP energy per Si atom -12395.078308 kJ/mol
# Density = 1.742020 g / cm^3
# Si number density = 17.459944 Si / 1000 Ang^3
#
#
#
# Elastic Constant Matrix: (Units=GPa)
#
#
# Indices 1 2 3 4 5 6 
#
# 1 136.2392 57.7993 46.6198 0.0000 0.0000 0.0000
# 2 57.7993 80.0578 39.1212 0.0000 0.0000 0.0000
# 3 46.6198 39.1212 83.2548 0.0000 0.0000 0.0000
# 4 0.0000 0.0000 0.0000 19.2400 0.0000 0.0000
# 5 0.0000 0.0000 0.0000 0.0000 22.2722 0.0000
# 6 0.0000 0.0000 0.0000 0.0000 0.0000 25.9928
#
#
#
# Elastic Compliance Matrix: (Units=1/GPa)
#
#
# Indices 1 2 3 4 5 6 
#
# 1 0.011205 -0.006521 -0.003210 0.000000 0.000000 0.000000
# 2 -0.006521 0.020009 -0.005751 0.000000 0.000000 0.000000
# 3 -0.003210 -0.005751 0.016511 0.000000 0.000000 0.000000
# 4 0.000000 0.000000 0.000000 0.051975 0.000000 0.000000
# 5 0.000000 0.000000 0.000000 0.000000 0.044899 0.000000
# 6 0.000000 0.000000 0.000000 0.000000 0.000000 0.038472
#
#
# Mechanical properties :
#
#
# Convention : Reuss Voigt Hill
#
# Bulk Modulus (GPa) = 59.66063 65.18136 62.42099
# Shear Modulus (GPa) = 22.76634 23.90178 23.33406
#
# Velocity S-wave (km/s) = 3.61490 3.70395 3.65969
# Velocity P-wave (km/s) = 7.18801 7.46360 7.32710
#
# Compressibility (1/GPa) = 0.01676147
#
# Stress axis : x y z
#
# Youngs Moduli (GPa) = 89.24532 49.97741 60.56510
#
# Poissons Ratio (x) = 0.32590 0.19443
# Poissons Ratio (y) = 0.58197 0.34829
# Poissons Ratio (z) = 0.28650 0.28740
#
# Static dielectric constant tensor:
#      x y z
#    x 3.544460 0.000000 0.000000 
#    y 0.000000 3.048030 0.000000 
#    z 0.000000 0.000000 3.424990 
# 
# 
# High freq. dielectric constant tensor:
#      x y z
#    x 1.677970 0.000000 0.000000 
#    y 0.000000 1.642990 0.000000 
#    z 0.000000 0.000000 1.686760 
# 
# From -- ./inp_files/18070.got.cif
#   From: 2010.03.12/outbox.cif.g09.slc.cpg/sg69_10_cif.got.tgz:18070.got - 2010.04.10 23:52:46.
