data_PCOD8284204
_publ_section_title
;
Structure prediction by ZEFSAII (Michael W. Deem and Ramdas Pophale) SiO2 
 PCOD8284204
Probable space group: F M M M
;
_chemical_formula_sum "Si O2"
_cell_formula_units_Z 192
_cell_length_a 27.299000
_cell_length_b 21.128886
_cell_length_c 18.665306
_cell_angle_alpha 90.000000
_cell_angle_beta 90.000000
_cell_angle_gamma 90.000000
_cell_volume 10766.101071
_symmetry_space_group_name_H-M "F M M M"
_symmetry_group_IT_number 69
_symmetry_cell_setting 'orthorhombic'
loop_
_space_group_symop_operation_xyz
x,y,z
-x,-y,z
x,-y,-z
-x,y,-z
-x,-y,-z
x,y,-z
-x,y,z
x,-y,z
x,1/2+y,1/2+z
-x,1/2-y,1/2+z
x,1/2-y,1/2-z
-x,1/2+y,1/2-z
-x,1/2-y,1/2-z
x,1/2+y,1/2-z
-x,1/2+y,1/2+z
x,1/2-y,1/2+z
1/2+x,y,1/2+z
1/2-x,-y,1/2+z
1/2+x,-y,1/2-z
1/2-x,y,1/2-z
1/2-x,-y,1/2-z
1/2+x,y,1/2-z
1/2-x,y,1/2+z
1/2+x,-y,1/2+z
1/2+x,1/2+y,z
1/2-x,1/2-y,z
1/2+x,1/2-y,-z
1/2-x,1/2+y,-z
1/2-x,1/2-y,-z
1/2+x,1/2+y,-z
1/2-x,1/2+y,z
1/2+x,1/2-y,z
loop_
_atom_site_type_symbol
_atom_site_label
_atom_site_fract_x
_atom_site_fract_y
_atom_site_fract_z
Si Si1 0.943223 0.631235 0.819096
Si Si2 0.272750 0.817670 0.674646
Si Si3 0.556403 0.247792 0.418401
Si Si4 0.112640 0.690969 0.299552
Si Si5 0.270543 0.572725 0.584395
Si Si6 0.122174 0.071675 0.576861
O O1 0.934535 0.688237 0.874715
O O2 0.912000 0.633890 0.745526
O O3 0.920598 0.573768 0.864213
O O4 0.000000 0.620731 0.800408
O O5 0.250000 0.836999 0.750000
O O6 0.250000 0.750000 0.647727
O O7 0.330243 0.812409 0.687523
O O8 0.265193 0.875904 0.620561
O O9 0.575295 0.254647 0.500000
O O10 0.500000 0.227929 0.417027
O O11 0.587006 0.193718 0.377439
O O12 0.098129 0.750000 0.250000
O O13 0.260953 0.575015 0.500000
O O14 0.261177 0.500000 0.612077
O O15 0.325309 0.599209 0.602997
O O16 0.106014 0.102368 0.500000
O O17 0.135109 0.000000 0.561375
#
# Coordination Sequence:
#
# PCOD8284204 Si02
#       6
#    32  32  32  32  32  32
#     4  10  19  31  49  71  97 134 171 205 249 301
#     4  11  21  34  52  79 108 137 174 220 265 306
#     4   9  18  31  48  71  97 128 166 203 246 303
#     4  10  19  33  49  69 103 135 162 208 257 308
#     4   9  20  38  56  75 104 140 178 217 260 316
#     4   9  18  32  50  72 100 135 170 208 254 303
#
# _framework density 17.833753999999999
#
# number of rings (size 3 to 8) (size 9 to 14) (size 15 to 20)
#    0.000    2.333    1.667    3.000    2.333    4.667 
#    0.000    1.667    0.000    0.000    0.000    0.000 
#    0.000    0.000    0.000    8.833    0.000    0.000 
#
# Total GULP energy -594644.445561 kJ/mol
# GULP energy per Si atom -12388.425949 kJ/mol
# Density = 1.779316 g / cm^3
# Si number density = 17.833754 Si / 1000 Ang^3
#
#
#
# Elastic Constant Matrix: (Units=GPa)
#
#
# Indices 1 2 3 4 5 6 
#
# 1 80.1390 14.0125 53.3000 0.0000 0.0000 0.0000
# 2 14.0125 52.7717 32.5192 0.0000 0.0000 0.0000
# 3 53.3000 32.5192 89.9264 0.0000 0.0000 0.0000
# 4 0.0000 0.0000 0.0000 25.3864 0.0000 0.0000
# 5 0.0000 0.0000 0.0000 0.0000 22.3028 0.0000
# 6 0.0000 0.0000 0.0000 0.0000 0.0000 71.5530
#
#
#
# Elastic Compliance Matrix: (Units=1/GPa)
#
#
# Indices 1 2 3 4 5 6 
#
# 1 0.020889 0.002680 -0.013350 0.000000 0.000000 0.000000
# 2 0.002680 0.024727 -0.010530 0.000000 0.000000 0.000000
# 3 -0.013350 -0.010530 0.022841 0.000000 0.000000 0.000000
# 4 0.000000 0.000000 0.000000 0.039391 0.000000 0.000000
# 5 0.000000 0.000000 0.000000 0.000000 0.044837 0.000000
# 6 0.000000 0.000000 0.000000 0.000000 0.000000 0.013976
#
#
# Mechanical properties :
#
#
# Convention : Reuss Voigt Hill
#
# Bulk Modulus (GPa) = 38.37896 46.94452 42.66174
# Shear Modulus (GPa) = 22.96251 32.04882 27.50566
#
# Velocity S-wave (km/s) = 3.59219 4.24381 3.93152
# Velocity P-wave (km/s) = 6.22673 7.09885 6.67705
#
# Compressibility (1/GPa) = 0.02605594
#
# Stress axis : x y z
#
# Youngs Moduli (GPa) = 47.87266 40.44187 43.78134
#
# Poissons Ratio (x) = -0.10838 0.58448
# Poissons Ratio (y) = -0.12830 0.46103
# Poissons Ratio (z) = 0.63910 0.42586
#
# Static dielectric constant tensor:
#      x y z
#    x 3.341530 0.000000 0.000000 
#    y 0.000000 3.072560 0.000000 
#    z 0.000000 0.000000 3.573120 
# 
# 
# High freq. dielectric constant tensor:
#      x y z
#    x 1.693860 0.000000 0.000000 
#    y 0.000000 1.653560 0.000000 
#    z 0.000000 0.000000 1.690100 
# 
# From -- ./inp_files/32852.got.cif
#   From: 2010.03.12/outbox.cif.g09.slc.cpg/sg69_17_cif.got.tgz:32852.got - 2010.04.10 23:52:46.
