data_PCOD8284032
_publ_section_title
;
Structure prediction by ZEFSAII (Michael W. Deem and Ramdas Pophale) SiO2 
 PCOD8284032
Probable space group: F M M M
;
_chemical_formula_sum "Si O2"
_cell_formula_units_Z 112
_cell_length_a 18.651045
_cell_length_b 36.718592
_cell_length_c 8.779598
_cell_angle_alpha 90.000000
_cell_angle_beta 90.000000
_cell_angle_gamma 90.000000
_cell_volume 6012.620875
_symmetry_space_group_name_H-M "F M M M"
_symmetry_group_IT_number 69
_symmetry_cell_setting 'orthorhombic'
loop_
_space_group_symop_operation_xyz
x,y,z
-x,-y,z
x,-y,-z
-x,y,-z
-x,-y,-z
x,y,-z
-x,y,z
x,-y,z
x,1/2+y,1/2+z
-x,1/2-y,1/2+z
x,1/2-y,1/2-z
-x,1/2+y,1/2-z
-x,1/2-y,1/2-z
x,1/2+y,1/2-z
-x,1/2+y,1/2+z
x,1/2-y,1/2+z
1/2+x,y,1/2+z
1/2-x,-y,1/2+z
1/2+x,-y,1/2-z
1/2-x,y,1/2-z
1/2-x,-y,1/2-z
1/2+x,y,1/2-z
1/2-x,y,1/2+z
1/2+x,-y,1/2+z
1/2+x,1/2+y,z
1/2-x,1/2-y,z
1/2+x,1/2-y,-z
1/2-x,1/2+y,-z
1/2-x,1/2-y,-z
1/2+x,1/2+y,-z
1/2-x,1/2+y,z
1/2+x,1/2-y,z
loop_
_atom_site_type_symbol
_atom_site_label
_atom_site_fract_x
_atom_site_fract_y
_atom_site_fract_z
Si Si1 0.419231 0.714818 0.678044
Si Si2 0.170801 0.000000 0.318507
Si Si3 0.414861 0.365183 0.674380
Si Si4 0.672276 0.072747 0.321001
O O1 0.419178 0.720373 0.500000
O O2 0.500000 0.714269 0.743012
O O3 0.378057 0.750000 0.750000
O O4 0.385211 0.675331 0.717689
O O5 0.250000 0.000000 0.250000
O O6 0.134595 0.963026 0.254770
O O7 0.170123 0.000000 0.500000
O O8 0.394226 0.374622 0.500000
O O9 0.500000 0.366728 0.694764
O O10 0.378494 0.393158 0.789149
O O11 0.680544 0.066534 0.500000
O O12 0.750000 0.080280 0.250000
#
# Coordination Sequence:
#
# PCOD8284032 Si02
#       4
#    32  16  32  32
#     4   8  14  25  43  67  95 127 162 199 238 284
#     4  10  18  32  53  74  97 126 163 203 243 289
#     4   9  18  33  51  73 103 135 165 201 248 296
#     4  11  21  34  53  76 101 129 165 205 245 291
#
# _framework density 18.627483999999999
#
# number of rings (size 3 to 8) (size 9 to 14) (size 15 to 20)
#    0.000    2.571    0.000    7.286    0.000    1.714 
#    0.000    3.571    0.000    5.143    0.000    6.000 
#    0.000    0.000    0.000    0.000    0.000    0.000 
#
# Total GULP energy -346943.422234 kJ/mol
# GULP energy per Si atom -12390.836508 kJ/mol
# Density = 1.858509 g / cm^3
# Si number density = 18.627484 Si / 1000 Ang^3
#
#
#
# Elastic Constant Matrix: (Units=GPa)
#
#
# Indices 1 2 3 4 5 6 
#
# 1 23.8039 30.3364 18.8635 0.0001 -0.0001 0.0006
# 2 30.3364 177.4448 68.3337 0.0000 0.0000 0.0001
# 3 18.8635 68.3337 119.8509 0.0001 -0.0002 0.0009
# 4 0.0001 0.0000 0.0001 39.7538 -0.0001 -0.0004
# 5 -0.0001 0.0000 -0.0002 -0.0001 20.8669 -0.0005
# 6 0.0006 0.0001 0.0009 -0.0004 -0.0005 163.5427
#
#
#
# Elastic Compliance Matrix: (Units=1/GPa)
#
#
# Indices 1 2 3 4 5 6 
#
# 1 0.055352 -0.007827 -0.004250 0.000000 0.000000 0.000000
# 2 -0.007827 0.008328 -0.003516 0.000000 0.000000 0.000000
# 3 -0.004250 -0.003516 0.011017 0.000000 0.000000 0.000000
# 4 0.000000 0.000000 0.000000 0.025155 0.000000 0.000000
# 5 0.000000 0.000000 0.000000 0.000000 0.047923 0.000000
# 6 0.000000 0.000000 0.000000 0.000000 0.000000 0.006115
#
#
# Mechanical properties :
#
#
# Convention : Reuss Voigt Hill
#
# Bulk Modulus (GPa) = 22.98209 61.79631 42.38920
# Shear Modulus (GPa) = 25.05286 58.40376 41.72831
#
# Velocity S-wave (km/s) = 3.67132 5.60550 4.73815
# Velocity P-wave (km/s) = 5.50781 8.66847 7.26217
#
# Compressibility (1/GPa) = 0.04351215
#
# Stress axis : x y z
#
# Youngs Moduli (GPa) = 18.06625 120.08099 90.76595
#
# Poissons Ratio (x) = 0.93983 0.38571
# Poissons Ratio (y) = 0.14140 0.31916
# Poissons Ratio (z) = 0.07677 0.42224
#
# Static dielectric constant tensor:
#      x y z
#    x 2.823640 0.000000 0.000000 
#    y 0.000000 4.222680 0.000000 
#    z 0.000000 0.000000 3.367980 
# 
# 
# High freq. dielectric constant tensor:
#      x y z
#    x 1.653510 0.000000 0.000000 
#    y 0.000000 1.755020 0.000000 
#    z 0.000000 0.000000 1.724340 
# 
# From -- ./inp_files/4001.got.cif
#   From: 2010.03.12/outbox.cif.g09.slc.cpg/sg69_3_cif.got.tgz:4001.got - 2010.04.10 23:52:46.
