data_PCOD8284313
_publ_section_title
;
Structure prediction by ZEFSAII (Michael W. Deem and Ramdas Pophale) SiO2 
 PCOD8284313
Probable space group: F M M M
;
_chemical_formula_sum "Si O2"
_cell_formula_units_Z 128
_cell_length_a 22.797461
_cell_length_b 20.297787
_cell_length_c 15.258266
_cell_angle_alpha 90.000000
_cell_angle_beta 90.000000
_cell_angle_gamma 90.000000
_cell_volume 7060.579607
_symmetry_space_group_name_H-M "F M M M"
_symmetry_group_IT_number 69
_symmetry_cell_setting 'orthorhombic'
loop_
_space_group_symop_operation_xyz
x,y,z
-x,-y,z
x,-y,-z
-x,y,-z
-x,-y,-z
x,y,-z
-x,y,z
x,-y,z
x,1/2+y,1/2+z
-x,1/2-y,1/2+z
x,1/2-y,1/2-z
-x,1/2+y,1/2-z
-x,1/2-y,1/2-z
x,1/2+y,1/2-z
-x,1/2+y,1/2+z
x,1/2-y,1/2+z
1/2+x,y,1/2+z
1/2-x,-y,1/2+z
1/2+x,-y,1/2-z
1/2-x,y,1/2-z
1/2-x,-y,1/2-z
1/2+x,y,1/2-z
1/2-x,y,1/2+z
1/2+x,-y,1/2+z
1/2+x,1/2+y,z
1/2-x,1/2-y,z
1/2+x,1/2-y,-z
1/2-x,1/2+y,-z
1/2-x,1/2-y,-z
1/2+x,1/2+y,-z
1/2-x,1/2+y,z
1/2+x,1/2-y,z
loop_
_atom_site_type_symbol
_atom_site_label
_atom_site_fract_x
_atom_site_fract_y
_atom_site_fract_z
Si Si1 0.240744 0.346690 0.500000
Si Si2 0.433065 0.288532 0.339048
Si Si3 0.148669 0.732697 0.000000
Si Si4 0.262156 0.926708 0.843572
Si Si5 0.396602 0.574020 0.603115
O O1 0.198668 0.285977 0.500000
O O2 0.311439 0.333135 0.500000
O O3 0.224358 0.387613 0.414109
O O4 0.500000 0.270388 0.361277
O O5 0.414676 0.250000 0.250000
O O6 0.390867 0.260915 0.414149
O O7 0.427441 0.368994 0.337649
O O8 0.250000 0.892279 0.750000
O O9 0.329468 0.927369 0.869844
O O10 0.235999 0.000000 0.840829
O O11 0.405054 0.592259 0.500000
O O12 0.422804 0.500000 0.620461
#
# Coordination Sequence:
#
# PCOD8284313 Si02
#       5
#    16  32  16  32  32
#     4  11  21  34  54  81 110 145 179 224 275 342
#     4  11  23  39  58  81 113 152 193 235 284 337
#     4  11  23  36  54  78 113 146 184 230 277 332
#     4  10  19  32  53  79 110 145 178 224 282 336
#     4  10  19  36  60  84 113 144 187 243 292 338
#
# _framework density 18.128824000000002
#
# number of rings (size 3 to 8) (size 9 to 14) (size 15 to 20)
#    0.000    1.500    5.000    0.750    3.500    0.500 
#    0.000    3.750    0.000    0.000    0.000    0.000 
#    0.000    8.000    0.000    0.000    0.000    0.000 
#
# Total GULP energy -396485.048229 kJ/mol
# GULP energy per Si atom -12390.157757 kJ/mol
# Density = 1.808756 g / cm^3
# Si number density = 18.128824 Si / 1000 Ang^3
#
#
#
# Elastic Constant Matrix: (Units=GPa)
#
#
# Indices 1 2 3 4 5 6 
#
# 1 62.4401 27.8902 38.4642 0.0000 0.0000 0.0000
# 2 27.8902 102.5663 72.7403 0.0000 0.0000 0.0000
# 3 38.4642 72.7403 156.0077 0.0000 0.0000 0.0000
# 4 0.0000 0.0000 0.0000 34.3914 0.0000 0.0000
# 5 0.0000 0.0000 0.0000 0.0000 23.5789 0.0000
# 6 0.0000 0.0000 0.0000 0.0000 0.0000 12.2041
#
#
#
# Elastic Compliance Matrix: (Units=1/GPa)
#
#
# Indices 1 2 3 4 5 6 
#
# 1 0.019413 -0.002815 -0.003474 0.000000 0.000000 0.000000
# 2 -0.002815 0.014975 -0.006288 0.000000 0.000000 0.000000
# 3 -0.003474 -0.006288 0.010198 0.000000 0.000000 0.000000
# 4 0.000000 0.000000 0.000000 0.029077 0.000000 0.000000
# 5 0.000000 0.000000 0.000000 0.000000 0.042411 0.000000
# 6 0.000000 0.000000 0.000000 0.000000 0.000000 0.081940
#
#
# Mechanical properties :
#
#
# Convention : Reuss Voigt Hill
#
# Bulk Modulus (GPa) = 51.46185 66.57815 59.02000
# Shear Modulus (GPa) = 21.77277 26.16283 23.96780
#
# Velocity S-wave (km/s) = 3.46931 3.80302 3.63999
# Velocity P-wave (km/s) = 6.67057 7.48924 7.09173
#
# Compressibility (1/GPa) = 0.01943187
#
# Stress axis : x y z
#
# Youngs Moduli (GPa) = 51.51276 66.77872 98.05604
#
# Poissons Ratio (x) = 0.18800 0.34061
# Poissons Ratio (y) = 0.14502 0.61658
# Poissons Ratio (z) = 0.17894 0.41991
#
# Static dielectric constant tensor:
#      x y z
#    x 3.148420 0.000000 0.000000 
#    y 0.000000 3.738330 0.000000 
#    z 0.000000 0.000000 3.516960 
# 
# 
# High freq. dielectric constant tensor:
#      x y z
#    x 1.684430 0.000000 0.000000 
#    y 0.000000 1.712560 0.000000 
#    z 0.000000 0.000000 1.699340 
# 
# From -- ./inp_files/25702.got.cif
#   From: 2010.03.12/outbox.cif.g09.slc.cpg/sg69_13_cif.got.tgz:25702.got - 2010.04.10 23:52:46.
