data_PCOD8284851
_publ_section_title
;
Structure prediction by ZEFSAII (Michael W. Deem and Ramdas Pophale) SiO2 
 PCOD8284851
Probable space group: F M M M
;
_chemical_formula_sum "Si O2"
_cell_formula_units_Z 160
_cell_length_a 14.685710
_cell_length_b 17.600517
_cell_length_c 31.503014
_cell_angle_alpha 90.000000
_cell_angle_beta 90.000000
_cell_angle_gamma 90.000000
_cell_volume 8142.775835
_symmetry_space_group_name_H-M "F M M M"
_symmetry_group_IT_number 69
_symmetry_cell_setting 'orthorhombic'
loop_
_space_group_symop_operation_xyz
x,y,z
-x,-y,z
x,-y,-z
-x,y,-z
-x,-y,-z
x,y,-z
-x,y,z
x,-y,z
x,1/2+y,1/2+z
-x,1/2-y,1/2+z
x,1/2-y,1/2-z
-x,1/2+y,1/2-z
-x,1/2-y,1/2-z
x,1/2+y,1/2-z
-x,1/2+y,1/2+z
x,1/2-y,1/2+z
1/2+x,y,1/2+z
1/2-x,-y,1/2+z
1/2+x,-y,1/2-z
1/2-x,y,1/2-z
1/2-x,-y,1/2-z
1/2+x,y,1/2-z
1/2-x,y,1/2+z
1/2+x,-y,1/2+z
1/2+x,1/2+y,z
1/2-x,1/2-y,z
1/2+x,1/2-y,-z
1/2-x,1/2+y,-z
1/2-x,1/2-y,-z
1/2+x,1/2+y,-z
1/2-x,1/2+y,z
1/2+x,1/2-y,z
loop_
_atom_site_type_symbol
_atom_site_label
_atom_site_fract_x
_atom_site_fract_y
_atom_site_fract_z
Si Si1 0.598553 0.312327 0.719179
Si Si2 0.893722 0.335691 0.000000
Si Si3 0.745207 0.589597 0.439194
Si Si4 0.837002 0.916030 0.219452
Si Si5 0.892421 0.345258 0.500000
Si Si6 0.259050 0.164991 0.148755
O O1 0.500000 0.281515 0.704997
O O2 0.649040 0.250000 0.750000
O O3 0.583680 0.385143 0.750055
O O4 0.649693 0.336022 0.676560
O O5 0.843332 0.370250 0.040857
O O6 0.883390 0.245200 0.000000
O O7 0.000000 0.359411 0.000000
O O8 0.741181 0.500000 0.447832
O O9 0.840064 0.621921 0.458586
O O10 0.738324 0.605441 0.389359
O O11 0.750000 0.914946 0.250000
O O12 0.824319 0.860498 0.178903
O O13 0.859693 0.000000 0.202538
O O14 0.000000 0.369229 0.500000
O O15 0.250000 0.250000 0.130439
#
# Coordination Sequence:
#
# PCOD8284851 Si02
#       6
#    32  16  32  32  16  32
#     4  10  20  35  55  81 111 149 197 242 293 355
#     4  10  21  40  65  91 122 160 201 249 302 365
#     4  11  23  38  60  93 127 161 203 249 305 373
#     4   9  18  32  52  76 104 143 187 233 288 344
#     4  10  21  42  69  91 120 162 205 251 306 369
#     4  11  20  35  58  81 112 153 195 244 290 343
#
# _framework density 19.649318999999998
#
# number of rings (size 3 to 8) (size 9 to 14) (size 15 to 20)
#    0.000    1.800    2.000    4.200    0.000    3.600 
#    0.000    2.000    0.000    2.400    0.000    0.000 
#    0.000    0.000    0.000    0.000    0.000    0.000 
#
# Total GULP energy -495582.368057 kJ/mol
# GULP energy per Si atom -12389.559201 kJ/mol
# Density = 1.960460 g / cm^3
# Si number density = 19.649319 Si / 1000 Ang^3
#
#
#
# Elastic Constant Matrix: (Units=GPa)
#
#
# Indices 1 2 3 4 5 6 
#
# 1 117.3723 32.2288 46.2310 0.0000 0.0000 0.0000
# 2 32.2288 121.0807 30.7002 0.0000 0.0000 0.0000
# 3 46.2310 30.7002 125.0819 0.0000 0.0000 0.0000
# 4 0.0000 0.0000 0.0000 34.9848 0.0000 0.0000
# 5 0.0000 0.0000 0.0000 0.0000 14.9383 0.0000
# 6 0.0000 0.0000 0.0000 0.0000 0.0000 18.6231
#
#
#
# Elastic Compliance Matrix: (Units=1/GPa)
#
#
# Indices 1 2 3 4 5 6 
#
# 1 0.010369 -0.001907 -0.003364 0.000000 0.000000 0.000000
# 2 -0.001907 0.009158 -0.001543 0.000000 0.000000 0.000000
# 3 -0.003364 -0.001543 0.009617 0.000000 0.000000 0.000000
# 4 0.000000 0.000000 0.000000 0.028584 0.000000 0.000000
# 5 0.000000 0.000000 0.000000 0.000000 0.066942 0.000000
# 6 0.000000 0.000000 0.000000 0.000000 0.000000 0.053697
#
#
# Mechanical properties :
#
#
# Convention : Reuss Voigt Hill
#
# Bulk Modulus (GPa) = 64.45298 64.65053 64.55176
# Shear Modulus (GPa) = 25.35940 30.66757 28.01348
#
# Velocity S-wave (km/s) = 3.59639 3.95491 3.77990
# Velocity P-wave (km/s) = 7.07942 7.33680 7.20926
#
# Compressibility (1/GPa) = 0.01551519
#
# Stress axis : x y z
#
# Youngs Moduli (GPa) = 96.44476 109.19744 103.98352
#
# Poissons Ratio (x) = 0.20823 0.34983
# Poissons Ratio (y) = 0.18391 0.16044
# Poissons Ratio (z) = 0.32447 0.16848
#
# Static dielectric constant tensor:
#      x y z
#    x 3.466160 0.000000 0.000000 
#    y 0.000000 3.823810 0.000000 
#    z 0.000000 0.000000 3.472820 
# 
# 
# High freq. dielectric constant tensor:
#      x y z
#    x 1.748300 0.000000 0.000000 
#    y 0.000000 1.781140 0.000000 
#    z 0.000000 0.000000 1.758250 
# 
# From -- ./inp_files/45706.got.cif
#   From: 2010.03.12/outbox.cif.g09.slc.cpg/sg69_23_cif.got.tgz:45706.got - 2010.04.10 23:52:46.
