data_PCOD8284662
_publ_section_title
;
Structure prediction by ZEFSAII (Michael W. Deem and Ramdas Pophale) SiO2 
 PCOD8284662
Probable space group: F M M M
;
_chemical_formula_sum "Si O2"
_cell_formula_units_Z 160
_cell_length_a 17.738997
_cell_length_b 30.754958
_cell_length_c 14.901669
_cell_angle_alpha 90.000000
_cell_angle_beta 90.000000
_cell_angle_gamma 90.000000
_cell_volume 8129.785948
_symmetry_space_group_name_H-M "F M M M"
_symmetry_group_IT_number 69
_symmetry_cell_setting 'orthorhombic'
loop_
_space_group_symop_operation_xyz
x,y,z
-x,-y,z
x,-y,-z
-x,y,-z
-x,-y,-z
x,y,-z
-x,y,z
x,-y,z
x,1/2+y,1/2+z
-x,1/2-y,1/2+z
x,1/2-y,1/2-z
-x,1/2+y,1/2-z
-x,1/2-y,1/2-z
x,1/2+y,1/2-z
-x,1/2+y,1/2+z
x,1/2-y,1/2+z
1/2+x,y,1/2+z
1/2-x,-y,1/2+z
1/2+x,-y,1/2-z
1/2-x,y,1/2-z
1/2-x,-y,1/2-z
1/2+x,y,1/2-z
1/2-x,y,1/2+z
1/2+x,-y,1/2+z
1/2+x,1/2+y,z
1/2-x,1/2-y,z
1/2+x,1/2-y,-z
1/2-x,1/2+y,-z
1/2-x,1/2-y,-z
1/2+x,1/2+y,-z
1/2-x,1/2+y,z
1/2+x,1/2-y,z
loop_
_atom_site_type_symbol
_atom_site_label
_atom_site_fract_x
_atom_site_fract_y
_atom_site_fract_z
Si Si1 0.162711 0.762699 0.500000
Si Si2 0.085950 0.676363 0.137727
Si Si3 0.314286 0.048957 0.677070
Si Si4 0.582411 0.398565 0.500000
Si Si5 0.411043 0.369558 0.184728
Si Si6 0.089015 0.829266 0.000000
Si Si7 0.232536 0.949040 0.500000
O O1 0.250000 0.750000 0.500000
O O2 0.142244 0.789635 0.409842
O O3 0.112780 0.720236 0.500000
O O4 0.090288 0.630561 0.088107
O O5 0.111875 0.666319 0.239869
O O6 0.000000 0.694760 0.133922
O O7 0.250000 0.047545 0.750000
O O8 0.378316 0.082788 0.706625
O O9 0.277969 0.067438 0.586054
O O10 0.348341 0.000000 0.665198
O O11 0.500000 0.421448 0.500000
O O12 0.646575 0.434176 0.500000
O O13 0.500000 0.375336 0.184189
O O14 0.379518 0.352774 0.089213
O O15 0.000000 0.831526 0.000000
O O16 0.227475 0.000000 0.500000
#
# Coordination Sequence:
#
# PCOD8284662 Si02
#       7
#    16  32  32  16  32  16  16
#     4  11  23  38  57  85 113 141 179 222 273 334
#     4   9  19  37  58  79 108 144 180 225 283 332
#     4  10  21  36  54  79 113 150 184 224 279 334
#     4   9  17  32  55  79 103 140 190 234 275 332
#     4  10  21  37  59  84 108 144 191 232 273 326
#     4  10  22  39  57  80 111 144 183 229 274 324
#     4  10  20  33  50  76 112 150 182 222 283 338
#
# _framework density 19.680714999999999
#
# number of rings (size 3 to 8) (size 9 to 14) (size 15 to 20)
#    0.000    2.200    0.000    3.300    0.000    6.200 
#    0.000    4.000    0.000   10.800    0.000    0.000 
#    0.000    0.000    0.000    0.000    0.000    0.000 
#
# Total GULP energy -495905.232365 kJ/mol
# GULP energy per Si atom -12397.630809 kJ/mol
# Density = 1.963592 g / cm^3
# Si number density = 19.680715 Si / 1000 Ang^3
#
#
#
# Elastic Constant Matrix: (Units=GPa)
#
#
# Indices 1 2 3 4 5 6 
#
# 1 68.4156 49.0505 40.3525 0.0000 0.0000 0.0000
# 2 49.0505 93.9356 43.7215 0.0000 0.0000 0.0000
# 3 40.3525 43.7215 143.0675 0.0000 0.0000 0.0000
# 4 0.0000 0.0000 0.0000 25.5306 0.0000 0.0000
# 5 0.0000 0.0000 0.0000 0.0000 21.3702 0.0000
# 6 0.0000 0.0000 0.0000 0.0000 0.0000 43.4452
#
#
#
# Elastic Compliance Matrix: (Units=1/GPa)
#
#
# Indices 1 2 3 4 5 6 
#
# 1 0.024813 -0.011308 -0.003543 0.000000 0.000000 0.000000
# 2 -0.011308 0.017564 -0.002178 0.000000 0.000000 0.000000
# 3 -0.003543 -0.002178 0.008655 0.000000 0.000000 0.000000
# 4 0.000000 0.000000 0.000000 0.039169 0.000000 0.000000
# 5 0.000000 0.000000 0.000000 0.000000 0.046794 0.000000
# 6 0.000000 0.000000 0.000000 0.000000 0.000000 0.023018
#
#
# Mechanical properties :
#
#
# Convention : Reuss Voigt Hill
#
# Bulk Modulus (GPa) = 58.91324 63.51864 61.21594
# Shear Modulus (GPa) = 25.03398 29.55547 27.29473
#
# Velocity S-wave (km/s) = 3.57039 3.87944 3.72812
# Velocity P-wave (km/s) = 6.85539 7.23957 7.05010
#
# Compressibility (1/GPa) = 0.01697411
#
# Stress axis : x y z
#
# Youngs Moduli (GPa) = 40.30080 56.93453 115.54448
#
# Poissons Ratio (x) = 0.64380 0.40938
# Poissons Ratio (y) = 0.45571 0.25168
# Poissons Ratio (z) = 0.14279 0.12401
#
# Static dielectric constant tensor:
#      x y z
#    x 3.447330 0.000000 0.000000 
#    y 0.000000 3.487630 0.000000 
#    z 0.000000 0.000000 4.142820 
# 
# 
# High freq. dielectric constant tensor:
#      x y z
#    x 1.751810 0.000000 0.000000 
#    y 0.000000 1.759080 0.000000 
#    z 0.000000 0.000000 1.784440 
# 
# From -- ./inp_files/15729.got.cif
#   From: 2010.03.12/outbox.cif.g09.slc.cpg/sg69_8_cif.got.tgz:15729.got - 2010.04.10 23:52:46.
