data_PCOD8284909
_publ_section_title
;
Structure prediction by ZEFSAII (Michael W. Deem and Ramdas Pophale) SiO2 
 PCOD8284909
Probable space group: F M M M
;
_chemical_formula_sum "Si O2"
_cell_formula_units_Z 112
_cell_length_a 21.776472
_cell_length_b 17.717162
_cell_length_c 13.821896
_cell_angle_alpha 90.000000
_cell_angle_beta 90.000000
_cell_angle_gamma 90.000000
_cell_volume 5332.726350
_symmetry_space_group_name_H-M "F M M M"
_symmetry_group_IT_number 69
_symmetry_cell_setting 'orthorhombic'
loop_
_space_group_symop_operation_xyz
x,y,z
-x,-y,z
x,-y,-z
-x,y,-z
-x,-y,-z
x,y,-z
-x,y,z
x,-y,z
x,1/2+y,1/2+z
-x,1/2-y,1/2+z
x,1/2-y,1/2-z
-x,1/2+y,1/2-z
-x,1/2-y,1/2-z
x,1/2+y,1/2-z
-x,1/2+y,1/2+z
x,1/2-y,1/2+z
1/2+x,y,1/2+z
1/2-x,-y,1/2+z
1/2+x,-y,1/2-z
1/2-x,y,1/2-z
1/2-x,-y,1/2-z
1/2+x,y,1/2-z
1/2-x,y,1/2+z
1/2+x,-y,1/2+z
1/2+x,1/2+y,z
1/2-x,1/2-y,z
1/2+x,1/2-y,-z
1/2-x,1/2+y,-z
1/2-x,1/2-y,-z
1/2+x,1/2+y,-z
1/2-x,1/2+y,z
1/2+x,1/2-y,z
loop_
_atom_site_type_symbol
_atom_site_label
_atom_site_fract_x
_atom_site_fract_y
_atom_site_fract_z
Si Si1 0.876220 0.851468 0.310000
Si Si2 0.651402 0.192263 0.389450
Si Si3 0.763317 0.083003 0.608728
Si Si4 0.500000 0.916819 0.886889
O O1 0.892289 0.840303 0.195813
O O2 0.845244 0.780882 0.366906
O O3 0.822781 0.913730 0.321205
O O4 0.940081 0.871162 0.358059
O O5 0.627661 0.177463 0.500000
O O6 0.716504 0.151531 0.372637
O O7 0.788429 0.088956 0.500000
O O8 0.732623 0.000000 0.625648
O O9 0.500000 0.000000 0.838156
O O10 0.500000 0.926013 0.000000
#
# Coordination Sequence:
#
# PCOD8284909 Si02
#       4
#    32  32  32  16
#     4  11  22  38  61  85 116 157 194 237 290 341
#     4  10  22  38  58  86 117 151 194 239 288 349
#     4  10  20  35  58  88 120 153 191 240 295 346
#     4  11  24  41  63  91 118 148 193 242 283 333
#
# _framework density 21.002389999999998
#
# number of rings (size 3 to 8) (size 9 to 14) (size 15 to 20)
#    0.000    1.571    0.000    5.143    0.000   12.571 
#    0.000    2.143    0.000    0.857    0.000    0.000 
#    0.000    0.000    0.000    0.000    0.000    0.000 
#
# Total GULP energy -346885.957996 kJ/mol
# GULP energy per Si atom -12388.784214 kJ/mol
# Density = 2.095459 g / cm^3
# Si number density = 21.002390 Si / 1000 Ang^3
#
#
#
# Elastic Constant Matrix: (Units=GPa)
#
#
# Indices 1 2 3 4 5 6 
#
# 1 107.6412 71.4973 31.3597 0.0000 0.0000 0.0000
# 2 71.4973 126.0107 39.9482 0.0000 0.0000 0.0000
# 3 31.3597 39.9482 151.7496 0.0000 0.0000 0.0000
# 4 0.0000 0.0000 0.0000 20.4277 0.0000 0.0000
# 5 0.0000 0.0000 0.0000 0.0000 28.6649 0.0000
# 6 0.0000 0.0000 0.0000 0.0000 0.0000 -12.5612
#
#
#
# Elastic Compliance Matrix: (Units=1/GPa)
#
#
# Indices 1 2 3 4 5 6 
#
# 1 0.015031 -0.008230 -0.000939 0.000000 0.000000 0.000000
# 2 -0.008230 0.013165 -0.001765 0.000000 0.000000 0.000000
# 3 -0.000939 -0.001765 0.007249 0.000000 0.000000 0.000000
# 4 0.000000 0.000000 0.000000 0.048953 0.000000 0.000000
# 5 0.000000 0.000000 0.000000 0.000000 0.034886 0.000000
# 6 0.000000 0.000000 0.000000 0.000000 0.000000 -0.079610
#
#
# Mechanical properties :
#
#
# Convention : Reuss Voigt Hill
#
# Bulk Modulus (GPa) = 73.66583 74.55687 74.11135
# Shear Modulus (GPa) = 75.67965 23.47936 49.57950
#
# Velocity S-wave (km/s) = 6.00933 3.34718 4.86393
# Velocity P-wave (km/s) = 9.12691 7.10735 8.17970
#
# Compressibility (1/GPa) = 0.01357481
#
# Stress axis : x y z
#
# Youngs Moduli (GPa) = 66.53097 75.95792 137.95843
#
# Poissons Ratio (x) = 0.62516 0.12961
# Poissons Ratio (y) = 0.54758 0.24348
# Poissons Ratio (z) = 0.06250 0.13406
#
# Static dielectric constant tensor:
#      x y z
#    x 3.307450 0.000000 0.000000 
#    y 0.000000 4.030510 0.000000 
#    z 0.000000 0.000000 4.205870 
# 
# 
# High freq. dielectric constant tensor:
#      x y z
#    x 1.778230 0.000000 0.000000 
#    y 0.000000 1.834610 0.000000 
#    z 0.000000 0.000000 1.843730 
# 
# From -- ./inp_files/17231.got.cif
#   From: 2010.03.12/outbox.cif.g09.slc.cpg/sg69_9_cif.got.tgz:17231.got - 2010.04.10 23:52:46.
