data_PCOD8284963
_publ_section_title
;
Structure prediction by ZEFSAII (Michael W. Deem and Ramdas Pophale) SiO2 
 PCOD8284963
Probable space group: F M M M
;
_chemical_formula_sum "Si O2"
_cell_formula_units_Z 176
_cell_length_a 14.698855
_cell_length_b 30.047641
_cell_length_c 22.371550
_cell_angle_alpha 90.000000
_cell_angle_beta 90.000000
_cell_angle_gamma 90.000000
_cell_volume 9880.751171
_symmetry_space_group_name_H-M "F M M M"
_symmetry_group_IT_number 69
_symmetry_cell_setting 'orthorhombic'
loop_
_space_group_symop_operation_xyz
x,y,z
-x,-y,z
x,-y,-z
-x,y,-z
-x,-y,-z
x,y,-z
-x,y,z
x,-y,z
x,1/2+y,1/2+z
-x,1/2-y,1/2+z
x,1/2-y,1/2-z
-x,1/2+y,1/2-z
-x,1/2-y,1/2-z
x,1/2+y,1/2-z
-x,1/2+y,1/2+z
x,1/2-y,1/2+z
1/2+x,y,1/2+z
1/2-x,-y,1/2+z
1/2+x,-y,1/2-z
1/2-x,y,1/2-z
1/2-x,-y,1/2-z
1/2+x,y,1/2-z
1/2-x,y,1/2+z
1/2+x,-y,1/2+z
1/2+x,1/2+y,z
1/2-x,1/2-y,z
1/2+x,1/2-y,-z
1/2-x,1/2+y,-z
1/2-x,1/2-y,-z
1/2+x,1/2+y,-z
1/2-x,1/2+y,z
1/2+x,1/2-y,z
loop_
_atom_site_type_symbol
_atom_site_label
_atom_site_fract_x
_atom_site_fract_y
_atom_site_fract_z
Si Si1 0.104153 0.907610 0.619706
Si Si2 0.352173 0.857154 0.766204
Si Si3 0.400681 0.176761 0.354811
Si Si4 0.894890 0.221544 0.351509
Si Si5 0.892437 0.000000 0.567775
Si Si6 0.725206 0.168513 0.068749
O O1 0.110734 0.896159 0.690478
O O2 0.140716 0.957059 0.605333
O O3 0.164532 0.874718 0.580321
O O4 0.000000 0.902537 0.598863
O O5 0.250000 0.868674 0.750000
O O6 0.406380 0.854228 0.704073
O O7 0.358328 0.809459 0.798531
O O8 0.500000 0.173460 0.386574
O O9 0.382336 0.227344 0.333521
O O10 0.321778 0.161202 0.398865
O O11 0.831628 0.211504 0.409035
O O12 0.000000 0.209735 0.365632
O O13 0.852043 0.000000 0.500000
O O14 0.000000 0.000000 0.563663
O O15 0.746919 0.175139 0.000000
#
# Coordination Sequence:
#
# PCOD8284963 Si02
#       6
#    32  32  32  32  16  32
#     4  10  20  36  58  86 111 133 166 212 270 331
#     4  11  19  33  55  77 106 139 176 220 265 316
#     4  11  22  35  51  71 103 145 187 226 263 306
#     4  10  21  34  51  76 101 135 183 231 275 315
#     4   9  18  34  59  88 115 139 163 200 259 331
#     4  11  22  35  52  74 105 142 181 224 271 319
#
# _framework density 17.812411000000001
#
# number of rings (size 3 to 8) (size 9 to 14) (size 15 to 20)
#    0.000    1.545    3.636    4.909    0.000    6.182 
#    0.000    2.273    0.000    0.000    0.000    0.636 
#    0.000    2.182    0.000    0.000    0.000    0.000 
#
# Total GULP energy -545438.741307 kJ/mol
# GULP energy per Si atom -12396.335030 kJ/mol
# Density = 1.777187 g / cm^3
# Si number density = 17.812411 Si / 1000 Ang^3
#
#
#
# Elastic Constant Matrix: (Units=GPa)
#
#
# Indices 1 2 3 4 5 6 
#
# 1 88.8105 31.0114 28.5545 0.0000 0.0000 0.0000
# 2 31.0114 83.3458 34.2237 0.0000 0.0000 0.0000
# 3 28.5545 34.2237 121.6642 0.0000 0.0000 0.0000
# 4 0.0000 0.0000 0.0000 20.1962 0.0000 0.0000
# 5 0.0000 0.0000 0.0000 0.0000 14.7901 0.0000
# 6 0.0000 0.0000 0.0000 0.0000 0.0000 6.1440
#
#
#
# Elastic Compliance Matrix: (Units=1/GPa)
#
#
# Indices 1 2 3 4 5 6 
#
# 1 0.013343 -0.004159 -0.001962 0.000000 0.000000 0.000000
# 2 -0.004159 0.014862 -0.003204 0.000000 0.000000 0.000000
# 3 -0.001962 -0.003204 0.009581 0.000000 0.000000 0.000000
# 4 0.000000 0.000000 0.000000 0.049514 0.000000 0.000000
# 5 0.000000 0.000000 0.000000 0.000000 0.067613 0.000000
# 6 0.000000 0.000000 0.000000 0.000000 0.000000 0.162761
#
#
# Mechanical properties :
#
#
# Convention : Reuss Voigt Hill
#
# Bulk Modulus (GPa) = 52.25936 53.48884 52.87410
# Shear Modulus (GPa) = 14.58990 21.56145 18.07568
#
# Velocity S-wave (km/s) = 2.86507 3.48296 3.18902
# Velocity P-wave (km/s) = 6.35195 6.80212 6.58089
#
# Compressibility (1/GPa) = 0.01913533
#
# Stress axis : x y z
#
# Youngs Moduli (GPa) = 74.94585 67.28782 104.37212
#
# Poissons Ratio (x) = 0.27986 0.20474
# Poissons Ratio (y) = 0.31171 0.33444
# Poissons Ratio (z) = 0.14702 0.21561
#
# Static dielectric constant tensor:
#      x y z
#    x 3.403410 0.000000 0.000000 
#    y 0.000000 3.286390 0.000000 
#    z 0.000000 0.000000 3.307430 
# 
# 
# High freq. dielectric constant tensor:
#      x y z
#    x 1.695360 0.000000 0.000000 
#    y 0.000000 1.659720 0.000000 
#    z 0.000000 0.000000 1.681380 
# 
# From -- ./inp_files/36180.got.cif
#   From: 2010.03.12/outbox.cif.g09.slc.cpg/sg69_19_cif.got.tgz:36180.got - 2010.04.10 23:52:46.
