data_PCOD8284171
_publ_section_title
;
Structure prediction by ZEFSAII (Michael W. Deem and Ramdas Pophale) SiO2 
 PCOD8284171
Probable space group: F M M M
;
_chemical_formula_sum "Si O2"
_cell_formula_units_Z 144
_cell_length_a 20.586581
_cell_length_b 22.772208
_cell_length_c 17.769216
_cell_angle_alpha 90.000000
_cell_angle_beta 90.000000
_cell_angle_gamma 90.000000
_cell_volume 8330.242303
_symmetry_space_group_name_H-M "F M M M"
_symmetry_group_IT_number 69
_symmetry_cell_setting 'orthorhombic'
loop_
_space_group_symop_operation_xyz
x,y,z
-x,-y,z
x,-y,-z
-x,y,-z
-x,-y,-z
x,y,-z
-x,y,z
x,-y,z
x,1/2+y,1/2+z
-x,1/2-y,1/2+z
x,1/2-y,1/2-z
-x,1/2+y,1/2-z
-x,1/2-y,1/2-z
x,1/2+y,1/2-z
-x,1/2+y,1/2+z
x,1/2-y,1/2+z
1/2+x,y,1/2+z
1/2-x,-y,1/2+z
1/2+x,-y,1/2-z
1/2-x,y,1/2-z
1/2-x,-y,1/2-z
1/2+x,y,1/2-z
1/2-x,y,1/2+z
1/2+x,-y,1/2+z
1/2+x,1/2+y,z
1/2-x,1/2-y,z
1/2+x,1/2-y,-z
1/2-x,1/2+y,-z
1/2-x,1/2-y,-z
1/2+x,1/2+y,-z
1/2-x,1/2+y,z
1/2+x,1/2-y,z
loop_
_atom_site_type_symbol
_atom_site_label
_atom_site_fract_x
_atom_site_fract_y
_atom_site_fract_z
Si Si1 0.821179 0.932776 0.235258
Si Si2 0.922945 0.566240 0.000000
Si Si3 0.385480 0.433866 0.084996
Si Si4 0.500000 0.147446 0.411889
Si Si5 0.500000 0.770368 0.165676
Si Si6 0.426895 0.119004 0.155359
O O1 0.750000 0.905836 0.250000
O O2 0.827493 0.928942 0.144731
O O3 0.877435 0.897152 0.278259
O O4 0.825443 0.000000 0.263513
O O5 0.897271 0.597536 0.924284
O O6 0.896799 0.500000 0.000000
O O7 0.000000 0.569621 0.000000
O O8 0.414874 0.500000 0.085965
O O9 0.437502 0.387590 0.116906
O O10 0.361383 0.418630 0.000000
O O11 0.500000 0.144082 0.500000
O O12 0.500000 0.214663 0.387981
O O13 0.500000 0.750000 0.250000
O O14 0.564490 0.810083 0.151114
O O15 0.500000 0.091738 0.170736
#
# Coordination Sequence:
#
# PCOD8284171 Si02
#       6
#    32  16  32  16  16  32
#     4  10  20  34  52  78 109 140 177 219 267 317
#     4   9  16  30  50  76 106 133 174 218 268 323
#     4   9  18  33  52  77 106 136 171 215 270 327
#     4  10  19  30  54  79 105 133 169 220 267 309
#     4  10  20  31  49  76 106 136 177 215 264 307
#     4   9  20  33  53  76 108 141 176 220 264 319
#
# _framework density 17.286411999999999
#
# number of rings (size 3 to 8) (size 9 to 14) (size 15 to 20)
#    0.667    1.889    0.000    2.333    3.111    2.667 
#    2.000    0.000    0.000    6.000    0.000    3.111 
#    0.000    0.000    0.000    0.000    0.000    0.000 
#
# Total GULP energy -446044.624790 kJ/mol
# GULP energy per Si atom -12390.128466 kJ/mol
# Density = 1.724707 g / cm^3
# Si number density = 17.286412 Si / 1000 Ang^3
#
#
#
# Elastic Constant Matrix: (Units=GPa)
#
#
# Indices 1 2 3 4 5 6 
#
# 1 86.6716 31.3912 42.2467 0.0000 0.0000 0.0000
# 2 31.3912 98.9446 30.1629 0.0000 0.0000 0.0000
# 3 42.2467 30.1629 96.7524 0.0000 0.0000 0.0000
# 4 0.0000 0.0000 0.0000 32.1691 0.0000 0.0000
# 5 0.0000 0.0000 0.0000 0.0000 19.8107 0.0000
# 6 0.0000 0.0000 0.0000 0.0000 0.0000 64.2582
#
#
#
# Elastic Compliance Matrix: (Units=1/GPa)
#
#
# Indices 1 2 3 4 5 6 
#
# 1 0.015500 -0.003154 -0.005785 0.000000 0.000000 0.000000
# 2 -0.003154 0.011810 -0.002305 0.000000 0.000000 0.000000
# 3 -0.005785 -0.002305 0.013580 0.000000 0.000000 0.000000
# 4 0.000000 0.000000 0.000000 0.031086 0.000000 0.000000
# 5 0.000000 0.000000 0.000000 0.000000 0.050478 0.000000
# 6 0.000000 0.000000 0.000000 0.000000 0.000000 0.015562
#
#
# Mechanical properties :
#
#
# Convention : Reuss Voigt Hill
#
# Bulk Modulus (GPa) = 54.33867 54.44113 54.38990
# Shear Modulus (GPa) = 30.00548 35.15212 32.57880
#
# Velocity S-wave (km/s) = 4.17079 4.51434 4.34596
# Velocity P-wave (km/s) = 7.39572 7.66383 7.53097
#
# Compressibility (1/GPa) = 0.01840310
#
# Stress axis : x y z
#
# Youngs Moduli (GPa) = 64.51698 84.67501 73.63783
#
# Poissons Ratio (x) = 0.26707 0.42597
# Poissons Ratio (y) = 0.20349 0.16970
# Poissons Ratio (z) = 0.37321 0.19514
#
# Static dielectric constant tensor:
#      x y z
#    x 2.930700 0.000000 0.000000 
#    y 0.000000 2.959780 0.000000 
#    z 0.000000 0.000000 3.078700 
# 
# 
# High freq. dielectric constant tensor:
#      x y z
#    x 1.624850 0.000000 0.000000 
#    y 0.000000 1.653460 0.000000 
#    z 0.000000 0.000000 1.685640 
# 
# From -- ./inp_files/24820.got.cif
#   From: 2010.03.12/outbox.cif.g09.slc.cpg/sg69_13_cif.got.tgz:24820.got - 2010.04.10 23:52:46.
