data_PCOD8284280
_publ_section_title
;
Structure prediction by ZEFSAII (Michael W. Deem and Ramdas Pophale) SiO2 
 PCOD8284280
Probable space group: F M M M
;
_chemical_formula_sum "Si O2"
_cell_formula_units_Z 176
_cell_length_a 26.660900
_cell_length_b 15.849360
_cell_length_c 23.515668
_cell_angle_alpha 90.000000
_cell_angle_beta 90.000000
_cell_angle_gamma 90.000000
_cell_volume 9936.738389
_symmetry_space_group_name_H-M "F M M M"
_symmetry_group_IT_number 69
_symmetry_cell_setting 'orthorhombic'
loop_
_space_group_symop_operation_xyz
x,y,z
-x,-y,z
x,-y,-z
-x,y,-z
-x,-y,-z
x,y,-z
-x,y,z
x,-y,z
x,1/2+y,1/2+z
-x,1/2-y,1/2+z
x,1/2-y,1/2-z
-x,1/2+y,1/2-z
-x,1/2-y,1/2-z
x,1/2+y,1/2-z
-x,1/2+y,1/2+z
x,1/2-y,1/2+z
1/2+x,y,1/2+z
1/2-x,-y,1/2+z
1/2+x,-y,1/2-z
1/2-x,y,1/2-z
1/2-x,-y,1/2-z
1/2+x,y,1/2-z
1/2-x,y,1/2+z
1/2+x,-y,1/2+z
1/2+x,1/2+y,z
1/2-x,1/2-y,z
1/2+x,1/2-y,-z
1/2-x,1/2+y,-z
1/2-x,1/2-y,-z
1/2+x,1/2+y,-z
1/2-x,1/2+y,z
1/2+x,1/2-y,z
loop_
_atom_site_type_symbol
_atom_site_label
_atom_site_fract_x
_atom_site_fract_y
_atom_site_fract_z
Si Si1 0.604387 0.343688 0.625323
Si Si2 0.055715 0.000000 0.433456
Si Si3 0.367056 0.407620 0.063529
Si Si4 0.557463 0.401861 0.262852
Si Si5 0.942614 0.667355 0.642056
Si Si6 0.692784 0.744123 0.566444
O O1 0.584738 0.415957 0.583894
O O2 0.598637 0.377587 0.689659
O O3 0.570996 0.260054 0.619343
O O4 0.661512 0.321323 0.606221
O O5 0.050610 0.000000 0.500000
O O6 0.000000 0.000000 0.405234
O O7 0.342069 0.500000 0.069803
O O8 0.413245 0.402305 0.106416
O O9 0.325611 0.338622 0.077948
O O10 0.388021 0.393456 0.000000
O O11 0.500000 0.383759 0.283648
O O12 0.563386 0.500000 0.246950
O O13 0.570076 0.343868 0.208644
O O14 0.000000 0.648853 0.630509
O O15 0.687672 0.717433 0.500000
O O16 0.750000 0.750000 0.586408
#
# Coordination Sequence:
#
# PCOD8284280 Si02
#       6
#    32  16  32  32  32  32
#     4  11  20  34  53  75 106 144 180 223 271 323
#     4  11  22  34  50  78 118 153 179 217 272 341
#     4   9  18  33  52  75 103 132 166 217 280 331
#     4  10  19  32  51  77 111 145 181 224 266 318
#     4  10  20  32  51  77 106 145 187 219 259 321
#     4   9  19  37  57  77 102 132 177 232 278 327
#
# _framework density 17.712049
#
# number of rings (size 3 to 8) (size 9 to 14) (size 15 to 20)
#    0.000    2.091    0.909    3.273    0.000    3.636 
#    1.636    0.909    0.000    8.727    0.000    6.364 
#    0.000    0.000    0.000    0.000    0.000    0.000 
#
# Total GULP energy -545452.991685 kJ/mol
# GULP energy per Si atom -12396.658902 kJ/mol
# Density = 1.767174 g / cm^3
# Si number density = 17.712049 Si / 1000 Ang^3
#
#
#
# Elastic Constant Matrix: (Units=GPa)
#
#
# Indices 1 2 3 4 5 6 
#
# 1 127.8868 48.8948 63.2177 0.0000 0.0000 0.0000
# 2 48.8948 105.0310 36.9664 0.0000 0.0000 0.0000
# 3 63.2177 36.9664 83.3663 0.0000 0.0000 0.0000
# 4 0.0000 0.0000 0.0000 14.6164 0.0000 0.0000
# 5 0.0000 0.0000 0.0000 0.0000 24.2076 0.0000
# 6 0.0000 0.0000 0.0000 0.0000 0.0000 19.8788
#
#
#
# Elastic Compliance Matrix: (Units=1/GPa)
#
#
# Indices 1 2 3 4 5 6 
#
# 1 0.013327 -0.003137 -0.008715 0.000000 0.000000 0.000000
# 2 -0.003137 0.012020 -0.002951 0.000000 0.000000 0.000000
# 3 -0.008715 -0.002951 0.019913 0.000000 0.000000 0.000000
# 4 0.000000 0.000000 0.000000 0.068416 0.000000 0.000000
# 5 0.000000 0.000000 0.000000 0.000000 0.041309 0.000000
# 6 0.000000 0.000000 0.000000 0.000000 0.000000 0.050305
#
#
# Mechanical properties :
#
#
# Convention : Reuss Voigt Hill
#
# Bulk Modulus (GPa) = 63.88401 68.27131 66.07766
# Shear Modulus (GPa) = 20.82352 22.88758 21.85555
#
# Velocity S-wave (km/s) = 3.43252 3.59862 3.51655
# Velocity P-wave (km/s) = 7.20111 7.47634 7.34001
#
# Compressibility (1/GPa) = 0.01565337
#
# Stress axis : x y z
#
# Youngs Moduli (GPa) = 75.03771 83.19507 50.21956
#
# Poissons Ratio (x) = 0.26095 0.43766
# Poissons Ratio (y) = 0.23537 0.14822
# Poissons Ratio (z) = 0.65395 0.24554
#
# Static dielectric constant tensor:
#      x y z
#    x 3.140630 0.000000 0.000000 
#    y 0.000000 3.481290 0.000000 
#    z 0.000000 0.000000 3.349670 
# 
# 
# High freq. dielectric constant tensor:
#      x y z
#    x 1.654380 0.000000 0.000000 
#    y 0.000000 1.701540 0.000000 
#    z 0.000000 0.000000 1.685300 
# 
# From -- ./inp_files/18082.got.cif
#   From: 2010.03.12/outbox.cif.g09.slc.cpg/sg69_10_cif.got.tgz:18082.got - 2010.04.10 23:52:46.
