data_PCOD8284759
_publ_section_title
;
Structure prediction by ZEFSAII (Michael W. Deem and Ramdas Pophale) SiO2 
 PCOD8284759
Probable space group: F M M M
;
_chemical_formula_sum "Si O2"
_cell_formula_units_Z 224
_cell_length_a 32.198470
_cell_length_b 23.241516
_cell_length_c 16.507689
_cell_angle_alpha 90.000000
_cell_angle_beta 90.000000
_cell_angle_gamma 90.000000
_cell_volume 12353.384715
_symmetry_space_group_name_H-M "F M M M"
_symmetry_group_IT_number 69
_symmetry_cell_setting 'orthorhombic'
loop_
_space_group_symop_operation_xyz
x,y,z
-x,-y,z
x,-y,-z
-x,y,-z
-x,-y,-z
x,y,-z
-x,y,z
x,-y,z
x,1/2+y,1/2+z
-x,1/2-y,1/2+z
x,1/2-y,1/2-z
-x,1/2+y,1/2-z
-x,1/2-y,1/2-z
x,1/2+y,1/2-z
-x,1/2+y,1/2+z
x,1/2-y,1/2+z
1/2+x,y,1/2+z
1/2-x,-y,1/2+z
1/2+x,-y,1/2-z
1/2-x,y,1/2-z
1/2-x,-y,1/2-z
1/2+x,y,1/2-z
1/2-x,y,1/2+z
1/2+x,-y,1/2+z
1/2+x,1/2+y,z
1/2-x,1/2-y,z
1/2+x,1/2-y,-z
1/2-x,1/2+y,-z
1/2-x,1/2-y,-z
1/2+x,1/2+y,-z
1/2-x,1/2+y,z
1/2+x,1/2-y,z
loop_
_atom_site_type_symbol
_atom_site_label
_atom_site_fract_x
_atom_site_fract_y
_atom_site_fract_z
Si Si1 0.085024 0.433657 0.830075
Si Si2 0.321333 0.366713 0.905275
Si Si3 0.242958 0.436454 0.096110
Si Si4 0.337256 0.128830 0.095849
Si Si5 0.898320 0.065636 0.146542
Si Si6 0.454057 0.931729 0.500000
Si Si7 0.201941 0.253104 0.845955
Si Si8 0.500000 0.068191 0.909301
O O1 0.094048 0.500000 0.857048
O O2 0.120481 0.390941 0.861817
O O3 0.080595 0.429639 0.733745
O O4 0.041503 0.410185 0.864718
O O5 0.278222 0.393255 0.871950
O O6 0.357204 0.396412 0.853939
O O7 0.322070 0.299424 0.887331
O O8 0.328057 0.379334 0.000000
O O9 0.250888 0.500000 0.131907
O O10 0.198166 0.415193 0.125625
O O11 0.244218 0.437507 0.000000
O O12 0.322375 0.191597 0.122321
O O13 0.343886 0.127223 0.000000
O O14 0.930431 0.089944 0.080190
O O15 0.885968 0.000000 0.125788
O O16 0.500000 0.904272 0.500000
O O17 0.457390 0.000000 0.500000
O O18 0.198737 0.250000 0.750000
O O19 0.250000 0.250000 0.874620
O O20 0.500000 0.000000 0.909637
O O21 0.500000 0.093257 0.000000
#
# Coordination Sequence:
#
# PCOD8284759 Si02
#       8
#    32  32  32  32  32  16  32  16
#     4  10  21  35  55  84 118 149 183 231 285 338
#     4  11  20  34  55  77 106 144 189 231 272 324
#     4   9  18  30  49  76 108 143 180 222 271 324
#     4  11  21  36  56  80 109 146 191 235 280 330
#     4  10  20  34  53  83 118 149 184 225 276 335
#     4   9  18  32  54  82 113 148 184 224 272 332
#     4  11  23  38  55  76 107 144 189 240 285 330
#     4   9  18  34  56  83 112 147 187 228 279 337
#
# _framework density 18.132681999999999
#
# number of rings (size 3 to 8) (size 9 to 14) (size 15 to 20)
#    0.000    1.857    2.143    2.571    1.000    2.571 
#    0.000    0.000    0.000    3.429    1.857    1.500 
#    0.000    0.000    0.000    0.000    0.000    0.000 
#
# Total GULP energy -694490.811251 kJ/mol
# GULP energy per Si atom -12401.621629 kJ/mol
# Density = 1.809141 g / cm^3
# Si number density = 18.132682 Si / 1000 Ang^3
#
#
#
# Elastic Constant Matrix: (Units=GPa)
#
#
# Indices 1 2 3 4 5 6 
#
# 1 146.9346 49.8873 48.7815 0.0000 0.0000 0.0000
# 2 49.8873 100.4603 23.6468 0.0000 0.0000 0.0000
# 3 48.7815 23.6468 84.7442 0.0000 0.0000 0.0000
# 4 0.0000 0.0000 0.0000 22.1910 0.0000 0.0000
# 5 0.0000 0.0000 0.0000 0.0000 7.4198 0.0000
# 6 0.0000 0.0000 0.0000 0.0000 0.0000 14.1720
#
#
#
# Elastic Compliance Matrix: (Units=1/GPa)
#
#
# Indices 1 2 3 4 5 6 
#
# 1 0.009539 -0.003687 -0.004462 0.000000 0.000000 0.000000
# 2 -0.003687 0.012079 -0.001248 0.000000 0.000000 0.000000
# 3 -0.004462 -0.001248 0.014717 0.000000 0.000000 0.000000
# 4 0.000000 0.000000 0.000000 0.045063 0.000000 0.000000
# 5 0.000000 0.000000 0.000000 0.000000 0.134774 0.000000
# 6 0.000000 0.000000 0.000000 0.000000 0.000000 0.070562
#
#
# Mechanical properties :
#
#
# Convention : Reuss Voigt Hill
#
# Bulk Modulus (GPa) = 57.01062 64.08558 60.54810
# Shear Modulus (GPa) = 16.05782 22.74480 19.40131
#
# Velocity S-wave (km/s) = 2.97909 3.54553 3.27458
# Velocity P-wave (km/s) = 6.58349 7.22360 6.91096
#
# Compressibility (1/GPa) = 0.01754059
#
# Stress axis : x y z
#
# Youngs Moduli (GPa) = 104.83477 82.79035 67.94811
#
# Poissons Ratio (x) = 0.30521 0.30320
# Poissons Ratio (y) = 0.38648 0.08482
# Poissons Ratio (z) = 0.46779 0.10335
#
# Static dielectric constant tensor:
#      x y z
#    x 3.416620 0.000000 0.000000 
#    y 0.000000 3.214100 0.000000 
#    z 0.000000 0.000000 3.324600 
# 
# 
# High freq. dielectric constant tensor:
#      x y z
#    x 1.700810 0.000000 0.000000 
#    y 0.000000 1.680140 0.000000 
#    z 0.000000 0.000000 1.706330 
# 
# From -- ./inp_files/27980.got.cif
#   From: 2010.03.12/outbox.cif.g09.slc.cpg/sg69_14_cif.got.tgz:27980.got - 2010.04.10 23:52:46.
