data_PCOD8284712
_publ_section_title
;
Structure prediction by ZEFSAII (Michael W. Deem and Ramdas Pophale) SiO2 
 PCOD8284712
Probable space group: F M M M
;
_chemical_formula_sum "Si O2"
_cell_formula_units_Z 144
_cell_length_a 32.353476
_cell_length_b 8.922043
_cell_length_c 26.929950
_cell_angle_alpha 90.000000
_cell_angle_beta 90.000000
_cell_angle_gamma 90.000000
_cell_volume 7773.575240
_symmetry_space_group_name_H-M "F M M M"
_symmetry_group_IT_number 69
_symmetry_cell_setting 'orthorhombic'
loop_
_space_group_symop_operation_xyz
x,y,z
-x,-y,z
x,-y,-z
-x,y,-z
-x,-y,-z
x,y,-z
-x,y,z
x,-y,z
x,1/2+y,1/2+z
-x,1/2-y,1/2+z
x,1/2-y,1/2-z
-x,1/2+y,1/2-z
-x,1/2-y,1/2-z
x,1/2+y,1/2-z
-x,1/2+y,1/2+z
x,1/2-y,1/2+z
1/2+x,y,1/2+z
1/2-x,-y,1/2+z
1/2+x,-y,1/2-z
1/2-x,y,1/2-z
1/2-x,-y,1/2-z
1/2+x,y,1/2-z
1/2-x,y,1/2+z
1/2+x,-y,1/2+z
1/2+x,1/2+y,z
1/2-x,1/2-y,z
1/2+x,1/2-y,-z
1/2-x,1/2+y,-z
1/2-x,1/2-y,-z
1/2+x,1/2+y,-z
1/2-x,1/2+y,z
1/2+x,1/2-y,z
loop_
_atom_site_type_symbol
_atom_site_label
_atom_site_fract_x
_atom_site_fract_y
_atom_site_fract_z
Si Si1 0.871383 0.677378 0.199784
Si Si2 0.293404 0.322678 0.152666
Si Si3 0.000000 0.821426 0.443528
Si Si4 0.414813 0.675921 0.400204
Si Si5 0.838495 0.826808 0.055020
O O1 0.865859 0.500000 0.205363
O O2 0.889348 0.750000 0.250000
O O3 0.827175 0.751916 0.189040
O O4 0.903806 0.719306 0.156426
O O5 0.291515 0.500000 0.161022
O O6 0.250000 0.250000 0.166575
O O7 0.304466 0.278939 0.095705
O O8 0.959750 0.759074 0.414593
O O9 0.000000 0.761343 0.500000
O O10 0.000000 0.000000 0.443176
O O11 0.414122 0.500000 0.407738
O O12 0.381126 0.739890 0.437876
O O13 0.849281 0.000000 0.061677
O O14 0.820890 0.791269 0.000000
#
# Coordination Sequence:
#
# PCOD8284712 Si02
#       5
#    32  32  16  32  32
#     4  10  20  35  54  74  97 128 166 206 251 298
#     4  10  20  34  51  73 101 130 164 206 249 294
#     4   9  16  28  50  79 107 133 163 201 242 283
#     4   9  18  32  51  75 101 130 167 208 245 288
#     4   9  18  32  49  70 100 136 168 201 245 294
#
# _framework density 18.524293
#
# number of rings (size 3 to 8) (size 9 to 14) (size 15 to 20)
#    0.000    2.556    0.000    2.000    0.000    4.000 
#    0.000    3.333    0.000    2.000    0.000    0.000 
#    0.000    0.000    0.000    0.000    0.000    0.000 
#
# Total GULP energy -446389.730958 kJ/mol
# GULP energy per Si atom -12399.714749 kJ/mol
# Density = 1.848213 g / cm^3
# Si number density = 18.524293 Si / 1000 Ang^3
#
#
#
# Elastic Constant Matrix: (Units=GPa)
#
#
# Indices 1 2 3 4 5 6 
#
# 1 110.3298 28.2176 35.9982 0.0000 0.0001 0.0001
# 2 28.2176 49.6422 30.6867 0.0000 0.0002 0.0001
# 3 35.9982 30.6867 111.0735 0.0000 0.0000 0.0000
# 4 0.0000 0.0000 0.0000 27.2441 0.0000 0.0000
# 5 0.0001 0.0002 0.0000 0.0000 14.9863 -0.0001
# 6 0.0001 0.0001 0.0000 0.0000 -0.0001 21.0349
#
#
#
# Elastic Compliance Matrix: (Units=1/GPa)
#
#
# Indices 1 2 3 4 5 6 
#
# 1 0.011043 -0.004902 -0.002225 0.000000 0.000000 0.000000
# 2 -0.004902 0.026469 -0.005724 0.000000 0.000000 0.000000
# 3 -0.002225 -0.005724 0.011305 0.000000 0.000000 0.000000
# 4 0.000000 0.000000 0.000000 0.036705 0.000000 0.000000
# 5 0.000000 0.000000 0.000000 0.000000 0.066728 0.000000
# 6 0.000000 0.000000 0.000000 0.000000 0.000000 0.047540
#
#
# Mechanical properties :
#
#
# Convention : Reuss Voigt Hill
#
# Bulk Modulus (GPa) = 43.25968 51.20562 47.23265
# Shear Modulus (GPa) = 21.44104 24.39590 22.91847
#
# Velocity S-wave (km/s) = 3.40583 3.63294 3.52122
# Velocity P-wave (km/s) = 6.23457 6.73054 6.48730
#
# Compressibility (1/GPa) = 0.02311621
#
# Stress axis : x y z
#
# Youngs Moduli (GPa) = 90.55213 37.78024 88.45284
#
# Poissons Ratio (x) = 0.18520 0.19679
# Poissons Ratio (y) = 0.44389 0.50630
# Poissons Ratio (z) = 0.20146 0.21625
#
# Static dielectric constant tensor:
#      x y z
#    x 3.432930 0.000000 0.000000 
#    y 0.000000 3.301020 0.000000 
#    z 0.000000 0.000000 3.606240 
# 
# 
# High freq. dielectric constant tensor:
#      x y z
#    x 1.705000 0.000000 0.000000 
#    y 0.000000 1.710670 0.000000 
#    z 0.000000 0.000000 1.726990 
# 
# From -- ./inp_files/5565.got.cif
#   From: 2010.03.12/outbox.cif.g09.slc.cpg/sg69_3_cif.got.tgz:5565.got - 2010.04.10 23:52:46.
