data_PCOD8284811
_publ_section_title
;
Structure prediction by ZEFSAII (Michael W. Deem and Ramdas Pophale) SiO2 
 PCOD8284811
Probable space group: F M M M
;
_chemical_formula_sum "Si O2"
_cell_formula_units_Z 208
_cell_length_a 33.747279
_cell_length_b 17.979653
_cell_length_c 17.468319
_cell_angle_alpha 90.000000
_cell_angle_beta 90.000000
_cell_angle_gamma 90.000000
_cell_volume 10599.153505
_symmetry_space_group_name_H-M "F M M M"
_symmetry_group_IT_number 69
_symmetry_cell_setting 'orthorhombic'
loop_
_space_group_symop_operation_xyz
x,y,z
-x,-y,z
x,-y,-z
-x,y,-z
-x,-y,-z
x,y,-z
-x,y,z
x,-y,z
x,1/2+y,1/2+z
-x,1/2-y,1/2+z
x,1/2-y,1/2-z
-x,1/2+y,1/2-z
-x,1/2-y,1/2-z
x,1/2+y,1/2-z
-x,1/2+y,1/2+z
x,1/2-y,1/2+z
1/2+x,y,1/2+z
1/2-x,-y,1/2+z
1/2+x,-y,1/2-z
1/2-x,y,1/2-z
1/2-x,-y,1/2-z
1/2+x,y,1/2-z
1/2-x,y,1/2+z
1/2+x,-y,1/2+z
1/2+x,1/2+y,z
1/2-x,1/2-y,z
1/2+x,1/2-y,-z
1/2-x,1/2+y,-z
1/2-x,1/2-y,-z
1/2+x,1/2+y,-z
1/2-x,1/2+y,z
1/2+x,1/2-y,z
loop_
_atom_site_type_symbol
_atom_site_label
_atom_site_fract_x
_atom_site_fract_y
_atom_site_fract_z
Si Si1 0.046559 0.914165 0.000000
Si Si2 0.596898 0.316075 0.589377
Si Si3 0.252523 0.588394 0.085278
Si Si4 0.832259 0.588539 0.148197
Si Si5 0.904572 0.350330 0.364369
Si Si6 0.043760 0.334785 0.774889
Si Si7 0.825745 0.086773 0.820233
O O1 0.063735 0.874429 0.926343
O O2 0.000000 0.901707 0.000000
O O3 0.058495 0.000000 0.000000
O O4 0.585241 0.312253 0.500000
O O5 0.634009 0.370593 0.599749
O O6 0.607313 0.235388 0.623811
O O7 0.559391 0.345802 0.638303
O O8 0.255258 0.500000 0.085218
O O9 0.209632 0.613620 0.113787
O O10 0.286682 0.622164 0.140344
O O11 0.259479 0.619749 0.000000
O O12 0.839086 0.500000 0.142191
O O13 0.832601 0.618750 0.235260
O O14 0.924609 0.371153 0.282981
O O15 0.864030 0.396337 0.372105
O O16 0.039700 0.250000 0.750000
O O17 0.000000 0.372158 0.769843
O O18 0.818601 0.000000 0.813288
#
# Coordination Sequence:
#
# PCOD8284811 Si02
#       7
#    16  32  32  32  32  32  32
#     4  11  24  40  62  94 128 159 193 239 295 356
#     4  11  22  37  58  86 115 153 198 246 295 350
#     4   9  18  32  53  83 115 150 191 239 291 352
#     4  10  20  37  59  83 113 152 199 248 291 339
#     4  11  21  39  59  86 122 155 191 236 294 359
#     4   9  19  36  58  82 111 148 191 236 283 343
#     4  10  20  34  58  85 114 151 193 237 292 354
#
# _framework density 19.624207999999999
#
# number of rings (size 3 to 8) (size 9 to 14) (size 15 to 20)
#    0.000    1.923    2.308    1.846    1.077    3.692 
#    0.000    0.769    0.000    5.077    0.000    1.077 
#    0.000    0.000    0.000    0.000    0.000    0.000 
#
# Total GULP energy -644747.680875 kJ/mol
# GULP energy per Si atom -12398.993863 kJ/mol
# Density = 1.957954 g / cm^3
# Si number density = 19.624208 Si / 1000 Ang^3
#
#
#
# Elastic Constant Matrix: (Units=GPa)
#
#
# Indices 1 2 3 4 5 6 
#
# 1 139.7242 23.9400 51.7670 0.0000 0.0000 0.0000
# 2 23.9400 33.4765 14.9360 0.0000 0.0000 0.0000
# 3 51.7670 14.9360 137.1885 0.0000 0.0000 0.0000
# 4 0.0000 0.0000 0.0000 15.6662 0.0000 0.0000
# 5 0.0000 0.0000 0.0000 0.0000 58.6014 0.0000
# 6 0.0000 0.0000 0.0000 0.0000 0.0000 17.0345
#
#
#
# Elastic Compliance Matrix: (Units=1/GPa)
#
#
# Indices 1 2 3 4 5 6 
#
# 1 0.009118 -0.005240 -0.002870 0.000000 0.000000 0.000000
# 2 -0.005240 0.034408 -0.001769 0.000000 0.000000 0.000000
# 3 -0.002870 -0.001769 0.008565 0.000000 0.000000 0.000000
# 4 0.000000 0.000000 0.000000 0.063831 0.000000 0.000000
# 5 0.000000 0.000000 0.000000 0.000000 0.017064 0.000000
# 6 0.000000 0.000000 0.000000 0.000000 0.000000 0.058705
#
#
# Mechanical properties :
#
#
# Convention : Reuss Voigt Hill
#
# Bulk Modulus (GPa) = 30.92801 54.63058 42.77929
# Shear Modulus (GPa) = 22.49946 32.91017 27.70482
#
# Velocity S-wave (km/s) = 3.38970 4.09959 3.76143
# Velocity P-wave (km/s) = 5.57803 7.09278 6.38052
#
# Compressibility (1/GPa) = 0.03233316
#
# Stress axis : x y z
#
# Youngs Moduli (GPa) = 109.67124 29.06278 116.75636
#
# Poissons Ratio (x) = 0.15229 0.33511
# Poissons Ratio (y) = 0.57469 0.20652
# Poissons Ratio (z) = 0.31477 0.05141
#
# Static dielectric constant tensor:
#      x y z
#    x 3.714990 0.000000 0.000000 
#    y 0.000000 3.212800 0.000000 
#    z 0.000000 0.000000 3.673750 
# 
# 
# High freq. dielectric constant tensor:
#      x y z
#    x 1.777690 0.000000 0.000000 
#    y 0.000000 1.722090 0.000000 
#    z 0.000000 0.000000 1.776990 
# 
# From -- ./inp_files/27947.got.cif
#   From: 2010.03.12/outbox.cif.g09.slc.cpg/sg69_14_cif.got.tgz:27947.got - 2010.04.10 23:52:46.
