data_PCOD8284330
_publ_section_title
;
Structure prediction by ZEFSAII (Michael W. Deem and Ramdas Pophale) SiO2 
 PCOD8284330
Probable space group: F M M M
;
_chemical_formula_sum "Si O2"
_cell_formula_units_Z 208
_cell_length_a 29.191047
_cell_length_b 17.430350
_cell_length_c 21.204843
_cell_angle_alpha 90.000000
_cell_angle_beta 90.000000
_cell_angle_gamma 90.000000
_cell_volume 10789.239688
_symmetry_space_group_name_H-M "F M M M"
_symmetry_group_IT_number 69
_symmetry_cell_setting 'orthorhombic'
loop_
_space_group_symop_operation_xyz
x,y,z
-x,-y,z
x,-y,-z
-x,y,-z
-x,-y,-z
x,y,-z
-x,y,z
x,-y,z
x,1/2+y,1/2+z
-x,1/2-y,1/2+z
x,1/2-y,1/2-z
-x,1/2+y,1/2-z
-x,1/2-y,1/2-z
x,1/2+y,1/2-z
-x,1/2+y,1/2+z
x,1/2-y,1/2+z
1/2+x,y,1/2+z
1/2-x,-y,1/2+z
1/2+x,-y,1/2-z
1/2-x,y,1/2-z
1/2-x,-y,1/2-z
1/2+x,y,1/2-z
1/2-x,y,1/2+z
1/2+x,-y,1/2+z
1/2+x,1/2+y,z
1/2-x,1/2-y,z
1/2+x,1/2-y,-z
1/2-x,1/2+y,-z
1/2-x,1/2-y,-z
1/2+x,1/2+y,-z
1/2-x,1/2+y,z
1/2+x,1/2-y,z
loop_
_atom_site_type_symbol
_atom_site_label
_atom_site_fract_x
_atom_site_fract_y
_atom_site_fract_z
Si Si1 0.945730 0.500000 0.569801
Si Si2 0.627350 0.410402 0.383311
Si Si3 0.375936 0.089309 0.737798
Si Si4 0.052025 0.203042 0.427725
Si Si5 0.274648 0.908756 0.069788
Si Si6 0.946375 0.146139 0.851535
Si Si7 0.221992 0.590793 0.309439
O O1 0.923918 0.500000 0.500000
O O2 0.928873 0.423928 0.605181
O O3 0.000000 0.500000 0.565000
O O4 0.619061 0.500000 0.394389
O O5 0.632859 0.390284 0.310070
O O6 0.583991 0.368595 0.413142
O O7 0.673445 0.381634 0.417281
O O8 0.418552 0.140242 0.713770
O O9 0.331193 0.112282 0.697441
O O10 0.387909 0.000000 0.729874
O O11 0.056897 0.228722 0.500000
O O12 0.066405 0.275227 0.385575
O O13 0.000000 0.178048 0.412689
O O14 0.241017 0.875253 0.124122
O O15 0.273001 0.000000 0.072050
O O16 0.259684 0.879186 0.000000
O O17 0.000000 0.139968 0.836017
O O18 0.229156 0.500000 0.309083
O O19 0.250000 0.625521 0.250000
#
# Coordination Sequence:
#
# PCOD8284330 Si02
#       7
#    16  32  32  32  32  32  32
#     4   9  16  30  54  78 101 138 183 223 272 333
#     4  10  20  34  55  82 110 147 189 230 277 331
#     4  10  19  32  54  84 115 147 185 226 277 336
#     4  10  22  39  56  77 109 148 189 232 281 335
#     4   9  16  28  49  78 109 143 186 231 274 328
#     4  10  20  35  55  80 110 145 183 228 277 332
#     4   9  15  28  50  77 111 146 179 225 280 329
#
# _framework density 19.278466999999999
#
# number of rings (size 3 to 8) (size 9 to 14) (size 15 to 20)
#    0.000    2.385    2.308    0.923    0.000    4.308 
#    0.000    5.385    0.000    0.923    0.000    2.154 
#    0.000    0.000    0.000    0.000    0.000    0.000 
#
# Total GULP energy -644764.921335 kJ/mol
# GULP energy per Si atom -12399.325410 kJ/mol
# Density = 1.923459 g / cm^3
# Si number density = 19.278467 Si / 1000 Ang^3
#
#
#
# Elastic Constant Matrix: (Units=GPa)
#
#
# Indices 1 2 3 4 5 6 
#
# 1 79.4328 21.3201 49.4011 0.0000 0.0000 0.0000
# 2 21.3201 37.7726 17.4852 0.0000 0.0000 0.0000
# 3 49.4011 17.4852 123.1321 0.0000 0.0000 0.0000
# 4 0.0000 0.0000 0.0000 20.6534 0.0000 0.0000
# 5 0.0000 0.0000 0.0000 0.0000 37.5276 0.0000
# 6 0.0000 0.0000 0.0000 0.0000 0.0000 12.3189
#
#
#
# Elastic Compliance Matrix: (Units=1/GPa)
#
#
# Indices 1 2 3 4 5 6 
#
# 1 0.018582 -0.007533 -0.006386 0.000000 0.000000 0.000000
# 2 -0.007533 0.031390 -0.001435 0.000000 0.000000 0.000000
# 3 -0.006386 -0.001435 0.010887 0.000000 0.000000 0.000000
# 4 0.000000 0.000000 0.000000 0.048418 0.000000 0.000000
# 5 0.000000 0.000000 0.000000 0.000000 0.026647 0.000000
# 6 0.000000 0.000000 0.000000 0.000000 0.000000 0.081176
#
#
# Mechanical properties :
#
#
# Convention : Reuss Voigt Hill
#
# Bulk Modulus (GPa) = 33.16472 46.30559 39.73515
# Shear Modulus (GPa) = 19.39040 24.24206 21.81623
#
# Velocity S-wave (km/s) = 3.17489 3.54993 3.36763
# Velocity P-wave (km/s) = 5.53897 6.39329 5.98140
#
# Compressibility (1/GPa) = 0.03015252
#
# Stress axis : x y z
#
# Youngs Moduli (GPa) = 53.81423 31.85695 91.85128
#
# Poissons Ratio (x) = 0.23996 0.58653
# Poissons Ratio (y) = 0.40536 0.13185
# Poissons Ratio (z) = 0.34364 0.04573
#
# Static dielectric constant tensor:
#      x y z
#    x 3.459190 0.000000 0.000000 
#    y 0.000000 3.115190 0.000000 
#    z 0.000000 0.000000 3.798420 
# 
# 
# High freq. dielectric constant tensor:
#      x y z
#    x 1.744880 0.000000 0.000000 
#    y 0.000000 1.708130 0.000000 
#    z 0.000000 0.000000 1.762680 
# 
# From -- ./inp_files/39089.got.cif
#   From: 2010.03.12/outbox.cif.g09.slc.cpg/sg69_20_cif.got.tgz:39089.got - 2010.04.10 23:52:46.
