data_PCOD8284043
_publ_section_title
;
Structure prediction by ZEFSAII (Michael W. Deem and Ramdas Pophale) SiO2 
 PCOD8284043
Probable space group: F M M M
;
_chemical_formula_sum "Si O2"
_cell_formula_units_Z 208
_cell_length_a 27.161024
_cell_length_b 18.722318
_cell_length_c 22.486106
_cell_angle_alpha 90.000000
_cell_angle_beta 90.000000
_cell_angle_gamma 90.000000
_cell_volume 11434.574552
_symmetry_space_group_name_H-M "F M M M"
_symmetry_group_IT_number 69
_symmetry_cell_setting 'orthorhombic'
loop_
_space_group_symop_operation_xyz
x,y,z
-x,-y,z
x,-y,-z
-x,y,-z
-x,-y,-z
x,y,-z
-x,y,z
x,-y,z
x,1/2+y,1/2+z
-x,1/2-y,1/2+z
x,1/2-y,1/2-z
-x,1/2+y,1/2-z
-x,1/2-y,1/2-z
x,1/2+y,1/2-z
-x,1/2+y,1/2+z
x,1/2-y,1/2+z
1/2+x,y,1/2+z
1/2-x,-y,1/2+z
1/2+x,-y,1/2-z
1/2-x,y,1/2-z
1/2-x,-y,1/2-z
1/2+x,y,1/2-z
1/2-x,y,1/2+z
1/2+x,-y,1/2+z
1/2+x,1/2+y,z
1/2-x,1/2-y,z
1/2+x,1/2-y,-z
1/2-x,1/2+y,-z
1/2-x,1/2-y,-z
1/2+x,1/2+y,-z
1/2-x,1/2+y,z
1/2+x,1/2-y,z
loop_
_atom_site_type_symbol
_atom_site_label
_atom_site_fract_x
_atom_site_fract_y
_atom_site_fract_z
Si Si1 0.280337 0.180849 0.429919
Si Si2 0.195817 0.579019 0.929936
Si Si3 0.899957 0.161234 0.568204
Si Si4 0.108884 0.323175 0.599164
Si Si5 0.943199 0.421875 0.829351
Si Si6 0.443183 0.327693 0.776999
Si Si7 0.942063 0.415145 0.500000
O O1 0.290856 0.187935 0.500000
O O2 0.250000 0.250000 0.407889
O O3 0.248624 0.111332 0.412615
O O4 0.332172 0.171420 0.397392
O O5 0.190195 0.500000 0.901120
O O6 0.153193 0.633260 0.908777
O O7 0.192059 0.572574 0.000000
O O8 0.910011 0.139366 0.500000
O O9 0.905557 0.245733 0.574314
O O10 0.939368 0.122737 0.609841
O O11 0.089349 0.336259 0.664843
O O12 0.084440 0.383088 0.557850
O O13 0.918164 0.500000 0.836211
O O14 0.920627 0.381382 0.772343
O O15 0.000000 0.430869 0.815783
O O16 0.500000 0.343849 0.793058
O O17 0.437644 0.250000 0.750000
O O18 0.934170 0.500000 0.500000
O O19 0.000000 0.395519 0.500000
#
# Coordination Sequence:
#
# PCOD8284043 Si02
#       7
#    32  32  32  32  32  32  16
#     4  10  18  32  54  82 118 149 189 243 291 348
#     4   9  18  31  51  79 115 154 186 225 284 353
#     4  11  20  34  58  90 120 150 187 233 298 363
#     4  12  21  37  62  87 114 154 197 245 294 344
#     4  10  22  39  58  83 116 151 191 244 299 351
#     4  10  21  38  60  83 108 148 203 247 280 339
#     4  11  26  42  55  84 127 161 194 245 302 346
#
# _framework density 18.190445
#
# number of rings (size 3 to 8) (size 9 to 14) (size 15 to 20)
#    0.000    1.615    4.615    0.923    0.000    3.077 
#    0.000    2.308    0.000    3.231    0.000    2.154 
#    0.000    0.000    0.000    0.000    0.000    0.000 
#
# Total GULP energy -644720.286896 kJ/mol
# GULP energy per Si atom -12398.467056 kJ/mol
# Density = 1.814904 g / cm^3
# Si number density = 18.190445 Si / 1000 Ang^3
#
#
#
# Elastic Constant Matrix: (Units=GPa)
#
#
# Indices 1 2 3 4 5 6 
#
# 1 82.3095 41.0030 47.1553 0.0000 0.0000 0.0000
# 2 41.0030 124.2535 40.8917 0.0000 0.0000 0.0000
# 3 47.1553 40.8917 112.5518 0.0000 0.0000 0.0000
# 4 0.0000 0.0000 0.0000 22.0760 0.0000 0.0000
# 5 0.0000 0.0000 0.0000 0.0000 -51.2166 0.0000
# 6 0.0000 0.0000 0.0000 0.0000 0.0000 22.4061
#
#
#
# Elastic Compliance Matrix: (Units=1/GPa)
#
#
# Indices 1 2 3 4 5 6 
#
# 1 0.017438 -0.003805 -0.005924 0.000000 0.000000 0.000000
# 2 -0.003805 0.009971 -0.002029 0.000000 0.000000 0.000000
# 3 -0.005924 -0.002029 0.012104 0.000000 0.000000 0.000000
# 4 0.000000 0.000000 0.000000 0.045298 0.000000 0.000000
# 5 0.000000 0.000000 0.000000 0.000000 -0.019525 0.000000
# 6 0.000000 0.000000 0.000000 0.000000 0.000000 0.044631
#
#
# Mechanical properties :
#
#
# Convention : Reuss Voigt Hill
#
# Bulk Modulus (GPa) = 62.50470 64.13497 63.31983
# Shear Modulus (GPa) = 36.03218 11.32407 23.67812
#
# Velocity S-wave (km/s) = 4.45548 2.49776 3.61179
# Velocity P-wave (km/s) = 7.80412 6.60700 7.23038
#
# Compressibility (1/GPa) = 0.01599880
#
# Stress axis : x y z
#
# Youngs Moduli (GPa) = 57.34439 100.28756 82.62010
#
# Poissons Ratio (x) = 0.38161 0.48941
# Poissons Ratio (y) = 0.21820 0.16760
# Poissons Ratio (z) = 0.33969 0.20343
#
# Static dielectric constant tensor:
#      x y z
#    x 3.346720 0.000000 0.000000 
#    y 0.000000 3.730530 0.000000 
#    z 0.000000 0.000000 3.338890 
# 
# 
# High freq. dielectric constant tensor:
#      x y z
#    x 1.698530 0.000000 0.000000 
#    y 0.000000 1.718230 0.000000 
#    z 0.000000 0.000000 1.677530 
# 
# From -- ./inp_files/38496.got.cif
#   From: 2010.03.12/outbox.cif.g09.slc.cpg/sg69_20_cif.got.tgz:38496.got - 2010.04.10 23:52:46.
