data_PCOD8284687
_publ_section_title
;
Structure prediction by ZEFSAII (Michael W. Deem and Ramdas Pophale) SiO2 
 PCOD8284687
Probable space group: F M M M
;
_chemical_formula_sum "Si O2"
_cell_formula_units_Z 160
_cell_length_a 15.506900
_cell_length_b 31.044437
_cell_length_c 16.550229
_cell_angle_alpha 90.000000
_cell_angle_beta 90.000000
_cell_angle_gamma 90.000000
_cell_volume 7967.329562
_symmetry_space_group_name_H-M "F M M M"
_symmetry_group_IT_number 69
_symmetry_cell_setting 'orthorhombic'
loop_
_space_group_symop_operation_xyz
x,y,z
-x,-y,z
x,-y,-z
-x,y,-z
-x,-y,-z
x,y,-z
-x,y,z
x,-y,z
x,1/2+y,1/2+z
-x,1/2-y,1/2+z
x,1/2-y,1/2-z
-x,1/2+y,1/2-z
-x,1/2-y,1/2-z
x,1/2+y,1/2-z
-x,1/2+y,1/2+z
x,1/2-y,1/2+z
1/2+x,y,1/2+z
1/2-x,-y,1/2+z
1/2+x,-y,1/2-z
1/2-x,y,1/2-z
1/2-x,-y,1/2-z
1/2+x,y,1/2-z
1/2-x,y,1/2+z
1/2+x,-y,1/2+z
1/2+x,1/2+y,z
1/2-x,1/2-y,z
1/2+x,1/2-y,-z
1/2-x,1/2+y,-z
1/2-x,1/2-y,-z
1/2+x,1/2+y,-z
1/2-x,1/2+y,z
1/2+x,1/2-y,z
loop_
_atom_site_type_symbol
_atom_site_label
_atom_site_fract_x
_atom_site_fract_y
_atom_site_fract_z
Si Si1 0.239932 0.114520 0.405313
Si Si2 0.904534 0.646281 0.333406
Si Si3 0.903965 0.951345 0.404059
Si Si4 0.401019 0.236514 0.411060
Si Si5 0.328129 0.310732 0.310038
O O1 0.257223 0.108567 0.500000
O O2 0.330999 0.110953 0.356143
O O3 0.172856 0.078864 0.370661
O O4 0.197983 0.160994 0.387775
O O5 0.888888 0.686292 0.393437
O O6 0.900485 0.663524 0.241091
O O7 0.000000 0.626294 0.346752
O O8 0.904056 0.948545 0.500000
O O9 0.000000 0.937095 0.373040
O O10 0.885011 0.000000 0.375192
O O11 0.362144 0.245798 0.500000
O O12 0.500000 0.250144 0.409239
O O13 0.355321 0.264132 0.341814
O O14 0.250000 0.303459 0.250000
#
# Coordination Sequence:
#
# PCOD8284687 Si02
#       5
#    32  32  32  32  32
#     4  10  20  33  53  80 105 131 168 213 258 307
#     4  10  21  36  51  69 102 147 184 211 249 307
#     4   8  15  30  53  81 110 134 158 200 262 320
#     4  10  20  34  52  72  95 129 178 229 268 301
#     4  10  21  34  49  72 102 136 173 217 266 312
#
# _framework density 20.082011000000001
#
# number of rings (size 3 to 8) (size 9 to 14) (size 15 to 20)
#    0.000    2.400    0.000    3.000    0.000   10.000 
#    0.000    7.000    0.000    6.000    0.000    2.800 
#    0.000    0.000    0.000    0.000    0.000    0.000 
#
# Total GULP energy -495764.673366 kJ/mol
# GULP energy per Si atom -12394.116834 kJ/mol
# Density = 2.003630 g / cm^3
# Si number density = 20.082011 Si / 1000 Ang^3
#
#
#
# Elastic Constant Matrix: (Units=GPa)
#
#
# Indices 1 2 3 4 5 6 
#
# 1 155.3960 66.1238 26.4799 0.0000 0.0000 0.0000
# 2 66.1238 54.3944 11.5488 0.0000 0.0000 0.0000
# 3 26.4799 11.5488 68.9137 0.0000 0.0000 0.0000
# 4 0.0000 0.0000 0.0000 14.5614 0.0000 0.0000
# 5 0.0000 0.0000 0.0000 0.0000 22.4908 0.0000
# 6 0.0000 0.0000 0.0000 0.0000 0.0000 37.0025
#
#
#
# Elastic Compliance Matrix: (Units=1/GPa)
#
#
# Indices 1 2 3 4 5 6 
#
# 1 0.013758 -0.016178 -0.002575 0.000000 0.000000 0.000000
# 2 -0.016178 0.038086 -0.000166 0.000000 0.000000 0.000000
# 3 -0.002575 -0.000166 0.015528 0.000000 0.000000 0.000000
# 4 0.000000 0.000000 0.000000 0.068675 0.000000 0.000000
# 5 0.000000 0.000000 0.000000 0.000000 0.044463 0.000000
# 6 0.000000 0.000000 0.000000 0.000000 0.000000 0.027025
#
#
# Mechanical properties :
#
#
# Convention : Reuss Voigt Hill
#
# Bulk Modulus (GPa) = 33.86005 54.11212 43.98609
# Shear Modulus (GPa) = 19.59104 26.44772 23.01938
#
# Velocity S-wave (km/s) = 3.12677 3.63297 3.38933
# Velocity P-wave (km/s) = 5.47111 6.67847 6.10471
#
# Compressibility (1/GPa) = 0.02953332
#
# Stress axis : x y z
#
# Youngs Moduli (GPa) = 72.68468 26.25629 64.39845
#
# Poissons Ratio (x) = 0.42477 0.16585
# Poissons Ratio (y) = 1.17589 0.01071
# Poissons Ratio (z) = 0.18719 0.00436
#
# Static dielectric constant tensor:
#      x y z
#    x 4.121190 0.000000 0.000000 
#    y 0.000000 3.452300 0.000000 
#    z 0.000000 0.000000 3.632500 
# 
# 
# High freq. dielectric constant tensor:
#      x y z
#    x 1.797250 0.000000 0.000000 
#    y 0.000000 1.741390 0.000000 
#    z 0.000000 0.000000 1.772490 
# 
# From -- ./inp_files/23140.got.cif
#   From: 2010.03.12/outbox.cif.g09.slc.cpg/sg69_12_cif.got.tgz:23140.got - 2010.04.10 23:52:46.
