data_PCOD8284188
_publ_section_title
;
Structure prediction by ZEFSAII (Michael W. Deem and Ramdas Pophale) SiO2 
 PCOD8284188
Probable space group: F M M M
;
_chemical_formula_sum "Si O2"
_cell_formula_units_Z 160
_cell_length_a 24.878637
_cell_length_b 18.826947
_cell_length_c 20.754849
_cell_angle_alpha 90.000000
_cell_angle_beta 90.000000
_cell_angle_gamma 90.000000
_cell_volume 9721.338407
_symmetry_space_group_name_H-M "F M M M"
_symmetry_group_IT_number 69
_symmetry_cell_setting 'orthorhombic'
loop_
_space_group_symop_operation_xyz
x,y,z
-x,-y,z
x,-y,-z
-x,y,-z
-x,-y,-z
x,y,-z
-x,y,z
x,-y,z
x,1/2+y,1/2+z
-x,1/2-y,1/2+z
x,1/2-y,1/2-z
-x,1/2+y,1/2-z
-x,1/2-y,1/2-z
x,1/2+y,1/2-z
-x,1/2+y,1/2+z
x,1/2-y,1/2+z
1/2+x,y,1/2+z
1/2-x,-y,1/2+z
1/2+x,-y,1/2-z
1/2-x,y,1/2-z
1/2-x,-y,1/2-z
1/2+x,y,1/2-z
1/2-x,y,1/2+z
1/2+x,-y,1/2+z
1/2+x,1/2+y,z
1/2-x,1/2-y,z
1/2+x,1/2-y,-z
1/2-x,1/2+y,-z
1/2-x,1/2-y,-z
1/2+x,1/2+y,-z
1/2-x,1/2+y,z
1/2+x,1/2-y,z
loop_
_atom_site_type_symbol
_atom_site_label
_atom_site_fract_x
_atom_site_fract_y
_atom_site_fract_z
Si Si1 0.810691 0.270607 0.345357
Si Si2 0.791264 0.000000 0.307753
Si Si3 0.367076 0.375567 0.926614
Si Si4 0.653600 0.641616 0.268879
Si Si5 0.215883 0.500000 0.572791
Si Si6 0.562047 0.583140 0.812043
O O1 0.750000 0.250000 0.362982
O O2 0.841400 0.299463 0.408245
O O3 0.808625 0.332585 0.290678
O O4 0.845963 0.203640 0.321911
O O5 0.750000 0.000000 0.250000
O O6 0.826884 0.930041 0.301929
O O7 0.764943 0.000000 0.377968
O O8 0.320129 0.431670 0.914407
O O9 0.418286 0.395211 0.883288
O O10 0.387069 0.374559 0.000000
O O11 0.593718 0.628441 0.241746
O O12 0.239002 0.500000 0.500000
O O13 0.500000 0.603197 0.805767
O O14 0.572510 0.500000 0.800715
#
# Coordination Sequence:
#
# PCOD8284188 Si02
#       6
#    32  16  32  32  16  32
#     4  10  19  32  47  72 105 135 163 196 247 302
#     4  12  18  28  52  73  96 130 170 211 250 292
#     4  10  20  34  49  70 100 135 172 202 237 295
#     4  10  19  31  47  74  99 126 165 207 249 295
#     4  10  20  32  46  72 106 134 166 208 252 296
#     4  10  19  33  52  75 100 126 161 209 263 302
#
# _framework density 16.458639000000002
#
# number of rings (size 3 to 8) (size 9 to 14) (size 15 to 20)
#    0.000    1.800    2.000    6.000    0.000    0.800 
#    0.000   10.000    0.000    0.000    0.000    0.000 
#    0.000    3.200    0.000    0.000    0.000    0.000 
#
# Total GULP energy -495996.521955 kJ/mol
# GULP energy per Si atom -12399.913049 kJ/mol
# Density = 1.642118 g / cm^3
# Si number density = 16.458639 Si / 1000 Ang^3
#
#
#
# Elastic Constant Matrix: (Units=GPa)
#
#
# Indices 1 2 3 4 5 6 
#
# 1 102.6180 45.0486 48.5859 0.0000 0.0000 0.0000
# 2 45.0486 101.3012 46.2395 0.0000 0.0000 0.0000
# 3 48.5859 46.2395 82.9425 0.0000 0.0000 0.0000
# 4 0.0000 0.0000 0.0000 96.5121 0.0000 0.0000
# 5 0.0000 0.0000 0.0000 0.0000 20.9165 0.0000
# 6 0.0000 0.0000 0.0000 0.0000 0.0000 25.6395
#
#
#
# Elastic Compliance Matrix: (Units=1/GPa)
#
#
# Indices 1 2 3 4 5 6 
#
# 1 0.014309 -0.003403 -0.006485 0.000000 0.000000 0.000000
# 2 -0.003403 0.014050 -0.005839 0.000000 0.000000 0.000000
# 3 -0.006485 -0.005839 0.019111 0.000000 0.000000 0.000000
# 4 0.000000 0.000000 0.000000 0.010361 0.000000 0.000000
# 5 0.000000 0.000000 0.000000 0.000000 0.047809 0.000000
# 6 0.000000 0.000000 0.000000 0.000000 0.000000 0.039002
#
#
# Mechanical properties :
#
#
# Convention : Reuss Voigt Hill
#
# Bulk Modulus (GPa) = 62.44002 62.95663 62.69832
# Shear Modulus (GPa) = 27.55792 38.41282 32.98537
#
# Velocity S-wave (km/s) = 4.09635 4.83629 4.48162
# Velocity P-wave (km/s) = 7.77132 8.33791 8.05959
#
# Compressibility (1/GPa) = 0.01601537
#
# Stress axis : x y z
#
# Youngs Moduli (GPa) = 69.88521 71.17228 52.32721
#
# Poissons Ratio (x) = 0.24222 0.33933
# Poissons Ratio (y) = 0.23784 0.30556
# Poissons Ratio (z) = 0.45318 0.41560
#
# Static dielectric constant tensor:
#      x y z
#    x 2.894870 0.000000 0.000000 
#    y 0.000000 3.424900 0.000000 
#    z 0.000000 0.000000 2.646750 
# 
# 
# High freq. dielectric constant tensor:
#      x y z
#    x 1.611350 0.000000 0.000000 
#    y 0.000000 1.646260 0.000000 
#    z 0.000000 0.000000 1.618760 
# 
# From -- ./inp_files/24939.got.cif
#   From: 2010.03.12/outbox.cif.g09.slc.cpg/sg69_13_cif.got.tgz:24939.got - 2010.04.10 23:52:46.
