data_PCOD8284513
_publ_section_title
;
Structure prediction by ZEFSAII (Michael W. Deem and Ramdas Pophale) SiO2 
 PCOD8284513
Probable space group: F M M M
;
_chemical_formula_sum "Si O2"
_cell_formula_units_Z 176
_cell_length_a 17.026893
_cell_length_b 17.801855
_cell_length_c 27.020107
_cell_angle_alpha 90.000000
_cell_angle_beta 90.000000
_cell_angle_gamma 90.000000
_cell_volume 8190.072206
_symmetry_space_group_name_H-M "F M M M"
_symmetry_group_IT_number 69
_symmetry_cell_setting 'orthorhombic'
loop_
_space_group_symop_operation_xyz
x,y,z
-x,-y,z
x,-y,-z
-x,y,-z
-x,-y,-z
x,y,-z
-x,y,z
x,-y,z
x,1/2+y,1/2+z
-x,1/2-y,1/2+z
x,1/2-y,1/2-z
-x,1/2+y,1/2-z
-x,1/2-y,1/2-z
x,1/2+y,1/2-z
-x,1/2+y,1/2+z
x,1/2-y,1/2+z
1/2+x,y,1/2+z
1/2-x,-y,1/2+z
1/2+x,-y,1/2-z
1/2-x,y,1/2-z
1/2-x,-y,1/2-z
1/2+x,y,1/2-z
1/2-x,y,1/2+z
1/2+x,-y,1/2+z
1/2+x,1/2+y,z
1/2-x,1/2-y,z
1/2+x,1/2-y,-z
1/2-x,1/2+y,-z
1/2-x,1/2-y,-z
1/2+x,1/2+y,-z
1/2-x,1/2+y,z
1/2+x,1/2-y,z
loop_
_atom_site_type_symbol
_atom_site_label
_atom_site_fract_x
_atom_site_fract_y
_atom_site_fract_z
Si Si1 0.847823 0.585198 0.850061
Si Si2 0.832594 0.086583 0.173518
Si Si3 0.907383 0.178494 0.089784
Si Si4 0.406591 0.340775 0.556954
Si Si5 0.906064 0.583000 0.500000
Si Si6 0.090379 0.164557 0.259826
O O1 0.870431 0.500000 0.836440
O O2 0.757493 0.600897 0.838306
O O3 0.866004 0.597151 0.908228
O O4 0.899775 0.642909 0.817551
O O5 0.883050 0.146162 0.142478
O O6 0.853351 0.107149 0.230025
O O7 0.856345 0.000000 0.162820
O O8 0.875533 0.261488 0.078487
O O9 0.872156 0.123679 0.048213
O O10 0.000000 0.180448 0.086315
O O11 0.379249 0.351238 0.500000
O O12 0.500000 0.347844 0.560270
O O13 0.871020 0.500000 0.500000
O O14 0.000000 0.583013 0.500000
O O15 0.117228 0.250000 0.250000
O O16 0.000000 0.154004 0.243882
#
# Coordination Sequence:
#
# PCOD8284513 Si02
#       6
#    32  32  32  32  16  32
#     4  11  25  43  61  88 125 163 205 253 305 362
#     4  11  24  40  59  89 127 165 200 244 302 364
#     4  10  19  35  58  88 121 155 201 250 298 359
#     4  10  21  40  65  90 119 158 207 263 311 355
#     4   9  16  28  50  79 113 153 192 237 293 345
#     4  11  24  42  66  95 122 154 200 252 304 365
#
# _framework density 21.489432999999998
#
# number of rings (size 3 to 8) (size 9 to 14) (size 15 to 20)
#    0.000    1.545    0.909    3.818    0.000   12.727 
#    1.636    1.818    0.000    0.000    0.000    0.000 
#    0.000    0.000    0.000    0.000    0.000    0.000 
#
# Total GULP energy -545724.005443 kJ/mol
# GULP energy per Si atom -12402.818306 kJ/mol
# Density = 2.144052 g / cm^3
# Si number density = 21.489433 Si / 1000 Ang^3
#
#
#
# Elastic Constant Matrix: (Units=GPa)
#
#
# Indices 1 2 3 4 5 6 
#
# 1 47.4042 32.6270 25.5013 0.0000 0.0000 0.0000
# 2 32.6270 105.0950 39.9666 0.0000 0.0000 0.0000
# 3 25.5013 39.9666 126.7718 0.0000 0.0000 0.0000
# 4 0.0000 0.0000 0.0000 44.4398 0.0000 0.0000
# 5 0.0000 0.0000 0.0000 0.0000 22.6887 0.0000
# 6 0.0000 0.0000 0.0000 0.0000 0.0000 25.7577
#
#
#
# Elastic Compliance Matrix: (Units=1/GPa)
#
#
# Indices 1 2 3 4 5 6 
#
# 1 0.027981 -0.007438 -0.003284 0.000000 0.000000 0.000000
# 2 -0.007438 0.012789 -0.002536 0.000000 0.000000 0.000000
# 3 -0.003284 -0.002536 0.009348 0.000000 0.000000 0.000000
# 4 0.000000 0.000000 0.000000 0.022502 0.000000 0.000000
# 5 0.000000 0.000000 0.000000 0.000000 0.044075 0.000000
# 6 0.000000 0.000000 0.000000 0.000000 0.000000 0.038823
#
#
# Mechanical properties :
#
#
# Convention : Reuss Voigt Hill
#
# Bulk Modulus (GPa) = 42.36719 52.82900 47.59809
# Shear Modulus (GPa) = 26.32957 30.65565 28.49261
#
# Velocity S-wave (km/s) = 3.50413 3.78106 3.64523
# Velocity P-wave (km/s) = 6.01083 6.61052 6.31779
#
# Compressibility (1/GPa) = 0.02360317
#
# Stress axis : x y z
#
# Youngs Moduli (GPa) = 35.73847 78.19461 106.97349
#
# Poissons Ratio (x) = 0.58161 0.35127
# Poissons Ratio (y) = 0.26582 0.27124
# Poissons Ratio (z) = 0.11735 0.19827
#
# Static dielectric constant tensor:
#      x y z
#    x 3.494970 0.000000 0.000000 
#    y 0.000000 3.950280 0.000000 
#    z 0.000000 0.000000 4.104480 
# 
# 
# High freq. dielectric constant tensor:
#      x y z
#    x 1.818630 0.000000 0.000000 
#    y 0.000000 1.851030 0.000000 
#    z 0.000000 0.000000 1.856370 
# 
# From -- ./inp_files/41826.got.cif
#   From: 2010.03.12/outbox.cif.g09.slc.cpg/sg69_21_cif.got.tgz:41826.got - 2010.04.10 23:52:46.
