data_PCOD8284017
_publ_section_title
;
Structure prediction by ZEFSAII (Michael W. Deem and Ramdas Pophale) SiO2 
 PCOD8284017
Probable space group: F M M M
;
_chemical_formula_sum "Si O2"
_cell_formula_units_Z 192
_cell_length_a 31.634471
_cell_length_b 26.687793
_cell_length_c 14.015653
_cell_angle_alpha 90.000000
_cell_angle_beta 90.000000
_cell_angle_gamma 90.000000
_cell_volume 11832.774103
_symmetry_space_group_name_H-M "F M M M"
_symmetry_group_IT_number 69
_symmetry_cell_setting 'orthorhombic'
loop_
_space_group_symop_operation_xyz
x,y,z
-x,-y,z
x,-y,-z
-x,y,-z
-x,-y,-z
x,y,-z
-x,y,z
x,-y,z
x,1/2+y,1/2+z
-x,1/2-y,1/2+z
x,1/2-y,1/2-z
-x,1/2+y,1/2-z
-x,1/2-y,1/2-z
x,1/2+y,1/2-z
-x,1/2+y,1/2+z
x,1/2-y,1/2+z
1/2+x,y,1/2+z
1/2-x,-y,1/2+z
1/2+x,-y,1/2-z
1/2-x,y,1/2-z
1/2-x,-y,1/2-z
1/2+x,y,1/2-z
1/2-x,y,1/2+z
1/2+x,-y,1/2+z
1/2+x,1/2+y,z
1/2-x,1/2-y,z
1/2+x,1/2-y,-z
1/2-x,1/2+y,-z
1/2-x,1/2-y,-z
1/2+x,1/2+y,-z
1/2-x,1/2+y,z
1/2+x,1/2-y,z
loop_
_atom_site_type_symbol
_atom_site_label
_atom_site_fract_x
_atom_site_fract_y
_atom_site_fract_z
Si Si1 0.403780 0.055963 0.500000
Si Si2 0.952085 0.899790 0.303432
Si Si3 0.707851 0.559907 0.701662
Si Si4 0.081907 0.439724 0.000000
Si Si5 0.951555 0.201146 0.798654
Si Si6 0.550132 0.158693 0.500000
Si Si7 0.374367 0.443880 0.798921
Si Si8 0.679290 0.559143 0.500000
O O1 0.438211 0.099861 0.500000
O O2 0.371619 0.060834 0.587915
O O3 0.425397 0.000000 0.500000
O O4 0.940804 0.914482 0.410580
O O5 0.947504 0.840852 0.283196
O O6 0.920273 0.925372 0.230888
O O7 0.000000 0.917485 0.280877
O O8 0.708936 0.500000 0.709721
O O9 0.750000 0.582561 0.750000
O O10 0.666524 0.583475 0.754109
O O11 0.704768 0.578398 0.592329
O O12 0.130716 0.422677 0.000000
O O13 0.076232 0.500000 0.000000
O O14 0.929499 0.250000 0.750000
O O15 0.931725 0.184958 0.902453
O O16 0.000000 0.213952 0.820864
O O17 0.500000 0.160310 0.500000
O O18 0.371616 0.500000 0.760102
O O19 0.677804 0.500000 0.500000
#
# Coordination Sequence:
#
# PCOD8284017 Si02
#       8
#    16  32  32  16  32  16  32  16
#     4  10  20  30  45  69  98 133 166 197 239 288
#     4  11  21  32  48  69  96 132 173 206 244 292
#     4   9  17  29  46  65  89 125 166 205 245 288
#     4  11  21  33  47  68 103 142 172 202 243 289
#     4   9  19  34  51  70  91 121 164 215 261 297
#     4  10  18  32  50  68  93 128 166 201 246 297
#     4  10  19  31  45  67  98 130 164 205 243 284
#     4   9  16  28  45  64  90 127 164 196 240 291
#
# _framework density 16.226119000000001
#
# number of rings (size 3 to 8) (size 9 to 14) (size 15 to 20)
#    0.000    2.167    3.333    0.750    0.000    3.167 
#    0.000    7.500    0.000    0.000    0.000    0.000 
#    0.000    0.667    0.000    3.000    0.000    0.333 
#
# Total GULP energy -594705.926650 kJ/mol
# GULP energy per Si atom -12389.706805 kJ/mol
# Density = 1.618919 g / cm^3
# Si number density = 16.226119 Si / 1000 Ang^3
#
#
#
# Elastic Constant Matrix: (Units=GPa)
#
#
# Indices 1 2 3 4 5 6 
#
# 1 111.2540 21.4582 57.1442 0.0000 0.0000 0.0000
# 2 21.4582 63.0317 49.3410 0.0000 0.0000 0.0000
# 3 57.1442 49.3410 135.3560 -0.0001 0.0000 0.0000
# 4 0.0000 0.0000 -0.0001 20.7626 0.0000 0.0000
# 5 0.0000 0.0000 0.0000 0.0000 20.6809 0.0000
# 6 0.0000 0.0000 0.0000 0.0000 0.0000 0.1654
#
#
#
# Elastic Compliance Matrix: (Units=1/GPa)
#
#
# Indices 1 2 3 4 5 6 
#
# 1 0.011478 -0.000160 -0.004788 0.000000 0.000000 -0.000002
# 2 -0.000160 0.022202 -0.008026 0.000000 0.000000 0.000000
# 3 -0.004788 -0.008026 0.012335 0.000000 0.000000 0.000003
# 4 0.000000 0.000000 0.000000 0.048164 0.000000 0.000005
# 5 0.000000 0.000000 0.000000 0.000000 0.048354 0.000003
# 6 -0.000002 0.000000 0.000003 0.000005 0.000003 6.044562
#
#
# Mechanical properties :
#
#
# Convention : Reuss Voigt Hill
#
# Bulk Modulus (GPa) = 49.82910 62.83651 56.33280
# Shear Modulus (GPa) = 0.80389 20.43501 10.61945
#
# Velocity S-wave (km/s) = 0.70463 3.55264 2.56103
# Velocity P-wave (km/s) = 5.60695 7.45908 6.59832
#
# Compressibility (1/GPa) = 0.02006860
#
# Stress axis : x y z
#
# Youngs Moduli (GPa) = 87.12032 45.04103 81.07175
#
# Poissons Ratio (x) = 0.00720 0.38814
# Poissons Ratio (y) = 0.01393 0.65066
# Poissons Ratio (z) = 0.41710 0.36149
#
# Static dielectric constant tensor:
#      x y z
#    x 3.053920 0.000000 0.000000 
#    y 0.000000 2.856030 0.000000 
#    z 0.000000 0.000000 3.787410 
# 
# 
# High freq. dielectric constant tensor:
#      x y z
#    x 1.600080 0.000000 0.000000 
#    y 0.000000 1.576090 0.000000 
#    z 0.000000 0.000000 1.648250 
# 
# From -- ./inp_files/19947.got.cif
#   From: 2010.03.12/outbox.cif.g09.slc.cpg/sg69_10_cif.got.tgz:19947.got - 2010.04.10 23:52:46.
