data_PCOD8284976
_publ_section_title
;
Structure prediction by ZEFSAII (Michael W. Deem and Ramdas Pophale) SiO2 
 PCOD8284976
Probable space group: F M M M
;
_chemical_formula_sum "Si O2"
_cell_formula_units_Z 208
_cell_length_a 18.897596
_cell_length_b 20.408228
_cell_length_c 28.814250
_cell_angle_alpha 90.000000
_cell_angle_beta 90.000000
_cell_angle_gamma 90.000000
_cell_volume 11112.689444
_symmetry_space_group_name_H-M "F M M M"
_symmetry_group_IT_number 69
_symmetry_cell_setting 'orthorhombic'
loop_
_space_group_symop_operation_xyz
x,y,z
-x,-y,z
x,-y,-z
-x,y,-z
-x,-y,-z
x,y,-z
-x,y,z
x,-y,z
x,1/2+y,1/2+z
-x,1/2-y,1/2+z
x,1/2-y,1/2-z
-x,1/2+y,1/2-z
-x,1/2-y,1/2-z
x,1/2+y,1/2-z
-x,1/2+y,1/2+z
x,1/2-y,1/2+z
1/2+x,y,1/2+z
1/2-x,-y,1/2+z
1/2+x,-y,1/2-z
1/2-x,y,1/2-z
1/2-x,-y,1/2-z
1/2+x,y,1/2-z
1/2-x,y,1/2+z
1/2+x,-y,1/2+z
1/2+x,1/2+y,z
1/2-x,1/2-y,z
1/2+x,1/2-y,-z
1/2-x,1/2+y,-z
1/2-x,1/2-y,-z
1/2+x,1/2+y,-z
1/2-x,1/2+y,z
1/2+x,1/2-y,z
loop_
_atom_site_type_symbol
_atom_site_label
_atom_site_fract_x
_atom_site_fract_y
_atom_site_fract_z
Si Si1 0.328024 0.273106 0.128566
Si Si2 0.667533 0.124122 0.554134
Si Si3 0.823940 0.425019 0.053814
Si Si4 0.078969 0.000000 0.055012
Si Si5 0.582519 0.645186 0.373848
Si Si6 0.082191 0.925394 0.720990
Si Si7 0.327574 0.181090 0.270004
O O1 0.250000 0.250000 0.115563
O O2 0.356488 0.314109 0.084667
O O3 0.381122 0.213835 0.137849
O O4 0.324444 0.317562 0.174451
O O5 0.654583 0.139956 0.500000
O O6 0.748995 0.108151 0.564302
O O7 0.620262 0.063953 0.571933
O O8 0.820951 0.500000 0.070364
O O9 0.885222 0.386599 0.080213
O O10 0.842879 0.420472 0.000000
O O11 0.000000 0.000000 0.076136
O O12 0.076897 0.000000 0.000000
O O13 0.500000 0.657348 0.382248
O O14 0.597137 0.596092 0.331590
O O15 0.122690 0.878982 0.756687
O O16 0.000000 0.919350 0.733034
O O17 0.108759 0.000000 0.726995
O O18 0.357355 0.250000 0.250000
O O19 0.250000 0.168013 0.250000
#
# Coordination Sequence:
#
# PCOD8284976 Si02
#       7
#    32  32  32  16  32  32  32
#     4  12  22  38  61  87 117 155 198 241 297 357
#     4  10  21  37  61  90 118 155 200 240 292 356
#     4  10  20  36  59  85 116 154 198 245 291 349
#     4   9  18  38  64  88 120 159 199 247 299 352
#     4  11  23  38  58  85 116 156 199 242 298 357
#     4  10  22  41  63  86 116 156 199 243 295 359
#     4  11  21  39  62  88 118 154 196 247 293 353
#
# _framework density 18.717341000000001
#
# number of rings (size 3 to 8) (size 9 to 14) (size 15 to 20)
#    0.000    1.462    5.385    0.462    0.000    4.000 
#    1.385    0.769    0.000    0.000    0.000    0.000 
#    0.000    0.000    0.000    0.000    0.000    0.000 
#
# Total GULP energy -644995.728193 kJ/mol
# GULP energy per Si atom -12403.764004 kJ/mol
# Density = 1.867474 g / cm^3
# Si number density = 18.717341 Si / 1000 Ang^3
#
#
#
# Elastic Constant Matrix: (Units=GPa)
#
#
# Indices 1 2 3 4 5 6 
#
# 1 75.2802 55.6366 33.3581 0.0000 0.0000 0.0000
# 2 55.6366 139.1975 53.4063 0.0000 0.0000 0.0000
# 3 33.3581 53.4063 85.5885 0.0000 0.0000 0.0000
# 4 0.0000 0.0000 0.0000 34.1098 0.0000 0.0000
# 5 0.0000 0.0000 0.0000 0.0000 24.5238 0.0000
# 6 0.0000 0.0000 0.0000 0.0000 0.0000 32.1285
#
#
#
# Elastic Compliance Matrix: (Units=1/GPa)
#
#
# Indices 1 2 3 4 5 6 
#
# 1 0.019675 -0.006471 -0.003630 0.000000 0.000000 0.000000
# 2 -0.006471 0.011574 -0.004700 0.000000 0.000000 0.000000
# 3 -0.003630 -0.004700 0.016031 0.000000 0.000000 0.000000
# 4 0.000000 0.000000 0.000000 0.029317 0.000000 0.000000
# 5 0.000000 0.000000 0.000000 0.000000 0.040777 0.000000
# 6 0.000000 0.000000 0.000000 0.000000 0.000000 0.031125
#
#
# Mechanical properties :
#
#
# Convention : Reuss Voigt Hill
#
# Bulk Modulus (GPa) = 56.56920 64.98536 60.77728
# Shear Modulus (GPa) = 27.17484 28.66343 27.91914
#
# Velocity S-wave (km/s) = 3.81445 3.91754 3.86634
# Velocity P-wave (km/s) = 7.04901 7.43354 7.24383
#
# Compressibility (1/GPa) = 0.01767747
#
# Stress axis : x y z
#
# Youngs Moduli (GPa) = 50.82609 86.40312 62.37778
#
# Poissons Ratio (x) = 0.55912 0.22646
# Poissons Ratio (y) = 0.32890 0.29316
# Poissons Ratio (z) = 0.18452 0.40607
#
# Static dielectric constant tensor:
#      x y z
#    x 3.435720 0.000000 0.000000 
#    y 0.000000 3.543960 0.000000 
#    z 0.000000 0.000000 3.314200 
# 
# 
# High freq. dielectric constant tensor:
#      x y z
#    x 1.724080 0.000000 0.000000 
#    y 0.000000 1.732810 0.000000 
#    z 0.000000 0.000000 1.722630 
# 
# From -- ./inp_files/41998.got.cif
#   From: 2010.03.12/outbox.cif.g09.slc.cpg/sg69_21_cif.got.tgz:41998.got - 2010.04.10 23:52:46.
