data_PCOD8284665
_publ_section_title
;
Structure prediction by ZEFSAII (Michael W. Deem and Ramdas Pophale) SiO2 
 PCOD8284665
Probable space group: F M M M
;
_chemical_formula_sum "Si O2"
_cell_formula_units_Z 160
_cell_length_a 14.672019
_cell_length_b 22.953698
_cell_length_c 25.042469
_cell_angle_alpha 90.000000
_cell_angle_beta 90.000000
_cell_angle_gamma 90.000000
_cell_volume 8433.729916
_symmetry_space_group_name_H-M "F M M M"
_symmetry_group_IT_number 69
_symmetry_cell_setting 'orthorhombic'
loop_
_space_group_symop_operation_xyz
x,y,z
-x,-y,z
x,-y,-z
-x,y,-z
-x,-y,-z
x,y,-z
-x,y,z
x,-y,z
x,1/2+y,1/2+z
-x,1/2-y,1/2+z
x,1/2-y,1/2-z
-x,1/2+y,1/2-z
-x,1/2-y,1/2-z
x,1/2+y,1/2-z
-x,1/2+y,1/2+z
x,1/2-y,1/2+z
1/2+x,y,1/2+z
1/2-x,-y,1/2+z
1/2+x,-y,1/2-z
1/2-x,y,1/2-z
1/2-x,-y,1/2-z
1/2+x,y,1/2-z
1/2-x,y,1/2+z
1/2+x,-y,1/2+z
1/2+x,1/2+y,z
1/2-x,1/2-y,z
1/2+x,1/2-y,-z
1/2-x,1/2+y,-z
1/2-x,1/2-y,-z
1/2+x,1/2+y,-z
1/2-x,1/2+y,z
1/2+x,1/2-y,z
loop_
_atom_site_type_symbol
_atom_site_label
_atom_site_fract_x
_atom_site_fract_y
_atom_site_fract_z
Si Si1 0.778729 0.568405 0.361818
Si Si2 0.603287 0.762158 0.639416
Si Si3 0.397340 0.134892 0.841574
Si Si4 0.844589 0.347854 0.727459
Si Si5 0.392716 0.139460 0.562093
O O1 0.782369 0.500000 0.354638
O O2 0.672476 0.587627 0.365427
O O3 0.828334 0.596903 0.310957
O O4 0.834123 0.585561 0.415328
O O5 0.500000 0.748543 0.625977
O O6 0.647866 0.697942 0.642523
O O7 0.608855 0.795089 0.695912
O O8 0.643482 0.802026 0.591826
O O9 0.500000 0.124350 0.864232
O O10 0.405962 0.131466 0.777142
O O11 0.750000 0.323636 0.750000
O O12 0.372575 0.146490 0.500000
O O13 0.500000 0.128734 0.573720
#
# Coordination Sequence:
#
# PCOD8284665 Si02
#       5
#    32  32  32  32  32
#     4  10  22  37  51  74 108 141 180 226 260 294
#     4   9  17  31  51  78 108 132 164 213 264 315
#     4  10  20  33  51  75 106 146 182 209 248 305
#     4   9  18  29  48  74 104 139 176 216 261 308
#     4   9  19  37  61  85 105 127 159 209 277 337
#
# _framework density 18.971440000000001
#
# number of rings (size 3 to 8) (size 9 to 14) (size 15 to 20)
#    0.000    2.600    0.000    1.200    0.000   16.800 
#    0.000    3.000    0.000    1.800    0.000    1.400 
#    0.000    0.000    0.000    0.000    0.000    0.000 
#
# Total GULP energy -495798.710412 kJ/mol
# GULP energy per Si atom -12394.967760 kJ/mol
# Density = 1.892826 g / cm^3
# Si number density = 18.971440 Si / 1000 Ang^3
#
#
#
# Elastic Constant Matrix: (Units=GPa)
#
#
# Indices 1 2 3 4 5 6 
#
# 1 68.0057 28.7484 28.1804 0.0000 0.0000 0.0000
# 2 28.7484 117.3298 30.5475 0.0000 0.0000 0.0000
# 3 28.1804 30.5475 90.2113 0.0000 0.0000 0.0000
# 4 0.0000 0.0000 0.0000 13.1281 0.0000 0.0000
# 5 0.0000 0.0000 0.0000 0.0000 26.1076 0.0000
# 6 0.0000 0.0000 0.0000 0.0000 0.0000 22.6639
#
#
#
# Elastic Compliance Matrix: (Units=1/GPa)
#
#
# Indices 1 2 3 4 5 6 
#
# 1 0.017936 -0.003220 -0.004512 0.000000 0.000000 0.000000
# 2 -0.003220 0.009925 -0.002355 0.000000 0.000000 0.000000
# 3 -0.004512 -0.002355 0.013292 0.000000 0.000000 0.000000
# 4 0.000000 0.000000 0.000000 0.076173 0.000000 0.000000
# 5 0.000000 0.000000 0.000000 0.000000 0.038303 0.000000
# 6 0.000000 0.000000 0.000000 0.000000 0.000000 0.044123
#
#
# Mechanical properties :
#
#
# Convention : Reuss Voigt Hill
#
# Bulk Modulus (GPa) = 47.66839 50.05550 48.86195
# Shear Modulus (GPa) = 22.03431 24.91796 23.47614
#
# Velocity S-wave (km/s) = 3.41170 3.62808 3.52155
# Velocity P-wave (km/s) = 6.37970 6.63269 6.50742
#
# Compressibility (1/GPa) = 0.02097826
#
# Stress axis : x y z
#
# Youngs Moduli (GPa) = 55.75486 100.75514 75.23228
#
# Poissons Ratio (x) = 0.32441 0.33948
# Poissons Ratio (y) = 0.17952 0.17717
# Poissons Ratio (z) = 0.25159 0.23728
#
# Static dielectric constant tensor:
#      x y z
#    x 3.468400 0.000000 0.000000 
#    y 0.000000 3.394820 0.000000 
#    z 0.000000 0.000000 3.425190 
# 
# 
# High freq. dielectric constant tensor:
#      x y z
#    x 1.739580 0.000000 0.000000 
#    y 0.000000 1.721400 0.000000 
#    z 0.000000 0.000000 1.716430 
# 
# From -- ./inp_files/17677.got.cif
#   From: 2010.03.12/outbox.cif.g09.slc.cpg/sg69_9_cif.got.tgz:17677.got - 2010.04.10 23:52:46.
