data_PCOD8284308
_publ_section_title
;
Structure prediction by ZEFSAII (Michael W. Deem and Ramdas Pophale) SiO2 
 PCOD8284308
Probable space group: F M M M
;
_chemical_formula_sum "Si O2"
_cell_formula_units_Z 160
_cell_length_a 8.865768
_cell_length_b 38.870454
_cell_length_c 26.069496
_cell_angle_alpha 90.000000
_cell_angle_beta 90.000000
_cell_angle_gamma 90.000000
_cell_volume 8983.976571
_symmetry_space_group_name_H-M "F M M M"
_symmetry_group_IT_number 69
_symmetry_cell_setting 'orthorhombic'
loop_
_space_group_symop_operation_xyz
x,y,z
-x,-y,z
x,-y,-z
-x,y,-z
-x,-y,-z
x,y,-z
-x,y,z
x,-y,z
x,1/2+y,1/2+z
-x,1/2-y,1/2+z
x,1/2-y,1/2-z
-x,1/2+y,1/2-z
-x,1/2-y,1/2-z
x,1/2+y,1/2-z
-x,1/2+y,1/2+z
x,1/2-y,1/2+z
1/2+x,y,1/2+z
1/2-x,-y,1/2+z
1/2+x,-y,1/2-z
1/2-x,y,1/2-z
1/2-x,-y,1/2-z
1/2+x,y,1/2-z
1/2-x,y,1/2+z
1/2+x,-y,1/2+z
1/2+x,1/2+y,z
1/2-x,1/2-y,z
1/2+x,1/2-y,-z
1/2-x,1/2+y,-z
1/2-x,1/2-y,-z
1/2+x,1/2+y,-z
1/2-x,1/2+y,z
1/2+x,1/2-y,z
loop_
_atom_site_type_symbol
_atom_site_label
_atom_site_fract_x
_atom_site_fract_y
_atom_site_fract_z
Si Si1 0.323287 0.340260 0.889359
Si Si2 0.672856 0.340182 0.000000
Si Si3 0.822861 0.460569 0.302492
Si Si4 0.822493 0.914680 0.611388
Si Si5 0.320393 0.713614 0.196405
Si Si6 0.825547 0.412290 0.000000
O O1 0.500000 0.348781 0.883529
O O2 0.288347 0.321982 0.945327
O O3 0.231082 0.375397 0.882834
O O4 0.270345 0.313722 0.846254
O O5 0.754736 0.375621 0.000000
O O6 0.500000 0.349788 0.000000
O O7 0.775370 0.500000 0.312089
O O8 0.750000 0.446725 0.250000
O O9 0.764435 0.438417 0.349373
O O10 0.000000 0.456119 0.297633
O O11 0.782641 0.930325 0.554250
O O12 0.000000 0.916273 0.622590
O O13 0.500000 0.717090 0.201342
O O14 0.250000 0.700974 0.250000
O O15 0.250000 0.750000 0.180304
O O16 0.000000 0.405020 0.000000
#
# Coordination Sequence:
#
# PCOD8284308 Si02
#       6
#    32  16  32  32  32  16
#     4   9  18  32  51  74  99 128 164 204 245 291
#     4   8  14  28  49  70  94 126 161 199 243 288
#     4  10  21  37  55  74  99 132 168 206 250 299
#     4  10  19  32  53  78 104 133 166 206 247 291
#     4  10  20  34  51  70  95 128 163 200 243 292
#     4   8  16  30  47  72 103 133 164 198 243 292
#
# _framework density 17.809484999999999
#
# number of rings (size 3 to 8) (size 9 to 14) (size 15 to 20)
#    0.000    2.600    0.000    2.400    0.000    4.400 
#    0.000    3.000    0.000    3.000    0.000    0.000 
#    0.000    0.000    0.000    0.000    0.000    0.000 
#
# Total GULP energy -495545.314783 kJ/mol
# GULP energy per Si atom -12388.632870 kJ/mol
# Density = 1.776895 g / cm^3
# Si number density = 17.809485 Si / 1000 Ang^3
#
#
#
# Elastic Constant Matrix: (Units=GPa)
#
#
# Indices 1 2 3 4 5 6 
#
# 1 57.1155 29.8141 48.9273 0.0000 0.0000 0.0000
# 2 29.8141 66.8927 75.7943 0.0000 0.0000 0.0000
# 3 48.9273 75.7943 180.7474 0.0000 0.0000 0.0000
# 4 0.0000 0.0000 0.0000 -31.3974 0.0000 0.0000
# 5 0.0000 0.0000 0.0000 0.0000 27.5489 0.0000
# 6 0.0000 0.0000 0.0000 0.0000 0.0000 34.2748
#
#
#
# Elastic Compliance Matrix: (Units=1/GPa)
#
#
# Indices 1 2 3 4 5 6 
#
# 1 0.024149 -0.006395 -0.003855 0.000000 0.000000 0.000000
# 2 -0.006395 0.030176 -0.010923 0.000000 0.000000 0.000000
# 3 -0.003855 -0.010923 0.011157 0.000000 0.000000 0.000000
# 4 0.000000 0.000000 0.000000 -0.031850 0.000000 0.000000
# 5 0.000000 0.000000 0.000000 0.000000 0.036299 0.000000
# 6 0.000000 0.000000 0.000000 0.000000 0.000000 0.029176
#
#
# Mechanical properties :
#
#
# Convention : Reuss Voigt Hill
#
# Bulk Modulus (GPa) = 43.22376 68.20300 55.71338
# Shear Modulus (GPa) = 33.51992 16.09991 24.80991
#
# Velocity S-wave (km/s) = 4.34307 3.00993 3.73644
# Velocity P-wave (km/s) = 7.03366 7.10342 7.06863
#
# Compressibility (1/GPa) = 0.02313542
#
# Stress axis : x y z
#
# Youngs Moduli (GPa) = 41.40929 33.13906 89.63296
#
# Poissons Ratio (x) = 0.21192 0.34558
# Poissons Ratio (y) = 0.26480 0.97905
# Poissons Ratio (z) = 0.15965 0.36197
#
# Static dielectric constant tensor:
#      x y z
#    x 3.364390 0.000000 0.000000 
#    y 0.000000 2.990510 0.000000 
#    z 0.000000 0.000000 4.252060 
# 
# 
# High freq. dielectric constant tensor:
#      x y z
#    x 1.699770 0.000000 0.000000 
#    y 0.000000 1.652240 0.000000 
#    z 0.000000 0.000000 1.715690 
# 
# From -- ./inp_files/44613.got.cif
#   From: 2010.03.12/outbox.cif.g09.slc.cpg/sg69_23_cif.got.tgz:44613.got - 2010.04.10 23:52:46.
