data_PCOD8284805
_publ_section_title
;
Structure prediction by ZEFSAII (Michael W. Deem and Ramdas Pophale) SiO2 
 PCOD8284805
Probable space group: F M M M
;
_chemical_formula_sum "Si O2"
_cell_formula_units_Z 128
_cell_length_a 16.469927
_cell_length_b 23.726166
_cell_length_c 16.917389
_cell_angle_alpha 90.000000
_cell_angle_beta 90.000000
_cell_angle_gamma 90.000000
_cell_volume 6610.778021
_symmetry_space_group_name_H-M "F M M M"
_symmetry_group_IT_number 69
_symmetry_cell_setting 'orthorhombic'
loop_
_space_group_symop_operation_xyz
x,y,z
-x,-y,z
x,-y,-z
-x,y,-z
-x,-y,-z
x,y,-z
-x,y,z
x,-y,z
x,1/2+y,1/2+z
-x,1/2-y,1/2+z
x,1/2-y,1/2-z
-x,1/2+y,1/2-z
-x,1/2-y,1/2-z
x,1/2+y,1/2-z
-x,1/2+y,1/2+z
x,1/2-y,1/2+z
1/2+x,y,1/2+z
1/2-x,-y,1/2+z
1/2+x,-y,1/2-z
1/2-x,y,1/2-z
1/2-x,-y,1/2-z
1/2+x,y,1/2-z
1/2-x,y,1/2+z
1/2+x,-y,1/2+z
1/2+x,1/2+y,z
1/2-x,1/2-y,z
1/2+x,1/2-y,-z
1/2-x,1/2+y,-z
1/2-x,1/2-y,-z
1/2+x,1/2+y,-z
1/2-x,1/2+y,z
1/2+x,1/2-y,z
loop_
_atom_site_type_symbol
_atom_site_label
_atom_site_fract_x
_atom_site_fract_y
_atom_site_fract_z
Si Si1 0.738647 0.564621 0.410367
Si Si2 0.671614 0.352596 0.201403
Si Si3 0.153743 0.245252 0.088461
Si Si4 0.407876 0.865476 0.858120
O O1 0.770238 0.570554 0.500000
O O2 0.732626 0.500000 0.383828
O O3 0.802118 0.595204 0.353126
O O4 0.649580 0.592115 0.405791
O O5 0.750000 0.329089 0.250000
O O6 0.630021 0.304541 0.148293
O O7 0.604915 0.373434 0.264059
O O8 0.250000 0.250000 0.087915
O O9 0.111802 0.301787 0.117769
O O10 0.122719 0.231110 0.000000
O O11 0.500000 0.880224 0.880187
#
# Coordination Sequence:
#
# PCOD8284805 Si02
#       4
#    32  32  32  32
#     4  10  21  38  61  85 109 145 194 238 275 324
#     4  10  20  34  57  81 110 147 189 231 273 327
#     4  11  20  33  55  81 110 148 188 227 273 330
#     4  11  24  37  54  85 121 150 181 227 285 341
#
# _framework density 19.362318999999999
#
# number of rings (size 3 to 8) (size 9 to 14) (size 15 to 20)
#    0.000    1.500    5.000    2.250    0.000    9.000 
#    0.000    1.250    0.000    2.250    0.000    1.750 
#    0.000    0.000    0.000    0.000    0.000    0.000 
#
# Total GULP energy -396833.249300 kJ/mol
# GULP energy per Si atom -12401.039041 kJ/mol
# Density = 1.931825 g / cm^3
# Si number density = 19.362319 Si / 1000 Ang^3
#
#
#
# Elastic Constant Matrix: (Units=GPa)
#
#
# Indices 1 2 3 4 5 6 
#
# 1 46.5914 11.6943 9.5727 0.0000 0.0000 0.0000
# 2 11.6943 127.7731 49.1790 0.0000 0.0000 0.0000
# 3 9.5727 49.1790 118.4924 0.0000 0.0000 0.0000
# 4 0.0000 0.0000 0.0000 25.0009 0.0000 0.0000
# 5 0.0000 0.0000 0.0000 0.0000 7.4575 0.0000
# 6 0.0000 0.0000 0.0000 0.0000 0.0000 11.2760
#
#
#
# Elastic Compliance Matrix: (Units=1/GPa)
#
#
# Indices 1 2 3 4 5 6 
#
# 1 0.022093 -0.001589 -0.001125 0.000000 0.000000 0.000000
# 2 -0.001589 0.009429 -0.003785 0.000000 0.000000 0.000000
# 3 -0.001125 -0.003785 0.010101 0.000000 0.000000 0.000000
# 4 0.000000 0.000000 0.000000 0.039998 0.000000 0.000000
# 5 0.000000 0.000000 0.000000 0.000000 0.134093 0.000000
# 6 0.000000 0.000000 0.000000 0.000000 0.000000 0.088684
#
#
# Mechanical properties :
#
#
# Convention : Reuss Voigt Hill
#
# Bulk Modulus (GPa) = 34.93498 48.19431 41.56465
# Shear Modulus (GPa) = 15.29341 23.57428 19.43384
#
# Velocity S-wave (km/s) = 2.81348 3.49310 3.17155
# Velocity P-wave (km/s) = 5.35128 6.41980 5.90974
#
# Compressibility (1/GPa) = 0.02862461
#
# Stress axis : x y z
#
# Youngs Moduli (GPa) = 45.26276 106.06068 98.99870
#
# Poissons Ratio (x) = 0.16852 0.11141
# Poissons Ratio (y) = 0.07192 0.37470
# Poissons Ratio (z) = 0.05094 0.40142
#
# Static dielectric constant tensor:
#      x y z
#    x 3.381800 0.000000 0.000000 
#    y 0.000000 3.566690 0.000000 
#    z 0.000000 0.000000 3.997140 
# 
# 
# High freq. dielectric constant tensor:
#      x y z
#    x 1.712580 0.000000 0.000000 
#    y 0.000000 1.745880 0.000000 
#    z 0.000000 0.000000 1.780080 
# 
# From -- ./inp_files/22736.got.cif
#   From: 2010.03.12/outbox.cif.g09.slc.cpg/sg69_12_cif.got.tgz:22736.got - 2010.04.10 23:52:46.
