data_PCOD8284160
_publ_section_title
;
Structure prediction by ZEFSAII (Michael W. Deem and Ramdas Pophale) SiO2 
 PCOD8284160
Probable space group: F M M M
;
_chemical_formula_sum "Si O2"
_cell_formula_units_Z 128
_cell_length_a 25.920383
_cell_length_b 7.887925
_cell_length_c 37.082755
_cell_angle_alpha 90.000000
_cell_angle_beta 90.000000
_cell_angle_gamma 90.000000
_cell_volume 7581.867297
_symmetry_space_group_name_H-M "F M M M"
_symmetry_group_IT_number 69
_symmetry_cell_setting 'orthorhombic'
loop_
_space_group_symop_operation_xyz
x,y,z
-x,-y,z
x,-y,-z
-x,y,-z
-x,-y,-z
x,y,-z
-x,y,z
x,-y,z
x,1/2+y,1/2+z
-x,1/2-y,1/2+z
x,1/2-y,1/2-z
-x,1/2+y,1/2-z
-x,1/2-y,1/2-z
x,1/2+y,1/2-z
-x,1/2+y,1/2+z
x,1/2-y,1/2+z
1/2+x,y,1/2+z
1/2-x,-y,1/2+z
1/2+x,-y,1/2-z
1/2-x,y,1/2-z
1/2-x,-y,1/2-z
1/2+x,y,1/2-z
1/2-x,y,1/2+z
1/2+x,-y,1/2+z
1/2+x,1/2+y,z
1/2-x,1/2-y,z
1/2+x,1/2-y,-z
1/2-x,1/2+y,-z
1/2-x,1/2-y,-z
1/2+x,1/2+y,-z
1/2-x,1/2+y,z
1/2+x,1/2-y,z
loop_
_atom_site_type_symbol
_atom_site_label
_atom_site_fract_x
_atom_site_fract_y
_atom_site_fract_z
Si Si1 0.061113 0.000000 0.040161
Si Si2 0.940146 0.191935 0.589568
Si Si3 0.597531 0.797420 0.664635
Si Si4 0.806546 0.302502 0.290821
Si Si5 0.500000 0.801009 0.291183
O O1 0.079732 0.171433 0.060278
O O2 0.000000 0.000000 0.037605
O O3 0.085243 0.000000 0.000000
O O4 0.906582 0.214678 0.625427
O O5 0.000000 0.227584 0.598960
O O6 0.932680 0.000000 0.574643
O O7 0.650124 0.726239 0.682682
O O8 0.550805 0.728764 0.689330
O O9 0.596476 0.000000 0.660929
O O10 0.811590 0.500000 0.292694
O O11 0.817189 0.250000 0.250000
O O12 0.750000 0.250000 0.304333
O O13 0.500000 0.750000 0.250000
O O14 0.500000 0.000000 0.294706
#
# Coordination Sequence:
#
# PCOD8284160 Si02
#       5
#    16  32  32  32  16
#     4   9  18  32  50  70 104 139 164 204 242 288
#     4  10  19  30  49  74  99 135 172 199 246 298
#     4  10  19  32  49  66  94 134 166 207 257 300
#     4  10  20  33  49  67  91 129 171 215 263 304
#     4  10  20  30  44  64  92 125 164 209 249 297
#
# _framework density 16.882384999999999
#
# number of rings (size 3 to 8) (size 9 to 14) (size 15 to 20)
#    0.000    2.125    2.500    2.250    0.000    3.500 
#    0.000    2.500    0.000    0.000    0.000    0.000 
#    0.000    1.000    0.500    0.000    0.000    0.000 
#
# Total GULP energy -396740.148308 kJ/mol
# GULP energy per Si atom -12398.129635 kJ/mol
# Density = 1.684396 g / cm^3
# Si number density = 16.882385 Si / 1000 Ang^3
#
#
#
# Elastic Constant Matrix: (Units=GPa)
#
#
# Indices 1 2 3 4 5 6 
#
# 1 97.7650 31.3648 55.2301 0.0003 -0.0005 0.0082
# 2 31.3648 76.9961 45.1957 -0.0009 0.0002 0.0075
# 3 55.2301 45.1957 132.8894 -0.0001 0.0003 -0.0007
# 4 0.0003 -0.0009 -0.0001 21.4392 -0.0002 -0.0003
# 5 -0.0005 0.0002 0.0003 -0.0002 15.7746 0.0003
# 6 0.0082 0.0075 -0.0007 -0.0003 0.0003 15.9640
#
#
#
# Elastic Compliance Matrix: (Units=1/GPa)
#
#
# Indices 1 2 3 4 5 6 
#
# 1 0.013842 -0.002826 -0.004792 0.000000 0.000001 -0.000006
# 2 -0.002826 0.016804 -0.004541 0.000001 0.000000 -0.000007
# 3 -0.004792 -0.004541 0.011061 0.000000 0.000000 0.000005
# 4 0.000000 0.000001 0.000000 0.046643 0.000001 0.000001
# 5 0.000001 0.000000 0.000000 0.000001 0.063393 -0.000001
# 6 -0.000006 -0.000007 0.000005 0.000001 -0.000001 0.062641
#
#
# Mechanical properties :
#
#
# Convention : Reuss Voigt Hill
#
# Bulk Modulus (GPa) = 57.50297 63.47018 60.48658
# Shear Modulus (GPa) = 20.45006 22.35958 21.40482
#
# Velocity S-wave (km/s) = 3.48419 3.64322 3.56459
# Velocity P-wave (km/s) = 7.09373 7.44141 7.26965
#
# Compressibility (1/GPa) = 0.01739041
#
# Stress axis : x y z
#
# Youngs Moduli (GPa) = 72.24243 59.50932 90.40901
#
# Poissons Ratio (x) = 0.16817 0.43323
# Poissons Ratio (y) = 0.20415 0.41051
# Poissons Ratio (z) = 0.34618 0.27021
#
# Static dielectric constant tensor:
#      x y z
#    x 2.693550 0.000000 0.000000 
#    y 0.000000 3.222020 0.000000 
#    z 0.000000 0.000000 3.050990 
# 
# 
# High freq. dielectric constant tensor:
#      x y z
#    x 1.618450 0.000000 0.000000 
#    y 0.000000 1.660270 0.000000 
#    z 0.000000 0.000000 1.635750 
# 
# From -- ./inp_files/5459.got.cif
#   From: 2010.03.12/outbox.cif.g09.slc.cpg/sg69_3_cif.got.tgz:5459.got - 2010.04.10 23:52:46.
