data_PCOD8284779
_publ_section_title
;
Structure prediction by ZEFSAII (Michael W. Deem and Ramdas Pophale) SiO2 
 PCOD8284779
Probable space group: F M M M
;
_chemical_formula_sum "Si O2"
_cell_formula_units_Z 144
_cell_length_a 19.675781
_cell_length_b 19.505714
_cell_length_c 20.580067
_cell_angle_alpha 90.000000
_cell_angle_beta 90.000000
_cell_angle_gamma 90.000000
_cell_volume 7898.427143
_symmetry_space_group_name_H-M "F M M M"
_symmetry_group_IT_number 69
_symmetry_cell_setting 'orthorhombic'
loop_
_space_group_symop_operation_xyz
x,y,z
-x,-y,z
x,-y,-z
-x,y,-z
-x,-y,-z
x,y,-z
-x,y,z
x,-y,z
x,1/2+y,1/2+z
-x,1/2-y,1/2+z
x,1/2-y,1/2-z
-x,1/2+y,1/2-z
-x,1/2-y,1/2-z
x,1/2+y,1/2-z
-x,1/2+y,1/2+z
x,1/2-y,1/2+z
1/2+x,y,1/2+z
1/2-x,-y,1/2+z
1/2+x,-y,1/2-z
1/2-x,y,1/2-z
1/2-x,-y,1/2-z
1/2+x,y,1/2-z
1/2-x,y,1/2+z
1/2+x,-y,1/2+z
1/2+x,1/2+y,z
1/2-x,1/2-y,z
1/2+x,1/2-y,-z
1/2-x,1/2+y,-z
1/2-x,1/2-y,-z
1/2+x,1/2+y,-z
1/2-x,1/2+y,z
1/2+x,1/2-y,z
loop_
_atom_site_type_symbol
_atom_site_label
_atom_site_fract_x
_atom_site_fract_y
_atom_site_fract_z
Si Si1 0.423827 0.832942 0.146940
Si Si2 0.426753 0.197751 0.575183
Si Si3 0.163766 0.750000 0.750000
Si Si4 0.678163 0.919864 0.924163
Si Si5 0.714842 0.317288 0.871764
O O1 0.500000 0.851569 0.170261
O O2 0.423988 0.778587 0.088496
O O3 0.382585 0.800481 0.206907
O O4 0.389528 0.900219 0.115915
O O5 0.422671 0.183267 0.500000
O O6 0.500000 0.169155 0.602132
O O7 0.361313 0.162505 0.606680
O O8 0.210625 0.700718 0.704901
O O9 0.740391 0.882785 0.888033
O O10 0.690445 0.000000 0.917214
O O11 0.673346 0.898570 0.000000
O O12 0.750000 0.250000 0.906253
#
# Coordination Sequence:
#
# PCOD8284779 Si02
#       5
#    32  32  16  32  32
#     4  10  20  34  55  80 112 149 183 224 275 326
#     4   9  17  29  50  81 108 135 180 232 280 326
#     4  10  20  36  56  86 111 137 188 242 268 322
#     4  11  24  38  54  82 116 150 187 227 279 340
#     4  11  20  34  59  80 113 143 187 229 281 325
#
# _framework density 18.231479
#
# number of rings (size 3 to 8) (size 9 to 14) (size 15 to 20)
#    0.000    1.778    4.444    2.000    0.000    3.556 
#    0.000    3.333    0.000    0.667    0.000    3.111 
#    0.000    0.000    0.000    0.000    0.000    0.000 
#
# Total GULP energy -445995.902899 kJ/mol
# GULP energy per Si atom -12388.775081 kJ/mol
# Density = 1.818998 g / cm^3
# Si number density = 18.231479 Si / 1000 Ang^3
#
#
#
# Elastic Constant Matrix: (Units=GPa)
#
#
# Indices 1 2 3 4 5 6 
#
# 1 139.0405 47.7163 54.5788 0.0000 0.0000 0.0000
# 2 47.7163 78.8299 44.9234 0.0000 0.0000 0.0000
# 3 54.5788 44.9234 104.8244 0.0000 0.0000 0.0000
# 4 0.0000 0.0000 0.0000 22.5913 0.0000 0.0000
# 5 0.0000 0.0000 0.0000 0.0000 26.8764 0.0000
# 6 0.0000 0.0000 0.0000 0.0000 0.0000 20.9461
#
#
#
# Elastic Compliance Matrix: (Units=1/GPa)
#
#
# Indices 1 2 3 4 5 6 
#
# 1 0.009931 -0.004055 -0.003433 0.000000 0.000000 0.000000
# 2 -0.004055 0.018441 -0.005792 0.000000 0.000000 0.000000
# 3 -0.003433 -0.005792 0.013809 0.000000 0.000000 0.000000
# 4 0.000000 0.000000 0.000000 0.044265 0.000000 0.000000
# 5 0.000000 0.000000 0.000000 0.000000 0.037207 0.000000
# 6 0.000000 0.000000 0.000000 0.000000 0.000000 0.047742
#
#
# Mechanical properties :
#
#
# Convention : Reuss Voigt Hill
#
# Bulk Modulus (GPa) = 64.01304 68.57019 66.29162
# Shear Modulus (GPa) = 24.61093 25.78119 25.19606
#
# Velocity S-wave (km/s) = 3.67810 3.76454 3.72157
# Velocity P-wave (km/s) = 7.29558 7.52251 7.40991
#
# Compressibility (1/GPa) = 0.01562182
#
# Stress axis : x y z
#
# Youngs Moduli (GPa) = 100.69049 54.22828 72.41498
#
# Poissons Ratio (x) = 0.21990 0.24861
# Poissons Ratio (y) = 0.40831 0.41939
# Poissons Ratio (z) = 0.34568 0.31406
#
# Static dielectric constant tensor:
#      x y z
#    x 4.010080 0.000000 0.000000 
#    y 0.000000 2.885240 0.000000 
#    z 0.000000 0.000000 3.448870 
# 
# 
# High freq. dielectric constant tensor:
#      x y z
#    x 1.738890 0.000000 0.000000 
#    y 0.000000 1.649110 0.000000 
#    z 0.000000 0.000000 1.709090 
# 
# From -- ./inp_files/36556.got.cif
#   From: 2010.03.12/outbox.cif.g09.slc.cpg/sg69_19_cif.got.tgz:36556.got - 2010.04.10 23:52:46.
