data_PCOD8284161
_publ_section_title
;
Structure prediction by ZEFSAII (Michael W. Deem and Ramdas Pophale) SiO2 
 PCOD8284161
Probable space group: F M M M
;
_chemical_formula_sum "Si O2"
_cell_formula_units_Z 144
_cell_length_a 31.123299
_cell_length_b 28.653120
_cell_length_c 9.082848
_cell_angle_alpha 90.000000
_cell_angle_beta 90.000000
_cell_angle_gamma 90.000000
_cell_volume 8099.898747
_symmetry_space_group_name_H-M "F M M M"
_symmetry_group_IT_number 69
_symmetry_cell_setting 'orthorhombic'
loop_
_space_group_symop_operation_xyz
x,y,z
-x,-y,z
x,-y,-z
-x,y,-z
-x,-y,-z
x,y,-z
-x,y,z
x,-y,z
x,1/2+y,1/2+z
-x,1/2-y,1/2+z
x,1/2-y,1/2-z
-x,1/2+y,1/2-z
-x,1/2-y,1/2-z
x,1/2+y,1/2-z
-x,1/2+y,1/2+z
x,1/2-y,1/2+z
1/2+x,y,1/2+z
1/2-x,-y,1/2+z
1/2+x,-y,1/2-z
1/2-x,y,1/2-z
1/2-x,-y,1/2-z
1/2+x,y,1/2-z
1/2-x,y,1/2+z
1/2+x,-y,1/2+z
1/2+x,1/2+y,z
1/2-x,1/2-y,z
1/2+x,1/2-y,-z
1/2-x,1/2+y,-z
1/2-x,1/2-y,-z
1/2+x,1/2+y,-z
1/2-x,1/2+y,z
1/2+x,1/2-y,z
loop_
_atom_site_type_symbol
_atom_site_label
_atom_site_fract_x
_atom_site_fract_y
_atom_site_fract_z
Si Si1 0.547452 0.447661 0.674836
Si Si2 0.793165 0.946812 0.672646
Si Si3 0.500000 0.297553 0.167902
Si Si4 0.906495 0.300081 0.673416
Si Si5 0.625765 0.613877 0.325168
O O1 0.550273 0.448899 0.500000
O O2 0.500000 0.429646 0.724387
O O3 0.554911 0.500000 0.735851
O O4 0.584517 0.414265 0.736626
O O5 0.785916 0.943173 0.500000
O O6 0.750000 0.928781 0.750000
O O7 0.832084 0.914158 0.724136
O O8 0.803783 0.000000 0.719334
O O9 0.500000 0.250000 0.250000
O O10 0.454482 0.322439 0.204973
O O11 0.500000 0.282959 0.000000
O O12 0.897318 0.294826 0.500000
O O13 0.900931 0.250000 0.750000
O O14 0.872914 0.335850 0.746249
O O15 0.623743 0.620836 0.500000
#
# Coordination Sequence:
#
# PCOD8284161 Si02
#       5
#    32  32  16  32  32
#     4   8  14  25  42  67  99 132 165 199 236 285
#     4   9  18  33  53  77 105 134 166 207 252 299
#     4   8  16  30  46  64  89 124 165 207 246 285
#     4  10  20  34  50  70  98 133 171 212 254 297
#     4  10  19  30  49  76 102 130 166 209 253 297
#
# _framework density 17.777999999999999
#
# number of rings (size 3 to 8) (size 9 to 14) (size 15 to 20)
#    0.000    2.889    0.000    2.000    1.556    4.444 
#    0.000    0.000    0.000    2.667    0.000    6.222 
#    0.000    0.000    0.000    0.000    0.000    0.000 
#
# Total GULP energy -446094.342520 kJ/mol
# GULP energy per Si atom -12391.509514 kJ/mol
# Density = 1.773754 g / cm^3
# Si number density = 17.778000 Si / 1000 Ang^3
#
#
#
# Elastic Constant Matrix: (Units=GPa)
#
#
# Indices 1 2 3 4 5 6 
#
# 1 134.0175 79.2145 42.4763 -0.0030 0.0031 0.0033
# 2 79.2145 106.7395 38.0985 -0.0075 0.0077 0.0048
# 3 42.4763 38.0985 41.1090 -0.0301 0.0237 0.0137
# 4 -0.0030 -0.0075 -0.0301 23.5866 0.0126 0.0068
# 5 0.0031 0.0077 0.0237 0.0126 24.1031 -0.0056
# 6 0.0033 0.0048 0.0137 0.0068 -0.0056 24.6851
#
#
#
# Elastic Compliance Matrix: (Units=1/GPa)
#
#
# Indices 1 2 3 4 5 6 
#
# 1 0.014728 -0.008216 -0.007603 -0.000010 0.000008 0.000004
# 2 -0.008216 0.018583 -0.008733 -0.000006 0.000004 0.000002
# 3 -0.007603 -0.008733 0.040275 0.000048 -0.000036 -0.000020
# 4 -0.000010 -0.000006 0.000048 0.042397 -0.000022 -0.000012
# 5 0.000008 0.000004 -0.000036 -0.000022 0.041489 0.000009
# 6 0.000004 0.000002 -0.000020 -0.000012 0.000009 0.040510
#
#
# Mechanical properties :
#
#
# Convention : Reuss Voigt Hill
#
# Bulk Modulus (GPa) = 40.84698 66.82718 53.83708
# Shear Modulus (GPa) = 19.58888 22.61341 21.10114
#
# Velocity S-wave (km/s) = 3.32303 3.57036 3.44891
# Velocity P-wave (km/s) = 6.14405 7.39379 6.79770
#
# Compressibility (1/GPa) = 0.02448162
#
# Stress axis : x y z
#
# Youngs Moduli (GPa) = 67.89820 53.81245 24.82925
#
# Poissons Ratio (x) = 0.44213 0.18878
# Poissons Ratio (y) = 0.55786 0.21683
# Poissons Ratio (z) = 0.51625 0.46993
#
# Static dielectric constant tensor:
#      x y z
#    x 1.950350 -0.000030 -0.000110 
#    y -0.000030 3.169550 -0.000010 
#    z -0.000110 -0.000010 2.977320 
# 
# 
# High freq. dielectric constant tensor:
#      x y z
#    x 1.678390 0.000000 0.000000 
#    y 0.000000 1.678150 0.000000 
#    z 0.000000 0.000000 1.664150 
# 
# From -- ./inp_files/5578.got.cif
#   From: 2010.03.12/outbox.cif.g09.slc.cpg/sg69_3_cif.got.tgz:5578.got - 2010.04.10 23:52:46.
