data_PCOD8284023
_publ_section_title
;
Structure prediction by ZEFSAII (Michael W. Deem and Ramdas Pophale) SiO2 
 PCOD8284023
Probable space group: F M M M
;
_chemical_formula_sum "Si O2"
_cell_formula_units_Z 208
_cell_length_a 32.804897
_cell_length_b 20.062430
_cell_length_c 17.305918
_cell_angle_alpha 90.000000
_cell_angle_beta 90.000000
_cell_angle_gamma 90.000000
_cell_volume 11389.819838
_symmetry_space_group_name_H-M "F M M M"
_symmetry_group_IT_number 69
_symmetry_cell_setting 'orthorhombic'
loop_
_space_group_symop_operation_xyz
x,y,z
-x,-y,z
x,-y,-z
-x,y,-z
-x,-y,-z
x,y,-z
-x,y,z
x,-y,z
x,1/2+y,1/2+z
-x,1/2-y,1/2+z
x,1/2-y,1/2-z
-x,1/2+y,1/2-z
-x,1/2-y,1/2-z
x,1/2+y,1/2-z
-x,1/2+y,1/2+z
x,1/2-y,1/2+z
1/2+x,y,1/2+z
1/2-x,-y,1/2+z
1/2+x,-y,1/2-z
1/2-x,y,1/2-z
1/2-x,-y,1/2-z
1/2+x,y,1/2-z
1/2-x,y,1/2+z
1/2+x,-y,1/2+z
1/2+x,1/2+y,z
1/2-x,1/2-y,z
1/2+x,1/2-y,-z
1/2-x,1/2+y,-z
1/2-x,1/2-y,-z
1/2+x,1/2+y,-z
1/2-x,1/2+y,z
1/2+x,1/2-y,z
loop_
_atom_site_type_symbol
_atom_site_label
_atom_site_fract_x
_atom_site_fract_y
_atom_site_fract_z
Si Si1 0.373834 0.189810 0.091495
Si Si2 0.670207 0.175493 0.411073
Si Si3 0.131610 0.575279 0.204423
Si Si4 0.546346 0.746977 0.340855
Si Si5 0.787921 0.424876 0.696701
Si Si6 0.089390 0.377188 0.649574
Si Si7 0.543711 0.000000 0.410655
O O1 0.342703 0.249488 0.118638
O O2 0.360354 0.119627 0.128283
O O3 0.420671 0.199737 0.118268
O O4 0.372415 0.183528 0.000000
O O5 0.684054 0.178540 0.500000
O O6 0.706138 0.136285 0.364707
O O7 0.629858 0.132512 0.400595
O O8 0.117119 0.500000 0.182179
O O9 0.173459 0.570951 0.249077
O O10 0.098637 0.612548 0.259146
O O11 0.500000 0.726231 0.363814
O O12 0.552692 0.750000 0.250000
O O13 0.556080 0.821195 0.368358
O O14 0.781639 0.500000 0.659466
O O15 0.750000 0.405062 0.750000
O O16 0.070544 0.440414 0.614113
O O17 0.500000 0.000000 0.367537
O O18 0.535699 0.000000 0.500000
#
# Coordination Sequence:
#
# PCOD8284023 Si02
#       7
#    32  32  32  32  32  32  16
#     4  10  21  37  55  80 110 138 183 236 274 322
#     4   9  19  33  54  81 110 143 177 221 274 326
#     4  10  19  35  58  78 102 141 186 226 270 327
#     4  10  19  32  54  79 103 137 179 224 276 327
#     4   9  19  35  56  84 113 142 180 223 264 319
#     4  10  18  32  51  76 103 139 182 218 257 325
#     4  11  22  32  44  70 110 143 169 213 269 320
#
# _framework density 18.261921999999998
#
# number of rings (size 3 to 8) (size 9 to 14) (size 15 to 20)
#    0.000    2.231    2.308    0.923    1.077    1.538 
#    0.000    2.308    0.000    4.615    0.000    1.077 
#    0.000    0.000    0.000    0.000    0.000    0.000 
#
# Total GULP energy -644217.987627 kJ/mol
# GULP energy per Si atom -12388.807454 kJ/mol
# Density = 1.822036 g / cm^3
# Si number density = 18.261922 Si / 1000 Ang^3
#
#
#
# Elastic Constant Matrix: (Units=GPa)
#
#
# Indices 1 2 3 4 5 6 
#
# 1 40.9499 27.2272 23.8572 0.0000 0.0000 0.0000
# 2 27.2272 89.0990 29.8413 0.0000 0.0000 0.0000
# 3 23.8572 29.8413 69.5388 0.0000 0.0000 0.0000
# 4 0.0000 0.0000 0.0000 33.0982 0.0000 0.0000
# 5 0.0000 0.0000 0.0000 0.0000 24.0492 0.0000
# 6 0.0000 0.0000 0.0000 0.0000 0.0000 -262.9766
#
#
#
# Elastic Compliance Matrix: (Units=1/GPa)
#
#
# Indices 1 2 3 4 5 6 
#
# 1 0.034504 -0.007684 -0.008540 0.000000 0.000000 0.000000
# 2 -0.007684 0.014818 -0.003723 0.000000 0.000000 0.000000
# 3 -0.008540 -0.003723 0.018908 0.000000 0.000000 0.000000
# 4 0.000000 0.000000 0.000000 0.030213 0.000000 0.000000
# 5 0.000000 0.000000 0.000000 0.000000 0.041581 0.000000
# 6 0.000000 0.000000 0.000000 0.000000 0.000000 -0.003803
#
#
# Mechanical properties :
#
#
# Convention : Reuss Voigt Hill
#
# Bulk Modulus (GPa) = 35.28960 40.15991 37.72475
# Shear Modulus (GPa) = 26.94510 -33.25505 -3.15498
#
# Velocity S-wave (km/s) = 3.84536 -4.27195 -1.31582
# Velocity P-wave (km/s) = 6.25155 1.51459 4.28882
#
# Compressibility (1/GPa) = 0.02833696
#
# Stress axis : x y z
#
# Youngs Moduli (GPa) = 28.98176 67.48374 52.88730
#
# Poissons Ratio (x) = 0.51852 0.45168
# Poissons Ratio (y) = 0.22269 0.19690
# Poissons Ratio (z) = 0.24752 0.25124
#
# Static dielectric constant tensor:
#      x y z
#    x 3.521430 0.000000 0.000000 
#    y 0.000000 3.643670 0.000000 
#    z 0.000000 0.000000 3.712140 
# 
# 
# High freq. dielectric constant tensor:
#      x y z
#    x 1.696770 0.000000 0.000000 
#    y 0.000000 1.714390 0.000000 
#    z 0.000000 0.000000 1.691140 
# 
# From -- ./inp_files/27921.got.cif
#   From: 2010.03.12/outbox.cif.g09.slc.cpg/sg69_14_cif.got.tgz:27921.got - 2010.04.10 23:52:46.
