data_PCOD8284757
_publ_section_title
;
Structure prediction by ZEFSAII (Michael W. Deem and Ramdas Pophale) SiO2 
 PCOD8284757
Probable space group: F M M M
;
_chemical_formula_sum "Si O2"
_cell_formula_units_Z 160
_cell_length_a 26.842788
_cell_length_b 23.563136
_cell_length_c 14.036393
_cell_angle_alpha 90.000000
_cell_angle_beta 90.000000
_cell_angle_gamma 90.000000
_cell_volume 8878.022282
_symmetry_space_group_name_H-M "F M M M"
_symmetry_group_IT_number 69
_symmetry_cell_setting 'orthorhombic'
loop_
_space_group_symop_operation_xyz
x,y,z
-x,-y,z
x,-y,-z
-x,y,-z
-x,-y,-z
x,y,-z
-x,y,z
x,-y,z
x,1/2+y,1/2+z
-x,1/2-y,1/2+z
x,1/2-y,1/2-z
-x,1/2+y,1/2-z
-x,1/2-y,1/2-z
x,1/2+y,1/2-z
-x,1/2+y,1/2+z
x,1/2-y,1/2+z
1/2+x,y,1/2+z
1/2-x,-y,1/2+z
1/2+x,-y,1/2-z
1/2-x,y,1/2-z
1/2-x,-y,1/2-z
1/2+x,y,1/2-z
1/2-x,y,1/2+z
1/2+x,-y,1/2+z
1/2+x,1/2+y,z
1/2-x,1/2-y,z
1/2+x,1/2-y,-z
1/2-x,1/2+y,-z
1/2-x,1/2-y,-z
1/2+x,1/2+y,-z
1/2-x,1/2+y,z
1/2+x,1/2-y,z
loop_
_atom_site_type_symbol
_atom_site_label
_atom_site_fract_x
_atom_site_fract_y
_atom_site_fract_z
Si Si1 0.365866 0.148024 0.112747
Si Si2 0.557410 0.682438 0.755100
Si Si3 0.303883 0.247711 0.391173
Si Si4 0.363908 0.634909 0.890984
Si Si5 0.807658 0.933460 0.740127
O O1 0.420011 0.150827 0.162033
O O2 0.339667 0.205049 0.154685
O O3 0.332278 0.095473 0.147184
O O4 0.373270 0.145192 0.000000
O O5 0.500000 0.665299 0.760956
O O6 0.564107 0.750000 0.750000
O O7 0.583753 0.656501 0.848768
O O8 0.298338 0.267169 0.500000
O O9 0.250000 0.250000 0.340796
O O10 0.324675 0.185283 0.381158
O O11 0.339610 0.582765 0.833772
O O12 0.372435 0.616393 0.000000
O O13 0.750000 0.914799 0.750000
O O14 0.811843 0.000000 0.724099
#
# Coordination Sequence:
#
# PCOD8284757 Si02
#       5
#    32  32  32  32  32
#     4  10  20  35  54  79 110 144 180 220 268 323
#     4  10  20  34  53  81 114 143 174 219 275 329
#     4   9  16  27  47  76 105 135 170 206 254 318
#     4  10  20  35  54  79 110 144 180 220 268 323
#     4  10  22  37  54  80 111 145 185 225 265 311
#
# _framework density 18.022031999999999
#
# number of rings (size 3 to 8) (size 9 to 14) (size 15 to 20)
#    0.000    2.200    2.000    1.200    0.000    4.000 
#    0.000    7.000    0.000    9.600    0.000   11.200 
#    0.000    0.000    0.000    0.000    0.000    0.000 
#
# Total GULP energy -495889.354328 kJ/mol
# GULP energy per Si atom -12397.233858 kJ/mol
# Density = 1.798101 g / cm^3
# Si number density = 18.022032 Si / 1000 Ang^3
#
#
#
# Elastic Constant Matrix: (Units=GPa)
#
#
# Indices 1 2 3 4 5 6 
#
# 1 130.2815 18.9137 29.9989 0.0000 0.0000 0.0000
# 2 18.9137 50.4592 4.4457 0.0000 0.0000 0.0000
# 3 29.9989 4.4457 104.7268 0.0000 0.0000 0.0000
# 4 0.0000 0.0000 0.0000 21.1165 0.0000 0.0000
# 5 0.0000 0.0000 0.0000 0.0000 15.8895 0.0000
# 6 0.0000 0.0000 0.0000 0.0000 0.0000 22.5939
#
#
#
# Elastic Compliance Matrix: (Units=1/GPa)
#
#
# Indices 1 2 3 4 5 6 
#
# 1 0.008658 -0.003038 -0.002351 0.000000 0.000000 0.000000
# 2 -0.003038 0.020958 -0.000019 0.000000 0.000000 0.000000
# 3 -0.002351 -0.000019 0.010223 0.000000 0.000000 0.000000
# 4 0.000000 0.000000 0.000000 0.047356 0.000000 0.000000
# 5 0.000000 0.000000 0.000000 0.000000 0.062935 0.000000
# 6 0.000000 0.000000 0.000000 0.000000 0.000000 0.044260
#
#
# Mechanical properties :
#
#
# Convention : Reuss Voigt Hill
#
# Bulk Modulus (GPa) = 34.45650 43.57601 39.01625
# Shear Modulus (GPa) = 23.26860 27.39392 25.33126
#
# Velocity S-wave (km/s) = 3.59711 3.90298 3.75316
# Velocity P-wave (km/s) = 6.03431 6.67404 6.36222
#
# Compressibility (1/GPa) = 0.02902210
#
# Stress axis : x y z
#
# Youngs Moduli (GPa) = 115.49828 47.71335 97.81896
#
# Poissons Ratio (x) = 0.14496 0.22999
# Poissons Ratio (y) = 0.35091 0.00190
# Poissons Ratio (z) = 0.27155 0.00093
#
# Static dielectric constant tensor:
#      x y z
#    x 3.402440 0.000000 0.000000 
#    y 0.000000 3.099760 0.000000 
#    z 0.000000 0.000000 3.356120 
# 
# 
# High freq. dielectric constant tensor:
#      x y z
#    x 1.697540 0.000000 0.000000 
#    y 0.000000 1.677260 0.000000 
#    z 0.000000 0.000000 1.703710 
# 
# From -- ./inp_files/17680.got.cif
#   From: 2010.03.12/outbox.cif.g09.slc.cpg/sg69_9_cif.got.tgz:17680.got - 2010.04.10 23:52:46.
