data_PCOD8284546
_publ_section_title
;
Structure prediction by ZEFSAII (Michael W. Deem and Ramdas Pophale) SiO2 
 PCOD8284546
Probable space group: F M M M
;
_chemical_formula_sum "Si O2"
_cell_formula_units_Z 128
_cell_length_a 13.690362
_cell_length_b 22.783672
_cell_length_c 21.807057
_cell_angle_alpha 90.000000
_cell_angle_beta 90.000000
_cell_angle_gamma 90.000000
_cell_volume 6801.985635
_symmetry_space_group_name_H-M "F M M M"
_symmetry_group_IT_number 69
_symmetry_cell_setting 'orthorhombic'
loop_
_space_group_symop_operation_xyz
x,y,z
-x,-y,z
x,-y,-z
-x,y,-z
-x,-y,-z
x,y,-z
-x,y,z
x,-y,z
x,1/2+y,1/2+z
-x,1/2-y,1/2+z
x,1/2-y,1/2-z
-x,1/2+y,1/2-z
-x,1/2-y,1/2-z
x,1/2+y,1/2-z
-x,1/2+y,1/2+z
x,1/2-y,1/2+z
1/2+x,y,1/2+z
1/2-x,-y,1/2+z
1/2+x,-y,1/2-z
1/2-x,y,1/2-z
1/2-x,-y,1/2-z
1/2+x,y,1/2-z
1/2-x,y,1/2+z
1/2+x,-y,1/2+z
1/2+x,1/2+y,z
1/2-x,1/2-y,z
1/2+x,1/2-y,-z
1/2-x,1/2+y,-z
1/2-x,1/2-y,-z
1/2+x,1/2+y,-z
1/2-x,1/2+y,z
1/2+x,1/2-y,z
loop_
_atom_site_type_symbol
_atom_site_label
_atom_site_fract_x
_atom_site_fract_y
_atom_site_fract_z
Si Si1 0.229929 0.000000 0.571635
Si Si2 0.725342 0.817370 0.835922
Si Si3 0.889245 0.000000 0.176969
Si Si4 0.389588 0.883396 0.928791
Si Si5 0.612231 0.125303 0.722989
O O1 0.322801 0.000000 0.616201
O O2 0.163496 0.944044 0.586887
O O3 0.263122 0.000000 0.500000
O O4 0.750000 0.750000 0.824785
O O5 0.668759 0.828929 0.899069
O O6 0.657553 0.845086 0.783046
O O7 0.830335 0.849727 0.836257
O O8 0.872071 0.944776 0.221982
O O9 0.000000 0.000000 0.151565
O O10 0.500000 0.886989 0.902886
O O11 0.391024 0.870023 0.000000
O O12 0.500000 0.143617 0.717777
#
# Coordination Sequence:
#
# PCOD8284546 Si02
#       5
#    16  32  16  32  32
#     4  10  19  36  61  89 119 152 191 239 296 353
#     4  11  23  37  58  83 112 158 197 234 288 340
#     4  10  20  36  59  89 120 152 188 239 297 353
#     4  10  21  38  61  89 118 149 192 245 296 346
#     4  10  21  37  57  85 118 149 189 236 288 349
#
# _framework density 18.818034000000001
#
# number of rings (size 3 to 8) (size 9 to 14) (size 15 to 20)
#    0.000    1.750    2.500    2.625    0.000    8.250 
#    0.000    2.500    0.000    0.750    0.000    0.000 
#    0.000    0.000    0.000    0.000    0.000    0.000 
#
# Total GULP energy -396672.683514 kJ/mol
# GULP energy per Si atom -12396.021360 kJ/mol
# Density = 1.877520 g / cm^3
# Si number density = 18.818034 Si / 1000 Ang^3
#
#
#
# Elastic Constant Matrix: (Units=GPa)
#
#
# Indices 1 2 3 4 5 6 
#
# 1 161.5224 77.1236 56.0204 0.0000 0.0000 0.0000
# 2 77.1236 144.0386 50.0932 0.0000 0.0000 0.0000
# 3 56.0204 50.0932 66.4668 0.0000 0.0000 0.0000
# 4 0.0000 0.0000 0.0000 7.7811 0.0000 0.0000
# 5 0.0000 0.0000 0.0000 0.0000 32.8480 0.0000
# 6 0.0000 0.0000 0.0000 0.0000 0.0000 21.1987
#
#
#
# Elastic Compliance Matrix: (Units=1/GPa)
#
#
# Indices 1 2 3 4 5 6 
#
# 1 0.009723 -0.003193 -0.005789 0.000000 0.000000 0.000000
# 2 -0.003193 0.010457 -0.005190 0.000000 0.000000 0.000000
# 3 -0.005789 -0.005190 0.023835 0.000000 0.000000 0.000000
# 4 0.000000 0.000000 0.000000 0.128516 0.000000 0.000000
# 5 0.000000 0.000000 0.000000 0.000000 0.030443 0.000000
# 6 0.000000 0.000000 0.000000 0.000000 0.000000 0.047173
#
#
# Mechanical properties :
#
#
# Convention : Reuss Voigt Hill
#
# Bulk Modulus (GPa) = 63.80553 82.05578 72.93066
# Shear Modulus (GPa) = 17.62328 24.95161 21.28745
#
# Velocity S-wave (km/s) = 3.06357 3.64530 3.36702
# Velocity P-wave (km/s) = 6.81866 7.83691 7.34545
#
# Compressibility (1/GPa) = 0.01567262
#
# Stress axis : x y z
#
# Youngs Moduli (GPa) = 102.84465 95.62774 41.95440
#
# Poissons Ratio (x) = 0.30535 0.24286
# Poissons Ratio (y) = 0.32839 0.21774
# Poissons Ratio (z) = 0.59534 0.49630
#
# Static dielectric constant tensor:
#      x y z
#    x 3.921490 0.000000 0.000000 
#    y 0.000000 3.477410 0.000000 
#    z 0.000000 0.000000 3.337580 
# 
# 
# High freq. dielectric constant tensor:
#      x y z
#    x 1.749050 0.000000 0.000000 
#    y 0.000000 1.733320 0.000000 
#    z 0.000000 0.000000 1.714440 
# 
# From -- ./inp_files/16365.got.cif
#   From: 2010.03.12/outbox.cif.g09.slc.cpg/sg69_9_cif.got.tgz:16365.got - 2010.04.10 23:52:46.
