data_PCOD8284795
_publ_section_title
;
Structure prediction by ZEFSAII (Michael W. Deem and Ramdas Pophale) SiO2 
 PCOD8284795
Probable space group: F M M M
;
_chemical_formula_sum "Si O2"
_cell_formula_units_Z 128
_cell_length_a 14.412311
_cell_length_b 22.897354
_cell_length_c 17.963269
_cell_angle_alpha 90.000000
_cell_angle_beta 90.000000
_cell_angle_gamma 90.000000
_cell_volume 5927.946796
_symmetry_space_group_name_H-M "F M M M"
_symmetry_group_IT_number 69
_symmetry_cell_setting 'orthorhombic'
loop_
_space_group_symop_operation_xyz
x,y,z
-x,-y,z
x,-y,-z
-x,y,-z
-x,-y,-z
x,y,-z
-x,y,z
x,-y,z
x,1/2+y,1/2+z
-x,1/2-y,1/2+z
x,1/2-y,1/2-z
-x,1/2+y,1/2-z
-x,1/2-y,1/2-z
x,1/2+y,1/2-z
-x,1/2+y,1/2+z
x,1/2-y,1/2+z
1/2+x,y,1/2+z
1/2-x,-y,1/2+z
1/2+x,-y,1/2-z
1/2-x,y,1/2-z
1/2-x,-y,1/2-z
1/2+x,y,1/2-z
1/2-x,y,1/2+z
1/2+x,-y,1/2+z
1/2+x,1/2+y,z
1/2-x,1/2-y,z
1/2+x,1/2-y,-z
1/2-x,1/2+y,-z
1/2-x,1/2-y,-z
1/2+x,1/2+y,-z
1/2-x,1/2+y,z
1/2+x,1/2-y,z
loop_
_atom_site_type_symbol
_atom_site_label
_atom_site_fract_x
_atom_site_fract_y
_atom_site_fract_z
Si Si1 0.355229 0.935745 0.725990
Si Si2 0.603945 0.261472 0.084250
Si Si3 0.702595 0.378930 0.916040
Si Si4 0.101339 0.362029 0.139301
O O1 0.250000 0.938106 0.750000
O O2 0.359499 0.917885 0.639208
O O3 0.405489 0.887526 0.776941
O O4 0.401229 0.000000 0.735408
O O5 0.500000 0.287762 0.092347
O O6 0.679692 0.311180 0.101243
O O7 0.617749 0.207819 0.141367
O O8 0.619006 0.237495 0.000000
O O9 0.812906 0.391020 0.905022
O O10 0.674716 0.395820 0.000000
O O11 0.000000 0.374536 0.101339
#
# Coordination Sequence:
#
# PCOD8284795 Si02
#       4
#    32  32  32  32
#     4   9  20  38  55  74 106 148 191 231 271 321
#     4   9  18  33  54  83 118 150 182 225 278 337
#     4  10  20  35  58  86 115 147 184 229 281 336
#     4  10  20  34  56  84 114 149 185 226 281 338
#
# _framework density 21.592637
#
# number of rings (size 3 to 8) (size 9 to 14) (size 15 to 20)
#    0.000    2.500    0.000    1.500    0.000    6.500 
#    0.000    6.250    0.000    2.250    0.000   19.250 
#    0.000    0.000    0.000    0.000    0.000    0.000 
#
# Total GULP energy -396530.424416 kJ/mol
# GULP energy per Si atom -12391.575763 kJ/mol
# Density = 2.154349 g / cm^3
# Si number density = 21.592637 Si / 1000 Ang^3
#
#
#
# Elastic Constant Matrix: (Units=GPa)
#
#
# Indices 1 2 3 4 5 6 
#
# 1 86.5296 25.8113 21.4137 0.0000 0.0000 0.0000
# 2 25.8113 113.0494 73.0934 0.0000 0.0000 0.0000
# 3 21.4137 73.0934 126.0532 0.0000 0.0000 0.0000
# 4 0.0000 0.0000 0.0000 27.7832 0.0000 0.0000
# 5 0.0000 0.0000 0.0000 0.0000 19.5152 0.0000
# 6 0.0000 0.0000 0.0000 0.0000 0.0000 -4.4958
#
#
#
# Elastic Compliance Matrix: (Units=1/GPa)
#
#
# Indices 1 2 3 4 5 6 
#
# 1 0.012445 -0.002359 -0.000746 0.000000 0.000000 0.000000
# 2 -0.002359 0.014598 -0.008064 0.000000 0.000000 0.000000
# 3 -0.000746 -0.008064 0.012736 0.000000 0.000000 0.000000
# 4 0.000000 0.000000 0.000000 0.035993 0.000000 0.000000
# 5 0.000000 0.000000 0.000000 0.000000 0.051242 0.000000
# 6 0.000000 0.000000 0.000000 0.000000 0.000000 -0.222429
#
#
# Mechanical properties :
#
#
# Convention : Reuss Voigt Hill
#
# Bulk Modulus (GPa) = 57.33775 62.91877 60.12826
# Shear Modulus (GPa) = -74.33624 22.24811 -26.04406
#
# Velocity S-wave (km/s) = -5.87379 3.21340 -3.47674
# Velocity P-wave (km/s) = 4.40340 6.55516 3.43367
#
# Compressibility (1/GPa) = 0.01744052
#
# Stress axis : x y z
#
# Youngs Moduli (GPa) = 80.35309 68.50106 78.51698
#
# Poissons Ratio (x) = 0.16159 0.05860
# Poissons Ratio (y) = 0.18955 0.63318
# Poissons Ratio (z) = 0.05997 0.55241
#
# Static dielectric constant tensor:
#      x y z
#    x 4.007740 0.000000 0.000000 
#    y 0.000000 3.886240 0.000000 
#    z 0.000000 0.000000 3.859290 
# 
# 
# High freq. dielectric constant tensor:
#      x y z
#    x 1.856480 0.000000 0.000000 
#    y 0.000000 1.821970 0.000000 
#    z 0.000000 0.000000 1.826590 
# 
# From -- ./inp_files/22765.got.cif
#   From: 2010.03.12/outbox.cif.g09.slc.cpg/sg69_12_cif.got.tgz:22765.got - 2010.04.10 23:52:46.
