data_PCOD8284215
_publ_section_title
;
Structure prediction by ZEFSAII (Michael W. Deem and Ramdas Pophale) SiO2 
 PCOD8284215
Probable space group: F M M M
;
_chemical_formula_sum "Si O2"
_cell_formula_units_Z 160
_cell_length_a 25.494860
_cell_length_b 17.017838
_cell_length_c 20.452043
_cell_angle_alpha 90.000000
_cell_angle_beta 90.000000
_cell_angle_gamma 90.000000
_cell_volume 8873.474666
_symmetry_space_group_name_H-M "F M M M"
_symmetry_group_IT_number 69
_symmetry_cell_setting 'orthorhombic'
loop_
_space_group_symop_operation_xyz
x,y,z
-x,-y,z
x,-y,-z
-x,y,-z
-x,-y,-z
x,y,-z
-x,y,z
x,-y,z
x,1/2+y,1/2+z
-x,1/2-y,1/2+z
x,1/2-y,1/2-z
-x,1/2+y,1/2-z
-x,1/2-y,1/2-z
x,1/2+y,1/2-z
-x,1/2+y,1/2+z
x,1/2-y,1/2+z
1/2+x,y,1/2+z
1/2-x,-y,1/2+z
1/2+x,-y,1/2-z
1/2-x,y,1/2-z
1/2-x,-y,1/2-z
1/2+x,y,1/2-z
1/2-x,y,1/2+z
1/2+x,-y,1/2+z
1/2+x,1/2+y,z
1/2-x,1/2-y,z
1/2+x,1/2-y,-z
1/2-x,1/2+y,-z
1/2-x,1/2-y,-z
1/2+x,1/2+y,-z
1/2-x,1/2+y,z
1/2+x,1/2-y,z
loop_
_atom_site_type_symbol
_atom_site_label
_atom_site_fract_x
_atom_site_fract_y
_atom_site_fract_z
Si Si1 0.675348 0.089122 0.383524
Si Si2 0.645752 0.588212 0.735544
Si Si3 0.559816 0.195049 0.187491
Si Si4 0.778569 0.172494 0.355562
Si Si5 0.369758 0.253522 0.927013
O O1 0.647978 0.095556 0.313115
O O2 0.737498 0.108204 0.382307
O O3 0.646336 0.154236 0.427295
O O4 0.668406 0.000000 0.411110
O O5 0.654139 0.500000 0.711503
O O6 0.590324 0.615661 0.705853
O O7 0.692837 0.639952 0.708068
O O8 0.500000 0.173326 0.171883
O O9 0.565262 0.250000 0.250000
O O10 0.583663 0.237877 0.124027
O O11 0.750000 0.250000 0.330157
O O12 0.820134 0.197278 0.411488
O O13 0.389348 0.233112 0.000000
#
# Coordination Sequence:
#
# PCOD8284215 Si02
#       5
#    32  32  32  32  32
#     4  10  19  31  49  77 111 146 179 212 261 317
#     4  10  19  32  52  82 112 138 173 224 275 316
#     4  10  20  37  60  81 100 132 177 224 273 323
#     4   9  19  30  50  75 108 147 186 220 256 304
#     4  10  21  36  53  77 109 142 180 223 264 309
#
# _framework density 18.031268000000001
#
# number of rings (size 3 to 8) (size 9 to 14) (size 15 to 20)
#    0.000    2.200    2.000    1.200    0.000    8.800 
#    0.000    0.000    0.000   15.000    0.000    7.000 
#    0.000    0.000    0.000    0.000    0.000    0.000 
#
# Total GULP energy -495918.983803 kJ/mol
# GULP energy per Si atom -12397.974595 kJ/mol
# Density = 1.799023 g / cm^3
# Si number density = 18.031268 Si / 1000 Ang^3
#
#
#
# Elastic Constant Matrix: (Units=GPa)
#
#
# Indices 1 2 3 4 5 6 
#
# 1 114.2385 29.8574 39.0824 0.0000 0.0000 0.0000
# 2 29.8574 82.2728 29.6169 0.0000 0.0000 0.0000
# 3 39.0824 29.6169 94.0442 0.0000 0.0000 0.0000
# 4 0.0000 0.0000 0.0000 14.0773 0.0000 0.0000
# 5 0.0000 0.0000 0.0000 0.0000 8.5031 0.0000
# 6 0.0000 0.0000 0.0000 0.0000 0.0000 18.2216
#
#
#
# Elastic Compliance Matrix: (Units=1/GPa)
#
#
# Indices 1 2 3 4 5 6 
#
# 1 0.010664 -0.002566 -0.003624 0.000000 0.000000 0.000000
# 2 -0.002566 0.014326 -0.003445 0.000000 0.000000 0.000000
# 3 -0.003624 -0.003445 0.013224 0.000000 0.000000 0.000000
# 4 0.000000 0.000000 0.000000 0.071036 0.000000 0.000000
# 5 0.000000 0.000000 0.000000 0.000000 0.117604 0.000000
# 6 0.000000 0.000000 0.000000 0.000000 0.000000 0.054880
#
#
# Mechanical properties :
#
#
# Convention : Reuss Voigt Hill
#
# Bulk Modulus (GPa) = 52.78484 54.18542 53.48513
# Shear Modulus (GPa) = 16.26977 20.96033 18.61505
#
# Velocity S-wave (km/s) = 3.00710 3.41316 3.21655
# Velocity P-wave (km/s) = 6.43386 6.75640 6.59710
#
# Compressibility (1/GPa) = 0.01894483
#
# Stress axis : x y z
#
# Youngs Moduli (GPa) = 93.77477 69.80291 75.61848
#
# Poissons Ratio (x) = 0.17908 0.27402
# Poissons Ratio (y) = 0.24058 0.26054
# Poissons Ratio (z) = 0.33981 0.24050
#
# Static dielectric constant tensor:
#      x y z
#    x 3.346160 0.000000 0.000000 
#    y 0.000000 3.495920 0.000000 
#    z 0.000000 0.000000 3.070090 
# 
# 
# High freq. dielectric constant tensor:
#      x y z
#    x 1.685920 0.000000 0.000000 
#    y 0.000000 1.700750 0.000000 
#    z 0.000000 0.000000 1.682890 
# 
# From -- ./inp_files/18882.got.cif
#   From: 2010.03.12/outbox.cif.g09.slc.cpg/sg69_10_cif.got.tgz:18882.got - 2010.04.10 23:52:46.
