data_PCOD8284859
_publ_section_title
;
Structure prediction by ZEFSAII (Michael W. Deem and Ramdas Pophale) SiO2 
 PCOD8284859
Probable space group: F M M M
;
_chemical_formula_sum "Si O2"
_cell_formula_units_Z 112
_cell_length_a 14.030590
_cell_length_b 27.334754
_cell_length_c 14.479786
_cell_angle_alpha 90.000000
_cell_angle_beta 90.000000
_cell_angle_gamma 90.000000
_cell_volume 5553.327000
_symmetry_space_group_name_H-M "F M M M"
_symmetry_group_IT_number 69
_symmetry_cell_setting 'orthorhombic'
loop_
_space_group_symop_operation_xyz
x,y,z
-x,-y,z
x,-y,-z
-x,y,-z
-x,-y,-z
x,y,-z
-x,y,z
x,-y,z
x,1/2+y,1/2+z
-x,1/2-y,1/2+z
x,1/2-y,1/2-z
-x,1/2+y,1/2-z
-x,1/2-y,1/2-z
x,1/2+y,1/2-z
-x,1/2+y,1/2+z
x,1/2-y,1/2+z
1/2+x,y,1/2+z
1/2-x,-y,1/2+z
1/2+x,-y,1/2-z
1/2-x,y,1/2-z
1/2-x,-y,1/2-z
1/2+x,y,1/2-z
1/2-x,y,1/2+z
1/2+x,-y,1/2+z
1/2+x,1/2+y,z
1/2-x,1/2-y,z
1/2+x,1/2-y,-z
1/2-x,1/2+y,-z
1/2-x,1/2-y,-z
1/2+x,1/2+y,-z
1/2-x,1/2+y,z
1/2+x,1/2-y,z
loop_
_atom_site_type_symbol
_atom_site_label
_atom_site_fract_x
_atom_site_fract_y
_atom_site_fract_z
Si Si1 0.766123 0.345379 0.396851
Si Si2 0.500000 0.057152 0.898018
Si Si3 0.108953 0.307528 0.239510
Si Si4 0.294038 0.945639 0.849951
O O1 0.775328 0.322948 0.500000
O O2 0.857802 0.331873 0.335689
O O3 0.671460 0.325227 0.346945
O O4 0.760789 0.404419 0.408141
O O5 0.595269 0.071508 0.842077
O O6 0.500000 0.000000 0.913034
O O7 0.500000 0.082271 0.000000
O O8 0.121794 0.250000 0.250000
O O9 0.000000 0.322446 0.220229
O O10 0.250000 0.946632 0.750000
O O11 0.284667 0.000000 0.895718
#
# Coordination Sequence:
#
# PCOD8284859 Si02
#       4
#    32  16  32  32
#     4  11  22  37  61  90 119 151 193 241 288 346
#     4   9  18  32  52  80 110 145 193 241 280 324
#     4  10  23  43  62  84 117 152 191 242 297 352
#     4  10  20  35  55  84 121 158 193 237 288 338
#
# _framework density 20.168091
#
# number of rings (size 3 to 8) (size 9 to 14) (size 15 to 20)
#    0.000    1.857    2.857    2.571    2.000    5.143 
#    0.000    2.857    0.000    0.000    0.000    2.000 
#    0.000    0.000    0.000    0.000    0.000    0.000 
#
# Total GULP energy -347004.585048 kJ/mol
# GULP energy per Si atom -12393.020895 kJ/mol
# Density = 2.012219 g / cm^3
# Si number density = 20.168091 Si / 1000 Ang^3
#
#
#
# Elastic Constant Matrix: (Units=GPa)
#
#
# Indices 1 2 3 4 5 6 
#
# 1 101.0430 18.3508 37.1539 0.0000 0.0000 0.0000
# 2 18.3508 84.9718 4.0215 0.0000 0.0000 0.0000
# 3 37.1539 4.0215 127.1316 0.0000 0.0000 0.0000
# 4 0.0000 0.0000 0.0000 35.4520 0.0000 0.0000
# 5 0.0000 0.0000 0.0000 0.0000 -20.7021 0.0000
# 6 0.0000 0.0000 0.0000 0.0000 0.0000 11.8322
#
#
#
# Elastic Compliance Matrix: (Units=1/GPa)
#
#
# Indices 1 2 3 4 5 6 
#
# 1 0.011533 -0.002335 -0.003297 0.000000 0.000000 0.000000
# 2 -0.002335 0.012259 0.000295 0.000000 0.000000 0.000000
# 3 -0.003297 0.000295 0.008820 0.000000 0.000000 0.000000
# 4 0.000000 0.000000 0.000000 0.028207 0.000000 0.000000
# 5 0.000000 0.000000 0.000000 0.000000 -0.048304 0.000000
# 6 0.000000 0.000000 0.000000 0.000000 0.000000 0.084515
#
#
# Mechanical properties :
#
#
# Convention : Reuss Voigt Hill
#
# Bulk Modulus (GPa) = 45.58250 48.02211 46.80231
# Shear Modulus (GPa) = 43.47225 22.22443 32.84834
#
# Velocity S-wave (km/s) = 4.64777 3.32318 4.04013
# Velocity P-wave (km/s) = 7.17305 6.21187 6.70970
#
# Compressibility (1/GPa) = 0.02193825
#
# Stress axis : x y z
#
# Youngs Moduli (GPa) = 86.70793 81.57354 113.37894
#
# Poissons Ratio (x) = 0.19045 0.37377
# Poissons Ratio (y) = 0.20244 -0.03339
# Poissons Ratio (z) = 0.28584 -0.02403
#
# Static dielectric constant tensor:
#      x y z
#    x 3.886120 0.000000 0.000000 
#    y 0.000000 4.183660 0.000000 
#    z 0.000000 0.000000 3.406400 
# 
# 
# High freq. dielectric constant tensor:
#      x y z
#    x 1.780770 0.000000 0.000000 
#    y 0.000000 1.801850 0.000000 
#    z 0.000000 0.000000 1.773650 
# 
# From -- ./inp_files/14240.got.cif
#   From: 2010.03.12/outbox.cif.g09.slc.cpg/sg69_8_cif.got.tgz:14240.got - 2010.04.10 23:52:46.
