data_PCOD8284379
_publ_section_title
;
Structure prediction by ZEFSAII (Michael W. Deem and Ramdas Pophale) SiO2 
 PCOD8284379
Probable space group: F M M M
;
_chemical_formula_sum "Si O2"
_cell_formula_units_Z 144
_cell_length_a 27.118166
_cell_length_b 8.949433
_cell_length_c 32.124758
_cell_angle_alpha 90.000000
_cell_angle_beta 90.000000
_cell_angle_gamma 90.000000
_cell_volume 7796.428505
_symmetry_space_group_name_H-M "F M M M"
_symmetry_group_IT_number 69
_symmetry_cell_setting 'orthorhombic'
loop_
_space_group_symop_operation_xyz
x,y,z
-x,-y,z
x,-y,-z
-x,y,-z
-x,-y,-z
x,y,-z
-x,y,z
x,-y,z
x,1/2+y,1/2+z
-x,1/2-y,1/2+z
x,1/2-y,1/2-z
-x,1/2+y,1/2-z
-x,1/2-y,1/2-z
x,1/2+y,1/2-z
-x,1/2+y,1/2+z
x,1/2-y,1/2+z
1/2+x,y,1/2+z
1/2-x,-y,1/2+z
1/2+x,-y,1/2-z
1/2-x,y,1/2-z
1/2-x,-y,1/2-z
1/2+x,y,1/2-z
1/2-x,y,1/2+z
1/2+x,-y,1/2+z
1/2+x,1/2+y,z
1/2-x,1/2-y,z
1/2+x,1/2-y,-z
1/2-x,1/2+y,-z
1/2-x,1/2-y,-z
1/2+x,1/2+y,-z
1/2-x,1/2+y,z
1/2+x,1/2-y,z
loop_
_atom_site_type_symbol
_atom_site_label
_atom_site_fract_x
_atom_site_fract_y
_atom_site_fract_z
Si Si1 0.555247 0.176988 0.500000
Si Si2 0.850673 0.672770 0.792246
Si Si3 0.944392 0.327402 0.840978
Si Si4 0.198415 0.677135 0.877358
Si Si5 0.894141 0.823084 0.084593
O O1 0.500000 0.245699 0.500000
O O2 0.584718 0.231678 0.540500
O O3 0.551220 0.000000 0.500000
O O4 0.844441 0.500000 0.783900
O O5 0.833535 0.750000 0.750000
O O6 0.907319 0.714591 0.803470
O O7 0.815860 0.724248 0.830267
O O8 0.935508 0.500000 0.854003
O O9 0.933708 0.224434 0.880629
O O10 0.000000 0.299189 0.825428
O O11 0.201075 0.500000 0.882364
O O12 0.250000 0.750000 0.889515
O O13 0.157789 0.740863 0.908887
O O14 0.886115 0.000000 0.086492
#
# Coordination Sequence:
#
# PCOD8284379 Si02
#       5
#    16  32  32  32  32
#     4   9  18  32  52  81 114 141 168 207 250 293
#     4   9  19  33  49  72 102 133 168 212 257 304
#     4   9  18  33  50  70 102 141 176 213 257 302
#     4  10  21  38  57  77 102 133 170 212 259 307
#     4  10  19  33  54  79 106 136 172 212 255 304
#
# _framework density 18.469995000000001
#
# number of rings (size 3 to 8) (size 9 to 14) (size 15 to 20)
#    0.000    2.556    0.000    3.333    0.000    6.667 
#    0.000    5.000    0.000    4.000    0.000    0.000 
#    0.000    0.000    0.000    0.000    0.000    0.000 
#
# Total GULP energy -446403.129390 kJ/mol
# GULP energy per Si atom -12400.086928 kJ/mol
# Density = 1.842796 g / cm^3
# Si number density = 18.469995 Si / 1000 Ang^3
#
#
#
# Elastic Constant Matrix: (Units=GPa)
#
#
# Indices 1 2 3 4 5 6 
#
# 1 128.8443 37.7976 41.3864 0.0000 0.0000 0.0000
# 2 37.7976 59.5036 33.7949 0.0000 0.0000 0.0000
# 3 41.3864 33.7949 108.5837 0.0000 0.0000 0.0000
# 4 0.0000 0.0000 0.0000 26.5383 0.0000 0.0000
# 5 0.0000 0.0000 0.0000 0.0000 15.7609 0.0000
# 6 0.0000 0.0000 0.0000 0.0000 0.0000 28.1607
#
#
#
# Elastic Compliance Matrix: (Units=1/GPa)
#
#
# Indices 1 2 3 4 5 6 
#
# 1 0.009961 -0.005067 -0.002220 0.000000 0.000000 0.000000
# 2 -0.005067 0.022991 -0.005225 0.000000 0.000000 0.000000
# 3 -0.002220 -0.005225 0.011682 0.000000 0.000000 0.000000
# 4 0.000000 0.000000 0.000000 0.037681 0.000000 0.000000
# 5 0.000000 0.000000 0.000000 0.000000 0.063448 0.000000
# 6 0.000000 0.000000 0.000000 0.000000 0.000000 0.035510
#
#
# Mechanical properties :
#
#
# Convention : Reuss Voigt Hill
#
# Bulk Modulus (GPa) = 50.98896 58.09883 54.54390
# Shear Modulus (GPa) = 23.49270 26.35550 24.92410
#
# Velocity S-wave (km/s) = 3.57029 3.78158 3.67745
# Velocity P-wave (km/s) = 6.68299 7.11275 6.90121
#
# Compressibility (1/GPa) = 0.01961209
#
# Stress axis : x y z
#
# Youngs Moduli (GPa) = 100.39593 43.49469 85.60518
#
# Poissons Ratio (x) = 0.22037 0.19001
# Poissons Ratio (y) = 0.50866 0.44725
# Poissons Ratio (z) = 0.22284 0.22724
#
# Static dielectric constant tensor:
#      x y z
#    x 3.481720 0.000000 0.000000 
#    y 0.000000 3.287170 0.000000 
#    z 0.000000 0.000000 3.337830 
# 
# 
# High freq. dielectric constant tensor:
#      x y z
#    x 1.723220 0.000000 0.000000 
#    y 0.000000 1.710360 0.000000 
#    z 0.000000 0.000000 1.703000 
# 
# From -- ./inp_files/5556.got.cif
#   From: 2010.03.12/outbox.cif.g09.slc.cpg/sg69_3_cif.got.tgz:5556.got - 2010.04.10 23:52:46.
