data_PCOD8284103
_publ_section_title
;
Structure prediction by ZEFSAII (Michael W. Deem and Ramdas Pophale) SiO2 
 PCOD8284103
Probable space group: F M M M
;
_chemical_formula_sum "Si O2"
_cell_formula_units_Z 192
_cell_length_a 17.633342
_cell_length_b 18.212425
_cell_length_c 30.316207
_cell_angle_alpha 90.000000
_cell_angle_beta 90.000000
_cell_angle_gamma 90.000000
_cell_volume 9735.926148
_symmetry_space_group_name_H-M "F M M M"
_symmetry_group_IT_number 69
_symmetry_cell_setting 'orthorhombic'
loop_
_space_group_symop_operation_xyz
x,y,z
-x,-y,z
x,-y,-z
-x,y,-z
-x,-y,-z
x,y,-z
-x,y,z
x,-y,z
x,1/2+y,1/2+z
-x,1/2-y,1/2+z
x,1/2-y,1/2-z
-x,1/2+y,1/2-z
-x,1/2-y,1/2-z
x,1/2+y,1/2-z
-x,1/2+y,1/2+z
x,1/2-y,1/2+z
1/2+x,y,1/2+z
1/2-x,-y,1/2+z
1/2+x,-y,1/2-z
1/2-x,y,1/2-z
1/2-x,-y,1/2-z
1/2+x,y,1/2-z
1/2-x,y,1/2+z
1/2+x,-y,1/2+z
1/2+x,1/2+y,z
1/2-x,1/2-y,z
1/2+x,1/2-y,-z
1/2-x,1/2+y,-z
1/2-x,1/2-y,-z
1/2+x,1/2+y,-z
1/2-x,1/2+y,z
1/2+x,1/2-y,z
loop_
_atom_site_type_symbol
_atom_site_label
_atom_site_fract_x
_atom_site_fract_y
_atom_site_fract_z
Si Si1 0.662221 0.417489 0.909466
Si Si2 0.586617 0.148415 0.328060
Si Si3 0.163651 0.584806 0.246596
Si Si4 0.088754 0.621278 0.500000
Si Si5 0.411913 0.317141 0.672342
Si Si6 0.337027 0.774204 0.000000
Si Si7 0.197634 0.178242 0.409001
O O1 0.658718 0.500000 0.890940
O O2 0.617080 0.362661 0.877444
O O3 0.749437 0.393036 0.911295
O O4 0.625557 0.415684 0.957495
O O5 0.500000 0.124947 0.327276
O O6 0.629765 0.094823 0.295042
O O7 0.598172 0.232578 0.313623
O O8 0.158559 0.500000 0.232143
O O9 0.250000 0.611861 0.250000
O O10 0.117115 0.633038 0.212092
O O11 0.104427 0.707598 0.500000
O O12 0.000000 0.605553 0.500000
O O13 0.500000 0.334908 0.662744
O O14 0.363110 0.333854 0.629185
O O15 0.250000 0.750000 0.000000
O O16 0.349739 0.818966 0.045155
O O17 0.250000 0.250000 0.401199
#
# Coordination Sequence:
#
# PCOD8284103 Si02
#       7
#    32  32  32  16  32  16  32
#     4  12  24  38  60  92 126 165 207 248 307 381
#     4  11  23  40  60  86 120 161 202 245 306 379
#     4  11  25  42  62  88 119 158 207 260 318 377
#     4  12  23  37  60  94 132 166 203 252 315 378
#     4  11  24  40  63  94 123 158 209 261 314 373
#     4  10  18  38  64  87 117 165 214 247 295 358
#     4  11  20  40  66  86 121 168 206 254 301 363
#
# _framework density 19.720773999999999
#
# number of rings (size 3 to 8) (size 9 to 14) (size 15 to 20)
#    0.000    0.833    5.000    3.250    0.000    9.667 
#    0.000    0.000    0.000    0.000    0.000    0.000 
#    0.000    4.667    0.000    0.000    0.000    0.000 
#
# Total GULP energy -595390.379682 kJ/mol
# GULP energy per Si atom -12403.966243 kJ/mol
# Density = 1.967589 g / cm^3
# Si number density = 19.720774 Si / 1000 Ang^3
#
#
#
# Elastic Constant Matrix: (Units=GPa)
#
#
# Indices 1 2 3 4 5 6 
#
# 1 115.5768 46.0436 47.3994 0.0000 0.0000 0.0000
# 2 46.0436 84.7501 28.8864 0.0000 0.0000 0.0000
# 3 47.3994 28.8864 125.8061 0.0000 0.0000 0.0000
# 4 0.0000 0.0000 0.0000 40.0701 0.0000 0.0000
# 5 0.0000 0.0000 0.0000 0.0000 19.7240 0.0000
# 6 0.0000 0.0000 0.0000 0.0000 0.0000 16.3443
#
#
#
# Elastic Compliance Matrix: (Units=1/GPa)
#
#
# Indices 1 2 3 4 5 6 
#
# 1 0.012211 -0.005496 -0.003339 0.000000 0.000000 0.000000
# 2 -0.005496 0.015275 -0.001437 0.000000 0.000000 0.000000
# 3 -0.003339 -0.001437 0.009537 0.000000 0.000000 0.000000
# 4 0.000000 0.000000 0.000000 0.024956 0.000000 0.000000
# 5 0.000000 0.000000 0.000000 0.000000 0.050700 0.000000
# 6 0.000000 0.000000 0.000000 0.000000 0.000000 0.061183
#
#
# Mechanical properties :
#
#
# Convention : Reuss Voigt Hill
#
# Bulk Modulus (GPa) = 60.68054 63.42130 62.05092
# Shear Modulus (GPa) = 25.01280 28.81461 26.91371
#
# Velocity S-wave (km/s) = 3.56525 3.82662 3.69824
# Velocity P-wave (km/s) = 6.91265 7.19399 7.05472
#
# Compressibility (1/GPa) = 0.01647975
#
# Stress axis : x y z
#
# Youngs Moduli (GPa) = 81.89306 65.46645 104.86018
#
# Poissons Ratio (x) = 0.35981 0.35010
# Poissons Ratio (y) = 0.45009 0.15064
# Poissons Ratio (z) = 0.27342 0.09405
#
# Static dielectric constant tensor:
#      x y z
#    x 3.646010 0.000000 0.000000 
#    y 0.000000 3.498730 0.000000 
#    z 0.000000 0.000000 3.963980 
# 
# 
# High freq. dielectric constant tensor:
#      x y z
#    x 1.769580 0.000000 0.000000 
#    y 0.000000 1.759070 0.000000 
#    z 0.000000 0.000000 1.785400 
# 
# From -- ./inp_files/23684.got.cif
#   From: 2010.03.12/outbox.cif.g09.slc.cpg/sg69_12_cif.got.tgz:23684.got - 2010.04.10 23:52:46.
