data_PCOD8284625
_publ_section_title
;
Structure prediction by ZEFSAII (Michael W. Deem and Ramdas Pophale) SiO2 
 PCOD8284625
Probable space group: F M M M
;
_chemical_formula_sum "Si O2"
_cell_formula_units_Z 144
_cell_length_a 9.682406
_cell_length_b 28.671467
_cell_length_c 30.517730
_cell_angle_alpha 90.000000
_cell_angle_beta 90.000000
_cell_angle_gamma 90.000000
_cell_volume 8471.989919
_symmetry_space_group_name_H-M "F M M M"
_symmetry_group_IT_number 69
_symmetry_cell_setting 'orthorhombic'
loop_
_space_group_symop_operation_xyz
x,y,z
-x,-y,z
x,-y,-z
-x,y,-z
-x,-y,-z
x,y,-z
-x,y,z
x,-y,z
x,1/2+y,1/2+z
-x,1/2-y,1/2+z
x,1/2-y,1/2-z
-x,1/2+y,1/2-z
-x,1/2-y,1/2-z
x,1/2+y,1/2-z
-x,1/2+y,1/2+z
x,1/2-y,1/2+z
1/2+x,y,1/2+z
1/2-x,-y,1/2+z
1/2+x,-y,1/2-z
1/2-x,y,1/2-z
1/2-x,-y,1/2-z
1/2+x,y,1/2-z
1/2-x,y,1/2+z
1/2+x,-y,1/2+z
1/2+x,1/2+y,z
1/2-x,1/2-y,z
1/2+x,1/2-y,-z
1/2-x,1/2+y,-z
1/2-x,1/2-y,-z
1/2+x,1/2+y,-z
1/2-x,1/2+y,z
1/2+x,1/2-y,z
loop_
_atom_site_type_symbol
_atom_site_label
_atom_site_fract_x
_atom_site_fract_y
_atom_site_fract_z
Si Si1 0.840725 0.445761 0.449786
Si Si2 0.338203 0.394330 0.378348
Si Si3 0.153647 0.706980 0.000000
Si Si4 0.340621 0.554184 0.709251
Si Si5 0.342268 0.295484 0.595312
O O1 0.806446 0.432516 0.500000
O O2 0.810240 0.500000 0.441621
O O3 0.744847 0.415851 0.418425
O O4 0.000000 0.434354 0.439405
O O5 0.500000 0.403018 0.387391
O O6 0.290548 0.417793 0.333237
O O7 0.306153 0.338876 0.373200
O O8 0.250000 0.750000 0.000000
O O9 0.180275 0.681296 0.953614
O O10 0.000000 0.727126 0.000000
O O11 0.500000 0.564234 0.720260
O O12 0.314191 0.500000 0.699569
O O13 0.250000 0.571671 0.750000
O O14 0.500000 0.279133 0.601768
O O15 0.250000 0.250000 0.605024
#
# Coordination Sequence:
#
# PCOD8284625 Si02
#       5
#    32  32  16  32  32
#     4   9  19  34  48  67 100 137 169 200 237 289
#     4  10  20  32  51  76 100 127 164 209 251 295
#     4   8  14  26  42  60  85 118 155 193 234 275
#     4   9  18  33  52  75 101 126 156 198 248 299
#     4   9  18  31  47  68  96 128 163 205 247 288
#
# _framework density 16.997187
#
# number of rings (size 3 to 8) (size 9 to 14) (size 15 to 20)
#    0.000    2.889    0.000    1.333    1.556    3.556 
#    0.000    3.333    0.000    0.667    0.000    4.667 
#    0.000    0.000    0.000    0.000    0.000    0.000 
#
# Total GULP energy -446089.975529 kJ/mol
# GULP energy per Si atom -12391.388209 kJ/mol
# Density = 1.695850 g / cm^3
# Si number density = 16.997187 Si / 1000 Ang^3
#
#
#
# Elastic Constant Matrix: (Units=GPa)
#
#
# Indices 1 2 3 4 5 6 
#
# 1 70.2240 51.1983 57.9341 0.0000 0.0000 0.0000
# 2 51.1983 92.0117 66.5575 0.0000 0.0000 0.0000
# 3 57.9341 66.5575 104.1928 0.0000 0.0000 0.0000
# 4 0.0000 0.0000 0.0000 16.1756 0.0000 0.0000
# 5 0.0000 0.0000 0.0000 0.0000 28.9701 0.0000
# 6 0.0000 0.0000 0.0000 0.0000 0.0000 25.4687
#
#
#
# Elastic Compliance Matrix: (Units=1/GPa)
#
#
# Indices 1 2 3 4 5 6 
#
# 1 0.029462 -0.008447 -0.010986 0.000000 0.000000 0.000000
# 2 -0.008447 0.022626 -0.009756 0.000000 0.000000 0.000000
# 3 -0.010986 -0.009756 0.021938 0.000000 0.000000 0.000000
# 4 0.000000 0.000000 0.000000 0.061821 0.000000 0.000000
# 5 0.000000 0.000000 0.000000 0.000000 0.034518 0.000000
# 6 0.000000 0.000000 0.000000 0.000000 0.000000 0.039264
#
#
# Mechanical properties :
#
#
# Convention : Reuss Voigt Hill
#
# Bulk Modulus (GPa) = 63.90736 68.64537 66.27636
# Shear Modulus (GPa) = 18.30009 20.17213 19.23611
#
# Velocity S-wave (km/s) = 3.28480 3.44872 3.36776
# Velocity P-wave (km/s) = 7.21574 7.50548 7.36204
#
# Compressibility (1/GPa) = 0.01564765
#
# Stress axis : x y z
#
# Youngs Moduli (GPa) = 33.94257 44.19758 45.58240
#
# Poissons Ratio (x) = 0.37333 0.50075
# Poissons Ratio (y) = 0.28670 0.44472
# Poissons Ratio (z) = 0.37288 0.43121
#
# Static dielectric constant tensor:
#      x y z
#    x 3.179010 0.000000 0.000000 
#    y 0.000000 2.970420 0.000000 
#    z 0.000000 0.000000 2.870890 
# 
# 
# High freq. dielectric constant tensor:
#      x y z
#    x 1.658060 0.000000 0.000000 
#    y 0.000000 1.643160 0.000000 
#    z 0.000000 0.000000 1.642290 
# 
# From -- ./inp_files/5538.got.cif
#   From: 2010.03.12/outbox.cif.g09.slc.cpg/sg69_3_cif.got.tgz:5538.got - 2010.04.10 23:52:46.
