data_PCOD8284059
_publ_section_title
;
Structure prediction by ZEFSAII (Michael W. Deem and Ramdas Pophale) SiO2 
 PCOD8284059
Probable space group: F M M M
;
_chemical_formula_sum "Si O2"
_cell_formula_units_Z 208
_cell_length_a 30.352557
_cell_length_b 17.079535
_cell_length_c 20.462203
_cell_angle_alpha 90.000000
_cell_angle_beta 90.000000
_cell_angle_gamma 90.000000
_cell_volume 10607.760722
_symmetry_space_group_name_H-M "F M M M"
_symmetry_group_IT_number 69
_symmetry_cell_setting 'orthorhombic'
loop_
_space_group_symop_operation_xyz
x,y,z
-x,-y,z
x,-y,-z
-x,y,-z
-x,-y,-z
x,y,-z
-x,y,z
x,-y,z
x,1/2+y,1/2+z
-x,1/2-y,1/2+z
x,1/2-y,1/2-z
-x,1/2+y,1/2-z
-x,1/2-y,1/2-z
x,1/2+y,1/2-z
-x,1/2+y,1/2+z
x,1/2-y,1/2+z
1/2+x,y,1/2+z
1/2-x,-y,1/2+z
1/2+x,-y,1/2-z
1/2-x,y,1/2-z
1/2-x,-y,1/2-z
1/2+x,y,1/2-z
1/2-x,y,1/2+z
1/2+x,-y,1/2+z
1/2+x,1/2+y,z
1/2-x,1/2-y,z
1/2+x,1/2-y,-z
1/2-x,1/2+y,-z
1/2-x,1/2-y,-z
1/2+x,1/2+y,-z
1/2-x,1/2+y,z
1/2+x,1/2-y,z
loop_
_atom_site_type_symbol
_atom_site_label
_atom_site_fract_x
_atom_site_fract_y
_atom_site_fract_z
Si Si1 0.817456 0.694122 0.313740
Si Si2 0.377311 0.259812 0.573689
Si Si3 0.391746 0.089193 0.736256
Si Si4 0.144777 0.087177 0.626649
Si Si5 0.551811 0.839552 0.361942
Si Si6 0.757274 0.914128 0.326682
Si Si7 0.552259 0.000000 0.427892
O O1 0.809389 0.750000 0.250000
O O2 0.840748 0.737174 0.373500
O O3 0.845660 0.618567 0.293090
O O4 0.773221 0.659155 0.347235
O O5 0.368881 0.228206 0.500000
O O6 0.373684 0.354229 0.571529
O O7 0.425092 0.231020 0.598958
O O8 0.390045 0.093196 0.814141
O O9 0.430520 0.149017 0.712299
O O10 0.400265 0.000000 0.713064
O O11 0.193264 0.109227 0.653642
O O12 0.145020 0.000000 0.596794
O O13 0.500000 0.824452 0.363330
O O14 0.568262 0.920647 0.394104
O O15 0.750000 0.920779 0.250000
O O16 0.745504 0.000000 0.357525
O O17 0.500000 0.000000 0.429177
O O18 0.572569 0.000000 0.500000
#
# Coordination Sequence:
#
# PCOD8284059 Si02
#       7
#    32  32  32  32  32  32  16
#     4  11  20  34  56  86 119 154 193 240 293 345
#     4  11  24  40  58  84 118 156 196 244 297 345
#     4  10  18  33  56  83 116 148 184 235 285 337
#     4  10  21  38  59  83 114 152 197 244 293 346
#     4  10  21  36  59  87 116 152 190 232 289 356
#     4  10  18  32  57  86 114 152 198 244 289 343
#     4   9  16  30  52  80 112 147 185 217 261 344
#
# _framework density 19.608284999999999
#
# number of rings (size 3 to 8) (size 9 to 14) (size 15 to 20)
#    0.000    1.769    3.846    0.923    0.000    3.385 
#    0.000    3.077    0.000    2.308    0.000    1.077 
#    0.000    0.000    0.000    0.000    0.000    0.000 
#
# Total GULP energy -644252.191255 kJ/mol
# GULP energy per Si atom -12389.465216 kJ/mol
# Density = 1.956366 g / cm^3
# Si number density = 19.608285 Si / 1000 Ang^3
#
#
#
# Elastic Constant Matrix: (Units=GPa)
#
#
# Indices 1 2 3 4 5 6 
#
# 1 99.6541 60.3570 34.5754 0.0000 0.0000 0.0000
# 2 60.3570 100.7215 27.7388 0.0000 0.0000 0.0000
# 3 34.5754 27.7388 65.9026 0.0000 0.0000 0.0000
# 4 0.0000 0.0000 0.0000 20.7558 0.0000 0.0000
# 5 0.0000 0.0000 0.0000 0.0000 10.9089 0.0000
# 6 0.0000 0.0000 0.0000 0.0000 0.0000 19.6449
#
#
#
# Elastic Compliance Matrix: (Units=1/GPa)
#
#
# Indices 1 2 3 4 5 6 
#
# 1 0.017255 -0.008876 -0.005317 0.000000 0.000000 0.000000
# 2 -0.008876 0.015796 -0.001992 0.000000 0.000000 0.000000
# 3 -0.005317 -0.001992 0.018802 0.000000 0.000000 0.000000
# 4 0.000000 0.000000 0.000000 0.048179 0.000000 0.000000
# 5 0.000000 0.000000 0.000000 0.000000 0.091668 0.000000
# 6 0.000000 0.000000 0.000000 0.000000 0.000000 0.050904
#
#
# Mechanical properties :
#
#
# Convention : Reuss Voigt Hill
#
# Bulk Modulus (GPa) = 51.32561 56.84672 54.08617
# Shear Modulus (GPa) = 17.76402 19.83573 18.79987
#
# Velocity S-wave (km/s) = 3.01316 3.18402 3.09976
# Velocity P-wave (km/s) = 6.19175 6.52468 6.36039
#
# Compressibility (1/GPa) = 0.01948345
#
# Stress axis : x y z
#
# Youngs Moduli (GPa) = 57.95351 63.30817 53.18642
#
# Poissons Ratio (x) = 0.56191 0.28279
# Poissons Ratio (y) = 0.51439 0.10594
# Poissons Ratio (z) = 0.30813 0.12610
#
# Static dielectric constant tensor:
#      x y z
#    x 3.477010 0.000000 0.000000 
#    y 0.000000 3.997650 0.000000 
#    z 0.000000 0.000000 3.316410 
# 
# 
# High freq. dielectric constant tensor:
#      x y z
#    x 1.745680 0.000000 0.000000 
#    y 0.000000 1.781920 0.000000 
#    z 0.000000 0.000000 1.729800 
# 
# From -- ./inp_files/33976.got.cif
#   From: 2010.03.12/outbox.cif.g09.slc.cpg/sg69_17_cif.got.tgz:33976.got - 2010.04.10 23:52:46.
