data_PCOD8284582
_publ_section_title
;
Structure prediction by ZEFSAII (Michael W. Deem and Ramdas Pophale) SiO2 
 PCOD8284582
Probable space group: F M M M
;
_chemical_formula_sum "Si O2"
_cell_formula_units_Z 176
_cell_length_a 26.201458
_cell_length_b 28.663570
_cell_length_c 13.871854
_cell_angle_alpha 90.000000
_cell_angle_beta 90.000000
_cell_angle_gamma 90.000000
_cell_volume 10418.141409
_symmetry_space_group_name_H-M "F M M M"
_symmetry_group_IT_number 69
_symmetry_cell_setting 'orthorhombic'
loop_
_space_group_symop_operation_xyz
x,y,z
-x,-y,z
x,-y,-z
-x,y,-z
-x,-y,-z
x,y,-z
-x,y,z
x,-y,z
x,1/2+y,1/2+z
-x,1/2-y,1/2+z
x,1/2-y,1/2-z
-x,1/2+y,1/2-z
-x,1/2-y,1/2-z
x,1/2+y,1/2-z
-x,1/2+y,1/2+z
x,1/2-y,1/2+z
1/2+x,y,1/2+z
1/2-x,-y,1/2+z
1/2+x,-y,1/2-z
1/2-x,y,1/2-z
1/2-x,-y,1/2-z
1/2+x,y,1/2-z
1/2-x,y,1/2+z
1/2+x,-y,1/2+z
1/2+x,1/2+y,z
1/2-x,1/2-y,z
1/2+x,1/2-y,-z
1/2-x,1/2+y,-z
1/2-x,1/2-y,-z
1/2+x,1/2+y,-z
1/2-x,1/2+y,z
1/2+x,1/2-y,z
loop_
_atom_site_type_symbol
_atom_site_label
_atom_site_fract_x
_atom_site_fract_y
_atom_site_fract_z
Si Si1 0.000000 0.607326 0.111783
Si Si2 0.787427 0.051373 0.388012
Si Si3 0.146159 0.320992 0.233563
Si Si4 0.500000 0.288497 0.613627
Si Si5 0.391056 0.904715 0.888455
Si Si6 0.606262 0.757800 0.385933
Si Si7 0.250000 0.872577 0.750000
O O1 0.948711 0.577477 0.136266
O O2 0.000000 0.659320 0.159914
O O3 0.000000 0.618156 0.000000
O O4 0.775768 0.055016 0.500000
O O5 0.848205 0.056639 0.366710
O O6 0.754948 0.092799 0.341101
O O7 0.771593 0.000000 0.349320
O O8 0.115246 0.361043 0.180586
O O9 0.148378 0.278067 0.157452
O O10 0.117005 0.307003 0.332612
O O11 0.202190 0.338713 0.261866
O O12 0.500000 0.291940 0.500000
O O13 0.550315 0.260164 0.645809
O O14 0.386829 0.888292 0.000000
O O15 0.613098 0.763792 0.500000
#
# Coordination Sequence:
#
# PCOD8284582 Si02
#       7
#    16  32  32  16  32  32  16
#     4   9  14  23  44  69  93 122 150 179 220 265
#     4   9  18  33  53  72  90 116 147 182 229 279
#     4  10  20  31  46  64  87 123 159 191 231 264
#     4   9  16  28  46  65  89 121 155 189 221 255
#     4   9  16  28  46  70  96 118 148 185 221 271
#     4  10  20  32  45  65  93 121 157 195 222 260
#     4  10  21  35  48  68  92 116 152 195 229 268
#
# _framework density 16.893608
#
# number of rings (size 3 to 8) (size 9 to 14) (size 15 to 20)
#    0.000    2.545    1.818    0.818    0.000    5.091 
#    0.000    1.364    0.000    2.727    0.000    0.000 
#    0.000    0.000    0.000    0.000    0.000  100.364 
#
# Total GULP energy -545089.301533 kJ/mol
# GULP energy per Si atom -12388.393217 kJ/mol
# Density = 1.685516 g / cm^3
# Si number density = 16.893608 Si / 1000 Ang^3
#
#
#
# Elastic Constant Matrix: (Units=GPa)
#
#
# Indices 1 2 3 4 5 6 
#
# 1 103.7137 31.1896 26.2479 0.0000 0.0000 0.0000
# 2 31.1896 62.7141 30.2613 0.0000 0.0000 0.0000
# 3 26.2479 30.2613 79.8225 0.0000 0.0000 0.0000
# 4 0.0000 0.0000 0.0000 23.2273 0.0000 0.0000
# 5 0.0000 0.0000 0.0000 0.0000 19.6448 0.0000
# 6 0.0000 0.0000 0.0000 0.0000 0.0000 8.0976
#
#
#
# Elastic Compliance Matrix: (Units=1/GPa)
#
#
# Indices 1 2 3 4 5 6 
#
# 1 0.011590 -0.004804 -0.001990 0.000000 0.000000 0.000000
# 2 -0.004804 0.021506 -0.006574 0.000000 0.000000 0.000000
# 3 -0.001990 -0.006574 0.015674 0.000000 0.000000 0.000000
# 4 0.000000 0.000000 0.000000 0.043053 0.000000 0.000000
# 5 0.000000 0.000000 0.000000 0.000000 0.050904 0.000000
# 6 0.000000 0.000000 0.000000 0.000000 0.000000 0.123493
#
#
# Mechanical properties :
#
#
# Convention : Reuss Voigt Hill
#
# Bulk Modulus (GPa) = 45.38045 46.84976 46.11510
# Shear Modulus (GPa) = 16.64995 20.76405 18.70700
#
# Velocity S-wave (km/s) = 3.14280 3.50967 3.33128
# Velocity P-wave (km/s) = 6.33170 6.64952 6.49255
#
# Compressibility (1/GPa) = 0.02203592
#
# Stress axis : x y z
#
# Youngs Moduli (GPa) = 86.27952 46.49762 63.79893
#
# Poissons Ratio (x) = 0.22337 0.12696
# Poissons Ratio (y) = 0.41448 0.41939
# Poissons Ratio (z) = 0.17169 0.30566
#
# Static dielectric constant tensor:
#      x y z
#    x 3.402400 0.000000 0.000000 
#    y 0.000000 3.145520 0.000000 
#    z 0.000000 0.000000 3.061270 
# 
# 
# High freq. dielectric constant tensor:
#      x y z
#    x 1.653720 0.000000 0.000000 
#    y 0.000000 1.633210 0.000000 
#    z 0.000000 0.000000 1.634350 
# 
# From -- ./inp_files/18166.got.cif
#   From: 2010.03.12/outbox.cif.g09.slc.cpg/sg69_10_cif.got.tgz:18166.got - 2010.04.10 23:52:46.
