data_PCOD8284800
_publ_section_title
;
Structure prediction by ZEFSAII (Michael W. Deem and Ramdas Pophale) SiO2 
 PCOD8284800
Probable space group: F M M M
;
_chemical_formula_sum "Si O2"
_cell_formula_units_Z 192
_cell_length_a 30.475903
_cell_length_b 17.697857
_cell_length_c 17.608836
_cell_angle_alpha 90.000000
_cell_angle_beta 90.000000
_cell_angle_gamma 90.000000
_cell_volume 9497.469618
_symmetry_space_group_name_H-M "F M M M"
_symmetry_group_IT_number 69
_symmetry_cell_setting 'orthorhombic'
loop_
_space_group_symop_operation_xyz
x,y,z
-x,-y,z
x,-y,-z
-x,y,-z
-x,-y,-z
x,y,-z
-x,y,z
x,-y,z
x,1/2+y,1/2+z
-x,1/2-y,1/2+z
x,1/2-y,1/2-z
-x,1/2+y,1/2-z
-x,1/2-y,1/2-z
x,1/2+y,1/2-z
-x,1/2+y,1/2+z
x,1/2-y,1/2+z
1/2+x,y,1/2+z
1/2-x,-y,1/2+z
1/2+x,-y,1/2-z
1/2-x,y,1/2-z
1/2-x,-y,1/2-z
1/2+x,y,1/2-z
1/2-x,y,1/2+z
1/2+x,-y,1/2+z
1/2+x,1/2+y,z
1/2-x,1/2-y,z
1/2+x,1/2-y,-z
1/2-x,1/2+y,-z
1/2-x,1/2-y,-z
1/2+x,1/2+y,-z
1/2-x,1/2+y,z
1/2+x,1/2-y,z
loop_
_atom_site_type_symbol
_atom_site_label
_atom_site_fract_x
_atom_site_fract_y
_atom_site_fract_z
Si Si1 0.500000 0.911493 0.842168
Si Si2 0.589048 0.643229 0.413156
Si Si3 0.340305 0.589830 0.149481
Si Si4 0.332349 0.087071 0.818334
Si Si5 0.247279 0.410079 0.915328
Si Si6 0.918387 0.315398 0.413608
Si Si7 0.500000 0.176141 0.696981
O O1 0.458691 0.871994 0.880321
O O2 0.500000 0.896698 0.751892
O O3 0.500000 0.000000 0.858242
O O4 0.590473 0.616775 0.500000
O O5 0.624257 0.594495 0.368072
O O6 0.600377 0.731183 0.403631
O O7 0.346614 0.500000 0.145976
O O8 0.340340 0.622546 0.235351
O O9 0.294817 0.616322 0.112362
O O10 0.379704 0.626283 0.102869
O O11 0.290438 0.124533 0.860566
O O12 0.321256 0.000000 0.805409
O O13 0.244325 0.500000 0.915298
O O14 0.239188 0.378492 0.000000
O O15 0.935144 0.327356 0.500000
O O16 0.957668 0.328911 0.355636
O O17 0.500000 0.250000 0.750000
#
# Coordination Sequence:
#
# PCOD8284800 Si02
#       7
#    16  32  32  32  32  32  16
#     4  12  25  40  63  94 121 153 201 247 295 360
#     4  11  23  39  58  85 120 158 197 245 305 367
#     4  10  21  37  60  88 120 156 203 256 303 355
#     4  10  20  34  56  86 119 156 200 249 304 368
#     4   9  17  32  55  83 117 158 200 248 309 366
#     4  11  24  41  63  88 117 158 203 242 296 366
#     4  12  23  43  67  85 117 162 192 239 297 357
#
# _framework density 20.215910999999998
#
# number of rings (size 3 to 8) (size 9 to 14) (size 15 to 20)
#    0.000    1.500    1.667    3.500    0.000    8.667 
#    0.000    0.833    0.000    6.500    0.000    0.000 
#    0.000    0.000    0.000    0.000    0.000    0.000 
#
# Total GULP energy -595332.579072 kJ/mol
# GULP energy per Si atom -12402.762064 kJ/mol
# Density = 2.016990 g / cm^3
# Si number density = 20.215911 Si / 1000 Ang^3
#
#
#
# Elastic Constant Matrix: (Units=GPa)
#
#
# Indices 1 2 3 4 5 6 
#
# 1 114.3404 20.9635 27.5343 0.0000 0.0000 0.0000
# 2 20.9635 49.0843 24.1410 0.0000 0.0000 0.0000
# 3 27.5343 24.1410 123.7756 0.0000 0.0000 0.0000
# 4 0.0000 0.0000 0.0000 27.0790 0.0000 0.0000
# 5 0.0000 0.0000 0.0000 0.0000 47.4590 0.0000
# 6 0.0000 0.0000 0.0000 0.0000 0.0000 7.1730
#
#
#
# Elastic Compliance Matrix: (Units=1/GPa)
#
#
# Indices 1 2 3 4 5 6 
#
# 1 0.009734 -0.003420 -0.001498 0.000000 0.000000 0.000000
# 2 -0.003420 0.023737 -0.003869 0.000000 0.000000 0.000000
# 3 -0.001498 -0.003869 0.009167 0.000000 0.000000 0.000000
# 4 0.000000 0.000000 0.000000 0.036929 0.000000 0.000000
# 5 0.000000 0.000000 0.000000 0.000000 0.021071 0.000000
# 6 0.000000 0.000000 0.000000 0.000000 0.000000 0.139412
#
#
# Mechanical properties :
#
#
# Convention : Reuss Voigt Hill
#
# Bulk Modulus (GPa) = 39.89969 48.05309 43.97639
# Shear Modulus (GPa) = 18.79859 30.64630 24.72244
#
# Velocity S-wave (km/s) = 3.05272 3.89774 3.50082
# Velocity P-wave (km/s) = 5.67495 6.63913 6.17589
#
# Compressibility (1/GPa) = 0.02506285
#
# Stress axis : x y z
#
# Youngs Moduli (GPa) = 102.73592 42.12900 109.08743
#
# Poissons Ratio (x) = 0.14410 0.16343
# Poissons Ratio (y) = 0.35139 0.42202
# Poissons Ratio (z) = 0.15392 0.16298
#
# Static dielectric constant tensor:
#      x y z
#    x 3.806860 0.000000 0.000000 
#    y 0.000000 3.390200 0.000000 
#    z 0.000000 0.000000 4.065370 
# 
# 
# High freq. dielectric constant tensor:
#      x y z
#    x 1.800750 0.000000 0.000000 
#    y 0.000000 1.756900 0.000000 
#    z 0.000000 0.000000 1.813650 
# 
# From -- ./inp_files/27777.got.cif
#   From: 2010.03.12/outbox.cif.g09.slc.cpg/sg69_14_cif.got.tgz:27777.got - 2010.04.10 23:52:46.
