data_PCOD8284058
_publ_section_title
;
Structure prediction by ZEFSAII (Michael W. Deem and Ramdas Pophale) SiO2 
 PCOD8284058
Probable space group: F M M M
;
_chemical_formula_sum "Si O2"
_cell_formula_units_Z 136
_cell_length_a 23.760385
_cell_length_b 18.950261
_cell_length_c 14.473495
_cell_angle_alpha 90.000000
_cell_angle_beta 90.000000
_cell_angle_gamma 90.000000
_cell_volume 6516.915423
_symmetry_space_group_name_H-M "F M M M"
_symmetry_group_IT_number 69
_symmetry_cell_setting 'orthorhombic'
loop_
_space_group_symop_operation_xyz
x,y,z
-x,-y,z
x,-y,-z
-x,y,-z
-x,-y,-z
x,y,-z
-x,y,z
x,-y,z
x,1/2+y,1/2+z
-x,1/2-y,1/2+z
x,1/2-y,1/2-z
-x,1/2+y,1/2-z
-x,1/2-y,1/2-z
x,1/2+y,1/2-z
-x,1/2+y,1/2+z
x,1/2-y,1/2+z
1/2+x,y,1/2+z
1/2-x,-y,1/2+z
1/2+x,-y,1/2-z
1/2-x,y,1/2-z
1/2-x,-y,1/2-z
1/2+x,y,1/2-z
1/2-x,y,1/2+z
1/2+x,-y,1/2+z
1/2+x,1/2+y,z
1/2-x,1/2-y,z
1/2+x,1/2-y,-z
1/2-x,1/2+y,-z
1/2-x,1/2-y,-z
1/2+x,1/2+y,-z
1/2-x,1/2+y,z
1/2+x,1/2-y,z
loop_
_atom_site_type_symbol
_atom_site_label
_atom_site_fract_x
_atom_site_fract_y
_atom_site_fract_z
Si Si1 0.834483 0.855573 0.000000
Si Si2 0.339118 0.241058 0.846566
Si Si3 0.063441 0.636965 0.191427
Si Si4 0.936610 0.000000 0.204633
Si Si5 0.400973 0.500000 0.000000
Si Si6 0.909987 0.579251 0.000000
Si Si7 0.706190 0.644871 0.500000
O O1 0.851187 0.811610 0.907261
O O2 0.769739 0.881468 0.000000
O O3 0.865557 0.929067 0.000000
O O4 0.305133 0.250000 0.750000
O O5 0.396881 0.205305 0.808503
O O6 0.300715 0.191429 0.908667
O O7 0.090194 0.572358 0.253282
O O8 0.060776 0.614855 0.085875
O O9 0.000000 0.656415 0.225306
O O10 0.000000 0.000000 0.241647
O O11 0.937154 0.000000 0.093477
O O12 0.841451 0.584770 0.000000
O O13 0.928143 0.500000 0.000000
#
# Coordination Sequence:
#
# PCOD8284058 Si02
#       7
#    16  32  32  16   8  16  16
#     4  11  24  41  59  83 114 153 198 246 289 339
#     4  10  20  38  61  83 116 153 191 238 288 341
#     4  10  20  34  58  92 121 149 186 232 288 349
#     4  10  21  39  59  83 120 157 189 226 282 353
#     4  12  25  42  60  80 112 156 203 238 282 340
#     4  10  18  32  57  84 120 144 176 230 288 342
#     4   9  22  37  57  84 109 147 192 237 289 339
#
# _framework density 20.868769
#
# number of rings (size 3 to 8) (size 9 to 14) (size 15 to 20)
#    0.000    1.882    1.176    4.059    0.824    2.824 
#    0.000    2.353    0.000    4.235    0.000    0.000 
#    0.000    0.000    0.000    0.000    0.000    0.000 
#
# Total GULP energy -421206.050669 kJ/mol
# GULP energy per Si atom -12388.413255 kJ/mol
# Density = 2.082127 g / cm^3
# Si number density = 20.868769 Si / 1000 Ang^3
#
#
#
# Elastic Constant Matrix: (Units=GPa)
#
#
# Indices 1 2 3 4 5 6 
#
# 1 82.5085 21.3505 -1.7860 0.0000 0.0000 0.0000
# 2 21.3505 80.4074 22.6038 0.0000 0.0000 0.0000
# 3 -1.7860 22.6038 158.4391 0.0000 0.0000 0.0000
# 4 0.0000 0.0000 0.0000 -0.0129 0.0000 0.0000
# 5 0.0000 0.0000 0.0000 0.0000 -11.6688 0.0000
# 6 0.0000 0.0000 0.0000 0.0000 0.0000 13.6858
#
#
#
# Elastic Compliance Matrix: (Units=1/GPa)
#
#
# Indices 1 2 3 4 5 6 
#
# 1 0.013082 -0.003662 0.000670 0.000000 0.000000 0.000000
# 2 -0.003662 0.013981 -0.002036 0.000000 0.000000 0.000000
# 3 0.000670 -0.002036 0.006610 0.000000 0.000000 0.000000
# 4 0.000000 0.000000 0.000000-77.539910 0.000000 0.000000
# 5 0.000000 0.000000 0.000000 0.000000 -0.085699 0.000000
# 6 0.000000 0.000000 0.000000 0.000000 0.000000 0.073069
#
#
# Mechanical properties :
#
#
# Convention : Reuss Voigt Hill
#
# Bulk Modulus (GPa) = 42.34242 45.07684 43.70963
# Shear Modulus (GPa) = -0.06452 19.01326 9.47437
#
# Velocity S-wave (km/s) = -0.17602 3.02170 2.13303
# Velocity P-wave (km/s) = 4.50473 5.81560 5.20163
#
# Compressibility (1/GPa) = 0.02361698
#
# Stress axis : x y z
#
# Youngs Moduli (GPa) = 76.44049 71.52373 151.29541
#
# Poissons Ratio (x) = 0.26192 -0.10135
# Poissons Ratio (y) = 0.27992 0.30803
# Poissons Ratio (z) = -0.05121 0.14562
#
# Static dielectric constant tensor:
#      x y z
#    x 3.536780 0.000000 0.000000 
#    y 0.000000 3.837990 0.000000 
#    z 0.000000 0.000000 4.036280 
# 
# 
# High freq. dielectric constant tensor:
#      x y z
#    x 1.798910 0.000000 0.000000 
#    y 0.000000 1.812750 0.000000 
#    z 0.000000 0.000000 1.837550 
# 
# From -- ./inp_files/16671.got.cif
#   From: 2010.03.12/outbox.cif.g09.slc.cpg/sg69_9_cif.got.tgz:16671.got - 2010.04.10 23:52:46.
