data_PCOD8284337
_publ_section_title
;
Structure prediction by ZEFSAII (Michael W. Deem and Ramdas Pophale) SiO2 
 PCOD8284337
Probable space group: F M M M
;
_chemical_formula_sum "Si O2"
_cell_formula_units_Z 128
_cell_length_a 17.666687
_cell_length_b 20.670643
_cell_length_c 18.018842
_cell_angle_alpha 90.000000
_cell_angle_beta 90.000000
_cell_angle_gamma 90.000000
_cell_volume 6580.152795
_symmetry_space_group_name_H-M "F M M M"
_symmetry_group_IT_number 69
_symmetry_cell_setting 'orthorhombic'
loop_
_space_group_symop_operation_xyz
x,y,z
-x,-y,z
x,-y,-z
-x,y,-z
-x,-y,-z
x,y,-z
-x,y,z
x,-y,z
x,1/2+y,1/2+z
-x,1/2-y,1/2+z
x,1/2-y,1/2-z
-x,1/2+y,1/2-z
-x,1/2-y,1/2-z
x,1/2+y,1/2-z
-x,1/2+y,1/2+z
x,1/2-y,1/2+z
1/2+x,y,1/2+z
1/2-x,-y,1/2+z
1/2+x,-y,1/2-z
1/2-x,y,1/2-z
1/2-x,-y,1/2-z
1/2+x,y,1/2-z
1/2-x,y,1/2+z
1/2+x,-y,1/2+z
1/2+x,1/2+y,z
1/2-x,1/2-y,z
1/2+x,1/2-y,-z
1/2-x,1/2+y,-z
1/2-x,1/2-y,-z
1/2+x,1/2+y,-z
1/2-x,1/2+y,z
1/2+x,1/2-y,z
loop_
_atom_site_type_symbol
_atom_site_label
_atom_site_fract_x
_atom_site_fract_y
_atom_site_fract_z
Si Si1 0.337613 0.000000 0.586719
Si Si2 0.916773 0.872961 0.146455
Si Si3 0.196283 0.500000 0.823497
Si Si4 0.584831 0.619310 0.320467
Si Si5 0.164423 0.252973 0.161419
O O1 0.372434 0.063399 0.623447
O O2 0.353192 0.000000 0.500000
O O3 0.248752 0.000000 0.603930
O O4 0.923401 0.867901 0.234095
O O5 0.875560 0.807503 0.120684
O O6 0.000000 0.875964 0.110188
O O7 0.250000 0.500000 0.750000
O O8 0.142540 0.561146 0.830402
O O9 0.500000 0.605064 0.352574
O O10 0.620764 0.681495 0.362190
O O11 0.163681 0.250000 0.250000
O O12 0.250000 0.250000 0.131757
#
# Coordination Sequence:
#
# PCOD8284337 Si02
#       5
#    16  32  16  32  32
#     4  12  25  38  55  82 117 158 198 237 287 351
#     4  10  19  33  52  80 116 152 189 234 286 346
#     4  12  21  35  59  81 113 150 190 246 290 341
#     4  10  19  32  55  87 115 145 187 240 299 342
#     4   9  17  28  50  80 117 149 184 232 286 342
#
# _framework density 19.452435999999999
#
# number of rings (size 3 to 8) (size 9 to 14) (size 15 to 20)
#    0.000    1.750    2.500    3.000    3.500    6.000 
#    0.000    0.000    0.000    8.250    0.000    0.000 
#    0.000    0.000    0.000    0.000    0.000    0.000 
#
# Total GULP energy -396631.361172 kJ/mol
# GULP energy per Si atom -12394.730037 kJ/mol
# Density = 1.940816 g / cm^3
# Si number density = 19.452436 Si / 1000 Ang^3
#
#
#
# Elastic Constant Matrix: (Units=GPa)
#
#
# Indices 1 2 3 4 5 6 
#
# 1 199.4774 104.9746 10.6022 0.0000 0.0000 0.0000
# 2 104.9746 202.5064 10.4043 0.0000 0.0000 0.0000
# 3 10.6022 10.4043 16.1355 0.0000 0.0000 0.0000
# 4 0.0000 0.0000 0.0000 -2.5431 0.0000 0.0000
# 5 0.0000 0.0000 0.0000 0.0000 2.1850 0.0000
# 6 0.0000 0.0000 0.0000 0.0000 0.0000 83.0200
#
#
#
# Elastic Compliance Matrix: (Units=1/GPa)
#
#
# Indices 1 2 3 4 5 6 
#
# 1 0.006977 -0.003497 -0.002330 0.000000 0.000000 0.000000
# 2 -0.003497 0.006860 -0.002126 0.000000 0.000000 0.000000
# 3 -0.002330 -0.002126 0.064877 0.000000 0.000000 0.000000
# 4 0.000000 0.000000 0.000000 -0.393213 0.000000 0.000000
# 5 0.000000 0.000000 0.000000 0.000000 0.457656 0.000000
# 6 0.000000 0.000000 0.000000 0.000000 0.000000 0.012045
#
#
# Mechanical properties :
#
#
# Convention : Reuss Voigt Hill
#
# Bulk Modulus (GPa) = 15.92120 74.45350 45.18735
# Shear Modulus (GPa) = 26.03581 36.00827 31.02204
#
# Velocity S-wave (km/s) = 3.66243 4.30710 3.99778
# Velocity P-wave (km/s) = 5.10754 7.94308 6.67756
#
# Compressibility (1/GPa) = 0.06280935
#
# Stress axis : x y z
#
# Youngs Moduli (GPa) = 143.32192 145.76880 15.41387
#
# Poissons Ratio (x) = 0.50978 0.03591
# Poissons Ratio (y) = 0.50122 0.03276
# Poissons Ratio (z) = 0.33388 0.30984
#
# Static dielectric constant tensor:
#      x y z
#    x 4.067170 0.000000 0.000000 
#    y 0.000000 3.779370 0.000000 
#    z 0.000000 0.000000 2.910140 
# 
# 
# High freq. dielectric constant tensor:
#      x y z
#    x 1.785130 0.000000 0.000000 
#    y 0.000000 1.778380 0.000000 
#    z 0.000000 0.000000 1.676410 
# 
# From -- ./inp_files/16364.got.cif
#   From: 2010.03.12/outbox.cif.g09.slc.cpg/sg69_9_cif.got.tgz:16364.got - 2010.04.10 23:52:46.
