data_PCOD8284064
_publ_section_title
;
Structure prediction by ZEFSAII (Michael W. Deem and Ramdas Pophale) SiO2 
 PCOD8284064
Probable space group: F M M M
;
_chemical_formula_sum "Si O2"
_cell_formula_units_Z 160
_cell_length_a 17.983668
_cell_length_b 22.909370
_cell_length_c 19.780769
_cell_angle_alpha 90.000000
_cell_angle_beta 90.000000
_cell_angle_gamma 90.000000
_cell_volume 8149.568116
_symmetry_space_group_name_H-M "F M M M"
_symmetry_group_IT_number 69
_symmetry_cell_setting 'orthorhombic'
loop_
_space_group_symop_operation_xyz
x,y,z
-x,-y,z
x,-y,-z
-x,y,-z
-x,-y,-z
x,y,-z
-x,y,z
x,-y,z
x,1/2+y,1/2+z
-x,1/2-y,1/2+z
x,1/2-y,1/2-z
-x,1/2+y,1/2-z
-x,1/2-y,1/2-z
x,1/2+y,1/2-z
-x,1/2+y,1/2+z
x,1/2-y,1/2+z
1/2+x,y,1/2+z
1/2-x,-y,1/2+z
1/2+x,-y,1/2-z
1/2-x,y,1/2-z
1/2-x,-y,1/2-z
1/2+x,y,1/2-z
1/2-x,y,1/2+z
1/2+x,-y,1/2+z
1/2+x,1/2+y,z
1/2-x,1/2-y,z
1/2+x,1/2-y,-z
1/2-x,1/2+y,-z
1/2-x,1/2-y,-z
1/2+x,1/2+y,-z
1/2-x,1/2+y,z
1/2+x,1/2-y,z
loop_
_atom_site_type_symbol
_atom_site_label
_atom_site_fract_x
_atom_site_fract_y
_atom_site_fract_z
Si Si1 0.849886 0.301741 0.500000
Si Si2 0.582447 0.318039 0.260370
Si Si3 0.637602 0.625179 0.872577
Si Si4 0.323539 0.828024 0.000000
Si Si5 0.186372 0.378426 0.139960
Si Si6 0.652452 0.000000 0.580963
Si Si7 0.788910 0.500000 0.176921
O O1 0.884116 0.331509 0.433490
O O2 0.762469 0.312180 0.500000
O O3 0.869362 0.232812 0.500000
O O4 0.500000 0.332778 0.288501
O O5 0.591086 0.250000 0.250000
O O6 0.591659 0.354653 0.191818
O O7 0.646745 0.331538 0.313382
O O8 0.724920 0.628356 0.854521
O O9 0.612377 0.559271 0.893416
O O10 0.343001 0.867684 0.064349
O O11 0.161397 0.442081 0.167874
O O12 0.659520 0.000000 0.500000
O O13 0.733920 0.000000 0.613002
O O14 0.750000 0.500000 0.250000
#
# Coordination Sequence:
#
# PCOD8284064 Si02
#       7
#    16  32  32  16  32  16  16
#     4   9  16  29  50  82 115 137 182 231 274 338
#     4  11  24  40  56  78 111 153 197 241 289 338
#     4  10  19  34  59  85 116 150 186 234 285 347
#     4   9  18  29  50  84 109 141 180 231 286 322
#     4  10  20  35  57  83 114 143 188 233 281 344
#     4  10  18  32  58  92 125 151 180 235 292 343
#     4  10  20  32  54  87 118 150 186 224 280 338
#
# _framework density 19.632942
#
# number of rings (size 3 to 8) (size 9 to 14) (size 15 to 20)
#    0.000    2.000    1.000    4.200    4.200    3.200 
#    0.000    3.000    0.000    4.200    0.000    1.400 
#    0.000    0.000    0.000    0.000    0.000    0.000 
#
# Total GULP energy -495864.328792 kJ/mol
# GULP energy per Si atom -12396.608220 kJ/mol
# Density = 1.958826 g / cm^3
# Si number density = 19.632942 Si / 1000 Ang^3
#
#
#
# Elastic Constant Matrix: (Units=GPa)
#
#
# Indices 1 2 3 4 5 6 
#
# 1 35.6988 33.1850 23.0983 0.0000 0.0000 0.0000
# 2 33.1850 144.7754 63.2117 0.0000 0.0000 0.0000
# 3 23.0983 63.2117 139.8332 0.0000 0.0000 0.0000
# 4 0.0000 0.0000 0.0000 38.8558 0.0000 0.0000
# 5 0.0000 0.0000 0.0000 0.0000 6.4362 0.0000
# 6 0.0000 0.0000 0.0000 0.0000 0.0000 3.9910
#
#
#
# Elastic Compliance Matrix: (Units=1/GPa)
#
#
# Indices 1 2 3 4 5 6 
#
# 1 0.036454 -0.007135 -0.002796 0.000000 0.000000 0.000000
# 2 -0.007135 0.010002 -0.003343 0.000000 0.000000 0.000000
# 3 -0.002796 -0.003343 0.009124 0.000000 0.000000 0.000000
# 4 0.000000 0.000000 0.000000 0.025736 0.000000 0.000000
# 5 0.000000 0.000000 0.000000 0.000000 0.155371 0.000000
# 6 0.000000 0.000000 0.000000 0.000000 0.000000 0.250564
#
#
# Mechanical properties :
#
#
# Convention : Reuss Voigt Hill
#
# Bulk Modulus (GPa) = 34.44439 62.14417 48.29428
# Shear Modulus (GPa) = 9.55150 23.24409 16.39779
#
# Velocity S-wave (km/s) = 2.20808 3.44457 2.89315
# Velocity P-wave (km/s) = 4.90745 6.89505 5.98435
#
# Compressibility (1/GPa) = 0.02903231
#
# Stress axis : x y z
#
# Youngs Moduli (GPa) = 27.43189 99.97698 109.59545
#
# Poissons Ratio (x) = 0.71333 0.30646
# Poissons Ratio (y) = 0.19573 0.36637
# Poissons Ratio (z) = 0.07671 0.33422
#
# Static dielectric constant tensor:
#      x y z
#    x 3.113880 0.000000 0.000000 
#    y 0.000000 4.198380 0.000000 
#    z 0.000000 0.000000 3.753190 
# 
# 
# High freq. dielectric constant tensor:
#      x y z
#    x 1.704810 0.000000 0.000000 
#    y 0.000000 1.785340 0.000000 
#    z 0.000000 0.000000 1.780560 
# 
# From -- ./inp_files/30875.got.cif
#   From: 2010.03.12/outbox.cif.g09.slc.cpg/sg69_16_cif.got.tgz:30875.got - 2010.04.10 23:52:46.
