data_PCOD8284336
_publ_section_title
;
Structure prediction by ZEFSAII (Michael W. Deem and Ramdas Pophale) SiO2 
 PCOD8284336
Probable space group: F M M M
;
_chemical_formula_sum "Si O2"
_cell_formula_units_Z 160
_cell_length_a 16.833343
_cell_length_b 17.554027
_cell_length_c 27.936348
_cell_angle_alpha 90.000000
_cell_angle_beta 90.000000
_cell_angle_gamma 90.000000
_cell_volume 8254.994093
_symmetry_space_group_name_H-M "F M M M"
_symmetry_group_IT_number 69
_symmetry_cell_setting 'orthorhombic'
loop_
_space_group_symop_operation_xyz
x,y,z
-x,-y,z
x,-y,-z
-x,y,-z
-x,-y,-z
x,y,-z
-x,y,z
x,-y,z
x,1/2+y,1/2+z
-x,1/2-y,1/2+z
x,1/2-y,1/2-z
-x,1/2+y,1/2-z
-x,1/2-y,1/2-z
x,1/2+y,1/2-z
-x,1/2+y,1/2+z
x,1/2-y,1/2+z
1/2+x,y,1/2+z
1/2-x,-y,1/2+z
1/2+x,-y,1/2-z
1/2-x,y,1/2-z
1/2-x,-y,1/2-z
1/2+x,y,1/2-z
1/2-x,y,1/2+z
1/2+x,-y,1/2+z
1/2+x,1/2+y,z
1/2-x,1/2-y,z
1/2+x,1/2-y,-z
1/2-x,1/2+y,-z
1/2-x,1/2-y,-z
1/2+x,1/2+y,-z
1/2-x,1/2+y,z
1/2+x,1/2-y,z
loop_
_atom_site_type_symbol
_atom_site_label
_atom_site_fract_x
_atom_site_fract_y
_atom_site_fract_z
Si Si1 0.908711 0.413402 0.313869
Si Si2 0.220161 0.912881 0.445023
Si Si3 0.591209 0.823254 0.223559
Si Si4 0.320827 0.194830 0.384940
Si Si5 0.407964 0.337275 0.383586
O O1 0.883465 0.500000 0.323687
O O2 0.898914 0.396976 0.257272
O O3 0.850605 0.357905 0.342074
O O4 0.000000 0.398911 0.329519
O O5 0.201205 0.894680 0.500000
O O6 0.292121 0.858424 0.428430
O O7 0.140594 0.898183 0.414574
O O8 0.246844 0.000000 0.437876
O O9 0.500000 0.801641 0.213812
O O10 0.631159 0.750000 0.250000
O O11 0.626224 0.841159 0.171087
O O12 0.250000 0.250000 0.366820
O O13 0.391711 0.250905 0.402574
O O14 0.500000 0.358629 0.388231
#
# Coordination Sequence:
#
# PCOD8284336 Si02
#       5
#    32  32  32  32  32
#     4  10  19  32  55  85 113 144 185 230 274 323
#     4  10  23  42  59  77 108 150 189 231 286 337
#     4   9  16  30  53  80 115 151 179 215 271 331
#     4  10  20  35  57  81 108 146 184 224 272 337
#     4  10  20  35  60  88 110 140 186 234 277 326
#
# _framework density 19.382207000000001
#
# number of rings (size 3 to 8) (size 9 to 14) (size 15 to 20)
#    0.000    2.200    2.000    1.200    0.000    5.200 
#    0.000   10.000    0.000    7.800    0.000    7.000 
#    0.000    0.000    0.000    0.000    0.000    0.000 
#
# Total GULP energy -495811.276354 kJ/mol
# GULP energy per Si atom -12395.281909 kJ/mol
# Density = 1.933809 g / cm^3
# Si number density = 19.382207 Si / 1000 Ang^3
#
#
#
# Elastic Constant Matrix: (Units=GPa)
#
#
# Indices 1 2 3 4 5 6 
#
# 1 45.2044 28.0172 36.5421 0.0000 0.0000 0.0000
# 2 28.0172 114.6435 49.1648 0.0000 0.0000 0.0000
# 3 36.5421 49.1648 124.1931 0.0000 0.0000 0.0000
# 4 0.0000 0.0000 0.0000 33.9879 0.0000 0.0000
# 5 0.0000 0.0000 0.0000 0.0000 25.6007 0.0000
# 6 0.0000 0.0000 0.0000 0.0000 0.0000 27.8964
#
#
#
# Elastic Compliance Matrix: (Units=1/GPa)
#
#
# Indices 1 2 3 4 5 6 
#
# 1 0.030747 -0.004378 -0.007314 0.000000 0.000000 0.000000
# 2 -0.004378 0.011130 -0.003118 0.000000 0.000000 0.000000
# 3 -0.007314 -0.003118 0.011438 0.000000 0.000000 0.000000
# 4 0.000000 0.000000 0.000000 0.029422 0.000000 0.000000
# 5 0.000000 0.000000 0.000000 0.000000 0.039061 0.000000
# 6 0.000000 0.000000 0.000000 0.000000 0.000000 0.035847
#
#
# Mechanical properties :
#
#
# Convention : Reuss Voigt Hill
#
# Bulk Modulus (GPa) = 42.20063 56.83213 49.51638
# Shear Modulus (GPa) = 25.61953 28.85147 27.23550
#
# Velocity S-wave (km/s) = 3.63961 3.86236 3.75264
# Velocity P-wave (km/s) = 6.28351 7.01968 6.66177
#
# Compressibility (1/GPa) = 0.02369633
#
# Stress axis : x y z
#
# Youngs Moduli (GPa) = 32.52311 89.85044 87.42557
#
# Poissons Ratio (x) = 0.39333 0.63943
# Poissons Ratio (y) = 0.14237 0.27258
# Poissons Ratio (z) = 0.23787 0.28014
#
# Static dielectric constant tensor:
#      x y z
#    x 3.434420 0.000000 0.000000 
#    y 0.000000 3.647830 0.000000 
#    z 0.000000 0.000000 3.484600 
# 
# 
# High freq. dielectric constant tensor:
#      x y z
#    x 1.736020 0.000000 0.000000 
#    y 0.000000 1.761700 0.000000 
#    z 0.000000 0.000000 1.741990 
# 
# From -- ./inp_files/23127.got.cif
#   From: 2010.03.12/outbox.cif.g09.slc.cpg/sg69_12_cif.got.tgz:23127.got - 2010.04.10 23:52:46.
