data_PCOD8284318
_publ_section_title
;
Structure prediction by ZEFSAII (Michael W. Deem and Ramdas Pophale) SiO2 
 PCOD8284318
Probable space group: F M M M
;
_chemical_formula_sum "Si O2"
_cell_formula_units_Z 176
_cell_length_a 18.316808
_cell_length_b 18.142483
_cell_length_c 27.508126
_cell_angle_alpha 90.000000
_cell_angle_beta 90.000000
_cell_angle_gamma 90.000000
_cell_volume 9141.290759
_symmetry_space_group_name_H-M "F M M M"
_symmetry_group_IT_number 69
_symmetry_cell_setting 'orthorhombic'
loop_
_space_group_symop_operation_xyz
x,y,z
-x,-y,z
x,-y,-z
-x,y,-z
-x,-y,-z
x,y,-z
-x,y,z
x,-y,z
x,1/2+y,1/2+z
-x,1/2-y,1/2+z
x,1/2-y,1/2-z
-x,1/2+y,1/2-z
-x,1/2-y,1/2-z
x,1/2+y,1/2-z
-x,1/2+y,1/2+z
x,1/2-y,1/2+z
1/2+x,y,1/2+z
1/2-x,-y,1/2+z
1/2+x,-y,1/2-z
1/2-x,y,1/2-z
1/2-x,-y,1/2-z
1/2+x,y,1/2-z
1/2-x,y,1/2+z
1/2+x,-y,1/2+z
1/2+x,1/2+y,z
1/2-x,1/2-y,z
1/2+x,1/2-y,-z
1/2-x,1/2+y,-z
1/2-x,1/2-y,-z
1/2+x,1/2+y,-z
1/2-x,1/2+y,z
1/2+x,1/2-y,z
loop_
_atom_site_type_symbol
_atom_site_label
_atom_site_fract_x
_atom_site_fract_y
_atom_site_fract_z
Si Si1 0.415010 0.413663 0.732938
Si Si2 0.825092 0.659160 0.682041
Si Si3 0.150758 0.084837 0.914449
Si Si4 0.784169 0.328810 0.053835
Si Si5 0.500000 0.418767 0.056387
Si Si6 0.338896 0.822653 0.157708
O O1 0.500000 0.403056 0.746422
O O2 0.394307 0.500000 0.732447
O O3 0.363342 0.368256 0.769191
O O4 0.399060 0.377696 0.680247
O O5 0.838788 0.596263 0.642499
O O6 0.737651 0.665623 0.686183
O O7 0.860510 0.737102 0.665489
O O8 0.216879 0.115337 0.946294
O O9 0.073688 0.124196 0.928130
O O10 0.146084 0.000000 0.928087
O O11 0.750000 0.250000 0.063983
O O12 0.837253 0.343014 0.099844
O O13 0.822283 0.333633 0.000000
O O14 0.500000 0.500000 0.081744
O O15 0.500000 0.428811 0.000000
#
# Coordination Sequence:
#
# PCOD8284318 Si02
#       6
#    32  32  32  32  16  32
#     4  11  25  40  57  83 116 153 194 240 285 335
#     4  10  20  37  58  86 114 147 188 234 286 347
#     4  10  19  32  53  82 114 149 189 233 281 341
#     4  10  19  36  59  83 114 149 187 235 284 334
#     4   9  18  30  44  72 115 152 179 223 283 338
#     4  10  20  39  59  87 113 150 187 236 290 343
#
# _framework density 19.253298999999998
#
# number of rings (size 3 to 8) (size 9 to 14) (size 15 to 20)
#    0.000    1.909    3.636    2.182    1.273    8.364 
#    0.000    0.000    0.000    0.545    0.000    1.273 
#    0.000    0.000    0.000    0.000    0.000    0.000 
#
# Total GULP energy -545273.547945 kJ/mol
# GULP energy per Si atom -12392.580635 kJ/mol
# Density = 1.920948 g / cm^3
# Si number density = 19.253299 Si / 1000 Ang^3
#
#
#
# Elastic Constant Matrix: (Units=GPa)
#
#
# Indices 1 2 3 4 5 6 
#
# 1 41.6201 30.8891 28.2410 0.0000 0.0000 0.0000
# 2 30.8891 80.1170 26.6076 0.0000 0.0000 0.0000
# 3 28.2410 26.6076 121.4583 0.0000 0.0000 0.0000
# 4 0.0000 0.0000 0.0000 44.3839 0.0000 0.0000
# 5 0.0000 0.0000 0.0000 0.0000 9.2779 0.0000
# 6 0.0000 0.0000 0.0000 0.0000 0.0000 22.5645
#
#
#
# Elastic Compliance Matrix: (Units=1/GPa)
#
#
# Indices 1 2 3 4 5 6 
#
# 1 0.037258 -0.012389 -0.005949 0.000000 0.000000 0.000000
# 2 -0.012389 0.017581 -0.000971 0.000000 0.000000 0.000000
# 3 -0.005949 -0.000971 0.009829 0.000000 0.000000 0.000000
# 4 0.000000 0.000000 0.000000 0.022531 0.000000 0.000000
# 5 0.000000 0.000000 0.000000 0.000000 0.107783 0.000000
# 6 0.000000 0.000000 0.000000 0.000000 0.000000 0.044317
#
#
# Mechanical properties :
#
#
# Convention : Reuss Voigt Hill
#
# Bulk Modulus (GPa) = 38.38715 46.07451 42.23083
# Shear Modulus (GPa) = 17.44583 25.74244 21.59413
#
# Velocity S-wave (km/s) = 3.01345 3.66052 3.35263
# Velocity P-wave (km/s) = 5.66472 6.46905 6.08020
#
# Compressibility (1/GPa) = 0.02605038
#
# Stress axis : x y z
#
# Youngs Moduli (GPa) = 26.83953 56.88025 101.73784
#
# Poissons Ratio (x) = 0.70470 0.60525
# Poissons Ratio (y) = 0.33252 0.09876
# Poissons Ratio (z) = 0.15967 0.05521
#
# Static dielectric constant tensor:
#      x y z
#    x 2.170080 0.000000 0.000000 
#    y 0.000000 3.915280 0.000000 
#    z 0.000000 0.000000 3.540980 
# 
# 
# High freq. dielectric constant tensor:
#      x y z
#    x 1.723300 0.000000 0.000000 
#    y 0.000000 1.742360 0.000000 
#    z 0.000000 0.000000 1.756400 
# 
# From -- ./inp_files/46389.got.cif
#   From: 2010.03.12/outbox.cif.g09.slc.cpg/sg69_24_cif.got.tgz:46389.got - 2010.04.10 23:52:46.
