data_PCOD8284606
_publ_section_title
;
Structure prediction by ZEFSAII (Michael W. Deem and Ramdas Pophale) SiO2 
 PCOD8284606
Probable space group: F M M M
;
_chemical_formula_sum "Si O2"
_cell_formula_units_Z 192
_cell_length_a 18.404506
_cell_length_b 27.010325
_cell_length_c 26.454386
_cell_angle_alpha 90.000000
_cell_angle_beta 90.000000
_cell_angle_gamma 90.000000
_cell_volume 13150.784493
_symmetry_space_group_name_H-M "F M M M"
_symmetry_group_IT_number 69
_symmetry_cell_setting 'orthorhombic'
loop_
_space_group_symop_operation_xyz
x,y,z
-x,-y,z
x,-y,-z
-x,y,-z
-x,-y,-z
x,y,-z
-x,y,z
x,-y,z
x,1/2+y,1/2+z
-x,1/2-y,1/2+z
x,1/2-y,1/2-z
-x,1/2+y,1/2-z
-x,1/2-y,1/2-z
x,1/2+y,1/2-z
-x,1/2+y,1/2+z
x,1/2-y,1/2+z
1/2+x,y,1/2+z
1/2-x,-y,1/2+z
1/2+x,-y,1/2-z
1/2-x,y,1/2-z
1/2-x,-y,1/2-z
1/2+x,y,1/2-z
1/2-x,y,1/2+z
1/2+x,-y,1/2+z
1/2+x,1/2+y,z
1/2-x,1/2-y,z
1/2+x,1/2-y,-z
1/2-x,1/2+y,-z
1/2-x,1/2-y,-z
1/2+x,1/2+y,-z
1/2-x,1/2+y,z
1/2+x,1/2-y,z
loop_
_atom_site_type_symbol
_atom_site_label
_atom_site_fract_x
_atom_site_fract_y
_atom_site_fract_z
Si Si1 0.581595 0.925408 0.445959
Si Si2 0.173731 0.227279 0.144789
Si Si3 0.079990 0.191352 0.944001
Si Si4 0.673134 0.138565 0.275631
Si Si5 0.585144 0.944271 0.335544
Si Si6 0.919518 0.793795 0.710071
O O1 0.618656 0.942898 0.500000
O O2 0.500000 0.946060 0.446552
O O3 0.582047 0.867032 0.445005
O O4 0.616689 0.944579 0.393421
O O5 0.250000 0.250000 0.131565
O O6 0.142369 0.208786 0.092558
O O7 0.183478 0.182966 0.184665
O O8 0.123618 0.272344 0.162794
O O9 0.000000 0.208543 0.924946
O O10 0.094710 0.212779 0.000000
O O11 0.750000 0.123653 0.250000
O O12 0.635322 0.091367 0.301757
O O13 0.620210 0.157747 0.231608
O O14 0.500000 0.926571 0.334280
O O15 0.591794 0.000000 0.313977
O O16 0.924032 0.750000 0.750000
O O17 0.000000 0.810194 0.693171
#
# Coordination Sequence:
#
# PCOD8284606 Si02
#       6
#    32  32  32  32  32  32
#     4   8  14  26  44  65  88 114 142 174 216 263
#     4  11  19  29  46  67  91 119 154 192 225 266
#     4   9  17  29  46  67  92 122 151 180 221 272
#     4  11  20  32  46  62  91 121 150 195 235 266
#     4  10  20  32  48  69  90 117 153 188 226 276
#     4   9  18  28  43  64  85 116 154 190 229 264
#
# _framework density 14.599888999999999
#
# number of rings (size 3 to 8) (size 9 to 14) (size 15 to 20)
#    0.000    2.333    3.333    2.000    0.000    2.333 
#    0.000    1.667    0.000    0.000    0.000    0.000 
#    0.000    0.000    0.000    0.000    0.000    0.000 
#
# Total GULP energy -594654.856806 kJ/mol
# GULP energy per Si atom -12388.642850 kJ/mol
# Density = 1.456666 g / cm^3
# Si number density = 14.599889 Si / 1000 Ang^3
#
#
#
# Elastic Constant Matrix: (Units=GPa)
#
#
# Indices 1 2 3 4 5 6 
#
# 1 99.7013 34.6913 44.3015 0.0000 0.0000 0.0000
# 2 34.6913 61.6059 36.3943 0.0000 0.0000 0.0000
# 3 44.3015 36.3943 73.4912 0.0000 0.0000 0.0000
# 4 0.0000 0.0000 0.0000 5.3809 0.0000 0.0000
# 5 0.0000 0.0000 0.0000 0.0000 21.8278 0.0000
# 6 0.0000 0.0000 0.0000 0.0000 0.0000 10.1771
#
#
#
# Elastic Compliance Matrix: (Units=1/GPa)
#
#
# Indices 1 2 3 4 5 6 
#
# 1 0.014437 -0.004224 -0.006611 0.000000 0.000000 0.000000
# 2 -0.004224 0.024181 -0.009428 0.000000 0.000000 0.000000
# 3 -0.006611 -0.009428 0.022261 0.000000 0.000000 0.000000
# 4 0.000000 0.000000 0.000000 0.185843 0.000000 0.000000
# 5 0.000000 0.000000 0.000000 0.000000 0.045813 0.000000
# 6 0.000000 0.000000 0.000000 0.000000 0.000000 0.098260
#
#
# Mechanical properties :
#
#
# Convention : Reuss Voigt Hill
#
# Bulk Modulus (GPa) = 49.13489 51.73030 50.43259
# Shear Modulus (GPa) = 11.41273 15.43790 13.42531
#
# Velocity S-wave (km/s) = 2.79892 3.25529 3.03570
# Velocity P-wave (km/s) = 6.64625 7.04543 6.84875
#
# Compressibility (1/GPa) = 0.02035214
#
# Stress axis : x y z
#
# Youngs Moduli (GPa) = 69.26433 41.35491 44.92075
#
# Poissons Ratio (x) = 0.17470 0.29697
# Poissons Ratio (y) = 0.29260 0.42353
# Poissons Ratio (z) = 0.45791 0.38991
#
# Static dielectric constant tensor:
#      x y z
#    x 2.796680 0.000000 0.000000 
#    y 0.000000 2.674440 0.000000 
#    z 0.000000 0.000000 2.636770 
# 
# 
# High freq. dielectric constant tensor:
#      x y z
#    x 1.537460 0.000000 0.000000 
#    y 0.000000 1.540500 0.000000 
#    z 0.000000 0.000000 1.555810 
# 
# From -- ./inp_files/33004.got.cif
#   From: 2010.03.12/outbox.cif.g09.slc.cpg/sg69_17_cif.got.tgz:33004.got - 2010.04.10 23:52:46.
