data_PCOD8284454
_publ_section_title
;
Structure prediction by ZEFSAII (Michael W. Deem and Ramdas Pophale) SiO2 
 PCOD8284454
Probable space group: F M M M
;
_chemical_formula_sum "Si O2"
_cell_formula_units_Z 160
_cell_length_a 24.754233
_cell_length_b 16.389476
_cell_length_c 20.263391
_cell_angle_alpha 90.000000
_cell_angle_beta 90.000000
_cell_angle_gamma 90.000000
_cell_volume 8221.038228
_symmetry_space_group_name_H-M "F M M M"
_symmetry_group_IT_number 69
_symmetry_cell_setting 'orthorhombic'
loop_
_space_group_symop_operation_xyz
x,y,z
-x,-y,z
x,-y,-z
-x,y,-z
-x,-y,-z
x,y,-z
-x,y,z
x,-y,z
x,1/2+y,1/2+z
-x,1/2-y,1/2+z
x,1/2-y,1/2-z
-x,1/2+y,1/2-z
-x,1/2-y,1/2-z
x,1/2+y,1/2-z
-x,1/2+y,1/2+z
x,1/2-y,1/2+z
1/2+x,y,1/2+z
1/2-x,-y,1/2+z
1/2+x,-y,1/2-z
1/2-x,y,1/2-z
1/2-x,-y,1/2-z
1/2+x,y,1/2-z
1/2-x,y,1/2+z
1/2+x,-y,1/2+z
1/2+x,1/2+y,z
1/2-x,1/2-y,z
1/2+x,1/2-y,-z
1/2-x,1/2+y,-z
1/2-x,1/2-y,-z
1/2+x,1/2+y,-z
1/2-x,1/2+y,z
1/2+x,1/2-y,z
loop_
_atom_site_type_symbol
_atom_site_label
_atom_site_fract_x
_atom_site_fract_y
_atom_site_fract_z
Si Si1 0.224965 0.409102 0.685222
Si Si2 0.500000 0.909251 0.369579
Si Si3 0.395204 0.186748 0.151404
Si Si4 0.197707 0.596449 0.075217
Si Si5 0.500000 0.735342 0.575604
Si Si6 0.892652 0.363960 0.704468
O O1 0.248432 0.500000 0.687940
O O2 0.250000 0.362573 0.750000
O O3 0.249967 0.373416 0.617384
O O4 0.160342 0.414384 0.684804
O O5 0.500000 0.834671 0.421368
O O6 0.553632 0.902703 0.325630
O O7 0.500000 0.000000 0.403052
O O8 0.353032 0.146166 0.102358
O O9 0.450149 0.194164 0.111592
O O10 0.377885 0.275583 0.176063
O O11 0.402237 0.132486 0.217004
O O12 0.185856 0.500000 0.079893
O O13 0.208746 0.622363 0.000000
O O14 0.500000 0.709190 0.500000
#
# Coordination Sequence:
#
# PCOD8284454 Si02
#       6
#    32  16  32  32  16  32
#     4  10  19  34  56  81 113 149 190 232 276 329
#     4  10  21  36  57  84 111 141 188 238 278 325
#     4  10  20  36  56  82 112 146 185 231 279 340
#     4  10  21  37  56  81 115 151 186 231 285 339
#     4  10  21  38  58  79 113 153 184 223 282 340
#     4  10  20  35  57  85 112 144 183 237 286 327
#
# _framework density 19.462261999999999
#
# number of rings (size 3 to 8) (size 9 to 14) (size 15 to 20)
#    0.000    2.000    2.000    1.800    0.000    4.200 
#    0.000    6.500    0.000    6.600    0.000    0.000 
#    0.000    0.000    0.000    0.000    0.000    0.000 
#
# Total GULP energy -495708.228398 kJ/mol
# GULP energy per Si atom -12392.705710 kJ/mol
# Density = 1.941797 g / cm^3
# Si number density = 19.462262 Si / 1000 Ang^3
#
#
#
# Elastic Constant Matrix: (Units=GPa)
#
#
# Indices 1 2 3 4 5 6 
#
# 1 152.9779 28.4936 75.1204 0.0000 0.0000 0.0000
# 2 28.4936 46.5710 31.0938 0.0000 0.0000 0.0000
# 3 75.1204 31.0938 171.0872 0.0000 0.0000 0.0000
# 4 0.0000 0.0000 0.0000 20.5343 0.0000 0.0000
# 5 0.0000 0.0000 0.0000 0.0000 23.7129 0.0000
# 6 0.0000 0.0000 0.0000 0.0000 0.0000 23.0702
#
#
#
# Elastic Compliance Matrix: (Units=1/GPa)
#
#
# Indices 1 2 3 4 5 6 
#
# 1 0.008725 -0.003164 -0.003256 0.000000 0.000000 0.000000
# 2 -0.003164 0.025586 -0.003261 0.000000 0.000000 0.000000
# 3 -0.003256 -0.003261 0.007867 0.000000 0.000000 0.000000
# 4 0.000000 0.000000 0.000000 0.048699 0.000000 0.000000
# 5 0.000000 0.000000 0.000000 0.000000 0.042171 0.000000
# 6 0.000000 0.000000 0.000000 0.000000 0.000000 0.043346
#
#
# Mechanical properties :
#
#
# Convention : Reuss Voigt Hill
#
# Bulk Modulus (GPa) = 43.82864 71.11684 57.47274
# Shear Modulus (GPa) = 24.58681 29.19205 26.88943
#
# Velocity S-wave (km/s) = 3.55816 3.87710 3.72105
# Velocity P-wave (km/s) = 6.28087 7.52746 6.93225
#
# Compressibility (1/GPa) = 0.02281613
#
# Stress axis : x y z
#
# Youngs Moduli (GPa) = 114.61170 39.08436 127.11118
#
# Poissons Ratio (x) = 0.12368 0.41386
# Poissons Ratio (y) = 0.36269 0.41445
# Poissons Ratio (z) = 0.37316 0.12744
#
# Static dielectric constant tensor:
#      x y z
#    x 3.468530 0.000000 0.000000 
#    y 0.000000 3.451210 0.000000 
#    z 0.000000 0.000000 3.695060 
# 
# 
# High freq. dielectric constant tensor:
#      x y z
#    x 1.764430 0.000000 0.000000 
#    y 0.000000 1.744350 0.000000 
#    z 0.000000 0.000000 1.759820 
# 
# From -- ./inp_files/24872.got.cif
#   From: 2010.03.12/outbox.cif.g09.slc.cpg/sg69_13_cif.got.tgz:24872.got - 2010.04.10 23:52:46.
