data_PCOD8284744
_publ_section_title
;
Structure prediction by ZEFSAII (Michael W. Deem and Ramdas Pophale) SiO2 
 PCOD8284744
Probable space group: F M M M
;
_chemical_formula_sum "Si O2"
_cell_formula_units_Z 160
_cell_length_a 26.857742
_cell_length_b 17.909827
_cell_length_c 21.277007
_cell_angle_alpha 90.000000
_cell_angle_beta 90.000000
_cell_angle_gamma 90.000000
_cell_volume 10234.612988
_symmetry_space_group_name_H-M "F M M M"
_symmetry_group_IT_number 69
_symmetry_cell_setting 'orthorhombic'
loop_
_space_group_symop_operation_xyz
x,y,z
-x,-y,z
x,-y,-z
-x,y,-z
-x,-y,-z
x,y,-z
-x,y,z
x,-y,z
x,1/2+y,1/2+z
-x,1/2-y,1/2+z
x,1/2-y,1/2-z
-x,1/2+y,1/2-z
-x,1/2-y,1/2-z
x,1/2+y,1/2-z
-x,1/2+y,1/2+z
x,1/2-y,1/2+z
1/2+x,y,1/2+z
1/2-x,-y,1/2+z
1/2+x,-y,1/2-z
1/2-x,y,1/2-z
1/2-x,-y,1/2-z
1/2+x,y,1/2-z
1/2-x,y,1/2+z
1/2+x,-y,1/2+z
1/2+x,1/2+y,z
1/2-x,1/2-y,z
1/2+x,1/2-y,-z
1/2-x,1/2+y,-z
1/2-x,1/2-y,-z
1/2+x,1/2+y,-z
1/2-x,1/2+y,z
1/2+x,1/2-y,z
loop_
_atom_site_type_symbol
_atom_site_label
_atom_site_fract_x
_atom_site_fract_y
_atom_site_fract_z
Si Si1 0.444092 0.586694 0.862414
Si Si2 0.191129 0.411712 0.500000
Si Si3 0.139390 0.825398 0.212102
Si Si4 0.730528 0.327202 0.883287
Si Si5 0.419497 0.912023 0.500000
Si Si6 0.295541 0.918452 0.203124
O O1 0.500000 0.594029 0.835405
O O2 0.425620 0.500000 0.857435
O O3 0.408523 0.642040 0.823868
O O4 0.446035 0.613480 0.935540
O O5 0.192607 0.500000 0.500000
O O6 0.217057 0.384040 0.437470
O O7 0.135807 0.378600 0.500000
O O8 0.125587 0.750000 0.250000
O O9 0.184815 0.811622 0.164000
O O10 0.155649 0.887137 0.262591
O O11 0.750000 0.250000 0.912564
O O12 0.778914 0.361998 0.850583
O O13 0.417477 0.000000 0.500000
O O14 0.250000 0.927200 0.250000
O O15 0.309191 0.000000 0.175418
#
# Coordination Sequence:
#
# PCOD8284744 Si02
#       6
#    32  16  32  32  16  32
#     4  10  20  34  53  75  99 128 164 208 256 303
#     4  11  21  32  51  75 101 131 167 205 245 297
#     4  11  20  32  50  70 100 133 168 207 246 296
#     4  11  20  33  49  71 100 135 167 202 249 294
#     4   9  17  31  50  72  97 125 155 197 250 298
#     4   9  18  29  46  68  94 130 170 205 237 283
#
# _framework density 15.633224
#
# number of rings (size 3 to 8) (size 9 to 14) (size 15 to 20)
#    0.000    1.800    4.000    1.800    0.000    3.200 
#    0.000    0.000    0.000    0.000    0.000    0.000 
#    0.000    0.000    0.000    0.000    0.000   25.200 
#
# Total GULP energy -495775.080239 kJ/mol
# GULP energy per Si atom -12394.377006 kJ/mol
# Density = 1.559764 g / cm^3
# Si number density = 15.633224 Si / 1000 Ang^3
#
#
#
# Elastic Constant Matrix: (Units=GPa)
#
#
# Indices 1 2 3 4 5 6 
#
# 1 77.4405 35.9258 33.7058 0.0000 0.0000 0.0000
# 2 35.9258 98.8777 35.0374 0.0000 0.0000 0.0000
# 3 33.7058 35.0374 74.0514 0.0000 0.0000 0.0000
# 4 0.0000 0.0000 0.0000 33.0626 0.0000 0.0000
# 5 0.0000 0.0000 0.0000 0.0000 20.8266 0.0000
# 6 0.0000 0.0000 0.0000 0.0000 0.0000 1423.3276
#
#
#
# Elastic Compliance Matrix: (Units=1/GPa)
#
#
# Indices 1 2 3 4 5 6 
#
# 1 0.017468 -0.004240 -0.005944 0.000000 0.000000 0.000000
# 2 -0.004240 0.013180 -0.004306 0.000000 0.000000 0.000000
# 3 -0.005944 -0.004306 0.018247 0.000000 0.000000 0.000000
# 4 0.000000 0.000000 0.000000 0.030246 0.000000 0.000000
# 5 0.000000 0.000000 0.000000 0.000000 0.048016 0.000000
# 6 0.000000 0.000000 0.000000 0.000000 0.000000 0.000703
#
#
# Mechanical properties :
#
#
# Convention : Reuss Voigt Hill
#
# Bulk Modulus (GPa) = 50.21750 51.07863 50.64807
# Shear Modulus (GPa) = 30.58520 305.15673 167.87097
#
# Velocity S-wave (km/s) = 4.42795 13.98647 10.37372
# Velocity P-wave (km/s) = 7.63769 17.13396 13.26474
#
# Compressibility (1/GPa) = 0.01991337
#
# Stress axis : x y z
#
# Youngs Moduli (GPa) = 57.24917 75.87261 54.80266
#
# Poissons Ratio (x) = 0.32171 0.32577
# Poissons Ratio (y) = 0.24275 0.23599
# Poissons Ratio (z) = 0.34031 0.32672
#
# Static dielectric constant tensor:
#      x y z
#    x 2.873160 0.000000 0.000000 
#    y 0.000000 3.000410 0.000000 
#    z 0.000000 0.000000 2.996020 
# 
# 
# High freq. dielectric constant tensor:
#      x y z
#    x 1.583230 0.000000 0.000000 
#    y 0.000000 1.595990 0.000000 
#    z 0.000000 0.000000 1.591130 
# 
# From -- ./inp_files/23231.got.cif
#   From: 2010.03.12/outbox.cif.g09.slc.cpg/sg69_12_cif.got.tgz:23231.got - 2010.04.10 23:52:46.
