data_PCOD8284509
_publ_section_title
;
Structure prediction by ZEFSAII (Michael W. Deem and Ramdas Pophale) SiO2 
 PCOD8284509
Probable space group: F M M M
;
_chemical_formula_sum "Si O2"
_cell_formula_units_Z 176
_cell_length_a 27.341520
_cell_length_b 18.763067
_cell_length_c 15.927492
_cell_angle_alpha 90.000000
_cell_angle_beta 90.000000
_cell_angle_gamma 90.000000
_cell_volume 8170.974961
_symmetry_space_group_name_H-M "F M M M"
_symmetry_group_IT_number 69
_symmetry_cell_setting 'orthorhombic'
loop_
_space_group_symop_operation_xyz
x,y,z
-x,-y,z
x,-y,-z
-x,y,-z
-x,-y,-z
x,y,-z
-x,y,z
x,-y,z
x,1/2+y,1/2+z
-x,1/2-y,1/2+z
x,1/2-y,1/2-z
-x,1/2+y,1/2-z
-x,1/2-y,1/2-z
x,1/2+y,1/2-z
-x,1/2+y,1/2+z
x,1/2-y,1/2+z
1/2+x,y,1/2+z
1/2-x,-y,1/2+z
1/2+x,-y,1/2-z
1/2-x,y,1/2-z
1/2-x,-y,1/2-z
1/2+x,y,1/2-z
1/2-x,y,1/2+z
1/2+x,-y,1/2+z
1/2+x,1/2+y,z
1/2-x,1/2-y,z
1/2+x,1/2-y,-z
1/2-x,1/2+y,-z
1/2-x,1/2-y,-z
1/2+x,1/2+y,-z
1/2-x,1/2+y,z
1/2+x,1/2-y,z
loop_
_atom_site_type_symbol
_atom_site_label
_atom_site_fract_x
_atom_site_fract_y
_atom_site_fract_z
Si Si1 0.219992 0.321991 0.594535
Si Si2 0.500000 0.918549 0.100138
Si Si3 0.902525 0.150323 0.405366
Si Si4 0.117423 0.707220 0.664233
Si Si5 0.057224 0.581148 0.596846
Si Si6 0.305314 0.080639 0.899784
O O1 0.202321 0.341368 0.500000
O O2 0.250000 0.250000 0.592360
O O3 0.173709 0.315275 0.654961
O O4 0.255726 0.382296 0.632844
O O5 0.451932 0.879526 0.138239
O O6 0.500000 0.000000 0.130633
O O7 0.500000 0.912293 0.000000
O O8 0.903216 0.121918 0.500000
O O9 0.899696 0.236192 0.406287
O O10 0.853707 0.118527 0.360879
O O11 0.108325 0.750000 0.750000
O O12 0.085351 0.635812 0.657681
O O13 0.071391 0.595965 0.500000
O O14 0.071831 0.500000 0.620583
O O15 0.000000 0.592821 0.610664
O O16 0.304921 0.000000 0.868553
O O17 0.306388 0.088037 0.000000
#
# Coordination Sequence:
#
# PCOD8284509 Si02
#       6
#    32  16  32  32  32  32
#     4  10  19  36  59  83 112 151 205 257 306 359
#     4   9  18  32  55  86 117 149 189 238 286 346
#     4  10  19  35  57  85 117 154 203 252 301 362
#     4  12  25  38  58  89 128 162 198 248 316 393
#     4   9  20  42  71  97 122 160 215 274 317 354
#     4   9  17  31  56  86 114 147 193 254 312 359
#
# _framework density 21.539656999999998
#
# number of rings (size 3 to 8) (size 9 to 14) (size 15 to 20)
#    0.000    2.091    1.818    2.727    1.273    3.636 
#    0.000    3.636    0.000    1.091    0.000    0.000 
#    0.000    0.000    0.000    0.000    0.000    0.000 
#
# Total GULP energy -545500.195104 kJ/mol
# GULP energy per Si atom -12397.731707 kJ/mol
# Density = 2.149063 g / cm^3
# Si number density = 21.539657 Si / 1000 Ang^3
#
#
#
# Elastic Constant Matrix: (Units=GPa)
#
#
# Indices 1 2 3 4 5 6 
#
# 1 165.7451 95.7584 34.4707 0.0000 0.0000 0.0000
# 2 95.7584 168.7632 24.3551 0.0000 0.0000 0.0000
# 3 34.4707 24.3551 47.3743 0.0000 0.0000 0.0000
# 4 0.0000 0.0000 0.0000 22.5698 0.0000 0.0000
# 5 0.0000 0.0000 0.0000 0.0000 66.3424 0.0000
# 6 0.0000 0.0000 0.0000 0.0000 0.0000 43.8367
#
#
#
# Elastic Compliance Matrix: (Units=1/GPa)
#
#
# Indices 1 2 3 4 5 6 
#
# 1 0.009834 -0.004912 -0.004630 0.000000 0.000000 0.000000
# 2 -0.004912 0.008854 -0.000978 0.000000 0.000000 0.000000
# 3 -0.004630 -0.000978 0.024980 0.000000 0.000000 0.000000
# 4 0.000000 0.000000 0.000000 0.044307 0.000000 0.000000
# 5 0.000000 0.000000 0.000000 0.000000 0.015073 0.000000
# 6 0.000000 0.000000 0.000000 0.000000 0.000000 0.022812
#
#
# Mechanical properties :
#
#
# Convention : Reuss Voigt Hill
#
# Bulk Modulus (GPa) = 44.19252 76.78343 60.48798
# Shear Modulus (GPa) = 32.37446 41.70301 37.03873
#
# Velocity S-wave (km/s) = 3.88108 4.40489 4.15126
# Velocity P-wave (km/s) = 6.37535 7.84829 7.14985
#
# Compressibility (1/GPa) = 0.02262826
#
# Stress axis : x y z
#
# Youngs Moduli (GPa) = 101.68685 112.94896 40.03154
#
# Poissons Ratio (x) = 0.55478 0.18536
# Poissons Ratio (y) = 0.49946 0.03914
# Poissons Ratio (z) = 0.47085 0.11043
#
# Static dielectric constant tensor:
#      x y z
#    x 4.462570 0.000000 0.000000 
#    y 0.000000 4.006950 0.000000 
#    z 0.000000 0.000000 3.383060 
# 
# 
# High freq. dielectric constant tensor:
#      x y z
#    x 1.855810 0.000000 0.000000 
#    y 0.000000 1.851430 0.000000 
#    z 0.000000 0.000000 1.798600 
# 
# From -- ./inp_files/26722.got.cif
#   From: 2010.03.12/outbox.cif.g09.slc.cpg/sg69_14_cif.got.tgz:26722.got - 2010.04.10 23:52:46.
