data_PCOD8284614
_publ_section_title
;
Structure prediction by ZEFSAII (Michael W. Deem and Ramdas Pophale) SiO2 
 PCOD8284614
Probable space group: F M M M
;
_chemical_formula_sum "Si O2"
_cell_formula_units_Z 160
_cell_length_a 33.838362
_cell_length_b 7.928539
_cell_length_c 33.808051
_cell_angle_alpha 90.000000
_cell_angle_beta 90.000000
_cell_angle_gamma 90.000000
_cell_volume 9070.320514
_symmetry_space_group_name_H-M "F M M M"
_symmetry_group_IT_number 69
_symmetry_cell_setting 'orthorhombic'
loop_
_space_group_symop_operation_xyz
x,y,z
-x,-y,z
x,-y,-z
-x,y,-z
-x,-y,-z
x,y,-z
-x,y,z
x,-y,z
x,1/2+y,1/2+z
-x,1/2-y,1/2+z
x,1/2-y,1/2-z
-x,1/2+y,1/2-z
-x,1/2-y,1/2-z
x,1/2+y,1/2-z
-x,1/2+y,1/2+z
x,1/2-y,1/2+z
1/2+x,y,1/2+z
1/2-x,-y,1/2+z
1/2+x,-y,1/2-z
1/2-x,y,1/2-z
1/2-x,-y,1/2-z
1/2+x,y,1/2-z
1/2-x,y,1/2+z
1/2+x,-y,1/2+z
1/2+x,1/2+y,z
1/2-x,1/2-y,z
1/2+x,1/2-y,-z
1/2-x,1/2+y,-z
1/2-x,1/2-y,-z
1/2+x,1/2+y,-z
1/2-x,1/2+y,z
1/2+x,1/2-y,z
loop_
_atom_site_type_symbol
_atom_site_label
_atom_site_fract_x
_atom_site_fract_y
_atom_site_fract_z
Si Si1 0.955595 0.500000 0.889851
Si Si2 0.293660 0.809079 0.141558
Si Si3 0.852409 0.815846 0.081324
Si Si4 0.352842 0.805184 0.705095
Si Si5 0.419239 0.812674 0.647094
Si Si6 0.887954 0.500000 0.044670
O O1 0.950692 0.333509 0.862479
O O2 0.925759 0.500000 0.926669
O O3 0.000000 0.500000 0.906787
O O4 0.250000 0.750000 0.152190
O O5 0.311177 0.704619 0.104655
O O6 0.319888 0.796577 0.181049
O O7 0.293430 0.000000 0.127248
O O8 0.886741 0.811163 0.113254
O O9 0.860589 0.665571 0.050488
O O10 0.851802 0.000000 0.059988
O O11 0.352086 0.750000 0.750000
O O12 0.396840 0.769705 0.688097
O O13 0.341980 0.000000 0.700415
O O14 0.439247 0.000000 0.649068
O O15 0.903996 0.500000 0.000000
#
# Coordination Sequence:
#
# PCOD8284614 Si02
#       6
#    16  32  32  32  32  16
#     4  10  20  33  56  82 105 137 169 207 259 313
#     4  11  20  32  50  75 105 139 179 223 266 311
#     4   9  17  33  53  76 101 135 181 217 249 302
#     4  10  20  32  49  75 102 138 180 223 270 312
#     4   8  17  32  51  74 101 133 178 217 248 302
#     4  10  20  35  56  82 109 137 167 207 261 315
#
# _framework density 17.639949999999999
#
# number of rings (size 3 to 8) (size 9 to 14) (size 15 to 20)
#    0.000    2.400    1.000    3.600    5.600    1.400 
#    0.000    2.000    0.000    1.200    0.000    5.600 
#    0.000    0.000    0.000    0.000    0.000    0.000 
#
# Total GULP energy -495818.879372 kJ/mol
# GULP energy per Si atom -12395.471984 kJ/mol
# Density = 1.759980 g / cm^3
# Si number density = 17.639950 Si / 1000 Ang^3
#
#
#
# Elastic Constant Matrix: (Units=GPa)
#
#
# Indices 1 2 3 4 5 6 
#
# 1 60.9710 41.3652 46.9062 0.0006 -0.0018 -0.0034
# 2 41.3652 138.9308 34.7723 0.0004 -0.0004 -0.0055
# 3 46.9062 34.7723 60.9067 -0.0001 0.0004 0.0007
# 4 0.0006 0.0004 -0.0001 15.8895 0.0001 -0.0007
# 5 -0.0018 -0.0004 0.0004 0.0001 20.8939 0.0016
# 6 -0.0034 -0.0055 0.0007 -0.0007 0.0016 19.3592
#
#
#
# Elastic Compliance Matrix: (Units=1/GPa)
#
#
# Indices 1 2 3 4 5 6 
#
# 1 0.043364 -0.005312 -0.030364 -0.000002 0.000004 0.000007
# 2 -0.005312 0.009048 -0.001075 0.000000 0.000000 0.000002
# 3 -0.030364 -0.001075 0.040416 0.000002 -0.000003 -0.000007
# 4 -0.000002 0.000000 0.000002 0.062935 0.000000 0.000002
# 5 0.000004 0.000000 -0.000003 0.000000 0.047861 -0.000004
# 6 0.000007 0.000002 -0.000007 0.000002 -0.000004 0.051655
#
#
# Mechanical properties :
#
#
# Convention : Reuss Voigt Hill
#
# Bulk Modulus (GPa) = 51.73827 56.32175 54.03001
# Shear Modulus (GPa) = 14.91542 20.41284 17.66413
#
# Velocity S-wave (km/s) = 2.91099 3.40545 3.16788
# Velocity P-wave (km/s) = 6.37905 6.88916 6.63901
#
# Compressibility (1/GPa) = 0.01932805
#
# Stress axis : x y z
#
# Youngs Moduli (GPa) = 23.06043 110.51653 24.74242
#
# Poissons Ratio (x) = 0.58703 0.75127
# Poissons Ratio (y) = 0.12249 0.02660
# Poissons Ratio (z) = 0.70020 0.11882
#
# Static dielectric constant tensor:
#      x y z
#    x 3.111550 0.000010 0.000010 
#    y 0.000010 3.779180 -0.000010 
#    z 0.000010 -0.000010 3.995480 
# 
# 
# High freq. dielectric constant tensor:
#      x y z
#    x 1.652910 0.000000 0.000000 
#    y 0.000000 1.708340 0.000000 
#    z 0.000000 0.000000 1.652250 
# 
# From -- ./inp_files/47496.got.cif
#   From: 2010.03.12/outbox.cif.g09.slc.cpg/sg69_24_cif.got.tgz:47496.got - 2010.04.10 23:52:46.
