data_PCOD8284285
_publ_section_title
;
Structure prediction by ZEFSAII (Michael W. Deem and Ramdas Pophale) SiO2 
 PCOD8284285
Probable space group: F M M M
;
_chemical_formula_sum "Si O2"
_cell_formula_units_Z 160
_cell_length_a 17.711935
_cell_length_b 32.938754
_cell_length_c 15.816390
_cell_angle_alpha 90.000000
_cell_angle_beta 90.000000
_cell_angle_gamma 90.000000
_cell_volume 9227.425378
_symmetry_space_group_name_H-M "F M M M"
_symmetry_group_IT_number 69
_symmetry_cell_setting 'orthorhombic'
loop_
_space_group_symop_operation_xyz
x,y,z
-x,-y,z
x,-y,-z
-x,y,-z
-x,-y,-z
x,y,-z
-x,y,z
x,-y,z
x,1/2+y,1/2+z
-x,1/2-y,1/2+z
x,1/2-y,1/2-z
-x,1/2+y,1/2-z
-x,1/2-y,1/2-z
x,1/2+y,1/2-z
-x,1/2+y,1/2+z
x,1/2-y,1/2+z
1/2+x,y,1/2+z
1/2-x,-y,1/2+z
1/2+x,-y,1/2-z
1/2-x,y,1/2-z
1/2-x,-y,1/2-z
1/2+x,y,1/2-z
1/2-x,y,1/2+z
1/2+x,-y,1/2+z
1/2+x,1/2+y,z
1/2-x,1/2-y,z
1/2+x,1/2-y,-z
1/2-x,1/2+y,-z
1/2-x,1/2-y,-z
1/2+x,1/2+y,-z
1/2-x,1/2+y,z
1/2+x,1/2-y,z
loop_
_atom_site_type_symbol
_atom_site_label
_atom_site_fract_x
_atom_site_fract_y
_atom_site_fract_z
Si Si1 0.585162 0.797045 0.227485
Si Si2 0.289739 0.500000 0.661006
Si Si3 0.194330 0.148217 0.171970
Si Si4 0.323223 0.439353 0.901412
Si Si5 0.088992 0.500000 0.711923
Si Si6 0.292610 0.788692 0.095195
O O1 0.500000 0.812134 0.213182
O O2 0.587555 0.750000 0.250000
O O3 0.621274 0.826135 0.298736
O O4 0.630598 0.801239 0.140818
O O5 0.250000 0.500000 0.750000
O O6 0.260565 0.459654 0.611293
O O7 0.377790 0.500000 0.690065
O O8 0.250000 0.140141 0.250000
O O9 0.172202 0.106687 0.127897
O O10 0.235867 0.173672 0.099418
O O11 0.384823 0.461290 0.842562
O O12 0.345351 0.443022 0.000000
O O13 0.000000 0.500000 0.723229
O O14 0.250000 0.750000 0.138054
O O15 0.314505 0.777897 0.000000
#
# Coordination Sequence:
#
# PCOD8284285 Si02
#       6
#    32  16  32  32  16  32
#     4  10  20  34  50  70 100 135 168 207 262 320
#     4   8  16  33  54  76 104 137 175 212 246 304
#     4  10  19  32  54  75 101 132 177 219 258 307
#     4  10  19  33  54  80 107 137 174 218 264 311
#     4  10  20  34  54  78 110 146 176 208 258 316
#     4  10  19  32  52  74  96 126 169 219 265 308
#
# _framework density 17.339614000000001
#
# number of rings (size 3 to 8) (size 9 to 14) (size 15 to 20)
#    0.000    2.400    2.000    3.600    0.000    2.000 
#    0.000    0.000    0.000    3.000    0.000    0.000 
#    0.000    0.000    0.000    0.000    0.000    0.000 
#
# Total GULP energy -495661.605719 kJ/mol
# GULP energy per Si atom -12391.540143 kJ/mol
# Density = 1.730015 g / cm^3
# Si number density = 17.339614 Si / 1000 Ang^3
#
#
#
# Elastic Constant Matrix: (Units=GPa)
#
#
# Indices 1 2 3 4 5 6 
#
# 1 141.4746 44.0072 39.8366 0.0000 0.0000 0.0000
# 2 44.0072 119.8381 23.0789 0.0000 0.0000 0.0000
# 3 39.8366 23.0789 65.9454 0.0000 0.0000 0.0000
# 4 0.0000 0.0000 0.0000 24.1208 0.0000 0.0000
# 5 0.0000 0.0000 0.0000 0.0000 15.0118 0.0000
# 6 0.0000 0.0000 0.0000 0.0000 0.0000 12.6674
#
#
#
# Elastic Compliance Matrix: (Units=1/GPa)
#
#
# Indices 1 2 3 4 5 6 
#
# 1 0.009147 -0.002461 -0.004665 0.000000 0.000000 0.000000
# 2 -0.002461 0.009610 -0.001877 0.000000 0.000000 0.000000
# 3 -0.004665 -0.001877 0.018639 0.000000 0.000000 0.000000
# 4 0.000000 0.000000 0.000000 0.041458 0.000000 0.000000
# 5 0.000000 0.000000 0.000000 0.000000 0.066614 0.000000
# 6 0.000000 0.000000 0.000000 0.000000 0.000000 0.078943
#
#
# Mechanical properties :
#
#
# Convention : Reuss Voigt Hill
#
# Bulk Modulus (GPa) = 51.56833 60.12260 55.84546
# Shear Modulus (GPa) = 20.09013 25.04903 22.56958
#
# Velocity S-wave (km/s) = 3.40755 3.80493 3.61171
# Velocity P-wave (km/s) = 6.72953 7.35202 7.04765
#
# Compressibility (1/GPa) = 0.01939175
#
# Stress axis : x y z
#
# Youngs Moduli (GPa) = 109.32178 104.06216 53.65214
#
# Poissons Ratio (x) = 0.25607 0.25026
# Poissons Ratio (y) = 0.26902 0.10068
# Poissons Ratio (z) = 0.50994 0.19528
#
# Static dielectric constant tensor:
#      x y z
#    x 3.637520 0.000000 0.000000 
#    y 0.000000 3.333050 0.000000 
#    z 0.000000 0.000000 3.403220 
# 
# 
# High freq. dielectric constant tensor:
#      x y z
#    x 1.649130 0.000000 0.000000 
#    y 0.000000 1.676410 0.000000 
#    z 0.000000 0.000000 1.664260 
# 
# From -- ./inp_files/23498.got.cif
#   From: 2010.03.12/outbox.cif.g09.slc.cpg/sg69_12_cif.got.tgz:23498.got - 2010.04.10 23:52:46.
