data_PCOD8284769
_publ_section_title
;
Structure prediction by ZEFSAII (Michael W. Deem and Ramdas Pophale) SiO2 
 PCOD8284769
Probable space group: F M M M
;
_chemical_formula_sum "Si O2"
_cell_formula_units_Z 144
_cell_length_a 15.055438
_cell_length_b 26.299619
_cell_length_c 16.580744
_cell_angle_alpha 90.000000
_cell_angle_beta 90.000000
_cell_angle_gamma 90.000000
_cell_volume 6565.183445
_symmetry_space_group_name_H-M "F M M M"
_symmetry_group_IT_number 69
_symmetry_cell_setting 'orthorhombic'
loop_
_space_group_symop_operation_xyz
x,y,z
-x,-y,z
x,-y,-z
-x,y,-z
-x,-y,-z
x,y,-z
-x,y,z
x,-y,z
x,1/2+y,1/2+z
-x,1/2-y,1/2+z
x,1/2-y,1/2-z
-x,1/2+y,1/2-z
-x,1/2-y,1/2-z
x,1/2+y,1/2-z
-x,1/2+y,1/2+z
x,1/2-y,1/2+z
1/2+x,y,1/2+z
1/2-x,-y,1/2+z
1/2+x,-y,1/2-z
1/2-x,y,1/2-z
1/2-x,-y,1/2-z
1/2+x,y,1/2-z
1/2-x,y,1/2+z
1/2+x,-y,1/2+z
1/2+x,1/2+y,z
1/2-x,1/2-y,z
1/2+x,1/2-y,-z
1/2-x,1/2+y,-z
1/2-x,1/2-y,-z
1/2+x,1/2+y,-z
1/2-x,1/2+y,z
1/2+x,1/2-y,z
loop_
_atom_site_type_symbol
_atom_site_label
_atom_site_fract_x
_atom_site_fract_y
_atom_site_fract_z
Si Si1 0.102326 0.733604 0.912010
Si Si2 0.269169 0.089918 0.405808
Si Si3 0.102031 0.000000 0.904388
Si Si4 0.332325 0.321911 0.808401
Si Si5 0.402243 0.627047 0.337091
O O1 0.144156 0.765992 0.839596
O O2 0.117707 0.674276 0.896300
O O3 0.000000 0.748013 0.912566
O O4 0.143769 0.746252 0.000000
O O5 0.249380 0.082927 0.500000
O O6 0.311787 0.144714 0.387618
O O7 0.175302 0.085549 0.355995
O O8 0.340817 0.048509 0.374799
O O9 0.000000 0.000000 0.868948
O O10 0.094238 0.000000 0.000000
O O11 0.250000 0.316351 0.750000
O O12 0.405519 0.351520 0.754763
O O13 0.500000 0.603511 0.354817
#
# Coordination Sequence:
#
# PCOD8284769 Si02
#       5
#    32  32  16  32  32
#     4  10  20  34  54  80 111 152 201 244 279 322
#     4  10  21  38  61  86 111 143 187 237 289 345
#     4   9  20  40  64  89 115 141 177 236 302 348
#     4  10  21  35  53  81 116 153 194 237 284 336
#     4  10  21  37  55  80 120 162 193 228 280 341
#
# _framework density 21.933889000000001
#
# number of rings (size 3 to 8) (size 9 to 14) (size 15 to 20)
#    0.000    2.111    0.000    2.667    0.000   11.111 
#    0.000   13.333    0.000    2.000    0.000    0.000 
#    0.000    0.000    0.000    0.000    0.000    0.444 
#
# Total GULP energy -446116.263660 kJ/mol
# GULP energy per Si atom -12392.118435 kJ/mol
# Density = 2.188397 g / cm^3
# Si number density = 21.933889 Si / 1000 Ang^3
#
#
#
# Elastic Constant Matrix: (Units=GPa)
#
#
# Indices 1 2 3 4 5 6 
#
# 1 155.3725 64.1015 26.9111 0.0000 0.0000 0.0000
# 2 64.1015 49.2276 12.9280 0.0000 0.0000 0.0000
# 3 26.9111 12.9280 87.4976 0.0000 0.0000 0.0000
# 4 0.0000 0.0000 0.0000 21.9100 0.0000 0.0000
# 5 0.0000 0.0000 0.0000 0.0000 24.8321 0.0000
# 6 0.0000 0.0000 0.0000 0.0000 0.0000 38.3373
#
#
#
# Elastic Compliance Matrix: (Units=1/GPa)
#
#
# Indices 1 2 3 4 5 6 
#
# 1 0.014145 -0.017974 -0.001695 0.000000 0.000000 0.000000
# 2 -0.017974 0.043973 -0.000969 0.000000 0.000000 0.000000
# 3 -0.001695 -0.000969 0.012093 0.000000 0.000000 0.000000
# 4 0.000000 0.000000 0.000000 0.045641 0.000000 0.000000
# 5 0.000000 0.000000 0.000000 0.000000 0.040270 0.000000
# 6 0.000000 0.000000 0.000000 0.000000 0.000000 0.026084
#
#
# Mechanical properties :
#
#
# Convention : Reuss Voigt Hill
#
# Bulk Modulus (GPa) = 34.55911 55.55321 45.05616
# Shear Modulus (GPa) = 21.44739 29.55969 25.50354
#
# Velocity S-wave (km/s) = 3.13040 3.67505 3.41361
# Velocity P-wave (km/s) = 5.37179 6.58715 6.01027
#
# Compressibility (1/GPa) = 0.02893593
#
# Stress axis : x y z
#
# Youngs Moduli (GPa) = 70.69542 22.74117 82.69024
#
# Poissons Ratio (x) = 0.40875 0.14015
# Poissons Ratio (y) = 1.27068 0.08013
# Poissons Ratio (z) = 0.11982 0.02204
#
# Static dielectric constant tensor:
#      x y z
#    x 4.400270 0.000000 0.000000 
#    y 0.000000 3.731220 0.000000 
#    z 0.000000 0.000000 4.131270 
# 
# 
# High freq. dielectric constant tensor:
#      x y z
#    x 1.874190 0.000000 0.000000 
#    y 0.000000 1.824410 0.000000 
#    z 0.000000 0.000000 1.861220 
# 
# From -- ./inp_files/22856.got.cif
#   From: 2010.03.12/outbox.cif.g09.slc.cpg/sg69_12_cif.got.tgz:22856.got - 2010.04.10 23:52:46.
