data_PCOD8284176
_publ_section_title
;
Structure prediction by ZEFSAII (Michael W. Deem and Ramdas Pophale) SiO2 
 PCOD8284176
Probable space group: F M M M
;
_chemical_formula_sum "Si O2"
_cell_formula_units_Z 144
_cell_length_a 29.083574
_cell_length_b 29.420104
_cell_length_c 9.749864
_cell_angle_alpha 90.000000
_cell_angle_beta 90.000000
_cell_angle_gamma 90.000000
_cell_volume 8342.390907
_symmetry_space_group_name_H-M "F M M M"
_symmetry_group_IT_number 69
_symmetry_cell_setting 'orthorhombic'
loop_
_space_group_symop_operation_xyz
x,y,z
-x,-y,z
x,-y,-z
-x,y,-z
-x,-y,-z
x,y,-z
-x,y,z
x,-y,z
x,1/2+y,1/2+z
-x,1/2-y,1/2+z
x,1/2-y,1/2-z
-x,1/2+y,1/2-z
-x,1/2-y,1/2-z
x,1/2+y,1/2-z
-x,1/2+y,1/2+z
x,1/2-y,1/2+z
1/2+x,y,1/2+z
1/2-x,-y,1/2+z
1/2+x,-y,1/2-z
1/2-x,y,1/2-z
1/2-x,-y,1/2-z
1/2+x,y,1/2-z
1/2-x,y,1/2+z
1/2+x,-y,1/2+z
1/2+x,1/2+y,z
1/2-x,1/2-y,z
1/2+x,1/2-y,-z
1/2-x,1/2+y,-z
1/2-x,1/2-y,-z
1/2+x,1/2+y,-z
1/2-x,1/2+y,z
1/2+x,1/2-y,z
loop_
_atom_site_type_symbol
_atom_site_label
_atom_site_fract_x
_atom_site_fract_y
_atom_site_fract_z
Si Si1 0.949956 0.446901 0.000000
Si Si2 0.109445 0.053054 0.758575
Si Si3 0.790598 0.053781 0.345348
Si Si4 0.447963 0.371372 0.850795
Si Si5 0.054581 0.790863 0.343498
O O1 0.920937 0.432433 0.870507
O O2 0.957531 0.500000 0.000000
O O3 0.000000 0.422360 0.000000
O O4 0.161863 0.066394 0.728325
O O5 0.087009 0.085867 0.871050
O O6 0.105070 0.000000 0.799864
O O7 0.788030 0.074288 0.500000
O O8 0.750000 0.073905 0.250000
O O9 0.786024 0.000000 0.357328
O O10 0.500000 0.388452 0.818785
O O11 0.430598 0.337380 0.732150
O O12 0.447627 0.346556 0.000000
O O13 0.074255 0.789852 0.500000
O O14 0.074764 0.750000 0.250000
O O15 0.000000 0.786955 0.348272
#
# Coordination Sequence:
#
# PCOD8284176 Si02
#       5
#    16  32  32  32  32
#     4   9  16  26  42  62  86 120 160 197 231 273
#     4  10  19  31  46  65  93 128 166 204 241 284
#     4   9  17  30  47  65  86 115 155 204 253 298
#     4  10  21  33  45  66  97 130 164 201 240 286
#     4   9  17  30  49  69  90 119 156 198 243 289
#
# _framework density 17.261239
#
# number of rings (size 3 to 8) (size 9 to 14) (size 15 to 20)
#    0.000    2.556    1.111    1.333    1.556    5.333 
#    0.000    3.333    0.000    0.000    0.000    0.000 
#    0.000    0.889    0.000    6.222    0.000    2.222 
#
# Total GULP energy -446033.487511 kJ/mol
# GULP energy per Si atom -12389.819098 kJ/mol
# Density = 1.722195 g / cm^3
# Si number density = 17.261239 Si / 1000 Ang^3
#
#
#
# Elastic Constant Matrix: (Units=GPa)
#
#
# Indices 1 2 3 4 5 6 
#
# 1 102.4191 33.4792 33.4512 -0.0053 0.0008 -0.0006
# 2 33.4792 72.8408 43.2768 -0.0011 -0.0009 -0.0021
# 3 33.4512 43.2768 111.9569 -0.0099 -0.0016 -0.0078
# 4 -0.0053 -0.0011 -0.0099 -8.4790 0.0058 -0.0027
# 5 0.0008 -0.0009 -0.0016 0.0058 15.0381 -0.0045
# 6 -0.0006 -0.0021 -0.0078 -0.0027 -0.0045 5.3644
#
#
#
# Elastic Compliance Matrix: (Units=1/GPa)
#
#
# Indices 1 2 3 4 5 6 
#
# 1 0.011779 -0.004313 -0.001852 -0.000005 -0.000001 -0.000003
# 2 -0.004313 0.019401 -0.006211 0.000008 0.000001 -0.000002
# 3 -0.001852 -0.006211 0.011886 -0.000012 0.000001 0.000015
# 4 -0.000005 0.000008 -0.000012 -0.117938 0.000046 -0.000059
# 5 -0.000001 0.000001 0.000001 0.000046 0.066498 0.000056
# 6 -0.000003 -0.000002 0.000015 -0.000059 0.000056 0.186414
#
#
# Mechanical properties :
#
#
# Convention : Reuss Voigt Hill
#
# Bulk Modulus (GPa) = 54.60393 56.40347 55.50370
# Shear Modulus (GPa) = 23.93533 14.18534 19.06033
#
# Velocity S-wave (km/s) = 3.72782 2.86982 3.32660
# Velocity P-wave (km/s) = 7.08741 6.61275 6.85419
#
# Compressibility (1/GPa) = 0.01831370
#
# Stress axis : x y z
#
# Youngs Moduli (GPa) = 84.89930 51.54367 84.13211
#
# Poissons Ratio (x) = 0.22233 0.15581
# Poissons Ratio (y) = 0.36621 0.52251
# Poissons Ratio (z) = 0.15723 0.32012
#
# Static dielectric constant tensor:
#      x y z
#    x 3.058030 0.000010 0.000010 
#    y 0.000010 2.886830 -0.000010 
#    z 0.000010 -0.000010 3.663510 
# 
# 
# High freq. dielectric constant tensor:
#      x y z
#    x 1.628880 0.000000 0.000000 
#    y 0.000000 1.625850 0.000000 
#    z 0.000000 0.000000 1.685220 
# 
# From -- ./inp_files/5622.got.cif
#   From: 2010.03.12/outbox.cif.g09.slc.cpg/sg69_3_cif.got.tgz:5622.got - 2010.04.10 23:52:46.
