data_PCOD8284081
_publ_section_title
;
Structure prediction by ZEFSAII (Michael W. Deem and Ramdas Pophale) SiO2 
 PCOD8284081
Probable space group: F M M M
;
_chemical_formula_sum "Si O2"
_cell_formula_units_Z 144
_cell_length_a 18.048065
_cell_length_b 19.913871
_cell_length_c 22.613864
_cell_angle_alpha 90.000000
_cell_angle_beta 90.000000
_cell_angle_gamma 90.000000
_cell_volume 8127.577360
_symmetry_space_group_name_H-M "F M M M"
_symmetry_group_IT_number 69
_symmetry_cell_setting 'orthorhombic'
loop_
_space_group_symop_operation_xyz
x,y,z
-x,-y,z
x,-y,-z
-x,y,-z
-x,-y,-z
x,y,-z
-x,y,z
x,-y,z
x,1/2+y,1/2+z
-x,1/2-y,1/2+z
x,1/2-y,1/2-z
-x,1/2+y,1/2-z
-x,1/2-y,1/2-z
x,1/2+y,1/2-z
-x,1/2+y,1/2+z
x,1/2-y,1/2+z
1/2+x,y,1/2+z
1/2-x,-y,1/2+z
1/2+x,-y,1/2-z
1/2-x,y,1/2-z
1/2-x,-y,1/2-z
1/2+x,y,1/2-z
1/2-x,y,1/2+z
1/2+x,-y,1/2+z
1/2+x,1/2+y,z
1/2-x,1/2-y,z
1/2+x,1/2-y,-z
1/2-x,1/2+y,-z
1/2-x,1/2-y,-z
1/2+x,1/2+y,-z
1/2-x,1/2+y,z
1/2+x,1/2-y,z
loop_
_atom_site_type_symbol
_atom_site_label
_atom_site_fract_x
_atom_site_fract_y
_atom_site_fract_z
Si Si1 0.918970 0.762623 0.318829
Si Si2 0.585984 0.500000 0.186902
Si Si3 0.635545 0.133219 0.623457
Si Si4 0.783120 0.142118 0.316880
Si Si5 0.180209 0.000000 0.707406
Si Si6 0.088133 0.078419 0.000000
O O1 0.912494 0.750000 0.250000
O O2 0.917403 0.692767 0.354740
O O3 0.850352 0.809725 0.334924
O O4 0.000000 0.795263 0.332892
O O5 0.500000 0.500000 0.172210
O O6 0.622365 0.566126 0.160585
O O7 0.602804 0.500000 0.256555
O O8 0.719360 0.157034 0.635626
O O9 0.622140 0.117311 0.555318
O O10 0.750000 0.152395 0.250000
O O11 0.814964 0.067799 0.330224
O O12 0.250000 0.000000 0.750000
O O13 0.000000 0.084363 0.000000
O O14 0.111514 0.000000 0.000000
#
# Coordination Sequence:
#
# PCOD8284081 Si02
#       6
#    32  16  32  32  16  16
#     4  11  22  35  55  85 119 158 200 245 301 354
#     4  12  20  31  55  84 114 152 192 237 298 364
#     4  12  22  37  59  84 119 156 198 240 301 358
#     4  11  20  36  58  82 117 155 195 244 295 359
#     4  10  18  34  50  80 114 145 191 234 295 344
#     4  11  24  40  59  88 123 160 203 250 299 352
#
# _framework density 17.717455999999999
#
# number of rings (size 3 to 8) (size 9 to 14) (size 15 to 20)
#    0.000    0.778    7.778    2.667    0.000    2.667 
#    0.000    2.222    0.000    0.000    0.000    0.000 
#    0.000    0.889    0.000    0.000    0.000    0.000 
#
# Total GULP energy -446236.979792 kJ/mol
# GULP energy per Si atom -12395.471661 kJ/mol
# Density = 1.767713 g / cm^3
# Si number density = 17.717456 Si / 1000 Ang^3
#
#
#
# Elastic Constant Matrix: (Units=GPa)
#
#
# Indices 1 2 3 4 5 6 
#
# 1 138.2396 45.6896 35.7459 0.0000 0.0000 0.0000
# 2 45.6896 104.2534 27.0117 0.0000 0.0000 0.0000
# 3 35.7459 27.0117 93.2996 0.0000 0.0000 0.0000
# 4 0.0000 0.0000 0.0000 57.3866 0.0000 0.0000
# 5 0.0000 0.0000 0.0000 0.0000 25.8014 0.0000
# 6 0.0000 0.0000 0.0000 0.0000 0.0000 27.8984
#
#
#
# Elastic Compliance Matrix: (Units=1/GPa)
#
#
# Indices 1 2 3 4 5 6 
#
# 1 0.008961 -0.003284 -0.002483 0.000000 0.000000 0.000000
# 2 -0.003284 0.011573 -0.002092 0.000000 0.000000 0.000000
# 3 -0.002483 -0.002092 0.012275 0.000000 0.000000 0.000000
# 4 0.000000 0.000000 0.000000 0.017426 0.000000 0.000000
# 5 0.000000 0.000000 0.000000 0.000000 0.038758 0.000000
# 6 0.000000 0.000000 0.000000 0.000000 0.000000 0.035844
#
#
# Mechanical properties :
#
#
# Convention : Reuss Voigt Hill
#
# Bulk Modulus (GPa) = 58.50829 61.40967 59.95898
# Shear Modulus (GPa) = 34.18743 37.37364 35.78053
#
# Velocity S-wave (km/s) = 4.39748 4.59783 4.49877
# Velocity P-wave (km/s) = 7.67322 7.93237 7.80387
#
# Compressibility (1/GPa) = 0.01709159
#
# Stress axis : x y z
#
# Youngs Moduli (GPa) = 111.59271 86.40489 81.46588
#
# Poissons Ratio (x) = 0.28376 0.20224
# Poissons Ratio (y) = 0.36648 0.17046
# Poissons Ratio (z) = 0.27703 0.18080
#
# Static dielectric constant tensor:
#      x y z
#    x 3.578610 0.000000 0.000000 
#    y 0.000000 3.657200 0.000000 
#    z 0.000000 0.000000 3.004890 
# 
# 
# High freq. dielectric constant tensor:
#      x y z
#    x 1.697880 0.000000 0.000000 
#    y 0.000000 1.698390 0.000000 
#    z 0.000000 0.000000 1.633540 
# 
# From -- ./inp_files/24500.got.cif
#   From: 2010.03.12/outbox.cif.g09.slc.cpg/sg69_13_cif.got.tgz:24500.got - 2010.04.10 23:52:46.
