data_PCOD8284076
_publ_section_title
;
Structure prediction by ZEFSAII (Michael W. Deem and Ramdas Pophale) SiO2 
 PCOD8284076
Probable space group: F M M M
;
_chemical_formula_sum "Si O2"
_cell_formula_units_Z 160
_cell_length_a 30.792201
_cell_length_b 19.786456
_cell_length_c 13.748574
_cell_angle_alpha 90.000000
_cell_angle_beta 90.000000
_cell_angle_gamma 90.000000
_cell_volume 8376.573474
_symmetry_space_group_name_H-M "F M M M"
_symmetry_group_IT_number 69
_symmetry_cell_setting 'orthorhombic'
loop_
_space_group_symop_operation_xyz
x,y,z
-x,-y,z
x,-y,-z
-x,y,-z
-x,-y,-z
x,y,-z
-x,y,z
x,-y,z
x,1/2+y,1/2+z
-x,1/2-y,1/2+z
x,1/2-y,1/2-z
-x,1/2+y,1/2-z
-x,1/2-y,1/2-z
x,1/2+y,1/2-z
-x,1/2+y,1/2+z
x,1/2-y,1/2+z
1/2+x,y,1/2+z
1/2-x,-y,1/2+z
1/2+x,-y,1/2-z
1/2-x,y,1/2-z
1/2-x,-y,1/2-z
1/2+x,y,1/2-z
1/2-x,y,1/2+z
1/2+x,-y,1/2+z
1/2+x,1/2+y,z
1/2-x,1/2-y,z
1/2+x,1/2-y,-z
1/2-x,1/2+y,-z
1/2-x,1/2-y,-z
1/2+x,1/2+y,-z
1/2-x,1/2+y,z
1/2+x,1/2-y,z
loop_
_atom_site_type_symbol
_atom_site_label
_atom_site_fract_x
_atom_site_fract_y
_atom_site_fract_z
Si Si1 0.135648 0.922679 0.310922
Si Si2 0.729665 0.322569 0.000000
Si Si3 0.048171 0.142884 0.293370
Si Si4 0.190072 0.578099 0.000000
Si Si5 0.832751 0.806145 0.175901
Si Si6 0.073821 0.779128 0.889049
O O1 0.083964 0.911843 0.325658
O O2 0.160831 0.902900 0.408248
O O3 0.153767 0.875351 0.226935
O O4 0.144089 0.000000 0.281300
O O5 0.750000 0.250000 0.000000
O O6 0.765967 0.379749 0.000000
O O7 0.701705 0.329820 0.097009
O O8 0.054714 0.162623 0.180109
O O9 0.052245 0.208303 0.361594
O O10 0.000000 0.111858 0.306596
O O11 0.203647 0.500000 0.000000
O O12 0.812997 0.750000 0.250000
O O13 0.874464 0.771410 0.126003
O O14 0.062846 0.798053 0.000000
#
# Coordination Sequence:
#
# PCOD8284076 Si02
#       6
#    32  16  32  16  32  32
#     4  10  22  41  62  81 115 161 194 237 297 351
#     4  12  26  36  62  94 120 144 195 251 294 334
#     4  10  21  34  55  88 117 149 197 241 283 346
#     4  10  24  44  61  81 116 158 197 239 296 359
#     4  11  21  38  60  90 119 153 191 237 291 350
#     4  10  18  33  58  83 121 155 187 226 294 351
#
# _framework density 19.100888999999999
#
# number of rings (size 3 to 8) (size 9 to 14) (size 15 to 20)
#    0.000    1.600    5.000    2.400    1.400    5.600 
#    0.000    2.000    0.000    1.800    0.000    2.800 
#    0.000    0.000    0.000    0.000    0.000    0.000 
#
# Total GULP energy -496044.305297 kJ/mol
# GULP energy per Si atom -12401.107632 kJ/mol
# Density = 1.905741 g / cm^3
# Si number density = 19.100889 Si / 1000 Ang^3
#
#
#
# Elastic Constant Matrix: (Units=GPa)
#
#
# Indices 1 2 3 4 5 6 
#
# 1 153.1345 50.9347 71.7326 0.0000 0.0000 0.0000
# 2 50.9347 73.7091 36.4604 0.0000 0.0000 0.0000
# 3 71.7326 36.4604 117.5599 0.0000 0.0000 0.0000
# 4 0.0000 0.0000 0.0000 19.2514 0.0000 0.0000
# 5 0.0000 0.0000 0.0000 0.0000 19.7059 0.0000
# 6 0.0000 0.0000 0.0000 0.0000 0.0000 24.6154
#
#
#
# Elastic Compliance Matrix: (Units=1/GPa)
#
#
# Indices 1 2 3 4 5 6 
#
# 1 0.010398 -0.004780 -0.004862 0.000000 0.000000 0.000000
# 2 -0.004780 0.018223 -0.002735 0.000000 0.000000 0.000000
# 3 -0.004862 -0.002735 0.012321 0.000000 0.000000 0.000000
# 4 0.000000 0.000000 0.000000 0.051944 0.000000 0.000000
# 5 0.000000 0.000000 0.000000 0.000000 0.050746 0.000000
# 6 0.000000 0.000000 0.000000 0.000000 0.000000 0.040625
#
#
# Mechanical properties :
#
#
# Convention : Reuss Voigt Hill
#
# Bulk Modulus (GPa) = 61.77522 73.62876 67.70199
# Shear Modulus (GPa) = 23.32016 25.06626 24.19321
#
# Velocity S-wave (km/s) = 3.49792 3.62651 3.56280
# Velocity P-wave (km/s) = 6.98038 7.49443 7.24196
#
# Compressibility (1/GPa) = 0.01618772
#
# Stress axis : x y z
#
# Youngs Moduli (GPa) = 96.17649 54.87622 81.16104
#
# Poissons Ratio (x) = 0.26231 0.39460
# Poissons Ratio (y) = 0.45972 0.22198
# Poissons Ratio (z) = 0.46760 0.15009
#
# Static dielectric constant tensor:
#      x y z
#    x 3.802000 0.000000 0.000000 
#    y 0.000000 3.238290 0.000000 
#    z 0.000000 0.000000 3.528020 
# 
# 
# High freq. dielectric constant tensor:
#      x y z
#    x 1.751950 0.000000 0.000000 
#    y 0.000000 1.722090 0.000000 
#    z 0.000000 0.000000 1.746870 
# 
# From -- ./inp_files/19597.got.cif
#   From: 2010.03.12/outbox.cif.g09.slc.cpg/sg69_10_cif.got.tgz:19597.got - 2010.04.10 23:52:46.
