data_PCOD8284214
_publ_section_title
;
Structure prediction by ZEFSAII (Michael W. Deem and Ramdas Pophale) SiO2 
 PCOD8284214
Probable space group: F M M M
;
_chemical_formula_sum "Si O2"
_cell_formula_units_Z 208
_cell_length_a 17.096222
_cell_length_b 24.706164
_cell_length_c 26.441136
_cell_angle_alpha 90.000000
_cell_angle_beta 90.000000
_cell_angle_gamma 90.000000
_cell_volume 11168.261612
_symmetry_space_group_name_H-M "F M M M"
_symmetry_group_IT_number 69
_symmetry_cell_setting 'orthorhombic'
loop_
_space_group_symop_operation_xyz
x,y,z
-x,-y,z
x,-y,-z
-x,y,-z
-x,-y,-z
x,y,-z
-x,y,z
x,-y,z
x,1/2+y,1/2+z
-x,1/2-y,1/2+z
x,1/2-y,1/2-z
-x,1/2+y,1/2-z
-x,1/2-y,1/2-z
x,1/2+y,1/2-z
-x,1/2+y,1/2+z
x,1/2-y,1/2+z
1/2+x,y,1/2+z
1/2-x,-y,1/2+z
1/2+x,-y,1/2-z
1/2-x,y,1/2-z
1/2-x,-y,1/2-z
1/2+x,y,1/2-z
1/2-x,y,1/2+z
1/2+x,-y,1/2+z
1/2+x,1/2+y,z
1/2-x,1/2-y,z
1/2+x,1/2-y,-z
1/2-x,1/2+y,-z
1/2-x,1/2-y,-z
1/2+x,1/2+y,-z
1/2-x,1/2+y,z
1/2+x,1/2-y,z
loop_
_atom_site_type_symbol
_atom_site_label
_atom_site_fract_x
_atom_site_fract_y
_atom_site_fract_z
Si Si1 0.675088 0.781811 0.872931
Si Si2 0.847631 0.887913 0.058384
Si Si3 0.090816 0.822848 0.854006
Si Si4 0.707419 0.437009 0.395553
Si Si5 0.590962 0.634276 0.440724
Si Si6 0.759559 0.369714 0.308722
Si Si7 0.913935 0.000000 0.939834
O O1 0.750000 0.750000 0.895775
O O2 0.612090 0.740395 0.848830
O O3 0.634519 0.813360 0.918484
O O4 0.705595 0.820066 0.827518
O O5 0.892264 0.840444 0.087859
O O6 0.755419 0.892836 0.069800
O O7 0.874514 0.945915 0.080703
O O8 0.866935 0.878741 0.000000
O O9 0.148230 0.858608 0.818831
O O10 0.000000 0.832358 0.839397
O O11 0.722233 0.500000 0.408182
O O12 0.619359 0.420262 0.411106
O O13 0.729970 0.424114 0.337431
O O14 0.608374 0.629380 0.500000
O O15 0.500000 0.640564 0.429408
O O16 0.750000 0.379926 0.250000
O O17 0.000000 0.000000 0.917689
O O18 0.911368 0.000000 0.000000
#
# Coordination Sequence:
#
# PCOD8284214 Si02
#       7
#    32  32  32  32  32  32  16
#     4   9  19  35  55  78 105 140 177 217 265 325
#     4  10  19  31  49  76 110 145 176 208 252 313
#     4  10  20  33  52  80 111 139 173 216 260 313
#     4  10  20  35  56  79 102 135 181 224 263 317
#     4  10  21  35  51  75 110 147 182 225 269 304
#     4   9  20  39  58  77 103 134 172 221 274 327
#     4   9  16  26  42  66  98 135 171 203 243 296
#
# _framework density 18.624206000000001
#
# number of rings (size 3 to 8) (size 9 to 14) (size 15 to 20)
#    0.000    2.385    0.769    2.308    0.000    6.154 
#    0.000    5.385    0.000    0.000    0.000    0.000 
#    0.000    0.000    0.000    0.000    0.000    0.000 
#
# Total GULP energy -644508.907555 kJ/mol
# GULP energy per Si atom -12394.402068 kJ/mol
# Density = 1.858182 g / cm^3
# Si number density = 18.624206 Si / 1000 Ang^3
#
#
#
# Elastic Constant Matrix: (Units=GPa)
#
#
# Indices 1 2 3 4 5 6 
#
# 1 110.7717 23.1557 41.9902 0.0000 0.0000 0.0000
# 2 23.1557 51.3574 7.6143 0.0000 0.0000 0.0000
# 3 41.9902 7.6143 88.6294 0.0000 0.0000 0.0000
# 4 0.0000 0.0000 0.0000 17.3516 0.0000 0.0000
# 5 0.0000 0.0000 0.0000 0.0000 16.4651 0.0000
# 6 0.0000 0.0000 0.0000 0.0000 0.0000 20.8822
#
#
#
# Elastic Compliance Matrix: (Units=1/GPa)
#
#
# Indices 1 2 3 4 5 6 
#
# 1 0.011999 -0.004626 -0.005287 0.000000 0.000000 0.000000
# 2 -0.004626 0.021506 0.000344 0.000000 0.000000 0.000000
# 3 -0.005287 0.000344 0.013758 0.000000 0.000000 0.000000
# 4 0.000000 0.000000 0.000000 0.057632 0.000000 0.000000
# 5 0.000000 0.000000 0.000000 0.000000 0.060734 0.000000
# 6 0.000000 0.000000 0.000000 0.000000 0.000000 0.047888
#
#
# Mechanical properties :
#
#
# Convention : Reuss Voigt Hill
#
# Bulk Modulus (GPa) = 35.55583 44.03098 39.79341
# Shear Modulus (GPa) = 20.65854 22.80634 21.73244
#
# Velocity S-wave (km/s) = 3.33412 3.50316 3.41969
# Velocity P-wave (km/s) = 5.82705 6.32898 6.08319
#
# Compressibility (1/GPa) = 0.02812478
#
# Stress axis : x y z
#
# Youngs Moduli (GPa) = 83.34126 46.49833 72.68311
#
# Poissons Ratio (x) = 0.21510 0.38430
# Poissons Ratio (y) = 0.38554 -0.02501
# Poissons Ratio (z) = 0.44065 -0.01600
#
# Static dielectric constant tensor:
#      x y z
#    x 3.636290 0.000000 0.000000 
#    y 0.000000 3.397360 0.000000 
#    z 0.000000 0.000000 3.067130 
# 
# 
# High freq. dielectric constant tensor:
#      x y z
#    x 1.730610 0.000000 0.000000 
#    y 0.000000 1.723040 0.000000 
#    z 0.000000 0.000000 1.689960 
# 
# From -- ./inp_files/42217.got.cif
#   From: 2010.03.12/outbox.cif.g09.slc.cpg/sg69_22_cif.got.tgz:42217.got - 2010.04.10 23:52:46.
