data_PCOD8284616
_publ_section_title
;
Structure prediction by ZEFSAII (Michael W. Deem and Ramdas Pophale) SiO2 
 PCOD8284616
Probable space group: F M M M
;
_chemical_formula_sum "Si O2"
_cell_formula_units_Z 144
_cell_length_a 27.387863
_cell_length_b 8.663643
_cell_length_c 32.450723
_cell_angle_alpha 90.000000
_cell_angle_beta 90.000000
_cell_angle_gamma 90.000000
_cell_volume 7699.864315
_symmetry_space_group_name_H-M "F M M M"
_symmetry_group_IT_number 69
_symmetry_cell_setting 'orthorhombic'
loop_
_space_group_symop_operation_xyz
x,y,z
-x,-y,z
x,-y,-z
-x,y,-z
-x,-y,-z
x,y,-z
-x,y,z
x,-y,z
x,1/2+y,1/2+z
-x,1/2-y,1/2+z
x,1/2-y,1/2-z
-x,1/2+y,1/2-z
-x,1/2-y,1/2-z
x,1/2+y,1/2-z
-x,1/2+y,1/2+z
x,1/2-y,1/2+z
1/2+x,y,1/2+z
1/2-x,-y,1/2+z
1/2+x,-y,1/2-z
1/2-x,y,1/2-z
1/2-x,-y,1/2-z
1/2+x,y,1/2-z
1/2-x,y,1/2+z
1/2+x,-y,1/2+z
1/2+x,1/2+y,z
1/2-x,1/2-y,z
1/2+x,1/2-y,-z
1/2-x,1/2+y,-z
1/2-x,1/2-y,-z
1/2+x,1/2+y,-z
1/2-x,1/2+y,z
1/2+x,1/2-y,z
loop_
_atom_site_type_symbol
_atom_site_label
_atom_site_fract_x
_atom_site_fract_y
_atom_site_fract_z
Si Si1 0.698304 0.817303 0.163764
Si Si2 0.392487 0.317542 0.207115
Si Si3 0.196307 0.817867 0.000000
Si Si4 0.446603 0.682255 0.125843
Si Si5 0.650407 0.316658 0.914980
O O1 0.750000 0.750000 0.177408
O O2 0.659720 0.755703 0.196844
O O3 0.686231 0.761287 0.117678
O O4 0.699548 0.000000 0.164714
O O5 0.386570 0.500000 0.209775
O O6 0.412254 0.250000 0.250000
O O7 0.430944 0.268644 0.171883
O O8 0.250000 0.750000 0.000000
O O9 0.166251 0.760867 0.960202
O O10 0.201277 0.000000 0.000000
O O11 0.500000 0.755364 0.115765
O O12 0.450533 0.500000 0.123268
O O13 0.405530 0.738681 0.093237
O O14 0.654886 0.500000 0.909385
#
# Coordination Sequence:
#
# PCOD8284616 Si02
#       5
#    32  32  16  32  32
#     4  11  21  34  52  73  99 133 171 208 253 304
#     4  10  20  34  51  74 103 132 167 209 251 298
#     4  10  20  32  49  75 105 137 170 208 251 298
#     4   8  15  30  52  74  99 133 168 205 251 299
#     4   9  18  33  51  74 104 134 169 210 251 298
#
# _framework density 18.701630000000002
#
# number of rings (size 3 to 8) (size 9 to 14) (size 15 to 20)
#    0.000    2.444    0.000    4.667    0.000    3.556 
#    0.000    2.778    0.000   19.333    0.000    0.000 
#    0.000    8.000    0.000    0.000    0.000    0.000 
#
# Total GULP energy -446335.227401 kJ/mol
# GULP energy per Si atom -12398.200761 kJ/mol
# Density = 1.865906 g / cm^3
# Si number density = 18.701630 Si / 1000 Ang^3
#
#
#
# Elastic Constant Matrix: (Units=GPa)
#
#
# Indices 1 2 3 4 5 6 
#
# 1 145.0781 21.8192 49.8976 0.0000 0.0000 -0.0007
# 2 21.8192 63.0214 20.7267 -0.0001 0.0000 0.0003
# 3 49.8976 20.7267 121.2412 0.0000 0.0000 -0.0004
# 4 0.0000 -0.0001 0.0000 26.7000 0.0000 0.0000
# 5 0.0000 0.0000 0.0000 0.0000 17.4616 0.0000
# 6 -0.0007 0.0003 -0.0004 0.0000 0.0000 17.1600
#
#
#
# Elastic Compliance Matrix: (Units=1/GPa)
#
#
# Indices 1 2 3 4 5 6 
#
# 1 0.008225 -0.001838 -0.003071 0.000000 0.000000 0.000000
# 2 -0.001838 0.017224 -0.002188 0.000000 0.000000 0.000000
# 3 -0.003071 -0.002188 0.009886 0.000000 0.000000 0.000000
# 4 0.000000 0.000000 0.000000 0.037453 0.000000 0.000000
# 5 0.000000 0.000000 0.000000 0.000000 0.057269 0.000000
# 6 0.000000 0.000000 0.000000 0.000000 0.000000 0.058275
#
#
# Mechanical properties :
#
#
# Convention : Reuss Voigt Hill
#
# Bulk Modulus (GPa) = 47.30119 57.13641 52.21880
# Shear Modulus (GPa) = 23.85806 28.05747 25.95777
#
# Velocity S-wave (km/s) = 3.57560 3.87753 3.72962
# Velocity P-wave (km/s) = 6.51107 7.11793 6.82125
#
# Compressibility (1/GPa) = 0.02114112
#
# Stress axis : x y z
#
# Youngs Moduli (GPa) = 121.57332 58.06017 101.15312
#
# Poissons Ratio (x) = 0.10670 0.31065
# Poissons Ratio (y) = 0.22343 0.22133
# Poissons Ratio (z) = 0.37336 0.12704
#
# Static dielectric constant tensor:
#      x y z
#    x 3.819070 0.000000 0.000000 
#    y 0.000000 3.230980 0.000000 
#    z 0.000000 0.000000 3.648470 
# 
# 
# High freq. dielectric constant tensor:
#      x y z
#    x 1.731510 0.000000 0.000000 
#    y 0.000000 1.707310 0.000000 
#    z 0.000000 0.000000 1.720520 
# 
# From -- ./inp_files/5579.got.cif
#   From: 2010.03.12/outbox.cif.g09.slc.cpg/sg69_3_cif.got.tgz:5579.got - 2010.04.10 23:52:46.
