data_PCOD8284556
_publ_section_title
;
Structure prediction by ZEFSAII (Michael W. Deem and Ramdas Pophale) SiO2 
 PCOD8284556
Probable space group: F M M M
;
_chemical_formula_sum "Si O2"
_cell_formula_units_Z 160
_cell_length_a 23.759013
_cell_length_b 26.752043
_cell_length_c 13.953437
_cell_angle_alpha 90.000000
_cell_angle_beta 90.000000
_cell_angle_gamma 90.000000
_cell_volume 8868.834381
_symmetry_space_group_name_H-M "F M M M"
_symmetry_group_IT_number 69
_symmetry_cell_setting 'orthorhombic'
loop_
_space_group_symop_operation_xyz
x,y,z
-x,-y,z
x,-y,-z
-x,y,-z
-x,-y,-z
x,y,-z
-x,y,z
x,-y,z
x,1/2+y,1/2+z
-x,1/2-y,1/2+z
x,1/2-y,1/2-z
-x,1/2+y,1/2-z
-x,1/2-y,1/2-z
x,1/2+y,1/2-z
-x,1/2+y,1/2+z
x,1/2-y,1/2+z
1/2+x,y,1/2+z
1/2-x,-y,1/2+z
1/2+x,-y,1/2-z
1/2-x,y,1/2-z
1/2-x,-y,1/2-z
1/2+x,y,1/2-z
1/2-x,y,1/2+z
1/2+x,-y,1/2+z
1/2+x,1/2+y,z
1/2-x,1/2-y,z
1/2+x,1/2-y,-z
1/2-x,1/2+y,-z
1/2-x,1/2-y,-z
1/2+x,1/2+y,-z
1/2-x,1/2+y,z
1/2+x,1/2-y,z
loop_
_atom_site_type_symbol
_atom_site_label
_atom_site_fract_x
_atom_site_fract_y
_atom_site_fract_z
Si Si1 0.888536 0.558586 0.609922
Si Si2 0.500000 0.441443 0.224026
Si Si3 0.810515 0.770707 0.110637
Si Si4 0.120575 0.326121 0.109348
Si Si5 0.500000 0.136434 0.109284
Si Si6 0.685679 0.370221 0.226798
O O1 0.892143 0.576348 0.500000
O O2 0.877821 0.500000 0.616664
O O3 0.836369 0.584643 0.662135
O O4 0.946240 0.574105 0.661461
O O5 0.500000 0.500000 0.248646
O O6 0.500000 0.412084 0.323786
O O7 0.750000 0.750000 0.143324
O O8 0.857987 0.729579 0.132943
O O9 0.825326 0.818795 0.171728
O O10 0.809143 0.786364 0.000000
O O11 0.053934 0.328581 0.128969
O O12 0.152036 0.367460 0.173323
O O13 0.135577 0.339781 0.000000
O O14 0.500000 0.116545 0.000000
O O15 0.750000 0.380979 0.250000
#
# Coordination Sequence:
#
# PCOD8284556 Si02
#       6
#    32  16  32  32  16  32
#     4  10  22  40  61  85 114 148 188 238 294 346
#     4  10  19  37  63  88 109 142 192 241 288 343
#     4  10  20  35  55  83 116 149 190 234 274 330
#     4  10  21  36  55  81 118 153 187 228 279 339
#     4  10  20  38  59  84 117 154 187 230 290 340
#     4  12  22  34  59  86 115 149 196 234 282 334
#
# _framework density 18.040703000000001
#
# number of rings (size 3 to 8) (size 9 to 14) (size 15 to 20)
#    0.000    1.600    4.000    1.500    0.000    2.600 
#    0.000    3.000    0.000    3.000    0.000    0.000 
#    0.000    0.000    0.000    0.000    0.000    0.000 
#
# Total GULP energy -496147.122725 kJ/mol
# GULP energy per Si atom -12403.678068 kJ/mol
# Density = 1.799964 g / cm^3
# Si number density = 18.040703 Si / 1000 Ang^3
#
#
#
# Elastic Constant Matrix: (Units=GPa)
#
#
# Indices 1 2 3 4 5 6 
#
# 1 153.2522 54.1469 67.5477 0.0000 0.0000 0.0000
# 2 54.1469 65.0946 52.2642 0.0000 0.0000 0.0000
# 3 67.5477 52.2642 113.0835 0.0000 0.0000 0.0000
# 4 0.0000 0.0000 0.0000 31.5389 0.0000 0.0000
# 5 0.0000 0.0000 0.0000 0.0000 26.9310 0.0000
# 6 0.0000 0.0000 0.0000 0.0000 0.0000 25.0535
#
#
#
# Elastic Compliance Matrix: (Units=1/GPa)
#
#
# Indices 1 2 3 4 5 6 
#
# 1 0.009994 -0.005597 -0.003383 0.000000 0.000000 0.000000
# 2 -0.005597 0.027561 -0.009395 0.000000 0.000000 0.000000
# 3 -0.003383 -0.009395 0.015206 0.000000 0.000000 0.000000
# 4 0.000000 0.000000 0.000000 0.031707 0.000000 0.000000
# 5 0.000000 0.000000 0.000000 0.000000 0.037132 0.000000
# 6 0.000000 0.000000 0.000000 0.000000 0.000000 0.039915
#
#
# Mechanical properties :
#
#
# Convention : Reuss Voigt Hill
#
# Bulk Modulus (GPa) = 62.45548 75.48309 68.96928
# Shear Modulus (GPa) = 24.55803 27.20278 25.88041
#
# Velocity S-wave (km/s) = 3.69352 3.88732 3.79166
# Velocity P-wave (km/s) = 7.27213 7.87906 7.58167
#
# Compressibility (1/GPa) = 0.01601140
#
# Stress axis : x y z
#
# Youngs Moduli (GPa) = 100.06333 36.28334 65.76527
#
# Poissons Ratio (x) = 0.20308 0.22247
# Poissons Ratio (y) = 0.56005 0.61784
# Poissons Ratio (z) = 0.33849 0.34087
#
# Static dielectric constant tensor:
#      x y z
#    x 3.431350 0.000000 0.000000 
#    y 0.000000 3.143900 0.000000 
#    z 0.000000 0.000000 3.619080 
# 
# 
# High freq. dielectric constant tensor:
#      x y z
#    x 1.704500 0.000000 0.000000 
#    y 0.000000 1.678080 0.000000 
#    z 0.000000 0.000000 1.720430 
# 
# From -- ./inp_files/17785.got.cif
#   From: 2010.03.12/outbox.cif.g09.slc.cpg/sg69_9_cif.got.tgz:17785.got - 2010.04.10 23:52:46.
