data_PCOD8284247
_publ_section_title
;
Structure prediction by ZEFSAII (Michael W. Deem and Ramdas Pophale) SiO2 
 PCOD8284247
Probable space group: F M M M
;
_chemical_formula_sum "Si O2"
_cell_formula_units_Z 128
_cell_length_a 19.342907
_cell_length_b 16.819515
_cell_length_c 21.811856
_cell_angle_alpha 90.000000
_cell_angle_beta 90.000000
_cell_angle_gamma 90.000000
_cell_volume 7096.232466
_symmetry_space_group_name_H-M "F M M M"
_symmetry_group_IT_number 69
_symmetry_cell_setting 'orthorhombic'
loop_
_space_group_symop_operation_xyz
x,y,z
-x,-y,z
x,-y,-z
-x,y,-z
-x,-y,-z
x,y,-z
-x,y,z
x,-y,z
x,1/2+y,1/2+z
-x,1/2-y,1/2+z
x,1/2-y,1/2-z
-x,1/2+y,1/2-z
-x,1/2-y,1/2-z
x,1/2+y,1/2-z
-x,1/2+y,1/2+z
x,1/2-y,1/2+z
1/2+x,y,1/2+z
1/2-x,-y,1/2+z
1/2+x,-y,1/2-z
1/2-x,y,1/2-z
1/2-x,-y,1/2-z
1/2+x,y,1/2-z
1/2-x,y,1/2+z
1/2+x,-y,1/2+z
1/2+x,1/2+y,z
1/2-x,1/2-y,z
1/2+x,1/2-y,-z
1/2-x,1/2+y,-z
1/2-x,1/2-y,-z
1/2+x,1/2+y,-z
1/2-x,1/2+y,z
1/2+x,1/2-y,z
loop_
_atom_site_type_symbol
_atom_site_label
_atom_site_fract_x
_atom_site_fract_y
_atom_site_fract_z
Si Si1 0.000000 0.206860 0.927375
Si Si2 0.147042 0.660141 0.772902
Si Si3 0.000000 0.189031 0.693371
Si Si4 0.230111 0.590547 0.333387
Si Si5 0.877272 0.589068 0.429519
O O1 0.065607 0.153059 0.911921
O O2 0.000000 0.276282 0.876372
O O3 0.000000 0.235016 0.000000
O O4 0.149441 0.750000 0.750000
O O5 0.070418 0.637656 0.798234
O O6 0.170927 0.602289 0.718390
O O7 0.203784 0.648380 0.826676
O O8 0.000000 0.250000 0.750000
O O9 0.256069 0.500000 0.330546
O O10 0.194558 0.611458 0.397448
O O11 0.859931 0.592363 0.500000
O O12 0.902282 0.500000 0.410451
#
# Coordination Sequence:
#
# PCOD8284247 Si02
#       5
#    16  32  16  32  32
#     4  10  19  32  48  70 101 130 160 199 240 285
#     4  10  19  32  50  69  95 128 158 194 243 288
#     4  10  20  33  50  69  92 125 164 196 235 287
#     4  10  19  32  49  72  99 124 157 199 240 283
#     4   9  17  29  47  70  96 127 159 193 238 289
#
# _framework density 18.037742000000001
#
# number of rings (size 3 to 8) (size 9 to 14) (size 15 to 20)
#    0.000    2.250    0.000    6.375    0.000    1.500 
#    0.000    5.000    0.000    6.000    0.000    0.000 
#    0.000    8.000    0.000    0.000    0.000    0.000 
#
# Total GULP energy -396501.428128 kJ/mol
# GULP energy per Si atom -12390.669629 kJ/mol
# Density = 1.799669 g / cm^3
# Si number density = 18.037742 Si / 1000 Ang^3
#
#
#
# Elastic Constant Matrix: (Units=GPa)
#
#
# Indices 1 2 3 4 5 6 
#
# 1 166.2941 44.8275 47.0220 0.0000 0.0000 0.0000
# 2 44.8275 39.7840 13.6955 0.0000 0.0000 0.0000
# 3 47.0220 13.6955 49.0970 0.0000 0.0000 0.0000
# 4 0.0000 0.0000 0.0000 27.6509 0.0000 0.0000
# 5 0.0000 0.0000 0.0000 0.0000 29.1419 0.0000
# 6 0.0000 0.0000 0.0000 0.0000 0.0000 -10.6541
#
#
#
# Elastic Compliance Matrix: (Units=1/GPa)
#
#
# Indices 1 2 3 4 5 6 
#
# 1 0.010718 -0.009451 -0.007629 0.000000 0.000000 0.000000
# 2 -0.009451 0.036139 -0.001029 0.000000 0.000000 0.000000
# 3 -0.007629 -0.001029 0.027962 0.000000 0.000000 0.000000
# 4 0.000000 0.000000 0.000000 0.036165 0.000000 0.000000
# 5 0.000000 0.000000 0.000000 0.000000 0.034315 0.000000
# 6 0.000000 0.000000 0.000000 0.000000 0.000000 -0.093861
#
#
# Mechanical properties :
#
#
# Convention : Reuss Voigt Hill
#
# Bulk Modulus (GPa) = 25.90655 51.80723 38.85689
# Shear Modulus (GPa) = 49.73947 19.20308 34.47127
#
# Velocity S-wave (km/s) = 5.25691 3.26637 4.37631
# Velocity P-wave (km/s) = 7.15824 6.55816 6.86476
#
# Compressibility (1/GPa) = 0.03860027
#
# Stress axis : x y z
#
# Youngs Moduli (GPa) = 93.29852 27.67090 35.76335
#
# Poissons Ratio (x) = 0.26151 0.27284
# Poissons Ratio (y) = 0.88175 0.03682
# Poissons Ratio (z) = 0.71177 0.02849
#
# Static dielectric constant tensor:
#      x y z
#    x 3.771210 0.000000 0.000000 
#    y 0.000000 3.179770 0.000000 
#    z 0.000000 0.000000 3.406850 
# 
# 
# High freq. dielectric constant tensor:
#      x y z
#    x 1.704610 0.000000 0.000000 
#    y 0.000000 1.671140 0.000000 
#    z 0.000000 0.000000 1.693540 
# 
# From -- ./inp_files/24383.got.cif
#   From: 2010.03.12/outbox.cif.g09.slc.cpg/sg69_13_cif.got.tgz:24383.got - 2010.04.10 23:52:46.
