data_PCOD8284004
_publ_section_title
;
Structure prediction by ZEFSAII (Michael W. Deem and Ramdas Pophale) SiO2 
 PCOD8284004
Probable space group: F M M M
;
_chemical_formula_sum "Si O2"
_cell_formula_units_Z 160
_cell_length_a 18.176349
_cell_length_b 19.607673
_cell_length_c 24.255649
_cell_angle_alpha 90.000000
_cell_angle_beta 90.000000
_cell_angle_gamma 90.000000
_cell_volume 8644.614038
_symmetry_space_group_name_H-M "F M M M"
_symmetry_group_IT_number 69
_symmetry_cell_setting 'orthorhombic'
loop_
_space_group_symop_operation_xyz
x,y,z
-x,-y,z
x,-y,-z
-x,y,-z
-x,-y,-z
x,y,-z
-x,y,z
x,-y,z
x,1/2+y,1/2+z
-x,1/2-y,1/2+z
x,1/2-y,1/2-z
-x,1/2+y,1/2-z
-x,1/2-y,1/2-z
x,1/2+y,1/2-z
-x,1/2+y,1/2+z
x,1/2-y,1/2+z
1/2+x,y,1/2+z
1/2-x,-y,1/2+z
1/2+x,-y,1/2-z
1/2-x,y,1/2-z
1/2-x,-y,1/2-z
1/2+x,y,1/2-z
1/2-x,y,1/2+z
1/2+x,-y,1/2+z
1/2+x,1/2+y,z
1/2-x,1/2-y,z
1/2+x,1/2-y,-z
1/2-x,1/2+y,-z
1/2-x,1/2-y,-z
1/2+x,1/2+y,-z
1/2-x,1/2+y,z
1/2+x,1/2-y,z
loop_
_atom_site_type_symbol
_atom_site_label
_atom_site_fract_x
_atom_site_fract_y
_atom_site_fract_z
Si Si1 0.342256 0.306398 0.608020
Si Si2 0.918938 0.308275 0.000000
Si Si3 0.322962 0.579848 0.783376
Si Si4 0.413854 0.819846 0.779629
Si Si5 0.414296 0.646200 0.000000
Si Si6 0.322748 0.153978 0.604006
O O1 0.385200 0.337278 0.556114
O O2 0.369171 0.338936 0.664998
O O3 0.360269 0.226237 0.618718
O O4 0.260206 0.325183 0.590089
O O5 0.911283 0.227186 0.000000
O O6 0.000000 0.336046 0.000000
O O7 0.335215 0.500000 0.777107
O O8 0.250000 0.603690 0.750000
O O9 0.394986 0.617831 0.760558
O O10 0.318754 0.599375 0.847301
O O11 0.500000 0.816908 0.792749
O O12 0.387300 0.750000 0.750000
O O13 0.368960 0.619927 0.053667
O O14 0.500000 0.620464 0.000000
#
# Coordination Sequence:
#
# PCOD8284004 Si02
#       6
#    32  16  32  32  16  32
#     4  10  18  31  54  82 111 144 187 230 281 340
#     4   9  17  29  47  77 116 144 172 224 287 340
#     4  11  23  39  58  81 113 153 194 237 289 343
#     4  11  22  35  56  85 115 146 187 237 291 342
#     4   9  19  33  52  82 116 148 186 233 287 345
#     4  10  19  33  56  80 110 148 188 234 281 334
#
# _framework density 18.508634000000001
#
# number of rings (size 3 to 8) (size 9 to 14) (size 15 to 20)
#    0.000    1.800    4.000    1.200    0.000    4.800 
#    0.000    0.500    0.000    0.600    0.000    0.700 
#    0.000    3.200    0.000    0.000    0.000    0.000 
#
# Total GULP energy -495730.509127 kJ/mol
# GULP energy per Si atom -12393.262728 kJ/mol
# Density = 1.846651 g / cm^3
# Si number density = 18.508634 Si / 1000 Ang^3
#
#
#
# Elastic Constant Matrix: (Units=GPa)
#
#
# Indices 1 2 3 4 5 6 
#
# 1 92.9702 22.2545 56.9825 0.0000 0.0000 0.0000
# 2 22.2545 56.5929 28.6514 0.0000 0.0000 0.0000
# 3 56.9825 28.6514 144.0422 0.0000 0.0000 0.0000
# 4 0.0000 0.0000 0.0000 13.7862 0.0000 0.0000
# 5 0.0000 0.0000 0.0000 0.0000 33.6051 0.0000
# 6 0.0000 0.0000 0.0000 0.0000 0.0000 13.9524
#
#
#
# Elastic Compliance Matrix: (Units=1/GPa)
#
#
# Indices 1 2 3 4 5 6 
#
# 1 0.014688 -0.003151 -0.005183 0.000000 0.000000 0.000000
# 2 -0.003151 0.020325 -0.002796 0.000000 0.000000 0.000000
# 3 -0.005183 -0.002796 0.009549 0.000000 0.000000 0.000000
# 4 0.000000 0.000000 0.000000 0.072536 0.000000 0.000000
# 5 0.000000 0.000000 0.000000 0.000000 0.029757 0.000000
# 6 0.000000 0.000000 0.000000 0.000000 0.000000 0.071672
#
#
# Mechanical properties :
#
#
# Convention : Reuss Voigt Hill
#
# Bulk Modulus (GPa) = 44.84402 56.59799 50.72100
# Shear Modulus (GPa) = 20.14319 24.64987 22.39653
#
# Velocity S-wave (km/s) = 3.30254 3.65335 3.48236
# Velocity P-wave (km/s) = 6.23086 6.96000 6.60550
#
# Compressibility (1/GPa) = 0.02229952
#
# Stress axis : x y z
#
# Youngs Moduli (GPa) = 68.08506 49.20061 104.72142
#
# Poissons Ratio (x) = 0.15505 0.54282
# Poissons Ratio (y) = 0.21457 0.29282
# Poissons Ratio (z) = 0.35292 0.13757
#
# Static dielectric constant tensor:
#      x y z
#    x 3.421420 0.000000 0.000000 
#    y 0.000000 2.927110 0.000000 
#    z 0.000000 0.000000 3.532510 
# 
# 
# High freq. dielectric constant tensor:
#      x y z
#    x 1.723220 0.000000 0.000000 
#    y 0.000000 1.663990 0.000000 
#    z 0.000000 0.000000 1.734720 
# 
# From -- ./inp_files/25839.got.cif
#   From: 2010.03.12/outbox.cif.g09.slc.cpg/sg69_13_cif.got.tgz:25839.got - 2010.04.10 23:52:46.
