data_PCOD8284689
_publ_section_title
;
Structure prediction by ZEFSAII (Michael W. Deem and Ramdas Pophale) SiO2 
 PCOD8284689
Probable space group: F M M M
;
_chemical_formula_sum "Si O2"
_cell_formula_units_Z 208
_cell_length_a 18.606558
_cell_length_b 18.992881
_cell_length_c 32.174352
_cell_angle_alpha 90.000000
_cell_angle_beta 90.000000
_cell_angle_gamma 90.000000
_cell_volume 11370.163168
_symmetry_space_group_name_H-M "F M M M"
_symmetry_group_IT_number 69
_symmetry_cell_setting 'orthorhombic'
loop_
_space_group_symop_operation_xyz
x,y,z
-x,-y,z
x,-y,-z
-x,y,-z
-x,-y,-z
x,y,-z
-x,y,z
x,-y,z
x,1/2+y,1/2+z
-x,1/2-y,1/2+z
x,1/2-y,1/2-z
-x,1/2+y,1/2-z
-x,1/2-y,1/2-z
x,1/2+y,1/2-z
-x,1/2+y,1/2+z
x,1/2-y,1/2+z
1/2+x,y,1/2+z
1/2-x,-y,1/2+z
1/2+x,-y,1/2-z
1/2-x,y,1/2-z
1/2-x,-y,1/2-z
1/2+x,y,1/2-z
1/2-x,y,1/2+z
1/2+x,-y,1/2+z
1/2+x,1/2+y,z
1/2-x,1/2-y,z
1/2+x,1/2-y,-z
1/2-x,1/2+y,-z
1/2-x,1/2-y,-z
1/2+x,1/2+y,-z
1/2-x,1/2+y,z
1/2+x,1/2-y,z
loop_
_atom_site_type_symbol
_atom_site_label
_atom_site_fract_x
_atom_site_fract_y
_atom_site_fract_z
Si Si1 0.414298 0.421359 0.194384
Si Si2 0.084776 0.322655 0.234069
Si Si3 0.334088 0.081862 0.921593
Si Si4 0.915766 0.662673 0.614182
Si Si5 0.584047 0.178149 0.861571
Si Si6 0.919938 0.083856 0.500000
Si Si7 0.825778 0.581521 0.451147
O O1 0.500000 0.421863 0.194068
O O2 0.382788 0.500000 0.192739
O O3 0.385178 0.385443 0.236805
O O4 0.385769 0.379738 0.154017
O O5 0.119401 0.250000 0.250000
O O6 0.104770 0.331711 0.186331
O O7 0.000000 0.319011 0.240012
O O8 0.361962 0.123046 0.881852
O O9 0.379542 0.112716 0.959857
O O10 0.251133 0.095829 0.930640
O O11 0.349759 0.000000 0.914406
O O12 0.897753 0.744420 0.621323
O O13 0.880844 0.633214 0.571949
O O14 0.000000 0.650895 0.609382
O O15 0.500000 0.160068 0.869377
O O16 0.000000 0.114663 0.500000
O O17 0.918666 0.000000 0.500000
O O18 0.824050 0.600254 0.500000
O O19 0.848500 0.500000 0.445010
#
# Coordination Sequence:
#
# PCOD8284689 Si02
#       7
#    32  32  32  32  32  16  32
#     4   9  16  27  48  78 107 138 180 224 264 315
#     4   9  15  28  49  73 108 146 174 213 270 323
#     4  10  20  36  55  79 109 141 184 228 269 328
#     4  10  20  35  54  81 113 143 182 228 273 324
#     4  10  20  33  53  82 115 148 179 220 275 325
#     4   9  16  30  54  77 101 137 176 221 271 315
#     4  10  21  39  60  78 104 144 184 227 280 331
#
# _framework density 18.293493000000002
#
# number of rings (size 3 to 8) (size 9 to 14) (size 15 to 20)
#    0.000    2.385    2.308    0.923    0.000    3.385 
#    1.385    3.077    0.000    0.923    0.000    3.231 
#    0.000    0.000    0.000    0.000    0.000    0.000 
#
# Total GULP energy -644674.776141 kJ/mol
# GULP energy per Si atom -12397.591849 kJ/mol
# Density = 1.825186 g / cm^3
# Si number density = 18.293493 Si / 1000 Ang^3
#
#
#
# Elastic Constant Matrix: (Units=GPa)
#
#
# Indices 1 2 3 4 5 6 
#
# 1 48.1639 38.0214 41.3723 0.0000 0.0000 0.0000
# 2 38.0214 101.1040 72.0839 0.0000 0.0000 0.0000
# 3 41.3723 72.0839 138.7395 0.0000 0.0000 0.0000
# 4 0.0000 0.0000 0.0000 36.5194 0.0000 0.0000
# 5 0.0000 0.0000 0.0000 0.0000 9.2395 0.0000
# 6 0.0000 0.0000 0.0000 0.0000 0.0000 20.9065
#
#
#
# Elastic Compliance Matrix: (Units=1/GPa)
#
#
# Indices 1 2 3 4 5 6 
#
# 1 0.031710 -0.008233 -0.005178 0.000000 0.000000 0.000000
# 2 -0.008233 0.017848 -0.006818 0.000000 0.000000 0.000000
# 3 -0.005178 -0.006818 0.012294 0.000000 0.000000 0.000000
# 4 0.000000 0.000000 0.000000 0.027383 0.000000 0.000000
# 5 0.000000 0.000000 0.000000 0.000000 0.108230 0.000000
# 6 0.000000 0.000000 0.000000 0.000000 0.000000 0.047832
#
#
# Mechanical properties :
#
#
# Convention : Reuss Voigt Hill
#
# Bulk Modulus (GPa) = 46.74330 65.66250 56.20290
# Shear Modulus (GPa) = 17.07143 22.43508 19.75325
#
# Velocity S-wave (km/s) = 3.05814 3.50579 3.28959
# Velocity P-wave (km/s) = 6.17065 7.23597 6.72444
#
# Compressibility (1/GPa) = 0.02139344
#
# Stress axis : x y z
#
# Youngs Moduli (GPa) = 31.53605 56.02896 81.33792
#
# Poissons Ratio (x) = 0.46127 0.42120
# Poissons Ratio (y) = 0.25963 0.55457
# Poissons Ratio (z) = 0.16331 0.38201
#
# Static dielectric constant tensor:
#      x y z
#    x 3.015920 0.000000 0.000000 
#    y 0.000000 3.387110 0.000000 
#    z 0.000000 0.000000 3.506640 
# 
# 
# High freq. dielectric constant tensor:
#      x y z
#    x 1.671310 0.000000 0.000000 
#    y 0.000000 1.705590 0.000000 
#    z 0.000000 0.000000 1.721790 
# 
# From -- ./inp_files/46504.got.cif
#   From: 2010.03.12/outbox.cif.g09.slc.cpg/sg69_24_cif.got.tgz:46504.got - 2010.04.10 23:52:46.
