data_PCOD8284844
_publ_section_title
;
Structure prediction by ZEFSAII (Michael W. Deem and Ramdas Pophale) SiO2 
 PCOD8284844
Probable space group: F M M M
;
_chemical_formula_sum "Si O2"
_cell_formula_units_Z 144
_cell_length_a 9.004857
_cell_length_b 29.244195
_cell_length_c 30.438619
_cell_angle_alpha 90.000000
_cell_angle_beta 90.000000
_cell_angle_gamma 90.000000
_cell_volume 8015.699659
_symmetry_space_group_name_H-M "F M M M"
_symmetry_group_IT_number 69
_symmetry_cell_setting 'orthorhombic'
loop_
_space_group_symop_operation_xyz
x,y,z
-x,-y,z
x,-y,-z
-x,y,-z
-x,-y,-z
x,y,-z
-x,y,z
x,-y,z
x,1/2+y,1/2+z
-x,1/2-y,1/2+z
x,1/2-y,1/2-z
-x,1/2+y,1/2-z
-x,1/2-y,1/2-z
x,1/2+y,1/2-z
-x,1/2+y,1/2+z
x,1/2-y,1/2+z
1/2+x,y,1/2+z
1/2-x,-y,1/2+z
1/2+x,-y,1/2-z
1/2-x,y,1/2-z
1/2-x,-y,1/2-z
1/2+x,y,1/2-z
1/2-x,y,1/2+z
1/2+x,-y,1/2+z
1/2+x,1/2+y,z
1/2-x,1/2-y,z
1/2+x,1/2-y,-z
1/2-x,1/2+y,-z
1/2-x,1/2-y,-z
1/2+x,1/2+y,-z
1/2-x,1/2+y,z
1/2+x,1/2-y,z
loop_
_atom_site_type_symbol
_atom_site_label
_atom_site_fract_x
_atom_site_fract_y
_atom_site_fract_z
Si Si1 0.676370 0.797766 0.795199
Si Si2 0.829038 0.143990 0.378350
Si Si3 0.163639 0.554089 0.500000
Si Si4 0.826277 0.297369 0.449828
Si Si5 0.828854 0.449362 0.086466
O O1 0.500000 0.791488 0.789243
O O2 0.750000 0.814909 0.750000
O O3 0.750000 0.750000 0.809723
O O4 0.717689 0.835254 0.831649
O O5 0.730924 0.163504 0.417668
O O6 0.803425 0.088845 0.375796
O O7 0.000000 0.155669 0.388667
O O8 0.153283 0.500000 0.500000
O O9 0.247235 0.570063 0.456458
O O10 0.000000 0.576612 0.500000
O O11 0.787458 0.311186 0.500000
O O12 0.750000 0.250000 0.436581
O O13 0.000000 0.290791 0.443079
O O14 0.770524 0.500000 0.101393
O O15 0.000000 0.453273 0.073725
#
# Coordination Sequence:
#
# PCOD8284844 Si02
#       5
#    32  32  16  32  32
#     4  10  20  35  55  79 104 129 162 204 256 309
#     4  10  21  34  52  77 102 133 172 213 254 303
#     4   9  17  29  45  67  96 129 168 215 259 295
#     4  10  21  35  50  71 101 137 173 207 248 301
#     4   9  18  33  51  71  98 135 176 215 254 297
#
# _framework density 17.964745000000001
#
# number of rings (size 3 to 8) (size 9 to 14) (size 15 to 20)
#    0.000    2.333    0.000    3.000    1.556    7.111 
#    0.000    0.000    0.000    0.667    0.000    0.000 
#    0.000    0.000    0.000    0.000    0.000    0.889 
#
# Total GULP energy -446302.673336 kJ/mol
# GULP energy per Si atom -12397.296482 kJ/mol
# Density = 1.792386 g / cm^3
# Si number density = 17.964745 Si / 1000 Ang^3
#
#
#
# Elastic Constant Matrix: (Units=GPa)
#
#
# Indices 1 2 3 4 5 6 
#
# 1 76.2280 43.9323 43.3455 0.0000 0.0000 0.0000
# 2 43.9323 120.9571 79.1853 0.0000 0.0000 0.0000
# 3 43.3455 79.1853 106.4210 0.0000 0.0000 0.0000
# 4 0.0000 0.0000 0.0000 26.6512 0.0000 0.0000
# 5 0.0000 0.0000 0.0000 0.0000 19.0720 0.0000
# 6 0.0000 0.0000 0.0000 0.0000 0.0000 18.4610
#
#
#
# Elastic Compliance Matrix: (Units=1/GPa)
#
#
# Indices 1 2 3 4 5 6 
#
# 1 0.017739 -0.003340 -0.004740 0.000000 0.000000 0.000000
# 2 -0.003340 0.016748 -0.011102 0.000000 0.000000 0.000000
# 3 -0.004740 -0.011102 0.019588 0.000000 0.000000 0.000000
# 4 0.000000 0.000000 0.000000 0.037522 0.000000 0.000000
# 5 0.000000 0.000000 0.000000 0.000000 0.052433 0.000000
# 6 0.000000 0.000000 0.000000 0.000000 0.000000 0.054168
#
#
# Mechanical properties :
#
#
# Convention : Reuss Voigt Hill
#
# Bulk Modulus (GPa) = 63.64631 70.72580 67.18605
# Shear Modulus (GPa) = 20.67847 21.97968 21.32907
#
# Velocity S-wave (km/s) = 3.39641 3.50164 3.44942
# Velocity P-wave (km/s) = 7.13345 7.47016 7.30375
#
# Compressibility (1/GPa) = 0.01571183
#
# Stress axis : x y z
#
# Youngs Moduli (GPa) = 56.37426 59.70808 51.05238
#
# Poissons Ratio (x) = 0.19941 0.24199
# Poissons Ratio (y) = 0.18827 0.56677
# Poissons Ratio (z) = 0.26721 0.66286
#
# Static dielectric constant tensor:
#      x y z
#    x 3.446830 0.000000 0.000000 
#    y 0.000000 3.437620 0.000000 
#    z 0.000000 0.000000 3.207750 
# 
# 
# High freq. dielectric constant tensor:
#      x y z
#    x 1.702800 0.000000 0.000000 
#    y 0.000000 1.695740 0.000000 
#    z 0.000000 0.000000 1.670730 
# 
# From -- ./inp_files/5526.got.cif
#   From: 2010.03.12/outbox.cif.g09.slc.cpg/sg69_3_cif.got.tgz:5526.got - 2010.04.10 23:52:46.
