data_PCOD8284864
_publ_section_title
;
Structure prediction by ZEFSAII (Michael W. Deem and Ramdas Pophale) SiO2 
 PCOD8284864
Probable space group: F M M M
;
_chemical_formula_sum "Si O2"
_cell_formula_units_Z 128
_cell_length_a 23.658146
_cell_length_b 17.745498
_cell_length_c 14.883511
_cell_angle_alpha 90.000000
_cell_angle_beta 90.000000
_cell_angle_gamma 90.000000
_cell_volume 6248.478676
_symmetry_space_group_name_H-M "F M M M"
_symmetry_group_IT_number 69
_symmetry_cell_setting 'orthorhombic'
loop_
_space_group_symop_operation_xyz
x,y,z
-x,-y,z
x,-y,-z
-x,y,-z
-x,-y,-z
x,y,-z
-x,y,z
x,-y,z
x,1/2+y,1/2+z
-x,1/2-y,1/2+z
x,1/2-y,1/2-z
-x,1/2+y,1/2-z
-x,1/2-y,1/2-z
x,1/2+y,1/2-z
-x,1/2+y,1/2+z
x,1/2-y,1/2+z
1/2+x,y,1/2+z
1/2-x,-y,1/2+z
1/2+x,-y,1/2-z
1/2-x,y,1/2-z
1/2-x,-y,1/2-z
1/2+x,y,1/2-z
1/2-x,y,1/2+z
1/2+x,-y,1/2+z
1/2+x,1/2+y,z
1/2-x,1/2-y,z
1/2+x,1/2-y,-z
1/2-x,1/2+y,-z
1/2-x,1/2-y,-z
1/2+x,1/2+y,-z
1/2-x,1/2+y,z
1/2+x,1/2-y,z
loop_
_atom_site_type_symbol
_atom_site_label
_atom_site_fract_x
_atom_site_fract_y
_atom_site_fract_z
Si Si1 0.313132 0.000000 0.722510
Si Si2 0.322435 0.281615 0.655552
Si Si3 0.608764 0.500000 0.398914
Si Si4 0.437774 0.840216 0.102330
Si Si5 0.718307 0.869142 0.598960
O O1 0.250000 0.000000 0.750000
O O2 0.319664 0.076306 0.662630
O O3 0.349538 0.000000 0.813169
O O4 0.301769 0.250000 0.750000
O O5 0.388240 0.302421 0.659841
O O6 0.312003 0.212067 0.588326
O O7 0.283670 0.354879 0.631932
O O8 0.638323 0.500000 0.500000
O O9 0.567400 0.429614 0.390902
O O10 0.500000 0.816959 0.139035
O O11 0.430809 0.812988 0.000000
O O12 0.721151 0.906015 0.500000
#
# Coordination Sequence:
#
# PCOD8284864 Si02
#       5
#    16  32  16  32  32
#     4  12  23  36  53  81 110 141 187 231 273 334
#     4  11  21  36  55  81 115 148 184 230 284 340
#     4  10  21  37  56  80 114 150 182 229 291 344
#     4  10  20  35  56  81 109 144 188 234 282 339
#     4  11  22  37  57  80 113 152 187 228 281 340
#
# _framework density 20.484985999999999
#
# number of rings (size 3 to 8) (size 9 to 14) (size 15 to 20)
#    0.000    1.250    0.000    9.750    0.000    5.000 
#    0.000    0.000    0.000    0.000    0.000    0.000 
#    0.000   10.000    0.000    0.000    0.000    0.000 
#
# Total GULP energy -396485.459074 kJ/mol
# GULP energy per Si atom -12390.170596 kJ/mol
# Density = 2.043836 g / cm^3
# Si number density = 20.484986 Si / 1000 Ang^3
#
#
#
# Elastic Constant Matrix: (Units=GPa)
#
#
# Indices 1 2 3 4 5 6 
#
# 1 135.9103 29.5471 33.0189 0.0000 0.0000 0.0000
# 2 29.5471 76.9231 20.3500 0.0000 0.0000 0.0000
# 3 33.0189 20.3500 129.4611 0.0000 0.0000 0.0000
# 4 0.0000 0.0000 0.0000 22.8106 0.0000 0.0000
# 5 0.0000 0.0000 0.0000 0.0000 24.9971 0.0000
# 6 0.0000 0.0000 0.0000 0.0000 0.0000 23.9722
#
#
#
# Elastic Compliance Matrix: (Units=1/GPa)
#
#
# Indices 1 2 3 4 5 6 
#
# 1 0.008372 -0.002766 -0.001701 0.000000 0.000000 0.000000
# 2 -0.002766 0.014478 -0.001570 0.000000 0.000000 0.000000
# 3 -0.001701 -0.001570 0.008405 0.000000 0.000000 0.000000
# 4 0.000000 0.000000 0.000000 0.043839 0.000000 0.000000
# 5 0.000000 0.000000 0.000000 0.000000 0.040005 0.000000
# 6 0.000000 0.000000 0.000000 0.000000 0.000000 0.041715
#
#
# Mechanical properties :
#
#
# Convention : Reuss Voigt Hill
#
# Bulk Modulus (GPa) = 52.13412 56.45849 54.29630
# Shear Modulus (GPa) = 28.52556 31.64789 30.08672
#
# Velocity S-wave (km/s) = 3.73568 3.93483 3.83655
# Velocity P-wave (km/s) = 6.64171 6.94727 6.79621
#
# Compressibility (1/GPa) = 0.01918130
#
# Stress axis : x y z
#
# Youngs Moduli (GPa) = 119.44194 69.07095 118.97844
#
# Poissons Ratio (x) = 0.19105 0.20233
# Poissons Ratio (y) = 0.33038 0.18683
# Poissons Ratio (z) = 0.20312 0.10846
#
# Static dielectric constant tensor:
#      x y z
#    x 3.267270 0.000000 0.000000 
#    y 0.000000 11.615930 0.000000 
#    z 0.000000 0.000000 3.499940 
# 
# 
# High freq. dielectric constant tensor:
#      x y z
#    x 1.773400 0.000000 0.000000 
#    y 0.000000 1.802460 0.000000 
#    z 0.000000 0.000000 1.802970 
# 
# From -- ./inp_files/18650.got.cif
#   From: 2010.03.12/outbox.cif.g09.slc.cpg/sg69_10_cif.got.tgz:18650.got - 2010.04.10 23:52:46.
