data_PCOD8284323
_publ_section_title
;
Structure prediction by ZEFSAII (Michael W. Deem and Ramdas Pophale) SiO2 
 PCOD8284323
Probable space group: F M M M
;
_chemical_formula_sum "Si O2"
_cell_formula_units_Z 144
_cell_length_a 14.736695
_cell_length_b 26.972697
_cell_length_c 17.576110
_cell_angle_alpha 90.000000
_cell_angle_beta 90.000000
_cell_angle_gamma 90.000000
_cell_volume 6986.300001
_symmetry_space_group_name_H-M "F M M M"
_symmetry_group_IT_number 69
_symmetry_cell_setting 'orthorhombic'
loop_
_space_group_symop_operation_xyz
x,y,z
-x,-y,z
x,-y,-z
-x,y,-z
-x,-y,-z
x,y,-z
-x,y,z
x,-y,z
x,1/2+y,1/2+z
-x,1/2-y,1/2+z
x,1/2-y,1/2-z
-x,1/2+y,1/2-z
-x,1/2-y,1/2-z
x,1/2+y,1/2-z
-x,1/2+y,1/2+z
x,1/2-y,1/2+z
1/2+x,y,1/2+z
1/2-x,-y,1/2+z
1/2+x,-y,1/2-z
1/2-x,y,1/2-z
1/2-x,-y,1/2-z
1/2+x,y,1/2-z
1/2-x,y,1/2+z
1/2+x,-y,1/2+z
1/2+x,1/2+y,z
1/2-x,1/2-y,z
1/2+x,1/2-y,-z
1/2-x,1/2+y,-z
1/2-x,1/2-y,-z
1/2+x,1/2+y,-z
1/2-x,1/2+y,z
1/2+x,1/2-y,z
loop_
_atom_site_type_symbol
_atom_site_label
_atom_site_fract_x
_atom_site_fract_y
_atom_site_fract_z
Si Si1 0.146213 0.877516 0.642504
Si Si2 0.000000 0.191200 0.910649
Si Si3 0.606175 0.943731 0.723546
Si Si4 0.500000 0.948267 0.915101
Si Si5 0.000000 0.196371 0.407171
Si Si6 0.845284 0.617536 0.588642
O O1 0.157190 0.900833 0.727362
O O2 0.242555 0.866541 0.604814
O O3 0.092541 0.919491 0.597675
O O4 0.088713 0.827089 0.633181
O O5 0.909843 0.162457 0.883395
O O6 0.000000 0.246969 0.879503
O O7 0.000000 0.194868 0.000000
O O8 0.500000 0.939111 0.743366
O O9 0.626696 0.931609 0.635364
O O10 0.640942 0.000000 0.739076
O O11 0.500000 0.000000 0.866592
O O12 0.500000 0.964840 0.000000
O O13 0.000000 0.188853 0.500000
O O14 0.859811 0.605477 0.500000
#
# Coordination Sequence:
#
# PCOD8284323 Si02
#       6
#    32  16  32  16  16  32
#     4  11  21  37  61  92 122 155 199 251 308 363
#     4   9  21  40  61  87 123 164 203 250 304 358
#     4  11  23  41  64  88 122 166 204 245 301 363
#     4  10  19  32  53  84 121 154 188 240 301 357
#     4  10  20  38  64  93 123 158 202 252 310 369
#     4  11  23  41  63  89 123 163 208 254 298 356
#
# _framework density 20.611768999999999
#
# number of rings (size 3 to 8) (size 9 to 14) (size 15 to 20)
#    0.000    1.444    3.333    4.000    0.000    4.000 
#    0.000    6.667    0.000    2.667    0.000    0.000 
#    0.000    0.000    0.000    0.000    0.000    0.000 
#
# Total GULP energy -446144.616613 kJ/mol
# GULP energy per Si atom -12392.906017 kJ/mol
# Density = 2.056486 g / cm^3
# Si number density = 20.611769 Si / 1000 Ang^3
#
#
#
# Elastic Constant Matrix: (Units=GPa)
#
#
# Indices 1 2 3 4 5 6 
#
# 1 143.4178 63.0447 21.3558 0.0000 0.0000 0.0000
# 2 63.0447 141.1691 45.7821 0.0000 0.0000 0.0000
# 3 21.3558 45.7821 100.1914 0.0000 0.0000 0.0000
# 4 0.0000 0.0000 0.0000 34.3673 0.0000 0.0000
# 5 0.0000 0.0000 0.0000 0.0000 30.4080 0.0000
# 6 0.0000 0.0000 0.0000 0.0000 0.0000 6.5096
#
#
#
# Elastic Compliance Matrix: (Units=1/GPa)
#
#
# Indices 1 2 3 4 5 6 
#
# 1 0.008677 -0.003845 -0.000093 0.000000 0.000000 0.000000
# 2 -0.003845 0.010020 -0.003759 0.000000 0.000000 0.000000
# 3 -0.000093 -0.003759 0.011718 0.000000 0.000000 0.000000
# 4 0.000000 0.000000 0.000000 0.029097 0.000000 0.000000
# 5 0.000000 0.000000 0.000000 0.000000 0.032886 0.000000
# 6 0.000000 0.000000 0.000000 0.000000 0.000000 0.153618
#
#
# Mechanical properties :
#
#
# Convention : Reuss Voigt Hill
#
# Bulk Modulus (GPa) = 66.56931 71.68259 69.12595
# Shear Modulus (GPa) = 18.76761 31.23003 24.99882
#
# Velocity S-wave (km/s) = 3.02077 3.89672 3.48637
# Velocity P-wave (km/s) = 6.67335 7.42287 7.05806
#
# Compressibility (1/GPa) = 0.01502194
#
# Stress axis : x y z
#
# Youngs Moduli (GPa) = 115.25299 99.80195 85.33683
#
# Poissons Ratio (x) = 0.38372 0.00790
# Poissons Ratio (y) = 0.44313 0.32078
# Poissons Ratio (z) = 0.01066 0.37515
#
# Static dielectric constant tensor:
#      x y z
#    x 3.872500 0.000000 0.000000 
#    y 0.000000 3.859460 0.000000 
#    z 0.000000 0.000000 3.856500 
# 
# 
# High freq. dielectric constant tensor:
#      x y z
#    x 1.810050 0.000000 0.000000 
#    y 0.000000 1.798270 0.000000 
#    z 0.000000 0.000000 1.808380 
# 
# From -- ./inp_files/21829.got.cif
#   From: 2010.03.12/outbox.cif.g09.slc.cpg/sg69_11_cif.got.tgz:21829.got - 2010.04.10 23:52:46.
