data_PCOD8284169
_publ_section_title
;
Structure prediction by ZEFSAII (Michael W. Deem and Ramdas Pophale) SiO2 
 PCOD8284169
Probable space group: F M M M
;
_chemical_formula_sum "Si O2"
_cell_formula_units_Z 144
_cell_length_a 24.831095
_cell_length_b 16.722896
_cell_length_c 15.157540
_cell_angle_alpha 90.000000
_cell_angle_beta 90.000000
_cell_angle_gamma 90.000000
_cell_volume 6294.135430
_symmetry_space_group_name_H-M "F M M M"
_symmetry_group_IT_number 69
_symmetry_cell_setting 'orthorhombic'
loop_
_space_group_symop_operation_xyz
x,y,z
-x,-y,z
x,-y,-z
-x,y,-z
-x,-y,-z
x,y,-z
-x,y,z
x,-y,z
x,1/2+y,1/2+z
-x,1/2-y,1/2+z
x,1/2-y,1/2-z
-x,1/2+y,1/2-z
-x,1/2-y,1/2-z
x,1/2+y,1/2-z
-x,1/2+y,1/2+z
x,1/2-y,1/2+z
1/2+x,y,1/2+z
1/2-x,-y,1/2+z
1/2+x,-y,1/2-z
1/2-x,y,1/2-z
1/2-x,-y,1/2-z
1/2+x,y,1/2-z
1/2-x,y,1/2+z
1/2+x,-y,1/2+z
1/2+x,1/2+y,z
1/2-x,1/2-y,z
1/2+x,1/2-y,-z
1/2-x,1/2+y,-z
1/2-x,1/2-y,-z
1/2+x,1/2+y,-z
1/2-x,1/2+y,z
1/2+x,1/2-y,z
loop_
_atom_site_type_symbol
_atom_site_label
_atom_site_fract_x
_atom_site_fract_y
_atom_site_fract_z
Si Si1 0.941306 0.159179 0.604295
Si Si2 0.000000 0.908235 0.895611
Si Si3 0.392058 0.179029 0.604289
Si Si4 0.231466 0.000000 0.650217
Si Si5 0.611800 0.500000 0.605193
Si Si6 0.228136 0.665919 0.651470
O O1 0.946595 0.153912 0.500000
O O2 0.900491 0.228818 0.630402
O O3 0.920055 0.076070 0.641849
O O4 0.000000 0.176671 0.645406
O O5 0.055667 0.869304 0.859162
O O6 0.000000 0.000000 0.867786
O O7 0.000000 0.894726 0.000000
O O8 0.385306 0.165436 0.500000
O O9 0.336478 0.156595 0.651633
O O10 0.250000 0.000000 0.750000
O O11 0.168117 0.000000 0.652252
O O12 0.251032 0.916341 0.603682
O O13 0.618738 0.500000 0.500000
O O14 0.250000 0.666279 0.750000
O O15 0.250000 0.750000 0.606470
#
# Coordination Sequence:
#
# PCOD8284169 Si02
#       6
#    32  16  32  16  16  32
#     4   9  16  29  49  81 118 145 171 214 277 336
#     4   9  18  32  52  84 117 143 174 222 285 340
#     4  10  19  33  57  86 116 145 181 227 276 333
#     4  10  22  39  55  77 101 153 191 228 277 324
#     4  10  19  30  52  83 112 141 182 228 266 324
#     4  10  22  39  57  79 107 153 192 230 277 328
#
# _framework density 22.878440000000001
#
# number of rings (size 3 to 8) (size 9 to 14) (size 15 to 20)
#    0.000    2.333    1.111    1.667    1.556    2.667 
#    0.000    0.000    0.000    2.667   23.111    0.000 
#    0.000    0.000    0.000    0.000    0.000    0.222 
#
# Total GULP energy -446072.008845 kJ/mol
# GULP energy per Si atom -12390.889135 kJ/mol
# Density = 2.282637 g / cm^3
# Si number density = 22.878440 Si / 1000 Ang^3
#
#
#
# Elastic Constant Matrix: (Units=GPa)
#
#
# Indices 1 2 3 4 5 6 
#
# 1 192.5379 61.5064 22.1241 0.0000 0.0000 0.0000
# 2 61.5064 196.9595 4.4408 0.0000 0.0000 0.0000
# 3 22.1241 4.4408 24.6776 0.0000 0.0000 0.0000
# 4 0.0000 0.0000 0.0000 4.5220 0.0000 0.0000
# 5 0.0000 0.0000 0.0000 0.0000 14.5970 0.0000
# 6 0.0000 0.0000 0.0000 0.0000 0.0000 58.4945
#
#
#
# Elastic Compliance Matrix: (Units=1/GPa)
#
#
# Indices 1 2 3 4 5 6 
#
# 1 0.006417 -0.001882 -0.005414 0.000000 0.000000 0.000000
# 2 -0.001882 0.005650 0.000670 0.000000 0.000000 0.000000
# 3 -0.005414 0.000670 0.045256 0.000000 0.000000 0.000000
# 4 0.000000 0.000000 0.000000 0.221140 0.000000 0.000000
# 5 0.000000 0.000000 0.000000 0.000000 0.068507 0.000000
# 6 0.000000 0.000000 0.000000 0.000000 0.000000 0.017096
#
#
# Mechanical properties :
#
#
# Convention : Reuss Voigt Hill
#
# Bulk Modulus (GPa) = 22.69052 65.59085 44.14069
# Shear Modulus (GPa) = 12.75484 37.26296 25.00890
#
# Velocity S-wave (km/s) = 2.36372 4.04014 3.30982
# Velocity P-wave (km/s) = 4.17000 7.10599 5.82598
#
# Compressibility (1/GPa) = 0.04407127
#
# Stress axis : x y z
#
# Youngs Moduli (GPa) = 155.83344 176.99948 22.09644
#
# Poissons Ratio (x) = 0.33309 0.11964
# Poissons Ratio (y) = 0.29326 -0.01481
# Poissons Ratio (z) = 0.84376 -0.11867
#
# Static dielectric constant tensor:
#      x y z
#    x 4.225280 0.000000 0.000000 
#    y 0.000000 5.593030 0.000000 
#    z 0.000000 0.000000 3.454650 
# 
# 
# High freq. dielectric constant tensor:
#      x y z
#    x 1.917630 0.000000 0.000000 
#    y 0.000000 1.926070 0.000000 
#    z 0.000000 0.000000 1.846670 
# 
# From -- ./inp_files/31696.got.cif
#   From: 2010.03.12/outbox.cif.g09.slc.cpg/sg69_16_cif.got.tgz:31696.got - 2010.04.10 23:52:46.
