data_PCOD8284797
_publ_section_title
;
Structure prediction by ZEFSAII (Michael W. Deem and Ramdas Pophale) SiO2 
 PCOD8284797
Probable space group: F M M M
;
_chemical_formula_sum "Si O2"
_cell_formula_units_Z 160
_cell_length_a 17.440317
_cell_length_b 16.817085
_cell_length_c 28.405019
_cell_angle_alpha 90.000000
_cell_angle_beta 90.000000
_cell_angle_gamma 90.000000
_cell_volume 8331.058382
_symmetry_space_group_name_H-M "F M M M"
_symmetry_group_IT_number 69
_symmetry_cell_setting 'orthorhombic'
loop_
_space_group_symop_operation_xyz
x,y,z
-x,-y,z
x,-y,-z
-x,y,-z
-x,-y,-z
x,y,-z
-x,y,z
x,-y,z
x,1/2+y,1/2+z
-x,1/2-y,1/2+z
x,1/2-y,1/2-z
-x,1/2+y,1/2-z
-x,1/2-y,1/2-z
x,1/2+y,1/2-z
-x,1/2+y,1/2+z
x,1/2-y,1/2+z
1/2+x,y,1/2+z
1/2-x,-y,1/2+z
1/2+x,-y,1/2-z
1/2-x,y,1/2-z
1/2-x,-y,1/2-z
1/2+x,y,1/2-z
1/2-x,y,1/2+z
1/2+x,-y,1/2+z
1/2+x,1/2+y,z
1/2-x,1/2-y,z
1/2+x,1/2-y,-z
1/2-x,1/2+y,-z
1/2-x,1/2-y,-z
1/2+x,1/2+y,-z
1/2-x,1/2+y,z
1/2+x,1/2-y,z
loop_
_atom_site_type_symbol
_atom_site_label
_atom_site_fract_x
_atom_site_fract_y
_atom_site_fract_z
Si Si1 0.410558 0.729330 0.303528
Si Si2 0.914074 0.094341 0.448493
Si Si3 0.665643 0.907822 0.145680
Si Si4 0.192350 0.179568 0.874429
Si Si5 0.912593 0.090940 0.055031
O O1 0.500000 0.733941 0.314800
O O2 0.392080 0.750000 0.250000
O O3 0.379793 0.640651 0.314357
O O4 0.367261 0.793867 0.334917
O O5 0.883540 0.123619 0.500000
O O6 0.861390 0.124571 0.405878
O O7 0.000000 0.127368 0.440574
O O8 0.915382 0.000000 0.448021
O O9 0.756613 0.891655 0.147879
O O10 0.647246 0.000000 0.153849
O O11 0.250000 0.250000 0.889362
O O12 0.145751 0.149706 0.919399
O O13 0.000000 0.112007 0.068856
O O14 0.894632 0.000000 0.069298
O O15 0.899776 0.103098 0.000000
#
# Coordination Sequence:
#
# PCOD8284797 Si02
#       5
#    32  32  32  32  32
#     4  10  22  41  61  78 102 139 180 223 271 321
#     4   8  14  26  46  74 108 142 174 211 256 305
#     4  10  20  34  56  85 113 141 174 217 269 321
#     4  10  21  35  54  80 111 144 175 214 270 331
#     4   9  18  34  56  79 106 145 190 230 261 296
#
# _framework density 19.205244
#
# number of rings (size 3 to 8) (size 9 to 14) (size 15 to 20)
#    0.000    2.600    0.000    3.000    0.000    6.000 
#    0.000    8.000    0.000   13.200    0.000    0.000 
#    0.000    0.000    0.000    0.000    0.000    0.000 
#
# Total GULP energy -495885.104053 kJ/mol
# GULP energy per Si atom -12397.127601 kJ/mol
# Density = 1.916153 g / cm^3
# Si number density = 19.205244 Si / 1000 Ang^3
#
#
#
# Elastic Constant Matrix: (Units=GPa)
#
#
# Indices 1 2 3 4 5 6 
#
# 1 129.2646 57.2917 76.3476 0.0000 0.0000 0.0000
# 2 57.2917 78.3289 67.2960 0.0000 0.0000 0.0000
# 3 76.3476 67.2960 112.7389 0.0000 0.0000 0.0000
# 4 0.0000 0.0000 0.0000 32.8113 0.0000 0.0000
# 5 0.0000 0.0000 0.0000 0.0000 17.3203 0.0000
# 6 0.0000 0.0000 0.0000 0.0000 0.0000 26.1028
#
#
#
# Elastic Compliance Matrix: (Units=1/GPa)
#
#
# Indices 1 2 3 4 5 6 
#
# 1 0.013520 -0.004152 -0.006678 0.000000 0.000000 0.000000
# 2 -0.004152 0.027481 -0.013592 0.000000 0.000000 0.000000
# 3 -0.006678 -0.013592 0.021506 0.000000 0.000000 0.000000
# 4 0.000000 0.000000 0.000000 0.030477 0.000000 0.000000
# 5 0.000000 0.000000 0.000000 0.000000 0.057736 0.000000
# 6 0.000000 0.000000 0.000000 0.000000 0.000000 0.038310
#
#
# Mechanical properties :
#
#
# Convention : Reuss Voigt Hill
#
# Bulk Modulus (GPa) = 73.18836 80.24478 76.71657
# Shear Modulus (GPa) = 20.62458 23.20669 21.91564
#
# Velocity S-wave (km/s) = 3.28060 3.47991 3.38172
# Velocity P-wave (km/s) = 7.24852 7.61707 7.43508
#
# Compressibility (1/GPa) = 0.01366338
#
# Stress axis : x y z
#
# Youngs Moduli (GPa) = 73.96281 36.38820 46.49919
#
# Poissons Ratio (x) = 0.15109 0.31050
# Poissons Ratio (y) = 0.30710 0.63204
# Poissons Ratio (z) = 0.49390 0.49460
#
# Static dielectric constant tensor:
#      x y z
#    x 3.721720 0.000000 0.000000 
#    y 0.000000 3.397950 0.000000 
#    z 0.000000 0.000000 3.532330 
# 
# 
# High freq. dielectric constant tensor:
#      x y z
#    x 1.757090 0.000000 0.000000 
#    y 0.000000 1.735670 0.000000 
#    z 0.000000 0.000000 1.736910 
# 
# From -- ./inp_files/26632.got.cif
#   From: 2010.03.12/outbox.cif.g09.slc.cpg/sg69_14_cif.got.tgz:26632.got - 2010.04.10 23:52:46.
