data_PCOD8284726
_publ_section_title
;
Structure prediction by ZEFSAII (Michael W. Deem and Ramdas Pophale) SiO2 
 PCOD8284726
Probable space group: F M M M
;
_chemical_formula_sum "Si O2"
_cell_formula_units_Z 176
_cell_length_a 17.322098
_cell_length_b 27.404561
_cell_length_c 19.839060
_cell_angle_alpha 90.000000
_cell_angle_beta 90.000000
_cell_angle_gamma 90.000000
_cell_volume 9417.690885
_symmetry_space_group_name_H-M "F M M M"
_symmetry_group_IT_number 69
_symmetry_cell_setting 'orthorhombic'
loop_
_space_group_symop_operation_xyz
x,y,z
-x,-y,z
x,-y,-z
-x,y,-z
-x,-y,-z
x,y,-z
-x,y,z
x,-y,z
x,1/2+y,1/2+z
-x,1/2-y,1/2+z
x,1/2-y,1/2-z
-x,1/2+y,1/2-z
-x,1/2-y,1/2-z
x,1/2+y,1/2-z
-x,1/2+y,1/2+z
x,1/2-y,1/2+z
1/2+x,y,1/2+z
1/2-x,-y,1/2+z
1/2+x,-y,1/2-z
1/2-x,y,1/2-z
1/2-x,-y,1/2-z
1/2+x,y,1/2-z
1/2-x,y,1/2+z
1/2+x,-y,1/2+z
1/2+x,1/2+y,z
1/2-x,1/2-y,z
1/2+x,1/2-y,-z
1/2-x,1/2+y,-z
1/2-x,1/2-y,-z
1/2+x,1/2+y,-z
1/2-x,1/2+y,z
1/2+x,1/2-y,z
loop_
_atom_site_type_symbol
_atom_site_label
_atom_site_fract_x
_atom_site_fract_y
_atom_site_fract_z
Si Si1 0.089909 0.556455 0.000000
Si Si2 0.840024 0.136755 0.262070
Si Si3 0.089886 0.324819 0.369617
Si Si4 0.408832 0.056971 0.854297
Si Si5 0.587905 0.288165 0.641367
Si Si6 0.150779 0.796105 0.500000
Si Si7 0.820414 0.681777 0.500000
O O1 0.121792 0.576724 0.071811
O O2 0.108535 0.500000 0.000000
O O3 0.000000 0.565909 0.000000
O O4 0.750000 0.134540 0.250000
O O5 0.886017 0.141077 0.192137
O O6 0.865878 0.086682 0.296641
O O7 0.856550 0.183534 0.308224
O O8 0.108159 0.268684 0.351655
O O9 0.139671 0.341469 0.434206
O O10 0.000000 0.331574 0.386888
O O11 0.500000 0.065981 0.848276
O O12 0.389411 0.000000 0.844822
O O13 0.500000 0.298709 0.662487
O O14 0.600555 0.308308 0.565797
O O15 0.168549 0.739313 0.500000
O O16 0.228751 0.828639 0.500000
#
# Coordination Sequence:
#
# PCOD8284726 Si02
#       7
#    16  32  32  32  32  16  16
#     4   7  12  27  54  83 104 124 153 192 243 303
#     4  12  24  34  48  74 106 139 172 212 263 309
#     4  10  20  35  53  72  98 136 182 223 256 301
#     4   9  18  35  58  81 105 133 166 205 252 311
#     4  10  20  34  52  74 102 136 174 216 260 310
#     4   9  17  30  49  75 104 132 166 210 263 316
#     4   9  17  31  51  72  98 135 174 215 263 309
#
# _framework density 18.688231999999999
#
# number of rings (size 3 to 8) (size 9 to 14) (size 15 to 20)
#    0.000    2.273    0.000    4.909    0.000    7.636 
#    0.000    2.727    0.000    0.000    0.000    0.636 
#    0.000    2.909    0.000    0.000    0.000    0.545 
#
# Total GULP energy -545446.027563 kJ/mol
# GULP energy per Si atom -12396.500626 kJ/mol
# Density = 1.864570 g / cm^3
# Si number density = 18.688232 Si / 1000 Ang^3
#
#
#
# Elastic Constant Matrix: (Units=GPa)
#
#
# Indices 1 2 3 4 5 6 
#
# 1 85.3557 35.2623 45.9684 0.0000 0.0000 0.0000
# 2 35.2623 60.9557 49.9205 0.0000 0.0000 0.0000
# 3 45.9684 49.9205 151.1241 0.0000 0.0000 0.0000
# 4 0.0000 0.0000 0.0000 4.1459 0.0000 0.0000
# 5 0.0000 0.0000 0.0000 0.0000 25.1492 0.0000
# 6 0.0000 0.0000 0.0000 0.0000 0.0000 17.3383
#
#
#
# Elastic Compliance Matrix: (Units=1/GPa)
#
#
# Indices 1 2 3 4 5 6 
#
# 1 0.016049 -0.007247 -0.002488 0.000000 0.000000 0.000000
# 2 -0.007247 0.025762 -0.006305 0.000000 0.000000 0.000000
# 3 -0.002488 -0.006305 0.009457 0.000000 0.000000 0.000000
# 4 0.000000 0.000000 0.000000 0.241205 0.000000 0.000000
# 5 0.000000 0.000000 0.000000 0.000000 0.039763 0.000000
# 6 0.000000 0.000000 0.000000 0.000000 0.000000 0.057676
#
#
# Mechanical properties :
#
#
# Convention : Reuss Voigt Hill
#
# Bulk Modulus (GPa) = 52.11841 62.19312 57.15576
# Shear Modulus (GPa) = 11.67167 20.41228 16.04198
#
# Velocity S-wave (km/s) = 2.50180 3.30851 2.93302
# Velocity P-wave (km/s) = 6.02447 6.92434 6.49002
#
# Compressibility (1/GPa) = 0.01918708
#
# Stress axis : x y z
#
# Youngs Moduli (GPa) = 62.30743 38.81758 105.74473
#
# Poissons Ratio (x) = 0.28131 0.26310
# Poissons Ratio (y) = 0.45153 0.66677
# Poissons Ratio (z) = 0.15502 0.24476
#
# Static dielectric constant tensor:
#      x y z
#    x 3.323190 0.000000 0.000000 
#    y 0.000000 3.106260 0.000000 
#    z 0.000000 0.000000 3.788590 
# 
# 
# High freq. dielectric constant tensor:
#      x y z
#    x 1.714820 0.000000 0.000000 
#    y 0.000000 1.689120 0.000000 
#    z 0.000000 0.000000 1.743940 
# 
# From -- ./inp_files/23309.got.cif
#   From: 2010.03.12/outbox.cif.g09.slc.cpg/sg69_12_cif.got.tgz:23309.got - 2010.04.10 23:52:46.
