data_PCOD8284298
_publ_section_title
;
Structure prediction by ZEFSAII (Michael W. Deem and Ramdas Pophale) SiO2 
 PCOD8284298
Probable space group: F M M M
;
_chemical_formula_sum "Si O2"
_cell_formula_units_Z 176
_cell_length_a 23.408632
_cell_length_b 17.309052
_cell_length_c 22.941224
_cell_angle_alpha 90.000000
_cell_angle_beta 90.000000
_cell_angle_gamma 90.000000
_cell_volume 9295.353324
_symmetry_space_group_name_H-M "F M M M"
_symmetry_group_IT_number 69
_symmetry_cell_setting 'orthorhombic'
loop_
_space_group_symop_operation_xyz
x,y,z
-x,-y,z
x,-y,-z
-x,y,-z
-x,-y,-z
x,y,-z
-x,y,z
x,-y,z
x,1/2+y,1/2+z
-x,1/2-y,1/2+z
x,1/2-y,1/2-z
-x,1/2+y,1/2-z
-x,1/2-y,1/2-z
x,1/2+y,1/2-z
-x,1/2+y,1/2+z
x,1/2-y,1/2+z
1/2+x,y,1/2+z
1/2-x,-y,1/2+z
1/2+x,-y,1/2-z
1/2-x,y,1/2-z
1/2-x,-y,1/2-z
1/2+x,y,1/2-z
1/2-x,y,1/2+z
1/2+x,-y,1/2+z
1/2+x,1/2+y,z
1/2-x,1/2-y,z
1/2+x,1/2-y,-z
1/2-x,1/2+y,-z
1/2-x,1/2-y,-z
1/2+x,1/2+y,-z
1/2-x,1/2+y,z
1/2+x,1/2-y,z
loop_
_atom_site_type_symbol
_atom_site_label
_atom_site_fract_x
_atom_site_fract_y
_atom_site_fract_z
Si Si1 0.565574 0.347108 0.378266
Si Si2 0.432050 0.000000 0.065381
Si Si3 0.853074 0.590597 0.350197
Si Si4 0.258301 0.159430 0.816765
Si Si5 0.932642 0.811817 0.068897
Si Si6 0.871329 0.907561 0.717507
O O1 0.500000 0.342995 0.395208
O O2 0.594640 0.422555 0.407200
O O3 0.591535 0.268323 0.404374
O O4 0.573863 0.361974 0.308867
O O5 0.500000 0.000000 0.073972
O O6 0.412171 0.000000 0.000000
O O7 0.856786 0.500000 0.356360
O O8 0.787352 0.617413 0.359210
O O9 0.896344 0.622849 0.398369
O O10 0.869416 0.618262 0.284790
O O11 0.250000 0.134502 0.750000
O O12 0.250000 0.250000 0.826903
O O13 0.322053 0.127033 0.826044
O O14 0.000000 0.824828 0.081454
O O15 0.920201 0.814843 0.000000
O O16 0.874825 0.000000 0.712005
#
# Coordination Sequence:
#
# PCOD8284298 Si02
#       6
#    32  16  32  32  32  32
#     4  10  19  32  52  79 110 142 174 218 274 331
#     4   9  16  28  48  72  99 136 173 201 243 312
#     4  10  21  36  55  80 109 145 185 227 275 325
#     4   9  17  31  53  80 108 140 178 217 265 328
#     4  10  22  39  57  78 105 143 194 241 276 317
#     4  10  19  32  53  83 116 143 173 218 274 338
#
# _framework density 18.934193
#
# number of rings (size 3 to 8) (size 9 to 14) (size 15 to 20)
#    0.000    2.273    0.909    2.182    0.000    8.000 
#    0.000    4.545    0.000    6.000    0.000    0.000 
#    0.000    0.000    0.000    0.000    0.000    0.000 
#
# Total GULP energy -545136.286802 kJ/mol
# GULP energy per Si atom -12389.461064 kJ/mol
# Density = 1.889110 g / cm^3
# Si number density = 18.934193 Si / 1000 Ang^3
#
#
#
# Elastic Constant Matrix: (Units=GPa)
#
#
# Indices 1 2 3 4 5 6 
#
# 1 39.3232 25.7849 27.3301 0.0000 0.0000 0.0000
# 2 25.7849 100.0072 40.0769 0.0000 0.0000 0.0000
# 3 27.3301 40.0769 86.0597 0.0000 0.0000 0.0000
# 4 0.0000 0.0000 0.0000 25.0763 0.0000 0.0000
# 5 0.0000 0.0000 0.0000 0.0000 23.3719 0.0000
# 6 0.0000 0.0000 0.0000 0.0000 0.0000 27.4139
#
#
#
# Elastic Compliance Matrix: (Units=1/GPa)
#
#
# Indices 1 2 3 4 5 6 
#
# 1 0.035029 -0.005623 -0.008506 0.000000 0.000000 0.000000
# 2 -0.005623 0.013196 -0.004360 0.000000 0.000000 0.000000
# 3 -0.008506 -0.004360 0.016351 0.000000 0.000000 0.000000
# 4 0.000000 0.000000 0.000000 0.039878 0.000000 0.000000
# 5 0.000000 0.000000 0.000000 0.000000 0.042786 0.000000
# 6 0.000000 0.000000 0.000000 0.000000 0.000000 0.036478
#
#
# Mechanical properties :
#
#
# Convention : Reuss Voigt Hill
#
# Bulk Modulus (GPa) = 36.23209 45.75266 40.99237
# Shear Modulus (GPa) = 21.74907 23.98565 22.86736
#
# Velocity S-wave (km/s) = 3.39288 3.56306 3.47901
# Velocity P-wave (km/s) = 5.87589 6.41434 6.15101
#
# Compressibility (1/GPa) = 0.02759984
#
# Stress axis : x y z
#
# Youngs Moduli (GPa) = 28.54786 75.78001 61.15764
#
# Poissons Ratio (x) = 0.42611 0.52019
# Poissons Ratio (y) = 0.16052 0.26662
# Poissons Ratio (z) = 0.24282 0.33037
#
# Static dielectric constant tensor:
#      x y z
#    x 3.526340 0.000000 0.000000 
#    y 0.000000 3.582190 0.000000 
#    z 0.000000 0.000000 3.353600 
# 
# 
# High freq. dielectric constant tensor:
#      x y z
#    x 1.720400 0.000000 0.000000 
#    y 0.000000 1.750340 0.000000 
#    z 0.000000 0.000000 1.713960 
# 
# From -- ./inp_files/35912.got.cif
#   From: 2010.03.12/outbox.cif.g09.slc.cpg/sg69_18_cif.got.tgz:35912.got - 2010.04.10 23:52:46.
