data_PCOD8284149
_publ_section_title
;
Structure prediction by ZEFSAII (Michael W. Deem and Ramdas Pophale) SiO2 
 PCOD8284149
Probable space group: F M M M
;
_chemical_formula_sum "Si O2"
_cell_formula_units_Z 160
_cell_length_a 17.038392
_cell_length_b 33.290620
_cell_length_c 14.853437
_cell_angle_alpha 90.000000
_cell_angle_beta 90.000000
_cell_angle_gamma 90.000000
_cell_volume 8425.146238
_symmetry_space_group_name_H-M "F M M M"
_symmetry_group_IT_number 69
_symmetry_cell_setting 'orthorhombic'
loop_
_space_group_symop_operation_xyz
x,y,z
-x,-y,z
x,-y,-z
-x,y,-z
-x,-y,-z
x,y,-z
-x,y,z
x,-y,z
x,1/2+y,1/2+z
-x,1/2-y,1/2+z
x,1/2-y,1/2-z
-x,1/2+y,1/2-z
-x,1/2-y,1/2-z
x,1/2+y,1/2-z
-x,1/2+y,1/2+z
x,1/2-y,1/2+z
1/2+x,y,1/2+z
1/2-x,-y,1/2+z
1/2+x,-y,1/2-z
1/2-x,y,1/2-z
1/2-x,-y,1/2-z
1/2+x,y,1/2-z
1/2-x,y,1/2+z
1/2+x,-y,1/2+z
1/2+x,1/2+y,z
1/2-x,1/2-y,z
1/2+x,1/2-y,-z
1/2-x,1/2+y,-z
1/2-x,1/2-y,-z
1/2+x,1/2+y,-z
1/2-x,1/2+y,z
1/2+x,1/2-y,z
loop_
_atom_site_type_symbol
_atom_site_label
_atom_site_fract_x
_atom_site_fract_y
_atom_site_fract_z
Si Si1 0.593335 0.244877 0.500000
Si Si2 0.681700 0.893895 0.639360
Si Si3 0.848272 0.630009 0.829199
Si Si4 0.753395 0.953001 0.000000
Si Si5 0.093011 0.716682 0.181847
Si Si6 0.908271 0.655177 0.500000
Si Si7 0.411227 0.911637 0.000000
O O1 0.500000 0.241930 0.500000
O O2 0.623760 0.270092 0.415478
O O3 0.628975 0.199860 0.500000
O O4 0.759879 0.866697 0.634408
O O5 0.652066 0.900488 0.742457
O O6 0.703789 0.935654 0.589398
O O7 0.615142 0.869434 0.588171
O O8 0.873609 0.673294 0.792899
O O9 0.904900 0.615149 0.909345
O O10 0.659254 0.944196 0.000000
O O11 0.766679 0.000000 0.000000
O O12 0.125781 0.750000 0.250000
O O13 0.000000 0.714309 0.187348
O O14 0.000000 0.659552 0.500000
O O15 0.500000 0.930424 0.000000
#
# Coordination Sequence:
#
# PCOD8284149 Si02
#       7
#    16  32  32  16  32  16  16
#     4   9  18  30  43  66  99 136 177 219 265 307
#     4   9  20  36  55  80 103 136 180 214 262 327
#     4  10  19  35  52  74 111 146 181 220 256 309
#     4   9  19  39  64  85 108 134 163 209 262 318
#     4  10  19  30  47  72 103 142 185 225 265 305
#     4  10  19  34  54  74 101 136 182 236 276 311
#     4  10  20  33  55  85 113 145 178 210 255 310
#
# _framework density 18.990767999999999
#
# number of rings (size 3 to 8) (size 9 to 14) (size 15 to 20)
#    0.000    2.400    0.000    3.000    0.000    4.200 
#    0.000   16.000    0.000    4.800    0.000    0.000 
#    0.000    0.000    0.000    0.000    0.000    0.000 
#
# Total GULP energy -495802.767428 kJ/mol
# GULP energy per Si atom -12395.069186 kJ/mol
# Density = 1.894754 g / cm^3
# Si number density = 18.990768 Si / 1000 Ang^3
#
#
#
# Elastic Constant Matrix: (Units=GPa)
#
#
# Indices 1 2 3 4 5 6 
#
# 1 49.5790 27.0659 32.5761 0.0000 0.0000 0.0000
# 2 27.0659 125.8510 54.2196 0.0000 0.0000 0.0000
# 3 32.5761 54.2196 147.3525 0.0000 0.0000 0.0000
# 4 0.0000 0.0000 0.0000 16.3300 0.0000 0.0000
# 5 0.0000 0.0000 0.0000 0.0000 12.9970 0.0000
# 6 0.0000 0.0000 0.0000 0.0000 0.0000 18.5251
#
#
#
# Elastic Compliance Matrix: (Units=1/GPa)
#
#
# Indices 1 2 3 4 5 6 
#
# 1 0.024857 -0.003539 -0.004193 0.000000 0.000000 0.000000
# 2 -0.003539 0.009947 -0.002878 0.000000 0.000000 0.000000
# 3 -0.004193 -0.002878 0.008772 0.000000 0.000000 0.000000
# 4 0.000000 0.000000 0.000000 0.061237 0.000000 0.000000
# 5 0.000000 0.000000 0.000000 0.000000 0.076941 0.000000
# 6 0.000000 0.000000 0.000000 0.000000 0.000000 0.053981
#
#
# Mechanical properties :
#
#
# Convention : Reuss Voigt Hill
#
# Bulk Modulus (GPa) = 44.73016 61.16731 52.94873
# Shear Modulus (GPa) = 18.91028 23.49849 21.20438
#
# Velocity S-wave (km/s) = 3.15899 3.52143 3.34513
# Velocity P-wave (km/s) = 6.07539 6.98662 6.54688
#
# Compressibility (1/GPa) = 0.02235628
#
# Stress axis : x y z
#
# Youngs Moduli (GPa) = 40.23010 100.53481 113.99629
#
# Poissons Ratio (x) = 0.35583 0.47798
# Poissons Ratio (y) = 0.14239 0.32803
# Poissons Ratio (z) = 0.16868 0.28929
#
# Static dielectric constant tensor:
#      x y z
#    x 3.301430 0.000000 0.000000 
#    y 0.000000 3.144850 0.000000 
#    z 0.000000 0.000000 3.833810 
# 
# 
# High freq. dielectric constant tensor:
#      x y z
#    x 1.724410 0.000000 0.000000 
#    y 0.000000 1.704510 0.000000 
#    z 0.000000 0.000000 1.757860 
# 
# From -- ./inp_files/15740.got.cif
#   From: 2010.03.12/outbox.cif.g09.slc.cpg/sg69_8_cif.got.tgz:15740.got - 2010.04.10 23:52:46.
