data_PCOD8284849
_publ_section_title
;
Structure prediction by ZEFSAII (Michael W. Deem and Ramdas Pophale) SiO2 
 PCOD8284849
Probable space group: F M M M
;
_chemical_formula_sum "Si O2"
_cell_formula_units_Z 192
_cell_length_a 20.488968
_cell_length_b 28.317791
_cell_length_c 18.177011
_cell_angle_alpha 90.000000
_cell_angle_beta 90.000000
_cell_angle_gamma 90.000000
_cell_volume 10546.343837
_symmetry_space_group_name_H-M "F M M M"
_symmetry_group_IT_number 69
_symmetry_cell_setting 'orthorhombic'
loop_
_space_group_symop_operation_xyz
x,y,z
-x,-y,z
x,-y,-z
-x,y,-z
-x,-y,-z
x,y,-z
-x,y,z
x,-y,z
x,1/2+y,1/2+z
-x,1/2-y,1/2+z
x,1/2-y,1/2-z
-x,1/2+y,1/2-z
-x,1/2-y,1/2-z
x,1/2+y,1/2-z
-x,1/2+y,1/2+z
x,1/2-y,1/2+z
1/2+x,y,1/2+z
1/2-x,-y,1/2+z
1/2+x,-y,1/2-z
1/2-x,y,1/2-z
1/2-x,-y,1/2-z
1/2+x,y,1/2-z
1/2-x,y,1/2+z
1/2+x,-y,1/2+z
1/2+x,1/2+y,z
1/2-x,1/2-y,z
1/2+x,1/2-y,-z
1/2-x,1/2+y,-z
1/2-x,1/2-y,-z
1/2+x,1/2+y,-z
1/2-x,1/2+y,z
1/2+x,1/2-y,z
loop_
_atom_site_type_symbol
_atom_site_label
_atom_site_fract_x
_atom_site_fract_y
_atom_site_fract_z
Si Si1 0.785372 0.372522 0.627928
Si Si2 0.153420 0.130108 0.287453
Si Si3 0.426534 0.277638 0.324742
Si Si4 0.275174 0.555843 0.000000
Si Si5 0.684087 0.729006 0.916999
Si Si6 0.074984 0.947006 0.348546
Si Si7 0.121371 0.445612 0.000000
O O1 0.824269 0.369531 0.703784
O O2 0.709715 0.370497 0.650822
O O3 0.800138 0.418081 0.575217
O O4 0.808905 0.327331 0.582260
O O5 0.105122 0.172096 0.308151
O O6 0.114118 0.081406 0.287842
O O7 0.500000 0.284052 0.358044
O O8 0.432293 0.250000 0.250000
O O9 0.381221 0.246731 0.377947
O O10 0.198094 0.561739 0.000000
O O11 0.295940 0.500000 0.000000
O O12 0.750000 0.750000 0.878642
O O13 0.679641 0.747873 0.000000
O O14 0.088732 0.922610 0.427898
O O15 0.000000 0.945718 0.327930
O O16 0.103002 0.000000 0.347762
O O17 0.100508 0.500000 0.000000
#
# Coordination Sequence:
#
# PCOD8284849 Si02
#       7
#    32  32  32  16  32  32  16
#     4  11  22  36  60  87 112 157 204 242 298 361
#     4  11  22  36  58  86 119 153 198 247 296 358
#     4  11  23  39  60  87 121 158 197 244 303 358
#     4  11  22  39  59  84 121 156 196 255 308 349
#     4  11  22  38  63  87 118 158 200 244 288 352
#     4  10  20  35  55  79 112 154 196 237 290 357
#     4   9  17  32  53  77 110 151 188 223 281 357
#
# _framework density 18.205361
#
# number of rings (size 3 to 8) (size 9 to 14) (size 15 to 20)
#    0.000    1.333    5.833    0.750    0.000    2.333 
#    1.500    1.667    0.000    0.000    0.000    0.000 
#    0.000    4.667    0.000    0.000    0.000    0.000 
#
# Total GULP energy -594911.341460 kJ/mol
# GULP energy per Si atom -12393.986280 kJ/mol
# Density = 1.816392 g / cm^3
# Si number density = 18.205361 Si / 1000 Ang^3
#
#
#
# Elastic Constant Matrix: (Units=GPa)
#
#
# Indices 1 2 3 4 5 6 
#
# 1 95.6256 51.9345 29.4472 0.0000 0.0000 0.0000
# 2 51.9345 114.1181 33.5052 0.0000 0.0000 0.0000
# 3 29.4472 33.5052 65.6232 0.0000 0.0000 0.0000
# 4 0.0000 0.0000 0.0000 30.2378 0.0000 0.0000
# 5 0.0000 0.0000 0.0000 0.0000 21.9319 0.0000
# 6 0.0000 0.0000 0.0000 0.0000 0.0000 42.5642
#
#
#
# Elastic Compliance Matrix: (Units=1/GPa)
#
#
# Indices 1 2 3 4 5 6 
#
# 1 0.014625 -0.005563 -0.003722 0.000000 0.000000 0.000000
# 2 -0.005563 0.012424 -0.003847 0.000000 0.000000 0.000000
# 3 -0.003722 -0.003847 0.018873 0.000000 0.000000 0.000000
# 4 0.000000 0.000000 0.000000 0.033071 0.000000 0.000000
# 5 0.000000 0.000000 0.000000 0.000000 0.045596 0.000000
# 6 0.000000 0.000000 0.000000 0.000000 0.000000 0.023494
#
#
# Mechanical properties :
#
#
# Convention : Reuss Voigt Hill
#
# Bulk Modulus (GPa) = 50.87174 56.12674 53.49924
# Shear Modulus (GPa) = 27.63959 29.64545 28.64252
#
# Velocity S-wave (km/s) = 3.90065 4.03971 3.97079
# Velocity P-wave (km/s) = 6.94915 7.25643 7.10445
#
# Compressibility (1/GPa) = 0.01965728
#
# Stress axis : x y z
#
# Youngs Moduli (GPa) = 68.37646 80.48969 52.98550
#
# Poissons Ratio (x) = 0.44775 0.19724
# Poissons Ratio (y) = 0.38036 0.20384
# Poissons Ratio (z) = 0.25453 0.30965
#
# Static dielectric constant tensor:
#      x y z
#    x 3.439040 0.000000 0.000000 
#    y 0.000000 3.431700 0.000000 
#    z 0.000000 0.000000 3.352650 
# 
# 
# High freq. dielectric constant tensor:
#      x y z
#    x 1.696730 0.000000 0.000000 
#    y 0.000000 1.707890 0.000000 
#    z 0.000000 0.000000 1.703920 
# 
# From -- ./inp_files/32177.got.cif
#   From: 2010.03.12/outbox.cif.g09.slc.cpg/sg69_17_cif.got.tgz:32177.got - 2010.04.10 23:52:46.
