data_PCOD8284448
_publ_section_title
;
Structure prediction by ZEFSAII (Michael W. Deem and Ramdas Pophale) SiO2 
 PCOD8284448
Probable space group: F M M M
;
_chemical_formula_sum "Si O2"
_cell_formula_units_Z 208
_cell_length_a 23.388522
_cell_length_b 27.080796
_cell_length_c 16.628723
_cell_angle_alpha 90.000000
_cell_angle_beta 90.000000
_cell_angle_gamma 90.000000
_cell_volume 10532.297132
_symmetry_space_group_name_H-M "F M M M"
_symmetry_group_IT_number 69
_symmetry_cell_setting 'orthorhombic'
loop_
_space_group_symop_operation_xyz
x,y,z
-x,-y,z
x,-y,-z
-x,y,-z
-x,-y,-z
x,y,-z
-x,y,z
x,-y,z
x,1/2+y,1/2+z
-x,1/2-y,1/2+z
x,1/2-y,1/2-z
-x,1/2+y,1/2-z
-x,1/2-y,1/2-z
x,1/2+y,1/2-z
-x,1/2+y,1/2+z
x,1/2-y,1/2+z
1/2+x,y,1/2+z
1/2-x,-y,1/2+z
1/2+x,-y,1/2-z
1/2-x,y,1/2-z
1/2-x,-y,1/2-z
1/2+x,y,1/2-z
1/2-x,y,1/2+z
1/2+x,-y,1/2+z
1/2+x,1/2+y,z
1/2-x,1/2-y,z
1/2+x,1/2-y,-z
1/2-x,1/2+y,-z
1/2-x,1/2-y,-z
1/2+x,1/2+y,-z
1/2-x,1/2+y,z
1/2+x,1/2-y,z
loop_
_atom_site_type_symbol
_atom_site_label
_atom_site_fract_x
_atom_site_fract_y
_atom_site_fract_z
Si Si1 0.000000 0.441457 0.090345
Si Si2 0.158036 0.213623 0.677889
Si Si3 0.936104 0.723477 0.592309
Si Si4 0.295740 0.445852 0.410828
Si Si5 0.741645 0.855429 0.657743
Si Si6 0.616494 0.353916 0.805097
Si Si7 0.900209 0.556185 0.794678
O O1 0.054205 0.423308 0.141288
O O2 0.000000 0.500000 0.081542
O O3 0.000000 0.418125 0.000000
O O4 0.177723 0.250000 0.750000
O O5 0.114914 0.239167 0.615590
O O6 0.215563 0.190616 0.636457
O O7 0.121444 0.169210 0.715960
O O8 0.928237 0.709519 0.500000
O O9 0.932619 0.672847 0.643719
O O10 0.000000 0.745815 0.607756
O O11 0.323840 0.441342 0.500000
O O12 0.266198 0.500000 0.403082
O O13 0.250498 0.402171 0.400232
O O14 0.340649 0.440053 0.340021
O O15 0.750000 0.871663 0.750000
O O16 0.675200 0.842284 0.645686
O O17 0.601571 0.411304 0.787548
O O18 0.914150 0.500000 0.768349
#
# Coordination Sequence:
#
# PCOD8284448 Si02
#       7
#    16  32  32  32  32  32  32
#     4   9  18  32  50  76 116 159 199 241 284 334
#     4   9  19  36  57  82 110 140 183 232 285 337
#     4  10  23  42  61  82 112 147 186 235 292 348
#     4  10  20  33  52  81 119 157 190 229 280 335
#     4  10  19  35  54  84 115 149 187 232 275 335
#     4  10  21  36  59  88 112 150 190 236 282 337
#     4  10  19  34  55  84 118 157 197 234 281 339
#
# _framework density 19.748778000000001
#
# number of rings (size 3 to 8) (size 9 to 14) (size 15 to 20)
#    0.000    2.231    3.077    0.462    1.077   13.846 
#    0.000    0.769    0.000    0.462    0.000    1.077 
#    0.000    0.000    0.000    0.000    0.000    0.000 
#
# Total GULP energy -644328.688904 kJ/mol
# GULP energy per Si atom -12390.936325 kJ/mol
# Density = 1.970383 g / cm^3
# Si number density = 19.748778 Si / 1000 Ang^3
#
#
#
# Elastic Constant Matrix: (Units=GPa)
#
#
# Indices 1 2 3 4 5 6 
#
# 1 96.0180 39.4431 37.8393 0.0000 0.0000 0.0000
# 2 39.4431 106.8490 40.0606 0.0000 0.0000 0.0000
# 3 37.8393 40.0606 60.1240 0.0000 0.0000 0.0000
# 4 0.0000 0.0000 0.0000 25.3194 0.0000 0.0000
# 5 0.0000 0.0000 0.0000 0.0000 21.3676 0.0000
# 6 0.0000 0.0000 0.0000 0.0000 0.0000 21.3287
#
#
#
# Elastic Compliance Matrix: (Units=1/GPa)
#
#
# Indices 1 2 3 4 5 6 
#
# 1 0.014352 -0.002548 -0.007335 0.000000 0.000000 0.000000
# 2 -0.002548 0.012928 -0.007010 0.000000 0.000000 0.000000
# 3 -0.007335 -0.007010 0.025919 0.000000 0.000000 0.000000
# 4 0.000000 0.000000 0.000000 0.039495 0.000000 0.000000
# 5 0.000000 0.000000 0.000000 0.000000 0.046800 0.000000
# 6 0.000000 0.000000 0.000000 0.000000 0.000000 0.046885
#
#
# Mechanical properties :
#
#
# Convention : Reuss Voigt Hill
#
# Bulk Modulus (GPa) = 51.51124 55.29746 53.40435
# Shear Modulus (GPa) = 22.06175 23.31301 22.68738
#
# Velocity S-wave (km/s) = 3.34596 3.43954 3.39307
# Velocity P-wave (km/s) = 6.40836 6.62081 6.51545
#
# Compressibility (1/GPa) = 0.01941324
#
# Stress axis : x y z
#
# Youngs Moduli (GPa) = 69.67718 77.35191 38.58117
#
# Poissons Ratio (x) = 0.19709 0.28298
# Poissons Ratio (y) = 0.17754 0.27046
# Poissons Ratio (z) = 0.51106 0.54226
#
# Static dielectric constant tensor:
#      x y z
#    x 3.621290 0.000000 0.000000 
#    y 0.000000 3.830860 0.000000 
#    z 0.000000 0.000000 3.329660 
# 
# 
# High freq. dielectric constant tensor:
#      x y z
#    x 1.760580 0.000000 0.000000 
#    y 0.000000 1.768230 0.000000 
#    z 0.000000 0.000000 1.739050 
# 
# From -- ./inp_files/26106.got.cif
#   From: 2010.03.12/outbox.cif.g09.slc.cpg/sg69_14_cif.got.tgz:26106.got - 2010.04.10 23:52:46.
