data_PCOD8284718
_publ_section_title
;
Structure prediction by ZEFSAII (Michael W. Deem and Ramdas Pophale) SiO2 
 PCOD8284718
Probable space group: F M M M
;
_chemical_formula_sum "Si O2"
_cell_formula_units_Z 176
_cell_length_a 26.320594
_cell_length_b 27.370462
_cell_length_c 13.934754
_cell_angle_alpha 90.000000
_cell_angle_beta 90.000000
_cell_angle_gamma 90.000000
_cell_volume 10038.691787
_symmetry_space_group_name_H-M "F M M M"
_symmetry_group_IT_number 69
_symmetry_cell_setting 'orthorhombic'
loop_
_space_group_symop_operation_xyz
x,y,z
-x,-y,z
x,-y,-z
-x,y,-z
-x,-y,-z
x,y,-z
-x,y,z
x,-y,z
x,1/2+y,1/2+z
-x,1/2-y,1/2+z
x,1/2-y,1/2-z
-x,1/2+y,1/2-z
-x,1/2-y,1/2-z
x,1/2+y,1/2-z
-x,1/2+y,1/2+z
x,1/2-y,1/2+z
1/2+x,y,1/2+z
1/2-x,-y,1/2+z
1/2+x,-y,1/2-z
1/2-x,y,1/2-z
1/2-x,-y,1/2-z
1/2+x,y,1/2-z
1/2-x,y,1/2+z
1/2+x,-y,1/2+z
1/2+x,1/2+y,z
1/2-x,1/2-y,z
1/2+x,1/2-y,-z
1/2-x,1/2+y,-z
1/2-x,1/2-y,-z
1/2+x,1/2+y,-z
1/2-x,1/2+y,z
1/2+x,1/2-y,z
loop_
_atom_site_type_symbol
_atom_site_label
_atom_site_fract_x
_atom_site_fract_y
_atom_site_fract_z
Si Si1 0.614620 0.644625 0.890990
Si Si2 0.560256 0.000000 0.890456
Si Si3 0.442457 0.759422 0.639002
Si Si4 0.308800 0.691959 0.246923
Si Si5 0.387377 0.667257 0.603634
Si Si6 0.059450 0.593211 0.230798
O O1 0.571069 0.685596 0.889526
O O2 0.666267 0.668086 0.847941
O O3 0.593111 0.599019 0.827933
O O4 0.624970 0.626895 0.000000
O O5 0.579015 0.953279 0.829841
O O6 0.500000 0.000000 0.897674
O O7 0.582449 0.000000 0.000000
O O8 0.500000 0.750069 0.608598
O O9 0.432325 0.750000 0.750000
O O10 0.406580 0.722012 0.583102
O O11 0.317780 0.750000 0.250000
O O12 0.250000 0.678269 0.250000
O O13 0.334279 0.667270 0.339856
O O14 0.378470 0.642066 0.500000
O O15 0.431313 0.640122 0.663624
O O16 0.000000 0.589374 0.257179
#
# Coordination Sequence:
#
# PCOD8284718 Si02
#       6
#    32  16  32  32  32  32
#     4  11  21  34  50  72 101 138 176 206 246 302
#     4   9  18  34  55  77 102 135 171 208 254 299
#     4  11  19  30  45  66 101 139 172 204 238 285
#     4  10  20  35  50  67  97 134 173 219 260 298
#     4  11  20  31  48  73  99 129 170 211 253 301
#     4  10  20  34  51  75 106 136 169 210 251 297
#
# _framework density 17.532164999999999
#
# number of rings (size 3 to 8) (size 9 to 14) (size 15 to 20)
#    0.000    1.545    5.455    2.182    0.000    5.091 
#    0.000    2.273    0.000    1.636    0.000   10.182 
#    0.000   11.636    0.000    0.000    0.000    0.000 
#
# Total GULP energy -545466.026032 kJ/mol
# GULP energy per Si atom -12396.955137 kJ/mol
# Density = 1.749226 g / cm^3
# Si number density = 17.532165 Si / 1000 Ang^3
#
#
#
# Elastic Constant Matrix: (Units=GPa)
#
#
# Indices 1 2 3 4 5 6 
#
# 1 101.0625 19.4887 43.9019 0.0000 0.0000 0.0000
# 2 19.4887 69.4946 32.5563 0.0000 0.0000 0.0000
# 3 43.9019 32.5563 157.9589 0.0000 0.0000 0.0000
# 4 0.0000 0.0000 0.0000 -24.6850 0.0000 0.0000
# 5 0.0000 0.0000 0.0000 0.0000 5.4349 0.0000
# 6 0.0000 0.0000 0.0000 0.0000 0.0000 12.0750
#
#
#
# Elastic Compliance Matrix: (Units=1/GPa)
#
#
# Indices 1 2 3 4 5 6 
#
# 1 0.011478 -0.001909 -0.002797 0.000000 0.000000 0.000000
# 2 -0.001909 0.016245 -0.002818 0.000000 0.000000 0.000000
# 3 -0.002797 -0.002818 0.007689 0.000000 0.000000 0.000000
# 4 0.000000 0.000000 0.000000 -0.040510 0.000000 0.000000
# 5 0.000000 0.000000 0.000000 0.000000 0.183997 0.000000
# 6 0.000000 0.000000 0.000000 0.000000 0.000000 0.082816
#
#
# Mechanical properties :
#
#
# Convention : Reuss Voigt Hill
#
# Bulk Modulus (GPa) = 49.10265 57.82328 53.46296
# Shear Modulus (GPa) = 17.63369 14.06957 15.85163
#
# Velocity S-wave (km/s) = 3.17486 2.83592 3.01016
# Velocity P-wave (km/s) = 6.44264 6.61635 6.53007
#
# Compressibility (1/GPa) = 0.02036550
#
# Stress axis : x y z
#
# Youngs Moduli (GPa) = 87.12465 61.55790 130.05944
#
# Poissons Ratio (x) = 0.11749 0.36373
# Poissons Ratio (y) = 0.16629 0.36647
# Poissons Ratio (z) = 0.24366 0.17345
#
# Static dielectric constant tensor:
#      x y z
#    x 3.058780 0.000000 0.000000 
#    y 0.000000 3.117930 0.000000 
#    z 0.000000 0.000000 3.566420 
# 
# 
# High freq. dielectric constant tensor:
#      x y z
#    x 1.654080 0.000000 0.000000 
#    y 0.000000 1.643470 0.000000 
#    z 0.000000 0.000000 1.691560 
# 
# From -- ./inp_files/19017.got.cif
#   From: 2010.03.12/outbox.cif.g09.slc.cpg/sg69_10_cif.got.tgz:19017.got - 2010.04.10 23:52:46.
