data_PCOD8284803
_publ_section_title
;
Structure prediction by ZEFSAII (Michael W. Deem and Ramdas Pophale) SiO2 
 PCOD8284803
Probable space group: F M M M
;
_chemical_formula_sum "Si O2"
_cell_formula_units_Z 176
_cell_length_a 20.770034
_cell_length_b 25.456919
_cell_length_c 15.332979
_cell_angle_alpha 90.000000
_cell_angle_beta 90.000000
_cell_angle_gamma 90.000000
_cell_volume 8107.175771
_symmetry_space_group_name_H-M "F M M M"
_symmetry_group_IT_number 69
_symmetry_cell_setting 'orthorhombic'
loop_
_space_group_symop_operation_xyz
x,y,z
-x,-y,z
x,-y,-z
-x,y,-z
-x,-y,-z
x,y,-z
-x,y,z
x,-y,z
x,1/2+y,1/2+z
-x,1/2-y,1/2+z
x,1/2-y,1/2-z
-x,1/2+y,1/2-z
-x,1/2-y,1/2-z
x,1/2+y,1/2-z
-x,1/2+y,1/2+z
x,1/2-y,1/2+z
1/2+x,y,1/2+z
1/2-x,-y,1/2+z
1/2+x,-y,1/2-z
1/2-x,y,1/2-z
1/2-x,-y,1/2-z
1/2+x,y,1/2-z
1/2-x,y,1/2+z
1/2+x,-y,1/2+z
1/2+x,1/2+y,z
1/2-x,1/2-y,z
1/2+x,1/2-y,-z
1/2-x,1/2+y,-z
1/2-x,1/2-y,-z
1/2+x,1/2+y,-z
1/2-x,1/2+y,z
1/2+x,1/2-y,z
loop_
_atom_site_type_symbol
_atom_site_label
_atom_site_fract_x
_atom_site_fract_y
_atom_site_fract_z
Si Si1 0.427429 0.810697 0.352216
Si Si2 0.122004 0.701964 0.830900
Si Si3 0.571154 0.600427 0.399634
Si Si4 0.750000 0.327966 0.250000
Si Si5 0.319953 0.889216 0.600945
Si Si6 0.638927 0.000000 0.901813
Si Si7 0.721085 0.000000 0.347004
O O1 0.500000 0.814300 0.388211
O O2 0.394522 0.755482 0.383289
O O3 0.428296 0.809263 0.247311
O O4 0.389122 0.860887 0.389342
O O5 0.114995 0.652362 0.893568
O O6 0.192087 0.707739 0.786204
O O7 0.562296 0.588025 0.500000
O O8 0.500000 0.606369 0.356683
O O9 0.609925 0.552046 0.354370
O O10 0.730307 0.362657 0.166707
O O11 0.297018 0.884489 0.500000
O O12 0.323723 0.950016 0.630450
O O13 0.715767 0.000000 0.906775
O O14 0.613683 0.000000 0.000000
O O15 0.750000 0.000000 0.250000
#
# Coordination Sequence:
#
# PCOD8284803 Si02
#       7
#    32  32  32  16  32  16  16
#     4  10  22  40  62  89 122 166 218 263 318 380
#     4  10  20  37  61  89 127 171 214 269 321 377
#     4  10  20  34  56  88 123 162 207 256 317 385
#     4  10  22  40  62  96 134 169 224 263 326 388
#     4  11  24  42  66  93 128 168 212 271 330 393
#     4  10  21  36  58  86 124 163 199 259 331 386
#     4  12  24  43  64  93 124 162 218 266 331 402
#
# _framework density 21.709164000000001
#
# number of rings (size 3 to 8) (size 9 to 14) (size 15 to 20)
#    0.000    1.636    0.909    4.364    2.545   10.182 
#    0.000    1.364    0.000    1.091    0.000    0.000 
#    0.000    0.000    0.000    0.000    0.000    0.000 
#
# Total GULP energy -545262.608362 kJ/mol
# GULP energy per Si atom -12392.332008 kJ/mol
# Density = 2.165975 g / cm^3
# Si number density = 21.709164 Si / 1000 Ang^3
#
#
#
# Elastic Constant Matrix: (Units=GPa)
#
#
# Indices 1 2 3 4 5 6 
#
# 1 148.6237 91.8575 23.8352 0.0000 0.0000 0.0000
# 2 91.8575 196.1535 30.5165 0.0000 0.0000 0.0000
# 3 23.8352 30.5165 84.0640 0.0000 0.0000 0.0000
# 4 0.0000 0.0000 0.0000 25.7439 0.0000 0.0000
# 5 0.0000 0.0000 0.0000 0.0000 17.8625 0.0000
# 6 0.0000 0.0000 0.0000 0.0000 0.0000 28.0734
#
#
#
# Elastic Compliance Matrix: (Units=1/GPa)
#
#
# Indices 1 2 3 4 5 6 
#
# 1 0.009573 -0.004304 -0.001152 0.000000 0.000000 0.000000
# 2 -0.004304 0.007338 -0.001444 0.000000 0.000000 0.000000
# 3 -0.001152 -0.001444 0.012746 0.000000 0.000000 0.000000
# 4 0.000000 0.000000 0.000000 0.038844 0.000000 0.000000
# 5 0.000000 0.000000 0.000000 0.000000 0.055983 0.000000
# 6 0.000000 0.000000 0.000000 0.000000 0.000000 0.035621
#
#
# Mechanical properties :
#
#
# Convention : Reuss Voigt Hill
#
# Bulk Modulus (GPa) = 63.05614 80.13994 71.59804
# Shear Modulus (GPa) = 27.90321 33.17808 30.54065
#
# Velocity S-wave (km/s) = 3.58902 3.91359 3.75481
# Velocity P-wave (km/s) = 6.80321 7.57740 7.20072
#
# Compressibility (1/GPa) = 0.01585888
#
# Stress axis : x y z
#
# Youngs Moduli (GPa) = 104.45885 136.27532 78.45382
#
# Poissons Ratio (x) = 0.58651 0.09038
# Poissons Ratio (y) = 0.44957 0.11325
# Poissons Ratio (z) = 0.12033 0.19672
#
# Static dielectric constant tensor:
#      x y z
#    x 3.876160 0.000000 0.000000 
#    y 0.000000 4.171130 0.000000 
#    z 0.000000 0.000000 3.670650 
# 
# 
# High freq. dielectric constant tensor:
#      x y z
#    x 1.846800 0.000000 0.000000 
#    y 0.000000 1.868370 0.000000 
#    z 0.000000 0.000000 1.825250 
# 
# From -- ./inp_files/23297.got.cif
#   From: 2010.03.12/outbox.cif.g09.slc.cpg/sg69_12_cif.got.tgz:23297.got - 2010.04.10 23:52:46.
