data_PCOD8284630
_publ_section_title
;
Structure prediction by ZEFSAII (Michael W. Deem and Ramdas Pophale) SiO2 
 PCOD8284630
Probable space group: F M M M
;
_chemical_formula_sum "Si O2"
_cell_formula_units_Z 144
_cell_length_a 24.846548
_cell_length_b 17.978713
_cell_length_c 16.771281
_cell_angle_alpha 90.000000
_cell_angle_beta 90.000000
_cell_angle_gamma 90.000000
_cell_volume 7491.881418
_symmetry_space_group_name_H-M "F M M M"
_symmetry_group_IT_number 69
_symmetry_cell_setting 'orthorhombic'
loop_
_space_group_symop_operation_xyz
x,y,z
-x,-y,z
x,-y,-z
-x,y,-z
-x,-y,-z
x,y,-z
-x,y,z
x,-y,z
x,1/2+y,1/2+z
-x,1/2-y,1/2+z
x,1/2-y,1/2-z
-x,1/2+y,1/2-z
-x,1/2-y,1/2-z
x,1/2+y,1/2-z
-x,1/2+y,1/2+z
x,1/2-y,1/2+z
1/2+x,y,1/2+z
1/2-x,-y,1/2+z
1/2+x,-y,1/2-z
1/2-x,y,1/2-z
1/2-x,-y,1/2-z
1/2+x,y,1/2-z
1/2-x,y,1/2+z
1/2+x,-y,1/2+z
1/2+x,1/2+y,z
1/2-x,1/2-y,z
1/2+x,1/2-y,-z
1/2-x,1/2+y,-z
1/2-x,1/2-y,-z
1/2+x,1/2+y,-z
1/2-x,1/2+y,z
1/2+x,1/2-y,z
loop_
_atom_site_type_symbol
_atom_site_label
_atom_site_fract_x
_atom_site_fract_y
_atom_site_fract_z
Si Si1 0.255971 0.165043 0.088854
Si Si2 0.155998 0.588138 0.806939
Si Si3 0.439619 0.087812 0.500000
Si Si4 0.648330 0.587671 0.875761
Si Si5 0.559040 0.088435 0.911001
O O1 0.250000 0.250000 0.115587
O O2 0.290790 0.123817 0.155860
O O3 0.197776 0.128005 0.082615
O O4 0.282187 0.159188 0.000000
O O5 0.161975 0.500000 0.815706
O O6 0.146813 0.612260 0.716190
O O7 0.104352 0.620819 0.853107
O O8 0.500000 0.123574 0.500000
O O9 0.406670 0.112493 0.579375
O O10 0.445862 0.000000 0.500000
O O11 0.656976 0.500000 0.884882
O O12 0.500000 0.115010 0.881749
O O13 0.561295 0.000000 0.910564
O O14 0.570046 0.118302 0.000000
#
# Coordination Sequence:
#
# PCOD8284630 Si02
#       5
#    32  32  16  32  32
#     4  11  23  37  54  77 107 144 185 221 270 324
#     4  10  20  32  52  82 110 141 178 218 270 325
#     4   9  18  34  57  82 108 142 181 224 274 321
#     4  10  20  35  55  80 110 140 176 225 274 320
#     4   8  14  26  45  71 104 137 168 207 255 308
#
# _framework density 19.220806
#
# number of rings (size 3 to 8) (size 9 to 14) (size 15 to 20)
#    0.000    2.333    1.111    2.667    0.000    6.667 
#    0.000    4.444    0.000    1.333    0.000    3.111 
#    0.000    0.000    0.000    0.000    0.000    0.000 
#
# Total GULP energy -446287.383382 kJ/mol
# GULP energy per Si atom -12396.871761 kJ/mol
# Density = 1.917706 g / cm^3
# Si number density = 19.220806 Si / 1000 Ang^3
#
#
#
# Elastic Constant Matrix: (Units=GPa)
#
#
# Indices 1 2 3 4 5 6 
#
# 1 147.6787 26.5529 69.9566 0.0000 0.0000 0.0000
# 2 26.5529 30.6201 29.8204 0.0000 0.0000 0.0000
# 3 69.9566 29.8204 138.7149 0.0000 0.0000 0.0000
# 4 0.0000 0.0000 0.0000 -14.7252 0.0000 0.0000
# 5 0.0000 0.0000 0.0000 0.0000 26.8690 0.0000
# 6 0.0000 0.0000 0.0000 0.0000 0.0000 -1.7001
#
#
#
# Elastic Compliance Matrix: (Units=1/GPa)
#
#
# Indices 1 2 3 4 5 6 
#
# 1 0.009353 -0.004448 -0.003760 0.000000 0.000000 0.000000
# 2 -0.004448 0.043422 -0.007091 0.000000 0.000000 0.000000
# 3 -0.003760 -0.007091 0.010630 0.000000 0.000000 0.000000
# 4 0.000000 0.000000 0.000000 -0.067911 0.000000 0.000000
# 5 0.000000 0.000000 0.000000 0.000000 0.037218 0.000000
# 6 0.000000 0.000000 0.000000 0.000000 0.000000 -0.588191
#
#
# Mechanical properties :
#
#
# Convention : Reuss Voigt Hill
#
# Bulk Modulus (GPa) = 30.48362 63.29705 46.89034
# Shear Modulus (GPa) = -9.72865 14.80099 2.53617
#
# Velocity S-wave (km/s) = -2.25222 2.77799 1.14994
# Velocity P-wave (km/s) = 3.02172 6.57971 5.11974
#
# Compressibility (1/GPa) = 0.03280450
#
# Stress axis : x y z
#
# Youngs Moduli (GPa) = 106.92231 23.02993 94.07341
#
# Poissons Ratio (x) = 0.10244 0.35376
# Poissons Ratio (y) = 0.47559 0.66711
# Poissons Ratio (z) = 0.40208 0.16331
#
# Static dielectric constant tensor:
#      x y z
#    x 3.838500 0.000000 0.000000 
#    y 0.000000 3.056560 0.000000 
#    z 0.000000 0.000000 3.727550 
# 
# 
# High freq. dielectric constant tensor:
#      x y z
#    x 1.754000 0.000000 0.000000 
#    y 0.000000 1.699860 0.000000 
#    z 0.000000 0.000000 1.760120 
# 
# From -- ./inp_files/22892.got.cif
#   From: 2010.03.12/outbox.cif.g09.slc.cpg/sg69_12_cif.got.tgz:22892.got - 2010.04.10 23:52:46.
