data_PCOD8284296
_publ_section_title
;
Structure prediction by ZEFSAII (Michael W. Deem and Ramdas Pophale) SiO2 
 PCOD8284296
Probable space group: F M M M
;
_chemical_formula_sum "Si O2"
_cell_formula_units_Z 176
_cell_length_a 17.736351
_cell_length_b 17.052715
_cell_length_c 28.243502
_cell_angle_alpha 90.000000
_cell_angle_beta 90.000000
_cell_angle_gamma 90.000000
_cell_volume 8542.330180
_symmetry_space_group_name_H-M "F M M M"
_symmetry_group_IT_number 69
_symmetry_cell_setting 'orthorhombic'
loop_
_space_group_symop_operation_xyz
x,y,z
-x,-y,z
x,-y,-z
-x,y,-z
-x,-y,-z
x,y,-z
-x,y,z
x,-y,z
x,1/2+y,1/2+z
-x,1/2-y,1/2+z
x,1/2-y,1/2-z
-x,1/2+y,1/2-z
-x,1/2-y,1/2-z
x,1/2+y,1/2-z
-x,1/2+y,1/2+z
x,1/2-y,1/2+z
1/2+x,y,1/2+z
1/2-x,-y,1/2+z
1/2+x,-y,1/2-z
1/2-x,y,1/2-z
1/2-x,-y,1/2-z
1/2+x,y,1/2-z
1/2-x,y,1/2+z
1/2+x,-y,1/2+z
1/2+x,1/2+y,z
1/2-x,1/2-y,z
1/2+x,1/2-y,-z
1/2-x,1/2+y,-z
1/2-x,1/2-y,-z
1/2+x,1/2+y,-z
1/2-x,1/2+y,z
1/2+x,1/2-y,z
loop_
_atom_site_type_symbol
_atom_site_label
_atom_site_fract_x
_atom_site_fract_y
_atom_site_fract_z
Si Si1 0.911508 0.091674 0.352628
Si Si2 0.914004 0.413559 0.317143
Si Si3 0.088973 0.660093 0.410835
Si Si4 0.410673 0.823939 0.052755
Si Si5 0.582656 0.500000 0.054474
Si Si6 0.336975 0.834694 0.763584
O O1 0.887918 0.113760 0.406718
O O2 0.858191 0.142289 0.317568
O O3 0.000000 0.111739 0.343803
O O4 0.895698 0.000000 0.345496
O O5 0.894691 0.500000 0.338516
O O6 0.893778 0.345124 0.354714
O O7 0.870214 0.402874 0.268711
O O8 0.000000 0.408578 0.302425
O O9 0.124320 0.738820 0.432985
O O10 0.126081 0.580859 0.432674
O O11 0.000000 0.659587 0.421246
O O12 0.500000 0.817104 0.050959
O O13 0.380767 0.848058 0.000000
O O14 0.500000 0.500000 0.080866
O O15 0.567843 0.500000 0.000000
O O16 0.372551 0.750000 0.750000
O O17 0.250000 0.832450 0.750000
#
# Coordination Sequence:
#
# PCOD8284296 Si02
#       6
#    32  32  32  32  16  32
#     4  10  21  37  57  83 114 147 187 233 278 328
#     4  10  19  32  52  78 109 144 181 221 270 329
#     4   9  15  25  41  68 104 140 178 215 260 317
#     4   9  17  29  48  76 110 147 184 226 277 326
#     4   9  14  20  34  60  97 134 168 210 255 304
#     4  11  24  39  55  79 109 141 183 226 279 339
#
# _framework density 20.603278
#
# number of rings (size 3 to 8) (size 9 to 14) (size 15 to 20)
#    0.000    2.273    0.909    2.727    0.000    8.364 
#    0.000    1.818    0.000    0.000    0.000   11.455 
#    0.000    0.000    0.000    0.000    0.000    0.182 
#
# Total GULP energy -545141.355664 kJ/mol
# GULP energy per Si atom -12389.576265 kJ/mol
# Density = 2.055638 g / cm^3
# Si number density = 20.603278 Si / 1000 Ang^3
#
#
#
# Elastic Constant Matrix: (Units=GPa)
#
#
# Indices 1 2 3 4 5 6 
#
# 1 31.0599 23.4325 32.3710 0.0000 0.0000 0.0000
# 2 23.4325 109.2595 54.0116 0.0000 0.0000 0.0000
# 3 32.3710 54.0116 147.9370 0.0000 0.0000 0.0000
# 4 0.0000 0.0000 0.0000 38.0047 0.0000 0.0000
# 5 0.0000 0.0000 0.0000 0.0000 4.9854 0.0000
# 6 0.0000 0.0000 0.0000 0.0000 0.0000 14.4620
#
#
#
# Elastic Compliance Matrix: (Units=1/GPa)
#
#
# Indices 1 2 3 4 5 6 
#
# 1 0.044503 -0.005772 -0.007631 0.000000 0.000000 0.000000
# 2 -0.005772 0.011917 -0.003088 0.000000 0.000000 0.000000
# 3 -0.007631 -0.003088 0.009557 0.000000 0.000000 0.000000
# 4 0.000000 0.000000 0.000000 0.026313 0.000000 0.000000
# 5 0.000000 0.000000 0.000000 0.000000 0.200585 0.000000
# 6 0.000000 0.000000 0.000000 0.000000 0.000000 0.069147
#
#
# Mechanical properties :
#
#
# Convention : Reuss Voigt Hill
#
# Bulk Modulus (GPa) = 30.30716 56.43186 43.36951
# Shear Modulus (GPa) = 12.31524 23.38651 17.85087
#
# Velocity S-wave (km/s) = 2.44751 3.37276 2.94668
# Velocity P-wave (km/s) = 4.76748 6.52814 5.71600
#
# Compressibility (1/GPa) = 0.03299551
#
# Stress axis : x y z
#
# Youngs Moduli (GPa) = 22.47023 83.91429 104.63908
#
# Poissons Ratio (x) = 0.48439 0.79845
# Poissons Ratio (y) = 0.12971 0.32310
# Poissons Ratio (z) = 0.17146 0.25911
#
# Static dielectric constant tensor:
#      x y z
#    x 2.975260 0.000000 0.000000 
#    y 0.000000 3.990160 0.000000 
#    z 0.000000 0.000000 3.926120 
# 
# 
# High freq. dielectric constant tensor:
#      x y z
#    x 1.725260 0.000000 0.000000 
#    y 0.000000 1.817980 0.000000 
#    z 0.000000 0.000000 1.820340 
# 
# From -- ./inp_files/41863.got.cif
#   From: 2010.03.12/outbox.cif.g09.slc.cpg/sg69_21_cif.got.tgz:41863.got - 2010.04.10 23:52:46.
