data_PCOD8284721
_publ_section_title
;
Structure prediction by ZEFSAII (Michael W. Deem and Ramdas Pophale) SiO2 
 PCOD8284721
Probable space group: F M M M
;
_chemical_formula_sum "Si O2"
_cell_formula_units_Z 208
_cell_length_a 26.813172
_cell_length_b 18.649425
_cell_length_c 24.153549
_cell_angle_alpha 90.000000
_cell_angle_beta 90.000000
_cell_angle_gamma 90.000000
_cell_volume 12077.987980
_symmetry_space_group_name_H-M "F M M M"
_symmetry_group_IT_number 69
_symmetry_cell_setting 'orthorhombic'
loop_
_space_group_symop_operation_xyz
x,y,z
-x,-y,z
x,-y,-z
-x,y,-z
-x,-y,-z
x,y,-z
-x,y,z
x,-y,z
x,1/2+y,1/2+z
-x,1/2-y,1/2+z
x,1/2-y,1/2-z
-x,1/2+y,1/2-z
-x,1/2-y,1/2-z
x,1/2+y,1/2-z
-x,1/2+y,1/2+z
x,1/2-y,1/2+z
1/2+x,y,1/2+z
1/2-x,-y,1/2+z
1/2+x,-y,1/2-z
1/2-x,y,1/2-z
1/2-x,-y,1/2-z
1/2+x,y,1/2-z
1/2-x,y,1/2+z
1/2+x,-y,1/2+z
1/2+x,1/2+y,z
1/2-x,1/2-y,z
1/2+x,1/2-y,-z
1/2-x,1/2+y,-z
1/2-x,1/2-y,-z
1/2+x,1/2+y,-z
1/2-x,1/2+y,z
1/2+x,1/2-y,z
loop_
_atom_site_type_symbol
_atom_site_label
_atom_site_fract_x
_atom_site_fract_y
_atom_site_fract_z
Si Si1 0.634034 0.805032 0.936030
Si Si2 0.602217 0.353858 0.063873
Si Si3 0.314158 0.416728 0.140501
Si Si4 0.055501 0.580591 0.934249
Si Si5 0.278377 0.178745 0.853630
Si Si6 0.192128 0.578701 0.237946
Si Si7 0.500000 0.919526 0.565723
O O1 0.605140 0.730902 0.928208
O O2 0.597523 0.865895 0.910621
O O3 0.686503 0.801254 0.904759
O O4 0.646482 0.820270 0.000000
O O5 0.643882 0.394794 0.097872
O O6 0.548732 0.378211 0.087334
O O7 0.609217 0.376082 0.000000
O O8 0.302119 0.500000 0.134635
O O9 0.262993 0.376689 0.125162
O O10 0.332877 0.398880 0.203337
O O11 0.069319 0.500000 0.915396
O O12 0.000000 0.600833 0.912019
O O13 0.054773 0.586324 0.000000
O O14 0.250000 0.250000 0.831124
O O15 0.314075 0.142248 0.806900
O O16 0.171858 0.500000 0.217747
O O17 0.250000 0.570330 0.250000
O O18 0.500000 0.920465 0.500000
O O19 0.500000 0.000000 0.589766
#
# Coordination Sequence:
#
# PCOD8284721 Si02
#       7
#    32  32  32  32  32  32  16
#     4  10  21  33  47  72 107 141 169 205 252 307
#     4  10  20  34  51  77 109 138 170 208 254 303
#     4  10  20  35  53  75 102 134 171 209 257 304
#     4   8  15  29  49  71  94 125 169 214 250 292
#     4  11  20  33  49  75 101 136 174 211 252 298
#     4   8  17  33  52  72  95 123 166 219 255 291
#     4   9  18  32  52  76 100 131 175 219 248 291
#
# _framework density 17.221411
#
# number of rings (size 3 to 8) (size 9 to 14) (size 15 to 20)
#    0.000    2.538    1.538    2.308    1.077    5.846 
#    0.000    0.000    0.000    0.000    2.000    1.077 
#    0.000    0.000    0.000    0.000    0.000    0.000 
#
# Total GULP energy -644536.533427 kJ/mol
# GULP energy per Si atom -12394.933335 kJ/mol
# Density = 1.718221 g / cm^3
# Si number density = 17.221411 Si / 1000 Ang^3
#
#
#
# Elastic Constant Matrix: (Units=GPa)
#
#
# Indices 1 2 3 4 5 6 
#
# 1 89.1284 50.0033 40.4056 0.0000 0.0000 0.0000
# 2 50.0033 113.1775 42.7997 0.0000 0.0000 0.0000
# 3 40.4056 42.7997 62.0086 0.0000 0.0000 0.0000
# 4 0.0000 0.0000 0.0000 24.1334 0.0000 0.0000
# 5 0.0000 0.0000 0.0000 0.0000 2.8296 0.0000
# 6 0.0000 0.0000 0.0000 0.0000 0.0000 30.2455
#
#
#
# Elastic Compliance Matrix: (Units=1/GPa)
#
#
# Indices 1 2 3 4 5 6 
#
# 1 0.017559 -0.004643 -0.008237 0.000000 0.000000 0.000000
# 2 -0.004643 0.013184 -0.006075 0.000000 0.000000 0.000000
# 3 -0.008237 -0.006075 0.025687 0.000000 0.000000 0.000000
# 4 0.000000 0.000000 0.000000 0.041436 0.000000 0.000000
# 5 0.000000 0.000000 0.000000 0.000000 0.353403 0.000000
# 6 0.000000 0.000000 0.000000 0.000000 0.000000 0.033063
#
#
# Mechanical properties :
#
#
# Convention : Reuss Voigt Hill
#
# Bulk Modulus (GPa) = 53.99274 58.97021 56.48147
# Shear Modulus (GPa) = 9.46227 20.18211 14.82219
#
# Velocity S-wave (km/s) = 2.34657 3.42704 2.93692
# Velocity P-wave (km/s) = 6.22592 7.06939 6.66102
#
# Compressibility (1/GPa) = 0.01852101
#
# Stress axis : x y z
#
# Youngs Moduli (GPa) = 56.95225 75.84872 38.93023
#
# Poissons Ratio (x) = 0.35214 0.32066
# Poissons Ratio (y) = 0.26441 0.23649
# Poissons Ratio (z) = 0.46911 0.46076
#
# Static dielectric constant tensor:
#      x y z
#    x 3.187730 0.000000 0.000000 
#    y 0.000000 3.499470 0.000000 
#    z 0.000000 0.000000 3.245140 
# 
# 
# High freq. dielectric constant tensor:
#      x y z
#    x 1.646050 0.000000 0.000000 
#    y 0.000000 1.683780 0.000000 
#    z 0.000000 0.000000 1.630460 
# 
# From -- ./inp_files/43299.got.cif
#   From: 2010.03.12/outbox.cif.g09.slc.cpg/sg69_22_cif.got.tgz:43299.got - 2010.04.10 23:52:46.
