data_PCOD8284527
_publ_section_title
;
Structure prediction by ZEFSAII (Michael W. Deem and Ramdas Pophale) SiO2 
 PCOD8284527
Probable space group: F M M M
;
_chemical_formula_sum "Si O2"
_cell_formula_units_Z 128
_cell_length_a 14.058747
_cell_length_b 22.641521
_cell_length_c 21.027243
_cell_angle_alpha 90.000000
_cell_angle_beta 90.000000
_cell_angle_gamma 90.000000
_cell_volume 6693.211482
_symmetry_space_group_name_H-M "F M M M"
_symmetry_group_IT_number 69
_symmetry_cell_setting 'orthorhombic'
loop_
_space_group_symop_operation_xyz
x,y,z
-x,-y,z
x,-y,-z
-x,y,-z
-x,-y,-z
x,y,-z
-x,y,z
x,-y,z
x,1/2+y,1/2+z
-x,1/2-y,1/2+z
x,1/2-y,1/2-z
-x,1/2+y,1/2-z
-x,1/2-y,1/2-z
x,1/2+y,1/2-z
-x,1/2+y,1/2+z
x,1/2-y,1/2+z
1/2+x,y,1/2+z
1/2-x,-y,1/2+z
1/2+x,-y,1/2-z
1/2-x,y,1/2-z
1/2-x,-y,1/2-z
1/2+x,y,1/2-z
1/2-x,y,1/2+z
1/2+x,-y,1/2+z
1/2+x,1/2+y,z
1/2-x,1/2-y,z
1/2+x,1/2-y,-z
1/2-x,1/2+y,-z
1/2-x,1/2-y,-z
1/2+x,1/2+y,-z
1/2-x,1/2+y,z
1/2+x,1/2-y,z
loop_
_atom_site_type_symbol
_atom_site_label
_atom_site_fract_x
_atom_site_fract_y
_atom_site_fract_z
Si Si1 0.220902 0.000000 0.574369
Si Si2 0.725452 0.817453 0.835144
Si Si3 0.835952 0.000000 0.201020
Si Si4 0.394280 0.881968 0.926459
Si Si5 0.606919 0.127792 0.719371
O O1 0.155579 0.943744 0.588650
O O2 0.257187 0.000000 0.500000
O O3 0.305768 0.000000 0.626073
O O4 0.750000 0.750000 0.821389
O O5 0.668403 0.827551 0.900121
O O6 0.657846 0.845779 0.781466
O O7 0.826959 0.851198 0.839377
O O8 0.750000 0.000000 0.250000
O O9 0.898781 0.057038 0.217598
O O10 0.500000 0.882939 0.895642
O O11 0.403389 0.869958 0.000000
O O12 0.500000 0.153159 0.713831
#
# Coordination Sequence:
#
# PCOD8284527 Si02
#       5
#    16  32  16  32  32
#     4  10  19  35  61  90 121 153 187 238 304 358
#     4  11  23  38  57  82 115 156 193 235 292 342
#     4  12  19  36  61  86 117 152 187 244 304 354
#     4  10  20  36  61  90 117 148 190 240 293 348
#     4  11  22  37  58  84 113 147 191 238 291 350
#
# _framework density 19.123854000000001
#
# number of rings (size 3 to 8) (size 9 to 14) (size 15 to 20)
#    0.000    1.250    5.000    3.000    0.000    5.000 
#    0.000    3.750    0.000    3.750    0.000    0.000 
#    0.000    0.000    0.000    0.000    0.000    0.000 
#
# Total GULP energy -396594.642366 kJ/mol
# GULP energy per Si atom -12393.582574 kJ/mol
# Density = 1.908033 g / cm^3
# Si number density = 19.123854 Si / 1000 Ang^3
#
#
#
# Elastic Constant Matrix: (Units=GPa)
#
#
# Indices 1 2 3 4 5 6 
#
# 1 145.6165 46.2230 38.3150 0.0000 0.0000 0.0000
# 2 46.2230 131.7209 32.3760 0.0000 0.0000 0.0000
# 3 38.3150 32.3760 61.1742 0.0000 0.0000 0.0000
# 4 0.0000 0.0000 0.0000 15.6761 0.0000 0.0000
# 5 0.0000 0.0000 0.0000 0.0000 18.4020 0.0000
# 6 0.0000 0.0000 0.0000 0.0000 0.0000 11.1780
#
#
#
# Elastic Compliance Matrix: (Units=1/GPa)
#
#
# Indices 1 2 3 4 5 6 
#
# 1 0.008640 -0.001956 -0.004376 0.000000 0.000000 0.000000
# 2 -0.001956 0.009170 -0.003628 0.000000 0.000000 0.000000
# 3 -0.004376 -0.003628 0.021008 0.000000 0.000000 0.000000
# 4 0.000000 0.000000 0.000000 0.063792 0.000000 0.000000
# 5 0.000000 0.000000 0.000000 0.000000 0.054342 0.000000
# 6 0.000000 0.000000 0.000000 0.000000 0.000000 0.089461
#
#
# Mechanical properties :
#
#
# Convention : Reuss Voigt Hill
#
# Bulk Modulus (GPa) = 52.91823 63.59331 58.25577
# Shear Modulus (GPa) = 18.33977 23.82437 21.08207
#
# Velocity S-wave (km/s) = 3.10013 3.53341 3.32384
# Velocity P-wave (km/s) = 6.36756 7.06910 6.72748
#
# Compressibility (1/GPa) = 0.01889708
#
# Stress axis : x y z
#
# Youngs Moduli (GPa) = 115.74416 109.05119 47.60186
#
# Poissons Ratio (x) = 0.21333 0.20830
# Poissons Ratio (y) = 0.22642 0.17270
# Poissons Ratio (z) = 0.50649 0.39563
#
# Static dielectric constant tensor:
#      x y z
#    x 3.957730 0.000000 0.000000 
#    y 0.000000 3.612320 0.000000 
#    z 0.000000 0.000000 3.575990 
# 
# 
# High freq. dielectric constant tensor:
#      x y z
#    x 1.744710 0.000000 0.000000 
#    y 0.000000 1.745540 0.000000 
#    z 0.000000 0.000000 1.729000 
# 
# From -- ./inp_files/16379.got.cif
#   From: 2010.03.12/outbox.cif.g09.slc.cpg/sg69_9_cif.got.tgz:16379.got - 2010.04.10 23:52:46.
