data_PCOD8284841
_publ_section_title
;
Structure prediction by ZEFSAII (Michael W. Deem and Ramdas Pophale) SiO2 
 PCOD8284841
Probable space group: F M M M
;
_chemical_formula_sum "Si O2"
_cell_formula_units_Z 160
_cell_length_a 18.196316
_cell_length_b 17.803483
_cell_length_c 23.893699
_cell_angle_alpha 90.000000
_cell_angle_beta 90.000000
_cell_angle_gamma 90.000000
_cell_volume 7740.550223
_symmetry_space_group_name_H-M "F M M M"
_symmetry_group_IT_number 69
_symmetry_cell_setting 'orthorhombic'
loop_
_space_group_symop_operation_xyz
x,y,z
-x,-y,z
x,-y,-z
-x,y,-z
-x,-y,-z
x,y,-z
-x,y,z
x,-y,z
x,1/2+y,1/2+z
-x,1/2-y,1/2+z
x,1/2-y,1/2-z
-x,1/2+y,1/2-z
-x,1/2-y,1/2-z
x,1/2+y,1/2-z
-x,1/2+y,1/2+z
x,1/2-y,1/2+z
1/2+x,y,1/2+z
1/2-x,-y,1/2+z
1/2+x,-y,1/2-z
1/2-x,y,1/2-z
1/2-x,-y,1/2-z
1/2+x,y,1/2-z
1/2-x,y,1/2+z
1/2+x,-y,1/2+z
1/2+x,1/2+y,z
1/2-x,1/2-y,z
1/2+x,1/2-y,-z
1/2-x,1/2+y,-z
1/2-x,1/2-y,-z
1/2+x,1/2+y,-z
1/2-x,1/2+y,z
1/2+x,1/2-y,z
loop_
_atom_site_type_symbol
_atom_site_label
_atom_site_fract_x
_atom_site_fract_y
_atom_site_fract_z
Si Si1 0.363799 0.327950 0.272997
Si Si2 0.216109 0.326236 0.882814
Si Si3 0.417441 0.415015 0.566143
Si Si4 0.000000 0.417125 0.788532
Si Si5 0.500000 0.917572 0.655110
Si Si6 0.656654 0.410923 0.161901
O O1 0.397268 0.250000 0.250000
O O2 0.302152 0.308017 0.318270
O O3 0.426515 0.373620 0.307082
O O4 0.328494 0.377184 0.223368
O O5 0.250000 0.250000 0.910009
O O6 0.144857 0.355986 0.915207
O O7 0.280541 0.388814 0.882271
O O8 0.422616 0.409727 0.500000
O O9 0.500000 0.396115 0.590855
O O10 0.395447 0.500000 0.584177
O O11 0.000000 0.421736 0.721914
O O12 0.000000 0.500000 0.815605
O O13 0.577524 0.878553 0.638237
O O14 0.500000 0.000000 0.627947
O O15 0.652487 0.500000 0.168550
#
# Coordination Sequence:
#
# PCOD8284841 Si02
#       6
#    32  32  32  16  16  32
#     4  11  21  35  51  75 124 164 198 241 288 338
#     4  12  24  36  55  90 123 154 196 238 295 364
#     4   9  21  45  72  93 115 146 192 254 314 362
#     4   9  19  33  51  75 102 151 215 254 283 330
#     4   7  14  31  49  69  98 141 199 241 277 320
#     4  10  20  35  55  77 112 163 209 245 279 332
#
# _framework density 20.670365
#
# number of rings (size 3 to 8) (size 9 to 14) (size 15 to 20)
#    0.000    2.000    2.000    3.900    1.400    4.400 
#    1.800    0.000    0.000    0.000    0.000    0.000 
#    0.000    4.000    0.000    0.000    0.000    0.000 
#
# Total GULP energy -495652.399139 kJ/mol
# GULP energy per Si atom -12391.309978 kJ/mol
# Density = 2.062332 g / cm^3
# Si number density = 20.670365 Si / 1000 Ang^3
#
#
#
# Elastic Constant Matrix: (Units=GPa)
#
#
# Indices 1 2 3 4 5 6 
#
# 1 152.0261 56.4059 28.0020 0.0000 0.0000 0.0000
# 2 56.4059 127.4396 17.6745 0.0000 0.0000 0.0000
# 3 28.0020 17.6745 18.8489 0.0000 0.0000 0.0000
# 4 0.0000 0.0000 0.0000 15.6955 0.0000 0.0000
# 5 0.0000 0.0000 0.0000 0.0000 26.4294 0.0000
# 6 0.0000 0.0000 0.0000 0.0000 0.0000 41.5935
#
#
#
# Elastic Compliance Matrix: (Units=1/GPa)
#
#
# Indices 1 2 3 4 5 6 
#
# 1 0.009782 -0.002660 -0.012038 0.000000 0.000000 0.000000
# 2 -0.002660 0.009743 -0.005184 0.000000 0.000000 0.000000
# 3 -0.012038 -0.005184 0.075798 0.000000 0.000000 0.000000
# 4 0.000000 0.000000 0.000000 0.063712 0.000000 0.000000
# 5 0.000000 0.000000 0.000000 0.000000 0.037837 0.000000
# 6 0.000000 0.000000 0.000000 0.000000 0.000000 0.024042
#
#
# Mechanical properties :
#
#
# Convention : Reuss Voigt Hill
#
# Bulk Modulus (GPa) = 17.99888 55.83104 36.91496
# Shear Modulus (GPa) = 17.90834 29.82582 23.86708
#
# Velocity S-wave (km/s) = 2.94662 3.80271 3.40170
# Velocity P-wave (km/s) = 4.50591 6.80806 5.77291
#
# Compressibility (1/GPa) = 0.05555902
#
# Stress axis : x y z
#
# Youngs Moduli (GPa) = 102.22773 102.63515 13.19289
#
# Poissons Ratio (x) = 0.27302 0.15881
# Poissons Ratio (y) = 0.27194 0.06840
# Poissons Ratio (z) = 1.23061 0.53210
#
# Static dielectric constant tensor:
#      x y z
#    x 4.273660 0.000000 0.000000 
#    y 0.000000 3.696850 0.000000 
#    z 0.000000 0.000000 3.171970 
# 
# 
# High freq. dielectric constant tensor:
#      x y z
#    x 1.834140 0.000000 0.000000 
#    y 0.000000 1.803230 0.000000 
#    z 0.000000 0.000000 1.753260 
# 
# From -- ./inp_files/41787.got.cif
#   From: 2010.03.12/outbox.cif.g09.slc.cpg/sg69_21_cif.got.tgz:41787.got - 2010.04.10 23:52:46.
