data_PCOD8284950
_publ_section_title
;
Structure prediction by ZEFSAII (Michael W. Deem and Ramdas Pophale) SiO2 
 PCOD8284950
Probable space group: F M M M
;
_chemical_formula_sum "Si O2"
_cell_formula_units_Z 208
_cell_length_a 27.531230
_cell_length_b 17.809244
_cell_length_c 23.600017
_cell_angle_alpha 90.000000
_cell_angle_beta 90.000000
_cell_angle_gamma 90.000000
_cell_volume 11571.333603
_symmetry_space_group_name_H-M "F M M M"
_symmetry_group_IT_number 69
_symmetry_cell_setting 'orthorhombic'
loop_
_space_group_symop_operation_xyz
x,y,z
-x,-y,z
x,-y,-z
-x,y,-z
-x,-y,-z
x,y,-z
-x,y,z
x,-y,z
x,1/2+y,1/2+z
-x,1/2-y,1/2+z
x,1/2-y,1/2-z
-x,1/2+y,1/2-z
-x,1/2-y,1/2-z
x,1/2+y,1/2-z
-x,1/2+y,1/2+z
x,1/2-y,1/2+z
1/2+x,y,1/2+z
1/2-x,-y,1/2+z
1/2+x,-y,1/2-z
1/2-x,y,1/2-z
1/2-x,-y,1/2-z
1/2+x,y,1/2-z
1/2-x,y,1/2+z
1/2+x,-y,1/2+z
1/2+x,1/2+y,z
1/2-x,1/2-y,z
1/2+x,1/2-y,-z
1/2-x,1/2+y,-z
1/2-x,1/2-y,-z
1/2+x,1/2+y,-z
1/2-x,1/2+y,z
1/2+x,1/2-y,z
loop_
_atom_site_type_symbol
_atom_site_label
_atom_site_fract_x
_atom_site_fract_y
_atom_site_fract_z
Si Si1 0.500000 0.414325 0.567149
Si Si2 0.056046 0.414625 0.755792
Si Si3 0.887657 0.914083 0.932767
Si Si4 0.410558 0.349496 0.367992
Si Si5 0.557093 0.314856 0.850328
Si Si6 0.822548 0.412947 0.932808
Si Si7 0.717158 0.411415 0.061737
O O1 0.500000 0.500000 0.589577
O O2 0.500000 0.411935 0.500000
O O3 0.547479 0.372114 0.588575
O O4 0.063858 0.500000 0.735625
O O5 0.087852 0.399485 0.811397
O O6 0.072961 0.360423 0.705414
O O7 0.000000 0.399007 0.771790
O O8 0.928610 0.862204 0.905570
O O9 0.833946 0.889513 0.908050
O O10 0.899250 0.000000 0.916803
O O11 0.888797 0.902836 0.000000
O O12 0.414823 0.263305 0.349882
O O13 0.359537 0.360743 0.399109
O O14 0.500000 0.299871 0.851567
O O15 0.834666 0.500000 0.920543
O O16 0.768546 0.390566 0.908599
O O17 0.825836 0.397546 0.000000
O O18 0.716446 0.500000 0.052889
O O19 0.717376 0.372773 0.000000
#
# Coordination Sequence:
#
# PCOD8284950 Si02
#       7
#    16  32  32  32  32  32  32
#     4  11  22  34  49  72 105 143 179 210 242 292
#     4  10  20  36  58  75  94 129 181 228 260 304
#     4   9  18  34  56  78 102 136 177 217 262 313
#     4  12  21  34  51  75 107 142 172 208 260 313
#     4  11  23  37  50  75 106 140 172 216 264 312
#     4   9  17  30  51  79 108 137 174 215 254 303
#     4   7  12  27  51  76 100 130 171 218 259 300
#
# _framework density 17.975455
#
# number of rings (size 3 to 8) (size 9 to 14) (size 15 to 20)
#    0.000    2.231    1.538    4.615    0.000    4.923 
#    0.000    1.538    0.000    3.692    0.000    6.462 
#    0.000    0.000    0.000    0.000    0.000    0.000 
#
# Total GULP energy -644507.838621 kJ/mol
# GULP energy per Si atom -12394.381512 kJ/mol
# Density = 1.793454 g / cm^3
# Si number density = 17.975455 Si / 1000 Ang^3
#
#
#
# Elastic Constant Matrix: (Units=GPa)
#
#
# Indices 1 2 3 4 5 6 
#
# 1 34.0619 13.5494 20.3527 0.0000 0.0000 0.0000
# 2 13.5494 82.8300 31.2765 0.0000 0.0000 0.0000
# 3 20.3527 31.2765 61.3786 0.0000 0.0000 0.0000
# 4 0.0000 0.0000 0.0000 18.2168 0.0000 0.0000
# 5 0.0000 0.0000 0.0000 0.0000 9.3810 0.0000
# 6 0.0000 0.0000 0.0000 0.0000 0.0000 14.1182
#
#
#
# Elastic Compliance Matrix: (Units=1/GPa)
#
#
# Indices 1 2 3 4 5 6 
#
# 1 0.036816 -0.001749 -0.011317 0.000000 0.000000 0.000000
# 2 -0.001749 0.015032 -0.007080 0.000000 0.000000 0.000000
# 3 -0.011317 -0.007080 0.023653 0.000000 0.000000 0.000000
# 4 0.000000 0.000000 0.000000 0.054894 0.000000 0.000000
# 5 0.000000 0.000000 0.000000 0.000000 0.106598 0.000000
# 6 0.000000 0.000000 0.000000 0.000000 0.000000 0.070831
#
#
# Mechanical properties :
#
#
# Convention : Reuss Voigt Hill
#
# Bulk Modulus (GPa) = 28.40153 34.29196 31.34675
# Shear Modulus (GPa) = 13.89458 15.88265 14.88861
#
# Velocity S-wave (km/s) = 2.78326 2.97572 2.88110
# Velocity P-wave (km/s) = 5.11500 5.56103 5.34267
#
# Compressibility (1/GPa) = 0.03520937
#
# Stress axis : x y z
#
# Youngs Moduli (GPa) = 27.16209 66.52263 42.27876
#
# Poissons Ratio (x) = 0.11637 0.47845
# Poissons Ratio (y) = 0.04751 0.29933
# Poissons Ratio (z) = 0.30738 0.47098
#
# Static dielectric constant tensor:
#      x y z
#    x 3.592850 0.000000 0.000000 
#    y 0.000000 3.231580 0.000000 
#    z 0.000000 0.000000 3.116130 
# 
# 
# High freq. dielectric constant tensor:
#      x y z
#    x 1.693510 0.000000 0.000000 
#    y 0.000000 1.686660 0.000000 
#    z 0.000000 0.000000 1.673470 
# 
# From -- ./inp_files/39060.got.cif
#   From: 2010.03.12/outbox.cif.g09.slc.cpg/sg69_20_cif.got.tgz:39060.got - 2010.04.10 23:52:46.
