data_PCOD8284773
_publ_section_title
;
Structure prediction by ZEFSAII (Michael W. Deem and Ramdas Pophale) SiO2 
 PCOD8284773
Probable space group: F M M M
;
_chemical_formula_sum "Si O2"
_cell_formula_units_Z 128
_cell_length_a 26.754919
_cell_length_b 13.617199
_cell_length_c 17.672028
_cell_angle_alpha 90.000000
_cell_angle_beta 90.000000
_cell_angle_gamma 90.000000
_cell_volume 6438.397939
_symmetry_space_group_name_H-M "F M M M"
_symmetry_group_IT_number 69
_symmetry_cell_setting 'orthorhombic'
loop_
_space_group_symop_operation_xyz
x,y,z
-x,-y,z
x,-y,-z
-x,y,-z
-x,-y,-z
x,y,-z
-x,y,z
x,-y,z
x,1/2+y,1/2+z
-x,1/2-y,1/2+z
x,1/2-y,1/2-z
-x,1/2+y,1/2-z
-x,1/2-y,1/2-z
x,1/2+y,1/2-z
-x,1/2+y,1/2+z
x,1/2-y,1/2+z
1/2+x,y,1/2+z
1/2-x,-y,1/2+z
1/2+x,-y,1/2-z
1/2-x,y,1/2-z
1/2-x,-y,1/2-z
1/2+x,y,1/2-z
1/2-x,y,1/2+z
1/2+x,-y,1/2+z
1/2+x,1/2+y,z
1/2-x,1/2-y,z
1/2+x,1/2-y,-z
1/2-x,1/2+y,-z
1/2-x,1/2-y,-z
1/2+x,1/2+y,-z
1/2-x,1/2+y,z
1/2+x,1/2-y,z
loop_
_atom_site_type_symbol
_atom_site_label
_atom_site_fract_x
_atom_site_fract_y
_atom_site_fract_z
Si Si1 0.000000 0.738841 0.086359
Si Si2 0.773116 0.611640 0.411377
Si Si3 0.500000 0.141179 0.721445
Si Si4 0.816053 0.216496 0.668118
Si Si5 0.579788 0.609096 0.335835
O O1 0.000000 0.845213 0.130472
O O2 0.951891 0.672208 0.104621
O O3 0.000000 0.769557 0.000000
O O4 0.763037 0.624854 0.500000
O O5 0.788685 0.500000 0.391916
O O6 0.817215 0.685811 0.385028
O O7 0.722424 0.638339 0.366937
O O8 0.500000 0.250000 0.750000
O O9 0.550245 0.093271 0.755800
O O10 0.796959 0.250000 0.750000
O O11 0.869410 0.166672 0.677275
O O12 0.590034 0.500000 0.368887
#
# Coordination Sequence:
#
# PCOD8284773 Si02
#       5
#    16  32  16  32  32
#     4  10  20  34  54  82 114 144 180 226 273 323
#     4  10  22  39  56  77 110 148 181 220 274 331
#     4   8  16  35  54  76 110 145 177 216 267 320
#     4  11  21  35  57  84 109 138 183 232 273 318
#     4  10  20  35  57  82 110 146 184 224 271 322
#
# _framework density 19.880721999999999
#
# number of rings (size 3 to 8) (size 9 to 14) (size 15 to 20)
#    0.000    2.250    0.000    7.500    0.000    6.000 
#    0.000    0.000    0.000    1.500    0.000    0.000 
#    0.000    2.000    0.000    0.000    0.000    0.000 
#
# Total GULP energy -396474.720087 kJ/mol
# GULP energy per Si atom -12389.835003 kJ/mol
# Density = 1.983547 g / cm^3
# Si number density = 19.880722 Si / 1000 Ang^3
#
#
#
# Elastic Constant Matrix: (Units=GPa)
#
#
# Indices 1 2 3 4 5 6 
#
# 1 125.7793 44.8410 37.2606 0.0000 0.0000 0.0000
# 2 44.8410 112.2782 29.5177 0.0000 0.0000 0.0000
# 3 37.2606 29.5177 135.1179 0.0000 0.0000 0.0000
# 4 0.0000 0.0000 0.0000 20.5277 0.0000 0.0000
# 5 0.0000 0.0000 0.0000 0.0000 10.0099 0.0000
# 6 0.0000 0.0000 0.0000 0.0000 0.0000 11.2607
#
#
#
# Elastic Compliance Matrix: (Units=1/GPa)
#
#
# Indices 1 2 3 4 5 6 
#
# 1 0.009730 -0.003374 -0.001946 0.000000 0.000000 0.000000
# 2 -0.003374 0.010619 -0.001389 0.000000 0.000000 0.000000
# 3 -0.001946 -0.001389 0.008241 0.000000 0.000000 0.000000
# 4 0.000000 0.000000 0.000000 0.048715 0.000000 0.000000
# 5 0.000000 0.000000 0.000000 0.000000 0.099902 0.000000
# 6 0.000000 0.000000 0.000000 0.000000 0.000000 0.088805
#
#
# Mechanical properties :
#
#
# Convention : Reuss Voigt Hill
#
# Bulk Modulus (GPa) = 65.91531 66.26822 66.09177
# Shear Modulus (GPa) = 17.57548 25.79672 21.68610
#
# Velocity S-wave (km/s) = 2.97652 3.60609 3.30633
# Velocity P-wave (km/s) = 6.71120 7.12347 6.92041
#
# Compressibility (1/GPa) = 0.01517098
#
# Stress axis : x y z
#
# Youngs Moduli (GPa) = 102.77649 94.16821 121.34297
#
# Poissons Ratio (x) = 0.31775 0.23613
# Poissons Ratio (y) = 0.34679 0.16859
# Poissons Ratio (z) = 0.20000 0.13084
#
# Static dielectric constant tensor:
#      x y z
#    x 3.596270 0.000000 0.000000 
#    y 0.000000 13.835040 0.000000 
#    z 0.000000 0.000000 7.406920 
# 
# 
# High freq. dielectric constant tensor:
#      x y z
#    x 1.763890 0.000000 0.000000 
#    y 0.000000 1.784240 0.000000 
#    z 0.000000 0.000000 1.765630 
# 
# From -- ./inp_files/26499.got.cif
#   From: 2010.03.12/outbox.cif.g09.slc.cpg/sg69_14_cif.got.tgz:26499.got - 2010.04.10 23:52:46.
