data_PCOD8284821
_publ_section_title
;
Structure prediction by ZEFSAII (Michael W. Deem and Ramdas Pophale) SiO2 
 PCOD8284821
Probable space group: F M M M
;
_chemical_formula_sum "Si O2"
_cell_formula_units_Z 160
_cell_length_a 29.981608
_cell_length_b 8.812767
_cell_length_c 30.368076
_cell_angle_alpha 90.000000
_cell_angle_beta 90.000000
_cell_angle_gamma 90.000000
_cell_volume 8023.881149
_symmetry_space_group_name_H-M "F M M M"
_symmetry_group_IT_number 69
_symmetry_cell_setting 'orthorhombic'
loop_
_space_group_symop_operation_xyz
x,y,z
-x,-y,z
x,-y,-z
-x,y,-z
-x,-y,-z
x,y,-z
-x,y,z
x,-y,z
x,1/2+y,1/2+z
-x,1/2-y,1/2+z
x,1/2-y,1/2-z
-x,1/2+y,1/2-z
-x,1/2-y,1/2-z
x,1/2+y,1/2-z
-x,1/2+y,1/2+z
x,1/2-y,1/2+z
1/2+x,y,1/2+z
1/2-x,-y,1/2+z
1/2+x,-y,1/2-z
1/2-x,y,1/2-z
1/2-x,-y,1/2-z
1/2+x,y,1/2-z
1/2-x,y,1/2+z
1/2+x,-y,1/2+z
1/2+x,1/2+y,z
1/2-x,1/2-y,z
1/2+x,1/2-y,-z
1/2-x,1/2+y,-z
1/2-x,1/2-y,-z
1/2+x,1/2+y,-z
1/2-x,1/2+y,z
1/2+x,1/2-y,z
loop_
_atom_site_type_symbol
_atom_site_label
_atom_site_fract_x
_atom_site_fract_y
_atom_site_fract_z
Si Si1 0.000000 0.821388 0.797265
Si Si2 0.294044 0.673323 0.111041
Si Si3 0.889397 0.823424 0.082788
Si Si4 0.327480 0.819414 0.705759
Si Si5 0.412522 0.677591 0.671138
Si Si6 0.948788 0.821212 0.000000
O O1 0.000000 0.750000 0.750000
O O2 0.958183 0.764997 0.824105
O O3 0.000000 0.000000 0.793293
O O4 0.282049 0.500000 0.116543
O O5 0.250000 0.750000 0.090872
O O6 0.335600 0.694875 0.077055
O O7 0.303651 0.736500 0.160689
O O8 0.900256 0.705956 0.120805
O O9 0.919224 0.769341 0.041647
O O10 0.899566 0.000000 0.095097
O O11 0.304249 0.750000 0.750000
O O12 0.377260 0.751472 0.704534
O O13 0.329154 0.000000 0.708855
O O14 0.416963 0.500000 0.681301
O O15 0.000000 0.753618 0.000000
O O16 0.953062 0.000000 0.000000
#
# Coordination Sequence:
#
# PCOD8284821 Si02
#       6
#    16  32  32  32  32  16
#     4  12  24  38  54  75 106 145 190 238 279 328
#     4   9  19  34  53  77 110 149 190 235 281 334
#     4   9  19  37  58  85 115 145 184 231 282 337
#     4  10  20  35  53  77 108 146 189 236 285 333
#     4  11  22  36  54  78 109 147 187 229 282 338
#     4   9  18  34  62  93 115 143 186 228 277 344
#
# _framework density 19.940473999999998
#
# number of rings (size 3 to 8) (size 9 to 14) (size 15 to 20)
#    0.000    2.100    0.000    5.100    1.400    4.400 
#    0.000    3.000    0.000    0.600    0.000    0.000 
#    0.000    0.000    0.000    0.000    0.000    0.000 
#
# Total GULP energy -495705.065276 kJ/mol
# GULP energy per Si atom -12392.626632 kJ/mol
# Density = 1.989509 g / cm^3
# Si number density = 19.940474 Si / 1000 Ang^3
#
#
#
# Elastic Constant Matrix: (Units=GPa)
#
#
# Indices 1 2 3 4 5 6 
#
# 1 135.1162 34.8028 33.0924 0.0000 0.0001 0.0004
# 2 34.8028 89.1243 16.2942 0.0000 0.0001 0.0005
# 3 33.0924 16.2942 80.1869 0.0000 0.0000 0.0002
# 4 0.0000 0.0000 0.0000 22.3215 0.0000 0.0000
# 5 0.0001 0.0001 0.0000 0.0000 20.6311 -0.0001
# 6 0.0004 0.0005 0.0002 0.0000 -0.0001 32.3761
#
#
#
# Elastic Compliance Matrix: (Units=1/GPa)
#
#
# Indices 1 2 3 4 5 6 
#
# 1 0.008907 -0.002914 -0.003084 0.000000 0.000000 0.000000
# 2 -0.002914 0.012607 -0.001359 0.000000 0.000000 0.000000
# 3 -0.003084 -0.001359 0.014020 0.000000 0.000000 0.000000
# 4 0.000000 0.000000 0.000000 0.044800 0.000000 0.000000
# 5 0.000000 0.000000 0.000000 0.000000 0.048470 0.000000
# 6 0.000000 0.000000 0.000000 0.000000 0.000000 0.030887
#
#
# Mechanical properties :
#
#
# Convention : Reuss Voigt Hill
#
# Bulk Modulus (GPa) = 48.03218 52.53402 50.28310
# Shear Modulus (GPa) = 27.57186 29.74829 28.66007
#
# Velocity S-wave (km/s) = 3.72251 3.86664 3.79526
# Velocity P-wave (km/s) = 6.52811 6.80714 6.66909
#
# Compressibility (1/GPa) = 0.02081937
#
# Stress axis : x y z
#
# Youngs Moduli (GPa) = 112.27202 79.32231 71.32877
#
# Poissons Ratio (x) = 0.23117 0.21995
# Poissons Ratio (y) = 0.32720 0.09694
# Poissons Ratio (z) = 0.34620 0.10780
#
# Static dielectric constant tensor:
#      x y z
#    x 3.796830 0.000000 0.000000 
#    y 0.000000 3.423200 0.000000 
#    z 0.000000 0.000000 3.540100 
# 
# 
# High freq. dielectric constant tensor:
#      x y z
#    x 1.786210 0.000000 0.000000 
#    y 0.000000 1.765520 0.000000 
#    z 0.000000 0.000000 1.759370 
# 
# From -- ./inp_files/47498.got.cif
#   From: 2010.03.12/outbox.cif.g09.slc.cpg/sg69_24_cif.got.tgz:47498.got - 2010.04.10 23:52:46.
