data_PCOD8284739
_publ_section_title
;
Structure prediction by ZEFSAII (Michael W. Deem and Ramdas Pophale) SiO2 
 PCOD8284739
Probable space group: F M M M
;
_chemical_formula_sum "Si O2"
_cell_formula_units_Z 192
_cell_length_a 16.558674
_cell_length_b 18.102061
_cell_length_c 33.404896
_cell_angle_alpha 90.000000
_cell_angle_beta 90.000000
_cell_angle_gamma 90.000000
_cell_volume 10012.988193
_symmetry_space_group_name_H-M "F M M M"
_symmetry_group_IT_number 69
_symmetry_cell_setting 'orthorhombic'
loop_
_space_group_symop_operation_xyz
x,y,z
-x,-y,z
x,-y,-z
-x,y,-z
-x,-y,-z
x,y,-z
-x,y,z
x,-y,z
x,1/2+y,1/2+z
-x,1/2-y,1/2+z
x,1/2-y,1/2-z
-x,1/2+y,1/2-z
-x,1/2-y,1/2-z
x,1/2+y,1/2-z
-x,1/2+y,1/2+z
x,1/2-y,1/2+z
1/2+x,y,1/2+z
1/2-x,-y,1/2+z
1/2+x,-y,1/2-z
1/2-x,y,1/2-z
1/2-x,-y,1/2-z
1/2+x,y,1/2-z
1/2-x,y,1/2+z
1/2+x,-y,1/2+z
1/2+x,1/2+y,z
1/2-x,1/2-y,z
1/2+x,1/2-y,-z
1/2-x,1/2+y,-z
1/2-x,1/2-y,-z
1/2+x,1/2+y,-z
1/2-x,1/2+y,z
1/2+x,1/2-y,z
loop_
_atom_site_type_symbol
_atom_site_label
_atom_site_fract_x
_atom_site_fract_y
_atom_site_fract_z
Si Si1 0.591096 0.413327 0.685312
Si Si2 0.193054 0.586134 0.887577
Si Si3 0.147578 0.085079 0.839093
Si Si4 0.094973 0.166373 0.237878
Si Si5 0.830867 0.797008 0.546518
Si Si6 0.000000 0.583894 0.603853
Si Si7 0.000000 0.281803 0.546856
O O1 0.500000 0.385879 0.684578
O O2 0.602298 0.500000 0.687853
O O3 0.627971 0.383915 0.644170
O O4 0.631221 0.380331 0.725145
O O5 0.183493 0.500000 0.897470
O O6 0.276874 0.604398 0.866486
O O7 0.179781 0.627714 0.929078
O O8 0.143330 0.140592 0.801467
O O9 0.074769 0.100624 0.868274
O O10 0.149141 0.000000 0.823716
O O11 0.112674 0.250000 0.250000
O O12 0.000000 0.151241 0.230476
O O13 0.834542 0.818231 0.500000
O O14 0.750000 0.750000 0.555623
O O15 0.916339 0.759416 0.559393
O O16 0.000000 0.637473 0.566103
O O17 0.000000 0.500000 0.587382
O O18 0.000000 0.295514 0.500000
#
# Coordination Sequence:
#
# PCOD8284739 Si02
#       7
#    32  32  32  32  32  16  16
#     4   9  19  35  54  75 106 148 188 231 286 335
#     4  10  22  38  58  87 114 147 199 245 288 346
#     4  10  20  36  57  81 113 152 195 242 295 348
#     4  10  20  34  52  79 112 149 196 240 282 341
#     4  10  22  41  62  87 121 157 191 236 298 362
#     4  10  20  35  59  86 113 151 194 242 294 348
#     4  10  22  39  61  89 118 156 197 233 297 368
#
# _framework density 19.175094999999999
#
# number of rings (size 3 to 8) (size 9 to 14) (size 15 to 20)
#    0.000    2.167    0.833    1.500    1.167    4.500 
#    0.000    3.333    0.000    7.500    0.000    0.000 
#    0.000    0.000    0.000    0.000    0.000    0.000 
#
# Total GULP energy -594997.417537 kJ/mol
# GULP energy per Si atom -12395.779532 kJ/mol
# Density = 1.913145 g / cm^3
# Si number density = 19.175095 Si / 1000 Ang^3
#
#
#
# Elastic Constant Matrix: (Units=GPa)
#
#
# Indices 1 2 3 4 5 6 
#
# 1 86.0342 59.6696 48.8543 0.0000 0.0000 0.0000
# 2 59.6696 75.6565 71.2471 0.0000 0.0000 0.0000
# 3 48.8543 71.2471 110.6156 0.0000 0.0000 0.0000
# 4 0.0000 0.0000 0.0000 46.1091 0.0000 0.0000
# 5 0.0000 0.0000 0.0000 0.0000 29.8846 0.0000
# 6 0.0000 0.0000 0.0000 0.0000 0.0000 26.2272
#
#
#
# Elastic Compliance Matrix: (Units=1/GPa)
#
#
# Indices 1 2 3 4 5 6 
#
# 1 0.026500 -0.025107 0.004468 0.000000 0.000000 0.000000
# 2 -0.025107 0.057383 -0.025871 0.000000 0.000000 0.000000
# 3 0.004468 -0.025871 0.023731 0.000000 0.000000 0.000000
# 4 0.000000 0.000000 0.000000 0.021688 0.000000 0.000000
# 5 0.000000 0.000000 0.000000 0.000000 0.033462 0.000000
# 6 0.000000 0.000000 0.000000 0.000000 0.000000 0.038128
#
#
# Mechanical properties :
#
#
# Convention : Reuss Voigt Hill
#
# Bulk Modulus (GPa) = 68.53285 70.20537 69.36911
# Shear Modulus (GPa) = 16.73485 26.61319 21.67402
#
# Velocity S-wave (km/s) = 2.95742 3.72950 3.36567
# Velocity P-wave (km/s) = 6.89057 7.43222 7.16651
#
# Compressibility (1/GPa) = 0.01459154
#
# Stress axis : x y z
#
# Youngs Moduli (GPa) = 37.73634 17.42671 42.13940
#
# Poissons Ratio (x) = 0.43754 -0.18827
# Poissons Ratio (y) = 0.94746 1.09021
# Poissons Ratio (z) = -0.16860 0.45085
#
# Static dielectric constant tensor:
#      x y z
#    x 3.727900 0.000000 0.000000 
#    y 0.000000 3.341010 0.000000 
#    z 0.000000 0.000000 3.495860 
# 
# 
# High freq. dielectric constant tensor:
#      x y z
#    x 1.754730 0.000000 0.000000 
#    y 0.000000 1.737330 0.000000 
#    z 0.000000 0.000000 1.750430 
# 
# From -- ./inp_files/23680.got.cif
#   From: 2010.03.12/outbox.cif.g09.slc.cpg/sg69_12_cif.got.tgz:23680.got - 2010.04.10 23:52:46.
