data_PCOD8284224
_publ_section_title
;
Structure prediction by ZEFSAII (Michael W. Deem and Ramdas Pophale) SiO2 
 PCOD8284224
Probable space group: F M M M
;
_chemical_formula_sum "Si O2"
_cell_formula_units_Z 192
_cell_length_a 28.088238
_cell_length_b 26.147165
_cell_length_c 14.659007
_cell_angle_alpha 90.000000
_cell_angle_beta 90.000000
_cell_angle_gamma 90.000000
_cell_volume 10765.982167
_symmetry_space_group_name_H-M "F M M M"
_symmetry_group_IT_number 69
_symmetry_cell_setting 'orthorhombic'
loop_
_space_group_symop_operation_xyz
x,y,z
-x,-y,z
x,-y,-z
-x,y,-z
-x,-y,-z
x,y,-z
-x,y,z
x,-y,z
x,1/2+y,1/2+z
-x,1/2-y,1/2+z
x,1/2-y,1/2-z
-x,1/2+y,1/2-z
-x,1/2-y,1/2-z
x,1/2+y,1/2-z
-x,1/2+y,1/2+z
x,1/2-y,1/2+z
1/2+x,y,1/2+z
1/2-x,-y,1/2+z
1/2+x,-y,1/2-z
1/2-x,y,1/2-z
1/2-x,-y,1/2-z
1/2+x,y,1/2-z
1/2-x,y,1/2+z
1/2+x,-y,1/2+z
1/2+x,1/2+y,z
1/2-x,1/2-y,z
1/2+x,1/2-y,-z
1/2-x,1/2+y,-z
1/2-x,1/2-y,-z
1/2+x,1/2+y,-z
1/2-x,1/2+y,z
1/2+x,1/2-y,z
loop_
_atom_site_type_symbol
_atom_site_label
_atom_site_fract_x
_atom_site_fract_y
_atom_site_fract_z
Si Si1 0.500000 0.887763 0.392649
Si Si2 0.602310 0.230978 0.599740
Si Si3 0.903059 0.558084 0.392458
Si Si4 0.648901 0.144194 0.701839
Si Si5 0.341646 0.833661 0.899614
Si Si6 0.236475 0.306100 0.602672
Si Si7 0.500000 0.727839 0.848550
O O1 0.500000 0.877037 0.500000
O O2 0.545860 0.920075 0.362376
O O3 0.500000 0.833515 0.343126
O O4 0.612009 0.207400 0.500000
O O5 0.609590 0.186159 0.673051
O O6 0.639642 0.276198 0.617725
O O7 0.547479 0.249367 0.602691
O O8 0.896393 0.561511 0.500000
O O9 0.899085 0.500000 0.358053
O O10 0.860755 0.590189 0.346045
O O11 0.643101 0.134000 0.810756
O O12 0.700498 0.165889 0.671995
O O13 0.284897 0.837807 0.902022
O O14 0.360896 0.852970 0.000000
O O15 0.214099 0.302164 0.500000
O O16 0.250000 0.250000 0.640187
O O17 0.500000 0.750000 0.750000
#
# Coordination Sequence:
#
# PCOD8284224 Si02
#       7
#    16  32  32  32  32  32  16
#     4  10  19  34  54  77 110 149 180 213 267 325
#     4  11  21  33  48  73 107 146 181 217 260 318
#     4  10  21  36  56  82 108 136 178 230 278 324
#     4  12  20  32  55  78 105 141 177 220 276 321
#     4  10  22  35  48  72 109 144 181 218 254 315
#     4  10  19  31  50  78 109 141 176 214 260 320
#     4  12  22  31  47  76 113 151 183 205 251 324
#
# _framework density 17.833950000000002
#
# number of rings (size 3 to 8) (size 9 to 14) (size 15 to 20)
#    0.000    1.333    3.333    4.500    0.000    1.667 
#    0.000    0.000    0.000    2.500    0.000    2.333 
#    0.000    1.333    0.000    0.000    0.000    0.000 
#
# Total GULP energy -594955.146029 kJ/mol
# GULP energy per Si atom -12394.898876 kJ/mol
# Density = 1.779336 g / cm^3
# Si number density = 17.833950 Si / 1000 Ang^3
#
#
#
# Elastic Constant Matrix: (Units=GPa)
#
#
# Indices 1 2 3 4 5 6 
#
# 1 100.8359 35.2117 29.8386 0.0000 0.0000 0.0000
# 2 35.2117 87.5830 38.2222 0.0000 0.0000 0.0000
# 3 29.8386 38.2222 105.2423 0.0000 0.0000 0.0000
# 4 0.0000 0.0000 0.0000 18.7801 0.0000 0.0000
# 5 0.0000 0.0000 0.0000 0.0000 21.0274 0.0000
# 6 0.0000 0.0000 0.0000 0.0000 0.0000 19.0296
#
#
#
# Elastic Compliance Matrix: (Units=1/GPa)
#
#
# Indices 1 2 3 4 5 6 
#
# 1 0.011860 -0.003923 -0.001938 0.000000 0.000000 0.000000
# 2 -0.003923 0.014866 -0.004287 0.000000 0.000000 0.000000
# 3 -0.001938 -0.004287 0.011608 0.000000 0.000000 0.000000
# 4 0.000000 0.000000 0.000000 0.053248 0.000000 0.000000
# 5 0.000000 0.000000 0.000000 0.000000 0.047557 0.000000
# 6 0.000000 0.000000 0.000000 0.000000 0.000000 0.052550
#
#
# Mechanical properties :
#
#
# Convention : Reuss Voigt Hill
#
# Bulk Modulus (GPa) = 55.43429 55.57846 55.50637
# Shear Modulus (GPa) = 22.93615 24.46000 23.69807
#
# Velocity S-wave (km/s) = 3.59011 3.70745 3.64925
# Velocity P-wave (km/s) = 6.95242 7.03981 6.99626
#
# Compressibility (1/GPa) = 0.01803938
#
# Stress axis : x y z
#
# Youngs Moduli (GPa) = 84.31461 67.26966 86.14549
#
# Poissons Ratio (x) = 0.26387 0.16696
# Poissons Ratio (y) = 0.33072 0.36929
# Poissons Ratio (z) = 0.16341 0.28837
#
# Static dielectric constant tensor:
#      x y z
#    x 3.363000 0.000000 0.000000 
#    y 0.000000 2.991810 0.000000 
#    z 0.000000 0.000000 3.520220 
# 
# 
# High freq. dielectric constant tensor:
#      x y z
#    x 1.702470 0.000000 0.000000 
#    y 0.000000 1.633270 0.000000 
#    z 0.000000 0.000000 1.690880 
# 
# From -- ./inp_files/19840.got.cif
#   From: 2010.03.12/outbox.cif.g09.slc.cpg/sg69_10_cif.got.tgz:19840.got - 2010.04.10 23:52:46.
