data_PCOD8284278
_publ_section_title
;
Structure prediction by ZEFSAII (Michael W. Deem and Ramdas Pophale) SiO2 
 PCOD8284278
Probable space group: F M M M
;
_chemical_formula_sum "Si O2"
_cell_formula_units_Z 208
_cell_length_a 18.574492
_cell_length_b 19.222041
_cell_length_c 32.373969
_cell_angle_alpha 90.000000
_cell_angle_beta 90.000000
_cell_angle_gamma 90.000000
_cell_volume 11558.790457
_symmetry_space_group_name_H-M "F M M M"
_symmetry_group_IT_number 69
_symmetry_cell_setting 'orthorhombic'
loop_
_space_group_symop_operation_xyz
x,y,z
-x,-y,z
x,-y,-z
-x,y,-z
-x,-y,-z
x,y,-z
-x,y,z
x,-y,z
x,1/2+y,1/2+z
-x,1/2-y,1/2+z
x,1/2-y,1/2-z
-x,1/2+y,1/2-z
-x,1/2-y,1/2-z
x,1/2+y,1/2-z
-x,1/2+y,1/2+z
x,1/2-y,1/2+z
1/2+x,y,1/2+z
1/2-x,-y,1/2+z
1/2+x,-y,1/2-z
1/2-x,y,1/2-z
1/2-x,-y,1/2-z
1/2+x,y,1/2-z
1/2-x,y,1/2+z
1/2+x,-y,1/2+z
1/2+x,1/2+y,z
1/2-x,1/2-y,z
1/2+x,1/2-y,-z
1/2-x,1/2+y,-z
1/2-x,1/2-y,-z
1/2+x,1/2+y,-z
1/2-x,1/2+y,z
1/2+x,1/2-y,z
loop_
_atom_site_type_symbol
_atom_site_label
_atom_site_fract_x
_atom_site_fract_y
_atom_site_fract_z
Si Si1 0.179573 0.171591 0.366564
Si Si2 0.831099 0.726770 0.954552
Si Si3 0.084229 0.080502 0.780818
Si Si4 0.583594 0.853594 0.425300
Si Si5 0.579172 0.080777 0.813689
Si Si6 0.084405 0.500000 0.547237
Si Si7 0.159696 0.175323 0.154685
O O1 0.154020 0.177881 0.414721
O O2 0.134285 0.110958 0.346386
O O3 0.164342 0.241341 0.339716
O O4 0.263441 0.150255 0.363403
O O5 0.750000 0.750000 0.949359
O O6 0.879584 0.795623 0.953656
O O7 0.843565 0.690953 0.000000
O O8 0.103979 0.093790 0.733224
O O9 0.137313 0.133529 0.804408
O O10 0.000000 0.096802 0.789311
O O11 0.100188 0.000000 0.793135
O O12 0.500000 0.852110 0.436465
O O13 0.617805 0.929763 0.433745
O O14 0.595992 0.839271 0.377356
O O15 0.500000 0.114042 0.820426
O O16 0.575097 0.000000 0.822738
O O17 0.104521 0.500000 0.500000
O O18 0.000000 0.500000 0.556084
#
# Coordination Sequence:
#
# PCOD8284278 Si02
#       7
#    32  32  32  32  32  16  32
#     4  10  20  37  54  79 107 140 180 221 276 324
#     4  10  19  36  57  75 106 143 177 221 270 316
#     4   9  19  35  55  80 110 144 180 217 264 322
#     4  10  19  32  51  77 107 142 178 216 265 319
#     4   9  20  39  59  78 103 140 185 231 275 318
#     4   9  18  30  44  70 108 139 169 211 261 318
#     4  10  20  34  50  79 113 140 178 219 266 317
#
# _framework density 17.994962000000001
#
# number of rings (size 3 to 8) (size 9 to 14) (size 15 to 20)
#    0.000    2.385    3.077    1.846    1.077    5.846 
#    0.000    4.615    0.000    0.462    0.000    1.077 
#    0.000    0.000    0.000    0.000    0.000    0.000 
#
# Total GULP energy -644422.347776 kJ/mol
# GULP energy per Si atom -12392.737457 kJ/mol
# Density = 1.795400 g / cm^3
# Si number density = 17.994962 Si / 1000 Ang^3
#
#
#
# Elastic Constant Matrix: (Units=GPa)
#
#
# Indices 1 2 3 4 5 6 
#
# 1 69.0314 34.9389 35.6376 0.0000 0.0000 0.0000
# 2 34.9389 50.2069 46.6100 0.0000 0.0000 0.0000
# 3 35.6376 46.6100 110.2974 0.0000 0.0000 0.0000
# 4 0.0000 0.0000 0.0000 21.6718 0.0000 0.0000
# 5 0.0000 0.0000 0.0000 0.0000 238.5583 0.0000
# 6 0.0000 0.0000 0.0000 0.0000 0.0000 24.0778
#
#
#
# Elastic Compliance Matrix: (Units=1/GPa)
#
#
# Indices 1 2 3 4 5 6 
#
# 1 0.022439 -0.014620 -0.001072 0.000000 0.000000 0.000000
# 2 -0.014620 0.042302 -0.013152 0.000000 0.000000 0.000000
# 3 -0.001072 -0.013152 0.014971 0.000000 0.000000 0.000000
# 4 0.000000 0.000000 0.000000 0.046143 0.000000 0.000000
# 5 0.000000 0.000000 0.000000 0.000000 0.004192 0.000000
# 6 0.000000 0.000000 0.000000 0.000000 0.000000 0.041532
#
#
# Mechanical properties :
#
#
# Convention : Reuss Voigt Hill
#
# Bulk Modulus (GPa) = 45.40736 51.54542 48.47639
# Shear Modulus (GPa) = 21.13191 64.35153 42.74172
#
# Velocity S-wave (km/s) = 3.43056 5.98653 4.87889
# Velocity P-wave (km/s) = 6.40155 8.74592 7.66391
#
# Compressibility (1/GPa) = 0.02202286
#
# Stress axis : x y z
#
# Youngs Moduli (GPa) = 44.56453 23.63955 66.79730
#
# Poissons Ratio (x) = 0.34562 0.07160
# Poissons Ratio (y) = 0.65155 0.87854
# Poissons Ratio (z) = 0.04777 0.31091
#
# Static dielectric constant tensor:
#      x y z
#    x 3.313130 0.000000 0.000000 
#    y 0.000000 2.959560 0.000000 
#    z 0.000000 0.000000 3.385810 
# 
# 
# High freq. dielectric constant tensor:
#      x y z
#    x 1.689870 0.000000 0.000000 
#    y 0.000000 1.680590 0.000000 
#    z 0.000000 0.000000 1.698650 
# 
# From -- ./inp_files/46512.got.cif
#   From: 2010.03.12/outbox.cif.g09.slc.cpg/sg69_24_cif.got.tgz:46512.got - 2010.04.10 23:52:46.
