data_PCOD8284474
_publ_section_title
;
Structure prediction by ZEFSAII (Michael W. Deem and Ramdas Pophale) SiO2 
 PCOD8284474
Probable space group: F M M M
;
_chemical_formula_sum "Si O2"
_cell_formula_units_Z 208
_cell_length_a 20.227492
_cell_length_b 18.723230
_cell_length_c 28.183457
_cell_angle_alpha 90.000000
_cell_angle_beta 90.000000
_cell_angle_gamma 90.000000
_cell_volume 10673.751147
_symmetry_space_group_name_H-M "F M M M"
_symmetry_group_IT_number 69
_symmetry_cell_setting 'orthorhombic'
loop_
_space_group_symop_operation_xyz
x,y,z
-x,-y,z
x,-y,-z
-x,y,-z
-x,-y,-z
x,y,-z
-x,y,z
x,-y,z
x,1/2+y,1/2+z
-x,1/2-y,1/2+z
x,1/2-y,1/2-z
-x,1/2+y,1/2-z
-x,1/2-y,1/2-z
x,1/2+y,1/2-z
-x,1/2+y,1/2+z
x,1/2-y,1/2+z
1/2+x,y,1/2+z
1/2-x,-y,1/2+z
1/2+x,-y,1/2-z
1/2-x,y,1/2-z
1/2-x,-y,1/2-z
1/2+x,y,1/2-z
1/2-x,y,1/2+z
1/2+x,-y,1/2+z
1/2+x,1/2+y,z
1/2-x,1/2-y,z
1/2+x,1/2-y,-z
1/2-x,1/2+y,-z
1/2-x,1/2-y,-z
1/2+x,1/2+y,-z
1/2-x,1/2+y,z
1/2+x,1/2-y,z
loop_
_atom_site_type_symbol
_atom_site_label
_atom_site_fract_x
_atom_site_fract_y
_atom_site_fract_z
Si Si1 0.403003 0.850204 0.869009
Si Si2 0.263745 0.581922 0.375552
Si Si3 0.424748 0.307416 0.106306
Si Si4 0.500000 0.915030 0.943828
Si Si5 0.635174 0.417279 0.821843
Si Si6 0.794551 0.815489 0.054505
Si Si7 0.927209 0.578981 0.227615
O O1 0.326177 0.868347 0.867119
O O2 0.416180 0.766487 0.866048
O O3 0.435767 0.884126 0.916544
O O4 0.433611 0.877019 0.820297
O O5 0.284906 0.500000 0.383297
O O6 0.213535 0.590780 0.331335
O O7 0.226406 0.609915 0.422081
O O8 0.500000 0.315969 0.087214
O O9 0.408159 0.371876 0.141522
O O10 0.372868 0.303853 0.062758
O O11 0.500000 0.000000 0.939521
O O12 0.500000 0.892408 0.000000
O O13 0.613228 0.500000 0.827238
O O14 0.621558 0.389768 0.768130
O O15 0.750000 0.750000 0.075029
O O16 0.779277 0.824186 0.000000
O O17 0.902164 0.500000 0.213308
O O18 0.000000 0.576464 0.250787
#
# Coordination Sequence:
#
# PCOD8284474 Si02
#       7
#    32  32  32  16  32  32  32
#     4  12  22  37  58  89 122 158 198 245 303 362
#     4  10  21  38  61  86 118 155 197 250 301 362
#     4  11  22  38  60  88 123 158 197 250 307 360
#     4  11  24  40  56  81 121 163 203 244 289 354
#     4   9  21  39  60  87 115 157 207 252 305 360
#     4  10  21  39  61  83 113 156 200 245 297 356
#     4  10  19  34  58  84 118 161 203 247 300 363
#
# _framework density 19.487058000000001
#
# number of rings (size 3 to 8) (size 9 to 14) (size 15 to 20)
#    0.000    1.615    3.077    1.846    0.000    4.000 
#    0.000    3.846    0.000    1.846    0.000    4.308 
#    0.000    0.000    0.000    0.000    0.000    0.000 
#
# Total GULP energy -644582.316976 kJ/mol
# GULP energy per Si atom -12395.813788 kJ/mol
# Density = 1.944270 g / cm^3
# Si number density = 19.487058 Si / 1000 Ang^3
#
#
#
# Elastic Constant Matrix: (Units=GPa)
#
#
# Indices 1 2 3 4 5 6 
#
# 1 134.7462 28.3321 35.6400 0.0000 0.0000 0.0000
# 2 28.3321 74.7331 32.3759 0.0000 0.0000 0.0000
# 3 35.6400 32.3759 109.7550 0.0000 0.0000 0.0000
# 4 0.0000 0.0000 0.0000 21.9971 0.0000 0.0000
# 5 0.0000 0.0000 0.0000 0.0000 21.3379 0.0000
# 6 0.0000 0.0000 0.0000 0.0000 0.0000 23.9930
#
#
#
# Elastic Compliance Matrix: (Units=1/GPa)
#
#
# Indices 1 2 3 4 5 6 
#
# 1 0.008453 -0.002311 -0.002063 0.000000 0.000000 0.000000
# 2 -0.002311 0.015973 -0.003961 0.000000 0.000000 0.000000
# 3 -0.002063 -0.003961 0.010950 0.000000 0.000000 0.000000
# 4 0.000000 0.000000 0.000000 0.045461 0.000000 0.000000
# 5 0.000000 0.000000 0.000000 0.000000 0.046865 0.000000
# 6 0.000000 0.000000 0.000000 0.000000 0.000000 0.041679
#
#
# Mechanical properties :
#
#
# Convention : Reuss Voigt Hill
#
# Bulk Modulus (GPa) = 53.46180 56.88116 55.17148
# Shear Modulus (GPa) = 26.00293 28.32470 27.16381
#
# Velocity S-wave (km/s) = 3.65686 3.81663 3.73760
# Velocity P-wave (km/s) = 6.73233 6.97673 6.85562
#
# Compressibility (1/GPa) = 0.01870495
#
# Stress axis : x y z
#
# Youngs Moduli (GPa) = 118.30197 62.60499 91.32635
#
# Poissons Ratio (x) = 0.14467 0.18843
# Poissons Ratio (y) = 0.27337 0.36179
# Poissons Ratio (z) = 0.24408 0.24801
#
# Static dielectric constant tensor:
#      x y z
#    x 3.762520 0.000000 0.000000 
#    y 0.000000 3.641810 0.000000 
#    z 0.000000 0.000000 3.410390 
# 
# 
# High freq. dielectric constant tensor:
#      x y z
#    x 1.771880 0.000000 0.000000 
#    y 0.000000 1.759560 0.000000 
#    z 0.000000 0.000000 1.745480 
# 
# From -- ./inp_files/42735.got.cif
#   From: 2010.03.12/outbox.cif.g09.slc.cpg/sg69_22_cif.got.tgz:42735.got - 2010.04.10 23:52:46.
