data_PCOD8284567
_publ_section_title
;
Structure prediction by ZEFSAII (Michael W. Deem and Ramdas Pophale) SiO2 
 PCOD8284567
Probable space group: F M M M
;
_chemical_formula_sum "Si O2"
_cell_formula_units_Z 160
_cell_length_a 16.766636
_cell_length_b 22.413185
_cell_length_c 21.565627
_cell_angle_alpha 90.000000
_cell_angle_beta 90.000000
_cell_angle_gamma 90.000000
_cell_volume 8104.227076
_symmetry_space_group_name_H-M "F M M M"
_symmetry_group_IT_number 69
_symmetry_cell_setting 'orthorhombic'
loop_
_space_group_symop_operation_xyz
x,y,z
-x,-y,z
x,-y,-z
-x,y,-z
-x,-y,-z
x,y,-z
-x,y,z
x,-y,z
x,1/2+y,1/2+z
-x,1/2-y,1/2+z
x,1/2-y,1/2-z
-x,1/2+y,1/2-z
-x,1/2-y,1/2-z
x,1/2+y,1/2-z
-x,1/2+y,1/2+z
x,1/2-y,1/2+z
1/2+x,y,1/2+z
1/2-x,-y,1/2+z
1/2+x,-y,1/2-z
1/2-x,y,1/2-z
1/2-x,-y,1/2-z
1/2+x,y,1/2-z
1/2-x,y,1/2+z
1/2+x,-y,1/2+z
1/2+x,1/2+y,z
1/2-x,1/2-y,z
1/2+x,1/2-y,-z
1/2-x,1/2+y,-z
1/2-x,1/2-y,-z
1/2+x,1/2+y,-z
1/2-x,1/2+y,z
1/2+x,1/2-y,z
loop_
_atom_site_type_symbol
_atom_site_label
_atom_site_fract_x
_atom_site_fract_y
_atom_site_fract_z
Si Si1 0.189357 0.616426 0.886804
Si Si2 0.729121 0.500000 0.070106
Si Si3 0.342167 0.603736 0.252431
Si Si4 0.090888 0.278780 0.068888
Si Si5 0.908694 0.000000 0.827396
Si Si6 0.684952 0.202142 0.664617
O O1 0.212171 0.555711 0.920517
O O2 0.135627 0.605116 0.825049
O O3 0.138453 0.659068 0.931073
O O4 0.272907 0.648227 0.871434
O O5 0.652728 0.500000 0.115349
O O6 0.696046 0.500000 0.000000
O O7 0.250000 0.582698 0.250000
O O8 0.396881 0.557952 0.215255
O O9 0.354955 0.671023 0.224939
O O10 0.120758 0.231549 0.119451
O O11 0.000000 0.293050 0.084106
O O12 0.101127 0.250955 0.000000
O O13 0.000000 0.000000 0.852112
O O14 0.750000 0.250000 0.687031
#
# Coordination Sequence:
#
# PCOD8284567 Si02
#       6
#    32  16  32  32  16  32
#     4  10  21  38  65  87 113 153 205 251 292 351
#     4  12  23  40  63  90 117 159 207 245 288 357
#     4  10  19  38  63  85 118 151 198 243 301 349
#     4  10  22  39  56  82 125 164 195 243 302 352
#     4  12  24  39  59  92 126 158 193 244 306 362
#     4   9  19  34  58  88 109 148 198 243 286 354
#
# _framework density 19.742782999999999
#
# number of rings (size 3 to 8) (size 9 to 14) (size 15 to 20)
#    0.000    1.800    4.000    1.500    0.000   15.400 
#    0.000    1.500    0.000    1.800    0.000    0.000 
#    0.000    0.000    0.000    0.000    0.000    0.000 
#
# Total GULP energy -495899.724140 kJ/mol
# GULP energy per Si atom -12397.493104 kJ/mol
# Density = 1.969785 g / cm^3
# Si number density = 19.742783 Si / 1000 Ang^3
#
#
#
# Elastic Constant Matrix: (Units=GPa)
#
#
# Indices 1 2 3 4 5 6 
#
# 1 77.5665 27.7250 37.1135 0.0000 0.0000 0.0000
# 2 27.7250 110.2926 31.7321 0.0000 0.0000 0.0000
# 3 37.1135 31.7321 114.8330 0.0000 0.0000 0.0000
# 4 0.0000 0.0000 0.0000 26.9775 0.0000 0.0000
# 5 0.0000 0.0000 0.0000 0.0000 25.4310 0.0000
# 6 0.0000 0.0000 0.0000 0.0000 0.0000 17.2958
#
#
#
# Elastic Compliance Matrix: (Units=1/GPa)
#
#
# Indices 1 2 3 4 5 6 
#
# 1 0.015983 -0.002750 -0.004406 0.000000 0.000000 0.000000
# 2 -0.002750 0.010323 -0.001964 0.000000 0.000000 0.000000
# 3 -0.004406 -0.001964 0.010675 0.000000 0.000000 0.000000
# 4 0.000000 0.000000 0.000000 0.037068 0.000000 0.000000
# 5 0.000000 0.000000 0.000000 0.000000 0.039322 0.000000
# 6 0.000000 0.000000 0.000000 0.000000 0.000000 0.057818
#
#
# Mechanical properties :
#
#
# Convention : Reuss Voigt Hill
#
# Bulk Modulus (GPa) = 53.35676 55.09258 54.22467
# Shear Modulus (GPa) = 25.55250 27.68228 26.61739
#
# Velocity S-wave (km/s) = 3.60150 3.74859 3.67578
# Velocity P-wave (km/s) = 6.66176 6.83386 6.74836
#
# Compressibility (1/GPa) = 0.01874177
#
# Stress axis : x y z
#
# Youngs Moduli (GPa) = 62.56561 96.86987 93.67807
#
# Poissons Ratio (x) = 0.26642 0.41272
# Poissons Ratio (y) = 0.17207 0.18396
# Poissons Ratio (z) = 0.27565 0.19023
#
# Static dielectric constant tensor:
#      x y z
#    x 3.265050 0.000000 0.000000 
#    y 0.000000 3.767310 0.000000 
#    z 0.000000 0.000000 3.745810 
# 
# 
# High freq. dielectric constant tensor:
#      x y z
#    x 1.734750 0.000000 0.000000 
#    y 0.000000 1.777190 0.000000 
#    z 0.000000 0.000000 1.776590 
# 
# From -- ./inp_files/31013.got.cif
#   From: 2010.03.12/outbox.cif.g09.slc.cpg/sg69_16_cif.got.tgz:31013.got - 2010.04.10 23:52:46.
