data_PCOD8284563
_publ_section_title
;
Structure prediction by ZEFSAII (Michael W. Deem and Ramdas Pophale) SiO2 
 PCOD8284563
Probable space group: F M M M
;
_chemical_formula_sum "Si O2"
_cell_formula_units_Z 192
_cell_length_a 16.915133
_cell_length_b 27.551213
_cell_length_c 19.851423
_cell_angle_alpha 90.000000
_cell_angle_beta 90.000000
_cell_angle_gamma 90.000000
_cell_volume 9251.406943
_symmetry_space_group_name_H-M "F M M M"
_symmetry_group_IT_number 69
_symmetry_cell_setting 'orthorhombic'
loop_
_space_group_symop_operation_xyz
x,y,z
-x,-y,z
x,-y,-z
-x,y,-z
-x,-y,-z
x,y,-z
-x,y,z
x,-y,z
x,1/2+y,1/2+z
-x,1/2-y,1/2+z
x,1/2-y,1/2-z
-x,1/2+y,1/2-z
-x,1/2-y,1/2-z
x,1/2+y,1/2-z
-x,1/2+y,1/2+z
x,1/2-y,1/2+z
1/2+x,y,1/2+z
1/2-x,-y,1/2+z
1/2+x,-y,1/2-z
1/2-x,y,1/2-z
1/2-x,-y,1/2-z
1/2+x,y,1/2-z
1/2-x,y,1/2+z
1/2+x,-y,1/2+z
1/2+x,1/2+y,z
1/2-x,1/2-y,z
1/2+x,1/2-y,-z
1/2-x,1/2+y,-z
1/2-x,1/2-y,-z
1/2+x,1/2+y,-z
1/2-x,1/2+y,z
1/2+x,1/2-y,z
loop_
_atom_site_type_symbol
_atom_site_label
_atom_site_fract_x
_atom_site_fract_y
_atom_site_fract_z
Si Si1 0.915929 0.810307 0.500000
Si Si2 0.285621 0.446347 0.576032
Si Si3 0.589801 0.349191 0.228408
Si Si4 0.410941 0.300607 0.000000
Si Si5 0.678820 0.554635 0.198872
Si Si6 0.197335 0.799682 0.130021
Si Si7 0.847863 0.855339 0.371759
O O1 0.933396 0.754564 0.500000
O O2 0.868384 0.820582 0.433021
O O3 0.000000 0.838718 0.500000
O O4 0.262010 0.430865 0.500000
O O5 0.322867 0.500000 0.577300
O O6 0.207476 0.444201 0.621644
O O7 0.354173 0.411396 0.605428
O O8 0.500000 0.340916 0.206922
O O9 0.612980 0.404049 0.207455
O O10 0.639322 0.305108 0.194287
O O11 0.597010 0.343713 0.308838
O O12 0.355916 0.311283 0.064687
O O13 0.500000 0.326707 0.000000
O O14 0.646048 0.500000 0.215026
O O15 0.750000 0.567137 0.250000
O O16 0.250000 0.750000 0.128225
O O17 0.255979 0.844745 0.142624
#
# Coordination Sequence:
#
# PCOD8284563 Si02
#       7
#    16  32  32  16  32  32  32
#     4  11  23  41  62  92 127 159 198 260 324 378
#     4  10  20  35  62  96 123 154 207 260 302 359
#     4  12  26  42  60  94 133 167 209 269 331 374
#     4  11  24  44  66  96 127 159 202 261 326 373
#     4  10  19  37  65  92 124 167 214 258 304 377
#     4  12  24  43  67  93 121 166 215 265 306 378
#     4  12  22  40  66  90 123 168 217 254 306 378
#
# _framework density 20.753601
#
# number of rings (size 3 to 8) (size 9 to 14) (size 15 to 20)
#    0.000    0.833    5.833    2.250    0.000    1.667 
#    0.000    0.833    0.000    2.000    0.000    2.333 
#    0.000    0.000    0.000    0.000    0.000    0.000 
#
# Total GULP energy -594849.251373 kJ/mol
# GULP energy per Si atom -12392.692737 kJ/mol
# Density = 2.070636 g / cm^3
# Si number density = 20.753601 Si / 1000 Ang^3
#
#
#
# Elastic Constant Matrix: (Units=GPa)
#
#
# Indices 1 2 3 4 5 6 
#
# 1 108.0432 24.5948 29.9846 0.0000 0.0000 0.0000
# 2 24.5948 67.9289 18.8273 0.0000 0.0000 0.0000
# 3 29.9846 18.8273 138.3305 0.0000 0.0000 0.0000
# 4 0.0000 0.0000 0.0000 32.3834 0.0000 0.0000
# 5 0.0000 0.0000 0.0000 0.0000 35.7997 0.0000
# 6 0.0000 0.0000 0.0000 0.0000 0.0000 23.6860
#
#
#
# Elastic Compliance Matrix: (Units=1/GPa)
#
#
# Indices 1 2 3 4 5 6 
#
# 1 0.010515 -0.003300 -0.001830 0.000000 0.000000 0.000000
# 2 -0.003300 0.016334 -0.001508 0.000000 0.000000 0.000000
# 3 -0.001830 -0.001508 0.007831 0.000000 0.000000 0.000000
# 4 0.000000 0.000000 0.000000 0.030880 0.000000 0.000000
# 5 0.000000 0.000000 0.000000 0.000000 0.027933 0.000000
# 6 0.000000 0.000000 0.000000 0.000000 0.000000 0.042219
#
#
# Mechanical properties :
#
#
# Convention : Reuss Voigt Hill
#
# Bulk Modulus (GPa) = 46.71987 51.23512 48.97750
# Shear Modulus (GPa) = 32.02627 34.43353 33.22990
#
# Velocity S-wave (km/s) = 3.93258 4.07770 4.00579
# Velocity P-wave (km/s) = 6.57121 6.84917 6.71163
#
# Compressibility (1/GPa) = 0.02140417
#
# Stress axis : x y z
#
# Youngs Moduli (GPa) = 95.10587 61.22227 127.69809
#
# Poissons Ratio (x) = 0.20202 0.23369
# Poissons Ratio (y) = 0.31383 0.19255
# Poissons Ratio (z) = 0.17405 0.09231
#
# Static dielectric constant tensor:
#      x y z
#    x 3.614490 0.000000 0.000000 
#    y 0.000000 3.891330 0.000000 
#    z 0.000000 0.000000 4.140710 
# 
# 
# High freq. dielectric constant tensor:
#      x y z
#    x 1.783990 0.000000 0.000000 
#    y 0.000000 1.817560 0.000000 
#    z 0.000000 0.000000 1.829910 
# 
# From -- ./inp_files/23729.got.cif
#   From: 2010.03.12/outbox.cif.g09.slc.cpg/sg69_12_cif.got.tgz:23729.got - 2010.04.10 23:52:46.
