data_PCOD8284928
_publ_section_title
;
Structure prediction by ZEFSAII (Michael W. Deem and Ramdas Pophale) SiO2 
 PCOD8284928
Probable space group: F M M M
;
_chemical_formula_sum "Si O2"
_cell_formula_units_Z 128
_cell_length_a 31.377245
_cell_length_b 9.681330
_cell_length_c 22.219061
_cell_angle_alpha 90.000000
_cell_angle_beta 90.000000
_cell_angle_gamma 90.000000
_cell_volume 6749.561112
_symmetry_space_group_name_H-M "F M M M"
_symmetry_group_IT_number 69
_symmetry_cell_setting 'orthorhombic'
loop_
_space_group_symop_operation_xyz
x,y,z
-x,-y,z
x,-y,-z
-x,y,-z
-x,-y,-z
x,y,-z
-x,y,z
x,-y,z
x,1/2+y,1/2+z
-x,1/2-y,1/2+z
x,1/2-y,1/2-z
-x,1/2+y,1/2-z
-x,1/2-y,1/2-z
x,1/2+y,1/2-z
-x,1/2+y,1/2+z
x,1/2-y,1/2+z
1/2+x,y,1/2+z
1/2-x,-y,1/2+z
1/2+x,-y,1/2-z
1/2-x,y,1/2-z
1/2-x,-y,1/2-z
1/2+x,y,1/2-z
1/2-x,y,1/2+z
1/2+x,-y,1/2+z
1/2+x,1/2+y,z
1/2-x,1/2-y,z
1/2+x,1/2-y,-z
1/2-x,1/2+y,-z
1/2-x,1/2-y,-z
1/2+x,1/2+y,-z
1/2-x,1/2+y,z
1/2+x,1/2-y,z
loop_
_atom_site_type_symbol
_atom_site_label
_atom_site_fract_x
_atom_site_fract_y
_atom_site_fract_z
Si Si1 0.165964 0.253973 0.118073
Si Si2 0.709711 0.346772 0.500000
Si Si3 0.078495 0.341623 0.429951
Si Si4 0.787998 0.000000 0.831197
Si Si5 0.000000 0.343209 0.071378
Si Si6 0.811021 0.500000 0.196239
O O1 0.179721 0.328436 0.057315
O O2 0.119479 0.188435 0.110714
O O3 0.199943 0.135039 0.131622
O O4 0.165114 0.363965 0.172308
O O5 0.728620 0.500000 0.500000
O O6 0.750000 0.250000 0.500000
O O7 0.089179 0.315080 0.500000
O O8 0.063934 0.500000 0.420414
O O9 0.041572 0.239534 0.406449
O O10 0.813040 0.000000 0.768131
O O11 0.737578 0.000000 0.825210
O O12 0.000000 0.500000 0.097336
O O13 0.000000 0.346944 0.000000
#
# Coordination Sequence:
#
# PCOD8284928 Si02
#       6
#    32  16  32  16  16  16
#     4  12  23  38  60  88 120 158 200 248 302 361
#     4  12  26  38  56  85 122 161 196 242 309 372
#     4  10  20  36  55  85 123 160 193 234 295 371
#     4  11  24  43  61  82 115 161 216 257 302 338
#     4   9  19  33  57  85 118 155 192 238 292 355
#     4  11  24  41  61  84 115 161 212 267 294 336
#
# _framework density 18.964195
#
# number of rings (size 3 to 8) (size 9 to 14) (size 15 to 20)
#    0.000    1.125    3.750    3.375    3.500    3.500 
#    0.000    0.000    0.000    0.000    0.000    5.250 
#    0.000    0.000    0.000    0.000    0.000    0.000 
#
# Total GULP energy -396966.655626 kJ/mol
# GULP energy per Si atom -12405.207988 kJ/mol
# Density = 1.892103 g / cm^3
# Si number density = 18.964195 Si / 1000 Ang^3
#
#
#
# Elastic Constant Matrix: (Units=GPa)
#
#
# Indices 1 2 3 4 5 6 
#
# 1 88.0126 38.3645 14.7812 0.0000 0.0000 0.0000
# 2 38.3645 149.1448 25.1298 0.0000 0.0000 0.0000
# 3 14.7812 25.1298 63.8532 0.0000 0.0000 0.0000
# 4 0.0000 0.0000 0.0000 34.3193 0.0000 0.0000
# 5 0.0000 0.0000 0.0000 0.0000 15.9977 0.0000
# 6 0.0000 0.0000 0.0000 0.0000 0.0000 40.2756
#
#
#
# Elastic Compliance Matrix: (Units=1/GPa)
#
#
# Indices 1 2 3 4 5 6 
#
# 1 0.012990 -0.003036 -0.001812 0.000000 0.000000 0.000000
# 2 -0.003036 0.007891 -0.002403 0.000000 0.000000 0.000000
# 3 -0.001812 -0.002403 0.017026 0.000000 0.000000 0.000000
# 4 0.000000 0.000000 0.000000 0.029138 0.000000 0.000000
# 5 0.000000 0.000000 0.000000 0.000000 0.062509 0.000000
# 6 0.000000 0.000000 0.000000 0.000000 0.000000 0.024829
#
#
# Mechanical properties :
#
#
# Convention : Reuss Voigt Hill
#
# Bulk Modulus (GPa) = 42.72615 50.84016 46.78316
# Shear Modulus (GPa) = 28.29886 32.96753 30.63320
#
# Velocity S-wave (km/s) = 3.86712 4.17395 4.02346
# Velocity P-wave (km/s) = 6.52061 7.07784 6.80493
#
# Compressibility (1/GPa) = 0.02340487
#
# Stress axis : x y z
#
# Youngs Moduli (GPa) = 76.98387 126.73199 58.73381
#
# Poissons Ratio (x) = 0.38476 0.10643
# Poissons Ratio (y) = 0.23372 0.14111
# Poissons Ratio (z) = 0.13950 0.30449
#
# Static dielectric constant tensor:
#      x y z
#    x 3.345410 0.000000 0.000000 
#    y 0.000000 3.749180 0.000000 
#    z 0.000000 0.000000 3.369390 
# 
# 
# High freq. dielectric constant tensor:
#      x y z
#    x 1.726950 0.000000 0.000000 
#    y 0.000000 1.760280 0.000000 
#    z 0.000000 0.000000 1.709210 
# 
# From -- ./inp_files/43770.got.cif
#   From: 2010.03.12/outbox.cif.g09.slc.cpg/sg69_22_cif.got.tgz:43770.got - 2010.04.10 23:52:46.
