data_PCOD8284954
_publ_section_title
;
Structure prediction by ZEFSAII (Michael W. Deem and Ramdas Pophale) SiO2 
 PCOD8284954
Probable space group: F M M M
;
_chemical_formula_sum "Si O2"
_cell_formula_units_Z 208
_cell_length_a 19.833396
_cell_length_b 31.128020
_cell_length_c 17.695927
_cell_angle_alpha 90.000000
_cell_angle_beta 90.000000
_cell_angle_gamma 90.000000
_cell_volume 10925.011382
_symmetry_space_group_name_H-M "F M M M"
_symmetry_group_IT_number 69
_symmetry_cell_setting 'orthorhombic'
loop_
_space_group_symop_operation_xyz
x,y,z
-x,-y,z
x,-y,-z
-x,y,-z
-x,-y,-z
x,y,-z
-x,y,z
x,-y,z
x,1/2+y,1/2+z
-x,1/2-y,1/2+z
x,1/2-y,1/2-z
-x,1/2+y,1/2-z
-x,1/2-y,1/2-z
x,1/2+y,1/2-z
-x,1/2+y,1/2+z
x,1/2-y,1/2+z
1/2+x,y,1/2+z
1/2-x,-y,1/2+z
1/2+x,-y,1/2-z
1/2-x,y,1/2-z
1/2-x,-y,1/2-z
1/2+x,y,1/2-z
1/2-x,y,1/2+z
1/2+x,-y,1/2+z
1/2+x,1/2+y,z
1/2-x,1/2-y,z
1/2+x,1/2-y,-z
1/2-x,1/2+y,-z
1/2-x,1/2-y,-z
1/2+x,1/2+y,-z
1/2-x,1/2+y,z
1/2+x,1/2-y,z
loop_
_atom_site_type_symbol
_atom_site_label
_atom_site_fract_x
_atom_site_fract_y
_atom_site_fract_z
Si Si1 0.926474 0.000000 0.090014
Si Si2 0.696517 0.713887 0.411828
Si Si3 0.923082 0.149537 0.816605
Si Si4 0.575332 0.754545 0.665171
Si Si5 0.346882 0.580580 0.911493
Si Si6 0.219189 0.952161 0.668140
Si Si7 0.684180 0.636536 0.302800
O O1 0.890653 0.041776 0.121523
O O2 0.000000 0.000000 0.125085
O O3 0.926156 0.000000 0.000000
O O4 0.706295 0.704930 0.500000
O O5 0.750000 0.750000 0.383318
O O6 0.621589 0.730743 0.395424
O O7 0.706283 0.668403 0.370073
O O8 0.927279 0.195530 0.856502
O O9 0.875192 0.122130 0.870463
O O10 0.884001 0.153877 0.736594
O O11 0.000000 0.131650 0.806097
O O12 0.500000 0.734305 0.661720
O O13 0.604808 0.750000 0.750000
O O14 0.271149 0.567795 0.892196
O O15 0.355160 0.587954 0.000000
O O16 0.250000 0.959251 0.750000
O O17 0.165241 0.912764 0.671279
O O18 0.192456 0.000000 0.641468
O O19 0.750000 0.633548 0.250000
#
# Coordination Sequence:
#
# PCOD8284954 Si02
#       7
#    16  32  32  32  32  32  32
#     4   9  18  32  49  74 114 156 185 220 279 344
#     4  11  25  39  58  91 122 150 194 248 297 346
#     4  11  22  37  59  87 117 154 197 235 281 349
#     4  10  21  39  63  85 113 155 195 233 286 351
#     4  11  21  35  55  82 118 155 190 233 288 346
#     4  10  20  36  58  81 109 151 200 242 285 340
#     4  11  21  39  61  83 113 160 196 240 296 348
#
# _framework density 19.038882000000001
#
# number of rings (size 3 to 8) (size 9 to 14) (size 15 to 20)
#    0.000    1.462    5.385    1.385    0.000    2.462 
#    0.000    1.538    0.000    0.000    0.000    0.000 
#    0.000    0.000    0.000    4.154    0.000    0.000 
#
# Total GULP energy -644364.699966 kJ/mol
# GULP energy per Si atom -12391.628846 kJ/mol
# Density = 1.899555 g / cm^3
# Si number density = 19.038882 Si / 1000 Ang^3
#
#
#
# Elastic Constant Matrix: (Units=GPa)
#
#
# Indices 1 2 3 4 5 6 
#
# 1 64.8483 17.5101 16.2474 0.0000 0.0000 0.0000
# 2 17.5101 132.1315 34.5955 0.0000 0.0000 0.0000
# 3 16.2474 34.5955 66.0672 0.0000 0.0000 0.0000
# 4 0.0000 0.0000 0.0000 6.5391 0.0000 0.0000
# 5 0.0000 0.0000 0.0000 0.0000 19.3962 0.0000
# 6 0.0000 0.0000 0.0000 0.0000 0.0000 16.7240
#
#
#
# Elastic Compliance Matrix: (Units=1/GPa)
#
#
# Indices 1 2 3 4 5 6 
#
# 1 0.016627 -0.001313 -0.003402 0.000000 0.000000 0.000000
# 2 -0.001313 0.008874 -0.004324 0.000000 0.000000 0.000000
# 3 -0.003402 -0.004324 0.018237 0.000000 0.000000 0.000000
# 4 0.000000 0.000000 0.000000 0.152926 0.000000 0.000000
# 5 0.000000 0.000000 0.000000 0.000000 0.051557 0.000000
# 6 0.000000 0.000000 0.000000 0.000000 0.000000 0.059794
#
#
# Mechanical properties :
#
#
# Convention : Reuss Voigt Hill
#
# Bulk Modulus (GPa) = 38.96881 44.41701 41.69291
# Shear Modulus (GPa) = 14.94115 21.51146 18.22631
#
# Velocity S-wave (km/s) = 2.80441 3.36500 3.09742
# Velocity P-wave (km/s) = 5.56765 6.20306 5.89392
#
# Compressibility (1/GPa) = 0.02566155
#
# Stress axis : x y z
#
# Youngs Moduli (GPa) = 60.14189 112.68412 54.83387
#
# Poissons Ratio (x) = 0.14794 0.18652
# Poissons Ratio (y) = 0.07896 0.23711
# Poissons Ratio (z) = 0.20458 0.48726
#
# Static dielectric constant tensor:
#      x y z
#    x 3.479910 0.000000 0.000000 
#    y 0.000000 3.870410 0.000000 
#    z 0.000000 0.000000 3.257600 
# 
# 
# High freq. dielectric constant tensor:
#      x y z
#    x 1.721100 0.000000 0.000000 
#    y 0.000000 1.762530 0.000000 
#    z 0.000000 0.000000 1.714260 
# 
# From -- ./inp_files/25202.got.cif
#   From: 2010.03.12/outbox.cif.g09.slc.cpg/sg69_13_cif.got.tgz:25202.got - 2010.04.10 23:52:46.
