data_PCOD8284905
_publ_section_title
;
Structure prediction by ZEFSAII (Michael W. Deem and Ramdas Pophale) SiO2 
 PCOD8284905
Probable space group: F M M M
;
_chemical_formula_sum "Si O2"
_cell_formula_units_Z 192
_cell_length_a 17.106145
_cell_length_b 30.990827
_cell_length_c 19.597158
_cell_angle_alpha 90.000000
_cell_angle_beta 90.000000
_cell_angle_gamma 90.000000
_cell_volume 10389.111535
_symmetry_space_group_name_H-M "F M M M"
_symmetry_group_IT_number 69
_symmetry_cell_setting 'orthorhombic'
loop_
_space_group_symop_operation_xyz
x,y,z
-x,-y,z
x,-y,-z
-x,y,-z
-x,-y,-z
x,y,-z
-x,y,z
x,-y,z
x,1/2+y,1/2+z
-x,1/2-y,1/2+z
x,1/2-y,1/2-z
-x,1/2+y,1/2-z
-x,1/2-y,1/2-z
x,1/2+y,1/2-z
-x,1/2+y,1/2+z
x,1/2-y,1/2+z
1/2+x,y,1/2+z
1/2-x,-y,1/2+z
1/2+x,-y,1/2-z
1/2-x,y,1/2-z
1/2-x,-y,1/2-z
1/2+x,y,1/2-z
1/2-x,y,1/2+z
1/2+x,-y,1/2+z
1/2+x,1/2+y,z
1/2-x,1/2-y,z
1/2+x,1/2-y,-z
1/2-x,1/2+y,-z
1/2-x,1/2-y,-z
1/2+x,1/2+y,-z
1/2-x,1/2+y,z
1/2+x,1/2-y,z
loop_
_atom_site_type_symbol
_atom_site_label
_atom_site_fract_x
_atom_site_fract_y
_atom_site_fract_z
Si Si1 0.841806 0.500000 0.764813
Si Si2 0.907728 0.911805 0.315592
Si Si3 0.086791 0.647733 0.310702
Si Si4 0.141685 0.590698 0.575519
Si Si5 0.694679 0.368286 0.579616
Si Si6 0.766704 0.700053 0.673395
Si Si7 0.908346 0.000000 0.116607
O O1 0.750000 0.500000 0.750000
O O2 0.863781 0.457216 0.806748
O O3 0.892938 0.500000 0.696775
O O4 0.883697 0.878136 0.256039
O O5 0.880686 0.891194 0.387334
O O6 0.000000 0.919832 0.316912
O O7 0.083403 0.613361 0.371898
O O8 0.141915 0.687355 0.334444
O O9 0.000000 0.666553 0.298533
O O10 0.120436 0.607328 0.500000
O O11 0.231624 0.600821 0.592476
O O12 0.131928 0.539922 0.580004
O O13 0.678074 0.359218 0.500000
O O14 0.712121 0.323375 0.618151
O O15 0.750000 0.685035 0.750000
O O16 0.750000 0.750000 0.662019
O O17 0.000000 0.000000 0.102557
#
# Coordination Sequence:
#
# PCOD8284905 Si02
#       7
#    16  32  32  32  32  32  16
#     4  12  24  35  58  85 114 156 201 254 290 331
#     4  11  22  38  58  85 117 153 197 244 291 340
#     4  10  20  35  58  84 117 152 190 234 287 352
#     4  10  21  34  52  80 116 155 192 235 290 349
#     4  10  22  40  61  84 112 153 201 241 286 345
#     4  10  20  37  62  89 119 149 187 238 295 358
#     4  12  21  32  50  79 117 149 188 236 289 346
#
# _framework density 18.480886999999999
#
# number of rings (size 3 to 8) (size 9 to 14) (size 15 to 20)
#    0.000    1.500    3.333    2.500    2.333    2.333 
#    0.000    3.750    0.000    1.000    0.000    0.000 
#    0.000    0.000    0.000    0.000    0.000    0.000 
#
# Total GULP energy -595194.741923 kJ/mol
# GULP energy per Si atom -12399.890457 kJ/mol
# Density = 1.843882 g / cm^3
# Si number density = 18.480887 Si / 1000 Ang^3
#
#
#
# Elastic Constant Matrix: (Units=GPa)
#
#
# Indices 1 2 3 4 5 6 
#
# 1 83.4105 61.7344 31.9042 0.0000 0.0000 0.0000
# 2 61.7344 121.1978 43.7584 0.0000 0.0000 0.0000
# 3 31.9042 43.7584 125.2368 0.0000 0.0000 0.0000
# 4 0.0000 0.0000 0.0000 69.7795 0.0000 0.0000
# 5 0.0000 0.0000 0.0000 0.0000 22.0731 0.0000
# 6 0.0000 0.0000 0.0000 0.0000 0.0000 17.8016
#
#
#
# Elastic Compliance Matrix: (Units=1/GPa)
#
#
# Indices 1 2 3 4 5 6 
#
# 1 0.019562 -0.009344 -0.001719 0.000000 0.000000 0.000000
# 2 -0.009344 0.013905 -0.002478 0.000000 0.000000 0.000000
# 3 -0.001719 -0.002478 0.009289 0.000000 0.000000 0.000000
# 4 0.000000 0.000000 0.000000 0.014331 0.000000 0.000000
# 5 0.000000 0.000000 0.000000 0.000000 0.045304 0.000000
# 6 0.000000 0.000000 0.000000 0.000000 0.000000 0.056175
#
#
# Mechanical properties :
#
#
# Convention : Reuss Voigt Hill
#
# Bulk Modulus (GPa) = 63.79813 67.18211 65.49012
# Shear Modulus (GPa) = 26.19575 34.76073 30.47824
#
# Velocity S-wave (km/s) = 3.76899 4.34164 4.06541
# Velocity P-wave (km/s) = 7.31686 7.84629 7.58620
#
# Compressibility (1/GPa) = 0.01567444
#
# Stress axis : x y z
#
# Youngs Moduli (GPa) = 51.12022 71.91618 107.65875
#
# Poissons Ratio (x) = 0.67196 0.18503
# Poissons Ratio (y) = 0.47765 0.26680
# Poissons Ratio (z) = 0.08786 0.17822
#
# Static dielectric constant tensor:
#      x y z
#    x 3.314710 0.000000 0.000000 
#    y 0.000000 3.161410 0.000000 
#    z 0.000000 0.000000 3.496970 
# 
# 
# High freq. dielectric constant tensor:
#      x y z
#    x 1.716790 0.000000 0.000000 
#    y 0.000000 1.706780 0.000000 
#    z 0.000000 0.000000 1.719240 
# 
# From -- ./inp_files/23740.got.cif
#   From: 2010.03.12/outbox.cif.g09.slc.cpg/sg69_12_cif.got.tgz:23740.got - 2010.04.10 23:52:46.
