data_PCOD8284079
_publ_section_title
;
Structure prediction by ZEFSAII (Michael W. Deem and Ramdas Pophale) SiO2 
 PCOD8284079
Probable space group: F M M M
;
_chemical_formula_sum "Si O2"
_cell_formula_units_Z 192
_cell_length_a 18.155940
_cell_length_b 27.363360
_cell_length_c 20.188227
_cell_angle_alpha 90.000000
_cell_angle_beta 90.000000
_cell_angle_gamma 90.000000
_cell_volume 10029.663037
_symmetry_space_group_name_H-M "F M M M"
_symmetry_group_IT_number 69
_symmetry_cell_setting 'orthorhombic'
loop_
_space_group_symop_operation_xyz
x,y,z
-x,-y,z
x,-y,-z
-x,y,-z
-x,-y,-z
x,y,-z
-x,y,z
x,-y,z
x,1/2+y,1/2+z
-x,1/2-y,1/2+z
x,1/2-y,1/2-z
-x,1/2+y,1/2-z
-x,1/2-y,1/2-z
x,1/2+y,1/2-z
-x,1/2+y,1/2+z
x,1/2-y,1/2+z
1/2+x,y,1/2+z
1/2-x,-y,1/2+z
1/2+x,-y,1/2-z
1/2-x,y,1/2-z
1/2-x,-y,1/2-z
1/2+x,y,1/2-z
1/2-x,y,1/2+z
1/2+x,-y,1/2+z
1/2+x,1/2+y,z
1/2-x,1/2-y,z
1/2+x,1/2-y,-z
1/2-x,1/2+y,-z
1/2-x,1/2-y,-z
1/2+x,1/2+y,-z
1/2-x,1/2+y,z
1/2+x,1/2-y,z
loop_
_atom_site_type_symbol
_atom_site_label
_atom_site_fract_x
_atom_site_fract_y
_atom_site_fract_z
Si Si1 0.168705 0.726168 0.000000
Si Si2 0.162892 0.696553 0.249505
Si Si3 0.660450 0.365680 0.872619
Si Si4 0.413850 0.173034 0.500000
Si Si5 0.827741 0.444905 0.725605
Si Si6 0.586444 0.555367 0.358544
Si Si7 0.668541 0.851226 0.113509
O O1 0.250000 0.750000 0.000000
O O2 0.150712 0.692521 0.936858
O O3 0.114139 0.771641 0.000000
O O4 0.126276 0.750000 0.250000
O O5 0.250000 0.701226 0.250000
O O6 0.134515 0.671832 0.316230
O O7 0.139197 0.665465 0.185455
O O8 0.646125 0.419122 0.841781
O O9 0.745017 0.359475 0.892221
O O10 0.611666 0.357656 0.936675
O O11 0.500000 0.175472 0.500000
O O12 0.811438 0.500000 0.704945
O O13 0.750000 0.420395 0.750000
O O14 0.888633 0.440110 0.782311
O O15 0.500000 0.565158 0.362810
O O16 0.605170 0.500000 0.384131
O O17 0.627724 0.596975 0.402493
#
# Coordination Sequence:
#
# PCOD8284079 Si02
#       7
#    16  32  32  16  32  32  32
#     4  12  24  42  67  90 122 169 215 255 314 395
#     4   9  17  28  53  86 117 146 201 266 309 352
#     4  11  19  37  59  89 120 165 212 261 310 367
#     4  12  28  44  61  88 130 173 208 258 322 381
#     4  10  18  33  62  96 125 158 208 262 313 376
#     4  10  21  37  59  93 133 164 200 264 338 386
#     4  11  20  36  63  92 119 163 215 261 313 383
#
# _framework density 19.143215999999999
#
# number of rings (size 3 to 8) (size 9 to 14) (size 15 to 20)
#    0.000    1.500    5.000    1.500    2.333    1.333 
#    0.000    0.833    0.000    5.500    0.000    0.000 
#    0.000    0.000    0.000    0.000    0.000    0.000 
#
# Total GULP energy -595040.112700 kJ/mol
# GULP energy per Si atom -12396.669015 kJ/mol
# Density = 1.909965 g / cm^3
# Si number density = 19.143216 Si / 1000 Ang^3
#
#
#
# Elastic Constant Matrix: (Units=GPa)
#
#
# Indices 1 2 3 4 5 6 
#
# 1 91.8486 48.8273 40.6458 0.0000 0.0000 0.0000
# 2 48.8273 146.0990 54.2170 0.0000 0.0000 0.0000
# 3 40.6458 54.2170 109.4751 0.0000 0.0000 0.0000
# 4 0.0000 0.0000 0.0000 66.1093 0.0000 0.0000
# 5 0.0000 0.0000 0.0000 0.0000 18.0326 0.0000
# 6 0.0000 0.0000 0.0000 0.0000 0.0000 21.6868
#
#
#
# Elastic Compliance Matrix: (Units=1/GPa)
#
#
# Indices 1 2 3 4 5 6 
#
# 1 0.014316 -0.003445 -0.003609 0.000000 0.000000 0.000000
# 2 -0.003445 0.009215 -0.003285 0.000000 0.000000 0.000000
# 3 -0.003609 -0.003285 0.012101 0.000000 0.000000 0.000000
# 4 0.000000 0.000000 0.000000 0.015126 0.000000 0.000000
# 5 0.000000 0.000000 0.000000 0.000000 0.055455 0.000000
# 6 0.000000 0.000000 0.000000 0.000000 0.000000 0.046111
#
#
# Mechanical properties :
#
#
# Convention : Reuss Voigt Hill
#
# Bulk Modulus (GPa) = 66.86914 70.53368 68.70141
# Shear Modulus (GPa) = 28.09192 34.74792 31.41992
#
# Velocity S-wave (km/s) = 3.83490 4.26509 4.05570
# Velocity P-wave (km/s) = 7.39023 7.82176 7.60905
#
# Compressibility (1/GPa) = 0.01495458
#
# Stress axis : x y z
#
# Youngs Moduli (GPa) = 69.85144 108.51900 82.63707
#
# Poissons Ratio (x) = 0.37387 0.29824
# Poissons Ratio (y) = 0.24065 0.27142
# Poissons Ratio (z) = 0.25210 0.35643
#
# Static dielectric constant tensor:
#      x y z
#    x 3.229430 0.000000 0.000000 
#    y 0.000000 3.944030 0.000000 
#    z 0.000000 0.000000 3.591980 
# 
# 
# High freq. dielectric constant tensor:
#      x y z
#    x 1.711210 0.000000 0.000000 
#    y 0.000000 1.767490 0.000000 
#    z 0.000000 0.000000 1.729670 
# 
# From -- ./inp_files/23754.got.cif
#   From: 2010.03.12/outbox.cif.g09.slc.cpg/sg69_12_cif.got.tgz:23754.got - 2010.04.10 23:52:46.
