data_PCOD8284403
_publ_section_title
;
Structure prediction by ZEFSAII (Michael W. Deem and Ramdas Pophale) SiO2 
 PCOD8284403
Probable space group: F M M M
;
_chemical_formula_sum "Si O2"
_cell_formula_units_Z 208
_cell_length_a 17.626626
_cell_length_b 27.133116
_cell_length_c 24.447789
_cell_angle_alpha 90.000000
_cell_angle_beta 90.000000
_cell_angle_gamma 90.000000
_cell_volume 11692.528846
_symmetry_space_group_name_H-M "F M M M"
_symmetry_group_IT_number 69
_symmetry_cell_setting 'orthorhombic'
loop_
_space_group_symop_operation_xyz
x,y,z
-x,-y,z
x,-y,-z
-x,y,-z
-x,-y,-z
x,y,-z
-x,y,z
x,-y,z
x,1/2+y,1/2+z
-x,1/2-y,1/2+z
x,1/2-y,1/2-z
-x,1/2+y,1/2-z
-x,1/2-y,1/2-z
x,1/2+y,1/2-z
-x,1/2+y,1/2+z
x,1/2-y,1/2+z
1/2+x,y,1/2+z
1/2-x,-y,1/2+z
1/2+x,-y,1/2-z
1/2-x,y,1/2-z
1/2-x,-y,1/2-z
1/2+x,y,1/2-z
1/2-x,y,1/2+z
1/2+x,-y,1/2+z
1/2+x,1/2+y,z
1/2-x,1/2-y,z
1/2+x,1/2-y,-z
1/2-x,1/2+y,-z
1/2-x,1/2-y,-z
1/2+x,1/2+y,-z
1/2-x,1/2+y,z
1/2+x,1/2-y,z
loop_
_atom_site_type_symbol
_atom_site_label
_atom_site_fract_x
_atom_site_fract_y
_atom_site_fract_z
Si Si1 0.915810 0.780296 0.695973
Si Si2 0.581138 0.851432 0.436209
Si Si3 0.657140 0.053352 0.562990
Si Si4 0.207711 0.138611 0.694545
Si Si5 0.689623 0.287703 0.125342
Si Si6 0.912585 0.058390 0.500000
Si Si7 0.677076 0.944073 0.108149
O O1 0.927331 0.750000 0.750000
O O2 0.865632 0.828479 0.708360
O O3 0.873958 0.743586 0.655390
O O4 0.000000 0.795341 0.673620
O O5 0.571151 0.855324 0.500000
O O6 0.500000 0.835861 0.409847
O O7 0.601909 0.905331 0.412206
O O8 0.648120 0.813723 0.424598
O O9 0.675591 0.064324 0.500000
O O10 0.735573 0.054247 0.593979
O O11 0.617701 0.000000 0.570426
O O12 0.250000 0.120102 0.750000
O O13 0.269496 0.171700 0.662866
O O14 0.173161 0.092846 0.659900
O O15 0.750000 0.250000 0.099788
O O16 0.871398 0.076907 0.556034
O O17 0.000000 0.076827 0.500000
O O18 0.907033 0.000000 0.500000
O O19 0.649482 0.000000 0.123651
#
# Coordination Sequence:
#
# PCOD8284403 Si02
#       7
#    32  32  32  32  32  16  32
#     4  10  20  35  57  79 101 132 180 234 279 320
#     4  10  20  33  51  77 108 140 175 215 270 333
#     4   9  16  29  50  76 104 134 178 220 257 308
#     4  11  21  35  55  82 112 141 183 228 273 331
#     4  10  20  34  55  78 101 137 178 229 272 320
#     4   9  18  34  58  86 112 145 191 239 280 322
#     4  10  19  33  56  83 112 149 184 223 271 327
#
# _framework density 17.789138000000001
#
# number of rings (size 3 to 8) (size 9 to 14) (size 15 to 20)
#    0.000    2.077    3.846    0.462    0.000    1.538 
#    0.000    1.538    1.692    0.000    0.000    0.000 
#    0.000    0.000    0.000    0.000    0.000    0.000 
#
# Total GULP energy -644258.439522 kJ/mol
# GULP energy per Si atom -12389.585375 kJ/mol
# Density = 1.774865 g / cm^3
# Si number density = 17.789138 Si / 1000 Ang^3
#
#
#
# Elastic Constant Matrix: (Units=GPa)
#
#
# Indices 1 2 3 4 5 6 
#
# 1 119.5726 49.0433 36.2604 0.0000 0.0000 0.0000
# 2 49.0433 100.2095 46.3846 0.0000 0.0000 0.0000
# 3 36.2604 46.3846 53.1863 0.0000 0.0000 0.0000
# 4 0.0000 0.0000 0.0000 28.3840 0.0000 0.0000
# 5 0.0000 0.0000 0.0000 0.0000 18.8167 0.0000
# 6 0.0000 0.0000 0.0000 0.0000 0.0000 19.5532
#
#
#
# Elastic Compliance Matrix: (Units=1/GPa)
#
#
# Indices 1 2 3 4 5 6 
#
# 1 0.011139 -0.003247 -0.004762 0.000000 0.000000 0.000000
# 2 -0.003247 0.017681 -0.013206 0.000000 0.000000 0.000000
# 3 -0.004762 -0.013206 0.033566 0.000000 0.000000 0.000000
# 4 0.000000 0.000000 0.000000 0.035231 0.000000 0.000000
# 5 0.000000 0.000000 0.000000 0.000000 0.053144 0.000000
# 6 0.000000 0.000000 0.000000 0.000000 0.000000 0.051142
#
#
# Mechanical properties :
#
#
# Convention : Reuss Voigt Hill
#
# Bulk Modulus (GPa) = 50.11325 59.59389 54.85357
# Shear Modulus (GPa) = 19.92136 22.76945 21.34540
#
# Velocity S-wave (km/s) = 3.35006 3.58154 3.46773
# Velocity P-wave (km/s) = 6.57235 7.11872 6.85098
#
# Compressibility (1/GPa) = 0.01995480
#
# Stress axis : x y z
#
# Youngs Moduli (GPa) = 89.77341 56.55751 29.79220
#
# Poissons Ratio (x) = 0.18366 0.14188
# Poissons Ratio (y) = 0.29152 0.39344
# Poissons Ratio (z) = 0.42753 0.74691
#
# Static dielectric constant tensor:
#      x y z
#    x 3.657900 0.000000 0.000000 
#    y 0.000000 3.515640 0.000000 
#    z 0.000000 0.000000 2.927770 
# 
# 
# High freq. dielectric constant tensor:
#      x y z
#    x 1.697730 0.000000 0.000000 
#    y 0.000000 1.683260 0.000000 
#    z 0.000000 0.000000 1.660350 
# 
# From -- ./inp_files/25195.got.cif
#   From: 2010.03.12/outbox.cif.g09.slc.cpg/sg69_13_cif.got.tgz:25195.got - 2010.04.10 23:52:46.
