data_PCOD8284941
_publ_section_title
;
Structure prediction by ZEFSAII (Michael W. Deem and Ramdas Pophale) SiO2 
 PCOD8284941
Probable space group: F M M M
;
_chemical_formula_sum "Si O2"
_cell_formula_units_Z 176
_cell_length_a 20.267923
_cell_length_b 18.766058
_cell_length_c 24.869423
_cell_angle_alpha 90.000000
_cell_angle_beta 90.000000
_cell_angle_gamma 90.000000
_cell_volume 9459.060630
_symmetry_space_group_name_H-M "F M M M"
_symmetry_group_IT_number 69
_symmetry_cell_setting 'orthorhombic'
loop_
_space_group_symop_operation_xyz
x,y,z
-x,-y,z
x,-y,-z
-x,y,-z
-x,-y,-z
x,y,-z
-x,y,z
x,-y,z
x,1/2+y,1/2+z
-x,1/2-y,1/2+z
x,1/2-y,1/2-z
-x,1/2+y,1/2-z
-x,1/2-y,1/2-z
x,1/2+y,1/2-z
-x,1/2+y,1/2+z
x,1/2-y,1/2+z
1/2+x,y,1/2+z
1/2-x,-y,1/2+z
1/2+x,-y,1/2-z
1/2-x,y,1/2-z
1/2-x,-y,1/2-z
1/2+x,y,1/2-z
1/2-x,y,1/2+z
1/2+x,-y,1/2+z
1/2+x,1/2+y,z
1/2-x,1/2-y,z
1/2+x,1/2-y,-z
1/2-x,1/2+y,-z
1/2-x,1/2-y,-z
1/2+x,1/2+y,-z
1/2-x,1/2+y,z
1/2+x,1/2-y,z
loop_
_atom_site_type_symbol
_atom_site_label
_atom_site_fract_x
_atom_site_fract_y
_atom_site_fract_z
Si Si1 0.075546 0.671816 0.773164
Si Si2 0.075554 0.226856 0.615641
Si Si3 0.813093 0.916137 0.218057
Si Si4 0.577767 0.000000 0.561308
Si Si5 0.843368 0.629937 0.604332
Si Si6 0.798259 0.317082 0.500000
Si Si7 0.073727 0.768081 0.500000
O O1 0.088069 0.750000 0.750000
O O2 0.094945 0.672444 0.836827
O O3 0.120070 0.615797 0.742167
O O4 0.000000 0.647907 0.764842
O O5 0.120855 0.296209 0.617859
O O6 0.083800 0.188560 0.556313
O O7 0.000000 0.251199 0.625104
O O8 0.750000 0.886276 0.250000
O O9 0.802324 0.893736 0.156345
O O10 0.819110 0.000000 0.224020
O O11 0.603214 0.070169 0.590994
O O12 0.500000 0.000000 0.565059
O O13 0.602910 0.000000 0.500000
O O14 0.789950 0.638351 0.555262
O O15 0.750000 0.250000 0.500000
O O16 0.875952 0.297393 0.500000
O O17 0.000000 0.734712 0.500000
#
# Coordination Sequence:
#
# PCOD8284941 Si02
#       7
#    32  32  32  16  32  16  16
#     4  10  20  36  57  83 112 144 186 237 293 351
#     4   9  17  31  52  81 113 143 178 229 284 340
#     4  11  25  41  56  79 112 153 199 242 289 351
#     4  11  22  34  57  92 124 160 191 221 285 368
#     4  11  20  37  56  79 116 152 190 235 282 343
#     4  10  22  35  52  82 115 149 189 232 278 341
#     4   8  16  30  51  76 108 140 173 222 281 334
#
# _framework density 18.606498999999999
#
# number of rings (size 3 to 8) (size 9 to 14) (size 15 to 20)
#    0.000    1.909    3.636    0.545    0.000    5.091 
#    0.000    0.000    0.000    0.000    0.000    0.636 
#    0.000    3.636    0.000    0.091    0.000    0.000 
#
# Total GULP energy -545303.329915 kJ/mol
# GULP energy per Si atom -12393.257498 kJ/mol
# Density = 1.856415 g / cm^3
# Si number density = 18.606499 Si / 1000 Ang^3
#
#
#
# Elastic Constant Matrix: (Units=GPa)
#
#
# Indices 1 2 3 4 5 6 
#
# 1 75.5218 32.8940 50.2205 0.0000 0.0000 0.0000
# 2 32.8940 51.7660 35.9948 0.0000 0.0000 0.0000
# 3 50.2205 35.9948 175.8336 0.0000 0.0000 0.0000
# 4 0.0000 0.0000 0.0000 24.3059 0.0000 0.0000
# 5 0.0000 0.0000 0.0000 0.0000 25.7584 0.0000
# 6 0.0000 0.0000 0.0000 0.0000 0.0000 17.9988
#
#
#
# Elastic Compliance Matrix: (Units=1/GPa)
#
#
# Indices 1 2 3 4 5 6 
#
# 1 0.020137 -0.010256 -0.003652 0.000000 0.000000 0.000000
# 2 -0.010256 0.027748 -0.002751 0.000000 0.000000 0.000000
# 3 -0.003652 -0.002751 0.007293 0.000000 0.000000 0.000000
# 4 0.000000 0.000000 0.000000 0.041142 0.000000 0.000000
# 5 0.000000 0.000000 0.000000 0.000000 0.038822 0.000000
# 6 0.000000 0.000000 0.000000 0.000000 0.000000 0.055559
#
#
# Mechanical properties :
#
#
# Convention : Reuss Voigt Hill
#
# Bulk Modulus (GPa) = 45.74609 60.14888 52.94749
# Shear Modulus (GPa) = 21.61633 25.88009 23.74821
#
# Velocity S-wave (km/s) = 3.41216 3.73355 3.57647
# Velocity P-wave (km/s) = 6.33745 7.14022 6.75078
#
# Compressibility (1/GPa) = 0.02185979
#
# Stress axis : x y z
#
# Youngs Moduli (GPa) = 49.66021 36.03886 137.11192
#
# Poissons Ratio (x) = 0.36963 0.50070
# Poissons Ratio (y) = 0.50934 0.37717
# Poissons Ratio (z) = 0.18135 0.09914
#
# Static dielectric constant tensor:
#      x y z
#    x 3.311750 0.000000 0.000000 
#    y 0.000000 3.025790 0.000000 
#    z 0.000000 0.000000 4.288470 
# 
# 
# High freq. dielectric constant tensor:
#      x y z
#    x 1.707840 0.000000 0.000000 
#    y 0.000000 1.674540 0.000000 
#    z 0.000000 0.000000 1.759370 
# 
# From -- ./inp_files/41905.got.cif
#   From: 2010.03.12/outbox.cif.g09.slc.cpg/sg69_21_cif.got.tgz:41905.got - 2010.04.10 23:52:46.
