data_PCOD8284218
_publ_section_title
;
Structure prediction by ZEFSAII (Michael W. Deem and Ramdas Pophale) SiO2 
 PCOD8284218
Probable space group: F M M M
;
_chemical_formula_sum "Si O2"
_cell_formula_units_Z 192
_cell_length_a 20.867318
_cell_length_b 27.532824
_cell_length_c 15.874456
_cell_angle_alpha 90.000000
_cell_angle_beta 90.000000
_cell_angle_gamma 90.000000
_cell_volume 9120.449530
_symmetry_space_group_name_H-M "F M M M"
_symmetry_group_IT_number 69
_symmetry_cell_setting 'orthorhombic'
loop_
_space_group_symop_operation_xyz
x,y,z
-x,-y,z
x,-y,-z
-x,y,-z
-x,-y,-z
x,y,-z
-x,y,z
x,-y,z
x,1/2+y,1/2+z
-x,1/2-y,1/2+z
x,1/2-y,1/2-z
-x,1/2+y,1/2-z
-x,1/2-y,1/2-z
x,1/2+y,1/2-z
-x,1/2+y,1/2+z
x,1/2-y,1/2+z
1/2+x,y,1/2+z
1/2-x,-y,1/2+z
1/2+x,-y,1/2-z
1/2-x,y,1/2-z
1/2-x,-y,1/2-z
1/2+x,y,1/2-z
1/2-x,y,1/2+z
1/2+x,-y,1/2+z
1/2+x,1/2+y,z
1/2-x,1/2-y,z
1/2+x,1/2-y,-z
1/2-x,1/2+y,-z
1/2-x,1/2-y,-z
1/2+x,1/2+y,-z
1/2-x,1/2+y,z
1/2+x,1/2-y,z
loop_
_atom_site_type_symbol
_atom_site_label
_atom_site_fract_x
_atom_site_fract_y
_atom_site_fract_z
Si Si1 0.312854 0.727424 0.657478
Si Si2 0.428662 0.054232 0.099927
Si Si3 0.812432 0.879813 0.399476
Si Si4 0.306531 0.554133 0.100127
Si Si5 0.928444 0.390000 0.399753
Si Si6 0.069062 0.782719 0.097741
O O1 0.315438 0.750000 0.750000
O O2 0.250000 0.750000 0.611432
O O3 0.308200 0.669549 0.653757
O O4 0.377930 0.742287 0.612133
O O5 0.500000 0.070587 0.129278
O O6 0.376176 0.092473 0.132305
O O7 0.413403 0.000000 0.134383
O O8 0.425309 0.052539 0.000000
O O9 0.813011 0.869374 0.500000
O O10 0.751833 0.911837 0.371486
O O11 0.295903 0.500000 0.136294
O O12 0.373841 0.574487 0.137247
O O13 0.309005 0.552514 0.000000
O O14 0.924548 0.391047 0.500000
O O15 0.913311 0.335737 0.364557
O O16 0.000000 0.406501 0.370637
O O17 0.000000 0.765231 0.134864
O O18 0.060774 0.790819 0.000000
#
# Coordination Sequence:
#
# PCOD8284218 Si02
#       6
#    32  32  32  32  32  32
#     4  11  24  38  51  72 103 140 183 227 271 319
#     4   8  14  26  46  75 110 139 162 198 250 307
#     4  10  19  31  50  74 101 135 174 216 261 310
#     4   9  16  25  41  70 105 134 162 201 248 301
#     4   8  14  25  42  66  96 128 160 196 243 298
#     4   9  18  34  56  79 102 131 171 219 268 318
#
# _framework density 21.051594000000001
#
# number of rings (size 3 to 8) (size 9 to 14) (size 15 to 20)
#    0.000    2.833    0.000    3.500    0.000    6.000 
#    0.000    3.333    0.000    0.000    0.000   22.167 
#    0.000    0.000    0.000    0.000    0.000    0.667 
#
# Total GULP energy -594815.004623 kJ/mol
# GULP energy per Si atom -12391.979263 kJ/mol
# Density = 2.100368 g / cm^3
# Si number density = 21.051594 Si / 1000 Ang^3
#
#
#
# Elastic Constant Matrix: (Units=GPa)
#
#
# Indices 1 2 3 4 5 6 
#
# 1 202.3727 116.4603 11.5568 0.0000 0.0000 0.0000
# 2 116.4603 186.0482 18.4815 0.0000 0.0000 0.0000
# 3 11.5568 18.4815 15.3032 0.0000 0.0000 0.0000
# 4 0.0000 0.0000 0.0000 15.2759 0.0000 0.0000
# 5 0.0000 0.0000 0.0000 0.0000 4.2668 0.0000
# 6 0.0000 0.0000 0.0000 0.0000 0.0000 115.5751
#
#
#
# Elastic Compliance Matrix: (Units=1/GPa)
#
#
# Indices 1 2 3 4 5 6 
#
# 1 0.007724 -0.004835 0.000007 0.000000 0.000000 0.000000
# 2 -0.004835 0.009135 -0.007381 0.000000 0.000000 0.000000
# 3 0.000007 -0.007381 0.074254 0.000000 0.000000 0.000000
# 4 0.000000 0.000000 0.000000 0.065463 0.000000 0.000000
# 5 0.000000 0.000000 0.000000 0.000000 0.234368 0.000000
# 6 0.000000 0.000000 0.000000 0.000000 0.000000 0.008652
#
#
# Mechanical properties :
#
#
# Convention : Reuss Voigt Hill
#
# Bulk Modulus (GPa) = 14.99375 77.41349 46.20362
# Shear Modulus (GPa) = 11.20460 44.17192 27.68826
#
# Velocity S-wave (km/s) = 2.30955 4.58566 3.63058
# Velocity P-wave (km/s) = 3.77490 8.05548 6.29049
#
# Compressibility (1/GPa) = 0.06669444
#
# Stress axis : x y z
#
# Youngs Moduli (GPa) = 129.47221 109.46961 13.46730
#
# Poissons Ratio (x) = 0.52934 -0.00009
# Poissons Ratio (y) = 0.62606 0.09940
# Poissons Ratio (z) = -0.00089 0.80794
#
# Static dielectric constant tensor:
#      x y z
#    x 4.607430 0.000000 0.000000 
#    y 0.000000 3.959940 0.000000 
#    z 0.000000 0.000000 3.075550 
# 
# 
# High freq. dielectric constant tensor:
#      x y z
#    x 1.847940 0.000000 0.000000 
#    y 0.000000 1.824740 0.000000 
#    z 0.000000 0.000000 1.759950 
# 
# From -- ./inp_files/32034.got.cif
#   From: 2010.03.12/outbox.cif.g09.slc.cpg/sg69_17_cif.got.tgz:32034.got - 2010.04.10 23:52:46.
