data_PCOD8284633
_publ_section_title
;
Structure prediction by ZEFSAII (Michael W. Deem and Ramdas Pophale) SiO2 
 PCOD8284633
Probable space group: F M M M
;
_chemical_formula_sum "Si O2"
_cell_formula_units_Z 176
_cell_length_a 20.143668
_cell_length_b 18.384157
_cell_length_c 18.778904
_cell_angle_alpha 90.000000
_cell_angle_beta 90.000000
_cell_angle_gamma 90.000000
_cell_volume 6954.285513
_symmetry_space_group_name_H-M "F M M M"
_symmetry_group_IT_number 69
_symmetry_cell_setting 'orthorhombic'
loop_
_space_group_symop_operation_xyz
x,y,z
-x,-y,z
x,-y,-z
-x,y,-z
-x,-y,-z
x,y,-z
-x,y,z
x,-y,z
x,1/2+y,1/2+z
-x,1/2-y,1/2+z
x,1/2-y,1/2-z
-x,1/2+y,1/2-z
-x,1/2-y,1/2-z
x,1/2+y,1/2-z
-x,1/2+y,1/2+z
x,1/2-y,1/2+z
1/2+x,y,1/2+z
1/2-x,-y,1/2+z
1/2+x,-y,1/2-z
1/2-x,y,1/2-z
1/2-x,-y,1/2-z
1/2+x,y,1/2-z
1/2-x,y,1/2+z
1/2+x,-y,1/2+z
1/2+x,1/2+y,z
1/2-x,1/2-y,z
1/2+x,1/2-y,-z
1/2-x,1/2+y,-z
1/2-x,1/2-y,-z
1/2+x,1/2+y,-z
1/2-x,1/2+y,z
1/2+x,1/2-y,z
loop_
_atom_site_type_symbol
_atom_site_label
_atom_site_fract_x
_atom_site_fract_y
_atom_site_fract_z
Si Si1 0.927658 0.085630 0.500000
Si Si2 0.421051 0.580666 0.653861
Si Si3 0.886844 0.156202 0.921185
Si Si4 0.858905 0.277590 0.824134
Si Si5 0.244607 0.000000 0.334497
Si Si6 0.270533 0.862849 0.918663
Si Si7 0.121787 0.500000 0.581919
O O1 0.891643 0.105116 0.574885
O O2 0.000000 0.123932 0.500000
O O3 0.938467 0.000000 0.500000
O O4 0.500000 0.574565 0.649157
O O5 0.394141 0.500000 0.678973
O O6 0.399148 0.649419 0.700821
O O7 0.906534 0.216323 0.861741
O O8 0.808164 0.142906 0.919555
O O9 0.919503 0.075689 0.905595
O O10 0.909033 0.183396 0.000000
O O11 0.828196 0.250000 0.750000
O O12 0.800666 0.291207 0.881415
O O13 0.250000 0.000000 0.250000
O O14 0.206821 0.929176 0.365945
O O15 0.318672 0.000000 0.363216
O O16 0.297140 0.872740 0.000000
O O17 0.148954 0.500000 0.500000
#
# Coordination Sequence:
#
# PCOD8284633 Si02
#       7
#    16  32  32  32  16  32  16
#     4   7  12  28  58  86 105 133 177 225 280 354
#     4   9  20  41  63  84 115 152 189 239 311 378
#     4   9  19  38  59  80 112 160 206 244 292 348
#     4  12  26  35  54  91 119 152 195 252 300 361
#     4  10  20  32  58  84 109 158 204 259 297 338
#     4  10  22  39  57  81 122 168 205 243 298 364
#     4   8  16  34  58  74 101 152 206 242 281 346
#
# _framework density 25.308135
#
# number of rings (size 3 to 8) (size 9 to 14) (size 15 to 20)
#    0.000    2.455    0.000    4.091    8.909    2.545 
#    1.636    0.000    0.000    0.000    0.000    0.000 
#    0.000    2.182    0.000    0.182    0.000    0.000 
#
# Total GULP energy -545114.154235 kJ/mol
# GULP energy per Si atom -12388.958051 kJ/mol
# Density = 2.525053 g / cm^3
# Si number density = 25.308135 Si / 1000 Ang^3
#
#
#
# Elastic Constant Matrix: (Units=GPa)
#
#
# Indices 1 2 3 4 5 6 
#
# 1 22.9232 21.6558 23.6341 0.0000 0.0000 0.0000
# 2 21.6558 178.2541 61.6295 0.0000 0.0000 0.0000
# 3 23.6341 61.6295 155.4291 0.0000 0.0000 0.0000
# 4 0.0000 0.0000 0.0000 39.4673 0.0000 0.0000
# 5 0.0000 0.0000 0.0000 0.0000 10.3223 0.0000
# 6 0.0000 0.0000 0.0000 0.0000 0.0000 12.5130
#
#
#
# Elastic Compliance Matrix: (Units=1/GPa)
#
#
# Indices 1 2 3 4 5 6 
#
# 1 0.054501 -0.004353 -0.006561 0.000000 0.000000 0.000000
# 2 -0.004353 0.006849 -0.002054 0.000000 0.000000 0.000000
# 3 -0.006561 -0.002054 0.008246 0.000000 0.000000 0.000000
# 4 0.000000 0.000000 0.000000 0.025337 0.000000 0.000000
# 5 0.000000 0.000000 0.000000 0.000000 0.096878 0.000000
# 6 0.000000 0.000000 0.000000 0.000000 0.000000 0.079917
#
#
# Mechanical properties :
#
#
# Convention : Reuss Voigt Hill
#
# Bulk Modulus (GPa) = 22.90436 63.38279 43.14358
# Shear Modulus (GPa) = 16.01455 29.10634 22.56044
#
# Velocity S-wave (km/s) = 2.51825 3.39496 2.98892
# Velocity P-wave (km/s) = 4.18632 6.36133 5.38478
#
# Compressibility (1/GPa) = 0.04365980
#
# Stress axis : x y z
#
# Youngs Moduli (GPa) = 18.34838 146.01002 121.27317
#
# Poissons Ratio (x) = 0.63554 0.79571
# Poissons Ratio (y) = 0.07986 0.24907
# Poissons Ratio (z) = 0.12039 0.29987
#
# Static dielectric constant tensor:
#      x y z
#    x 3.977860 0.000000 0.000000 
#    y 0.000000 5.269970 0.000000 
#    z 0.000000 0.000000 4.589870 
# 
# 
# High freq. dielectric constant tensor:
#      x y z
#    x 1.980720 0.000000 0.000000 
#    y 0.000000 2.028430 0.000000 
#    z 0.000000 0.000000 1.990280 
# 
# From -- ./inp_files/26820.got.cif
#   From: 2010.03.12/outbox.cif.g09.slc.cpg/sg69_14_cif.got.tgz:26820.got - 2010.04.10 23:52:46.
