data_PCOD8284096
_publ_section_title
;
Structure prediction by ZEFSAII (Michael W. Deem and Ramdas Pophale) SiO2 
 PCOD8284096
Probable space group: F M M M
;
_chemical_formula_sum "Si O2"
_cell_formula_units_Z 112
_cell_length_a 10.664808
_cell_length_b 19.552689
_cell_length_c 27.677858
_cell_angle_alpha 90.000000
_cell_angle_beta 90.000000
_cell_angle_gamma 90.000000
_cell_volume 5771.543996
_symmetry_space_group_name_H-M "F M M M"
_symmetry_group_IT_number 69
_symmetry_cell_setting 'orthorhombic'
loop_
_space_group_symop_operation_xyz
x,y,z
-x,-y,z
x,-y,-z
-x,y,-z
-x,-y,-z
x,y,-z
-x,y,z
x,-y,z
x,1/2+y,1/2+z
-x,1/2-y,1/2+z
x,1/2-y,1/2-z
-x,1/2+y,1/2-z
-x,1/2-y,1/2-z
x,1/2+y,1/2-z
-x,1/2+y,1/2+z
x,1/2-y,1/2+z
1/2+x,y,1/2+z
1/2-x,-y,1/2+z
1/2+x,-y,1/2-z
1/2-x,y,1/2-z
1/2-x,-y,1/2-z
1/2+x,y,1/2-z
1/2-x,y,1/2+z
1/2+x,-y,1/2+z
1/2+x,1/2+y,z
1/2-x,1/2-y,z
1/2+x,1/2-y,-z
1/2-x,1/2+y,-z
1/2-x,1/2-y,-z
1/2+x,1/2+y,-z
1/2-x,1/2+y,z
1/2+x,1/2-y,z
loop_
_atom_site_type_symbol
_atom_site_label
_atom_site_fract_x
_atom_site_fract_y
_atom_site_fract_z
Si Si1 0.359381 0.500000 0.210940
Si Si2 0.750000 0.250000 0.393228
Si Si3 0.234687 0.899247 0.135474
Si Si4 0.000000 0.425542 0.889894
Si Si5 0.648541 0.500000 0.055895
Si Si6 0.000000 0.291915 0.055453
O O1 0.500000 0.500000 0.233581
O O2 0.250000 0.500000 0.250000
O O3 0.347539 0.567437 0.177665
O O4 0.779442 0.317351 0.361542
O O5 0.874126 0.241426 0.424530
O O6 0.380362 0.916524 0.144880
O O7 0.197489 0.931427 0.083098
O O8 0.000000 0.372374 0.933806
O O9 0.000000 0.500000 0.914483
O O10 0.500000 0.500000 0.057804
O O11 0.695368 0.500000 0.000000
O O12 0.000000 0.276651 0.000000
#
# Coordination Sequence:
#
# PCOD8284096 Si02
#       6
#    16  16  32  16  16  16
#     4  11  25  41  71  98 118 149 193 250 308 369
#     4  10  23  38  59  82 118 168 200 248 300 356
#     4  10  21  40  61  85 123 156 200 242 306 352
#     4  10  18  35  56  80 112 163 191 249 293 353
#     4  10  21  34  54  82 113 160 212 257 295 342
#     4  10  22  35  52  83 119 163 213 253 292 336
#
# _framework density 19.405552
#
# number of rings (size 3 to 8) (size 9 to 14) (size 15 to 20)
#    0.000    1.857    2.857    2.143    6.000    6.000 
#    0.000    0.714    0.000    1.714    0.000    0.000 
#    0.000    0.000    0.000    0.000    0.000    0.000 
#
# Total GULP energy -347056.838454 kJ/mol
# GULP energy per Si atom -12394.887088 kJ/mol
# Density = 1.936138 g / cm^3
# Si number density = 19.405552 Si / 1000 Ang^3
#
#
#
# Elastic Constant Matrix: (Units=GPa)
#
#
# Indices 1 2 3 4 5 6 
#
# 1 155.0306 40.0899 34.1747 0.0000 0.0000 0.0000
# 2 40.0899 178.7395 38.8581 0.0000 0.0000 0.0000
# 3 34.1747 38.8581 79.9959 0.0000 0.0000 0.0000
# 4 0.0000 0.0000 0.0000 8.7032 0.0000 0.0000
# 5 0.0000 0.0000 0.0000 0.0000 44.6728 0.0000
# 6 0.0000 0.0000 0.0000 0.0000 0.0000 42.9251
#
#
#
# Elastic Compliance Matrix: (Units=1/GPa)
#
#
# Indices 1 2 3 4 5 6 
#
# 1 0.007300 -0.001073 -0.002598 0.000000 0.000000 0.000000
# 2 -0.001073 0.006413 -0.002657 0.000000 0.000000 0.000000
# 3 -0.002598 -0.002657 0.014901 0.000000 0.000000 0.000000
# 4 0.000000 0.000000 0.000000 0.114900 0.000000 0.000000
# 5 0.000000 0.000000 0.000000 0.000000 0.022385 0.000000
# 6 0.000000 0.000000 0.000000 0.000000 0.000000 0.023296
#
#
# Mechanical properties :
#
#
# Convention : Reuss Voigt Hill
#
# Bulk Modulus (GPa) = 62.65733 71.11237 66.88485
# Shear Modulus (GPa) = 24.13479 39.30311 31.71895
#
# Velocity S-wave (km/s) = 3.53045 4.50528 4.04732
# Velocity P-wave (km/s) = 6.99837 7.98676 7.50884
#
# Compressibility (1/GPa) = 0.01595982
#
# Stress axis : x y z
#
# Youngs Moduli (GPa) = 136.97954 155.93510 67.10979
#
# Poissons Ratio (x) = 0.16727 0.17433
# Poissons Ratio (y) = 0.14693 0.17830
# Poissons Ratio (z) = 0.35583 0.41429
#
# Static dielectric constant tensor:
#      x y z
#    x 3.891930 0.000000 0.000000 
#    y 0.000000 3.730740 0.000000 
#    z 0.000000 0.000000 3.165320 
# 
# 
# High freq. dielectric constant tensor:
#      x y z
#    x 1.785870 0.000000 0.000000 
#    y 0.000000 1.761850 0.000000 
#    z 0.000000 0.000000 1.709090 
# 
# From -- ./inp_files/39952.got.cif
#   From: 2010.03.12/outbox.cif.g09.slc.cpg/sg69_20_cif.got.tgz:39952.got - 2010.04.10 23:52:46.
