data_PCOD8284053
_publ_section_title
;
Structure prediction by ZEFSAII (Michael W. Deem and Ramdas Pophale) SiO2 
 PCOD8284053
Probable space group: F M M M
;
_chemical_formula_sum "Si O2"
_cell_formula_units_Z 160
_cell_length_a 16.575440
_cell_length_b 16.421380
_cell_length_c 33.713126
_cell_angle_alpha 90.000000
_cell_angle_beta 90.000000
_cell_angle_gamma 90.000000
_cell_volume 9176.429670
_symmetry_space_group_name_H-M "F M M M"
_symmetry_group_IT_number 69
_symmetry_cell_setting 'orthorhombic'
loop_
_space_group_symop_operation_xyz
x,y,z
-x,-y,z
x,-y,-z
-x,y,-z
-x,-y,-z
x,y,-z
-x,y,z
x,-y,z
x,1/2+y,1/2+z
-x,1/2-y,1/2+z
x,1/2-y,1/2-z
-x,1/2+y,1/2-z
-x,1/2-y,1/2-z
x,1/2+y,1/2-z
-x,1/2+y,1/2+z
x,1/2-y,1/2+z
1/2+x,y,1/2+z
1/2-x,-y,1/2+z
1/2+x,-y,1/2-z
1/2-x,y,1/2-z
1/2-x,-y,1/2-z
1/2+x,y,1/2-z
1/2-x,y,1/2+z
1/2+x,-y,1/2+z
1/2+x,1/2+y,z
1/2-x,1/2-y,z
1/2+x,1/2-y,-z
1/2-x,1/2+y,-z
1/2-x,1/2-y,-z
1/2+x,1/2+y,-z
1/2-x,1/2+y,z
1/2+x,1/2-y,z
loop_
_atom_site_type_symbol
_atom_site_label
_atom_site_fract_x
_atom_site_fract_y
_atom_site_fract_z
Si Si1 0.784090 0.830960 0.334365
Si Si2 0.708364 0.405599 0.544473
Si Si3 0.758192 0.500000 0.296644
Si Si4 0.092549 0.689033 0.897461
Si Si5 0.910282 0.500000 0.649574
Si Si6 0.155673 0.141112 0.099010
O O1 0.750000 0.750000 0.310104
O O2 0.874110 0.819887 0.352102
O O3 0.727236 0.833038 0.372266
O O4 0.784094 0.916150 0.310638
O O5 0.703094 0.369878 0.500000
O O6 0.688649 0.500000 0.544928
O O7 0.640381 0.365679 0.571517
O O8 0.800063 0.392283 0.559795
O O9 0.750000 0.500000 0.250000
O O10 0.849697 0.500000 0.312914
O O11 0.100179 0.782319 0.911824
O O12 0.000000 0.661539 0.897241
O O13 0.900152 0.423503 0.620978
O O14 0.000000 0.500000 0.667829
#
# Coordination Sequence:
#
# PCOD8284053 Si02
#       6
#    32  32  16  32  16  32
#     4   8  17  33  52  73 101 136 174 213 251 302
#     4  10  20  34  51  71 100 139 178 213 257 314
#     4  10  20  34  54  79 106 139 175 202 248 321
#     4  10  20  32  50  78 104 131 172 218 261 305
#     4  10  18  32  57  80 101 128 164 219 265 292
#     4   9  17  33  54  74  97 131 177 215 253 304
#
# _framework density 17.435974999999999
#
# number of rings (size 3 to 8) (size 9 to 14) (size 15 to 20)
#    0.000    2.600    1.000    2.400    4.200    2.800 
#    0.000    2.000    0.000    2.400    0.000    8.400 
#    0.000    0.000    0.000    0.000    0.000    0.000 
#
# Total GULP energy -495646.074427 kJ/mol
# GULP energy per Si atom -12391.151861 kJ/mol
# Density = 1.739629 g / cm^3
# Si number density = 17.435975 Si / 1000 Ang^3
#
#
#
# Elastic Constant Matrix: (Units=GPa)
#
#
# Indices 1 2 3 4 5 6 
#
# 1 106.3682 30.4976 44.5787 0.0000 0.0000 0.0000
# 2 30.4976 121.9395 44.9146 0.0000 0.0000 0.0000
# 3 44.5787 44.9146 90.2070 0.0000 0.0000 0.0000
# 4 0.0000 0.0000 0.0000 -13.3933 0.0000 0.0000
# 5 0.0000 0.0000 0.0000 0.0000 9.9924 0.0000
# 6 0.0000 0.0000 0.0000 0.0000 0.0000 16.5537
#
#
#
# Elastic Compliance Matrix: (Units=1/GPa)
#
#
# Indices 1 2 3 4 5 6 
#
# 1 0.011955 -0.000997 -0.005412 0.000000 0.000000 0.000000
# 2 -0.000997 0.010126 -0.004549 0.000000 0.000000 0.000000
# 3 -0.005412 -0.004549 0.016025 0.000000 0.000000 0.000000
# 4 0.000000 0.000000 0.000000 -0.074664 0.000000 0.000000
# 5 0.000000 0.000000 0.000000 0.000000 0.100076 0.000000
# 6 0.000000 0.000000 0.000000 0.000000 0.000000 0.060409
#
#
# Mechanical properties :
#
#
# Convention : Reuss Voigt Hill
#
# Bulk Modulus (GPa) = 61.76363 62.05517 61.90940
# Shear Modulus (GPa) = 33.06019 15.86547 24.46283
#
# Velocity S-wave (km/s) = 4.35914 3.01977 3.74974
# Velocity P-wave (km/s) = 7.79975 6.91565 7.37097
#
# Compressibility (1/GPa) = 0.01619076
#
# Stress axis : x y z
#
# Youngs Moduli (GPa) = 83.64607 98.75915 62.40239
#
# Poissons Ratio (x) = 0.09843 0.33771
# Poissons Ratio (y) = 0.08337 0.28387
# Poissons Ratio (z) = 0.45267 0.44926
#
# Static dielectric constant tensor:
#      x y z
#    x 3.176250 0.000000 0.000000 
#    y 0.000000 6.796540 0.000000 
#    z 0.000000 0.000000 3.022230 
# 
# 
# High freq. dielectric constant tensor:
#      x y z
#    x 1.657100 0.000000 0.000000 
#    y 0.000000 1.697700 0.000000 
#    z 0.000000 0.000000 1.641070 
# 
# From -- ./inp_files/45672.got.cif
#   From: 2010.03.12/outbox.cif.g09.slc.cpg/sg69_23_cif.got.tgz:45672.got - 2010.04.10 23:52:46.
