data_PCOD8284355
_publ_section_title
;
Structure prediction by ZEFSAII (Michael W. Deem and Ramdas Pophale) SiO2 
 PCOD8284355
Probable space group: F M M M
;
_chemical_formula_sum "Si O2"
_cell_formula_units_Z 192
_cell_length_a 18.465452
_cell_length_b 25.048903
_cell_length_c 22.378773
_cell_angle_alpha 90.000000
_cell_angle_beta 90.000000
_cell_angle_gamma 90.000000
_cell_volume 10351.062356
_symmetry_space_group_name_H-M "F M M M"
_symmetry_group_IT_number 69
_symmetry_cell_setting 'orthorhombic'
loop_
_space_group_symop_operation_xyz
x,y,z
-x,-y,z
x,-y,-z
-x,y,-z
-x,-y,-z
x,y,-z
-x,y,z
x,-y,z
x,1/2+y,1/2+z
-x,1/2-y,1/2+z
x,1/2-y,1/2-z
-x,1/2+y,1/2-z
-x,1/2-y,1/2-z
x,1/2+y,1/2-z
-x,1/2+y,1/2+z
x,1/2-y,1/2+z
1/2+x,y,1/2+z
1/2-x,-y,1/2+z
1/2+x,-y,1/2-z
1/2-x,y,1/2-z
1/2-x,-y,1/2-z
1/2+x,y,1/2-z
1/2-x,y,1/2+z
1/2+x,-y,1/2+z
1/2+x,1/2+y,z
1/2-x,1/2-y,z
1/2+x,1/2-y,-z
1/2-x,1/2+y,-z
1/2-x,1/2-y,-z
1/2+x,1/2+y,-z
1/2-x,1/2+y,z
1/2+x,1/2-y,z
loop_
_atom_site_type_symbol
_atom_site_label
_atom_site_fract_x
_atom_site_fract_y
_atom_site_fract_z
Si Si1 0.585562 0.766999 0.932931
Si Si2 0.294648 0.061051 0.066928
Si Si3 0.415709 0.374586 0.377248
Si Si4 0.345240 0.561064 0.861651
Si Si5 0.417411 0.439889 0.261146
Si Si6 0.415305 0.349343 0.934476
O O1 0.500000 0.765506 0.936077
O O2 0.608220 0.812549 0.885013
O O3 0.615048 0.708573 0.911695
O O4 0.615247 0.779855 0.000000
O O5 0.368546 0.092976 0.075474
O O6 0.235332 0.077382 0.117142
O O7 0.315447 0.000000 0.075289
O O8 0.264351 0.072095 0.000000
O O9 0.500000 0.383371 0.393073
O O10 0.398953 0.395592 0.310687
O O11 0.362203 0.500000 0.881737
O O12 0.357876 0.567259 0.790894
O O13 0.400161 0.601810 0.891377
O O14 0.500000 0.431878 0.237304
O O15 0.409804 0.500000 0.287862
O O16 0.500000 0.343579 0.939956
O O17 0.382096 0.361279 0.000000
#
# Coordination Sequence:
#
# PCOD8284355 Si02
#       6
#    32  32  32  32  32  32
#     4   8  15  29  49  73 100 129 163 207 256 302
#     4  10  21  34  49  74 104 132 168 212 254 302
#     4  10  19  33  53  74  99 133 170 209 255 301
#     4  10  20  34  50  69 102 140 167 202 253 301
#     4   9  18  32  51  76 102 131 173 215 245 289
#     4   9  17  30  50  75 100 128 168 214 253 297
#
# _framework density 18.548821
#
# number of rings (size 3 to 8) (size 9 to 14) (size 15 to 20)
#    0.000    2.667    0.000    3.000    0.000    4.667 
#    0.000    5.833    0.000    7.000    0.000    2.333 
#    0.000    0.000    0.000    0.000    0.000    0.000 
#
# Total GULP energy -594725.604702 kJ/mol
# GULP energy per Si atom -12390.116765 kJ/mol
# Density = 1.850660 g / cm^3
# Si number density = 18.548821 Si / 1000 Ang^3
#
#
#
# Elastic Constant Matrix: (Units=GPa)
#
#
# Indices 1 2 3 4 5 6 
#
# 1 46.1396 30.9704 30.5595 0.0000 0.0000 0.0000
# 2 30.9704 126.3903 66.7399 0.0000 0.0000 0.0000
# 3 30.5595 66.7399 89.0150 0.0000 0.0000 0.0000
# 4 0.0000 0.0000 0.0000 21.5767 0.0000 0.0000
# 5 0.0000 0.0000 0.0000 0.0000 24.1041 0.0000
# 6 0.0000 0.0000 0.0000 0.0000 0.0000 15.4946
#
#
#
# Elastic Compliance Matrix: (Units=1/GPa)
#
#
# Indices 1 2 3 4 5 6 
#
# 1 0.028737 -0.003033 -0.007592 0.000000 0.000000 0.000000
# 2 -0.003033 0.013417 -0.009019 0.000000 0.000000 0.000000
# 3 -0.007592 -0.009019 0.020602 0.000000 0.000000 0.000000
# 4 0.000000 0.000000 0.000000 0.046346 0.000000 0.000000
# 5 0.000000 0.000000 0.000000 0.000000 0.041487 0.000000
# 6 0.000000 0.000000 0.000000 0.000000 0.000000 0.064538
#
#
# Mechanical properties :
#
#
# Convention : Reuss Voigt Hill
#
# Bulk Modulus (GPa) = 42.60696 57.56492 50.08594
# Shear Modulus (GPa) = 19.06662 21.12011 20.09336
#
# Velocity S-wave (km/s) = 3.20959 3.37801 3.29488
# Velocity P-wave (km/s) = 6.06262 6.80560 6.44483
#
# Compressibility (1/GPa) = 0.02347035
#
# Stress axis : x y z
#
# Youngs Moduli (GPa) = 34.79785 74.52996 48.53863
#
# Poissons Ratio (x) = 0.22605 0.36849
# Poissons Ratio (y) = 0.10554 0.43775
# Poissons Ratio (z) = 0.26418 0.67216
#
# Static dielectric constant tensor:
#      x y z
#    x 3.151980 0.000000 0.000000 
#    y 0.000000 3.801700 0.000000 
#    z 0.000000 0.000000 3.305910 
# 
# 
# High freq. dielectric constant tensor:
#      x y z
#    x 1.693990 0.000000 0.000000 
#    y 0.000000 1.726040 0.000000 
#    z 0.000000 0.000000 1.703290 
# 
# From -- ./inp_files/32020.got.cif
#   From: 2010.03.12/outbox.cif.g09.slc.cpg/sg69_17_cif.got.tgz:32020.got - 2010.04.10 23:52:46.
