data_PCOD8284869
_publ_section_title
;
Structure prediction by ZEFSAII (Michael W. Deem and Ramdas Pophale) SiO2 
 PCOD8284869
Probable space group: F M M M
;
_chemical_formula_sum "Si O2"
_cell_formula_units_Z 144
_cell_length_a 30.602598
_cell_length_b 28.812186
_cell_length_c 8.960390
_cell_angle_alpha 90.000000
_cell_angle_beta 90.000000
_cell_angle_gamma 90.000000
_cell_volume 7900.624475
_symmetry_space_group_name_H-M "F M M M"
_symmetry_group_IT_number 69
_symmetry_cell_setting 'orthorhombic'
loop_
_space_group_symop_operation_xyz
x,y,z
-x,-y,z
x,-y,-z
-x,y,-z
-x,-y,-z
x,y,-z
-x,y,z
x,-y,z
x,1/2+y,1/2+z
-x,1/2-y,1/2+z
x,1/2-y,1/2-z
-x,1/2+y,1/2-z
-x,1/2-y,1/2-z
x,1/2+y,1/2-z
-x,1/2+y,1/2+z
x,1/2-y,1/2+z
1/2+x,y,1/2+z
1/2-x,-y,1/2+z
1/2+x,-y,1/2-z
1/2-x,y,1/2-z
1/2-x,-y,1/2-z
1/2+x,y,1/2-z
1/2-x,y,1/2+z
1/2+x,-y,1/2+z
1/2+x,1/2+y,z
1/2-x,1/2-y,z
1/2+x,1/2-y,-z
1/2-x,1/2+y,-z
1/2-x,1/2-y,-z
1/2+x,1/2+y,-z
1/2-x,1/2+y,z
1/2+x,1/2-y,z
loop_
_atom_site_type_symbol
_atom_site_label
_atom_site_fract_x
_atom_site_fract_y
_atom_site_fract_z
Si Si1 0.000000 0.554895 0.333882
Si Si2 0.125699 0.864961 0.174605
Si Si3 0.411985 0.552982 0.675561
Si Si4 0.450827 0.798477 0.674342
Si Si5 0.295400 0.701780 0.823250
O O1 0.042977 0.571352 0.247503
O O2 0.000000 0.500000 0.344580
O O3 0.000000 0.577276 0.500000
O O4 0.126427 0.914009 0.262043
O O5 0.083780 0.836098 0.232152
O O6 0.169555 0.837566 0.215150
O O7 0.122624 0.875469 0.000000
O O8 0.416254 0.557581 0.500000
O O9 0.401543 0.500000 0.722271
O O10 0.444795 0.790308 0.500000
O O11 0.500000 0.815465 0.713720
O O12 0.439874 0.750000 0.750000
O O13 0.311102 0.750000 0.750000
O O14 0.250000 0.685653 0.750000
O O15 0.289880 0.708889 0.000000
#
# Coordination Sequence:
#
# PCOD8284869 Si02
#       5
#    16  32  32  32  32
#     4   9  17  31  51  71  96 135 178 219 263 307
#     4  10  21  34  52  78 104 137 178 217 260 317
#     4  10  21  35  51  75 106 138 177 225 269 311
#     4   9  18  32  48  69 100 135 170 207 247 300
#     4  10  20  35  56  82 110 138 174 218 266 320
#
# _framework density 18.226407999999999
#
# number of rings (size 3 to 8) (size 9 to 14) (size 15 to 20)
#    0.000    2.333    0.000    3.000    1.556    5.333 
#    0.000    0.000    0.000    0.667    0.000    0.000 
#    0.000    0.000    0.000    0.000    0.000    0.000 
#
# Total GULP energy -446427.389890 kJ/mol
# GULP energy per Si atom -12400.760830 kJ/mol
# Density = 1.818492 g / cm^3
# Si number density = 18.226408 Si / 1000 Ang^3
#
#
#
# Elastic Constant Matrix: (Units=GPa)
#
#
# Indices 1 2 3 4 5 6 
#
# 1 103.6931 75.1062 50.6609 0.0003 -0.0005 -0.0010
# 2 75.1062 112.8480 55.7341 -0.0020 -0.0004 0.0019
# 3 50.6609 55.7341 80.9680 -0.0071 -0.0125 0.0158
# 4 0.0003 -0.0020 -0.0071 32.0776 -0.0046 0.0118
# 5 -0.0005 -0.0004 -0.0125 -0.0046 24.9598 0.0035
# 6 -0.0010 0.0019 0.0158 0.0118 0.0035 29.2151
#
#
#
# Elastic Compliance Matrix: (Units=1/GPa)
#
#
# Indices 1 2 3 4 5 6 
#
# 1 0.019896 -0.010747 -0.005051 -0.000002 -0.000002 0.000004
# 2 -0.010747 0.019231 -0.006513 0.000000 -0.000003 0.000002
# 3 -0.005051 -0.006513 0.019994 0.000004 0.000010 -0.000011
# 4 -0.000002 0.000000 0.000004 0.031174 0.000006 -0.000013
# 5 -0.000002 -0.000003 0.000010 0.000006 0.040064 -0.000005
# 6 0.000004 0.000002 -0.000011 -0.000013 -0.000005 0.034229
#
#
# Mechanical properties :
#
#
# Convention : Reuss Voigt Hill
#
# Bulk Modulus (GPa) = 68.97231 73.39017 71.18124
# Shear Modulus (GPa) = 23.35965 24.98435 24.17200
#
# Velocity S-wave (km/s) = 3.58388 3.70642 3.64566
# Velocity P-wave (km/s) = 7.41955 7.65963 7.54055
#
# Compressibility (1/GPa) = 0.01449857
#
# Stress axis : x y z
#
# Youngs Moduli (GPa) = 50.26179 51.99918 50.01446
#
# Poissons Ratio (x) = 0.55884 0.25262
# Poissons Ratio (y) = 0.54017 0.32576
# Poissons Ratio (z) = 0.25387 0.33868
#
# Static dielectric constant tensor:
#      x y z
#    x 3.324920 0.000000 0.000050 
#    y 0.000000 3.395330 0.000000 
#    z 0.000050 0.000000 3.371750 
# 
# 
# High freq. dielectric constant tensor:
#      x y z
#    x 1.688970 0.000000 0.000000 
#    y 0.000000 1.704100 0.000000 
#    z 0.000000 0.000000 1.710780 
# 
# From -- ./inp_files/5588.got.cif
#   From: 2010.03.12/outbox.cif.g09.slc.cpg/sg69_3_cif.got.tgz:5588.got - 2010.04.10 23:52:46.
