data_PCOD8284501
_publ_section_title
;
Structure prediction by ZEFSAII (Michael W. Deem and Ramdas Pophale) SiO2 
 PCOD8284501
Probable space group: F M M M
;
_chemical_formula_sum "Si O2"
_cell_formula_units_Z 144
_cell_length_a 15.977538
_cell_length_b 17.649899
_cell_length_c 27.419533
_cell_angle_alpha 90.000000
_cell_angle_beta 90.000000
_cell_angle_gamma 90.000000
_cell_volume 7732.361280
_symmetry_space_group_name_H-M "F M M M"
_symmetry_group_IT_number 69
_symmetry_cell_setting 'orthorhombic'
loop_
_space_group_symop_operation_xyz
x,y,z
-x,-y,z
x,-y,-z
-x,y,-z
-x,-y,-z
x,y,-z
-x,y,z
x,-y,z
x,1/2+y,1/2+z
-x,1/2-y,1/2+z
x,1/2-y,1/2-z
-x,1/2+y,1/2-z
-x,1/2-y,1/2-z
x,1/2+y,1/2-z
-x,1/2+y,1/2+z
x,1/2-y,1/2+z
1/2+x,y,1/2+z
1/2-x,-y,1/2+z
1/2+x,-y,1/2-z
1/2-x,y,1/2-z
1/2-x,-y,1/2-z
1/2+x,y,1/2-z
1/2-x,y,1/2+z
1/2+x,-y,1/2+z
1/2+x,1/2+y,z
1/2-x,1/2-y,z
1/2+x,1/2-y,-z
1/2-x,1/2+y,-z
1/2-x,1/2-y,-z
1/2+x,1/2+y,-z
1/2-x,1/2+y,z
1/2+x,1/2-y,z
loop_
_atom_site_type_symbol
_atom_site_label
_atom_site_fract_x
_atom_site_fract_y
_atom_site_fract_z
Si Si1 0.688852 0.413317 0.555934
Si Si2 0.903452 0.676656 0.871973
Si Si3 0.000000 0.588620 0.555134
Si Si4 0.240012 0.661353 0.196803
Si Si5 0.841834 0.657622 0.394470
O O1 0.665041 0.404525 0.500000
O O2 0.711889 0.500000 0.568987
O O3 0.607354 0.386550 0.586123
O O4 0.766637 0.358508 0.568132
O O5 0.853182 0.646997 0.824413
O O6 0.863125 0.753753 0.892728
O O7 0.000000 0.687872 0.857994
O O8 0.920821 0.611627 0.586979
O O9 0.000000 0.500000 0.548577
O O10 0.000000 0.624821 0.500000
O O11 0.250000 0.621716 0.250000
O O12 0.250000 0.750000 0.203300
O O13 0.310954 0.630076 0.159379
#
# Coordination Sequence:
#
# PCOD8284501 Si02
#       5
#    32  32  16  32  32
#     4  10  21  36  54  75 104 148 191 222 264 322
#     4  10  20  35  54  82 114 139 175 227 274 321
#     4  11  22  34  52  79 111 145 181 222 271 325
#     4   8  16  33  55  80 107 138 179 219 269 323
#     4  10  19  35  55  79 109 139 181 227 270 319
#
# _framework density 18.623031000000001
#
# number of rings (size 3 to 8) (size 9 to 14) (size 15 to 20)
#    0.000    2.333    1.111    3.333    0.000    5.333 
#    2.000    3.333    0.000   16.667    0.000    0.000 
#    0.000    0.000    0.000    0.000    0.000    0.000 
#
# Total GULP energy -446168.868513 kJ/mol
# GULP energy per Si atom -12393.579681 kJ/mol
# Density = 1.858064 g / cm^3
# Si number density = 18.623031 Si / 1000 Ang^3
#
#
#
# Elastic Constant Matrix: (Units=GPa)
#
#
# Indices 1 2 3 4 5 6 
#
# 1 122.1415 33.1946 60.2179 0.0000 0.0000 0.0000
# 2 33.1946 49.2991 47.0131 0.0000 0.0000 0.0000
# 3 60.2179 47.0131 149.4392 0.0000 0.0000 0.0000
# 4 0.0000 0.0000 0.0000 9.1690 0.0000 0.0000
# 5 0.0000 0.0000 0.0000 0.0000 14.6290 0.0000
# 6 0.0000 0.0000 0.0000 0.0000 0.0000 -23.4699
#
#
#
# Elastic Compliance Matrix: (Units=1/GPa)
#
#
# Indices 1 2 3 4 5 6 
#
# 1 0.010871 -0.004489 -0.002968 0.000000 0.000000 0.000000
# 2 -0.004489 0.030832 -0.007891 0.000000 0.000000 0.000000
# 3 -0.002968 -0.007891 0.010370 0.000000 0.000000 0.000000
# 4 0.000000 0.000000 0.000000 0.109063 0.000000 0.000000
# 5 0.000000 0.000000 0.000000 0.000000 0.068357 0.000000
# 6 0.000000 0.000000 0.000000 0.000000 0.000000 -0.042608
#
#
# Mechanical properties :
#
#
# Convention : Reuss Voigt Hill
#
# Bulk Modulus (GPa) = 46.77982 66.85901 56.81941
# Shear Modulus (GPa) = 22.25129 12.09590 17.17360
#
# Velocity S-wave (km/s) = 3.46038 2.55132 3.04002
# Velocity P-wave (km/s) = 6.41401 6.68268 6.54972
#
# Compressibility (1/GPa) = 0.02137674
#
# Stress axis : x y z
#
# Youngs Moduli (GPa) = 91.99158 32.43415 96.43076
#
# Poissons Ratio (x) = 0.14560 0.28622
# Poissons Ratio (y) = 0.41294 0.76091
# Poissons Ratio (z) = 0.27305 0.25593
#
# Static dielectric constant tensor:
#      x y z
#    x 3.453690 0.000000 0.000000 
#    y 0.000000 3.333540 0.000000 
#    z 0.000000 0.000000 3.860610 
# 
# 
# High freq. dielectric constant tensor:
#      x y z
#    x 1.719720 0.000000 0.000000 
#    y 0.000000 1.702570 0.000000 
#    z 0.000000 0.000000 1.724760 
# 
# From -- ./inp_files/21772.got.cif
#   From: 2010.03.12/outbox.cif.g09.slc.cpg/sg69_11_cif.got.tgz:21772.got - 2010.04.10 23:52:46.
