data_PCOD8284853
_publ_section_title
;
Structure prediction by ZEFSAII (Michael W. Deem and Ramdas Pophale) SiO2 
 PCOD8284853
Probable space group: F M M M
;
_chemical_formula_sum "Si O2"
_cell_formula_units_Z 192
_cell_length_a 18.581389
_cell_length_b 28.283671
_cell_length_c 20.368672
_cell_angle_alpha 90.000000
_cell_angle_beta 90.000000
_cell_angle_gamma 90.000000
_cell_volume 10704.753394
_symmetry_space_group_name_H-M "F M M M"
_symmetry_group_IT_number 69
_symmetry_cell_setting 'orthorhombic'
loop_
_space_group_symop_operation_xyz
x,y,z
-x,-y,z
x,-y,-z
-x,y,-z
-x,-y,-z
x,y,-z
-x,y,z
x,-y,z
x,1/2+y,1/2+z
-x,1/2-y,1/2+z
x,1/2-y,1/2-z
-x,1/2+y,1/2-z
-x,1/2-y,1/2-z
x,1/2+y,1/2-z
-x,1/2+y,1/2+z
x,1/2-y,1/2+z
1/2+x,y,1/2+z
1/2-x,-y,1/2+z
1/2+x,-y,1/2-z
1/2-x,y,1/2-z
1/2-x,-y,1/2-z
1/2+x,y,1/2-z
1/2-x,y,1/2+z
1/2+x,-y,1/2+z
1/2+x,1/2+y,z
1/2-x,1/2-y,z
1/2+x,1/2-y,-z
1/2-x,1/2+y,-z
1/2-x,1/2-y,-z
1/2+x,1/2+y,-z
1/2-x,1/2+y,z
1/2+x,1/2-y,z
loop_
_atom_site_type_symbol
_atom_site_label
_atom_site_fract_x
_atom_site_fract_y
_atom_site_fract_z
Si Si1 0.418301 0.632396 0.363772
Si Si2 0.715958 0.054048 0.316658
Si Si3 0.419888 0.946345 0.755900
Si Si4 0.270554 0.378822 0.425163
Si Si5 0.314392 0.713906 0.926225
Si Si6 0.082373 0.238963 0.677934
O O1 0.500000 0.626382 0.392647
O O2 0.400731 0.590419 0.313122
O O3 0.356513 0.630737 0.419097
O O4 0.410936 0.682892 0.329434
O O5 0.750000 0.075522 0.250000
O O6 0.630125 0.060843 0.308026
O O7 0.745444 0.078031 0.381294
O O8 0.739268 0.000000 0.323836
O O9 0.500000 0.937370 0.730048
O O10 0.410196 0.000000 0.783760
O O11 0.255247 0.392013 0.500000
O O12 0.221136 0.335024 0.402768
O O13 0.250000 0.750000 0.926796
O O14 0.375560 0.730910 0.876492
O O15 0.347312 0.709985 0.000000
O O16 0.113963 0.250000 0.750000
O O17 0.000000 0.255796 0.672421
#
# Coordination Sequence:
#
# PCOD8284853 Si02
#       6
#    32  32  32  32  32  32
#     4  10  20  35  55  81 112 145 182 225 277 334
#     4  10  20  35  57  84 111 145 186 225 274 332
#     4   9  18  34  57  83 111 142 178 222 271 326
#     4  11  23  37  55  81 112 148 188 229 274 324
#     4  10  21  38  55  75 107 148 189 225 265 324
#     4  10  22  37  55  83 112 140 180 232 284 328
#
# _framework density 17.935957999999999
#
# number of rings (size 3 to 8) (size 9 to 14) (size 15 to 20)
#    0.000    2.000    3.333    0.000    2.333    1.333 
#    0.000    1.667    0.000    1.500    0.000    5.833 
#    0.000    0.000    0.000    0.000    0.000    0.000 
#
# Total GULP energy -594959.136840 kJ/mol
# GULP energy per Si atom -12394.982018 kJ/mol
# Density = 1.789513 g / cm^3
# Si number density = 17.935958 Si / 1000 Ang^3
#
#
#
# Elastic Constant Matrix: (Units=GPa)
#
#
# Indices 1 2 3 4 5 6 
#
# 1 101.8724 41.8821 55.9705 0.0000 0.0000 0.0000
# 2 41.8821 84.1800 49.2514 0.0000 0.0000 0.0000
# 3 55.9705 49.2514 100.5567 0.0000 0.0000 0.0000
# 4 0.0000 0.0000 0.0000 26.3178 0.0000 0.0000
# 5 0.0000 0.0000 0.0000 0.0000 29.5496 0.0000
# 6 0.0000 0.0000 0.0000 0.0000 0.0000 27.4473
#
#
#
# Elastic Compliance Matrix: (Units=1/GPa)
#
#
# Indices 1 2 3 4 5 6 
#
# 1 0.014874 -0.003583 -0.006524 0.000000 0.000000 0.000000
# 2 -0.003583 0.017514 -0.006584 0.000000 0.000000 0.000000
# 3 -0.006524 -0.006584 0.016800 0.000000 0.000000 0.000000
# 4 0.000000 0.000000 0.000000 0.037997 0.000000 0.000000
# 5 0.000000 0.000000 0.000000 0.000000 0.033841 0.000000
# 6 0.000000 0.000000 0.000000 0.000000 0.000000 0.036433
#
#
# Mechanical properties :
#
#
# Convention : Reuss Voigt Hill
#
# Bulk Modulus (GPa) = 63.26423 64.53523 63.89973
# Shear Modulus (GPa) = 25.49588 25.96328 25.72958
#
# Velocity S-wave (km/s) = 3.77436 3.80880 3.79162
# Velocity P-wave (km/s) = 7.37179 7.44323 7.40760
#
# Compressibility (1/GPa) = 0.01580672
#
# Stress axis : x y z
#
# Youngs Moduli (GPa) = 67.23325 57.09721 59.52244
#
# Poissons Ratio (x) = 0.20459 0.38831
# Poissons Ratio (y) = 0.24091 0.39188
# Poissons Ratio (z) = 0.43861 0.37591
#
# Static dielectric constant tensor:
#      x y z
#    x 3.372310 0.000000 0.000000 
#    y 0.000000 1.231930 0.000000 
#    z 0.000000 0.000000 3.195520 
# 
# 
# High freq. dielectric constant tensor:
#      x y z
#    x 1.706920 0.000000 0.000000 
#    y 0.000000 1.701670 0.000000 
#    z 0.000000 0.000000 1.669370 
# 
# From -- ./inp_files/32060.got.cif
#   From: 2010.03.12/outbox.cif.g09.slc.cpg/sg69_17_cif.got.tgz:32060.got - 2010.04.10 23:52:46.
