data_PCOD8284470
_publ_section_title
;
Structure prediction by ZEFSAII (Michael W. Deem and Ramdas Pophale) SiO2 
 PCOD8284470
Probable space group: F M M M
;
_chemical_formula_sum "Si O2"
_cell_formula_units_Z 176
_cell_length_a 19.296158
_cell_length_b 27.917974
_cell_length_c 16.719077
_cell_angle_alpha 90.000000
_cell_angle_beta 90.000000
_cell_angle_gamma 90.000000
_cell_volume 9006.727907
_symmetry_space_group_name_H-M "F M M M"
_symmetry_group_IT_number 69
_symmetry_cell_setting 'orthorhombic'
loop_
_space_group_symop_operation_xyz
x,y,z
-x,-y,z
x,-y,-z
-x,y,-z
-x,-y,-z
x,y,-z
-x,y,z
x,-y,z
x,1/2+y,1/2+z
-x,1/2-y,1/2+z
x,1/2-y,1/2-z
-x,1/2+y,1/2-z
-x,1/2-y,1/2-z
x,1/2+y,1/2-z
-x,1/2+y,1/2+z
x,1/2-y,1/2+z
1/2+x,y,1/2+z
1/2-x,-y,1/2+z
1/2+x,-y,1/2-z
1/2-x,y,1/2-z
1/2-x,-y,1/2-z
1/2+x,y,1/2-z
1/2-x,y,1/2+z
1/2+x,-y,1/2+z
1/2+x,1/2+y,z
1/2-x,1/2-y,z
1/2+x,1/2-y,-z
1/2-x,1/2+y,-z
1/2-x,1/2-y,-z
1/2+x,1/2+y,-z
1/2-x,1/2+y,z
1/2+x,1/2-y,z
loop_
_atom_site_type_symbol
_atom_site_label
_atom_site_fract_x
_atom_site_fract_y
_atom_site_fract_z
Si Si1 0.348796 0.329610 0.313696
Si Si2 0.500000 0.715769 0.171512
Si Si3 0.795592 0.353243 0.359314
Si Si4 0.360089 0.762065 0.410957
Si Si5 0.000000 0.640863 0.796710
Si Si6 0.500000 0.446435 0.201746
Si Si7 0.629047 0.946182 0.409050
O O1 0.287012 0.361401 0.350291
O O2 0.339120 0.335735 0.218807
O O3 0.333848 0.275746 0.344378
O O4 0.427776 0.343920 0.341191
O O5 0.500000 0.750000 0.250000
O O6 0.436307 0.722323 0.113430
O O7 0.500000 0.662544 0.207206
O O8 0.810857 0.308950 0.418275
O O9 0.815151 0.405266 0.392129
O O10 0.361330 0.738958 0.500000
O O11 0.000000 0.584079 0.783372
O O12 0.500000 0.500000 0.233742
O O13 0.433939 0.435082 0.148638
O O14 0.602875 0.942600 0.500000
O O15 0.659225 0.000000 0.392988
#
# Coordination Sequence:
#
# PCOD8284470 Si02
#       7
#    32  16  32  32  16  16  32
#     4  11  23  38  58  81 112 158 204 240 288 341
#     4  12  19  36  59  82 112 157 192 234 282 348
#     4  11  22  38  57  85 117 159 198 239 289 350
#     4  12  23  36  57  87 120 155 197 241 292 352
#     4  12  20  39  61  78 111 153 197 242 284 336
#     4  10  19  34  57  89 121 151 187 230 283 349
#     4  10  20  36  60  91 125 155 185 232 297 360
#
# _framework density 19.540948
#
# number of rings (size 3 to 8) (size 9 to 14) (size 15 to 20)
#    0.000    0.909    5.455    2.182    0.000    4.727 
#    0.000    5.455    0.000    0.000    0.000    0.000 
#    0.000    2.182    0.000    0.000    0.000    0.000 
#
# Total GULP energy -545157.842620 kJ/mol
# GULP energy per Si atom -12389.950969 kJ/mol
# Density = 1.949647 g / cm^3
# Si number density = 19.540948 Si / 1000 Ang^3
#
#
#
# Elastic Constant Matrix: (Units=GPa)
#
#
# Indices 1 2 3 4 5 6 
#
# 1 127.2204 35.4171 10.9055 0.0000 0.0000 0.0000
# 2 35.4171 127.5392 25.9209 0.0000 0.0000 0.0000
# 3 10.9055 25.9209 61.7241 0.0000 0.0000 0.0000
# 4 0.0000 0.0000 0.0000 23.8172 0.0000 0.0000
# 5 0.0000 0.0000 0.0000 0.0000 32.3960 0.0000
# 6 0.0000 0.0000 0.0000 0.0000 0.0000 24.0970
#
#
#
# Elastic Compliance Matrix: (Units=1/GPa)
#
#
# Indices 1 2 3 4 5 6 
#
# 1 0.008537 -0.002257 -0.000561 0.000000 0.000000 0.000000
# 2 -0.002257 0.009169 -0.003452 0.000000 0.000000 0.000000
# 3 -0.000561 -0.003452 0.017750 0.000000 0.000000 0.000000
# 4 0.000000 0.000000 0.000000 0.041986 0.000000 0.000000
# 5 0.000000 0.000000 0.000000 0.000000 0.030868 0.000000
# 6 0.000000 0.000000 0.000000 0.000000 0.000000 0.041499
#
#
# Mechanical properties :
#
#
# Convention : Reuss Voigt Hill
#
# Bulk Modulus (GPa) = 43.63519 51.21898 47.42709
# Shear Modulus (GPa) = 29.41421 32.34472 30.87946
#
# Velocity S-wave (km/s) = 3.88398 4.07286 3.97954
# Velocity P-wave (km/s) = 6.51861 6.95598 6.74084
#
# Compressibility (1/GPa) = 0.02291728
#
# Stress axis : x y z
#
# Youngs Moduli (GPa) = 117.14180 109.06404 56.33891
#
# Poissons Ratio (x) = 0.24612 0.03158
# Poissons Ratio (y) = 0.26435 0.19447
# Poissons Ratio (z) = 0.06567 0.37646
#
# Static dielectric constant tensor:
#      x y z
#    x 3.760340 0.000000 0.000000 
#    y 0.000000 3.667050 0.000000 
#    z 0.000000 0.000000 3.354930 
# 
# 
# High freq. dielectric constant tensor:
#      x y z
#    x 1.768910 0.000000 0.000000 
#    y 0.000000 1.755150 0.000000 
#    z 0.000000 0.000000 1.735300 
# 
# From -- ./inp_files/23638.got.cif
#   From: 2010.03.12/outbox.cif.g09.slc.cpg/sg69_12_cif.got.tgz:23638.got - 2010.04.10 23:52:46.
