data_PCOD8284500
_publ_section_title
;
Structure prediction by ZEFSAII (Michael W. Deem and Ramdas Pophale) SiO2 
 PCOD8284500
Probable space group: F M M M
;
_chemical_formula_sum "Si O2"
_cell_formula_units_Z 160
_cell_length_a 17.869633
_cell_length_b 30.441850
_cell_length_c 14.772975
_cell_angle_alpha 90.000000
_cell_angle_beta 90.000000
_cell_angle_gamma 90.000000
_cell_volume 8036.272186
_symmetry_space_group_name_H-M "F M M M"
_symmetry_group_IT_number 69
_symmetry_cell_setting 'orthorhombic'
loop_
_space_group_symop_operation_xyz
x,y,z
-x,-y,z
x,-y,-z
-x,y,-z
-x,-y,-z
x,y,-z
-x,y,z
x,-y,z
x,1/2+y,1/2+z
-x,1/2-y,1/2+z
x,1/2-y,1/2-z
-x,1/2+y,1/2-z
-x,1/2-y,1/2-z
x,1/2+y,1/2-z
-x,1/2+y,1/2+z
x,1/2-y,1/2+z
1/2+x,y,1/2+z
1/2-x,-y,1/2+z
1/2+x,-y,1/2-z
1/2-x,y,1/2-z
1/2-x,-y,1/2-z
1/2+x,y,1/2-z
1/2-x,y,1/2+z
1/2+x,-y,1/2+z
1/2+x,1/2+y,z
1/2-x,1/2-y,z
1/2+x,1/2-y,-z
1/2-x,1/2+y,-z
1/2-x,1/2-y,-z
1/2+x,1/2+y,-z
1/2-x,1/2+y,z
1/2+x,1/2-y,z
loop_
_atom_site_type_symbol
_atom_site_label
_atom_site_fract_x
_atom_site_fract_y
_atom_site_fract_z
Si Si1 0.162649 0.756646 0.500000
Si Si2 0.084244 0.683663 0.142045
Si Si3 0.315879 0.048312 0.680068
Si Si4 0.581391 0.391246 0.500000
Si Si5 0.414186 0.370264 0.192982
Si Si6 0.138818 0.843336 0.000000
Si Si7 0.246840 0.914940 0.500000
O O1 0.250000 0.750000 0.500000
O O2 0.137218 0.781265 0.408082
O O3 0.129555 0.708418 0.500000
O O4 0.084200 0.638275 0.088725
O O5 0.114902 0.670178 0.242436
O O6 0.000000 0.703618 0.145824
O O7 0.250000 0.046629 0.750000
O O8 0.374566 0.083933 0.716131
O O9 0.281090 0.060721 0.584671
O O10 0.354081 0.000000 0.672886
O O11 0.500000 0.416848 0.500000
O O12 0.656563 0.420598 0.500000
O O13 0.500000 0.377319 0.217304
O O14 0.404308 0.359754 0.088134
O O15 0.224105 0.863456 0.000000
#
# Coordination Sequence:
#
# PCOD8284500 Si02
#       7
#    16  32  32  16  32  16  16
#     4  11  22  37  56  83 114 144 185 229 270 324
#     4   9  19  35  55  80 111 146 182 228 284 329
#     4  10  21  36  56  82 111 144 181 225 279 336
#     4   9  16  30  54  79 102 139 191 233 272 330
#     4  10  21  38  59  82 109 145 188 230 276 331
#     4  10  22  36  54  82 115 149 186 230 274 327
#     4  10  19  35  55  78 114 150 181 224 280 332
#
# _framework density 19.909728000000001
#
# number of rings (size 3 to 8) (size 9 to 14) (size 15 to 20)
#    0.000    2.200    0.000    3.900    0.000    4.400 
#    0.000    3.000    0.000    6.000    0.000    0.000 
#    0.000    9.600    0.000    0.000    0.000    0.000 
#
# Total GULP energy -495695.777826 kJ/mol
# GULP energy per Si atom -12392.394446 kJ/mol
# Density = 1.986441 g / cm^3
# Si number density = 19.909728 Si / 1000 Ang^3
#
#
#
# Elastic Constant Matrix: (Units=GPa)
#
#
# Indices 1 2 3 4 5 6 
#
# 1 109.3091 55.8413 29.2815 0.0000 0.0000 0.0000
# 2 55.8413 133.3934 45.1457 0.0000 0.0000 0.0000
# 3 29.2815 45.1457 120.4977 0.0000 0.0000 0.0000
# 4 0.0000 0.0000 0.0000 25.9366 0.0000 0.0000
# 5 0.0000 0.0000 0.0000 0.0000 24.5133 0.0000
# 6 0.0000 0.0000 0.0000 0.0000 0.0000 27.7335
#
#
#
# Elastic Compliance Matrix: (Units=1/GPa)
#
#
# Indices 1 2 3 4 5 6 
#
# 1 0.011777 -0.004537 -0.001162 0.000000 0.000000 0.000000
# 2 -0.004537 0.010333 -0.002769 0.000000 0.000000 0.000000
# 3 -0.001162 -0.002769 0.009619 0.000000 0.000000 0.000000
# 4 0.000000 0.000000 0.000000 0.038556 0.000000 0.000000
# 5 0.000000 0.000000 0.000000 0.000000 0.040794 0.000000
# 6 0.000000 0.000000 0.000000 0.000000 0.000000 0.036057
#
#
# Mechanical properties :
#
#
# Convention : Reuss Voigt Hill
#
# Bulk Modulus (GPa) = 67.59875 69.30414 68.45145
# Shear Modulus (GPa) = 29.58525 31.16548 30.37537
#
# Velocity S-wave (km/s) = 3.85901 3.96073 3.91020
# Velocity P-wave (km/s) = 7.34045 7.47002 7.40552
#
# Compressibility (1/GPa) = 0.01479317
#
# Stress axis : x y z
#
# Youngs Moduli (GPa) = 84.90827 96.77751 103.96415
#
# Poissons Ratio (x) = 0.43908 0.12082
# Poissons Ratio (y) = 0.38523 0.28786
# Poissons Ratio (z) = 0.09868 0.26796
#
# Static dielectric constant tensor:
#      x y z
#    x 3.673600 0.000000 0.000000 
#    y 0.000000 4.070980 0.000000 
#    z 0.000000 0.000000 3.788100 
# 
# 
# High freq. dielectric constant tensor:
#      x y z
#    x 1.768830 0.000000 0.000000 
#    y 0.000000 1.758870 0.000000 
#    z 0.000000 0.000000 1.795490 
# 
# From -- ./inp_files/15728.got.cif
#   From: 2010.03.12/outbox.cif.g09.slc.cpg/sg69_8_cif.got.tgz:15728.got - 2010.04.10 23:52:46.
