data_PCOD8284951
_publ_section_title
;
Structure prediction by ZEFSAII (Michael W. Deem and Ramdas Pophale) SiO2 
 PCOD8284951
Probable space group: F M M M
;
_chemical_formula_sum "Si O2"
_cell_formula_units_Z 160
_cell_length_a 29.319239
_cell_length_b 18.097645
_cell_length_c 12.457326
_cell_angle_alpha 90.000000
_cell_angle_beta 90.000000
_cell_angle_gamma 90.000000
_cell_volume 6609.971523
_symmetry_space_group_name_H-M "F M M M"
_symmetry_group_IT_number 69
_symmetry_cell_setting 'orthorhombic'
loop_
_space_group_symop_operation_xyz
x,y,z
-x,-y,z
x,-y,-z
-x,y,-z
-x,-y,-z
x,y,-z
-x,y,z
x,-y,z
x,1/2+y,1/2+z
-x,1/2-y,1/2+z
x,1/2-y,1/2-z
-x,1/2+y,1/2-z
-x,1/2-y,1/2-z
x,1/2+y,1/2-z
-x,1/2+y,1/2+z
x,1/2-y,1/2+z
1/2+x,y,1/2+z
1/2-x,-y,1/2+z
1/2+x,-y,1/2-z
1/2-x,y,1/2-z
1/2-x,-y,1/2-z
1/2+x,y,1/2-z
1/2-x,y,1/2+z
1/2+x,-y,1/2+z
1/2+x,1/2+y,z
1/2-x,1/2-y,z
1/2+x,1/2-y,-z
1/2-x,1/2+y,-z
1/2-x,1/2-y,-z
1/2+x,1/2+y,-z
1/2-x,1/2+y,z
1/2+x,1/2-y,z
loop_
_atom_site_type_symbol
_atom_site_label
_atom_site_fract_x
_atom_site_fract_y
_atom_site_fract_z
Si Si1 0.719022 0.084423 0.871871
Si Si2 0.551019 0.500000 0.305659
Si Si3 0.816687 0.862261 0.875092
Si Si4 0.646419 0.705955 0.629321
Si Si5 0.879769 0.000000 0.121574
Si Si6 0.950024 0.658396 0.121420
O O1 0.768164 0.111780 0.825477
O O2 0.678730 0.138333 0.826421
O O3 0.709087 0.000000 0.836245
O O4 0.720570 0.089465 0.000000
O O5 0.500000 0.500000 0.264936
O O6 0.576672 0.500000 0.194390
O O7 0.561445 0.571336 0.377630
O O8 0.835444 0.784903 0.825470
O O9 0.851642 0.927059 0.853200
O O10 0.809211 0.847056 0.000000
O O11 0.647493 0.702904 0.500000
O O12 0.594190 0.698429 0.672591
O O13 0.897014 0.000000 0.000000
O O14 0.000000 0.675193 0.177690
O O15 0.954535 0.684873 0.000000
#
# Coordination Sequence:
#
# PCOD8284951 Si02
#       6
#    32  16  32  32  16  32
#     4   9  15  24  43  76 114 147 183 226 269 324
#     4  10  21  37  57  82 110 143 182 226 277 332
#     4   9  16  30  49  74 108 149 189 227 272 319
#     4   9  17  27  48  81 113 145 183 225 274 331
#     4  10  20  36  58  77 103 144 191 234 271 314
#     4   9  18  34  56  83 114 144 175 220 280 338
#
# _framework density 24.205853000000001
#
# number of rings (size 3 to 8) (size 9 to 14) (size 15 to 20)
#    0.000    2.800    1.000    0.900    1.400    3.800 
#    0.000    2.000    0.000    8.400    0.000    2.800 
#    0.000    0.000    0.000    0.000    0.000    0.000 
#
# Total GULP energy -495976.388185 kJ/mol
# GULP energy per Si atom -12399.409705 kJ/mol
# Density = 2.415076 g / cm^3
# Si number density = 24.205853 Si / 1000 Ang^3
#
#
#
# Elastic Constant Matrix: (Units=GPa)
#
#
# Indices 1 2 3 4 5 6 
#
# 1 184.6113 94.7882 35.6491 0.0000 0.0000 0.0000
# 2 94.7882 192.5645 29.2266 0.0000 0.0000 0.0000
# 3 35.6491 29.2266 42.8273 0.0000 0.0000 0.0000
# 4 0.0000 0.0000 0.0000 38.0463 0.0000 0.0000
# 5 0.0000 0.0000 0.0000 0.0000 33.0546 0.0000
# 6 0.0000 0.0000 0.0000 0.0000 0.0000 42.6326
#
#
#
# Elastic Compliance Matrix: (Units=1/GPa)
#
#
# Indices 1 2 3 4 5 6 
#
# 1 0.007925 -0.003235 -0.004389 0.000000 0.000000 0.000000
# 2 -0.003235 0.007114 -0.002162 0.000000 0.000000 0.000000
# 3 -0.004389 -0.002162 0.028478 0.000000 0.000000 0.000000
# 4 0.000000 0.000000 0.000000 0.026284 0.000000 0.000000
# 5 0.000000 0.000000 0.000000 0.000000 0.030253 0.000000
# 6 0.000000 0.000000 0.000000 0.000000 0.000000 0.023456
#
#
# Mechanical properties :
#
#
# Convention : Reuss Voigt Hill
#
# Bulk Modulus (GPa) = 41.76189 82.14788 61.95489
# Shear Modulus (GPa) = 33.09846 40.10263 36.60055
#
# Velocity S-wave (km/s) = 3.70181 4.07471 3.89273
# Velocity P-wave (km/s) = 5.96335 7.49324 6.77164
#
# Compressibility (1/GPa) = 0.02394527
#
# Stress axis : x y z
#
# Youngs Moduli (GPa) = 126.17666 140.57648 35.11421
#
# Poissons Ratio (x) = 0.45477 0.15413
# Poissons Ratio (y) = 0.40818 0.07591
# Poissons Ratio (z) = 0.55384 0.30389
#
# Static dielectric constant tensor:
#      x y z
#    x 4.678980 0.000000 0.000000 
#    y 0.000000 4.400650 0.000000 
#    z 0.000000 0.000000 4.386530 
# 
# 
# High freq. dielectric constant tensor:
#      x y z
#    x 1.964680 0.000000 0.000000 
#    y 0.000000 1.961960 0.000000 
#    z 0.000000 0.000000 1.997080 
# 
# From -- ./inp_files/19587.got.cif
#   From: 2010.03.12/outbox.cif.g09.slc.cpg/sg69_10_cif.got.tgz:19587.got - 2010.04.10 23:52:46.
