data_PCOD8284327
_publ_section_title
;
Structure prediction by ZEFSAII (Michael W. Deem and Ramdas Pophale) SiO2 
 PCOD8284327
Probable space group: F M M M
;
_chemical_formula_sum "Si O2"
_cell_formula_units_Z 160
_cell_length_a 22.464351
_cell_length_b 14.110947
_cell_length_c 27.713257
_cell_angle_alpha 90.000000
_cell_angle_beta 90.000000
_cell_angle_gamma 90.000000
_cell_volume 8784.915858
_symmetry_space_group_name_H-M "F M M M"
_symmetry_group_IT_number 69
_symmetry_cell_setting 'orthorhombic'
loop_
_space_group_symop_operation_xyz
x,y,z
-x,-y,z
x,-y,-z
-x,y,-z
-x,-y,-z
x,y,-z
-x,y,z
x,-y,z
x,1/2+y,1/2+z
-x,1/2-y,1/2+z
x,1/2-y,1/2-z
-x,1/2+y,1/2-z
-x,1/2-y,1/2-z
x,1/2+y,1/2-z
-x,1/2+y,1/2+z
x,1/2-y,1/2+z
1/2+x,y,1/2+z
1/2-x,-y,1/2+z
1/2+x,-y,1/2-z
1/2-x,y,1/2-z
1/2-x,-y,1/2-z
1/2+x,y,1/2-z
1/2-x,y,1/2+z
1/2+x,-y,1/2+z
1/2+x,1/2+y,z
1/2-x,1/2-y,z
1/2+x,1/2-y,-z
1/2-x,1/2+y,-z
1/2-x,1/2-y,-z
1/2+x,1/2+y,-z
1/2-x,1/2+y,z
1/2+x,1/2-y,z
loop_
_atom_site_type_symbol
_atom_site_label
_atom_site_fract_x
_atom_site_fract_y
_atom_site_fract_z
Si Si1 0.366897 0.312209 0.876262
Si Si2 0.929652 0.500000 0.755865
Si Si3 0.637796 0.819423 0.794157
Si Si4 0.240691 0.393228 0.856787
Si Si5 0.929946 0.500000 0.355461
Si Si6 0.309392 0.308551 0.552540
O O1 0.395035 0.241655 0.836292
O O2 0.298891 0.327761 0.858193
O O3 0.404281 0.407641 0.882142
O O4 0.362549 0.260513 0.928245
O O5 0.905317 0.594505 0.780577
O O6 0.909833 0.500000 0.700038
O O7 0.000000 0.500000 0.761115
O O8 0.650295 0.750000 0.750000
O O9 0.700332 0.862197 0.811900
O O10 0.262590 0.500000 0.849049
O O11 0.202954 0.388272 0.906870
O O12 0.000000 0.500000 0.361765
O O13 0.328309 0.351288 0.500000
O O14 0.250000 0.250000 0.544551
#
# Coordination Sequence:
#
# PCOD8284327 Si02
#       6
#    32  16  32  32  16  32
#     4  10  20  35  54  78 110 146 177 219 276 325
#     4  11  24  39  55  76 103 143 194 235 264 312
#     4  11  21  36  53  78 109 143 174 221 271 328
#     4  10  19  32  54  80 114 140 175 222 267 333
#     4  11  22  37  54  77 103 141 195 232 268 315
#     4   8  16  31  51  78 109 139 171 210 264 327
#
# _framework density 18.213037
#
# number of rings (size 3 to 8) (size 9 to 14) (size 15 to 20)
#    0.000    2.000    4.000    1.800    0.000    3.200 
#    0.000    2.500    0.000    1.200    0.000    0.000 
#    0.000    4.000    0.000    0.000    0.000    0.000 
#
# Total GULP energy -495834.188505 kJ/mol
# GULP energy per Si atom -12395.854713 kJ/mol
# Density = 1.817158 g / cm^3
# Si number density = 18.213037 Si / 1000 Ang^3
#
#
#
# Elastic Constant Matrix: (Units=GPa)
#
#
# Indices 1 2 3 4 5 6 
#
# 1 55.6229 17.0193 23.7513 0.0000 0.0000 0.0000
# 2 17.0193 81.7489 30.7589 0.0000 0.0000 0.0000
# 3 23.7513 30.7589 108.2391 0.0000 0.0000 0.0000
# 4 0.0000 0.0000 0.0000 17.0950 0.0000 0.0000
# 5 0.0000 0.0000 0.0000 0.0000 8.4314 0.0000
# 6 0.0000 0.0000 0.0000 0.0000 0.0000 16.8984
#
#
#
# Elastic Compliance Matrix: (Units=1/GPa)
#
#
# Indices 1 2 3 4 5 6 
#
# 1 0.020422 -0.002873 -0.003665 0.000000 0.000000 0.000000
# 2 -0.002873 0.014101 -0.003377 0.000000 0.000000 0.000000
# 3 -0.003665 -0.003377 0.011003 0.000000 0.000000 0.000000
# 4 0.000000 0.000000 0.000000 0.058497 0.000000 0.000000
# 5 0.000000 0.000000 0.000000 0.000000 0.118604 0.000000
# 6 0.000000 0.000000 0.000000 0.000000 0.000000 0.059177
#
#
# Mechanical properties :
#
#
# Convention : Reuss Voigt Hill
#
# Bulk Modulus (GPa) = 38.91511 43.18557 41.05034
# Shear Modulus (GPa) = 16.11868 20.09038 18.10453
#
# Velocity S-wave (km/s) = 2.97814 3.32486 3.15626
# Velocity P-wave (km/s) = 5.76530 6.20503 5.98921
#
# Compressibility (1/GPa) = 0.02569696
#
# Stress axis : x y z
#
# Youngs Moduli (GPa) = 48.96646 70.91575 90.88728
#
# Poissons Ratio (x) = 0.20372 0.33310
# Poissons Ratio (y) = 0.14067 0.30691
# Poissons Ratio (z) = 0.17946 0.23947
#
# Static dielectric constant tensor:
#      x y z
#    x 2.998860 0.000000 0.000000 
#    y 0.000000 3.486960 0.000000 
#    z 0.000000 0.000000 3.619100 
# 
# 
# High freq. dielectric constant tensor:
#      x y z
#    x 1.666410 0.000000 0.000000 
#    y 0.000000 1.715820 0.000000 
#    z 0.000000 0.000000 1.701210 
# 
# From -- ./inp_files/18055.got.cif
#   From: 2010.03.12/outbox.cif.g09.slc.cpg/sg69_10_cif.got.tgz:18055.got - 2010.04.10 23:52:46.
