data_PCOD8284092
_publ_section_title
;
Structure prediction by ZEFSAII (Michael W. Deem and Ramdas Pophale) SiO2 
 PCOD8284092
Probable space group: F M M M
;
_chemical_formula_sum "Si O2"
_cell_formula_units_Z 192
_cell_length_a 17.900953
_cell_length_b 27.649035
_cell_length_c 20.379699
_cell_angle_alpha 90.000000
_cell_angle_beta 90.000000
_cell_angle_gamma 90.000000
_cell_volume 10086.811291
_symmetry_space_group_name_H-M "F M M M"
_symmetry_group_IT_number 69
_symmetry_cell_setting 'orthorhombic'
loop_
_space_group_symop_operation_xyz
x,y,z
-x,-y,z
x,-y,-z
-x,y,-z
-x,-y,-z
x,y,-z
-x,y,z
x,-y,z
x,1/2+y,1/2+z
-x,1/2-y,1/2+z
x,1/2-y,1/2-z
-x,1/2+y,1/2-z
-x,1/2-y,1/2-z
x,1/2+y,1/2-z
-x,1/2+y,1/2+z
x,1/2-y,1/2+z
1/2+x,y,1/2+z
1/2-x,-y,1/2+z
1/2+x,-y,1/2-z
1/2-x,y,1/2-z
1/2-x,-y,1/2-z
1/2+x,y,1/2-z
1/2-x,y,1/2+z
1/2+x,-y,1/2+z
1/2+x,1/2+y,z
1/2-x,1/2-y,z
1/2+x,1/2-y,-z
1/2-x,1/2+y,-z
1/2-x,1/2-y,-z
1/2+x,1/2+y,-z
1/2-x,1/2+y,z
1/2+x,1/2-y,z
loop_
_atom_site_type_symbol
_atom_site_label
_atom_site_fract_x
_atom_site_fract_y
_atom_site_fract_z
Si Si1 0.088655 0.708488 0.000000
Si Si2 0.161480 0.696771 0.250428
Si Si3 0.668101 0.360247 0.876078
Si Si4 0.411781 0.179949 0.500000
Si Si5 0.824341 0.445125 0.714447
Si Si6 0.586728 0.554680 0.342096
Si Si7 0.658636 0.851800 0.116699
O O1 0.119181 0.681696 0.063726
O O2 0.116659 0.764346 0.000000
O O3 0.000000 0.705863 0.000000
O O4 0.125631 0.750000 0.250000
O O5 0.250000 0.699726 0.250000
O O6 0.135179 0.671531 0.316848
O O7 0.132709 0.667027 0.187912
O O8 0.616963 0.349763 0.937823
O O9 0.660834 0.415831 0.852381
O O10 0.753104 0.347541 0.894607
O O11 0.500000 0.178666 0.500000
O O12 0.809447 0.500000 0.692636
O O13 0.750000 0.423491 0.750000
O O14 0.892207 0.440381 0.765358
O O15 0.500000 0.566359 0.349436
O O16 0.605422 0.500000 0.366029
O O17 0.632186 0.592223 0.387960
#
# Coordination Sequence:
#
# PCOD8284092 Si02
#       7
#    16  32  32  16  32  32  32
#     4  11  25  43  58  79 118 166 202 242 308 370
#     4   9  17  30  53  85 114 137 183 250 302 346
#     4  11  20  37  60  89 115 155 202 248 304 349
#     4  11  27  45  58  79 120 165 206 251 300 359
#     4  10  18  34  61  92 124 153 191 243 294 352
#     4  10  20  34  56  89 125 157 189 234 296 357
#     4  11  20  36  61  88 116 151 199 250 297 362
#
# _framework density 19.034756999999999
#
# number of rings (size 3 to 8) (size 9 to 14) (size 15 to 20)
#    0.000    1.667    3.333    2.500    0.000    3.333 
#    0.000    0.833    0.000    7.500    0.000    0.000 
#    0.000    0.000    0.000    0.000    0.000    0.000 
#
# Total GULP energy -595228.596889 kJ/mol
# GULP energy per Si atom -12400.595769 kJ/mol
# Density = 1.899143 g / cm^3
# Si number density = 19.034757 Si / 1000 Ang^3
#
#
#
# Elastic Constant Matrix: (Units=GPa)
#
#
# Indices 1 2 3 4 5 6 
#
# 1 64.5319 37.4469 36.6293 0.0000 0.0000 0.0000
# 2 37.4469 139.8582 59.6424 0.0000 0.0000 0.0000
# 3 36.6293 59.6424 124.0630 0.0000 0.0000 0.0000
# 4 0.0000 0.0000 0.0000 29.1673 0.0000 0.0000
# 5 0.0000 0.0000 0.0000 0.0000 24.4803 0.0000
# 6 0.0000 0.0000 0.0000 0.0000 0.0000 22.1972
#
#
#
# Elastic Compliance Matrix: (Units=1/GPa)
#
#
# Indices 1 2 3 4 5 6 
#
# 1 0.019929 -0.003556 -0.004175 0.000000 0.000000 0.000000
# 2 -0.003556 0.009628 -0.003579 0.000000 0.000000 0.000000
# 3 -0.004175 -0.003579 0.011014 0.000000 0.000000 0.000000
# 4 0.000000 0.000000 0.000000 0.034285 0.000000 0.000000
# 5 0.000000 0.000000 0.000000 0.000000 0.040849 0.000000
# 6 0.000000 0.000000 0.000000 0.000000 0.000000 0.045051
#
#
# Mechanical properties :
#
#
# Convention : Reuss Voigt Hill
#
# Bulk Modulus (GPa) = 55.70289 66.21004 60.95646
# Shear Modulus (GPa) = 26.40494 28.15128 27.27811
#
# Velocity S-wave (km/s) = 3.72855 3.84987 3.78970
# Velocity P-wave (km/s) = 6.91834 7.39062 7.15838
#
# Compressibility (1/GPa) = 0.01795239
#
# Stress axis : x y z
#
# Youngs Moduli (GPa) = 50.17782 103.85960 90.79738
#
# Poissons Ratio (x) = 0.36930 0.37905
# Poissons Ratio (y) = 0.17842 0.32496
# Poissons Ratio (z) = 0.20947 0.37171
#
# Static dielectric constant tensor:
#      x y z
#    x 3.315500 0.000000 0.000000 
#    y 0.000000 3.805610 0.000000 
#    z 0.000000 0.000000 3.423380 
# 
# 
# High freq. dielectric constant tensor:
#      x y z
#    x 1.722910 0.000000 0.000000 
#    y 0.000000 1.758730 0.000000 
#    z 0.000000 0.000000 1.721100 
# 
# From -- ./inp_files/23753.got.cif
#   From: 2010.03.12/outbox.cif.g09.slc.cpg/sg69_12_cif.got.tgz:23753.got - 2010.04.10 23:52:46.
