data_PCOD8284177
_publ_section_title
;
Structure prediction by ZEFSAII (Michael W. Deem and Ramdas Pophale) SiO2 
 PCOD8284177
Probable space group: F M M M
;
_chemical_formula_sum "Si O2"
_cell_formula_units_Z 160
_cell_length_a 26.726709
_cell_length_b 18.068760
_cell_length_c 18.168555
_cell_angle_alpha 90.000000
_cell_angle_beta 90.000000
_cell_angle_gamma 90.000000
_cell_volume 8773.931155
_symmetry_space_group_name_H-M "F M M M"
_symmetry_group_IT_number 69
_symmetry_cell_setting 'orthorhombic'
loop_
_space_group_symop_operation_xyz
x,y,z
-x,-y,z
x,-y,-z
-x,y,-z
-x,-y,-z
x,y,-z
-x,y,z
x,-y,z
x,1/2+y,1/2+z
-x,1/2-y,1/2+z
x,1/2-y,1/2-z
-x,1/2+y,1/2-z
-x,1/2-y,1/2-z
x,1/2+y,1/2-z
-x,1/2+y,1/2+z
x,1/2-y,1/2+z
1/2+x,y,1/2+z
1/2-x,-y,1/2+z
1/2+x,-y,1/2-z
1/2-x,y,1/2-z
1/2-x,-y,1/2-z
1/2+x,y,1/2-z
1/2-x,y,1/2+z
1/2+x,-y,1/2+z
1/2+x,1/2+y,z
1/2-x,1/2-y,z
1/2+x,1/2-y,-z
1/2-x,1/2+y,-z
1/2-x,1/2-y,-z
1/2+x,1/2+y,-z
1/2-x,1/2+y,z
1/2+x,1/2-y,z
loop_
_atom_site_type_symbol
_atom_site_label
_atom_site_fract_x
_atom_site_fract_y
_atom_site_fract_z
Si Si1 0.757177 0.918433 0.418258
Si Si2 0.697397 0.583335 0.783284
Si Si3 0.559179 0.084203 0.415897
Si Si4 0.806218 0.223441 0.415602
Si Si5 0.381839 0.306286 0.810495
O O1 0.738142 0.899957 0.500000
O O2 0.706144 0.911443 0.371337
O O3 0.803135 0.864457 0.397136
O O4 0.780371 0.000000 0.409803
O O5 0.684741 0.500000 0.757093
O O6 0.750000 0.610304 0.750000
O O7 0.652590 0.637930 0.762467
O O8 0.575709 0.102916 0.500000
O O9 0.500000 0.087902 0.409894
O O10 0.579519 0.144979 0.357948
O O11 0.577192 0.000000 0.395878
O O12 0.821179 0.238640 0.500000
O O13 0.750000 0.250000 0.398009
O O14 0.847591 0.259197 0.364840
O O15 0.407011 0.250000 0.750000
#
# Coordination Sequence:
#
# PCOD8284177 Si02
#       5
#    32  32  32  32  32
#     4   9  17  29  44  61  87 132 185 234 274 304
#     4  10  20  32  44  63  98 142 185 221 253 306
#     4   9  20  42  68  88 107 134 179 243 302 347
#     4  10  19  31  46  68 103 143 191 240 273 314
#     4  12  23  31  51  80 113 149 176 220 278 350
#
# _framework density 18.235838999999999
#
# number of rings (size 3 to 8) (size 9 to 14) (size 15 to 20)
#    0.000    2.000    2.000    3.000    0.000    1.200 
#    0.000    3.000    0.000    0.000    0.000    0.000 
#    0.000    0.000    0.000   20.400    0.000    0.000 
#
# Total GULP energy -495551.336724 kJ/mol
# GULP energy per Si atom -12388.783418 kJ/mol
# Density = 1.819433 g / cm^3
# Si number density = 18.235839 Si / 1000 Ang^3
#
#
#
# Elastic Constant Matrix: (Units=GPa)
#
#
# Indices 1 2 3 4 5 6 
#
# 1 40.0570 31.9899 20.8494 0.0000 0.0000 0.0000
# 2 31.9899 115.4173 43.3310 0.0000 0.0000 0.0000
# 3 20.8494 43.3310 70.1431 0.0000 0.0000 0.0000
# 4 0.0000 0.0000 0.0000 31.9915 0.0000 0.0000
# 5 0.0000 0.0000 0.0000 0.0000 23.0624 0.0000
# 6 0.0000 0.0000 0.0000 0.0000 0.0000 26.5362
#
#
#
# Elastic Compliance Matrix: (Units=1/GPa)
#
#
# Indices 1 2 3 4 5 6 
#
# 1 0.033625 -0.007248 -0.005517 0.000000 0.000000 0.000000
# 2 -0.007248 0.012843 -0.005779 0.000000 0.000000 0.000000
# 3 -0.005517 -0.005779 0.019467 0.000000 0.000000 0.000000
# 4 0.000000 0.000000 0.000000 0.031258 0.000000 0.000000
# 5 0.000000 0.000000 0.000000 0.000000 0.043361 0.000000
# 6 0.000000 0.000000 0.000000 0.000000 0.000000 0.037684
#
#
# Mechanical properties :
#
#
# Convention : Reuss Voigt Hill
#
# Bulk Modulus (GPa) = 34.66805 46.43979 40.55392
# Shear Modulus (GPa) = 22.22803 24.94784 23.58793
#
# Velocity S-wave (km/s) = 3.49509 3.70275 3.60042
# Velocity P-wave (km/s) = 5.94473 6.61831 6.29054
#
# Compressibility (1/GPa) = 0.02884500
#
# Stress axis : x y z
#
# Youngs Moduli (GPa) = 29.74017 77.86394 51.37028
#
# Poissons Ratio (x) = 0.56439 0.28340
# Poissons Ratio (y) = 0.21557 0.29688
# Poissons Ratio (z) = 0.16407 0.44999
#
# Static dielectric constant tensor:
#      x y z
#    x 2.875190 0.000000 0.000000 
#    y 0.000000 3.938460 0.000000 
#    z 0.000000 0.000000 3.646190 
# 
# 
# High freq. dielectric constant tensor:
#      x y z
#    x 1.642590 0.000000 0.000000 
#    y 0.000000 1.731440 0.000000 
#    z 0.000000 0.000000 1.717790 
# 
# From -- ./inp_files/23409.got.cif
#   From: 2010.03.12/outbox.cif.g09.slc.cpg/sg69_12_cif.got.tgz:23409.got - 2010.04.10 23:52:46.
