data_PCOD8284273
_publ_section_title
;
Structure prediction by ZEFSAII (Michael W. Deem and Ramdas Pophale) SiO2 
 PCOD8284273
Probable space group: F M M M
;
_chemical_formula_sum "Si O2"
_cell_formula_units_Z 160
_cell_length_a 18.414418
_cell_length_b 25.081064
_cell_length_c 20.014119
_cell_angle_alpha 90.000000
_cell_angle_beta 90.000000
_cell_angle_gamma 90.000000
_cell_volume 9243.584833
_symmetry_space_group_name_H-M "F M M M"
_symmetry_group_IT_number 69
_symmetry_cell_setting 'orthorhombic'
loop_
_space_group_symop_operation_xyz
x,y,z
-x,-y,z
x,-y,-z
-x,y,-z
-x,-y,-z
x,y,-z
-x,y,z
x,-y,z
x,1/2+y,1/2+z
-x,1/2-y,1/2+z
x,1/2-y,1/2-z
-x,1/2+y,1/2-z
-x,1/2-y,1/2-z
x,1/2+y,1/2-z
-x,1/2+y,1/2+z
x,1/2-y,1/2+z
1/2+x,y,1/2+z
1/2-x,-y,1/2+z
1/2+x,-y,1/2-z
1/2-x,y,1/2-z
1/2-x,-y,1/2-z
1/2+x,y,1/2-z
1/2-x,y,1/2+z
1/2+x,-y,1/2+z
1/2+x,1/2+y,z
1/2-x,1/2-y,z
1/2+x,1/2-y,-z
1/2-x,1/2+y,-z
1/2-x,1/2-y,-z
1/2+x,1/2+y,-z
1/2-x,1/2+y,z
1/2+x,1/2-y,z
loop_
_atom_site_type_symbol
_atom_site_label
_atom_site_fract_x
_atom_site_fract_y
_atom_site_fract_z
Si Si1 0.084250 0.288074 0.689216
Si Si2 0.297118 0.500000 0.574810
Si Si3 0.916743 0.793040 0.423149
Si Si4 0.807546 0.884505 0.422756
Si Si5 0.308055 0.000000 0.307997
Si Si6 0.692517 0.384203 0.809071
O O1 0.106027 0.250000 0.750000
O O2 0.104336 0.258385 0.620289
O O3 0.129093 0.341804 0.695052
O O4 0.000000 0.303681 0.692085
O O5 0.266776 0.500000 0.500000
O O6 0.341139 0.555351 0.587652
O O7 0.226495 0.500000 0.619428
O O8 0.902567 0.777889 0.500000
O O9 0.869022 0.843234 0.399728
O O10 0.000000 0.809450 0.410309
O O11 0.786172 0.874741 0.500000
O O12 0.735168 0.877546 0.378933
O O13 0.250000 0.000000 0.250000
O O14 0.348227 0.942526 0.302482
O O15 0.750000 0.375489 0.750000
#
# Coordination Sequence:
#
# PCOD8284273 Si02
#       6
#    32  16  32  32  16  32
#     4  10  21  35  49  67  94 125 153 185 229 275
#     4   8  14  26  43  65  93 121 149 185 231 273
#     4   9  18  32  47  65  94 128 156 187 231 276
#     4   9  17  29  47  70  94 121 155 193 229 269
#     4   8  16  30  47  68  93 118 144 181 230 273
#     4  10  19  32  51  72  93 119 152 189 227 269
#
# _framework density 17.309301999999999
#
# number of rings (size 3 to 8) (size 9 to 14) (size 15 to 20)
#    0.000    2.800    0.000    1.200    0.000    3.600 
#    0.000    3.000    0.000    3.000    0.000   12.600 
#    0.000   11.200    0.000    0.000    0.000    0.000 
#
# Total GULP energy -495534.253772 kJ/mol
# GULP energy per Si atom -12388.356344 kJ/mol
# Density = 1.726991 g / cm^3
# Si number density = 17.309302 Si / 1000 Ang^3
#
#
#
# Elastic Constant Matrix: (Units=GPa)
#
#
# Indices 1 2 3 4 5 6 
#
# 1 59.0210 76.6760 30.7084 0.0000 0.0000 0.0000
# 2 76.6760 184.6287 50.8250 0.0000 0.0000 0.0000
# 3 30.7084 50.8250 77.8925 0.0000 0.0000 0.0000
# 4 0.0000 0.0000 0.0000 22.7941 0.0000 0.0000
# 5 0.0000 0.0000 0.0000 0.0000 17.1883 0.0000
# 6 0.0000 0.0000 0.0000 0.0000 0.0000 5.2450
#
#
#
# Elastic Compliance Matrix: (Units=1/GPa)
#
#
# Indices 1 2 3 4 5 6 
#
# 1 0.038857 -0.014530 -0.005838 0.000000 0.000000 0.000000
# 2 -0.014530 0.012036 -0.002125 0.000000 0.000000 0.000000
# 3 -0.005838 -0.002125 0.016526 0.000000 0.000000 0.000000
# 4 0.000000 0.000000 0.000000 0.043871 0.000000 0.000000
# 5 0.000000 0.000000 0.000000 0.000000 0.058179 0.000000
# 6 0.000000 0.000000 0.000000 0.000000 0.000000 0.190657
#
#
# Mechanical properties :
#
#
# Convention : Reuss Voigt Hill
#
# Bulk Modulus (GPa) = 44.57757 70.88455 57.73106
# Shear Modulus (GPa) = 12.11856 19.93435 16.02645
#
# Velocity S-wave (km/s) = 2.64885 3.39729 3.04614
# Velocity P-wave (km/s) = 5.92998 7.51195 6.76735
#
# Compressibility (1/GPa) = 0.02243281
#
# Stress axis : x y z
#
# Youngs Moduli (GPa) = 25.73515 83.08688 60.50965
#
# Poissons Ratio (x) = 1.20727 0.35326
# Poissons Ratio (y) = 0.37394 0.12857
# Poissons Ratio (z) = 0.15025 0.17655
#
# Static dielectric constant tensor:
#      x y z
#    x 2.800680 0.000000 0.000000 
#    y 0.000000 3.640520 0.000000 
#    z 0.000000 0.000000 3.505910 
# 
# 
# High freq. dielectric constant tensor:
#      x y z
#    x 1.615550 0.000000 0.000000 
#    y 0.000000 1.686400 0.000000 
#    z 0.000000 0.000000 1.690690 
# 
# From -- ./inp_files/25036.got.cif
#   From: 2010.03.12/outbox.cif.g09.slc.cpg/sg69_13_cif.got.tgz:25036.got - 2010.04.10 23:52:46.
