data_PCOD8284939
_publ_section_title
;
Structure prediction by ZEFSAII (Michael W. Deem and Ramdas Pophale) SiO2 
 PCOD8284939
Probable space group: F M M M
;
_chemical_formula_sum "Si O2"
_cell_formula_units_Z 224
_cell_length_a 32.506185
_cell_length_b 19.146488
_cell_length_c 18.294143
_cell_angle_alpha 90.000000
_cell_angle_beta 90.000000
_cell_angle_gamma 90.000000
_cell_volume 11385.895567
_symmetry_space_group_name_H-M "F M M M"
_symmetry_group_IT_number 69
_symmetry_cell_setting 'orthorhombic'
loop_
_space_group_symop_operation_xyz
x,y,z
-x,-y,z
x,-y,-z
-x,y,-z
-x,-y,-z
x,y,-z
-x,y,z
x,-y,z
x,1/2+y,1/2+z
-x,1/2-y,1/2+z
x,1/2-y,1/2-z
-x,1/2+y,1/2-z
-x,1/2-y,1/2-z
x,1/2+y,1/2-z
-x,1/2+y,1/2+z
x,1/2-y,1/2+z
1/2+x,y,1/2+z
1/2-x,-y,1/2+z
1/2+x,-y,1/2-z
1/2-x,y,1/2-z
1/2-x,-y,1/2-z
1/2+x,y,1/2-z
1/2-x,y,1/2+z
1/2+x,-y,1/2+z
1/2+x,1/2+y,z
1/2-x,1/2-y,z
1/2+x,1/2-y,-z
1/2-x,1/2+y,-z
1/2-x,1/2-y,-z
1/2+x,1/2+y,-z
1/2-x,1/2+y,z
1/2+x,1/2-y,z
loop_
_atom_site_type_symbol
_atom_site_label
_atom_site_fract_x
_atom_site_fract_y
_atom_site_fract_z
Si Si1 0.123880 0.713598 0.914642
Si Si2 0.079795 0.847698 0.086103
Si Si3 0.755338 0.418786 0.334620
Si Si4 0.835831 0.082086 0.081463
Si Si5 0.785854 0.198976 0.413447
Si Si6 0.500000 0.916424 0.342722
Si Si7 0.922834 0.079361 0.415251
Si Si8 0.000000 0.918346 0.673451
O O1 0.089931 0.768903 0.884392
O O2 0.170056 0.728509 0.885456
O O3 0.114006 0.632641 0.897504
O O4 0.124161 0.727873 0.000000
O O5 0.119964 0.891722 0.108393
O O6 0.040415 0.880614 0.124864
O O7 0.070801 0.850642 0.000000
O O8 0.748036 0.500000 0.350929
O O9 0.750000 0.400975 0.250000
O O10 0.800422 0.394210 0.362397
O O11 0.720780 0.377267 0.379114
O O12 0.838401 0.000000 0.077761
O O13 0.825740 0.112424 0.000000
O O14 0.785282 0.190251 0.500000
O O15 0.750000 0.250000 0.385190
O O16 0.500000 0.897897 0.257619
O O17 0.500000 0.000000 0.357584
O O18 0.935901 0.082352 0.500000
O O19 0.959815 0.110343 0.367027
O O20 0.909895 0.000000 0.393556
O O21 0.000000 0.000000 0.660798
#
# Coordination Sequence:
#
# PCOD8284939 Si02
#       8
#    32  32  32  32  32  16  32  16
#     4   9  19  34  54  83 110 137 180 229 282 331
#     4  10  20  36  57  81 112 147 185 231 278 332
#     4  10  21  36  54  83 119 152 191 237 288 345
#     4   9  17  32  56  81 107 147 194 234 276 332
#     4  10  20  36  59  83 110 148 192 238 286 339
#     4  11  23  38  57  84 115 147 183 227 283 338
#     4   9  17  33  58  82 105 139 184 228 268 322
#     4   9  19  36  55  78 108 140 175 216 268 327
#
# _framework density 19.673463000000002
#
# number of rings (size 3 to 8) (size 9 to 14) (size 15 to 20)
#    0.000    2.429    0.000    2.143    0.000    6.571 
#    2.571    5.000    0.000    0.000    0.000    0.000 
#    0.000    0.000    0.000    0.000    0.000    0.000 
#
# Total GULP energy -694110.849454 kJ/mol
# GULP energy per Si atom -12394.836597 kJ/mol
# Density = 1.962869 g / cm^3
# Si number density = 19.673463 Si / 1000 Ang^3
#
#
#
# Elastic Constant Matrix: (Units=GPa)
#
#
# Indices 1 2 3 4 5 6 
#
# 1 153.7421 71.4186 56.9971 0.0000 0.0000 0.0000
# 2 71.4186 97.0591 38.9062 0.0000 0.0000 0.0000
# 3 56.9971 38.9062 64.9608 0.0000 0.0000 0.0000
# 4 0.0000 0.0000 0.0000 19.3945 0.0000 0.0000
# 5 0.0000 0.0000 0.0000 0.0000 7.9956 0.0000
# 6 0.0000 0.0000 0.0000 0.0000 0.0000 34.8955
#
#
#
# Elastic Compliance Matrix: (Units=1/GPa)
#
#
# Indices 1 2 3 4 5 6 
#
# 1 0.011780 -0.005955 -0.006770 0.000000 0.000000 0.000000
# 2 -0.005955 0.016568 -0.004698 0.000000 0.000000 0.000000
# 3 -0.006770 -0.004698 0.024148 0.000000 0.000000 0.000000
# 4 0.000000 0.000000 0.000000 0.051561 0.000000 0.000000
# 5 0.000000 0.000000 0.000000 0.000000 0.125069 0.000000
# 6 0.000000 0.000000 0.000000 0.000000 0.000000 0.028657
#
#
# Mechanical properties :
#
#
# Convention : Reuss Voigt Hill
#
# Bulk Modulus (GPa) = 56.65532 72.26731 64.46131
# Shear Modulus (GPa) = 16.74980 22.35314 19.55147
#
# Velocity S-wave (km/s) = 2.92103 3.37442 3.15588
# Velocity P-wave (km/s) = 6.34325 7.21079 6.79089
#
# Compressibility (1/GPa) = 0.01765059
#
# Stress axis : x y z
#
# Youngs Moduli (GPa) = 84.88758 60.35815 41.41195
#
# Poissons Ratio (x) = 0.35941 0.28035
# Poissons Ratio (y) = 0.50547 0.19456
# Poissons Ratio (z) = 0.57467 0.28357
#
# Static dielectric constant tensor:
#      x y z
#    x 3.716480 0.000000 0.000000 
#    y 0.000000 3.717030 0.000000 
#    z 0.000000 0.000000 3.420280 
# 
# 
# High freq. dielectric constant tensor:
#      x y z
#    x 1.769240 0.000000 0.000000 
#    y 0.000000 1.775180 0.000000 
#    z 0.000000 0.000000 1.737400 
# 
# From -- ./inp_files/27971.got.cif
#   From: 2010.03.12/outbox.cif.g09.slc.cpg/sg69_14_cif.got.tgz:27971.got - 2010.04.10 23:52:46.
