data_PCOD8284393
_publ_section_title
;
Structure prediction by ZEFSAII (Michael W. Deem and Ramdas Pophale) SiO2 
 PCOD8284393
Probable space group: F M M M
;
_chemical_formula_sum "Si O2"
_cell_formula_units_Z 120
_cell_length_a 14.561232
_cell_length_b 14.050890
_cell_length_c 26.695821
_cell_angle_alpha 90.000000
_cell_angle_beta 90.000000
_cell_angle_gamma 90.000000
_cell_volume 5461.918769
_symmetry_space_group_name_H-M "F M M M"
_symmetry_group_IT_number 69
_symmetry_cell_setting 'orthorhombic'
loop_
_space_group_symop_operation_xyz
x,y,z
-x,-y,z
x,-y,-z
-x,y,-z
-x,-y,-z
x,y,-z
-x,y,z
x,-y,z
x,1/2+y,1/2+z
-x,1/2-y,1/2+z
x,1/2-y,1/2-z
-x,1/2+y,1/2-z
-x,1/2-y,1/2-z
x,1/2+y,1/2-z
-x,1/2+y,1/2+z
x,1/2-y,1/2+z
1/2+x,y,1/2+z
1/2-x,-y,1/2+z
1/2+x,-y,1/2-z
1/2-x,y,1/2-z
1/2-x,-y,1/2-z
1/2+x,y,1/2-z
1/2-x,y,1/2+z
1/2+x,-y,1/2+z
1/2+x,1/2+y,z
1/2-x,1/2-y,z
1/2+x,1/2-y,-z
1/2-x,1/2+y,-z
1/2-x,1/2-y,-z
1/2+x,1/2+y,-z
1/2-x,1/2+y,z
1/2+x,1/2-y,z
loop_
_atom_site_type_symbol
_atom_site_label
_atom_site_fract_x
_atom_site_fract_y
_atom_site_fract_z
Si Si1 0.801197 0.389166 0.797583
Si Si2 0.000000 0.390702 0.173762
Si Si3 0.000000 0.214716 0.893296
Si Si4 0.301649 0.602898 0.000000
Si Si5 0.500000 0.657316 0.000000
Si Si6 0.187951 0.885751 0.108583
O O1 0.778612 0.500000 0.797251
O O2 0.750000 0.340991 0.750000
O O3 0.761459 0.349406 0.850230
O O4 0.909964 0.369787 0.792751
O O5 0.000000 0.500000 0.154289
O O6 0.000000 0.322136 0.126369
O O7 0.910343 0.156702 0.875257
O O8 0.000000 0.227581 0.952784
O O9 0.411977 0.589222 0.000000
O O10 0.277037 0.653308 0.946567
O O11 0.253814 0.500000 0.000000
O O12 0.178846 0.000000 0.105988
#
# Coordination Sequence:
#
# PCOD8284393 Si02
#       6
#    32  16  16  16   8  32
#     4   9  19  37  59  80 107 144 181 221 269 320
#     4  10  22  40  57  74 103 142 182 222 264 314
#     4  10  19  33  55  83 112 144 178 222 272 320
#     4   8  13  24  47  78 110 140 172 218 272 318
#     4   8  15  28  47  76 112 142 176 216 266 320
#     4   9  17  31  54  84 113 140 175 222 275 324
#
# _framework density 21.970300999999999
#
# number of rings (size 3 to 8) (size 9 to 14) (size 15 to 20)
#    0.000    2.933    0.000    0.600    0.000    5.333 
#    0.000    9.667    0.000    8.000    0.000    0.000 
#    0.000    0.000    0.000    0.000    0.000    0.000 
#
# Total GULP energy -371646.950061 kJ/mol
# GULP energy per Si atom -12388.231669 kJ/mol
# Density = 2.192030 g / cm^3
# Si number density = 21.970301 Si / 1000 Ang^3
#
#
#
# Elastic Constant Matrix: (Units=GPa)
#
#
# Indices 1 2 3 4 5 6 
#
# 1 146.1278 23.1621 84.6161 0.0000 0.0000 0.0000
# 2 23.1621 68.6703 16.1498 0.0000 0.0000 0.0000
# 3 84.6161 16.1498 186.9554 0.0000 0.0000 0.0000
# 4 0.0000 0.0000 0.0000 8.1733 0.0000 0.0000
# 5 0.0000 0.0000 0.0000 0.0000 29.7939 0.0000
# 6 0.0000 0.0000 0.0000 0.0000 0.0000 14.5344
#
#
#
# Elastic Compliance Matrix: (Units=1/GPa)
#
#
# Indices 1 2 3 4 5 6 
#
# 1 0.009607 -0.002264 -0.004152 0.000000 0.000000 0.000000
# 2 -0.002264 0.015398 -0.000306 0.000000 0.000000 0.000000
# 3 -0.004152 -0.000306 0.007255 0.000000 0.000000 0.000000
# 4 0.000000 0.000000 0.000000 0.122349 0.000000 0.000000
# 5 0.000000 0.000000 0.000000 0.000000 0.033564 0.000000
# 6 0.000000 0.000000 0.000000 0.000000 0.000000 0.068802
#
#
# Mechanical properties :
#
#
# Convention : Reuss Voigt Hill
#
# Bulk Modulus (GPa) = 53.14722 72.17882 62.66302
# Shear Modulus (GPa) = 18.07078 29.02201 23.54639
#
# Velocity S-wave (km/s) = 2.87105 3.63845 3.27729
# Velocity P-wave (km/s) = 5.93579 7.11163 6.55015
#
# Compressibility (1/GPa) = 0.01881566
#
# Stress axis : x y z
#
# Youngs Moduli (GPa) = 104.09496 64.94469 137.84263
#
# Poissons Ratio (x) = 0.14701 0.57238
# Poissons Ratio (y) = 0.23564 0.04212
# Poissons Ratio (z) = 0.43225 0.01984
#
# Static dielectric constant tensor:
#      x y z
#    x 3.885900 0.000000 0.000000 
#    y 0.000000 3.538160 0.000000 
#    z 0.000000 0.000000 4.336000 
# 
# 
# High freq. dielectric constant tensor:
#      x y z
#    x 1.851850 0.000000 0.000000 
#    y 0.000000 1.844740 0.000000 
#    z 0.000000 0.000000 1.865630 
# 
# From -- ./inp_files/45507.got.cif
#   From: 2010.03.12/outbox.cif.g09.slc.cpg/sg69_23_cif.got.tgz:45507.got - 2010.04.10 23:52:46.
