data_PCOD8284293
_publ_section_title
;
Structure prediction by ZEFSAII (Michael W. Deem and Ramdas Pophale) SiO2 
 PCOD8284293
Probable space group: F M M M
;
_chemical_formula_sum "Si O2"
_cell_formula_units_Z 192
_cell_length_a 18.883031
_cell_length_b 21.513296
_cell_length_c 25.386247
_cell_angle_alpha 90.000000
_cell_angle_beta 90.000000
_cell_angle_gamma 90.000000
_cell_volume 10312.813409
_symmetry_space_group_name_H-M "F M M M"
_symmetry_group_IT_number 69
_symmetry_cell_setting 'orthorhombic'
loop_
_space_group_symop_operation_xyz
x,y,z
-x,-y,z
x,-y,-z
-x,y,-z
-x,-y,-z
x,y,-z
-x,y,z
x,-y,z
x,1/2+y,1/2+z
-x,1/2-y,1/2+z
x,1/2-y,1/2-z
-x,1/2+y,1/2-z
-x,1/2-y,1/2-z
x,1/2+y,1/2-z
-x,1/2+y,1/2+z
x,1/2-y,1/2+z
1/2+x,y,1/2+z
1/2-x,-y,1/2+z
1/2+x,-y,1/2-z
1/2-x,y,1/2-z
1/2-x,-y,1/2-z
1/2+x,y,1/2-z
1/2-x,y,1/2+z
1/2+x,-y,1/2+z
1/2+x,1/2+y,z
1/2-x,1/2-y,z
1/2+x,1/2-y,-z
1/2-x,1/2+y,-z
1/2-x,1/2-y,-z
1/2+x,1/2+y,-z
1/2-x,1/2+y,z
1/2+x,1/2-y,z
loop_
_atom_site_type_symbol
_atom_site_label
_atom_site_fract_x
_atom_site_fract_y
_atom_site_fract_z
Si Si1 0.080226 0.500000 0.088838
Si Si2 0.084564 0.631186 0.751685
Si Si3 0.835076 0.309186 0.844927
Si Si4 0.083704 0.500000 0.795842
Si Si5 0.675040 0.834435 0.348428
Si Si6 0.187321 0.428669 0.560222
Si Si7 0.155770 0.886939 0.443480
O O1 0.119624 0.500000 0.146088
O O2 0.096529 0.560424 0.054928
O O3 0.000000 0.500000 0.104287
O O4 0.112333 0.678372 0.796442
O O5 0.108894 0.561469 0.765566
O O6 0.122427 0.645884 0.697334
O O7 0.000000 0.638899 0.746324
O O8 0.757667 0.337789 0.831083
O O9 0.837185 0.237451 0.861017
O O10 0.864319 0.339757 0.897866
O O11 0.000000 0.500000 0.798881
O O12 0.655346 0.878121 0.398738
O O13 0.162445 0.413771 0.500000
O O14 0.165707 0.500000 0.574901
O O15 0.271153 0.423018 0.565223
O O16 0.155834 0.851796 0.500000
#
# Coordination Sequence:
#
# PCOD8284293 Si02
#       7
#    16  32  32  16  32  32  32
#     4  11  19  32  50  74 113 150 181 220 270 321
#     4  11  22  38  58  80 109 144 182 222 271 325
#     4  10  21  38  53  79 116 145 178 224 269 312
#     4   9  20  35  52  76 107 140 175 224 269 313
#     4  10  22  36  57  82 109 144 181 222 270 326
#     4   9  18  34  56  81 108 136 176 231 277 315
#     4  10  19  32  52  77 107 146 185 217 259 320
#
# _framework density 18.617616000000002
#
# number of rings (size 3 to 8) (size 9 to 14) (size 15 to 20)
#    0.000    2.000    2.500    1.250    1.167    4.000 
#    0.000    4.167    0.000    0.500    0.000    3.500 
#    0.000    0.000    0.000    0.000    0.000    0.000 
#
# Total GULP energy -594868.611941 kJ/mol
# GULP energy per Si atom -12393.096082 kJ/mol
# Density = 1.857524 g / cm^3
# Si number density = 18.617616 Si / 1000 Ang^3
#
#
#
# Elastic Constant Matrix: (Units=GPa)
#
#
# Indices 1 2 3 4 5 6 
#
# 1 58.0802 31.8151 47.4114 0.0000 0.0000 0.0000
# 2 31.8151 110.4077 66.0676 0.0000 0.0000 0.0000
# 3 47.4114 66.0676 153.4331 0.0000 0.0000 0.0000
# 4 0.0000 0.0000 0.0000 95.4316 0.0000 0.0000
# 5 0.0000 0.0000 0.0000 0.0000 13.1127 0.0000
# 6 0.0000 0.0000 0.0000 0.0000 0.0000 21.0616
#
#
#
# Elastic Compliance Matrix: (Units=1/GPa)
#
#
# Indices 1 2 3 4 5 6 
#
# 1 0.023898 -0.003324 -0.005953 0.000000 0.000000 0.000000
# 2 -0.003324 0.012664 -0.004426 0.000000 0.000000 0.000000
# 3 -0.005953 -0.004426 0.010263 0.000000 0.000000 0.000000
# 4 0.000000 0.000000 0.000000 0.010479 0.000000 0.000000
# 5 0.000000 0.000000 0.000000 0.000000 0.076262 0.000000
# 6 0.000000 0.000000 0.000000 0.000000 0.000000 0.047480
#
#
# Mechanical properties :
#
#
# Convention : Reuss Voigt Hill
#
# Bulk Modulus (GPa) = 51.49774 68.05658 59.77716
# Shear Modulus (GPa) = 23.26404 37.69630 30.48017
#
# Velocity S-wave (km/s) = 3.53876 4.50462 4.05058
# Velocity P-wave (km/s) = 6.66468 7.98059 7.35213
#
# Compressibility (1/GPa) = 0.01941833
#
# Stress axis : x y z
#
# Youngs Moduli (GPa) = 41.84423 78.96690 97.43951
#
# Poissons Ratio (x) = 0.26249 0.58009
# Poissons Ratio (y) = 0.13909 0.43124
# Poissons Ratio (z) = 0.24911 0.34948
#
# Static dielectric constant tensor:
#      x y z
#    x 3.166970 0.000000 0.000000 
#    y 0.000000 3.471940 0.000000 
#    z 0.000000 0.000000 3.556650 
# 
# 
# High freq. dielectric constant tensor:
#      x y z
#    x 1.689850 0.000000 0.000000 
#    y 0.000000 1.726690 0.000000 
#    z 0.000000 0.000000 1.732600 
# 
# From -- ./inp_files/37381.got.cif
#   From: 2010.03.12/outbox.cif.g09.slc.cpg/sg69_19_cif.got.tgz:37381.got - 2010.04.10 23:52:46.
