data_PCOD8284483
_publ_section_title
;
Structure prediction by ZEFSAII (Michael W. Deem and Ramdas Pophale) SiO2 
 PCOD8284483
Probable space group: F M M M
;
_chemical_formula_sum "Si O2"
_cell_formula_units_Z 176
_cell_length_a 22.426034
_cell_length_b 18.816867
_cell_length_c 23.688720
_cell_angle_alpha 90.000000
_cell_angle_beta 90.000000
_cell_angle_gamma 90.000000
_cell_volume 9996.348448
_symmetry_space_group_name_H-M "F M M M"
_symmetry_group_IT_number 69
_symmetry_cell_setting 'orthorhombic'
loop_
_space_group_symop_operation_xyz
x,y,z
-x,-y,z
x,-y,-z
-x,y,-z
-x,-y,-z
x,y,-z
-x,y,z
x,-y,z
x,1/2+y,1/2+z
-x,1/2-y,1/2+z
x,1/2-y,1/2-z
-x,1/2+y,1/2-z
-x,1/2-y,1/2-z
x,1/2+y,1/2-z
-x,1/2+y,1/2+z
x,1/2-y,1/2+z
1/2+x,y,1/2+z
1/2-x,-y,1/2+z
1/2+x,-y,1/2-z
1/2-x,y,1/2-z
1/2-x,-y,1/2-z
1/2+x,y,1/2-z
1/2-x,y,1/2+z
1/2+x,-y,1/2+z
1/2+x,1/2+y,z
1/2-x,1/2-y,z
1/2+x,1/2-y,-z
1/2-x,1/2+y,-z
1/2-x,1/2-y,-z
1/2+x,1/2+y,-z
1/2-x,1/2+y,z
1/2+x,1/2-y,z
loop_
_atom_site_type_symbol
_atom_site_label
_atom_site_fract_x
_atom_site_fract_y
_atom_site_fract_z
Si Si1 0.340068 0.079531 0.066670
Si Si2 0.394247 0.165963 0.374347
Si Si3 0.228744 0.671371 0.566221
Si Si4 0.565653 0.833642 0.254790
Si Si5 0.000000 0.916464 0.066360
Si Si6 0.570627 0.828704 0.868474
O O1 0.280062 0.118198 0.087038
O O2 0.398690 0.120298 0.086775
O O3 0.339838 0.000000 0.091243
O O4 0.342629 0.079381 0.000000
O O5 0.329630 0.150230 0.399264
O O6 0.392873 0.144844 0.307664
O O7 0.441216 0.117888 0.407191
O O8 0.410729 0.248264 0.381620
O O9 0.214674 0.664293 0.500000
O O10 0.250000 0.750000 0.581762
O O11 0.500000 0.867008 0.265715
O O12 0.557963 0.750000 0.250000
O O13 0.591450 0.856804 0.193752
O O14 0.000000 0.000000 0.079363
O O15 0.000000 0.900795 0.000000
O O16 0.500000 0.835276 0.874608
#
# Coordination Sequence:
#
# PCOD8284483 Si02
#       6
#    32  32  32  32  16  32
#     4  10  22  39  56  79 115 149 177 222 278 323
#     4  11  18  35  59  81 106 146 186 223 270 324
#     4  10  20  34  55  81 107 142 190 227 259 317
#     4   8  15  30  54  82 110 138 176 223 271 319
#     4  11  24  36  49  80 117 139 173 234 287 324
#     4  10  19  34  59  87 110 140 181 226 269 323
#
# _framework density 17.606428999999999
#
# number of rings (size 3 to 8) (size 9 to 14) (size 15 to 20)
#    0.000    2.091    3.636    1.636    0.000    2.182 
#    0.000    4.545    0.000    1.091    0.000    0.000 
#    0.000    0.000    0.000    0.000    0.000    0.000 
#
# Total GULP energy -545461.672616 kJ/mol
# GULP energy per Si atom -12396.856196 kJ/mol
# Density = 1.756636 g / cm^3
# Si number density = 17.606429 Si / 1000 Ang^3
#
#
#
# Elastic Constant Matrix: (Units=GPa)
#
#
# Indices 1 2 3 4 5 6 
#
# 1 100.3923 41.5962 35.8799 0.0000 0.0000 0.0000
# 2 41.5962 99.4811 32.4893 0.0000 0.0000 0.0000
# 3 35.8799 32.4893 53.1526 0.0000 0.0000 0.0000
# 4 0.0000 0.0000 0.0000 15.5196 0.0000 0.0000
# 5 0.0000 0.0000 0.0000 0.0000 10.5796 0.0000
# 6 0.0000 0.0000 0.0000 0.0000 0.0000 19.3923
#
#
#
# Elastic Compliance Matrix: (Units=1/GPa)
#
#
# Indices 1 2 3 4 5 6 
#
# 1 0.014022 -0.003463 -0.007349 0.000000 0.000000 0.000000
# 2 -0.003463 0.013415 -0.005862 0.000000 0.000000 0.000000
# 3 -0.007349 -0.005862 0.027357 0.000000 0.000000 0.000000
# 4 0.000000 0.000000 0.000000 0.064435 0.000000 0.000000
# 5 0.000000 0.000000 0.000000 0.000000 0.094522 0.000000
# 6 0.000000 0.000000 0.000000 0.000000 0.000000 0.051567
#
#
# Mechanical properties :
#
#
# Convention : Reuss Voigt Hill
#
# Bulk Modulus (GPa) = 46.62684 52.55074 49.58879
# Shear Modulus (GPa) = 16.34982 18.63566 17.49274
#
# Velocity S-wave (km/s) = 3.05065 3.25692 3.15547
# Velocity P-wave (km/s) = 6.24091 6.63745 6.44223
#
# Compressibility (1/GPa) = 0.02144687
#
# Stress axis : x y z
#
# Youngs Moduli (GPa) = 71.31531 74.54546 36.55317
#
# Poissons Ratio (x) = 0.25816 0.26862
# Poissons Ratio (y) = 0.24698 0.21427
# Poissons Ratio (z) = 0.52407 0.43698
#
# Static dielectric constant tensor:
#      x y z
#    x 3.226140 0.000000 0.000000 
#    y 0.000000 3.225110 0.000000 
#    z 0.000000 0.000000 3.624610 
# 
# 
# High freq. dielectric constant tensor:
#      x y z
#    x 1.676160 0.000000 0.000000 
#    y 0.000000 1.662970 0.000000 
#    z 0.000000 0.000000 1.684840 
# 
# From -- ./inp_files/41814.got.cif
#   From: 2010.03.12/outbox.cif.g09.slc.cpg/sg69_21_cif.got.tgz:41814.got - 2010.04.10 23:52:46.
