data_PCOD8284039
_publ_section_title
;
Structure prediction by ZEFSAII (Michael W. Deem and Ramdas Pophale) SiO2 
 PCOD8284039
Probable space group: F M M M
;
_chemical_formula_sum "Si O2"
_cell_formula_units_Z 160
_cell_length_a 16.434363
_cell_length_b 27.754819
_cell_length_c 18.177342
_cell_angle_alpha 90.000000
_cell_angle_beta 90.000000
_cell_angle_gamma 90.000000
_cell_volume 8291.281366
_symmetry_space_group_name_H-M "F M M M"
_symmetry_group_IT_number 69
_symmetry_cell_setting 'orthorhombic'
loop_
_space_group_symop_operation_xyz
x,y,z
-x,-y,z
x,-y,-z
-x,y,-z
-x,-y,-z
x,y,-z
-x,y,z
x,-y,z
x,1/2+y,1/2+z
-x,1/2-y,1/2+z
x,1/2-y,1/2-z
-x,1/2+y,1/2-z
-x,1/2-y,1/2-z
x,1/2+y,1/2-z
-x,1/2+y,1/2+z
x,1/2-y,1/2+z
1/2+x,y,1/2+z
1/2-x,-y,1/2+z
1/2+x,-y,1/2-z
1/2-x,y,1/2-z
1/2-x,-y,1/2-z
1/2+x,y,1/2-z
1/2-x,y,1/2+z
1/2+x,-y,1/2+z
1/2+x,1/2+y,z
1/2-x,1/2-y,z
1/2+x,1/2-y,-z
1/2-x,1/2+y,-z
1/2-x,1/2-y,-z
1/2+x,1/2+y,-z
1/2-x,1/2+y,z
1/2+x,1/2-y,z
loop_
_atom_site_type_symbol
_atom_site_label
_atom_site_fract_x
_atom_site_fract_y
_atom_site_fract_z
Si Si1 0.240727 0.055023 0.415171
Si Si2 0.826401 0.121434 0.197978
Si Si3 0.904494 0.778291 0.176474
Si Si4 0.096324 0.691705 0.080805
Si Si5 0.593637 0.596278 0.337766
O O1 0.237934 0.071887 0.500000
O O2 0.305355 0.087490 0.370954
O O3 0.150450 0.058010 0.379569
O O4 0.269827 0.000000 0.409073
O O5 0.750000 0.130161 0.250000
O O6 0.856756 0.172136 0.166682
O O7 0.894700 0.095625 0.249291
O O8 0.880914 0.750000 0.250000
O O9 0.875782 0.743682 0.110316
O O10 0.000000 0.790006 0.175209
O O11 0.123936 0.648957 0.134710
O O12 0.000000 0.690755 0.077133
O O13 0.134461 0.683677 0.000000
O O14 0.500000 0.584927 0.357310
#
# Coordination Sequence:
#
# PCOD8284039 Si02
#       5
#    32  32  32  32  32
#     4  10  23  42  59  79 113 155 194 239 296 347
#     4  10  21  35  56  83 113 151 191 233 288 349
#     4  10  18  32  54  79 111 150 191 232 277 330
#     4   9  17  29  48  77 112 145 176 222 286 341
#     4  10  19  35  60  87 112 143 188 244 295 344
#
# _framework density 19.297378999999999
#
# number of rings (size 3 to 8) (size 9 to 14) (size 15 to 20)
#    0.000    2.200    2.000    1.200    0.000    6.400 
#    0.000    1.000    0.000    7.200    0.000    5.600 
#    0.000    0.000    0.000    0.000    0.000    0.000 
#
# Total GULP energy -495928.409620 kJ/mol
# GULP energy per Si atom -12398.210241 kJ/mol
# Density = 1.925346 g / cm^3
# Si number density = 19.297379 Si / 1000 Ang^3
#
#
#
# Elastic Constant Matrix: (Units=GPa)
#
#
# Indices 1 2 3 4 5 6 
#
# 1 44.2958 35.0759 31.0579 0.0000 0.0000 0.0000
# 2 35.0759 102.5581 47.7310 0.0000 0.0000 0.0000
# 3 31.0579 47.7310 120.5916 0.0000 0.0000 0.0000
# 4 0.0000 0.0000 0.0000 30.6316 0.0000 0.0000
# 5 0.0000 0.0000 0.0000 0.0000 20.9998 0.0000
# 6 0.0000 0.0000 0.0000 0.0000 0.0000 25.1743
#
#
#
# Elastic Compliance Matrix: (Units=1/GPa)
#
#
# Indices 1 2 3 4 5 6 
#
# 1 0.033230 -0.009049 -0.004977 0.000000 0.000000 0.000000
# 2 -0.009049 0.014416 -0.003376 0.000000 0.000000 0.000000
# 3 -0.004977 -0.003376 0.010910 0.000000 0.000000 0.000000
# 4 0.000000 0.000000 0.000000 0.032646 0.000000 0.000000
# 5 0.000000 0.000000 0.000000 0.000000 0.047620 0.000000
# 6 0.000000 0.000000 0.000000 0.000000 0.000000 0.039723
#
#
# Mechanical properties :
#
#
# Convention : Reuss Voigt Hill
#
# Bulk Modulus (GPa) = 42.09719 55.01945 48.55832
# Shear Modulus (GPa) = 22.59720 25.59985 24.09852
#
# Velocity S-wave (km/s) = 3.42570 3.64620 3.53767
# Velocity P-wave (km/s) = 6.12450 6.80438 6.47337
#
# Compressibility (1/GPa) = 0.02375456
#
# Stress axis : x y z
#
# Youngs Moduli (GPa) = 30.09297 69.36544 91.65678
#
# Poissons Ratio (x) = 0.62768 0.45615
# Poissons Ratio (y) = 0.27231 0.30940
# Poissons Ratio (z) = 0.14976 0.23415
#
# Static dielectric constant tensor:
#      x y z
#    x 3.393050 0.000000 0.000000 
#    y 0.000000 3.453660 0.000000 
#    z 0.000000 0.000000 3.828460 
# 
# 
# High freq. dielectric constant tensor:
#      x y z
#    x 1.728860 0.000000 0.000000 
#    y 0.000000 1.744730 0.000000 
#    z 0.000000 0.000000 1.753960 
# 
# From -- ./inp_files/23116.got.cif
#   From: 2010.03.12/outbox.cif.g09.slc.cpg/sg69_12_cif.got.tgz:23116.got - 2010.04.10 23:52:46.
