data_PCOD8284162
_publ_section_title
;
Structure prediction by ZEFSAII (Michael W. Deem and Ramdas Pophale) SiO2 
 PCOD8284162
Probable space group: F M M M
;
_chemical_formula_sum "Si O2"
_cell_formula_units_Z 144
_cell_length_a 29.507224
_cell_length_b 30.505960
_cell_length_c 8.724775
_cell_angle_alpha 90.000000
_cell_angle_beta 90.000000
_cell_angle_gamma 90.000000
_cell_volume 7853.573019
_symmetry_space_group_name_H-M "F M M M"
_symmetry_group_IT_number 69
_symmetry_cell_setting 'orthorhombic'
loop_
_space_group_symop_operation_xyz
x,y,z
-x,-y,z
x,-y,-z
-x,y,-z
-x,-y,-z
x,y,-z
-x,y,z
x,-y,z
x,1/2+y,1/2+z
-x,1/2-y,1/2+z
x,1/2-y,1/2-z
-x,1/2+y,1/2-z
-x,1/2-y,1/2-z
x,1/2+y,1/2-z
-x,1/2+y,1/2+z
x,1/2-y,1/2+z
1/2+x,y,1/2+z
1/2-x,-y,1/2+z
1/2+x,-y,1/2-z
1/2-x,y,1/2-z
1/2-x,-y,1/2-z
1/2+x,y,1/2-z
1/2-x,y,1/2+z
1/2+x,-y,1/2+z
1/2+x,1/2+y,z
1/2-x,1/2-y,z
1/2+x,1/2-y,-z
1/2-x,1/2+y,-z
1/2-x,1/2-y,-z
1/2+x,1/2+y,-z
1/2-x,1/2+y,z
1/2+x,1/2-y,z
loop_
_atom_site_type_symbol
_atom_site_label
_atom_site_fract_x
_atom_site_fract_y
_atom_site_fract_z
Si Si1 0.446979 0.000000 0.834766
Si Si2 0.797582 0.048958 0.679775
Si Si3 0.202507 0.296824 0.680780
Si Si4 0.357548 0.369743 0.320001
Si Si5 0.450018 0.593707 0.682404
O O1 0.435895 0.954251 0.746901
O O2 0.500000 0.000000 0.866386
O O3 0.421000 0.000000 0.000000
O O4 0.790960 0.048853 0.500000
O O5 0.750000 0.063884 0.750000
O O6 0.835378 0.084023 0.729254
O O7 0.811643 0.000000 0.737444
O O8 0.207606 0.292469 0.500000
O O9 0.189158 0.250000 0.750000
O O10 0.250000 0.313742 0.750000
O O11 0.163198 0.330625 0.722202
O O12 0.350407 0.360456 0.500000
O O13 0.410975 0.371543 0.274749
O O14 0.451754 0.587567 0.500000
O O15 0.500000 0.609129 0.741984
#
# Coordination Sequence:
#
# PCOD8284162 Si02
#       5
#    16  32  32  32  32
#     4   7  10  18  34  60  94 131 172 215 254 287
#     4   9  18  30  43  63  95 134 171 206 244 291
#     4  11  22  38  59  81 105 129 161 204 256 311
#     4  10  19  30  49  76 105 136 172 212 255 302
#     4   8  14  24  41  68 102 138 175 216 257 296
#
# _framework density 18.335604
#
# number of rings (size 3 to 8) (size 9 to 14) (size 15 to 20)
#    0.000    2.778    0.000    4.667    1.556    2.667 
#    0.000    0.000    0.000    1.333    0.000    0.000 
#    0.000    2.667    0.000    0.000    0.000    0.000 
#
# Total GULP energy -446053.974850 kJ/mol
# GULP energy per Si atom -12390.388190 kJ/mol
# Density = 1.829387 g / cm^3
# Si number density = 18.335604 Si / 1000 Ang^3
#
#
#
# Elastic Constant Matrix: (Units=GPa)
#
#
# Indices 1 2 3 4 5 6 
#
# 1 128.6813 69.3196 34.5104 0.0069 -0.0053 -0.0278
# 2 69.3196 93.5985 35.4858 -0.0149 -0.0075 -0.0279
# 3 34.5104 35.4858 58.7016 -0.0381 0.0001 -0.1522
# 4 0.0069 -0.0149 -0.0381 17.7769 0.0005 -0.0307
# 5 -0.0053 -0.0075 0.0001 0.0005 13.8294 0.0431
# 6 -0.0278 -0.0279 -0.1522 -0.0307 0.0431 -2.1364
#
#
#
# Elastic Compliance Matrix: (Units=1/GPa)
#
#
# Indices 1 2 3 4 5 6 
#
# 1 0.013185 -0.008856 -0.002398 -0.000017 0.000000 0.000116
# 2 -0.008856 0.019808 -0.006767 0.000006 0.000006 0.000338
# 3 -0.002398 -0.006767 0.022532 0.000041 0.000000 -0.001486
# 4 -0.000017 0.000006 0.000041 0.056251 0.000001 -0.000811
# 5 0.000000 0.000006 0.000000 0.000001 0.072305 0.001457
# 6 0.000116 0.000338 -0.001486 -0.000811 0.001457 -0.467944
#
#
# Mechanical properties :
#
#
# Convention : Reuss Voigt Hill
#
# Bulk Modulus (GPa) = 51.32453 62.17923 56.75188
# Shear Modulus (GPa) = -20.71874 15.33837 -2.69019
#
# Velocity S-wave (km/s) = -3.36515 2.89543 -1.21259
# Velocity P-wave (km/s) = 3.59909 6.72037 5.39059
#
# Compressibility (1/GPa) = 0.01948386
#
# Stress axis : x y z
#
# Youngs Moduli (GPa) = 75.84627 50.48419 44.38157
#
# Poissons Ratio (x) = 0.44707 0.10641
# Poissons Ratio (y) = 0.67166 0.30034
# Poissons Ratio (z) = 0.18185 0.34164
#
# Static dielectric constant tensor:
#      x y z
#    x 3.444650 0.000020 0.000030 
#    y 0.000020 3.442560 -0.000070 
#    z 0.000030 -0.000070 2.977000 
# 
# 
# High freq. dielectric constant tensor:
#      x y z
#    x 1.709470 0.000000 0.000000 
#    y 0.000000 1.698720 -0.000010 
#    z 0.000000 -0.000010 1.667250 
# 
# From -- ./inp_files/5575.got.cif
#   From: 2010.03.12/outbox.cif.g09.slc.cpg/sg69_3_cif.got.tgz:5575.got - 2010.04.10 23:52:46.
