data_PCOD8284893
_publ_section_title
;
Structure prediction by ZEFSAII (Michael W. Deem and Ramdas Pophale) SiO2 
 PCOD8284893
Probable space group: F M M M
;
_chemical_formula_sum "Si O2"
_cell_formula_units_Z 176
_cell_length_a 15.437345
_cell_length_b 21.702284
_cell_length_c 26.277958
_cell_angle_alpha 90.000000
_cell_angle_beta 90.000000
_cell_angle_gamma 90.000000
_cell_volume 8803.789839
_symmetry_space_group_name_H-M "F M M M"
_symmetry_group_IT_number 69
_symmetry_cell_setting 'orthorhombic'
loop_
_space_group_symop_operation_xyz
x,y,z
-x,-y,z
x,-y,-z
-x,y,-z
-x,-y,-z
x,y,-z
-x,y,z
x,-y,z
x,1/2+y,1/2+z
-x,1/2-y,1/2+z
x,1/2-y,1/2-z
-x,1/2+y,1/2-z
-x,1/2-y,1/2-z
x,1/2+y,1/2-z
-x,1/2+y,1/2+z
x,1/2-y,1/2+z
1/2+x,y,1/2+z
1/2-x,-y,1/2+z
1/2+x,-y,1/2-z
1/2-x,y,1/2-z
1/2-x,-y,1/2-z
1/2+x,y,1/2-z
1/2-x,y,1/2+z
1/2+x,-y,1/2+z
1/2+x,1/2+y,z
1/2-x,1/2-y,z
1/2+x,1/2-y,-z
1/2-x,1/2+y,-z
1/2-x,1/2-y,-z
1/2+x,1/2+y,-z
1/2-x,1/2+y,z
1/2+x,1/2-y,z
loop_
_atom_site_type_symbol
_atom_site_label
_atom_site_fract_x
_atom_site_fract_y
_atom_site_fract_z
Si Si1 0.902780 0.627832 0.300026
Si Si2 0.098340 0.756254 0.868057
Si Si3 0.755387 0.430809 0.635408
Si Si4 0.099744 0.629362 0.819234
Si Si5 0.000000 0.569753 0.560145
Si Si6 0.664812 0.349431 0.059925
O O1 0.892439 0.695915 0.322249
O O2 0.831069 0.583092 0.323846
O O3 0.887093 0.635765 0.240536
O O4 0.000000 0.601665 0.311072
O O5 0.133342 0.691505 0.847109
O O6 0.152824 0.780728 0.917037
O O7 0.000000 0.748477 0.886334
O O8 0.766864 0.500000 0.615507
O O9 0.661218 0.425205 0.661323
O O10 0.755935 0.384996 0.586520
O O11 0.000000 0.614618 0.832821
O O12 0.083044 0.608646 0.577898
O O13 0.000000 0.500000 0.582969
O O14 0.000000 0.565276 0.500000
O O15 0.678611 0.344690 0.000000
#
# Coordination Sequence:
#
# PCOD8284893 Si02
#       6
#    32  32  32  32  16  32
#     4   9  19  35  57  85 115 146 181 230 292 352
#     4   9  17  33  57  85 115 144 183 230 281 346
#     4  11  24  38  55  82 116 152 195 241 283 337
#     4  10  21  38  58  79 108 152 198 239 284 329
#     4   9  16  28  50  80 111 146 177 201 256 345
#     4  10  20  35  57  85 116 148 179 224 288 349
#
# _framework density 19.991389999999999
#
# number of rings (size 3 to 8) (size 9 to 14) (size 15 to 20)
#    0.000    2.273    0.909    1.636    1.273    8.364 
#    0.000    7.273    0.000    1.636    0.000    1.273 
#    0.000    0.000    0.000    0.000    0.000    0.000 
#
# Total GULP energy -545515.200657 kJ/mol
# GULP energy per Si atom -12398.072742 kJ/mol
# Density = 1.994589 g / cm^3
# Si number density = 19.991390 Si / 1000 Ang^3
#
#
#
# Elastic Constant Matrix: (Units=GPa)
#
#
# Indices 1 2 3 4 5 6 
#
# 1 77.9342 15.6944 43.3650 0.0000 0.0000 0.0000
# 2 15.6944 60.2033 27.5379 0.0000 0.0000 0.0000
# 3 43.3650 27.5379 116.5654 0.0000 0.0000 0.0000
# 4 0.0000 0.0000 0.0000 17.7602 0.0000 0.0000
# 5 0.0000 0.0000 0.0000 0.0000 20.4651 0.0000
# 6 0.0000 0.0000 0.0000 0.0000 0.0000 22.8367
#
#
#
# Elastic Compliance Matrix: (Units=1/GPa)
#
#
# Indices 1 2 3 4 5 6 
#
# 1 0.016327 -0.001657 -0.005683 0.000000 0.000000 0.000000
# 2 -0.001657 0.018791 -0.003823 0.000000 0.000000 0.000000
# 3 -0.005683 -0.003823 0.011596 0.000000 0.000000 0.000000
# 4 0.000000 0.000000 0.000000 0.056306 0.000000 0.000000
# 5 0.000000 0.000000 0.000000 0.000000 0.048864 0.000000
# 6 0.000000 0.000000 0.000000 0.000000 0.000000 0.043789
#
#
# Mechanical properties :
#
#
# Convention : Reuss Voigt Hill
#
# Bulk Modulus (GPa) = 41.00171 47.54419 44.27295
# Shear Modulus (GPa) = 22.11145 23.41942 22.76544
#
# Velocity S-wave (km/s) = 3.32934 3.42640 3.37822
# Velocity P-wave (km/s) = 5.94420 6.28391 6.11642
#
# Compressibility (1/GPa) = 0.02438923
#
# Stress axis : x y z
#
# Youngs Moduli (GPa) = 61.24830 53.21710 86.23637
#
# Poissons Ratio (x) = 0.08818 0.49004
# Poissons Ratio (y) = 0.10149 0.32967
# Poissons Ratio (z) = 0.34805 0.20344
#
# Static dielectric constant tensor:
#      x y z
#    x 3.640520 0.000000 0.000000 
#    y 0.000000 3.517220 0.000000 
#    z 0.000000 0.000000 3.528270 
# 
# 
# High freq. dielectric constant tensor:
#      x y z
#    x 1.772480 0.000000 0.000000 
#    y 0.000000 1.767110 0.000000 
#    z 0.000000 0.000000 1.775350 
# 
# From -- ./inp_files/17892.got.cif
#   From: 2010.03.12/outbox.cif.g09.slc.cpg/sg69_9_cif.got.tgz:17892.got - 2010.04.10 23:52:46.
