data_PCOD8284312
_publ_section_title
;
Structure prediction by ZEFSAII (Michael W. Deem and Ramdas Pophale) SiO2 
 PCOD8284312
Probable space group: F M M M
;
_chemical_formula_sum "Si O2"
_cell_formula_units_Z 208
_cell_length_a 18.447212
_cell_length_b 33.587514
_cell_length_c 17.706425
_cell_angle_alpha 90.000000
_cell_angle_beta 90.000000
_cell_angle_gamma 90.000000
_cell_volume 10970.829950
_symmetry_space_group_name_H-M "F M M M"
_symmetry_group_IT_number 69
_symmetry_cell_setting 'orthorhombic'
loop_
_space_group_symop_operation_xyz
x,y,z
-x,-y,z
x,-y,-z
-x,y,-z
-x,-y,-z
x,y,-z
-x,y,z
x,-y,z
x,1/2+y,1/2+z
-x,1/2-y,1/2+z
x,1/2-y,1/2-z
-x,1/2+y,1/2-z
-x,1/2-y,1/2-z
x,1/2+y,1/2-z
-x,1/2+y,1/2+z
x,1/2-y,1/2+z
1/2+x,y,1/2+z
1/2-x,-y,1/2+z
1/2+x,-y,1/2-z
1/2-x,y,1/2-z
1/2-x,-y,1/2-z
1/2+x,y,1/2-z
1/2-x,y,1/2+z
1/2+x,-y,1/2+z
1/2+x,1/2+y,z
1/2-x,1/2-y,z
1/2+x,1/2-y,-z
1/2-x,1/2+y,-z
1/2-x,1/2-y,-z
1/2+x,1/2+y,-z
1/2-x,1/2+y,z
1/2+x,1/2-y,z
loop_
_atom_site_type_symbol
_atom_site_label
_atom_site_fract_x
_atom_site_fract_y
_atom_site_fract_z
Si Si1 0.584233 0.453259 0.500000
Si Si2 0.582222 0.667155 0.912792
Si Si3 0.413691 0.746810 0.834552
Si Si4 0.849801 0.904363 0.365650
Si Si5 0.186353 0.593502 0.588272
Si Si6 0.414173 0.325059 0.584629
Si Si7 0.832908 0.043733 0.227386
O O1 0.598942 0.500000 0.500000
O O2 0.500000 0.442333 0.500000
O O3 0.620313 0.435055 0.573482
O O4 0.500000 0.656515 0.886986
O O5 0.613806 0.705328 0.869000
O O6 0.634322 0.630517 0.895784
O O7 0.582770 0.678801 0.000000
O O8 0.500000 0.747919 0.836910
O O9 0.383689 0.750000 0.750000
O O10 0.382143 0.784232 0.881281
O O11 0.766136 0.895147 0.383201
O O12 0.890568 0.862374 0.365013
O O13 0.867003 0.923976 0.284395
O O14 0.185519 0.580880 0.500000
O O15 0.157589 0.557332 0.640236
O O16 0.383319 0.330664 0.500000
O O17 0.500000 0.323095 0.583674
O O18 0.750000 0.039562 0.250000
O O19 0.869880 0.000000 0.235140
#
# Coordination Sequence:
#
# PCOD8284312 Si02
#       7
#    16  32  32  32  32  32  32
#     4  11  22  36  58  88 120 153 189 227 275 342
#     4   9  18  34  55  77 106 140 182 236 281 322
#     4   9  18  31  50  78 106 141 186 228 275 336
#     4  11  20  36  55  81 117 150 182 228 283 340
#     4  10  20  36  58  84 107 144 193 235 282 341
#     4  10  19  32  53  79 109 145 183 221 271 335
#     4   9  20  36  54  79 110 144 185 231 278 332
#
# _framework density 18.959368000000001
#
# number of rings (size 3 to 8) (size 9 to 14) (size 15 to 20)
#    0.000    2.231    1.538    1.385    2.154    2.769 
#    0.000    1.538    0.000    6.000    0.000    2.154 
#    0.000    0.000    0.000    0.000    0.000    0.000 
#
# Total GULP energy -644727.160768 kJ/mol
# GULP energy per Si atom -12398.599246 kJ/mol
# Density = 1.891622 g / cm^3
# Si number density = 18.959368 Si / 1000 Ang^3
#
#
#
# Elastic Constant Matrix: (Units=GPa)
#
#
# Indices 1 2 3 4 5 6 
#
# 1 45.5488 33.1050 19.8108 0.0000 0.0000 0.0000
# 2 33.1050 140.0876 72.6071 0.0000 0.0000 0.0000
# 3 19.8108 72.6071 125.5446 0.0000 0.0000 0.0000
# 4 0.0000 0.0000 0.0000 21.8890 0.0000 0.0000
# 5 0.0000 0.0000 0.0000 0.0000 14.5416 0.0000
# 6 0.0000 0.0000 0.0000 0.0000 0.0000 9.9748
#
#
#
# Elastic Compliance Matrix: (Units=1/GPa)
#
#
# Indices 1 2 3 4 5 6 
#
# 1 0.026564 -0.005862 -0.000801 0.000000 0.000000 0.000000
# 2 -0.005862 0.011488 -0.005719 0.000000 0.000000 0.000000
# 3 -0.000801 -0.005719 0.011399 0.000000 0.000000 0.000000
# 4 0.000000 0.000000 0.000000 0.045685 0.000000 0.000000
# 5 0.000000 0.000000 0.000000 0.000000 0.068768 0.000000
# 6 0.000000 0.000000 0.000000 0.000000 0.000000 0.100252
#
#
# Mechanical properties :
#
#
# Convention : Reuss Voigt Hill
#
# Bulk Modulus (GPa) = 40.50889 62.46966 51.48928
# Shear Modulus (GPa) = 16.82657 21.65830 19.24244
#
# Velocity S-wave (km/s) = 2.98234 3.38354 3.18925
# Velocity P-wave (km/s) = 5.76816 6.94876 6.38580
#
# Compressibility (1/GPa) = 0.02468594
#
# Stress axis : x y z
#
# Youngs Moduli (GPa) = 37.64552 87.04976 87.72605
#
# Poissons Ratio (x) = 0.51029 0.07031
# Poissons Ratio (y) = 0.22068 0.50168
# Poissons Ratio (z) = 0.03017 0.49781
#
# Static dielectric constant tensor:
#      x y z
#    x 3.232830 0.000000 0.000000 
#    y 0.000000 3.614200 0.000000 
#    z 0.000000 0.000000 3.659100 
# 
# 
# High freq. dielectric constant tensor:
#      x y z
#    x 1.700590 0.000000 0.000000 
#    y 0.000000 1.747660 0.000000 
#    z 0.000000 0.000000 1.745710 
# 
# From -- ./inp_files/25167.got.cif
#   From: 2010.03.12/outbox.cif.g09.slc.cpg/sg69_13_cif.got.tgz:25167.got - 2010.04.10 23:52:46.
