data_PCOD8284900
_publ_section_title
;
Structure prediction by ZEFSAII (Michael W. Deem and Ramdas Pophale) SiO2 
 PCOD8284900
Probable space group: F M M M
;
_chemical_formula_sum "Si O2"
_cell_formula_units_Z 160
_cell_length_a 18.784741
_cell_length_b 22.013967
_cell_length_c 18.285822
_cell_angle_alpha 90.000000
_cell_angle_beta 90.000000
_cell_angle_gamma 90.000000
_cell_volume 7561.675052
_symmetry_space_group_name_H-M "F M M M"
_symmetry_group_IT_number 69
_symmetry_cell_setting 'orthorhombic'
loop_
_space_group_symop_operation_xyz
x,y,z
-x,-y,z
x,-y,-z
-x,y,-z
-x,-y,-z
x,y,-z
-x,y,z
x,-y,z
x,1/2+y,1/2+z
-x,1/2-y,1/2+z
x,1/2-y,1/2-z
-x,1/2+y,1/2-z
-x,1/2-y,1/2-z
x,1/2+y,1/2-z
-x,1/2+y,1/2+z
x,1/2-y,1/2+z
1/2+x,y,1/2+z
1/2-x,-y,1/2+z
1/2+x,-y,1/2-z
1/2-x,y,1/2-z
1/2-x,-y,1/2-z
1/2+x,y,1/2-z
1/2-x,y,1/2+z
1/2+x,-y,1/2+z
1/2+x,1/2+y,z
1/2-x,1/2-y,z
1/2+x,1/2-y,-z
1/2-x,1/2+y,-z
1/2-x,1/2-y,-z
1/2+x,1/2+y,-z
1/2-x,1/2+y,z
1/2+x,1/2-y,z
loop_
_atom_site_type_symbol
_atom_site_label
_atom_site_fract_x
_atom_site_fract_y
_atom_site_fract_z
Si Si1 0.704192 0.803915 0.581502
Si Si2 0.804776 0.500000 0.913492
Si Si3 0.080966 0.310110 0.789908
Si Si4 0.159192 0.128210 0.417902
Si Si5 0.355866 0.500000 0.912002
Si Si6 0.081166 0.624052 0.351565
O O1 0.685202 0.781214 0.500000
O O2 0.750000 0.750000 0.620807
O O3 0.755282 0.862742 0.580534
O O4 0.629896 0.821210 0.618138
O O5 0.849977 0.440878 0.888930
O O6 0.724669 0.500000 0.881852
O O7 0.796433 0.500000 0.000000
O O8 0.112424 0.250000 0.750000
O O9 0.122666 0.323535 0.864595
O O10 0.086697 0.368797 0.736430
O O11 0.000000 0.297005 0.812504
O O12 0.127833 0.136606 0.500000
O O13 0.394932 0.441454 0.878972
O O14 0.362579 0.500000 0.000000
O O15 0.000000 0.635535 0.377289
#
# Coordination Sequence:
#
# PCOD8284900 Si02
#       6
#    32  16  32  32  16  32
#     4  10  20  35  57  87 121 160 208 259 309 367
#     4   9  18  36  61  88 124 164 203 261 318 361
#     4  10  23  43  63  88 127 168 209 264 326 380
#     4  10  20  38  64  91 120 161 214 265 315 376
#     4  11  21  39  63  92 134 177 211 255 315 382
#     4  11  23  38  59  91 130 169 209 256 315 383
#
# _framework density 21.159333
#
# number of rings (size 3 to 8) (size 9 to 14) (size 15 to 20)
#    0.000    1.800    2.000    2.100    0.000    4.000 
#    0.000    5.500    0.000   12.600    0.000    0.000 
#    0.000    0.000    0.000    0.000    0.000    0.000 
#
# Total GULP energy -495735.621032 kJ/mol
# GULP energy per Si atom -12393.390526 kJ/mol
# Density = 2.111117 g / cm^3
# Si number density = 21.159333 Si / 1000 Ang^3
#
#
#
# Elastic Constant Matrix: (Units=GPa)
#
#
# Indices 1 2 3 4 5 6 
#
# 1 106.9800 49.3587 54.8794 0.0000 0.0000 0.0000
# 2 49.3587 136.2764 48.9335 0.0000 0.0000 0.0000
# 3 54.8794 48.9335 99.4935 0.0000 0.0000 0.0000
# 4 0.0000 0.0000 0.0000 37.5474 0.0000 0.0000
# 5 0.0000 0.0000 0.0000 0.0000 33.3454 0.0000
# 6 0.0000 0.0000 0.0000 0.0000 0.0000 29.8234
#
#
#
# Elastic Compliance Matrix: (Units=1/GPa)
#
#
# Indices 1 2 3 4 5 6 
#
# 1 0.013841 -0.002759 -0.006277 0.000000 0.000000 0.000000
# 2 -0.002759 0.009462 -0.003132 0.000000 0.000000 0.000000
# 3 -0.006277 -0.003132 0.015054 0.000000 0.000000 0.000000
# 4 0.000000 0.000000 0.000000 0.026633 0.000000 0.000000
# 5 0.000000 0.000000 0.000000 0.000000 0.029989 0.000000
# 6 0.000000 0.000000 0.000000 0.000000 0.000000 0.033531
#
#
# Mechanical properties :
#
#
# Convention : Reuss Voigt Hill
#
# Bulk Modulus (GPa) = 71.32684 72.12145 71.72415
# Shear Modulus (GPa) = 31.74221 32.78178 32.26199
#
# Velocity S-wave (km/s) = 3.87738 3.94036 3.90900
# Velocity P-wave (km/s) = 7.33676 7.40681 7.37187
#
# Compressibility (1/GPa) = 0.01401997
#
# Stress axis : x y z
#
# Youngs Moduli (GPa) = 72.25056 105.68750 66.42859
#
# Poissons Ratio (x) = 0.29159 0.41700
# Poissons Ratio (y) = 0.19934 0.20804
# Poissons Ratio (z) = 0.45355 0.33099
#
# Static dielectric constant tensor:
#      x y z
#    x 3.668050 0.000000 0.000000 
#    y 0.000000 4.047390 0.000000 
#    z 0.000000 0.000000 3.619780 
# 
# 
# High freq. dielectric constant tensor:
#      x y z
#    x 1.815790 0.000000 0.000000 
#    y 0.000000 1.845820 0.000000 
#    z 0.000000 0.000000 1.809170 
# 
# From -- ./inp_files/24654.got.cif
#   From: 2010.03.12/outbox.cif.g09.slc.cpg/sg69_13_cif.got.tgz:24654.got - 2010.04.10 23:52:46.
