data_PCOD8284949
_publ_section_title
;
Structure prediction by ZEFSAII (Michael W. Deem and Ramdas Pophale) SiO2 
 PCOD8284949
Probable space group: F M M M
;
_chemical_formula_sum "Si O2"
_cell_formula_units_Z 176
_cell_length_a 19.040289
_cell_length_b 17.502037
_cell_length_c 27.479479
_cell_angle_alpha 90.000000
_cell_angle_beta 90.000000
_cell_angle_gamma 90.000000
_cell_volume 9157.367174
_symmetry_space_group_name_H-M "F M M M"
_symmetry_group_IT_number 69
_symmetry_cell_setting 'orthorhombic'
loop_
_space_group_symop_operation_xyz
x,y,z
-x,-y,z
x,-y,-z
-x,y,-z
-x,-y,-z
x,y,-z
-x,y,z
x,-y,z
x,1/2+y,1/2+z
-x,1/2-y,1/2+z
x,1/2-y,1/2-z
-x,1/2+y,1/2-z
-x,1/2-y,1/2-z
x,1/2+y,1/2-z
-x,1/2+y,1/2+z
x,1/2-y,1/2+z
1/2+x,y,1/2+z
1/2-x,-y,1/2+z
1/2+x,-y,1/2-z
1/2-x,y,1/2-z
1/2-x,-y,1/2-z
1/2+x,y,1/2-z
1/2-x,y,1/2+z
1/2+x,-y,1/2+z
1/2+x,1/2+y,z
1/2-x,1/2-y,z
1/2+x,1/2-y,-z
1/2-x,1/2+y,-z
1/2-x,1/2-y,-z
1/2+x,1/2+y,-z
1/2-x,1/2+y,z
1/2+x,1/2-y,z
loop_
_atom_site_type_symbol
_atom_site_label
_atom_site_fract_x
_atom_site_fract_y
_atom_site_fract_z
Si Si1 0.580171 0.175887 0.720873
Si Si2 0.148134 0.862715 0.881271
Si Si3 0.330177 0.727316 0.552416
Si Si4 0.192652 0.089874 0.387723
Si Si5 0.583227 0.000000 0.443066
Si Si6 0.423727 0.411275 0.313810
O O1 0.500000 0.192729 0.706131
O O2 0.610828 0.250000 0.750000
O O3 0.620094 0.150086 0.672735
O O4 0.588642 0.104730 0.757081
O O5 0.134337 0.782548 0.908265
O O6 0.228780 0.886248 0.874245
O O7 0.109805 0.926346 0.913720
O O8 0.367611 0.737477 0.500000
O O9 0.250000 0.750000 0.547874
O O10 0.334515 0.637673 0.566001
O O11 0.141964 0.119288 0.344499
O O12 0.187454 0.000000 0.399193
O O13 0.500000 0.000000 0.442442
O O14 0.609954 0.000000 0.500000
O O15 0.500000 0.375167 0.329708
O O16 0.427930 0.500000 0.322304
#
# Coordination Sequence:
#
# PCOD8284949 Si02
#       6
#    32  32  32  32  16  32
#     4  10  21  36  56  82 112 155 202 239 290 357
#     4  11  21  37  58  86 120 154 196 253 301 357
#     4   9  19  35  55  80 112 150 191 238 296 353
#     4  10  20  36  57  88 117 147 199 246 300 357
#     4  11  24  40  60  89 125 165 205 248 303 366
#     4   9  19  35  55  77 108 146 183 227 283 347
#
# _framework density 19.219498000000002
#
# number of rings (size 3 to 8) (size 9 to 14) (size 15 to 20)
#    0.000    2.091    0.909    2.182    1.273    1.818 
#    0.000    3.636    0.000    2.727    0.000    2.545 
#    0.000    0.000    0.000    0.000    0.000    0.000 
#
# Total GULP energy -545181.493346 kJ/mol
# GULP energy per Si atom -12390.488485 kJ/mol
# Density = 1.917575 g / cm^3
# Si number density = 19.219498 Si / 1000 Ang^3
#
#
#
# Elastic Constant Matrix: (Units=GPa)
#
#
# Indices 1 2 3 4 5 6 
#
# 1 91.4718 37.9439 61.9369 0.0000 0.0000 0.0000
# 2 37.9439 109.3150 60.4474 0.0000 0.0000 0.0000
# 3 61.9369 60.4474 147.6264 0.0000 0.0000 0.0000
# 4 0.0000 0.0000 0.0000 22.9429 0.0000 0.0000
# 5 0.0000 0.0000 0.0000 0.0000 12.1055 0.0000
# 6 0.0000 0.0000 0.0000 0.0000 0.0000 14.2426
#
#
#
# Elastic Compliance Matrix: (Units=1/GPa)
#
#
# Indices 1 2 3 4 5 6 
#
# 1 0.015720 -0.002339 -0.005638 0.000000 0.000000 0.000000
# 2 -0.002339 0.012173 -0.004003 0.000000 0.000000 0.000000
# 3 -0.005638 -0.004003 0.010778 0.000000 0.000000 0.000000
# 4 0.000000 0.000000 0.000000 0.043586 0.000000 0.000000
# 5 0.000000 0.000000 0.000000 0.000000 0.082607 0.000000
# 6 0.000000 0.000000 0.000000 0.000000 0.000000 0.070212
#
#
# Mechanical properties :
#
#
# Convention : Reuss Voigt Hill
#
# Bulk Modulus (GPa) = 67.97213 74.34108 71.15660
# Shear Modulus (GPa) = 18.94367 22.39720 20.67044
#
# Velocity S-wave (km/s) = 3.14291 3.41741 3.28303
# Velocity P-wave (km/s) = 6.97234 7.37127 7.17458
#
# Compressibility (1/GPa) = 0.01471191
#
# Stress axis : x y z
#
# Youngs Moduli (GPa) = 63.61365 82.14622 92.77953
#
# Poissons Ratio (x) = 0.19215 0.52305
# Poissons Ratio (y) = 0.14880 0.37141
# Poissons Ratio (z) = 0.35862 0.32885
#
# Static dielectric constant tensor:
#      x y z
#    x 3.743140 0.000000 0.000000 
#    y 0.000000 3.704680 0.000000 
#    z 0.000000 0.000000 3.716450 
# 
# 
# High freq. dielectric constant tensor:
#      x y z
#    x 1.734960 0.000000 0.000000 
#    y 0.000000 1.759370 0.000000 
#    z 0.000000 0.000000 1.750270 
# 
# From -- ./inp_files/26770.got.cif
#   From: 2010.03.12/outbox.cif.g09.slc.cpg/sg69_14_cif.got.tgz:26770.got - 2010.04.10 23:52:46.
