data_PCOD8284437
_publ_section_title
;
Structure prediction by ZEFSAII (Michael W. Deem and Ramdas Pophale) SiO2 
 PCOD8284437
Probable space group: F M M M
;
_chemical_formula_sum "Si O2"
_cell_formula_units_Z 176
_cell_length_a 27.334956
_cell_length_b 19.062846
_cell_length_c 17.177745
_cell_angle_alpha 90.000000
_cell_angle_beta 90.000000
_cell_angle_gamma 90.000000
_cell_volume 8951.014693
_symmetry_space_group_name_H-M "F M M M"
_symmetry_group_IT_number 69
_symmetry_cell_setting 'orthorhombic'
loop_
_space_group_symop_operation_xyz
x,y,z
-x,-y,z
x,-y,-z
-x,y,-z
-x,-y,-z
x,y,-z
-x,y,z
x,-y,z
x,1/2+y,1/2+z
-x,1/2-y,1/2+z
x,1/2-y,1/2-z
-x,1/2+y,1/2-z
-x,1/2-y,1/2-z
x,1/2+y,1/2-z
-x,1/2+y,1/2+z
x,1/2-y,1/2+z
1/2+x,y,1/2+z
1/2-x,-y,1/2+z
1/2+x,-y,1/2-z
1/2-x,y,1/2-z
1/2-x,-y,1/2-z
1/2+x,y,1/2-z
1/2-x,y,1/2+z
1/2+x,-y,1/2+z
1/2+x,1/2+y,z
1/2-x,1/2-y,z
1/2+x,1/2-y,-z
1/2-x,1/2+y,-z
1/2-x,1/2-y,-z
1/2+x,1/2+y,-z
1/2-x,1/2+y,z
1/2+x,1/2-y,z
loop_
_atom_site_type_symbol
_atom_site_label
_atom_site_fract_x
_atom_site_fract_y
_atom_site_fract_z
Si Si1 0.442350 0.177952 0.591641
Si Si2 0.000000 0.922229 0.406756
Si Si3 0.767425 0.082590 0.086413
Si Si4 0.166985 0.918777 0.658794
Si Si5 0.135771 0.918306 0.834762
Si Si6 0.913462 0.670223 0.909845
O O1 0.432469 0.166794 0.500000
O O2 0.500000 0.173886 0.609817
O O3 0.414486 0.118685 0.640748
O O4 0.420367 0.251571 0.623590
O O5 0.952940 0.882487 0.372376
O O6 0.000000 0.925224 0.500000
O O7 0.000000 0.000000 0.371230
O O8 0.724002 0.100497 0.146873
O O9 0.818845 0.114056 0.116243
O O10 0.773980 0.000000 0.082997
O O11 0.755812 0.112394 0.000000
O O12 0.149309 0.904648 0.745545
O O13 0.139239 0.863845 0.603630
O O14 0.157426 0.000000 0.633797
O O15 0.128281 0.000000 0.851519
O O16 0.925214 0.676559 0.000000
#
# Coordination Sequence:
#
# PCOD8284437 Si02
#       6
#    32  16  32  32  32  32
#     4  10  21  39  60  79 106 146 191 241 288 326
#     4   9  16  28  50  77 105 139 178 223 271 319
#     4   9  17  32  57  85 111 143 184 230 281 335
#     4  10  20  34  54  84 118 149 178 221 280 339
#     4  10  21  37  56  82 114 148 188 233 281 334
#     4  10  19  34  54  80 111 144 185 228 275 334
#
# _framework density 19.662576000000001
#
# number of rings (size 3 to 8) (size 9 to 14) (size 15 to 20)
#    0.000    2.273    0.909    2.182    0.000    6.182 
#    1.636    2.727    0.000    5.455    0.000    0.000 
#    0.000    0.000    0.000    0.000    0.000    0.000 
#
# Total GULP energy -545455.088779 kJ/mol
# GULP energy per Si atom -12396.706563 kJ/mol
# Density = 1.961782 g / cm^3
# Si number density = 19.662576 Si / 1000 Ang^3
#
#
#
# Elastic Constant Matrix: (Units=GPa)
#
#
# Indices 1 2 3 4 5 6 
#
# 1 119.8854 49.9874 27.8709 0.0000 0.0000 0.0000
# 2 49.9874 87.6952 29.7530 0.0000 0.0000 0.0000
# 3 27.8709 29.7530 51.9968 0.0000 0.0000 0.0000
# 4 0.0000 0.0000 0.0000 19.9977 0.0000 0.0000
# 5 0.0000 0.0000 0.0000 0.0000 28.0999 0.0000
# 6 0.0000 0.0000 0.0000 0.0000 0.0000 16.7745
#
#
#
# Elastic Compliance Matrix: (Units=1/GPa)
#
#
# Indices 1 2 3 4 5 6 
#
# 1 0.011293 -0.005439 -0.002941 0.000000 0.000000 0.000000
# 2 -0.005439 0.016770 -0.006680 0.000000 0.000000 0.000000
# 3 -0.002941 -0.006680 0.024631 0.000000 0.000000 0.000000
# 4 0.000000 0.000000 0.000000 0.050006 0.000000 0.000000
# 5 0.000000 0.000000 0.000000 0.000000 0.035587 0.000000
# 6 0.000000 0.000000 0.000000 0.000000 0.000000 0.059614
#
#
# Mechanical properties :
#
#
# Convention : Reuss Voigt Hill
#
# Bulk Modulus (GPa) = 44.30101 52.75556 48.52828
# Shear Modulus (GPa) = 21.22722 23.10550 22.16636
#
# Velocity S-wave (km/s) = 3.28925 3.43169 3.36123
# Velocity P-wave (km/s) = 6.08318 6.52616 6.30856
#
# Compressibility (1/GPa) = 0.02257285
#
# Stress axis : x y z
#
# Youngs Moduli (GPa) = 88.55068 59.62964 40.59962
#
# Poissons Ratio (x) = 0.32435 0.11939
# Poissons Ratio (y) = 0.48166 0.27122
# Poissons Ratio (z) = 0.26040 0.39835
#
# Static dielectric constant tensor:
#      x y z
#    x 3.671980 0.000000 0.000000 
#    y 0.000000 3.448450 0.000000 
#    z 0.000000 0.000000 3.409210 
# 
# 
# High freq. dielectric constant tensor:
#      x y z
#    x 1.776200 0.000000 0.000000 
#    y 0.000000 1.744490 0.000000 
#    z 0.000000 0.000000 1.749200 
# 
# From -- ./inp_files/26753.got.cif
#   From: 2010.03.12/outbox.cif.g09.slc.cpg/sg69_14_cif.got.tgz:26753.got - 2010.04.10 23:52:46.
