data_PCOD8284663
_publ_section_title
;
Structure prediction by ZEFSAII (Michael W. Deem and Ramdas Pophale) SiO2 
 PCOD8284663
Probable space group: F M M M
;
_chemical_formula_sum "Si O2"
_cell_formula_units_Z 208
_cell_length_a 23.924425
_cell_length_b 27.635285
_cell_length_c 17.226885
_cell_angle_alpha 90.000000
_cell_angle_beta 90.000000
_cell_angle_gamma 90.000000
_cell_volume 11389.698058
_symmetry_space_group_name_H-M "F M M M"
_symmetry_group_IT_number 69
_symmetry_cell_setting 'orthorhombic'
loop_
_space_group_symop_operation_xyz
x,y,z
-x,-y,z
x,-y,-z
-x,y,-z
-x,-y,-z
x,y,-z
-x,y,z
x,-y,z
x,1/2+y,1/2+z
-x,1/2-y,1/2+z
x,1/2-y,1/2-z
-x,1/2+y,1/2-z
-x,1/2-y,1/2-z
x,1/2+y,1/2-z
-x,1/2+y,1/2+z
x,1/2-y,1/2+z
1/2+x,y,1/2+z
1/2-x,-y,1/2+z
1/2+x,-y,1/2-z
1/2-x,y,1/2-z
1/2-x,-y,1/2-z
1/2+x,y,1/2-z
1/2-x,y,1/2+z
1/2+x,-y,1/2+z
1/2+x,1/2+y,z
1/2-x,1/2-y,z
1/2+x,1/2-y,-z
1/2-x,1/2+y,-z
1/2-x,1/2-y,-z
1/2+x,1/2+y,-z
1/2-x,1/2+y,z
1/2+x,1/2-y,z
loop_
_atom_site_type_symbol
_atom_site_label
_atom_site_fract_x
_atom_site_fract_y
_atom_site_fract_z
Si Si1 0.062364 0.500000 0.092582
Si Si2 0.865585 0.911588 0.588935
Si Si3 0.756517 0.555307 0.840793
Si Si4 0.138023 0.556355 0.409312
Si Si5 0.433952 0.232412 0.413511
Si Si6 0.934301 0.863110 0.831981
Si Si7 0.065135 0.331635 0.157893
O O1 0.094511 0.546916 0.124522
O O2 0.000000 0.500000 0.128058
O O3 0.059199 0.500000 0.000000
O O4 0.852610 0.922624 0.500000
O O5 0.806651 0.910130 0.632833
O O6 0.897692 0.861189 0.597110
O O7 0.771697 0.500000 0.861997
O O8 0.750000 0.562503 0.750000
O O9 0.700674 0.571050 0.885631
O O10 0.128666 0.567148 0.500000
O O11 0.126982 0.500000 0.390033
O O12 0.095449 0.587642 0.358010
O O13 0.410142 0.242332 0.500000
O O14 0.500000 0.227823 0.416168
O O15 0.410132 0.181533 0.382412
O O16 0.417697 0.275589 0.354461
O O17 0.920323 0.850061 0.743445
O O18 0.000000 0.870601 0.844381
O O19 0.000000 0.339220 0.137903
#
# Coordination Sequence:
#
# PCOD8284663 Si02
#       7
#    16  32  32  32  32  32  32
#     4   9  18  30  45  70 104 140 173 210 256 303
#     4  11  20  32  52  75 104 140 180 220 261 315
#     4  10  20  35  54  75 100 136 180 227 270 320
#     4  10  21  36  55  78 105 137 179 229 273 317
#     4   9  17  31  53  78 104 137 179 222 264 317
#     4  10  20  35  54  78 108 143 179 219 273 327
#     4  10  20  33  50  78 112 144 175 215 266 320
#
# _framework density 18.262117
#
# number of rings (size 3 to 8) (size 9 to 14) (size 15 to 20)
#    0.000    2.077    0.769    3.231    0.000    5.231 
#    1.385    0.769    0.000    0.923    0.000    6.462 
#    0.000    0.000    0.000    0.000    0.000    0.000 
#
# Total GULP energy -644858.284794 kJ/mol
# GULP energy per Si atom -12401.120861 kJ/mol
# Density = 1.822055 g / cm^3
# Si number density = 18.262117 Si / 1000 Ang^3
#
#
#
# Elastic Constant Matrix: (Units=GPa)
#
#
# Indices 1 2 3 4 5 6 
#
# 1 84.5394 47.7952 37.5511 0.0000 0.0000 0.0000
# 2 47.7952 101.5153 33.8708 0.0000 0.0000 0.0000
# 3 37.5511 33.8708 79.5363 0.0000 0.0000 0.0000
# 4 0.0000 0.0000 0.0000 32.5290 0.0000 0.0000
# 5 0.0000 0.0000 0.0000 0.0000 26.5631 0.0000
# 6 0.0000 0.0000 0.0000 0.0000 0.0000 10.9746
#
#
#
# Elastic Compliance Matrix: (Units=1/GPa)
#
#
# Indices 1 2 3 4 5 6 
#
# 1 0.018117 -0.006616 -0.005736 0.000000 0.000000 0.000000
# 2 -0.006616 0.013898 -0.002795 0.000000 0.000000 0.000000
# 3 -0.005736 -0.002795 0.016471 0.000000 0.000000 0.000000
# 4 0.000000 0.000000 0.000000 0.030742 0.000000 0.000000
# 5 0.000000 0.000000 0.000000 0.000000 0.037646 0.000000
# 6 0.000000 0.000000 0.000000 0.000000 0.000000 0.091119
#
#
# Mechanical properties :
#
#
# Convention : Reuss Voigt Hill
#
# Bulk Modulus (GPa) = 54.96804 56.00281 55.48542
# Shear Modulus (GPa) = 20.46225 23.77160 22.11692
#
# Velocity S-wave (km/s) = 3.35098 3.61181 3.48384
# Velocity P-wave (km/s) = 6.71840 6.93731 6.82873
#
# Compressibility (1/GPa) = 0.01819239
#
# Stress axis : x y z
#
# Youngs Moduli (GPa) = 55.19649 71.95164 60.71158
#
# Poissons Ratio (x) = 0.47603 0.34825
# Poissons Ratio (y) = 0.36518 0.16969
# Poissons Ratio (z) = 0.31661 0.20111
#
# Static dielectric constant tensor:
#      x y z
#    x 3.146570 0.000000 0.000000 
#    y 0.000000 3.378490 0.000000 
#    z 0.000000 0.000000 3.387590 
# 
# 
# High freq. dielectric constant tensor:
#      x y z
#    x 1.682920 0.000000 0.000000 
#    y 0.000000 1.703070 0.000000 
#    z 0.000000 0.000000 1.714460 
# 
# From -- ./inp_files/26124.got.cif
#   From: 2010.03.12/outbox.cif.g09.slc.cpg/sg69_14_cif.got.tgz:26124.got - 2010.04.10 23:52:46.
