data_PCOD8284152
_publ_section_title
;
Structure prediction by ZEFSAII (Michael W. Deem and Ramdas Pophale) SiO2 
 PCOD8284152
Probable space group: F M M M
;
_chemical_formula_sum "Si O2"
_cell_formula_units_Z 208
_cell_length_a 27.064645
_cell_length_b 17.331473
_cell_length_c 25.634731
_cell_angle_alpha 90.000000
_cell_angle_beta 90.000000
_cell_angle_gamma 90.000000
_cell_volume 12024.487476
_symmetry_space_group_name_H-M "F M M M"
_symmetry_group_IT_number 69
_symmetry_cell_setting 'orthorhombic'
loop_
_space_group_symop_operation_xyz
x,y,z
-x,-y,z
x,-y,-z
-x,y,-z
-x,-y,-z
x,y,-z
-x,y,z
x,-y,z
x,1/2+y,1/2+z
-x,1/2-y,1/2+z
x,1/2-y,1/2-z
-x,1/2+y,1/2-z
-x,1/2-y,1/2-z
x,1/2+y,1/2-z
-x,1/2+y,1/2+z
x,1/2-y,1/2+z
1/2+x,y,1/2+z
1/2-x,-y,1/2+z
1/2+x,-y,1/2-z
1/2-x,y,1/2-z
1/2-x,-y,1/2-z
1/2+x,y,1/2-z
1/2-x,y,1/2+z
1/2+x,-y,1/2+z
1/2+x,1/2+y,z
1/2-x,1/2-y,z
1/2+x,1/2-y,-z
1/2-x,1/2+y,-z
1/2-x,1/2-y,-z
1/2+x,1/2+y,-z
1/2-x,1/2+y,z
1/2+x,1/2-y,z
loop_
_atom_site_type_symbol
_atom_site_label
_atom_site_fract_x
_atom_site_fract_y
_atom_site_fract_z
Si Si1 0.685764 0.586024 0.630985
Si Si2 0.807557 0.234878 0.690899
Si Si3 0.056603 0.089416 0.059995
Si Si4 0.776310 0.912336 0.058686
Si Si5 0.861847 0.808082 0.902574
Si Si6 0.104929 0.143967 0.560169
Si Si7 0.000000 0.086921 0.561636
O O1 0.692547 0.500000 0.653854
O O2 0.680566 0.645447 0.678669
O O3 0.732662 0.612542 0.597055
O O4 0.637949 0.586151 0.594116
O O5 0.823348 0.250000 0.750000
O O6 0.750000 0.250000 0.681296
O O7 0.840947 0.290544 0.655003
O O8 0.089391 0.138878 0.100152
O O9 0.000000 0.111998 0.069887
O O10 0.065575 0.000000 0.071762
O O11 0.071054 0.108206 0.000000
O O12 0.821347 0.853978 0.064483
O O13 0.793993 0.000000 0.070464
O O14 0.755795 0.905914 0.000000
O O15 0.875860 0.730514 0.932655
O O16 0.109573 0.119694 0.500000
O O17 0.048484 0.134059 0.580084
O O18 0.000000 0.081280 0.500000
O O19 0.000000 0.000000 0.585210
#
# Coordination Sequence:
#
# PCOD8284152 Si02
#       7
#    32  32  32  32  32  32  16
#     4  10  20  35  53  77 104 135 173 206 255 319
#     4  10  21  40  57  74 102 133 171 228 278 308
#     4   9  18  32  51  78 114 149 175 208 256 310
#     4  10  19  30  47  75 112 145 170 202 246 308
#     4  11  20  32  52  76 103 138 182 217 255 315
#     4  10  20  30  48  75 105 141 173 209 250 297
#     4   9  18  32  46  66  98 135 175 209 241 286
#
# _framework density 17.298034999999999
#
# number of rings (size 3 to 8) (size 9 to 14) (size 15 to 20)
#    0.000    2.077    1.538    3.231    1.077    2.769 
#    0.000    5.385    0.000    0.462    0.000    0.000 
#    0.000    0.000    0.000    0.000    0.000    0.000 
#
# Total GULP energy -644786.850615 kJ/mol
# GULP energy per Si atom -12399.747127 kJ/mol
# Density = 1.725866 g / cm^3
# Si number density = 17.298035 Si / 1000 Ang^3
#
#
#
# Elastic Constant Matrix: (Units=GPa)
#
#
# Indices 1 2 3 4 5 6 
#
# 1 104.7471 45.3431 39.0718 0.0000 0.0000 0.0000
# 2 45.3431 93.7258 45.6628 0.0000 0.0000 0.0000
# 3 39.0718 45.6628 92.3988 0.0000 0.0000 0.0000
# 4 0.0000 0.0000 0.0000 17.4939 0.0000 0.0000
# 5 0.0000 0.0000 0.0000 0.0000 17.8966 0.0000
# 6 0.0000 0.0000 0.0000 0.0000 0.0000 30.0901
#
#
#
# Elastic Compliance Matrix: (Units=1/GPa)
#
#
# Indices 1 2 3 4 5 6 
#
# 1 0.012706 -0.004649 -0.003076 0.000000 0.000000 0.000000
# 2 -0.004649 0.015754 -0.005820 0.000000 0.000000 0.000000
# 3 -0.003076 -0.005820 0.014999 0.000000 0.000000 0.000000
# 4 0.000000 0.000000 0.000000 0.057163 0.000000 0.000000
# 5 0.000000 0.000000 0.000000 0.000000 0.055877 0.000000
# 6 0.000000 0.000000 0.000000 0.000000 0.000000 0.033234
#
#
# Mechanical properties :
#
#
# Convention : Reuss Voigt Hill
#
# Bulk Modulus (GPa) = 61.08230 61.22523 61.15377
# Shear Modulus (GPa) = 22.49441 23.81570 23.15505
#
# Velocity S-wave (km/s) = 3.61002 3.71453 3.66265
# Velocity P-wave (km/s) = 7.26393 7.33949 7.30181
#
# Compressibility (1/GPa) = 0.01637135
#
# Stress axis : x y z
#
# Youngs Moduli (GPa) = 78.70039 63.47723 66.67004
#
# Poissons Ratio (x) = 0.29509 0.20506
# Poissons Ratio (y) = 0.36586 0.38799
# Poissons Ratio (z) = 0.24206 0.36941
#
# Static dielectric constant tensor:
#      x y z
#    x 3.399560 0.000000 0.000000 
#    y 0.000000 3.314850 0.000000 
#    z 0.000000 0.000000 2.870810 
# 
# 
# High freq. dielectric constant tensor:
#      x y z
#    x 1.675980 0.000000 0.000000 
#    y 0.000000 1.681200 0.000000 
#    z 0.000000 0.000000 1.622160 
# 
# From -- ./inp_files/26978.got.cif
#   From: 2010.03.12/outbox.cif.g09.slc.cpg/sg69_14_cif.got.tgz:26978.got - 2010.04.10 23:52:46.
