data_PCOD8284457
_publ_section_title
;
Structure prediction by ZEFSAII (Michael W. Deem and Ramdas Pophale) SiO2 
 PCOD8284457
Probable space group: F M M M
;
_chemical_formula_sum "Si O2"
_cell_formula_units_Z 176
_cell_length_a 13.778906
_cell_length_b 27.205297
_cell_length_c 23.930681
_cell_angle_alpha 90.000000
_cell_angle_beta 90.000000
_cell_angle_gamma 90.000000
_cell_volume 8970.636655
_symmetry_space_group_name_H-M "F M M M"
_symmetry_group_IT_number 69
_symmetry_cell_setting 'orthorhombic'
loop_
_space_group_symop_operation_xyz
x,y,z
-x,-y,z
x,-y,-z
-x,y,-z
-x,-y,-z
x,y,-z
-x,y,z
x,-y,z
x,1/2+y,1/2+z
-x,1/2-y,1/2+z
x,1/2-y,1/2-z
-x,1/2+y,1/2-z
-x,1/2-y,1/2-z
x,1/2+y,1/2-z
-x,1/2+y,1/2+z
x,1/2-y,1/2+z
1/2+x,y,1/2+z
1/2-x,-y,1/2+z
1/2+x,-y,1/2-z
1/2-x,y,1/2-z
1/2-x,-y,1/2-z
1/2+x,y,1/2-z
1/2-x,y,1/2+z
1/2+x,-y,1/2+z
1/2+x,1/2+y,z
1/2-x,1/2-y,z
1/2+x,1/2-y,-z
1/2-x,1/2+y,-z
1/2-x,1/2-y,-z
1/2+x,1/2+y,-z
1/2-x,1/2+y,z
1/2+x,1/2-y,z
loop_
_atom_site_type_symbol
_atom_site_label
_atom_site_fract_x
_atom_site_fract_y
_atom_site_fract_z
Si Si1 0.892874 0.844705 0.228854
Si Si2 0.393328 0.942074 0.500000
Si Si3 0.257261 0.057139 0.090505
Si Si4 0.886650 0.355653 0.935359
Si Si5 0.166984 0.947230 0.792928
Si Si6 0.722004 0.193456 0.164784
O O1 0.902063 0.904290 0.230769
O O2 0.824070 0.833567 0.176131
O O3 0.852303 0.821576 0.286050
O O4 0.000000 0.822772 0.219095
O O5 0.500000 0.916950 0.500000
O O6 0.333891 0.925040 0.553870
O O7 0.406483 0.000000 0.500000
O O8 0.352541 0.088271 0.074436
O O9 0.224151 0.069723 0.152247
O O10 0.283299 0.000000 0.080575
O O11 0.823738 0.319999 0.895228
O O12 0.000000 0.351851 0.919634
O O13 0.869752 0.340179 0.000000
O O14 0.250000 0.957704 0.750000
O O15 0.111160 0.000000 0.802536
O O16 0.750000 0.250000 0.166804
#
# Coordination Sequence:
#
# PCOD8284457 Si02
#       6
#    32  16  32  32  32  32
#     4  11  21  37  64  94 121 154 199 246 301 363
#     4   9  18  32  53  81 118 165 209 246 286 339
#     4  10  19  35  58  87 126 166 207 249 292 354
#     4  11  23  40  64  91 121 161 205 253 313 371
#     4  10  19  34  56  83 123 165 197 234 286 350
#     4  11  24  43  63  86 119 154 199 257 311 367
#
# _framework density 19.619565999999999
#
# number of rings (size 3 to 8) (size 9 to 14) (size 15 to 20)
#    0.000    1.545    4.545    1.636    0.000    4.000 
#    0.000    2.727    0.000    5.455    0.000    0.000 
#    0.000    0.000    0.000    0.000    0.000    0.000 
#
# Total GULP energy -545232.384125 kJ/mol
# GULP energy per Si atom -12391.645094 kJ/mol
# Density = 1.957491 g / cm^3
# Si number density = 19.619566 Si / 1000 Ang^3
#
#
#
# Elastic Constant Matrix: (Units=GPa)
#
#
# Indices 1 2 3 4 5 6 
#
# 1 144.9841 48.3144 61.3433 0.0000 0.0000 0.0000
# 2 48.3144 119.0607 39.7227 0.0000 0.0000 0.0000
# 3 61.3433 39.7227 142.5905 0.0000 0.0000 0.0000
# 4 0.0000 0.0000 0.0000 25.1050 0.0000 0.0000
# 5 0.0000 0.0000 0.0000 0.0000 -7.2674 0.0000
# 6 0.0000 0.0000 0.0000 0.0000 0.0000 30.1076
#
#
#
# Elastic Compliance Matrix: (Units=1/GPa)
#
#
# Indices 1 2 3 4 5 6 
#
# 1 0.009127 -0.002639 -0.003191 0.000000 0.000000 0.000000
# 2 -0.002639 0.010023 -0.001657 0.000000 0.000000 0.000000
# 3 -0.003191 -0.001657 0.008848 0.000000 0.000000 0.000000
# 4 0.000000 0.000000 0.000000 0.039833 0.000000 0.000000
# 5 0.000000 0.000000 0.000000 0.000000 -0.137601 0.000000
# 6 0.000000 0.000000 0.000000 0.000000 0.000000 0.033214
#
#
# Mechanical properties :
#
#
# Convention : Reuss Voigt Hill
#
# Bulk Modulus (GPa) = 76.78682 78.37733 77.58207
# Shear Modulus (GPa) = -290.00482 26.73937 -131.63273
#
# Velocity S-wave (km/s) = -12.17107 3.69574 -8.19989
# Velocity P-wave (km/s) = 12.58135 7.63195 7.07262
#
# Compressibility (1/GPa) = 0.01302307
#
# Stress axis : x y z
#
# Youngs Moduli (GPa) = 109.56535 99.77323 113.02544
#
# Poissons Ratio (x) = 0.26330 0.36070
# Poissons Ratio (y) = 0.28914 0.18726
# Poissons Ratio (z) = 0.34966 0.16531
#
# Static dielectric constant tensor:
#      x y z
#    x 3.499890 0.000000 0.000000 
#    y 0.000000 3.780120 0.000000 
#    z 0.000000 0.000000 3.641920 
# 
# 
# High freq. dielectric constant tensor:
#      x y z
#    x 1.753950 0.000000 0.000000 
#    y 0.000000 1.758250 0.000000 
#    z 0.000000 0.000000 1.768650 
# 
# From -- ./inp_files/36061.got.cif
#   From: 2010.03.12/outbox.cif.g09.slc.cpg/sg69_19_cif.got.tgz:36061.got - 2010.04.10 23:52:46.
