data_PCOD8284929
_publ_section_title
;
Structure prediction by ZEFSAII (Michael W. Deem and Ramdas Pophale) SiO2 
 PCOD8284929
Probable space group: F M M M
;
_chemical_formula_sum "Si O2"
_cell_formula_units_Z 144
_cell_length_a 20.579730
_cell_length_b 29.130071
_cell_length_c 13.848760
_cell_angle_alpha 90.000000
_cell_angle_beta 90.000000
_cell_angle_gamma 90.000000
_cell_volume 8302.179229
_symmetry_space_group_name_H-M "F M M M"
_symmetry_group_IT_number 69
_symmetry_cell_setting 'orthorhombic'
loop_
_space_group_symop_operation_xyz
x,y,z
-x,-y,z
x,-y,-z
-x,y,-z
-x,-y,-z
x,y,-z
-x,y,z
x,-y,z
x,1/2+y,1/2+z
-x,1/2-y,1/2+z
x,1/2-y,1/2-z
-x,1/2+y,1/2-z
-x,1/2-y,1/2-z
x,1/2+y,1/2-z
-x,1/2+y,1/2+z
x,1/2-y,1/2+z
1/2+x,y,1/2+z
1/2-x,-y,1/2+z
1/2+x,-y,1/2-z
1/2-x,y,1/2-z
1/2-x,-y,1/2-z
1/2+x,y,1/2-z
1/2-x,y,1/2+z
1/2+x,-y,1/2+z
1/2+x,1/2+y,z
1/2-x,1/2-y,z
1/2+x,1/2-y,-z
1/2-x,1/2+y,-z
1/2-x,1/2-y,-z
1/2+x,1/2+y,-z
1/2-x,1/2+y,z
1/2+x,1/2-y,z
loop_
_atom_site_type_symbol
_atom_site_label
_atom_site_fract_x
_atom_site_fract_y
_atom_site_fract_z
Si Si1 0.851217 0.919192 0.207913
Si Si2 0.423038 0.236670 0.105592
Si Si3 0.423467 0.500000 0.891245
Si Si4 0.277745 0.053776 0.889312
Si Si5 0.076867 0.324632 0.278262
O O1 0.786130 0.918947 0.143830
O O2 0.837089 0.931511 0.320079
O O3 0.883046 0.869721 0.199016
O O4 0.901804 0.955173 0.165780
O O5 0.500000 0.236572 0.102031
O O6 0.401656 0.286483 0.144008
O O7 0.401052 0.194960 0.174052
O O8 0.392213 0.228763 0.000000
O O9 0.500000 0.500000 0.896649
O O10 0.393819 0.500000 0.000000
O O11 0.262758 0.000000 0.875959
O O12 0.295791 0.065642 0.000000
O O13 0.000000 0.335007 0.282088
#
# Coordination Sequence:
#
# PCOD8284929 Si02
#       5
#    32  32  16  32  32
#     4  11  19  34  53  76 104 134 169 214 257 297
#     4   8  15  30  49  70 100 136 170 202 241 298
#     4  11  22  33  49  77 111 139 159 194 256 317
#     4  10  20  36  56  72  92 134 187 223 248 288
#     4   9  18  30  49  78 106 132 163 202 253 311
#
# _framework density 17.344843000000001
#
# number of rings (size 3 to 8) (size 9 to 14) (size 15 to 20)
#    0.000    2.333    2.222    3.333    0.000    2.667 
#    0.000    2.222    0.000   13.333    0.000   12.444 
#    0.000    0.000    0.000    0.000    0.000    0.000 
#
# Total GULP energy -446314.464419 kJ/mol
# GULP energy per Si atom -12397.624012 kJ/mol
# Density = 1.730537 g / cm^3
# Si number density = 17.344843 Si / 1000 Ang^3
#
#
#
# Elastic Constant Matrix: (Units=GPa)
#
#
# Indices 1 2 3 4 5 6 
#
# 1 48.6318 33.4550 21.9714 0.0000 0.0000 0.0000
# 2 33.4550 121.6310 30.0267 0.0000 0.0000 0.0000
# 3 21.9714 30.0267 113.0641 0.0000 0.0000 0.0000
# 4 0.0000 0.0000 0.0000 22.5676 0.0000 0.0000
# 5 0.0000 0.0000 0.0000 0.0000 19.5526 0.0000
# 6 0.0000 0.0000 0.0000 0.0000 0.0000 9.9519
#
#
#
# Elastic Compliance Matrix: (Units=1/GPa)
#
#
# Indices 1 2 3 4 5 6 
#
# 1 0.026560 -0.006454 -0.003447 0.000000 0.000000 0.000000
# 2 -0.006454 0.010367 -0.001499 0.000000 0.000000 0.000000
# 3 -0.003447 -0.001499 0.009913 0.000000 0.000000 0.000000
# 4 0.000000 0.000000 0.000000 0.044311 0.000000 0.000000
# 5 0.000000 0.000000 0.000000 0.000000 0.051144 0.000000
# 6 0.000000 0.000000 0.000000 0.000000 0.000000 0.100483
#
#
# Mechanical properties :
#
#
# Convention : Reuss Voigt Hill
#
# Bulk Modulus (GPa) = 41.59991 50.47034 46.03513
# Shear Modulus (GPa) = 18.27533 23.60600 20.94067
#
# Velocity S-wave (km/s) = 3.24951 3.69315 3.47841
# Velocity P-wave (km/s) = 6.17375 6.88093 6.53691
#
# Compressibility (1/GPa) = 0.02403851
#
# Stress axis : x y z
#
# Youngs Moduli (GPa) = 37.65013 96.46047 100.88271
#
# Poissons Ratio (x) = 0.62260 0.34777
# Poissons Ratio (y) = 0.24301 0.15121
# Poissons Ratio (z) = 0.12979 0.14458
#
# Static dielectric constant tensor:
#      x y z
#    x 2.896300 0.000000 0.000000 
#    y 0.000000 3.121440 0.000000 
#    z 0.000000 0.000000 3.907730 
# 
# 
# High freq. dielectric constant tensor:
#      x y z
#    x 1.636810 0.000000 0.000000 
#    y 0.000000 1.667910 0.000000 
#    z 0.000000 0.000000 1.685360 
# 
# From -- ./inp_files/15529.got.cif
#   From: 2010.03.12/outbox.cif.g09.slc.cpg/sg69_8_cif.got.tgz:15529.got - 2010.04.10 23:52:46.
