data_PCOD8284057
_publ_section_title
;
Structure prediction by ZEFSAII (Michael W. Deem and Ramdas Pophale) SiO2 
 PCOD8284057
Probable space group: F M M M
;
_chemical_formula_sum "Si O2"
_cell_formula_units_Z 144
_cell_length_a 23.483266
_cell_length_b 17.542230
_cell_length_c 17.151888
_cell_angle_alpha 90.000000
_cell_angle_beta 90.000000
_cell_angle_gamma 90.000000
_cell_volume 7065.700594
_symmetry_space_group_name_H-M "F M M M"
_symmetry_group_IT_number 69
_symmetry_cell_setting 'orthorhombic'
loop_
_space_group_symop_operation_xyz
x,y,z
-x,-y,z
x,-y,-z
-x,y,-z
-x,-y,-z
x,y,-z
-x,y,z
x,-y,z
x,1/2+y,1/2+z
-x,1/2-y,1/2+z
x,1/2-y,1/2-z
-x,1/2+y,1/2-z
-x,1/2-y,1/2-z
x,1/2+y,1/2-z
-x,1/2+y,1/2+z
x,1/2-y,1/2+z
1/2+x,y,1/2+z
1/2-x,-y,1/2+z
1/2+x,-y,1/2-z
1/2-x,y,1/2-z
1/2-x,-y,1/2-z
1/2+x,y,1/2-z
1/2-x,y,1/2+z
1/2+x,-y,1/2+z
1/2+x,1/2+y,z
1/2-x,1/2-y,z
1/2+x,1/2-y,-z
1/2-x,1/2+y,-z
1/2-x,1/2-y,-z
1/2+x,1/2+y,-z
1/2-x,1/2+y,z
1/2+x,1/2-y,z
loop_
_atom_site_type_symbol
_atom_site_label
_atom_site_fract_x
_atom_site_fract_y
_atom_site_fract_z
Si Si1 0.877378 0.089116 0.091277
Si Si2 0.250947 0.584761 0.092535
Si Si3 0.064131 0.500000 0.093196
Si Si4 0.565248 0.273462 0.838215
Si Si5 0.865732 0.357211 0.908700
O O1 0.813468 0.112822 0.118865
O O2 0.920513 0.138253 0.144243
O O3 0.888592 0.000000 0.107643
O O4 0.887245 0.107037 0.000000
O O5 0.239146 0.500000 0.125022
O O6 0.199466 0.638393 0.123833
O O7 0.251905 0.581728 0.000000
O O8 0.095816 0.425204 0.126871
O O9 0.000000 0.500000 0.126193
O O10 0.063596 0.500000 0.000000
O O11 0.500000 0.257368 0.860835
O O12 0.577379 0.250000 0.750000
O O13 0.606812 0.223904 0.891711
O O14 0.862805 0.369805 0.000000
#
# Coordination Sequence:
#
# PCOD8284057 Si02
#       5
#    32  32  16  32  32
#     4   9  19  38  65  90 111 144 193 242 283 333
#     4   8  14  29  55  88 119 142 174 225 283 336
#     4   9  16  26  46  80 111 138 178 218 257 318
#     4  11  25  42  54  75 114 153 191 238 291 342
#     4  10  18  32  57  84 113 147 181 225 276 334
#
# _framework density 20.380144999999999
#
# number of rings (size 3 to 8) (size 9 to 14) (size 15 to 20)
#    0.000    2.556    1.111    2.667    0.000    4.000 
#    2.000    6.667    0.000    2.667    0.000    0.000 
#    0.000    0.000    0.000    0.000    0.000    0.000 
#
# Total GULP energy -446214.920388 kJ/mol
# GULP energy per Si atom -12394.858900 kJ/mol
# Density = 2.033376 g / cm^3
# Si number density = 20.380145 Si / 1000 Ang^3
#
#
#
# Elastic Constant Matrix: (Units=GPa)
#
#
# Indices 1 2 3 4 5 6 
#
# 1 91.6655 42.6158 31.1333 0.0000 0.0000 0.0000
# 2 42.6158 102.2724 27.4020 0.0000 0.0000 0.0000
# 3 31.1333 27.4020 30.1700 0.0000 0.0000 0.0000
# 4 0.0000 0.0000 0.0000 17.4578 0.0000 0.0000
# 5 0.0000 0.0000 0.0000 0.0000 11.8698 0.0000
# 6 0.0000 0.0000 0.0000 0.0000 0.0000 37.9029
#
#
#
# Elastic Compliance Matrix: (Units=1/GPa)
#
#
# Indices 1 2 3 4 5 6 
#
# 1 0.017581 -0.003258 -0.015183 0.000000 0.000000 0.000000
# 2 -0.003258 0.013526 -0.008924 0.000000 0.000000 0.000000
# 3 -0.015183 -0.008924 0.056918 0.000000 0.000000 0.000000
# 4 0.000000 0.000000 0.000000 0.057281 0.000000 0.000000
# 5 0.000000 0.000000 0.000000 0.000000 0.084248 0.000000
# 6 0.000000 0.000000 0.000000 0.000000 0.000000 0.026383
#
#
# Mechanical properties :
#
#
# Convention : Reuss Voigt Hill
#
# Bulk Modulus (GPa) = 30.03328 47.37891 38.70610
# Shear Modulus (GPa) = 15.53933 21.64320 18.59127
#
# Velocity S-wave (km/s) = 2.76429 3.26233 3.02358
# Velocity P-wave (km/s) = 4.99569 6.12278 5.58773
#
# Compressibility (1/GPa) = 0.03329639
#
# Stress axis : x y z
#
# Youngs Moduli (GPa) = 56.88116 73.93120 17.56903
#
# Poissons Ratio (x) = 0.24084 0.26675
# Poissons Ratio (y) = 0.18529 0.15678
# Poissons Ratio (z) = 0.86364 0.65973
#
# Static dielectric constant tensor:
#      x y z
#    x 4.052850 0.000000 0.000000 
#    y 0.000000 3.733040 0.000000 
#    z 0.000000 0.000000 3.110180 
# 
# 
# High freq. dielectric constant tensor:
#      x y z
#    x 1.812460 0.000000 0.000000 
#    y 0.000000 1.791600 0.000000 
#    z 0.000000 0.000000 1.739880 
# 
# From -- ./inp_files/25606.got.cif
#   From: 2010.03.12/outbox.cif.g09.slc.cpg/sg69_13_cif.got.tgz:25606.got - 2010.04.10 23:52:46.
