data_PCOD8284995
_publ_section_title
;
Structure prediction by ZEFSAII (Michael W. Deem and Ramdas Pophale) SiO2 
 PCOD8284995
Probable space group: F M M M
;
_chemical_formula_sum "Si O2"
_cell_formula_units_Z 128
_cell_length_a 14.087132
_cell_length_b 17.370243
_cell_length_c 23.030785
_cell_angle_alpha 90.000000
_cell_angle_beta 90.000000
_cell_angle_gamma 90.000000
_cell_volume 5635.561833
_symmetry_space_group_name_H-M "F M M M"
_symmetry_group_IT_number 69
_symmetry_cell_setting 'orthorhombic'
loop_
_space_group_symop_operation_xyz
x,y,z
-x,-y,z
x,-y,-z
-x,y,-z
-x,-y,-z
x,y,-z
-x,y,z
x,-y,z
x,1/2+y,1/2+z
-x,1/2-y,1/2+z
x,1/2-y,1/2-z
-x,1/2+y,1/2-z
-x,1/2-y,1/2-z
x,1/2+y,1/2-z
-x,1/2+y,1/2+z
x,1/2-y,1/2+z
1/2+x,y,1/2+z
1/2-x,-y,1/2+z
1/2+x,-y,1/2-z
1/2-x,y,1/2-z
1/2-x,-y,1/2-z
1/2+x,y,1/2-z
1/2-x,y,1/2+z
1/2+x,-y,1/2+z
1/2+x,1/2+y,z
1/2-x,1/2-y,z
1/2+x,1/2-y,-z
1/2-x,1/2+y,-z
1/2-x,1/2-y,-z
1/2+x,1/2+y,-z
1/2-x,1/2+y,z
1/2+x,1/2-y,z
loop_
_atom_site_type_symbol
_atom_site_label
_atom_site_fract_x
_atom_site_fract_y
_atom_site_fract_z
Si Si1 0.101519 0.873970 0.366932
Si Si2 0.607050 0.835527 0.262511
Si Si3 0.691284 0.913355 0.629063
Si Si4 0.141380 0.271253 0.563887
O O1 0.106684 0.880502 0.297817
O O2 0.196896 0.914888 0.390106
O O3 0.094246 0.785628 0.389439
O O4 0.000000 0.912766 0.386345
O O5 0.500000 0.833232 0.288631
O O6 0.645870 0.750000 0.250000
O O7 0.678608 0.878735 0.306270
O O8 0.631374 0.859523 0.585405
O O9 0.651308 0.000000 0.625572
O O10 0.093876 0.263718 0.500000
O O11 0.250000 0.250000 0.559665
#
# Coordination Sequence:
#
# PCOD8284995 Si02
#       4
#    32  32  32  32
#     4  10  21  37  60  87 118 160 209 251 291 349
#     4  10  20  36  60  86 116 157 202 246 296 359
#     4  11  23  37  59  92 128 161 194 244 311 371
#     4   9  19  37  60  84 113 157 210 254 292 346
#
# _framework density 22.712909
#
# number of rings (size 3 to 8) (size 9 to 14) (size 15 to 20)
#    0.000    2.000    2.500    0.750    0.000    5.000 
#    0.000    2.500    0.000    0.000    0.000   10.500 
#    0.000    0.000    0.000    0.000    0.000    0.000 
#
# Total GULP energy -396478.081074 kJ/mol
# GULP energy per Si atom -12389.940034 kJ/mol
# Density = 2.266121 g / cm^3
# Si number density = 22.712909 Si / 1000 Ang^3
#
#
#
# Elastic Constant Matrix: (Units=GPa)
#
#
# Indices 1 2 3 4 5 6 
#
# 1 96.4695 3.3114 12.4885 0.0000 0.0000 0.0000
# 2 3.3114 134.0798 32.0317 0.0000 0.0000 0.0000
# 3 12.4885 32.0317 111.8218 0.0000 0.0000 0.0000
# 4 0.0000 0.0000 0.0000 14.9742 0.0000 0.0000
# 5 0.0000 0.0000 0.0000 0.0000 -94.2985 0.0000
# 6 0.0000 0.0000 0.0000 0.0000 0.0000 8.9254
#
#
#
# Elastic Compliance Matrix: (Units=1/GPa)
#
#
# Indices 1 2 3 4 5 6 
#
# 1 0.010518 0.000022 -0.001181 0.000000 0.000000 0.000000
# 2 0.000022 0.008006 -0.002296 0.000000 0.000000 0.000000
# 3 -0.001181 -0.002296 0.009732 0.000000 0.000000 0.000000
# 4 0.000000 0.000000 0.000000 0.066781 0.000000 0.000000
# 5 0.000000 0.000000 0.000000 0.000000 -0.010605 0.000000
# 6 0.000000 0.000000 0.000000 0.000000 0.000000 0.112039
#
#
# Mechanical properties :
#
#
# Convention : Reuss Voigt Hill
#
# Bulk Modulus (GPa) = 46.84398 48.67048 47.75723
# Shear Modulus (GPa) = 23.75324 5.55620 14.65472
#
# Velocity S-wave (km/s) = 3.23740 1.56575 2.54286
# Velocity P-wave (km/s) = 5.88587 4.97432 5.44919
#
# Compressibility (1/GPa) = 0.02134746
#
# Stress axis : x y z
#
# Youngs Moduli (GPa) = 95.07417 124.90352 102.74984
#
# Poissons Ratio (x) = -0.00280 0.12136
# Poissons Ratio (y) = -0.00213 0.23590
# Poissons Ratio (z) = 0.11229 0.28677
#
# Static dielectric constant tensor:
#      x y z
#    x 4.324770 0.000000 0.000000 
#    y 0.000000 3.742050 0.000000 
#    z 0.000000 0.000000 4.172890 
# 
# 
# High freq. dielectric constant tensor:
#      x y z
#    x 1.904840 0.000000 0.000000 
#    y 0.000000 1.861580 0.000000 
#    z 0.000000 0.000000 1.876070 
# 
# From -- ./inp_files/36442.got.cif
#   From: 2010.03.12/outbox.cif.g09.slc.cpg/sg69_19_cif.got.tgz:36442.got - 2010.04.10 23:52:46.
