data_PCOD8284291
_publ_section_title
;
Structure prediction by ZEFSAII (Michael W. Deem and Ramdas Pophale) SiO2 
 PCOD8284291
Probable space group: F M M M
;
_chemical_formula_sum "Si O2"
_cell_formula_units_Z 160
_cell_length_a 8.672183
_cell_length_b 36.717989
_cell_length_c 25.640885
_cell_angle_alpha 90.000000
_cell_angle_beta 90.000000
_cell_angle_gamma 90.000000
_cell_volume 8164.701883
_symmetry_space_group_name_H-M "F M M M"
_symmetry_group_IT_number 69
_symmetry_cell_setting 'orthorhombic'
loop_
_space_group_symop_operation_xyz
x,y,z
-x,-y,z
x,-y,-z
-x,y,-z
-x,-y,-z
x,y,-z
-x,y,z
x,-y,z
x,1/2+y,1/2+z
-x,1/2-y,1/2+z
x,1/2-y,1/2-z
-x,1/2+y,1/2-z
-x,1/2-y,1/2-z
x,1/2+y,1/2-z
-x,1/2+y,1/2+z
x,1/2-y,1/2+z
1/2+x,y,1/2+z
1/2-x,-y,1/2+z
1/2+x,-y,1/2-z
1/2-x,y,1/2-z
1/2-x,-y,1/2-z
1/2+x,y,1/2-z
1/2-x,y,1/2+z
1/2+x,-y,1/2+z
1/2+x,1/2+y,z
1/2-x,1/2-y,z
1/2+x,1/2-y,-z
1/2-x,1/2+y,-z
1/2-x,1/2-y,-z
1/2+x,1/2+y,-z
1/2-x,1/2+y,z
1/2+x,1/2-y,z
loop_
_atom_site_type_symbol
_atom_site_label
_atom_site_fract_x
_atom_site_fract_y
_atom_site_fract_z
Si Si1 0.680610 0.789331 0.091655
Si Si2 0.317198 0.835989 0.500000
Si Si3 0.180816 0.330266 0.804258
Si Si4 0.316367 0.459042 0.897826
Si Si5 0.682913 0.908361 0.695105
Si Si6 0.683587 0.418746 0.000000
O O1 0.500000 0.788002 0.080965
O O2 0.750000 0.750000 0.081120
O O3 0.718739 0.801373 0.150644
O O4 0.755360 0.817522 0.052074
O O5 0.500000 0.833815 0.500000
O O6 0.256699 0.877391 0.500000
O O7 0.250000 0.315125 0.750000
O O8 0.256943 0.368467 0.819802
O O9 0.000000 0.336491 0.797082
O O10 0.500000 0.459615 0.899359
O O11 0.250535 0.500000 0.894898
O O12 0.257275 0.436766 0.847848
O O13 0.251051 0.439475 0.949386
O O14 0.500000 0.906989 0.697988
O O15 0.750000 0.921711 0.750000
O O16 0.500000 0.419344 0.000000
#
# Coordination Sequence:
#
# PCOD8284291 Si02
#       6
#    32  16  32  32  32  16
#     4  11  24  40  58  82 112 145 179 220 272 325
#     4  11  22  37  59  84 110 143 184 227 269 319
#     4  10  21  37  58  82 109 143 182 224 270 320
#     4   9  17  29  47  74 107 139 173 217 267 317
#     4  10  19  32  52  77 106 141 181 222 264 313
#     4   9  17  30  51  77 103 135 174 217 267 317
#
# _framework density 19.596551999999999
#
# number of rings (size 3 to 8) (size 9 to 14) (size 15 to 20)
#    0.000    2.000    0.000    5.100    0.000    6.800 
#    0.000    2.000    0.000    1.800    0.000    0.000 
#    0.000   12.800    0.000    0.000    0.000    0.000 
#
# Total GULP energy -496105.569641 kJ/mol
# GULP energy per Si atom -12402.639241 kJ/mol
# Density = 1.955195 g / cm^3
# Si number density = 19.596552 Si / 1000 Ang^3
#
#
#
# Elastic Constant Matrix: (Units=GPa)
#
#
# Indices 1 2 3 4 5 6 
#
# 1 71.3627 22.7842 34.1315 0.0000 0.0000 0.0000
# 2 22.7842 102.2976 46.4187 0.0000 0.0000 0.0000
# 3 34.1315 46.4187 113.6543 0.0000 0.0000 0.0000
# 4 0.0000 0.0000 0.0000 33.5483 0.0000 0.0000
# 5 0.0000 0.0000 0.0000 0.0000 19.1922 0.0000
# 6 0.0000 0.0000 0.0000 0.0000 0.0000 16.6630
#
#
#
# Elastic Compliance Matrix: (Units=1/GPa)
#
#
# Indices 1 2 3 4 5 6 
#
# 1 0.016618 -0.001764 -0.004270 0.000000 0.000000 0.000000
# 2 -0.001764 0.012186 -0.004448 0.000000 0.000000 0.000000
# 3 -0.004270 -0.004448 0.011898 0.000000 0.000000 0.000000
# 4 0.000000 0.000000 0.000000 0.029808 0.000000 0.000000
# 5 0.000000 0.000000 0.000000 0.000000 0.052104 0.000000
# 6 0.000000 0.000000 0.000000 0.000000 0.000000 0.060013
#
#
# Mechanical properties :
#
#
# Convention : Reuss Voigt Hill
#
# Bulk Modulus (GPa) = 50.66044 54.88703 52.77374
# Shear Modulus (GPa) = 23.79022 26.14605 24.96813
#
# Velocity S-wave (km/s) = 3.48803 3.65666 3.57334
# Velocity P-wave (km/s) = 6.49074 6.77477 6.63427
#
# Compressibility (1/GPa) = 0.01973927
#
# Stress axis : x y z
#
# Youngs Moduli (GPa) = 60.17407 82.05934 84.05119
#
# Poissons Ratio (x) = 0.14472 0.35893
# Poissons Ratio (y) = 0.10612 0.37382
# Poissons Ratio (z) = 0.25697 0.36496
#
# Static dielectric constant tensor:
#      x y z
#    x 3.378780 0.000000 0.000000 
#    y 0.000000 3.673520 0.000000 
#    z 0.000000 0.000000 3.833170 
# 
# 
# High freq. dielectric constant tensor:
#      x y z
#    x 1.744440 0.000000 0.000000 
#    y 0.000000 1.768120 0.000000 
#    z 0.000000 0.000000 1.781480 
# 
# From -- ./inp_files/44637.got.cif
#   From: 2010.03.12/outbox.cif.g09.slc.cpg/sg69_23_cif.got.tgz:44637.got - 2010.04.10 23:52:46.
