data_PCOD8284778
_publ_section_title
;
Structure prediction by ZEFSAII (Michael W. Deem and Ramdas Pophale) SiO2 
 PCOD8284778
Probable space group: F M M M
;
_chemical_formula_sum "Si O2"
_cell_formula_units_Z 160
_cell_length_a 17.049026
_cell_length_b 22.957797
_cell_length_c 22.660726
_cell_angle_alpha 90.000000
_cell_angle_beta 90.000000
_cell_angle_gamma 90.000000
_cell_volume 8869.591209
_symmetry_space_group_name_H-M "F M M M"
_symmetry_group_IT_number 69
_symmetry_cell_setting 'orthorhombic'
loop_
_space_group_symop_operation_xyz
x,y,z
-x,-y,z
x,-y,-z
-x,y,-z
-x,-y,-z
x,y,-z
-x,y,z
x,-y,z
x,1/2+y,1/2+z
-x,1/2-y,1/2+z
x,1/2-y,1/2-z
-x,1/2+y,1/2-z
-x,1/2-y,1/2-z
x,1/2+y,1/2-z
-x,1/2+y,1/2+z
x,1/2-y,1/2+z
1/2+x,y,1/2+z
1/2-x,-y,1/2+z
1/2+x,-y,1/2-z
1/2-x,y,1/2-z
1/2-x,-y,1/2-z
1/2+x,y,1/2-z
1/2-x,y,1/2+z
1/2+x,-y,1/2+z
1/2+x,1/2+y,z
1/2-x,1/2-y,z
1/2+x,1/2-y,-z
1/2-x,1/2+y,-z
1/2-x,1/2-y,-z
1/2+x,1/2+y,-z
1/2-x,1/2+y,z
1/2+x,1/2-y,z
loop_
_atom_site_type_symbol
_atom_site_label
_atom_site_fract_x
_atom_site_fract_y
_atom_site_fract_z
Si Si1 0.691369 0.345864 0.799304
Si Si2 0.360069 0.283618 0.000000
Si Si3 0.333551 0.134114 0.875456
Si Si4 0.589501 0.759609 0.373262
Si Si5 0.706302 0.654473 0.500000
Si Si6 0.590717 0.567431 0.275994
O O1 0.750000 0.318265 0.750000
O O2 0.744881 0.370342 0.851775
O O3 0.630617 0.299502 0.824428
O O4 0.643006 0.398960 0.771430
O O5 0.409638 0.287343 0.060759
O O6 0.320206 0.221009 0.000000
O O7 0.300613 0.338667 0.000000
O O8 0.365622 0.199095 0.868629
O O9 0.390424 0.089186 0.842362
O O10 0.327618 0.118710 0.944538
O O11 0.500000 0.750866 0.353936
O O12 0.500000 0.578833 0.262117
O O13 0.612373 0.500000 0.271497
#
# Coordination Sequence:
#
# PCOD8284778 Si02
#       6
#    32  16  32  32  16  32
#     4  10  21  34  53  77 104 141 180 217 259 312
#     4   9  17  30  52  76 108 144 171 205 254 312
#     4  10  20  34  55  78 108 143 176 216 260 316
#     4  11  20  32  51  82 115 141 174 212 264 317
#     4   9  16  32  53  77 106 138 174 208 255 307
#     4  10  22  40  57  75 101 135 178 228 276 316
#
# _framework density 18.039162999999999
#
# number of rings (size 3 to 8) (size 9 to 14) (size 15 to 20)
#    0.000    2.000    2.000    2.100    0.000    9.200 
#    0.000    7.000    0.000    1.200    0.000    0.700 
#    0.000    4.800    0.000    0.000    0.000    0.000 
#
# Total GULP energy -495825.331354 kJ/mol
# GULP energy per Si atom -12395.633284 kJ/mol
# Density = 1.799811 g / cm^3
# Si number density = 18.039163 Si / 1000 Ang^3
#
#
#
# Elastic Constant Matrix: (Units=GPa)
#
#
# Indices 1 2 3 4 5 6 
#
# 1 95.3687 54.7866 61.0329 0.0000 0.0000 0.0000
# 2 54.7866 77.9818 56.9078 0.0000 0.0000 0.0000
# 3 61.0329 56.9078 138.9732 0.0000 0.0000 0.0000
# 4 0.0000 0.0000 0.0000 5.2862 0.0000 0.0000
# 5 0.0000 0.0000 0.0000 0.0000 24.8535 0.0000
# 6 0.0000 0.0000 0.0000 0.0000 0.0000 20.1287
#
#
#
# Elastic Compliance Matrix: (Units=1/GPa)
#
#
# Indices 1 2 3 4 5 6 
#
# 1 0.019110 -0.010413 -0.004128 0.000000 0.000000 0.000000
# 2 -0.010413 0.023963 -0.005239 0.000000 0.000000 0.000000
# 3 -0.004128 -0.005239 0.011154 0.000000 0.000000 0.000000
# 4 0.000000 0.000000 0.000000 0.189173 0.000000 0.000000
# 5 0.000000 0.000000 0.000000 0.000000 0.040236 0.000000
# 6 0.000000 0.000000 0.000000 0.000000 0.000000 0.049680
#
#
# Mechanical properties :
#
#
# Convention : Reuss Voigt Hill
#
# Bulk Modulus (GPa) = 68.18921 73.08647 70.63784
# Shear Modulus (GPa) = 13.23576 19.36011 16.29793
#
# Velocity S-wave (km/s) = 2.71167 3.27957 3.00905
# Velocity P-wave (km/s) = 6.90557 7.41243 7.16349
#
# Compressibility (1/GPa) = 0.01466508
#
# Stress axis : x y z
#
# Youngs Moduli (GPa) = 52.32993 41.73176 89.65245
#
# Poissons Ratio (x) = 0.43454 0.37012
# Poissons Ratio (y) = 0.54490 0.46972
# Poissons Ratio (z) = 0.21604 0.21865
#
# Static dielectric constant tensor:
#      x y z
#    x 3.439560 0.000000 0.000000 
#    y 0.000000 2.976130 0.000000 
#    z 0.000000 0.000000 3.669680 
# 
# 
# High freq. dielectric constant tensor:
#      x y z
#    x 1.708760 0.000000 0.000000 
#    y 0.000000 1.656660 0.000000 
#    z 0.000000 0.000000 1.711460 
# 
# From -- ./inp_files/24916.got.cif
#   From: 2010.03.12/outbox.cif.g09.slc.cpg/sg69_13_cif.got.tgz:24916.got - 2010.04.10 23:52:46.
