data_PCOD8284808
_publ_section_title
;
Structure prediction by ZEFSAII (Michael W. Deem and Ramdas Pophale) SiO2 
 PCOD8284808
Probable space group: F M M M
;
_chemical_formula_sum "Si O2"
_cell_formula_units_Z 176
_cell_length_a 18.727396
_cell_length_b 17.602276
_cell_length_c 26.973377
_cell_angle_alpha 90.000000
_cell_angle_beta 90.000000
_cell_angle_gamma 90.000000
_cell_volume 8891.633282
_symmetry_space_group_name_H-M "F M M M"
_symmetry_group_IT_number 69
_symmetry_cell_setting 'orthorhombic'
loop_
_space_group_symop_operation_xyz
x,y,z
-x,-y,z
x,-y,-z
-x,y,-z
-x,-y,-z
x,y,-z
-x,y,z
x,-y,z
x,1/2+y,1/2+z
-x,1/2-y,1/2+z
x,1/2-y,1/2-z
-x,1/2+y,1/2-z
-x,1/2-y,1/2-z
x,1/2+y,1/2-z
-x,1/2+y,1/2+z
x,1/2-y,1/2+z
1/2+x,y,1/2+z
1/2-x,-y,1/2+z
1/2+x,-y,1/2-z
1/2-x,y,1/2-z
1/2-x,-y,1/2-z
1/2+x,y,1/2-z
1/2-x,y,1/2+z
1/2+x,-y,1/2+z
1/2+x,1/2+y,z
1/2-x,1/2-y,z
1/2+x,1/2-y,-z
1/2-x,1/2+y,-z
1/2-x,1/2-y,-z
1/2+x,1/2+y,-z
1/2-x,1/2+y,z
1/2+x,1/2-y,z
loop_
_atom_site_type_symbol
_atom_site_label
_atom_site_fract_x
_atom_site_fract_y
_atom_site_fract_z
Si Si1 0.083132 0.086968 0.136090
Si Si2 0.163108 0.165745 0.585017
Si Si3 0.824820 0.336197 0.441223
Si Si4 0.082486 0.412596 0.831274
Si Si5 0.578773 0.088891 0.000000
Si Si6 0.582963 0.829978 0.267510
O O1 0.122475 0.104397 0.084478
O O2 0.115286 0.139361 0.180538
O O3 0.000000 0.103060 0.127712
O O4 0.096555 0.000000 0.150867
O O5 0.146607 0.252424 0.571225
O O6 0.246889 0.149774 0.581298
O O7 0.134142 0.144737 0.639293
O O8 0.121179 0.111468 0.548449
O O9 0.823747 0.349418 0.500000
O O10 0.103360 0.500000 0.841204
O O11 0.094620 0.394737 0.773560
O O12 0.000000 0.397663 0.846359
O O13 0.500000 0.126775 0.000000
O O14 0.570255 0.000000 0.000000
O O15 0.500000 0.815258 0.277121
O O16 0.618540 0.750000 0.250000
#
# Coordination Sequence:
#
# PCOD8284808 Si02
#       6
#    32  32  32  32  16  32
#     4  10  22  39  59  86 118 150 193 248 294 338
#     4  11  21  40  58  82 117 152 192 240 287 344
#     4  11  23  42  61  80 110 157 204 244 294 341
#     4  10  20  34  57  90 124 154 186 231 291 359
#     4  11  22  35  56  86 118 149 184 229 284 344
#     4   9  17  33  58  87 117 152 191 233 290 350
#
# _framework density 19.793887999999999
#
# number of rings (size 3 to 8) (size 9 to 14) (size 15 to 20)
#    0.000    1.727    1.818    3.273    0.000    8.727 
#    0.000    1.818    0.000    5.455    0.000    0.000 
#    0.000    0.000    0.000    0.000    0.000    0.000 
#
# Total GULP energy -545647.308511 kJ/mol
# GULP energy per Si atom -12401.075193 kJ/mol
# Density = 1.974884 g / cm^3
# Si number density = 19.793888 Si / 1000 Ang^3
#
#
#
# Elastic Constant Matrix: (Units=GPa)
#
#
# Indices 1 2 3 4 5 6 
#
# 1 62.2677 46.7377 40.6800 0.0000 0.0000 0.0000
# 2 46.7377 82.3023 40.4882 0.0000 0.0000 0.0000
# 3 40.6800 40.4882 106.4254 0.0000 0.0000 0.0000
# 4 0.0000 0.0000 0.0000 36.3239 0.0000 0.0000
# 5 0.0000 0.0000 0.0000 0.0000-1046.7814 0.0000
# 6 0.0000 0.0000 0.0000 0.0000 0.0000 26.6519
#
#
#
# Elastic Compliance Matrix: (Units=1/GPa)
#
#
# Indices 1 2 3 4 5 6 
#
# 1 0.031143 -0.014553 -0.006368 0.000000 0.000000 0.000000
# 2 -0.014553 0.021748 -0.002711 0.000000 0.000000 0.000000
# 3 -0.006368 -0.002711 0.012862 0.000000 0.000000 0.000000
# 4 0.000000 0.000000 0.000000 0.027530 0.000000 0.000000
# 5 0.000000 0.000000 0.000000 0.000000 -0.000955 0.000000
# 6 0.000000 0.000000 0.000000 0.000000 0.000000 0.037521
#
#
# Mechanical properties :
#
#
# Convention : Reuss Voigt Hill
#
# Bulk Modulus (GPa) = 54.08455 56.31192 55.19824
# Shear Modulus (GPa) = 27.28135 -188.55516 -80.63690
#
# Velocity S-wave (km/s) = 3.71654 -9.77067 -6.38958
# Velocity P-wave (km/s) = 6.76757 9.93867 5.14671
#
# Compressibility (1/GPa) = 0.01848957
#
# Stress axis : x y z
#
# Youngs Moduli (GPa) = 32.10989 45.98041 77.75045
#
# Poissons Ratio (x) = 0.66915 0.49509
# Poissons Ratio (y) = 0.46729 0.21080
# Poissons Ratio (z) = 0.20446 0.12466
#
# Static dielectric constant tensor:
#      x y z
#    x 3.411150 0.000000 0.000000 
#    y 0.000000 3.702540 0.000000 
#    z 0.000000 0.000000 3.487680 
# 
# 
# High freq. dielectric constant tensor:
#      x y z
#    x 1.745780 0.000000 0.000000 
#    y 0.000000 1.779140 0.000000 
#    z 0.000000 0.000000 1.780940 
# 
# From -- ./inp_files/41805.got.cif
#   From: 2010.03.12/outbox.cif.g09.slc.cpg/sg69_21_cif.got.tgz:41805.got - 2010.04.10 23:52:46.
