data_PCOD8284013
_publ_section_title
;
Structure prediction by ZEFSAII (Michael W. Deem and Ramdas Pophale) SiO2 
 PCOD8284013
Probable space group: F M M M
;
_chemical_formula_sum "Si O2"
_cell_formula_units_Z 192
_cell_length_a 16.301032
_cell_length_b 17.912805
_cell_length_c 31.914681
_cell_angle_alpha 90.000000
_cell_angle_beta 90.000000
_cell_angle_gamma 90.000000
_cell_volume 9318.997731
_symmetry_space_group_name_H-M "F M M M"
_symmetry_group_IT_number 69
_symmetry_cell_setting 'orthorhombic'
loop_
_space_group_symop_operation_xyz
x,y,z
-x,-y,z
x,-y,-z
-x,y,-z
-x,-y,-z
x,y,-z
-x,y,z
x,-y,z
x,1/2+y,1/2+z
-x,1/2-y,1/2+z
x,1/2-y,1/2-z
-x,1/2+y,1/2-z
-x,1/2-y,1/2-z
x,1/2+y,1/2-z
-x,1/2+y,1/2+z
x,1/2-y,1/2+z
1/2+x,y,1/2+z
1/2-x,-y,1/2+z
1/2+x,-y,1/2-z
1/2-x,y,1/2-z
1/2-x,-y,1/2-z
1/2+x,y,1/2-z
1/2-x,y,1/2+z
1/2+x,-y,1/2+z
1/2+x,1/2+y,z
1/2-x,1/2-y,z
1/2+x,1/2-y,-z
1/2-x,1/2+y,-z
1/2-x,1/2-y,-z
1/2+x,1/2+y,-z
1/2-x,1/2+y,z
1/2+x,1/2-y,z
loop_
_atom_site_type_symbol
_atom_site_label
_atom_site_fract_x
_atom_site_fract_y
_atom_site_fract_z
Si Si1 0.094706 0.087203 0.190911
Si Si2 0.643908 0.343701 0.894878
Si Si3 0.902831 0.313454 0.139060
Si Si4 0.000000 0.911194 0.049865
Si Si5 0.687498 0.412129 0.581545
Si Si6 0.591379 0.587971 0.500000
Si Si7 0.590060 0.830042 0.769262
O O1 0.140032 0.117105 0.150188
O O2 0.135092 0.118533 0.234206
O O3 0.000000 0.113731 0.188086
O O4 0.104180 0.000000 0.191596
O O5 0.635670 0.255278 0.887024
O O6 0.578424 0.374623 0.928100
O O7 0.731198 0.362964 0.914608
O O8 0.877159 0.391116 0.117744
O O9 0.864700 0.320964 0.186027
O O10 0.000000 0.301884 0.140515
O O11 0.000000 0.000000 0.057996
O O12 0.000000 0.893913 0.000000
O O13 0.707771 0.500000 0.582872
O O14 0.643375 0.385715 0.539438
O O15 0.580668 0.500000 0.500000
O O16 0.500000 0.624654 0.500000
O O17 0.500000 0.865381 0.777844
O O18 0.580535 0.750000 0.750000
#
# Coordination Sequence:
#
# PCOD8284013 Si02
#       7
#    32  32  32  16  32  16  32
#     4  10  18  31  57  90 123 167 218 263 314 384
#     4  12  22  41  62  95 133 171 213 261 327 393
#     4  11  22  41  66  93 128 170 215 268 326 384
#     4  11  24  40  64  95 133 177 217 262 320 390
#     4  11  25  42  65  95 128 166 213 269 324 383
#     4   9  20  44  71  93 121 167 220 264 314 382
#     4   9  17  32  57  87 119 158 211 264 306 368
#
# _framework density 20.603073999999999
#
# number of rings (size 3 to 8) (size 9 to 14) (size 15 to 20)
#    0.000    1.500    3.333    2.500    1.167    1.667 
#    1.500    3.333    0.000    2.000    0.000    0.000 
#    0.000    0.000    0.000    0.000    0.000    0.000 
#
# Total GULP energy -594975.213620 kJ/mol
# GULP energy per Si atom -12395.316950 kJ/mol
# Density = 2.055618 g / cm^3
# Si number density = 20.603074 Si / 1000 Ang^3
#
#
#
# Elastic Constant Matrix: (Units=GPa)
#
#
# Indices 1 2 3 4 5 6 
#
# 1 95.5754 33.1905 58.2542 0.0000 0.0000 0.0000
# 2 33.1905 42.7893 37.8617 0.0000 0.0000 0.0000
# 3 58.2542 37.8617 169.3586 0.0000 0.0000 0.0000
# 4 0.0000 0.0000 0.0000 37.8999 0.0000 0.0000
# 5 0.0000 0.0000 0.0000 0.0000 10.7615 0.0000
# 6 0.0000 0.0000 0.0000 0.0000 0.0000 26.6988
#
#
#
# Elastic Compliance Matrix: (Units=1/GPa)
#
#
# Indices 1 2 3 4 5 6 
#
# 1 0.015701 -0.009225 -0.003338 0.000000 0.000000 0.000000
# 2 -0.009225 0.034553 -0.004552 0.000000 0.000000 0.000000
# 3 -0.003338 -0.004552 0.008070 0.000000 0.000000 0.000000
# 4 0.000000 0.000000 0.000000 0.026385 0.000000 0.000000
# 5 0.000000 0.000000 0.000000 0.000000 0.092924 0.000000
# 6 0.000000 0.000000 0.000000 0.000000 0.000000 0.037455
#
#
# Mechanical properties :
#
#
# Convention : Reuss Voigt Hill
#
# Bulk Modulus (GPa) = 41.50237 62.92624 52.21430
# Shear Modulus (GPa) = 19.42871 26.96649 23.19760
#
# Velocity S-wave (km/s) = 3.07416 3.62174 3.35913
# Velocity P-wave (km/s) = 5.72609 6.93526 6.35948
#
# Compressibility (1/GPa) = 0.02409501
#
# Stress axis : x y z
#
# Youngs Moduli (GPa) = 63.68865 28.94066 123.90808
#
# Poissons Ratio (x) = 0.26698 0.41366
# Poissons Ratio (y) = 0.58754 0.56398
# Poissons Ratio (z) = 0.21262 0.13173
#
# Static dielectric constant tensor:
#      x y z
#    x 3.640370 0.000000 0.000000 
#    y 0.000000 3.685670 0.000000 
#    z 0.000000 0.000000 4.014520 
# 
# 
# High freq. dielectric constant tensor:
#      x y z
#    x 1.785080 0.000000 0.000000 
#    y 0.000000 1.801690 0.000000 
#    z 0.000000 0.000000 1.824230 
# 
# From -- ./inp_files/46440.got.cif
#   From: 2010.03.12/outbox.cif.g09.slc.cpg/sg69_24_cif.got.tgz:46440.got - 2010.04.10 23:52:46.
