data_PCOD8284339
_publ_section_title
;
Structure prediction by ZEFSAII (Michael W. Deem and Ramdas Pophale) SiO2 
 PCOD8284339
Probable space group: F M M M
;
_chemical_formula_sum "Si O2"
_cell_formula_units_Z 208
_cell_length_a 27.082041
_cell_length_b 17.833035
_cell_length_c 25.234016
_cell_angle_alpha 90.000000
_cell_angle_beta 90.000000
_cell_angle_gamma 90.000000
_cell_volume 12186.893819
_symmetry_space_group_name_H-M "F M M M"
_symmetry_group_IT_number 69
_symmetry_cell_setting 'orthorhombic'
loop_
_space_group_symop_operation_xyz
x,y,z
-x,-y,z
x,-y,-z
-x,y,-z
-x,-y,-z
x,y,-z
-x,y,z
x,-y,z
x,1/2+y,1/2+z
-x,1/2-y,1/2+z
x,1/2-y,1/2-z
-x,1/2+y,1/2-z
-x,1/2-y,1/2-z
x,1/2+y,1/2-z
-x,1/2+y,1/2+z
x,1/2-y,1/2+z
1/2+x,y,1/2+z
1/2-x,-y,1/2+z
1/2+x,-y,1/2-z
1/2-x,y,1/2-z
1/2-x,-y,1/2-z
1/2+x,y,1/2-z
1/2-x,y,1/2+z
1/2+x,-y,1/2+z
1/2+x,1/2+y,z
1/2-x,1/2-y,z
1/2+x,1/2-y,-z
1/2-x,1/2+y,-z
1/2-x,1/2-y,-z
1/2+x,1/2+y,-z
1/2-x,1/2+y,z
1/2+x,1/2-y,z
loop_
_atom_site_type_symbol
_atom_site_label
_atom_site_fract_x
_atom_site_fract_y
_atom_site_fract_z
Si Si1 0.629179 0.684226 0.714117
Si Si2 0.697174 0.779692 0.641554
Si Si3 0.941392 0.352011 0.879723
Si Si4 0.058370 0.500000 0.940575
Si Si5 0.387460 0.277547 0.062633
Si Si6 0.554730 0.581697 0.937145
Si Si7 0.699051 0.412528 0.218728
O O1 0.604793 0.750000 0.750000
O O2 0.674667 0.723390 0.684453
O O3 0.586396 0.652912 0.676296
O O4 0.652052 0.614835 0.746719
O O5 0.750000 0.750000 0.624882
O O6 0.666285 0.772957 0.587702
O O7 0.700299 0.864169 0.664587
O O8 0.923635 0.427723 0.908352
O O9 0.925430 0.285639 0.918590
O O10 0.000000 0.349771 0.869993
O O11 0.000000 0.500000 0.945555
O O12 0.081430 0.500000 0.000000
O O13 0.409036 0.355583 0.084989
O O14 0.382264 0.273700 0.000000
O O15 0.500000 0.594312 0.913610
O O16 0.574747 0.500000 0.919640
O O17 0.551918 0.587435 0.000000
O O18 0.691802 0.500000 0.204494
O O19 0.750000 0.399565 0.250000
#
# Coordination Sequence:
#
# PCOD8284339 Si02
#       7
#    32  32  32  16  32  32  32
#     4   9  19  33  53  78 103 134 165 211 266 317
#     4  10  19  34  51  72 104 133 165 216 266 308
#     4  10  20  33  51  76 107 140 178 217 257 307
#     4   9  18  32  50  72 101 140 182 222 258 293
#     4  10  20  32  50  75 101 140 184 215 253 305
#     4   8  14  26  45  69  96 127 165 209 252 293
#     4  10  19  32  56  80  96 124 166 212 260 313
#
# _framework density 17.067515
#
# number of rings (size 3 to 8) (size 9 to 14) (size 15 to 20)
#    0.000    2.538    1.538    1.385    1.077    2.769 
#    0.000    0.000    0.000    0.000    0.000    0.000 
#    0.000    0.000    0.000    0.000    0.000    0.000 
#
# Total GULP energy -644632.039394 kJ/mol
# GULP energy per Si atom -12396.769988 kJ/mol
# Density = 1.702867 g / cm^3
# Si number density = 17.067515 Si / 1000 Ang^3
#
#
#
# Elastic Constant Matrix: (Units=GPa)
#
#
# Indices 1 2 3 4 5 6 
#
# 1 90.5979 55.8179 41.9753 0.0000 0.0000 0.0000
# 2 55.8179 133.3607 45.1063 0.0000 0.0000 0.0000
# 3 41.9753 45.1063 76.8201 0.0000 0.0000 0.0000
# 4 0.0000 0.0000 0.0000 25.8008 0.0000 0.0000
# 5 0.0000 0.0000 0.0000 0.0000 19.6411 0.0000
# 6 0.0000 0.0000 0.0000 0.0000 0.0000 16.5386
#
#
#
# Elastic Compliance Matrix: (Units=1/GPa)
#
#
# Indices 1 2 3 4 5 6 
#
# 1 0.017073 -0.004980 -0.006405 0.000000 0.000000 0.000000
# 2 -0.004980 0.010809 -0.003626 0.000000 0.000000 0.000000
# 3 -0.006405 -0.003626 0.018646 0.000000 0.000000 0.000000
# 4 0.000000 0.000000 0.000000 0.038758 0.000000 0.000000
# 5 0.000000 0.000000 0.000000 0.000000 0.050914 0.000000
# 6 0.000000 0.000000 0.000000 0.000000 0.000000 0.060465
#
#
# Mechanical properties :
#
#
# Convention : Reuss Voigt Hill
#
# Bulk Modulus (GPa) = 60.57883 65.17530 62.87706
# Shear Modulus (GPa) = 21.53419 22.92140 22.22780
#
# Velocity S-wave (km/s) = 3.55590 3.66865 3.61272
# Velocity P-wave (km/s) = 7.24085 7.49767 7.37038
#
# Compressibility (1/GPa) = 0.01650742
#
# Stress axis : x y z
#
# Youngs Moduli (GPa) = 58.57079 92.51540 53.63018
#
# Poissons Ratio (x) = 0.46069 0.34351
# Poissons Ratio (y) = 0.29166 0.19445
# Poissons Ratio (z) = 0.37516 0.33544
#
# Static dielectric constant tensor:
#      x y z
#    x 3.051730 0.000000 0.000000 
#    y 0.000000 3.417530 0.000000 
#    z 0.000000 0.000000 3.033080 
# 
# 
# High freq. dielectric constant tensor:
#      x y z
#    x 1.647360 0.000000 0.000000 
#    y 0.000000 1.671590 0.000000 
#    z 0.000000 0.000000 1.641610 
# 
# From -- ./inp_files/42219.got.cif
#   From: 2010.03.12/outbox.cif.g09.slc.cpg/sg69_22_cif.got.tgz:42219.got - 2010.04.10 23:52:46.
