data_PCOD8284051
_publ_section_title
;
Structure prediction by ZEFSAII (Michael W. Deem and Ramdas Pophale) SiO2 
 PCOD8284051
Probable space group: F M M M
;
_chemical_formula_sum "Si O2"
_cell_formula_units_Z 208
_cell_length_a 17.955885
_cell_length_b 19.563650
_cell_length_c 30.167085
_cell_angle_alpha 90.000000
_cell_angle_beta 90.000000
_cell_angle_gamma 90.000000
_cell_volume 10597.173549
_symmetry_space_group_name_H-M "F M M M"
_symmetry_group_IT_number 69
_symmetry_cell_setting 'orthorhombic'
loop_
_space_group_symop_operation_xyz
x,y,z
-x,-y,z
x,-y,-z
-x,y,-z
-x,-y,-z
x,y,-z
-x,y,z
x,-y,z
x,1/2+y,1/2+z
-x,1/2-y,1/2+z
x,1/2-y,1/2-z
-x,1/2+y,1/2-z
-x,1/2-y,1/2-z
x,1/2+y,1/2-z
-x,1/2+y,1/2+z
x,1/2-y,1/2+z
1/2+x,y,1/2+z
1/2-x,-y,1/2+z
1/2+x,-y,1/2-z
1/2-x,y,1/2-z
1/2-x,-y,1/2-z
1/2+x,y,1/2-z
1/2-x,y,1/2+z
1/2+x,-y,1/2+z
1/2+x,1/2+y,z
1/2-x,1/2-y,z
1/2+x,1/2-y,-z
1/2-x,1/2+y,-z
1/2-x,1/2-y,-z
1/2+x,1/2+y,-z
1/2-x,1/2+y,z
1/2+x,1/2-y,z
loop_
_atom_site_type_symbol
_atom_site_label
_atom_site_fract_x
_atom_site_fract_y
_atom_site_fract_z
Si Si1 0.196722 0.183305 0.185201
Si Si2 0.269455 0.577293 0.376678
Si Si3 0.581644 0.372563 0.356183
Si Si4 0.081387 0.170295 0.256033
Si Si5 0.914933 0.773110 0.889688
Si Si6 0.418665 0.500000 0.052416
Si Si7 0.671812 0.868196 0.448089
O O1 0.250000 0.250000 0.194189
O O2 0.243189 0.120577 0.165631
O O3 0.155812 0.151101 0.228432
O O4 0.128678 0.200592 0.152991
O O5 0.237452 0.500000 0.376767
O O6 0.358839 0.572478 0.373223
O O7 0.248241 0.619742 0.421181
O O8 0.500000 0.406496 0.358577
O O9 0.599280 0.347665 0.306559
O O10 0.585927 0.308534 0.389739
O O11 0.071883 0.250000 0.250000
O O12 0.000000 0.137368 0.242138
O O13 0.871935 0.799739 0.933708
O O14 0.000000 0.800538 0.888707
O O15 0.500000 0.500000 0.074443
O O16 0.377868 0.431826 0.067840
O O17 0.424338 0.500000 0.000000
O O18 0.689584 0.865500 0.500000
#
# Coordination Sequence:
#
# PCOD8284051 Si02
#       7
#    32  32  32  32  32  16  32
#     4  11  20  34  56  86 117 151 192 238 288 339
#     4  11  23  39  58  82 116 154 192 239 293 341
#     4  10  21  38  58  82 112 149 194 239 286 340
#     4  10  18  32  56  84 113 151 194 239 285 336
#     4  10  19  34  56  82 115 147 181 232 283 334
#     4   9  16  30  52  80 111 144 183 217 258 338
#     4  10  21  36  57  85 114 148 186 229 288 351
#
# _framework density 19.627876000000001
#
# number of rings (size 3 to 8) (size 9 to 14) (size 15 to 20)
#    0.000    1.769    3.846    0.923    0.000    3.385 
#    0.000    3.077    0.000    2.308    0.000    1.077 
#    0.000    0.000    0.000    0.000    0.000    0.000 
#
# Total GULP energy -644292.722102 kJ/mol
# GULP energy per Si atom -12390.244656 kJ/mol
# Density = 1.958320 g / cm^3
# Si number density = 19.627876 Si / 1000 Ang^3
#
#
#
# Elastic Constant Matrix: (Units=GPa)
#
#
# Indices 1 2 3 4 5 6 
#
# 1 133.9992 25.6148 57.8978 0.0000 0.0000 0.0000
# 2 25.6148 55.1091 28.2157 0.0000 0.0000 0.0000
# 3 57.8978 28.2157 90.6966 0.0000 0.0000 0.0000
# 4 0.0000 0.0000 0.0000 16.4134 0.0000 0.0000
# 5 0.0000 0.0000 0.0000 0.0000 28.7653 0.0000
# 6 0.0000 0.0000 0.0000 0.0000 0.0000 34.6411
#
#
#
# Elastic Compliance Matrix: (Units=1/GPa)
#
#
# Indices 1 2 3 4 5 6 
#
# 1 0.010439 -0.001713 -0.006131 0.000000 0.000000 0.000000
# 2 -0.001713 0.021865 -0.005709 0.000000 0.000000 0.000000
# 3 -0.006131 -0.005709 0.016716 0.000000 0.000000 0.000000
# 4 0.000000 0.000000 0.000000 0.060926 0.000000 0.000000
# 5 0.000000 0.000000 0.000000 0.000000 0.034764 0.000000
# 6 0.000000 0.000000 0.000000 0.000000 0.000000 0.028867
#
#
# Mechanical properties :
#
#
# Convention : Reuss Voigt Hill
#
# Bulk Modulus (GPa) = 45.63260 55.91793 50.77526
# Shear Modulus (GPa) = 24.03986 27.16905 25.60445
#
# Velocity S-wave (km/s) = 3.50348 3.72453 3.61570
# Velocity P-wave (km/s) = 6.29803 6.85909 6.58454
#
# Compressibility (1/GPa) = 0.02191416
#
# Stress axis : x y z
#
# Youngs Moduli (GPa) = 95.79154 45.73550 59.82408
#
# Poissons Ratio (x) = 0.07835 0.36679
# Poissons Ratio (y) = 0.16410 0.34151
# Poissons Ratio (z) = 0.58732 0.26109
#
# Static dielectric constant tensor:
#      x y z
#    x 4.132070 0.000000 0.000000 
#    y 0.000000 3.324600 0.000000 
#    z 0.000000 0.000000 3.713010 
# 
# 
# High freq. dielectric constant tensor:
#      x y z
#    x 1.787470 0.000000 0.000000 
#    y 0.000000 1.730640 0.000000 
#    z 0.000000 0.000000 1.745280 
# 
# From -- ./inp_files/46502.got.cif
#   From: 2010.03.12/outbox.cif.g09.slc.cpg/sg69_24_cif.got.tgz:46502.got - 2010.04.10 23:52:46.
