data_PCOD8284696
_publ_section_title
;
Structure prediction by ZEFSAII (Michael W. Deem and Ramdas Pophale) SiO2 
 PCOD8284696
Probable space group: F M M M
;
_chemical_formula_sum "Si O2"
_cell_formula_units_Z 144
_cell_length_a 17.751756
_cell_length_b 22.497619
_cell_length_c 17.047571
_cell_angle_alpha 90.000000
_cell_angle_beta 90.000000
_cell_angle_gamma 90.000000
_cell_volume 6808.326669
_symmetry_space_group_name_H-M "F M M M"
_symmetry_group_IT_number 69
_symmetry_cell_setting 'orthorhombic'
loop_
_space_group_symop_operation_xyz
x,y,z
-x,-y,z
x,-y,-z
-x,y,-z
-x,-y,-z
x,y,-z
-x,y,z
x,-y,z
x,1/2+y,1/2+z
-x,1/2-y,1/2+z
x,1/2-y,1/2-z
-x,1/2+y,1/2-z
-x,1/2-y,1/2-z
x,1/2+y,1/2-z
-x,1/2+y,1/2+z
x,1/2-y,1/2+z
1/2+x,y,1/2+z
1/2-x,-y,1/2+z
1/2+x,-y,1/2-z
1/2-x,y,1/2-z
1/2-x,-y,1/2-z
1/2+x,y,1/2-z
1/2-x,y,1/2+z
1/2+x,-y,1/2+z
1/2+x,1/2+y,z
1/2-x,1/2-y,z
1/2+x,1/2-y,-z
1/2-x,1/2+y,-z
1/2-x,1/2-y,-z
1/2+x,1/2+y,-z
1/2-x,1/2+y,z
1/2+x,1/2-y,z
loop_
_atom_site_type_symbol
_atom_site_label
_atom_site_fract_x
_atom_site_fract_y
_atom_site_fract_z
Si Si1 0.914464 0.500000 0.592994
Si Si2 0.415839 0.259376 0.158935
Si Si3 0.854534 0.127414 0.093529
Si Si4 0.083355 0.565063 0.906761
Si Si5 0.309680 0.164119 0.907433
O O1 0.917036 0.500000 0.500000
O O2 0.870642 0.559585 0.621495
O O3 0.000000 0.500000 0.626189
O O4 0.500000 0.235520 0.136210
O O5 0.401225 0.250000 0.250000
O O6 0.414088 0.328700 0.134768
O O7 0.346993 0.227099 0.113828
O O8 0.773591 0.151027 0.124709
O O9 0.862338 0.132160 0.000000
O O10 0.113375 0.500000 0.882686
O O11 0.137668 0.613643 0.868899
O O12 0.000000 0.575266 0.872589
O O13 0.081446 0.570975 0.000000
O O14 0.306801 0.158792 0.000000
#
# Coordination Sequence:
#
# PCOD8284696 Si02
#       5
#    16  32  32  32  32
#     4   9  18  34  58  87 117 151 190 235 287 337
#     4  11  24  40  58  79 110 153 196 238 288 341
#     4  10  21  36  59  90 118 147 188 237 289 342
#     4   8  14  25  44  72 106 143 178 213 259 317
#     4  10  20  33  55  85 116 145 181 230 286 340
#
# _framework density 21.150572
#
# number of rings (size 3 to 8) (size 9 to 14) (size 15 to 20)
#    0.000    2.333    0.000    3.333    1.556    7.111 
#    0.000    0.000    2.444    1.333    0.000    0.000 
#    0.000    0.000    0.000    0.000    0.000    0.000 
#
# Total GULP energy -446179.188789 kJ/mol
# GULP energy per Si atom -12393.866355 kJ/mol
# Density = 2.110243 g / cm^3
# Si number density = 21.150572 Si / 1000 Ang^3
#
#
#
# Elastic Constant Matrix: (Units=GPa)
#
#
# Indices 1 2 3 4 5 6 
#
# 1 120.0421 53.9766 13.9912 0.0000 0.0000 0.0000
# 2 53.9766 154.7952 18.0924 0.0000 0.0000 0.0000
# 3 13.9912 18.0924 21.3476 0.0000 0.0000 0.0000
# 4 0.0000 0.0000 0.0000 10.0149 0.0000 0.0000
# 5 0.0000 0.0000 0.0000 0.0000 0.4830 0.0000
# 6 0.0000 0.0000 0.0000 0.0000 0.0000 20.9964
#
#
#
# Elastic Compliance Matrix: (Units=1/GPa)
#
#
# Indices 1 2 3 4 5 6 
#
# 1 0.010188 -0.003077 -0.004070 0.000000 0.000000 0.000000
# 2 -0.003077 0.008100 -0.004848 0.000000 0.000000 0.000000
# 3 -0.004070 -0.004848 0.053620 0.000000 0.000000 0.000000
# 4 0.000000 0.000000 0.000000 0.099851 0.000000 0.000000
# 5 0.000000 0.000000 0.000000 0.000000 2.070526 0.000000
# 6 0.000000 0.000000 0.000000 0.000000 0.000000 0.047627
#
#
# Mechanical properties :
#
#
# Convention : Reuss Voigt Hill
#
# Bulk Modulus (GPa) = 20.86874 52.03393 36.45133
# Shear Modulus (GPa) = 2.14604 20.30716 11.22660
#
# Velocity S-wave (km/s) = 1.00839 3.10195 2.30640
# Velocity P-wave (km/s) = 3.35320 6.12246 4.93601
#
# Compressibility (1/GPa) = 0.04791856
#
# Stress axis : x y z
#
# Youngs Moduli (GPa) = 98.15195 123.46127 18.64985
#
# Poissons Ratio (x) = 0.37989 0.07590
# Poissons Ratio (y) = 0.30201 0.09041
# Poissons Ratio (z) = 0.39944 0.59854
#
# Static dielectric constant tensor:
#      x y z
#    x 4.165570 0.000000 0.000000 
#    y 0.000000 4.168180 0.000000 
#    z 0.000000 0.000000 3.159790 
# 
# 
# High freq. dielectric constant tensor:
#      x y z
#    x 1.840220 0.000000 0.000000 
#    y 0.000000 1.843960 0.000000 
#    z 0.000000 0.000000 1.769690 
# 
# From -- ./inp_files/22893.got.cif
#   From: 2010.03.12/outbox.cif.g09.slc.cpg/sg69_12_cif.got.tgz:22893.got - 2010.04.10 23:52:46.
