data_PCOD8284302
_publ_section_title
;
Structure prediction by ZEFSAII (Michael W. Deem and Ramdas Pophale) SiO2 
 PCOD8284302
Probable space group: F M M M
;
_chemical_formula_sum "Si O2"
_cell_formula_units_Z 208
_cell_length_a 22.911762
_cell_length_b 27.797324
_cell_length_c 18.002386
_cell_angle_alpha 90.000000
_cell_angle_beta 90.000000
_cell_angle_gamma 90.000000
_cell_volume 11465.461700
_symmetry_space_group_name_H-M "F M M M"
_symmetry_group_IT_number 69
_symmetry_cell_setting 'orthorhombic'
loop_
_space_group_symop_operation_xyz
x,y,z
-x,-y,z
x,-y,-z
-x,y,-z
-x,-y,-z
x,y,-z
-x,y,z
x,-y,z
x,1/2+y,1/2+z
-x,1/2-y,1/2+z
x,1/2-y,1/2-z
-x,1/2+y,1/2-z
-x,1/2-y,1/2-z
x,1/2+y,1/2-z
-x,1/2+y,1/2+z
x,1/2-y,1/2+z
1/2+x,y,1/2+z
1/2-x,-y,1/2+z
1/2+x,-y,1/2-z
1/2-x,y,1/2-z
1/2-x,-y,1/2-z
1/2+x,y,1/2-z
1/2-x,y,1/2+z
1/2+x,-y,1/2+z
1/2+x,1/2+y,z
1/2-x,1/2-y,z
1/2+x,1/2-y,-z
1/2-x,1/2+y,-z
1/2-x,1/2-y,-z
1/2+x,1/2+y,-z
1/2-x,1/2+y,z
1/2+x,1/2-y,z
loop_
_atom_site_type_symbol
_atom_site_label
_atom_site_fract_x
_atom_site_fract_y
_atom_site_fract_z
Si Si1 0.146301 0.056681 0.916043
Si Si2 0.932112 0.217225 0.814457
Si Si3 0.264288 0.055531 0.164420
Si Si4 0.932173 0.301205 0.084810
Si Si5 0.883130 0.105667 0.642827
Si Si6 0.569201 0.889930 0.698516
Si Si7 0.568317 0.553034 0.500000
O O1 0.209076 0.071626 0.883977
O O2 0.094551 0.077667 0.866736
O O3 0.139285 0.000000 0.913623
O O4 0.140906 0.076333 0.000000
O O5 0.903634 0.250000 0.750000
O O6 0.921316 0.245805 0.891370
O O7 0.905042 0.163900 0.815273
O O8 0.000000 0.210282 0.796707
O O9 0.250000 0.063304 0.250000
O O10 0.315604 0.091295 0.140432
O O11 0.282074 0.000000 0.149067
O O12 0.892407 0.336961 0.133792
O O13 0.000000 0.315034 0.097765
O O14 0.913679 0.306296 0.000000
O O15 0.910605 0.089588 0.721533
O O16 0.914753 0.080593 0.574347
O O17 0.500000 0.892496 0.692896
O O18 0.597500 0.500000 0.500000
O O19 0.500000 0.548084 0.500000
#
# Coordination Sequence:
#
# PCOD8284302 Si02
#       7
#    32  32  32  32  32  32  16
#     4  10  23  42  61  83 114 151 191 242 294 336
#     4   9  17  31  52  80 112 147 186 229 276 332
#     4  10  21  39  60  82 107 142 197 247 281 328
#     4  10  19  32  52  81 118 152 182 222 281 349
#     4  12  21  34  57  84 114 153 192 233 286 341
#     4  11  22  36  60  89 117 150 192 238 288 346
#     4  11  24  36  48  80 128 161 183 225 288 359
#
# _framework density 18.141441
#
# number of rings (size 3 to 8) (size 9 to 14) (size 15 to 20)
#    0.000    1.615    3.846    1.846    1.077    1.846 
#    0.000    2.308    0.000    0.923    0.000    2.154 
#    0.000    0.000    0.000    0.000    0.000    0.000 
#
# Total GULP energy -644771.831541 kJ/mol
# GULP energy per Si atom -12399.458299 kJ/mol
# Density = 1.810015 g / cm^3
# Si number density = 18.141441 Si / 1000 Ang^3
#
#
#
# Elastic Constant Matrix: (Units=GPa)
#
#
# Indices 1 2 3 4 5 6 
#
# 1 79.1454 33.5132 44.0460 0.0000 0.0000 0.0000
# 2 33.5132 59.3975 34.0778 0.0000 0.0000 0.0000
# 3 44.0460 34.0778 139.3057 0.0000 0.0000 0.0000
# 4 0.0000 0.0000 0.0000 29.3686 0.0000 0.0000
# 5 0.0000 0.0000 0.0000 0.0000 24.8195 0.0000
# 6 0.0000 0.0000 0.0000 0.0000 0.0000 11.6004
#
#
#
# Elastic Compliance Matrix: (Units=1/GPa)
#
#
# Indices 1 2 3 4 5 6 
#
# 1 0.018151 -0.008083 -0.003762 0.000000 0.000000 0.000000
# 2 -0.008083 0.023184 -0.003116 0.000000 0.000000 0.000000
# 3 -0.003762 -0.003116 0.009130 0.000000 0.000000 0.000000
# 4 0.000000 0.000000 0.000000 0.034050 0.000000 0.000000
# 5 0.000000 0.000000 0.000000 0.000000 0.040291 0.000000
# 6 0.000000 0.000000 0.000000 0.000000 0.000000 0.086204
#
#
# Mechanical properties :
#
#
# Convention : Reuss Voigt Hill
#
# Bulk Modulus (GPa) = 48.67566 55.68030 52.17798
# Shear Modulus (GPa) = 20.17929 24.23846 22.20888
#
# Velocity S-wave (km/s) = 3.33878 3.65921 3.50266
# Velocity P-wave (km/s) = 6.46163 6.97223 6.72178
#
# Compressibility (1/GPa) = 0.02054415
#
# Stress axis : x y z
#
# Youngs Moduli (GPa) = 55.09299 43.13341 109.52862
#
# Poissons Ratio (x) = 0.34865 0.41202
# Poissons Ratio (y) = 0.44532 0.34126
# Poissons Ratio (z) = 0.20725 0.13439
#
# Static dielectric constant tensor:
#      x y z
#    x 3.159320 0.000000 0.000000 
#    y 0.000000 3.511820 0.000000 
#    z 0.000000 0.000000 3.529340 
# 
# 
# High freq. dielectric constant tensor:
#      x y z
#    x 1.671740 0.000000 0.000000 
#    y 0.000000 1.701110 0.000000 
#    z 0.000000 0.000000 1.719210 
# 
# From -- ./inp_files/25192.got.cif
#   From: 2010.03.12/outbox.cif.g09.slc.cpg/sg69_13_cif.got.tgz:25192.got - 2010.04.10 23:52:46.
