data_PCOD8284576
_publ_section_title
;
Structure prediction by ZEFSAII (Michael W. Deem and Ramdas Pophale) SiO2 
 PCOD8284576
Probable space group: F M M M
;
_chemical_formula_sum "Si O2"
_cell_formula_units_Z 152
_cell_length_a 22.146582
_cell_length_b 12.908693
_cell_length_c 31.728249
_cell_angle_alpha 90.000000
_cell_angle_beta 90.000000
_cell_angle_gamma 90.000000
_cell_volume 9070.580590
_symmetry_space_group_name_H-M "F M M M"
_symmetry_group_IT_number 69
_symmetry_cell_setting 'orthorhombic'
loop_
_space_group_symop_operation_xyz
x,y,z
-x,-y,z
x,-y,-z
-x,y,-z
-x,-y,-z
x,y,-z
-x,y,z
x,-y,z
x,1/2+y,1/2+z
-x,1/2-y,1/2+z
x,1/2-y,1/2-z
-x,1/2+y,1/2-z
-x,1/2-y,1/2-z
x,1/2+y,1/2-z
-x,1/2+y,1/2+z
x,1/2-y,1/2+z
1/2+x,y,1/2+z
1/2-x,-y,1/2+z
1/2+x,-y,1/2-z
1/2-x,y,1/2-z
1/2-x,-y,1/2-z
1/2+x,y,1/2-z
1/2-x,y,1/2+z
1/2+x,-y,1/2+z
1/2+x,1/2+y,z
1/2-x,1/2-y,z
1/2+x,1/2-y,-z
1/2-x,1/2+y,-z
1/2-x,1/2-y,-z
1/2+x,1/2+y,-z
1/2-x,1/2+y,z
1/2+x,1/2-y,z
loop_
_atom_site_type_symbol
_atom_site_label
_atom_site_fract_x
_atom_site_fract_y
_atom_site_fract_z
Si Si1 0.570694 0.173510 0.391300
Si Si2 0.433136 0.119973 0.700150
Si Si3 0.927793 0.000000 0.047177
Si Si4 0.644742 0.378053 0.722552
Si Si5 0.070589 0.885214 0.360398
Si Si6 0.250000 0.750000 0.750000
O O1 0.500000 0.151259 0.391440
O O2 0.595986 0.136893 0.346051
O O3 0.597728 0.103198 0.429002
O O4 0.584574 0.297498 0.396145
O O5 0.500000 0.172086 0.702916
O O6 0.388181 0.165980 0.735274
O O7 0.440248 0.000000 0.709994
O O8 0.000000 0.000000 0.045349
O O9 0.900959 0.000000 0.000000
O O10 0.656269 0.500000 0.724912
O O11 0.603928 0.350563 0.682219
O O12 0.709421 0.322073 0.719483
O O13 0.000000 0.886169 0.349595
O O14 0.091230 0.000000 0.376045
#
# Coordination Sequence:
#
# PCOD8284576 Si02
#       6
#    32  32  16  32  32   8
#     4   9  15  24  39  60  85 112 142 176 217 258
#     4   9  15  25  43  65  85 104 140 192 234 261
#     4   9  16  26  40  60  88 121 150 170 202 261
#     4  10  20  31  43  58  81 118 156 184 224 255
#     4   9  17  29  45  65  86 109 147 193 230 258
#     4  12  22  32  38  50  80 120 168 186 208 254
#
# _framework density 16.757472
#
# number of rings (size 3 to 8) (size 9 to 14) (size 15 to 20)
#    0.000    2.632    1.053    2.211    0.000    2.526 
#    0.000    4.211    0.000    0.632    0.000    4.421 
#    0.000    0.000    0.000   15.158   16.842    6.737 
#
# Total GULP energy -470862.084519 kJ/mol
# GULP energy per Si atom -12391.107487 kJ/mol
# Density = 1.671933 g / cm^3
# Si number density = 16.757472 Si / 1000 Ang^3
#
#
#
# Elastic Constant Matrix: (Units=GPa)
#
#
# Indices 1 2 3 4 5 6 
#
# 1 46.9723 23.1017 22.2540 0.0000 0.0000 0.0000
# 2 23.1017 102.4072 71.9698 0.0000 0.0000 0.0000
# 3 22.2540 71.9698 94.0403 0.0000 0.0000 0.0000
# 4 0.0000 0.0000 0.0000 19.9300 0.0000 0.0000
# 5 0.0000 0.0000 0.0000 0.0000 3.0444 0.0000
# 6 0.0000 0.0000 0.0000 0.0000 0.0000 23.7997
#
#
#
# Elastic Compliance Matrix: (Units=1/GPa)
#
#
# Indices 1 2 3 4 5 6 
#
# 1 0.024434 -0.003134 -0.003384 0.000000 0.000000 0.000000
# 2 -0.003134 0.021531 -0.015736 0.000000 0.000000 0.000000
# 3 -0.003384 -0.015736 0.023477 0.000000 0.000000 0.000000
# 4 0.000000 0.000000 0.000000 0.050176 0.000000 0.000000
# 5 0.000000 0.000000 0.000000 0.000000 0.328473 0.000000
# 6 0.000000 0.000000 0.000000 0.000000 0.000000 0.042017
#
#
# Mechanical properties :
#
#
# Convention : Reuss Voigt Hill
#
# Bulk Modulus (GPa) = 40.10508 53.11898 46.61203
# Shear Modulus (GPa) = 9.20933 17.76111 13.48522
#
# Velocity S-wave (km/s) = 2.34683 3.25913 2.83985
# Velocity P-wave (km/s) = 5.59715 6.77717 6.21523
#
# Compressibility (1/GPa) = 0.02493449
#
# Stress axis : x y z
#
# Youngs Moduli (GPa) = 40.92736 46.44464 42.59399
#
# Poissons Ratio (x) = 0.14556 0.14412
# Poissons Ratio (y) = 0.12826 0.67027
# Poissons Ratio (z) = 0.13848 0.73086
#
# Static dielectric constant tensor:
#      x y z
#    x 2.777520 0.000000 0.000000 
#    y 0.000000 3.593350 0.000000 
#    z 0.000000 0.000000 2.961840 
# 
# 
# High freq. dielectric constant tensor:
#      x y z
#    x 1.588300 0.000000 0.000000 
#    y 0.000000 1.682710 0.000000 
#    z 0.000000 0.000000 1.597230 
# 
# From -- ./inp_files/46730.got.cif
#   From: 2010.03.12/outbox.cif.g09.slc.cpg/sg69_24_cif.got.tgz:46730.got - 2010.04.10 23:52:46.
