data_PCOD8284277
_publ_section_title
;
Structure prediction by ZEFSAII (Michael W. Deem and Ramdas Pophale) SiO2 
 PCOD8284277
Probable space group: F M M M
;
_chemical_formula_sum "Si O2"
_cell_formula_units_Z 160
_cell_length_a 8.833963
_cell_length_b 30.054945
_cell_length_c 30.108984
_cell_angle_alpha 90.000000
_cell_angle_beta 90.000000
_cell_angle_gamma 90.000000
_cell_volume 7994.063881
_symmetry_space_group_name_H-M "F M M M"
_symmetry_group_IT_number 69
_symmetry_cell_setting 'orthorhombic'
loop_
_space_group_symop_operation_xyz
x,y,z
-x,-y,z
x,-y,-z
-x,y,-z
-x,-y,-z
x,y,-z
-x,y,z
x,-y,z
x,1/2+y,1/2+z
-x,1/2-y,1/2+z
x,1/2-y,1/2-z
-x,1/2+y,1/2-z
-x,1/2-y,1/2-z
x,1/2+y,1/2-z
-x,1/2+y,1/2+z
x,1/2-y,1/2+z
1/2+x,y,1/2+z
1/2-x,-y,1/2+z
1/2+x,-y,1/2-z
1/2-x,y,1/2-z
1/2-x,-y,1/2-z
1/2+x,y,1/2-z
1/2-x,y,1/2+z
1/2+x,-y,1/2+z
1/2+x,1/2+y,z
1/2-x,1/2-y,z
1/2+x,1/2-y,-z
1/2-x,1/2+y,-z
1/2-x,1/2-y,-z
1/2+x,1/2+y,-z
1/2-x,1/2+y,z
1/2+x,1/2-y,z
loop_
_atom_site_type_symbol
_atom_site_label
_atom_site_fract_x
_atom_site_fract_y
_atom_site_fract_z
Si Si1 0.172832 0.820816 0.703778
Si Si2 0.824586 0.000000 0.296211
Si Si3 0.172141 0.910396 0.660417
Si Si4 0.174235 0.113046 0.926295
Si Si5 0.820952 0.705132 0.610918
Si Si6 0.678758 0.551943 0.500000
O O1 0.250000 0.805614 0.750000
O O2 0.181098 0.874317 0.699831
O O3 0.253193 0.800793 0.660356
O O4 0.000000 0.803921 0.704440
O O5 0.750000 0.000000 0.250000
O O6 0.771656 0.042766 0.322478
O O7 0.000000 0.000000 0.287945
O O8 0.297329 0.901435 0.623683
O O9 0.000000 0.911598 0.641024
O O10 0.220319 0.165661 0.924531
O O11 0.000000 0.107322 0.939931
O O12 0.270363 0.080859 0.957773
O O13 0.750000 0.750000 0.590317
O O14 0.000000 0.708925 0.615964
O O15 0.740543 0.500000 0.500000
O O16 0.500000 0.549313 0.500000
#
# Coordination Sequence:
#
# PCOD8284277 Si02
#       6
#    32  16  32  32  32  16
#     4  10  19  32  51  76 110 152 197 246 294 341
#     4  10  20  32  48  73 106 145 192 240 281 332
#     4   9  19  34  52  75 109 151 192 235 288 345
#     4  10  22  40  62  89 119 149 187 237 288 342
#     4  10  21  38  60  86 116 152 193 239 291 347
#     4  11  25  43  66  93 122 155 190 231 280 341
#
# _framework density 20.014851
#
# number of rings (size 3 to 8) (size 9 to 14) (size 15 to 20)
#    0.000    2.100    0.000    2.700    1.400    5.200 
#    0.000    2.500    0.000    0.000    0.000    0.000 
#    0.000    0.000    0.000    0.000    0.000    0.000 
#
# Total GULP energy -495669.987939 kJ/mol
# GULP energy per Si atom -12391.749698 kJ/mol
# Density = 1.996930 g / cm^3
# Si number density = 20.014851 Si / 1000 Ang^3
#
#
#
# Elastic Constant Matrix: (Units=GPa)
#
#
# Indices 1 2 3 4 5 6 
#
# 1 79.4623 52.7286 33.0715 0.0000 0.0000 0.0000
# 2 52.7286 158.8995 35.9432 0.0000 0.0000 0.0000
# 3 33.0715 35.9432 66.8580 0.0000 0.0000 0.0000
# 4 0.0000 0.0000 0.0000 24.7684 0.0000 0.0000
# 5 0.0000 0.0000 0.0000 0.0000 31.0151 0.0000
# 6 0.0000 0.0000 0.0000 0.0000 0.0000 29.8272
#
#
#
# Elastic Compliance Matrix: (Units=1/GPa)
#
#
# Indices 1 2 3 4 5 6 
#
# 1 0.018398 -0.004607 -0.006624 0.000000 0.000000 0.000000
# 2 -0.004607 0.008318 -0.002193 0.000000 0.000000 0.000000
# 3 -0.006624 -0.002193 0.019413 0.000000 0.000000 0.000000
# 4 0.000000 0.000000 0.000000 0.040374 0.000000 0.000000
# 5 0.000000 0.000000 0.000000 0.000000 0.032242 0.000000
# 6 0.000000 0.000000 0.000000 0.000000 0.000000 0.033526
#
#
# Mechanical properties :
#
#
# Convention : Reuss Voigt Hill
#
# Bulk Modulus (GPa) = 51.86428 60.96739 56.41583
# Shear Modulus (GPa) = 26.94729 29.35390 28.15060
#
# Velocity S-wave (km/s) = 3.67327 3.83378 3.75438
# Velocity P-wave (km/s) = 6.63021 7.07986 6.85872
#
# Compressibility (1/GPa) = 0.01928109
#
# Stress axis : x y z
#
# Youngs Moduli (GPa) = 54.35235 120.22007 51.51263
#
# Poissons Ratio (x) = 0.55384 0.34123
# Poissons Ratio (y) = 0.25039 0.11297
# Poissons Ratio (z) = 0.36004 0.26365
#
# Static dielectric constant tensor:
#      x y z
#    x 3.588590 0.000000 0.000000 
#    y 0.000000 4.623040 0.000000 
#    z 0.000000 0.000000 3.381540 
# 
# 
# High freq. dielectric constant tensor:
#      x y z
#    x 1.784940 0.000000 0.000000 
#    y 0.000000 1.799870 0.000000 
#    z 0.000000 0.000000 1.757800 
# 
# From -- ./inp_files/5721.got.cif
#   From: 2010.03.12/outbox.cif.g09.slc.cpg/sg69_3_cif.got.tgz:5721.got - 2010.04.10 23:52:46.
