data_PCOD8284107
_publ_section_title
;
Structure prediction by ZEFSAII (Michael W. Deem and Ramdas Pophale) SiO2 
 PCOD8284107
Probable space group: F M M M
;
_chemical_formula_sum "Si O2"
_cell_formula_units_Z 128
_cell_length_a 9.593036
_cell_length_b 33.943650
_cell_length_c 25.631497
_cell_angle_alpha 90.000000
_cell_angle_beta 90.000000
_cell_angle_gamma 90.000000
_cell_volume 8346.196141
_symmetry_space_group_name_H-M "F M M M"
_symmetry_group_IT_number 69
_symmetry_cell_setting 'orthorhombic'
loop_
_space_group_symop_operation_xyz
x,y,z
-x,-y,z
x,-y,-z
-x,y,-z
-x,-y,-z
x,y,-z
-x,y,z
x,-y,z
x,1/2+y,1/2+z
-x,1/2-y,1/2+z
x,1/2-y,1/2-z
-x,1/2+y,1/2-z
-x,1/2-y,1/2-z
x,1/2+y,1/2-z
-x,1/2+y,1/2+z
x,1/2-y,1/2+z
1/2+x,y,1/2+z
1/2-x,-y,1/2+z
1/2+x,-y,1/2-z
1/2-x,y,1/2-z
1/2-x,-y,1/2-z
1/2+x,y,1/2-z
1/2-x,y,1/2+z
1/2+x,-y,1/2+z
1/2+x,1/2+y,z
1/2-x,1/2-y,z
1/2+x,1/2-y,-z
1/2-x,1/2+y,-z
1/2-x,1/2-y,-z
1/2+x,1/2+y,-z
1/2-x,1/2+y,z
1/2+x,1/2-y,z
loop_
_atom_site_type_symbol
_atom_site_label
_atom_site_fract_x
_atom_site_fract_y
_atom_site_fract_z
Si Si1 0.341458 0.640214 0.060148
Si Si2 0.158198 0.941380 0.109024
Si Si3 0.851187 0.500000 0.058928
Si Si4 0.657935 0.785812 0.938207
Si Si5 0.657918 0.000000 0.699241
O O1 0.500000 0.656251 0.064293
O O2 0.318644 0.605296 0.102338
O O3 0.233935 0.673779 0.077601
O O4 0.313624 0.626625 0.000000
O O5 0.000000 0.952299 0.093320
O O6 0.263622 0.961006 0.069284
O O7 0.189472 0.960001 0.166147
O O8 0.000000 0.500000 0.090087
O O9 0.892149 0.500000 0.000000
O O10 0.500000 0.785107 0.915347
O O11 0.750000 0.750000 0.914844
O O12 0.651267 0.781691 0.000000
O O13 0.750000 0.000000 0.750000
O O14 0.500000 0.000000 0.718470
#
# Coordination Sequence:
#
# PCOD8284107 Si02
#       5
#    32  32  16  32  16
#     4   9  16  26  41  60  82 109 140 173 206 239
#     4   9  18  31  45  60  79 107 142 173 205 252
#     4  10  19  27  37  57  84 110 136 168 204 241
#     4   9  16  25  37  54  79 112 146 175 201 232
#     4   9  18  32  48  64  81 104 136 174 215 256
#
# _framework density 15.336327000000001
#
# number of rings (size 3 to 8) (size 9 to 14) (size 15 to 20)
#    0.000    2.875    0.000    2.625    0.000    8.000 
#    0.000    2.500    0.000    0.000    0.000    0.000 
#    0.000    1.000    0.000   11.500    0.000    4.000 
#
# Total GULP energy -396465.207922 kJ/mol
# GULP energy per Si atom -12389.537748 kJ/mol
# Density = 1.530142 g / cm^3
# Si number density = 15.336327 Si / 1000 Ang^3
#
#
#
# Elastic Constant Matrix: (Units=GPa)
#
#
# Indices 1 2 3 4 5 6 
#
# 1 127.3730 73.0037 37.8521 0.0000 0.0000 0.0000
# 2 73.0037 114.5547 36.5546 0.0000 0.0000 0.0000
# 3 37.8521 36.5546 54.1870 0.0000 0.0000 0.0000
# 4 0.0000 0.0000 0.0000 10.2918 0.0000 0.0000
# 5 0.0000 0.0000 0.0000 0.0000 17.8211 0.0000
# 6 0.0000 0.0000 0.0000 0.0000 0.0000 127.7154
#
#
#
# Elastic Compliance Matrix: (Units=1/GPa)
#
#
# Indices 1 2 3 4 5 6 
#
# 1 0.013181 -0.006960 -0.004512 0.000000 0.000000 0.000000
# 2 -0.006960 0.014799 -0.005122 0.000000 0.000000 0.000000
# 3 -0.004512 -0.005122 0.025062 0.000000 0.000000 0.000000
# 4 0.000000 0.000000 0.000000 0.097165 0.000000 0.000000
# 5 0.000000 0.000000 0.000000 0.000000 0.056113 0.000000
# 6 0.000000 0.000000 0.000000 0.000000 0.000000 0.007830
#
#
# Mechanical properties :
#
#
# Convention : Reuss Voigt Hill
#
# Bulk Modulus (GPa) = 50.36773 65.65950 58.01362
# Shear Modulus (GPa) = 19.68840 41.07927 30.38384
#
# Velocity S-wave (km/s) = 3.58687 5.18110 4.45586
# Velocity P-wave (km/s) = 7.07584 8.87117 8.02388
#
# Compressibility (1/GPa) = 0.01985398
#
# Stress axis : x y z
#
# Youngs Moduli (GPa) = 75.86593 67.57013 39.90149
#
# Poissons Ratio (x) = 0.47031 0.18005
# Poissons Ratio (y) = 0.52805 0.20436
# Poissons Ratio (z) = 0.34233 0.34607
#
# Static dielectric constant tensor:
#      x y z
#    x 3.190530 0.000000 0.000000 
#    y 0.000000 3.058390 0.000000 
#    z 0.000000 0.000000 2.442620 
# 
# 
# High freq. dielectric constant tensor:
#      x y z
#    x 1.608350 0.000000 0.000000 
#    y 0.000000 1.586710 0.000000 
#    z 0.000000 0.000000 1.521040 
# 
# From -- ./inp_files/4840.got.cif
#   From: 2010.03.12/outbox.cif.g09.slc.cpg/sg69_3_cif.got.tgz:4840.got - 2010.04.10 23:52:46.
