data_PCOD8284537
_publ_section_title
;
Structure prediction by ZEFSAII (Michael W. Deem and Ramdas Pophale) SiO2 
 PCOD8284537
Probable space group: F M M M
;
_chemical_formula_sum "Si O2"
_cell_formula_units_Z 192
_cell_length_a 29.518984
_cell_length_b 18.288341
_cell_length_c 18.960631
_cell_angle_alpha 90.000000
_cell_angle_beta 90.000000
_cell_angle_gamma 90.000000
_cell_volume 10235.958180
_symmetry_space_group_name_H-M "F M M M"
_symmetry_group_IT_number 69
_symmetry_cell_setting 'orthorhombic'
loop_
_space_group_symop_operation_xyz
x,y,z
-x,-y,z
x,-y,-z
-x,y,-z
-x,-y,-z
x,y,-z
-x,y,z
x,-y,z
x,1/2+y,1/2+z
-x,1/2-y,1/2+z
x,1/2-y,1/2-z
-x,1/2+y,1/2-z
-x,1/2-y,1/2-z
x,1/2+y,1/2-z
-x,1/2+y,1/2+z
x,1/2-y,1/2+z
1/2+x,y,1/2+z
1/2-x,-y,1/2+z
1/2+x,-y,1/2-z
1/2-x,y,1/2-z
1/2-x,-y,1/2-z
1/2+x,y,1/2-z
1/2-x,y,1/2+z
1/2+x,-y,1/2+z
1/2+x,1/2+y,z
1/2-x,1/2-y,z
1/2+x,1/2-y,-z
1/2-x,1/2+y,-z
1/2-x,1/2-y,-z
1/2+x,1/2+y,-z
1/2-x,1/2+y,z
1/2+x,1/2-y,z
loop_
_atom_site_type_symbol
_atom_site_label
_atom_site_fract_x
_atom_site_fract_y
_atom_site_fract_z
Si Si1 0.500000 0.582787 0.307336
Si Si2 0.921939 0.828409 0.079946
Si Si3 0.322442 0.791611 0.819728
Si Si4 0.574688 0.701422 0.315674
Si Si5 0.819646 0.658632 0.418785
Si Si6 0.243908 0.919240 0.332853
Si Si7 0.500000 0.079318 0.642526
O O1 0.500000 0.500000 0.341581
O O2 0.544844 0.628886 0.328711
O O3 0.500000 0.572026 0.225162
O O4 0.926208 0.748178 0.113097
O O5 0.872243 0.864487 0.086092
O O6 0.954489 0.881682 0.120806
O O7 0.937748 0.819964 0.000000
O O8 0.302573 0.750000 0.750000
O O9 0.373004 0.819271 0.800721
O O10 0.317015 0.739386 0.886648
O O11 0.295422 0.861666 0.846851
O O12 0.555766 0.750000 0.250000
O O13 0.803011 0.660030 0.500000
O O14 0.790001 0.602676 0.373113
O O15 0.250000 0.921596 0.250000
O O16 0.229941 0.000000 0.360215
O O17 0.500000 0.000000 0.606448
#
# Coordination Sequence:
#
# PCOD8284537 Si02
#       7
#    16  32  32  32  32  32  16
#     4  11  22  34  55  87 121 153 189 234 283 336
#     4  10  21  37  58  85 113 146 191 239 285 336
#     4  10  20  36  60  84 108 145 192 240 283 330
#     4  10  19  36  59  81 109 149 192 234 279 329
#     4  10  22  39  60  85 112 148 193 239 288 341
#     4  11  23  36  54  82 115 150 186 229 283 341
#     4  11  22  34  52  82 117 154 189 225 280 346
#
# _framework density 18.757404000000001
#
# number of rings (size 3 to 8) (size 9 to 14) (size 15 to 20)
#    0.000    1.667    3.333    1.500    0.000    3.667 
#    0.000    5.000    0.000    1.000    0.000    4.667 
#    0.000    0.000    0.000    0.000    0.000    0.000 
#
# Total GULP energy -595043.583332 kJ/mol
# GULP energy per Si atom -12396.741319 kJ/mol
# Density = 1.871471 g / cm^3
# Si number density = 18.757404 Si / 1000 Ang^3
#
#
#
# Elastic Constant Matrix: (Units=GPa)
#
#
# Indices 1 2 3 4 5 6 
#
# 1 94.5584 60.6653 22.9783 0.0000 0.0000 0.0000
# 2 60.6653 120.3705 16.7602 0.0000 0.0000 0.0000
# 3 22.9783 16.7602 74.0505 0.0000 0.0000 0.0000
# 4 0.0000 0.0000 0.0000 -17.3670 0.0000 0.0000
# 5 0.0000 0.0000 0.0000 0.0000 23.8474 0.0000
# 6 0.0000 0.0000 0.0000 0.0000 0.0000 -18.3052
#
#
#
# Elastic Compliance Matrix: (Units=1/GPa)
#
#
# Indices 1 2 3 4 5 6 
#
# 1 0.016383 -0.007795 -0.003320 0.000000 0.000000 0.000000
# 2 -0.007795 0.012286 -0.000362 0.000000 0.000000 0.000000
# 3 -0.003320 -0.000362 0.014616 0.000000 0.000000 0.000000
# 4 0.000000 0.000000 0.000000 -0.057581 0.000000 0.000000
# 5 0.000000 0.000000 0.000000 0.000000 0.041933 0.000000
# 6 0.000000 0.000000 0.000000 0.000000 0.000000 -0.054629
#
#
# Mechanical properties :
#
#
# Convention : Reuss Voigt Hill
#
# Bulk Modulus (GPa) = 49.18068 54.42079 51.80074
# Shear Modulus (GPa) = 1825.34998 10.20676 917.77837
#
# Velocity S-wave (km/s) = 31.22897 2.33522 22.14387
# Velocity P-wave (km/s) = 36.42262 6.02885 26.10512
#
# Compressibility (1/GPa) = 0.02033319
#
# Stress axis : x y z
#
# Youngs Moduli (GPa) = 61.03942 81.39030 68.41668
#
# Poissons Ratio (x) = 0.63440 0.22711
# Poissons Ratio (y) = 0.47578 0.02478
# Poissons Ratio (z) = 0.20262 0.02948
#
# Static dielectric constant tensor:
#      x y z
#    x 3.566020 0.000000 0.000000 
#    y 0.000000 3.767910 0.000000 
#    z 0.000000 0.000000 3.458630 
# 
# 
# High freq. dielectric constant tensor:
#      x y z
#    x 1.736290 0.000000 0.000000 
#    y 0.000000 1.717780 0.000000 
#    z 0.000000 0.000000 1.721970 
# 
# From -- ./inp_files/27824.got.cif
#   From: 2010.03.12/outbox.cif.g09.slc.cpg/sg69_14_cif.got.tgz:27824.got - 2010.04.10 23:52:46.
