data_PCOD8284981
_publ_section_title
;
Structure prediction by ZEFSAII (Michael W. Deem and Ramdas Pophale) SiO2 
 PCOD8284981
Probable space group: F M M M
;
_chemical_formula_sum "Si O2"
_cell_formula_units_Z 128
_cell_length_a 25.365767
_cell_length_b 16.544911
_cell_length_c 15.857793
_cell_angle_alpha 90.000000
_cell_angle_beta 90.000000
_cell_angle_gamma 90.000000
_cell_volume 6655.109088
_symmetry_space_group_name_H-M "F M M M"
_symmetry_group_IT_number 69
_symmetry_cell_setting 'orthorhombic'
loop_
_space_group_symop_operation_xyz
x,y,z
-x,-y,z
x,-y,-z
-x,y,-z
-x,-y,-z
x,y,-z
-x,y,z
x,-y,z
x,1/2+y,1/2+z
-x,1/2-y,1/2+z
x,1/2-y,1/2-z
-x,1/2+y,1/2-z
-x,1/2-y,1/2-z
x,1/2+y,1/2-z
-x,1/2+y,1/2+z
x,1/2-y,1/2+z
1/2+x,y,1/2+z
1/2-x,-y,1/2+z
1/2+x,-y,1/2-z
1/2-x,y,1/2-z
1/2-x,-y,1/2-z
1/2+x,y,1/2-z
1/2-x,y,1/2+z
1/2+x,-y,1/2+z
1/2+x,1/2+y,z
1/2-x,1/2-y,z
1/2+x,1/2-y,-z
1/2-x,1/2+y,-z
1/2-x,1/2-y,-z
1/2+x,1/2+y,-z
1/2-x,1/2+y,z
1/2+x,1/2-y,z
loop_
_atom_site_type_symbol
_atom_site_label
_atom_site_fract_x
_atom_site_fract_y
_atom_site_fract_z
Si Si1 0.000000 0.905697 0.399987
Si Si2 0.368781 0.091974 0.351789
Si Si3 0.557232 0.404441 0.000000
Si Si4 0.096656 0.174798 0.693686
Si Si5 0.309373 0.261272 0.900915
O O1 0.948390 0.858895 0.367237
O O2 0.000000 0.900121 0.500000
O O3 0.000000 0.000000 0.370943
O O4 0.413927 0.124301 0.415394
O O5 0.388150 0.101627 0.256170
O O6 0.318659 0.146490 0.372831
O O7 0.353242 0.000000 0.370164
O O8 0.551900 0.500000 0.000000
O O9 0.500000 0.362793 0.000000
O O10 0.075892 0.250000 0.750000
O O11 0.149128 0.200902 0.643120
O O12 0.250000 0.250000 0.868928
O O13 0.314679 0.247497 0.000000
#
# Coordination Sequence:
#
# PCOD8284981 Si02
#       5
#    16  32  16  32  32
#     4  11  23  40  60  81 119 163 198 232 269 335
#     4  10  20  36  59  87 116 145 187 238 289 341
#     4   9  18  32  53  84 118 146 177 227 291 342
#     4  10  22  38  58  87 116 151 189 237 291 341
#     4  10  21  40  62  83 113 152 192 238 288 343
#
# _framework density 19.233343999999999
#
# number of rings (size 3 to 8) (size 9 to 14) (size 15 to 20)
#    0.000    2.000    1.250    1.875    1.750    4.500 
#    2.250    3.750    0.000    3.000    0.000    0.000 
#    0.000    0.000    0.000    0.000    0.000    0.000 
#
# Total GULP energy -396705.511345 kJ/mol
# GULP energy per Si atom -12397.047230 kJ/mol
# Density = 1.918957 g / cm^3
# Si number density = 19.233344 Si / 1000 Ang^3
#
#
#
# Elastic Constant Matrix: (Units=GPa)
#
#
# Indices 1 2 3 4 5 6 
#
# 1 168.1512 72.3833 67.6093 0.0000 0.0000 0.0000
# 2 72.3833 97.3347 43.0111 0.0000 0.0000 0.0000
# 3 67.6093 43.0111 113.4348 0.0000 0.0000 0.0000
# 4 0.0000 0.0000 0.0000 28.5477 0.0000 0.0000
# 5 0.0000 0.0000 0.0000 0.0000 26.2313 0.0000
# 6 0.0000 0.0000 0.0000 0.0000 0.0000 24.5371
#
#
#
# Elastic Compliance Matrix: (Units=1/GPa)
#
#
# Indices 1 2 3 4 5 6 
#
# 1 0.009912 -0.005719 -0.003740 0.000000 0.000000 0.000000
# 2 -0.005719 0.015641 -0.002522 0.000000 0.000000 0.000000
# 3 -0.003740 -0.002522 0.012001 0.000000 0.000000 0.000000
# 4 0.000000 0.000000 0.000000 0.035029 0.000000 0.000000
# 5 0.000000 0.000000 0.000000 0.000000 0.038122 0.000000
# 6 0.000000 0.000000 0.000000 0.000000 0.000000 0.040755
#
#
# Mechanical properties :
#
#
# Convention : Reuss Voigt Hill
#
# Bulk Modulus (GPa) = 73.56580 82.76980 78.16780
# Shear Modulus (GPa) = 27.78508 28.92435 28.35472
#
# Velocity S-wave (km/s) = 3.80495 3.88218 3.84376
# Velocity P-wave (km/s) = 7.59182 7.95129 7.77363
#
# Compressibility (1/GPa) = 0.01359327
#
# Stress axis : x y z
#
# Youngs Moduli (GPa) = 100.88366 63.93364 83.32799
#
# Poissons Ratio (x) = 0.36563 0.31161
# Poissons Ratio (y) = 0.57695 0.21016
# Poissons Ratio (z) = 0.37726 0.16125
#
# Static dielectric constant tensor:
#      x y z
#    x 3.572440 0.000000 0.000000 
#    y 0.000000 3.490430 0.000000 
#    z 0.000000 0.000000 3.708570 
# 
# 
# High freq. dielectric constant tensor:
#      x y z
#    x 1.742830 0.000000 0.000000 
#    y 0.000000 1.743110 0.000000 
#    z 0.000000 0.000000 1.765250 
# 
# From -- ./inp_files/15316.got.cif
#   From: 2010.03.12/outbox.cif.g09.slc.cpg/sg69_8_cif.got.tgz:15316.got - 2010.04.10 23:52:46.
