data_PCOD8284776
_publ_section_title
;
Structure prediction by ZEFSAII (Michael W. Deem and Ramdas Pophale) SiO2 
 PCOD8284776
Probable space group: F M M M
;
_chemical_formula_sum "Si O2"
_cell_formula_units_Z 144
_cell_length_a 27.365345
_cell_length_b 12.146763
_cell_length_c 25.236412
_cell_angle_alpha 90.000000
_cell_angle_beta 90.000000
_cell_angle_gamma 90.000000
_cell_volume 8388.592437
_symmetry_space_group_name_H-M "F M M M"
_symmetry_group_IT_number 69
_symmetry_cell_setting 'orthorhombic'
loop_
_space_group_symop_operation_xyz
x,y,z
-x,-y,z
x,-y,-z
-x,y,-z
-x,-y,-z
x,y,-z
-x,y,z
x,-y,z
x,1/2+y,1/2+z
-x,1/2-y,1/2+z
x,1/2-y,1/2-z
-x,1/2+y,1/2-z
-x,1/2-y,1/2-z
x,1/2+y,1/2-z
-x,1/2+y,1/2+z
x,1/2-y,1/2+z
1/2+x,y,1/2+z
1/2-x,-y,1/2+z
1/2+x,-y,1/2-z
1/2-x,y,1/2-z
1/2-x,-y,1/2-z
1/2+x,y,1/2-z
1/2-x,y,1/2+z
1/2+x,-y,1/2+z
1/2+x,1/2+y,z
1/2-x,1/2-y,z
1/2+x,1/2-y,-z
1/2-x,1/2+y,-z
1/2-x,1/2-y,-z
1/2+x,1/2+y,-z
1/2-x,1/2+y,z
1/2+x,1/2-y,z
loop_
_atom_site_type_symbol
_atom_site_label
_atom_site_fract_x
_atom_site_fract_y
_atom_site_fract_z
Si Si1 0.308888 0.000000 0.634330
Si Si2 0.714975 0.000000 0.060263
Si Si3 0.195632 0.772530 0.811829
Si Si4 0.555121 0.230887 0.562481
Si Si5 0.401227 0.000000 0.562306
Si Si6 0.863371 0.622049 0.113652
O O1 0.257625 0.000000 0.603605
O O2 0.316234 0.102414 0.673347
O O3 0.348678 0.000000 0.588647
O O4 0.680665 0.107945 0.070407
O O5 0.734845 0.000000 0.000000
O O6 0.192057 0.750000 0.750000
O O7 0.250000 0.750000 0.833161
O O8 0.155965 0.692947 0.837711
O O9 0.559976 0.242885 0.500000
O O10 0.500000 0.254592 0.581424
O O11 0.589900 0.320686 0.588453
O O12 0.568951 0.107526 0.580366
O O13 0.392136 0.000000 0.500000
O O14 0.878755 0.500000 0.134243
#
# Coordination Sequence:
#
# PCOD8284776 Si02
#       6
#    16  16  32  32  16  32
#     4  12  21  37  58  86 113 152 189 223 283 345
#     4  10  21  35  53  82 121 154 181 220 273 343
#     4  11  23  38  59  82 112 150 194 242 280 328
#     4  10  20  35  57  83 113 152 193 235 282 334
#     4  10  20  34  54  85 119 147 185 230 276 341
#     4  10  21  37  54  79 116 148 187 233 282 332
#
# _framework density 17.166170000000001
#
# number of rings (size 3 to 8) (size 9 to 14) (size 15 to 20)
#    0.667    0.889    4.444    1.333    1.556    2.667 
#    0.000    2.222    0.000    0.667    0.000    0.000 
#    0.000    0.000    0.000    0.000    0.000    0.000 
#
# Total GULP energy -446254.747226 kJ/mol
# GULP energy per Si atom -12395.965201 kJ/mol
# Density = 1.712710 g / cm^3
# Si number density = 17.166170 Si / 1000 Ang^3
#
#
#
# Elastic Constant Matrix: (Units=GPa)
#
#
# Indices 1 2 3 4 5 6 
#
# 1 130.1314 63.0434 37.9045 0.0000 0.0000 0.0000
# 2 63.0434 156.0761 46.0345 0.0000 0.0000 0.0000
# 3 37.9045 46.0345 55.6517 0.0000 0.0000 0.0000
# 4 0.0000 0.0000 0.0000 -20.2100 0.0000 0.0000
# 5 0.0000 0.0000 0.0000 0.0000 21.0386 0.0000
# 6 0.0000 0.0000 0.0000 0.0000 0.0000 31.5449
#
#
#
# Elastic Compliance Matrix: (Units=1/GPa)
#
#
# Indices 1 2 3 4 5 6 
#
# 1 0.010438 -0.002803 -0.004791 0.000000 0.000000 0.000000
# 2 -0.002803 0.009228 -0.005724 0.000000 0.000000 0.000000
# 3 -0.004791 -0.005724 0.025966 0.000000 0.000000 0.000000
# 4 0.000000 0.000000 0.000000 -0.049481 0.000000 0.000000
# 5 0.000000 0.000000 0.000000 0.000000 0.047532 0.000000
# 6 0.000000 0.000000 0.000000 0.000000 0.000000 0.031701
#
#
# Mechanical properties :
#
#
# Convention : Reuss Voigt Hill
#
# Bulk Modulus (GPa) = 52.63984 70.64709 61.64347
# Shear Modulus (GPa) = 46.14619 19.46649 32.80634
#
# Velocity S-wave (km/s) = 5.19042 3.37115 4.37636
# Velocity P-wave (km/s) = 8.16407 7.50980 7.84376
#
# Compressibility (1/GPa) = 0.01899702
#
# Stress axis : x y z
#
# Youngs Moduli (GPa) = 95.80417 108.37005 38.51134
#
# Poissons Ratio (x) = 0.30378 0.18449
# Poissons Ratio (y) = 0.26856 0.22043
# Poissons Ratio (z) = 0.45895 0.62028
#
# Static dielectric constant tensor:
#      x y z
#    x 3.216730 0.000000 0.000000 
#    y 0.000000 3.352590 0.000000 
#    z 0.000000 0.000000 2.946610 
# 
# 
# High freq. dielectric constant tensor:
#      x y z
#    x 1.660670 0.000000 0.000000 
#    y 0.000000 1.675120 0.000000 
#    z 0.000000 0.000000 1.640740 
# 
# From -- ./inp_files/43475.got.cif
#   From: 2010.03.12/outbox.cif.g09.slc.cpg/sg69_22_cif.got.tgz:43475.got - 2010.04.10 23:52:46.
