data_PCOD8284011
_publ_section_title
;
Structure prediction by ZEFSAII (Michael W. Deem and Ramdas Pophale) SiO2 
 PCOD8284011
Probable space group: F M M M
;
_chemical_formula_sum "Si O2"
_cell_formula_units_Z 176
_cell_length_a 28.465302
_cell_length_b 16.681089
_cell_length_c 18.643891
_cell_angle_alpha 90.000000
_cell_angle_beta 90.000000
_cell_angle_gamma 90.000000
_cell_volume 8852.720453
_symmetry_space_group_name_H-M "F M M M"
_symmetry_group_IT_number 69
_symmetry_cell_setting 'orthorhombic'
loop_
_space_group_symop_operation_xyz
x,y,z
-x,-y,z
x,-y,-z
-x,y,-z
-x,-y,-z
x,y,-z
-x,y,z
x,-y,z
x,1/2+y,1/2+z
-x,1/2-y,1/2+z
x,1/2-y,1/2-z
-x,1/2+y,1/2-z
-x,1/2-y,1/2-z
x,1/2+y,1/2-z
-x,1/2+y,1/2+z
x,1/2-y,1/2+z
1/2+x,y,1/2+z
1/2-x,-y,1/2+z
1/2+x,-y,1/2-z
1/2-x,y,1/2-z
1/2-x,-y,1/2-z
1/2+x,y,1/2-z
1/2-x,y,1/2+z
1/2+x,-y,1/2+z
1/2+x,1/2+y,z
1/2-x,1/2-y,z
1/2+x,1/2-y,-z
1/2-x,1/2+y,-z
1/2-x,1/2-y,-z
1/2+x,1/2+y,-z
1/2-x,1/2+y,z
1/2+x,1/2-y,z
loop_
_atom_site_type_symbol
_atom_site_label
_atom_site_fract_x
_atom_site_fract_y
_atom_site_fract_z
Si Si1 0.944361 0.157669 0.660570
Si Si2 0.055737 0.000000 0.579525
Si Si3 0.801573 0.842687 0.728975
Si Si4 0.892861 0.408100 0.709725
Si Si5 0.799933 0.209957 0.578929
Si Si6 0.606050 0.198788 0.418884
O O1 0.926308 0.078517 0.619945
O O2 0.924014 0.151330 0.740949
O O3 0.924674 0.231878 0.616795
O O4 0.000000 0.164772 0.665151
O O5 0.077480 0.000000 0.500000
O O6 0.000000 0.000000 0.576033
O O7 0.809930 0.750000 0.750000
O O8 0.750000 0.872715 0.750000
O O9 0.838342 0.899148 0.769173
O O10 0.809217 0.853138 0.642888
O O11 0.909092 0.500000 0.717700
O O12 0.900492 0.381859 0.627350
O O13 0.800146 0.168094 0.500000
O O14 0.750000 0.250000 0.595132
O O15 0.839140 0.278860 0.581200
O O16 0.588190 0.183413 0.500000
#
# Coordination Sequence:
#
# PCOD8284011 Si02
#       6
#    32  16  32  32  32  32
#     4  11  22  40  64  91 121 156 200 251 309 373
#     4   9  18  34  58  90 124 153 185 237 313 380
#     4  11  18  35  60  86 118 158 206 260 309 366
#     4  12  24  39  59  87 125 165 210 258 306 368
#     4  10  18  31  56  87 117 151 193 247 307 364
#     4  11  23  39  61  89 119 159 210 257 304 363
#
# _framework density 19.880894000000001
#
# number of rings (size 3 to 8) (size 9 to 14) (size 15 to 20)
#    0.000    1.182    6.364    1.091    0.000    3.273 
#    0.000    0.000    0.000    0.000    0.000    2.545 
#    0.000    0.000    0.000    0.000    0.000    0.000 
#
# Total GULP energy -545609.759002 kJ/mol
# GULP energy per Si atom -12400.221796 kJ/mol
# Density = 1.983564 g / cm^3
# Si number density = 19.880894 Si / 1000 Ang^3
#
#
#
# Elastic Constant Matrix: (Units=GPa)
#
#
# Indices 1 2 3 4 5 6 
#
# 1 92.5571 26.0448 28.7483 0.0000 0.0000 0.0000
# 2 26.0448 61.0979 42.9543 0.0000 0.0000 0.0000
# 3 28.7483 42.9543 181.9496 0.0000 0.0000 0.0000
# 4 0.0000 0.0000 0.0000 22.9749 0.0000 0.0000
# 5 0.0000 0.0000 0.0000 0.0000 23.7663 0.0000
# 6 0.0000 0.0000 0.0000 0.0000 0.0000 19.5190
#
#
#
# Elastic Compliance Matrix: (Units=1/GPa)
#
#
# Indices 1 2 3 4 5 6 
#
# 1 0.012386 -0.004681 -0.000852 0.000000 0.000000 0.000000
# 2 -0.004681 0.021393 -0.004311 0.000000 0.000000 0.000000
# 3 -0.000852 -0.004311 0.006648 0.000000 0.000000 0.000000
# 4 0.000000 0.000000 0.000000 0.043526 0.000000 0.000000
# 5 0.000000 0.000000 0.000000 0.000000 0.042076 0.000000
# 6 0.000000 0.000000 0.000000 0.000000 0.000000 0.051232
#
#
# Mechanical properties :
#
#
# Convention : Reuss Voigt Hill
#
# Bulk Modulus (GPa) = 48.21585 59.01104 53.61344
# Shear Modulus (GPa) = 24.52631 29.10919 26.81775
#
# Velocity S-wave (km/s) = 3.51616 3.83061 3.67675
# Velocity P-wave (km/s) = 6.38667 7.02221 6.71197
#
# Compressibility (1/GPa) = 0.02074007
#
# Stress axis : x y z
#
# Youngs Moduli (GPa) = 80.73682 46.74360 150.41348
#
# Poissons Ratio (x) = 0.21880 0.12814
# Poissons Ratio (y) = 0.37792 0.64842
# Poissons Ratio (z) = 0.06878 0.20151
#
# Static dielectric constant tensor:
#      x y z
#    x 3.585840 0.000000 0.000000 
#    y 0.000000 3.264260 0.000000 
#    z 0.000000 0.000000 4.121490 
# 
# 
# High freq. dielectric constant tensor:
#      x y z
#    x 1.778060 0.000000 0.000000 
#    y 0.000000 1.730660 0.000000 
#    z 0.000000 0.000000 1.798020 
# 
# From -- ./inp_files/27665.got.cif
#   From: 2010.03.12/outbox.cif.g09.slc.cpg/sg69_14_cif.got.tgz:27665.got - 2010.04.10 23:52:46.
