data_PCOD8284234
_publ_section_title
;
Structure prediction by ZEFSAII (Michael W. Deem and Ramdas Pophale) SiO2 
 PCOD8284234
Probable space group: F M M M
;
_chemical_formula_sum "Si O2"
_cell_formula_units_Z 176
_cell_length_a 27.435911
_cell_length_b 26.664795
_cell_length_c 13.302521
_cell_angle_alpha 90.000000
_cell_angle_beta 90.000000
_cell_angle_gamma 90.000000
_cell_volume 9731.764430
_symmetry_space_group_name_H-M "F M M M"
_symmetry_group_IT_number 69
_symmetry_cell_setting 'orthorhombic'
loop_
_space_group_symop_operation_xyz
x,y,z
-x,-y,z
x,-y,-z
-x,y,-z
-x,-y,-z
x,y,-z
-x,y,z
x,-y,z
x,1/2+y,1/2+z
-x,1/2-y,1/2+z
x,1/2-y,1/2-z
-x,1/2+y,1/2-z
-x,1/2-y,1/2-z
x,1/2+y,1/2-z
-x,1/2+y,1/2+z
x,1/2-y,1/2+z
1/2+x,y,1/2+z
1/2-x,-y,1/2+z
1/2+x,-y,1/2-z
1/2-x,y,1/2-z
1/2-x,-y,1/2-z
1/2+x,y,1/2-z
1/2-x,y,1/2+z
1/2+x,-y,1/2+z
1/2+x,1/2+y,z
1/2-x,1/2-y,z
1/2+x,1/2-y,-z
1/2-x,1/2+y,-z
1/2-x,1/2-y,-z
1/2+x,1/2+y,-z
1/2-x,1/2+y,z
1/2+x,1/2-y,z
loop_
_atom_site_type_symbol
_atom_site_label
_atom_site_fract_x
_atom_site_fract_y
_atom_site_fract_z
Si Si1 0.556326 0.380422 0.384052
Si Si2 0.445203 0.940427 0.500000
Si Si3 0.798973 0.277474 0.617603
Si Si4 0.695773 0.121646 0.737544
Si Si5 0.142326 0.813536 0.614653
Si Si6 0.604310 0.059362 0.294234
O O1 0.564334 0.399347 0.500000
O O2 0.500000 0.368851 0.363657
O O3 0.585729 0.328111 0.366795
O O4 0.575215 0.421120 0.303859
O O5 0.500000 0.919429 0.500000
O O6 0.419742 0.920633 0.397932
O O7 0.444504 0.000000 0.500000
O O8 0.798117 0.285003 0.500000
O O9 0.750000 0.250000 0.656021
O O10 0.805330 0.332476 0.660559
O O11 0.843919 0.241935 0.655606
O O12 0.750000 0.099307 0.750000
O O13 0.676654 0.142724 0.842780
O O14 0.660252 0.077326 0.701866
O O15 0.157137 0.813498 0.500000
O O16 0.603065 0.000000 0.288069
#
# Coordination Sequence:
#
# PCOD8284234 Si02
#       6
#    32  16  32  32  32  32
#     4   9  18  34  58  85 110 138 175 221 275 331
#     4   9  18  36  60  78  99 138 186 236 278 317
#     4  10  19  31  52  79 105 136 180 221 260 314
#     4  11  21  32  53  77 107 145 180 225 264 317
#     4   9  18  32  49  77 110 137 168 216 263 319
#     4  10  22  37  54  80 111 144 186 228 274 327
#
# _framework density 18.085106
#
# number of rings (size 3 to 8) (size 9 to 14) (size 15 to 20)
#    0.000    2.273    1.818    1.091    1.273    1.818 
#    0.000    0.909    0.000    9.818    0.000    0.000 
#    0.000    0.000    0.000    0.000    0.000    0.000 
#
# Total GULP energy -545270.111032 kJ/mol
# GULP energy per Si atom -12392.502523 kJ/mol
# Density = 1.804394 g / cm^3
# Si number density = 18.085106 Si / 1000 Ang^3
#
#
#
# Elastic Constant Matrix: (Units=GPa)
#
#
# Indices 1 2 3 4 5 6 
#
# 1 162.4245 51.2420 57.4373 0.0000 0.0000 0.0000
# 2 51.2420 65.6217 36.3162 0.0000 0.0000 0.0000
# 3 57.4373 36.3162 100.4479 0.0001 0.0000 0.0000
# 4 0.0000 0.0000 0.0001 20.0897 0.0000 0.0000
# 5 0.0000 0.0000 0.0000 0.0000 20.5259 0.0000
# 6 0.0000 0.0000 0.0000 0.0000 0.0000 26.4622
#
#
#
# Elastic Compliance Matrix: (Units=1/GPa)
#
#
# Indices 1 2 3 4 5 6 
#
# 1 0.008938 -0.005189 -0.003235 0.000000 0.000000 0.000000
# 2 -0.005189 0.022063 -0.005010 0.000000 0.000000 0.000000
# 3 -0.003235 -0.005010 0.013616 0.000000 0.000000 0.000000
# 4 0.000000 0.000000 0.000000 0.049777 0.000000 0.000000
# 5 0.000000 0.000000 0.000000 0.000000 0.048719 0.000000
# 6 0.000000 0.000000 0.000000 0.000000 0.000000 0.037790
#
#
# Mechanical properties :
#
#
# Convention : Reuss Voigt Hill
#
# Bulk Modulus (GPa) = 56.33640 68.72058 62.52849
# Shear Modulus (GPa) = 23.39887 25.64882 24.52385
#
# Velocity S-wave (km/s) = 3.60087 3.77002 3.68642
# Velocity P-wave (km/s) = 6.96468 7.55193 7.26424
#
# Compressibility (1/GPa) = 0.01775051
#
# Stress axis : x y z
#
# Youngs Moduli (GPa) = 111.88729 45.32424 73.44211
#
# Poissons Ratio (x) = 0.23519 0.23755
# Poissons Ratio (y) = 0.58059 0.36792
# Poissons Ratio (z) = 0.36191 0.22706
#
# Static dielectric constant tensor:
#      x y z
#    x 3.633760 0.000000 0.000000 
#    y 0.000000 3.143640 0.000000 
#    z 0.000000 0.000000 3.603520 
# 
# 
# High freq. dielectric constant tensor:
#      x y z
#    x 1.702400 0.000000 0.000000 
#    y 0.000000 1.670240 0.000000 
#    z 0.000000 0.000000 1.722170 
# 
# From -- ./inp_files/18101.got.cif
#   From: 2010.03.12/outbox.cif.g09.slc.cpg/sg69_10_cif.got.tgz:18101.got - 2010.04.10 23:52:46.
