data_PCOD8284183
_publ_section_title
;
Structure prediction by ZEFSAII (Michael W. Deem and Ramdas Pophale) SiO2 
 PCOD8284183
Probable space group: F M M M
;
_chemical_formula_sum "Si O2"
_cell_formula_units_Z 208
_cell_length_a 16.822248
_cell_length_b 29.834556
_cell_length_c 25.175727
_cell_angle_alpha 90.000000
_cell_angle_beta 90.000000
_cell_angle_gamma 90.000000
_cell_volume 12635.302122
_symmetry_space_group_name_H-M "F M M M"
_symmetry_group_IT_number 69
_symmetry_cell_setting 'orthorhombic'
loop_
_space_group_symop_operation_xyz
x,y,z
-x,-y,z
x,-y,-z
-x,y,-z
-x,-y,-z
x,y,-z
-x,y,z
x,-y,z
x,1/2+y,1/2+z
-x,1/2-y,1/2+z
x,1/2-y,1/2-z
-x,1/2+y,1/2-z
-x,1/2-y,1/2-z
x,1/2+y,1/2-z
-x,1/2+y,1/2+z
x,1/2-y,1/2+z
1/2+x,y,1/2+z
1/2-x,-y,1/2+z
1/2+x,-y,1/2-z
1/2-x,y,1/2-z
1/2-x,-y,1/2-z
1/2+x,y,1/2-z
1/2-x,y,1/2+z
1/2+x,-y,1/2+z
1/2+x,1/2+y,z
1/2-x,1/2-y,z
1/2+x,1/2-y,-z
1/2-x,1/2+y,-z
1/2-x,1/2-y,-z
1/2+x,1/2+y,-z
1/2-x,1/2+y,z
1/2+x,1/2-y,z
loop_
_atom_site_type_symbol
_atom_site_label
_atom_site_fract_x
_atom_site_fract_y
_atom_site_fract_z
Si Si1 0.590979 0.655588 0.675320
Si Si2 0.752951 0.627134 0.124812
Si Si3 0.090485 0.258797 0.349353
Si Si4 0.672597 0.948162 0.563084
Si Si5 0.328516 0.329937 0.780046
Si Si6 0.808960 0.291180 0.559249
Si Si7 0.000000 0.947019 0.057901
O O1 0.500000 0.640537 0.663411
O O2 0.654190 0.625913 0.642278
O O3 0.606257 0.706348 0.656942
O O4 0.607419 0.650074 0.738449
O O5 0.736548 0.580179 0.095843
O O6 0.694457 0.633011 0.175567
O O7 0.737242 0.666781 0.083493
O O8 0.140542 0.284185 0.305108
O O9 0.113947 0.276619 0.407491
O O10 0.000000 0.271340 0.339631
O O11 0.679083 0.939224 0.500000
O O12 0.584020 0.933463 0.585071
O O13 0.689515 0.000000 0.575566
O O14 0.250000 0.314684 0.750000
O O15 0.837476 0.303586 0.500000
O O16 0.750000 0.250000 0.558848
O O17 0.000000 0.000000 0.050685
O O18 0.000000 0.924407 0.000000
#
# Coordination Sequence:
#
# PCOD8284183 Si02
#       7
#    32  32  32  32  32  32  16
#     4  10  19  32  48  67  95 131 171 212 245 278
#     4  10  19  32  50  74  97 128 166 195 242 299
#     4  10  19  31  47  69  93 127 171 208 242 283
#     4   9  17  32  55  79 102 126 156 197 240 290
#     4   9  19  30  48  70  98 126 163 205 251 288
#     4  10  19  32  47  65  97 135 162 196 237 287
#     4   7  12  26  48  74 100 122 143 176 232 290
#
# _framework density 16.461815000000001
#
# number of rings (size 3 to 8) (size 9 to 14) (size 15 to 20)
#    0.000    2.538    1.538    2.308    0.000    3.385 
#    6.923    0.000    0.000    6.462    0.000    1.077 
#    0.000    0.000    0.000    0.000    0.000    0.000 
#
# Total GULP energy -644468.141542 kJ/mol
# GULP energy per Si atom -12393.618107 kJ/mol
# Density = 1.642435 g / cm^3
# Si number density = 16.461815 Si / 1000 Ang^3
#
#
#
# Elastic Constant Matrix: (Units=GPa)
#
#
# Indices 1 2 3 4 5 6 
#
# 1 105.0828 48.6386 46.3295 0.0000 0.0000 0.0000
# 2 48.6386 67.4242 41.7946 0.0000 0.0000 0.0000
# 3 46.3295 41.7946 102.4361 0.0000 0.0000 0.0000
# 4 0.0000 0.0000 0.0000 27.6148 0.0000 0.0000
# 5 0.0000 0.0000 0.0000 0.0000 19.1235 0.0000
# 6 0.0000 0.0000 0.0000 0.0000 0.0000 21.3499
#
#
#
# Elastic Compliance Matrix: (Units=1/GPa)
#
#
# Indices 1 2 3 4 5 6 
#
# 1 0.015021 -0.008867 -0.003176 0.000000 0.000000 0.000000
# 2 -0.008867 0.025087 -0.006225 0.000000 0.000000 0.000000
# 3 -0.003176 -0.006225 0.013738 0.000000 0.000000 0.000000
# 4 0.000000 0.000000 0.000000 0.036212 0.000000 0.000000
# 5 0.000000 0.000000 0.000000 0.000000 0.052292 0.000000
# 6 0.000000 0.000000 0.000000 0.000000 0.000000 0.046839
#
#
# Mechanical properties :
#
#
# Convention : Reuss Voigt Hill
#
# Bulk Modulus (GPa) = 57.77023 60.94095 59.35559
# Shear Modulus (GPa) = 21.59875 22.82965 22.21420
#
# Velocity S-wave (km/s) = 3.62616 3.72805 3.67746
# Velocity P-wave (km/s) = 7.25959 7.45863 7.35978
#
# Compressibility (1/GPa) = 0.01730995
#
# Stress axis : x y z
#
# Youngs Moduli (GPa) = 66.57509 39.86144 72.78877
#
# Poissons Ratio (x) = 0.35346 0.23115
# Poissons Ratio (y) = 0.59033 0.45313
# Poissons Ratio (z) = 0.21142 0.24815
#
# Static dielectric constant tensor:
#      x y z
#    x 3.223680 0.000000 0.000000 
#    y 0.000000 2.763450 0.000000 
#    z 0.000000 0.000000 3.314730 
# 
# 
# High freq. dielectric constant tensor:
#      x y z
#    x 1.634690 0.000000 0.000000 
#    y 0.000000 1.596270 0.000000 
#    z 0.000000 0.000000 1.632430 
# 
# From -- ./inp_files/42211.got.cif
#   From: 2010.03.12/outbox.cif.g09.slc.cpg/sg69_22_cif.got.tgz:42211.got - 2010.04.10 23:52:46.
