data_PCOD8284158
_publ_section_title
;
Structure prediction by ZEFSAII (Michael W. Deem and Ramdas Pophale) SiO2 
 PCOD8284158
Probable space group: F M M M
;
_chemical_formula_sum "Si O2"
_cell_formula_units_Z 192
_cell_length_a 18.796016
_cell_length_b 30.198468
_cell_length_c 19.023725
_cell_angle_alpha 90.000000
_cell_angle_beta 90.000000
_cell_angle_gamma 90.000000
_cell_volume 10798.073435
_symmetry_space_group_name_H-M "F M M M"
_symmetry_group_IT_number 69
_symmetry_cell_setting 'orthorhombic'
loop_
_space_group_symop_operation_xyz
x,y,z
-x,-y,z
x,-y,-z
-x,y,-z
-x,-y,-z
x,y,-z
-x,y,z
x,-y,z
x,1/2+y,1/2+z
-x,1/2-y,1/2+z
x,1/2-y,1/2-z
-x,1/2+y,1/2-z
-x,1/2-y,1/2-z
x,1/2+y,1/2-z
-x,1/2+y,1/2+z
x,1/2-y,1/2+z
1/2+x,y,1/2+z
1/2-x,-y,1/2+z
1/2+x,-y,1/2-z
1/2-x,y,1/2-z
1/2-x,-y,1/2-z
1/2+x,y,1/2-z
1/2-x,y,1/2+z
1/2+x,-y,1/2+z
1/2+x,1/2+y,z
1/2-x,1/2-y,z
1/2+x,1/2-y,-z
1/2-x,1/2+y,-z
1/2-x,1/2-y,-z
1/2+x,1/2+y,-z
1/2-x,1/2+y,z
1/2+x,1/2-y,z
loop_
_atom_site_type_symbol
_atom_site_label
_atom_site_fract_x
_atom_site_fract_y
_atom_site_fract_z
Si Si1 0.293914 0.449533 0.816457
Si Si2 0.081506 0.625831 0.846067
Si Si3 0.669740 0.550661 0.418858
Si Si4 0.581435 0.288646 0.581724
Si Si5 0.915329 0.191710 0.078522
Si Si6 0.081605 0.384007 0.683373
O O1 0.312826 0.500000 0.798475
O O2 0.250000 0.429290 0.750000
O O3 0.248852 0.444910 0.887724
O O4 0.368800 0.425982 0.829747
O O5 0.118013 0.581523 0.874102
O O6 0.118408 0.670253 0.877802
O O7 0.088310 0.631169 0.763140
O O8 0.000000 0.622024 0.870504
O O9 0.671292 0.565428 0.500000
O O10 0.642770 0.500000 0.411046
O O11 0.588603 0.298696 0.500000
O O12 0.500000 0.287390 0.606396
O O13 0.615714 0.240462 0.599284
O O14 0.889168 0.155714 0.134534
O O15 0.000000 0.195180 0.078225
O O16 0.888956 0.178607 0.000000
O O17 0.000000 0.396461 0.664304
#
# Coordination Sequence:
#
# PCOD8284158 Si02
#       6
#    32  32  32  32  32  32
#     4  10  20  37  56  72  99 139 174 208 251 302
#     4  10  19  30  48  78 111 139 172 214 257 304
#     4  10  21  36  54  76 101 136 179 215 255 310
#     4   8  14  26  45  69 101 140 174 207 253 305
#     4   8  15  29  48  72 103 136 171 213 259 305
#     4  10  20  32  52  82 107 132 170 213 260 308
#
# _framework density 17.780949
#
# number of rings (size 3 to 8) (size 9 to 14) (size 15 to 20)
#    0.000    2.667    1.667    1.500    0.000    3.000 
#    0.000    5.833    0.000    1.000    0.000    8.167 
#    0.000    0.000    0.000    0.000    0.000    0.000 
#
# Total GULP energy -594963.446457 kJ/mol
# GULP energy per Si atom -12395.071801 kJ/mol
# Density = 1.774048 g / cm^3
# Si number density = 17.780949 Si / 1000 Ang^3
#
#
#
# Elastic Constant Matrix: (Units=GPa)
#
#
# Indices 1 2 3 4 5 6 
#
# 1 53.9446 50.1712 27.5215 0.0000 0.0000 0.0000
# 2 50.1712 122.5336 58.8834 0.0000 0.0000 0.0000
# 3 27.5215 58.8834 92.3042 0.0000 0.0000 0.0000
# 4 0.0000 0.0000 0.0000 31.7921 0.0000 0.0000
# 5 0.0000 0.0000 0.0000 0.0000 18.7852 0.0000
# 6 0.0000 0.0000 0.0000 0.0000 0.0000 6.2792
#
#
#
# Elastic Compliance Matrix: (Units=1/GPa)
#
#
# Indices 1 2 3 4 5 6 
#
# 1 0.030102 -0.011554 -0.001605 0.000000 0.000000 0.000000
# 2 -0.011554 0.016204 -0.006892 0.000000 0.000000 0.000000
# 3 -0.001605 -0.006892 0.015709 0.000000 0.000000 0.000000
# 4 0.000000 0.000000 0.000000 0.031454 0.000000 0.000000
# 5 0.000000 0.000000 0.000000 0.000000 0.053233 0.000000
# 6 0.000000 0.000000 0.000000 0.000000 0.000000 0.159256
#
#
# Mechanical properties :
#
#
# Convention : Reuss Voigt Hill
#
# Bulk Modulus (GPa) = 45.63416 60.21496 52.92456
# Shear Modulus (GPa) = 14.14973 20.18505 17.16739
#
# Velocity S-wave (km/s) = 2.82402 3.37294 3.11061
# Velocity P-wave (km/s) = 6.02941 7.00766 6.53686
#
# Compressibility (1/GPa) = 0.02191341
#
# Stress axis : x y z
#
# Youngs Moduli (GPa) = 33.22023 61.71425 63.65937
#
# Poissons Ratio (x) = 0.71306 0.10214
# Poissons Ratio (y) = 0.38383 0.43873
# Poissons Ratio (z) = 0.05330 0.42532
#
# Static dielectric constant tensor:
#      x y z
#    x 2.938950 0.000000 0.000000 
#    y 0.000000 3.550930 0.000000 
#    z 0.000000 0.000000 3.436750 
# 
# 
# High freq. dielectric constant tensor:
#      x y z
#    x 1.642210 0.000000 0.000000 
#    y 0.000000 1.695990 0.000000 
#    z 0.000000 0.000000 1.693930 
# 
# From -- ./inp_files/32102.got.cif
#   From: 2010.03.12/outbox.cif.g09.slc.cpg/sg69_17_cif.got.tgz:32102.got - 2010.04.10 23:52:46.
