data_PCOD8284269
_publ_section_title
;
Structure prediction by ZEFSAII (Michael W. Deem and Ramdas Pophale) SiO2 
 PCOD8284269
Probable space group: F M M M
;
_chemical_formula_sum "Si O2"
_cell_formula_units_Z 160
_cell_length_a 14.474512
_cell_length_b 22.688587
_cell_length_c 26.863187
_cell_angle_alpha 90.000000
_cell_angle_beta 90.000000
_cell_angle_gamma 90.000000
_cell_volume 8822.037829
_symmetry_space_group_name_H-M "F M M M"
_symmetry_group_IT_number 69
_symmetry_cell_setting 'orthorhombic'
loop_
_space_group_symop_operation_xyz
x,y,z
-x,-y,z
x,-y,-z
-x,y,-z
-x,-y,-z
x,y,-z
-x,y,z
x,-y,z
x,1/2+y,1/2+z
-x,1/2-y,1/2+z
x,1/2-y,1/2-z
-x,1/2+y,1/2-z
-x,1/2-y,1/2-z
x,1/2+y,1/2-z
-x,1/2+y,1/2+z
x,1/2-y,1/2+z
1/2+x,y,1/2+z
1/2-x,-y,1/2+z
1/2+x,-y,1/2-z
1/2-x,y,1/2-z
1/2-x,-y,1/2-z
1/2+x,y,1/2-z
1/2-x,y,1/2+z
1/2+x,-y,1/2+z
1/2+x,1/2+y,z
1/2-x,1/2-y,z
1/2+x,1/2-y,-z
1/2-x,1/2+y,-z
1/2-x,1/2-y,-z
1/2+x,1/2+y,-z
1/2-x,1/2+y,z
1/2+x,1/2-y,z
loop_
_atom_site_type_symbol
_atom_site_label
_atom_site_fract_x
_atom_site_fract_y
_atom_site_fract_z
Si Si1 0.603769 0.732581 0.804285
Si Si2 0.104173 0.565204 0.266790
Si Si3 0.608656 0.066767 0.443812
Si Si4 0.601247 0.362625 0.669429
Si Si5 0.700862 0.876077 0.646298
O O1 0.500000 0.704599 0.799632
O O2 0.642849 0.750000 0.750000
O O3 0.597924 0.792446 0.835333
O O4 0.672452 0.688043 0.832380
O O5 0.125115 0.500000 0.244650
O O6 0.120494 0.615649 0.225835
O O7 0.170456 0.575230 0.313663
O O8 0.000000 0.568366 0.287058
O O9 0.638721 0.082662 0.500000
O O10 0.500000 0.073121 0.437858
O O11 0.655858 0.113165 0.407108
O O12 0.639237 0.000000 0.430961
O O13 0.500000 0.387749 0.651742
O O14 0.688785 0.382991 0.636993
#
# Coordination Sequence:
#
# PCOD8284269 Si02
#       5
#    32  32  32  32  32
#     4  10  19  32  50  74 106 138 174 216 258 310
#     4  10  20  32  46  70 103 135 170 212 257 308
#     4   9  19  36  57  83 111 132 161 217 278 320
#     4  10  22  35  45  67 107 144 174 213 252 297
#     4  12  20  30  55  78  98 136 181 212 256 318
#
# _framework density 18.136399999999998
#
# number of rings (size 3 to 8) (size 9 to 14) (size 15 to 20)
#    0.000    1.800    2.000    4.200    0.000    4.800 
#    0.000    0.000    0.000    3.000    0.000    4.200 
#    0.000    0.000    0.000    0.000    0.000    0.000 
#
# Total GULP energy -495793.396983 kJ/mol
# GULP energy per Si atom -12394.834925 kJ/mol
# Density = 1.809512 g / cm^3
# Si number density = 18.136400 Si / 1000 Ang^3
#
#
#
# Elastic Constant Matrix: (Units=GPa)
#
#
# Indices 1 2 3 4 5 6 
#
# 1 115.6340 32.0663 42.8850 0.0000 0.0000 0.0000
# 2 32.0663 89.4169 38.5507 0.0000 0.0000 0.0000
# 3 42.8850 38.5507 84.0488 0.0000 0.0000 0.0000
# 4 0.0000 0.0000 0.0000 24.4700 0.0000 0.0000
# 5 0.0000 0.0000 0.0000 0.0000 18.0771 0.0000
# 6 0.0000 0.0000 0.0000 0.0000 0.0000 12.3548
#
#
#
# Elastic Compliance Matrix: (Units=1/GPa)
#
#
# Indices 1 2 3 4 5 6 
#
# 1 0.010916 -0.001886 -0.004704 0.000000 0.000000 0.000000
# 2 -0.001886 0.014266 -0.005581 0.000000 0.000000 0.000000
# 3 -0.004704 -0.005581 0.016858 0.000000 0.000000 0.000000
# 4 0.000000 0.000000 0.000000 0.040866 0.000000 0.000000
# 5 0.000000 0.000000 0.000000 0.000000 0.055319 0.000000
# 6 0.000000 0.000000 0.000000 0.000000 0.000000 0.080940
#
#
# Mechanical properties :
#
#
# Convention : Reuss Voigt Hill
#
# Bulk Modulus (GPa) = 56.50834 57.34484 56.92659
# Shear Modulus (GPa) = 20.04749 22.68688 21.36719
#
# Velocity S-wave (km/s) = 3.32832 3.54065 3.43613
# Velocity P-wave (km/s) = 6.78199 6.95717 6.87014
#
# Compressibility (1/GPa) = 0.01769650
#
# Stress axis : x y z
#
# Youngs Moduli (GPa) = 91.61023 70.09569 59.31861
#
# Poissons Ratio (x) = 0.13222 0.27906
# Poissons Ratio (y) = 0.17281 0.33106
# Poissons Ratio (z) = 0.43098 0.39121
#
# Static dielectric constant tensor:
#      x y z
#    x 3.576550 0.000000 0.000000 
#    y 0.000000 3.387390 0.000000 
#    z 0.000000 0.000000 2.924280 
# 
# 
# High freq. dielectric constant tensor:
#      x y z
#    x 1.711240 0.000000 0.000000 
#    y 0.000000 1.707200 0.000000 
#    z 0.000000 0.000000 1.640820 
# 
# From -- ./inp_files/17681.got.cif
#   From: 2010.03.12/outbox.cif.g09.slc.cpg/sg69_9_cif.got.tgz:17681.got - 2010.04.10 23:52:46.
