data_PCOD8284629
_publ_section_title
;
Structure prediction by ZEFSAII (Michael W. Deem and Ramdas Pophale) SiO2 
 PCOD8284629
Probable space group: F M M M
;
_chemical_formula_sum "Si O2"
_cell_formula_units_Z 128
_cell_length_a 27.228668
_cell_length_b 26.011860
_cell_length_c 8.976941
_cell_angle_alpha 90.000000
_cell_angle_beta 90.000000
_cell_angle_gamma 90.000000
_cell_volume 6358.082741
_symmetry_space_group_name_H-M "F M M M"
_symmetry_group_IT_number 69
_symmetry_cell_setting 'orthorhombic'
loop_
_space_group_symop_operation_xyz
x,y,z
-x,-y,z
x,-y,-z
-x,y,-z
-x,-y,-z
x,y,-z
-x,y,z
x,-y,z
x,1/2+y,1/2+z
-x,1/2-y,1/2+z
x,1/2-y,1/2-z
-x,1/2+y,1/2-z
-x,1/2-y,1/2-z
x,1/2+y,1/2-z
-x,1/2+y,1/2+z
x,1/2-y,1/2+z
1/2+x,y,1/2+z
1/2-x,-y,1/2+z
1/2+x,-y,1/2-z
1/2-x,y,1/2-z
1/2-x,-y,1/2-z
1/2+x,y,1/2-z
1/2-x,y,1/2+z
1/2+x,-y,1/2+z
1/2+x,1/2+y,z
1/2-x,1/2-y,z
1/2+x,1/2-y,-z
1/2-x,1/2+y,-z
1/2-x,1/2-y,-z
1/2+x,1/2+y,-z
1/2-x,1/2+y,z
1/2+x,1/2-y,z
loop_
_atom_site_type_symbol
_atom_site_label
_atom_site_fract_x
_atom_site_fract_y
_atom_site_fract_z
Si Si1 0.000000 0.306409 0.821431
Si Si2 0.657212 0.944052 0.331862
Si Si3 0.250000 0.616637 0.250000
Si Si4 0.817568 0.797218 0.335054
Si Si5 0.096001 0.349630 0.678373
O O1 0.000000 0.250000 0.750000
O O2 0.046094 0.338944 0.764795
O O3 0.000000 0.301748 0.000000
O O4 0.641869 0.953377 0.500000
O O5 0.711767 0.919888 0.334446
O O6 0.616504 0.905217 0.265150
O O7 0.656493 0.000000 0.248832
O O8 0.218961 0.654366 0.143119
O O9 0.834957 0.781105 0.500000
O O10 0.790778 0.750000 0.250000
O O11 0.864212 0.808101 0.229765
O O12 0.088918 0.346672 0.500000
#
# Coordination Sequence:
#
# PCOD8284629 Si02
#       5
#    16  32  16  32  32
#     4  12  24  40  63  88 115 145 180 223 273 330
#     4   9  18  34  56  81 109 144 187 232 275 322
#     4  10  20  32  52  78 112 148 190 234 278 328
#     4  11  22  35  52  77 112 152 191 232 280 333
#     4  10  21  38  59  84 114 146 184 228 275 331
#
# _framework density 20.131855000000002
#
# number of rings (size 3 to 8) (size 9 to 14) (size 15 to 20)
#    0.000    1.750    0.000    4.875    0.000    4.000 
#    0.000    0.625    0.000   18.750    0.000    0.000 
#    0.000    0.000    0.000    0.000    0.000    0.000 
#
# Total GULP energy -396467.517795 kJ/mol
# GULP energy per Si atom -12389.609931 kJ/mol
# Density = 2.008603 g / cm^3
# Si number density = 20.131855 Si / 1000 Ang^3
#
#
#
# Elastic Constant Matrix: (Units=GPa)
#
#
# Indices 1 2 3 4 5 6 
#
# 1 141.6349 68.2516 39.8620 -0.0010 0.0000 0.0004
# 2 68.2516 156.1418 46.1728 0.0023 0.0054 -0.0012
# 3 39.8620 46.1728 119.3231 0.0093 -0.0079 -0.0058
# 4 -0.0010 0.0023 0.0093 19.0629 -0.0074 -0.0018
# 5 0.0000 0.0054 -0.0079 -0.0074 17.0880 -0.0001
# 6 0.0004 -0.0012 -0.0058 -0.0018 -0.0001 16.2394
#
#
#
# Elastic Compliance Matrix: (Units=1/GPa)
#
#
# Indices 1 2 3 4 5 6 
#
# 1 0.009248 -0.003533 -0.001722 0.000002 0.000000 -0.000001
# 2 -0.003533 0.008582 -0.002140 0.000000 -0.000004 0.000000
# 3 -0.001722 -0.002140 0.009784 -0.000005 0.000005 0.000003
# 4 0.000002 0.000000 -0.000005 0.052458 0.000023 0.000006
# 5 0.000000 -0.000004 0.000005 0.000023 0.058521 0.000000
# 6 -0.000001 0.000000 0.000003 0.000006 0.000000 0.061579
#
#
# Mechanical properties :
#
#
# Convention : Reuss Voigt Hill
#
# Bulk Modulus (GPa) = 77.98994 80.63027 79.31011
# Shear Modulus (GPa) = 22.80646 27.99895 25.40270
#
# Velocity S-wave (km/s) = 3.36944 3.73336 3.55606
# Velocity P-wave (km/s) = 7.34583 7.66303 7.50610
#
# Compressibility (1/GPa) = 0.01282217
#
# Stress axis : x y z
#
# Youngs Moduli (GPa) = 108.13627 116.52692 102.20532
#
# Poissons Ratio (x) = 0.41169 0.17602
# Poissons Ratio (y) = 0.38204 0.21877
# Poissons Ratio (z) = 0.18623 0.24943
#
# Static dielectric constant tensor:
#      x y z
#    x 3.604630 0.000030 0.000010 
#    y 0.000030 4.248530 -0.000040 
#    z 0.000010 -0.000040 3.451020 
# 
# 
# High freq. dielectric constant tensor:
#      x y z
#    x 1.779400 0.000000 0.000000 
#    y 0.000000 1.796270 0.000000 
#    z 0.000000 0.000000 1.769630 
# 
# From -- ./inp_files/4834.got.cif
#   From: 2010.03.12/outbox.cif.g09.slc.cpg/sg69_3_cif.got.tgz:4834.got - 2010.04.10 23:52:46.
