data_PCOD8284837
_publ_section_title
;
Structure prediction by ZEFSAII (Michael W. Deem and Ramdas Pophale) SiO2 
 PCOD8284837
Probable space group: F M M M
;
_chemical_formula_sum "Si O2"
_cell_formula_units_Z 208
_cell_length_a 24.939217
_cell_length_b 17.048783
_cell_length_c 23.646394
_cell_angle_alpha 90.000000
_cell_angle_beta 90.000000
_cell_angle_gamma 90.000000
_cell_volume 10054.051806
_symmetry_space_group_name_H-M "F M M M"
_symmetry_group_IT_number 69
_symmetry_cell_setting 'orthorhombic'
loop_
_space_group_symop_operation_xyz
x,y,z
-x,-y,z
x,-y,-z
-x,y,-z
-x,-y,-z
x,y,-z
-x,y,z
x,-y,z
x,1/2+y,1/2+z
-x,1/2-y,1/2+z
x,1/2-y,1/2-z
-x,1/2+y,1/2-z
-x,1/2-y,1/2-z
x,1/2+y,1/2-z
-x,1/2+y,1/2+z
x,1/2-y,1/2+z
1/2+x,y,1/2+z
1/2-x,-y,1/2+z
1/2+x,-y,1/2-z
1/2-x,y,1/2-z
1/2-x,-y,1/2-z
1/2+x,y,1/2-z
1/2-x,y,1/2+z
1/2+x,-y,1/2+z
1/2+x,1/2+y,z
1/2-x,1/2-y,z
1/2+x,1/2-y,-z
1/2-x,1/2+y,-z
1/2-x,1/2-y,-z
1/2+x,1/2+y,-z
1/2-x,1/2+y,z
1/2+x,1/2-y,z
loop_
_atom_site_type_symbol
_atom_site_label
_atom_site_fract_x
_atom_site_fract_y
_atom_site_fract_z
Si Si1 0.802275 0.307402 0.868881
Si Si2 0.646580 0.411412 0.854324
Si Si3 0.559549 0.373940 0.938233
Si Si4 0.733367 0.592775 0.062101
Si Si5 0.312399 0.588728 0.737254
Si Si6 0.593187 0.296537 0.563905
Si Si7 0.000000 0.089935 0.432723
O O1 0.750000 0.250000 0.863111
O O2 0.788945 0.378383 0.911746
O O3 0.820597 0.346033 0.810244
O O4 0.856692 0.272385 0.895582
O O5 0.666399 0.500000 0.846528
O O6 0.588492 0.408533 0.882727
O O7 0.686756 0.370341 0.898684
O O8 0.653935 0.376052 0.791324
O O9 0.500000 0.407810 0.934454
O O10 0.556689 0.280428 0.936257
O O11 0.584553 0.400322 0.000000
O O12 0.732893 0.500000 0.059500
O O13 0.725229 0.629000 0.000000
O O14 0.332107 0.500000 0.720491
O O15 0.250000 0.584127 0.750000
O O16 0.612929 0.316661 0.500000
O O17 0.554815 0.366452 0.588095
O O18 0.000000 0.093161 0.500000
O O19 0.000000 0.000000 0.410245
#
# Coordination Sequence:
#
# PCOD8284837 Si02
#       7
#    32  32  32  32  32  32  16
#     4  12  24  36  57  89 122 153 202 255 302 367
#     4  10  20  36  59  84 112 153 198 243 287 344
#     4  10  20  37  61  86 120 159 190 232 300 370
#     4  10  20  35  54  80 118 156 189 231 294 363
#     4  10  21  41  61  77 111 159 204 246 292 351
#     4  10  21  38  57  84 123 159 192 241 308 368
#     4   9  18  36  62  86 110 153 211 257 294 353
#
# _framework density 20.688177
#
# number of rings (size 3 to 8) (size 9 to 14) (size 15 to 20)
#    0.000    1.769    2.308    2.308    0.000    5.231 
#    0.000    2.308    1.692    0.923    0.000    0.000 
#    0.000    0.000    0.000    0.000    0.000    0.000 
#
# Total GULP energy -644187.101612 kJ/mol
# GULP energy per Si atom -12388.213493 kJ/mol
# Density = 2.064109 g / cm^3
# Si number density = 20.688177 Si / 1000 Ang^3
#
#
#
# Elastic Constant Matrix: (Units=GPa)
#
#
# Indices 1 2 3 4 5 6 
#
# 1 92.3986 20.3832 58.2090 0.0000 0.0000 0.0000
# 2 20.3832 46.1219 37.6362 0.0000 0.0000 0.0000
# 3 58.2090 37.6362 154.3462 0.0000 0.0000 0.0000
# 4 0.0000 0.0000 0.0000 14.0447 0.0000 0.0000
# 5 0.0000 0.0000 0.0000 0.0000 30.9521 0.0000
# 6 0.0000 0.0000 0.0000 0.0000 0.0000 30.4752
#
#
#
# Elastic Compliance Matrix: (Units=1/GPa)
#
#
# Indices 1 2 3 4 5 6 
#
# 1 0.014407 -0.002414 -0.004845 0.000000 0.000000 0.000000
# 2 -0.002414 0.027472 -0.005789 0.000000 0.000000 0.000000
# 3 -0.004845 -0.005789 0.009718 0.000000 0.000000 0.000000
# 4 0.000000 0.000000 0.000000 0.071201 0.000000 0.000000
# 5 0.000000 0.000000 0.000000 0.000000 0.032308 0.000000
# 6 0.000000 0.000000 0.000000 0.000000 0.000000 0.032814
#
#
# Mechanical properties :
#
#
# Convention : Reuss Voigt Hill
#
# Bulk Modulus (GPa) = 39.21170 58.36929 48.79049
# Shear Modulus (GPa) = 22.47040 26.87028 24.67034
#
# Velocity S-wave (km/s) = 3.29925 3.60783 3.45698
# Velocity P-wave (km/s) = 5.78863 6.75502 6.29041
#
# Compressibility (1/GPa) = 0.02550259
#
# Stress axis : x y z
#
# Youngs Moduli (GPa) = 69.40919 36.40073 102.90592
#
# Poissons Ratio (x) = 0.08786 0.49857
# Poissons Ratio (y) = 0.16753 0.59568
# Poissons Ratio (z) = 0.33628 0.21071
#
# Static dielectric constant tensor:
#      x y z
#    x 3.530900 0.000000 0.000000 
#    y 0.000000 3.715410 0.000000 
#    z 0.000000 0.000000 3.972720 
# 
# 
# High freq. dielectric constant tensor:
#      x y z
#    x 1.786570 0.000000 0.000000 
#    y 0.000000 1.813710 0.000000 
#    z 0.000000 0.000000 1.796900 
# 
# From -- ./inp_files/38499.got.cif
#   From: 2010.03.12/outbox.cif.g09.slc.cpg/sg69_20_cif.got.tgz:38499.got - 2010.04.10 23:52:46.
