data_PCOD8284676
_publ_section_title
;
Structure prediction by ZEFSAII (Michael W. Deem and Ramdas Pophale) SiO2 
 PCOD8284676
Probable space group: F M M M
;
_chemical_formula_sum "Si O2"
_cell_formula_units_Z 160
_cell_length_a 20.518399
_cell_length_b 14.232096
_cell_length_c 26.558830
_cell_angle_alpha 90.000000
_cell_angle_beta 90.000000
_cell_angle_gamma 90.000000
_cell_volume 7755.704871
_symmetry_space_group_name_H-M "F M M M"
_symmetry_group_IT_number 69
_symmetry_cell_setting 'orthorhombic'
loop_
_space_group_symop_operation_xyz
x,y,z
-x,-y,z
x,-y,-z
-x,y,-z
-x,-y,-z
x,y,-z
-x,y,z
x,-y,z
x,1/2+y,1/2+z
-x,1/2-y,1/2+z
x,1/2-y,1/2-z
-x,1/2+y,1/2-z
-x,1/2-y,1/2-z
x,1/2+y,1/2-z
-x,1/2+y,1/2+z
x,1/2-y,1/2+z
1/2+x,y,1/2+z
1/2-x,-y,1/2+z
1/2+x,-y,1/2-z
1/2-x,y,1/2-z
1/2-x,-y,1/2-z
1/2+x,y,1/2-z
1/2-x,y,1/2+z
1/2+x,-y,1/2+z
1/2+x,1/2+y,z
1/2-x,1/2-y,z
1/2+x,1/2-y,-z
1/2-x,1/2+y,-z
1/2-x,1/2-y,-z
1/2+x,1/2+y,-z
1/2-x,1/2+y,z
1/2+x,1/2-y,z
loop_
_atom_site_type_symbol
_atom_site_label
_atom_site_fract_x
_atom_site_fract_y
_atom_site_fract_z
Si Si1 0.572664 0.858691 0.756214
Si Si2 0.205148 0.894380 0.206836
Si Si3 0.076214 0.397294 0.132719
Si Si4 0.847722 0.785304 0.557372
Si Si5 0.221412 0.612153 0.406013
O O1 0.500000 0.905065 0.747610
O O2 0.563380 0.750000 0.750000
O O3 0.627298 0.893360 0.717080
O O4 0.603325 0.880496 0.811048
O O5 0.250000 0.843308 0.250000
O O6 0.219421 0.851986 0.151834
O O7 0.230350 0.000000 0.203423
O O8 0.101009 0.500000 0.114022
O O9 0.094233 0.315390 0.094076
O O10 0.000000 0.394919 0.137987
O O11 0.869245 0.800695 0.500000
O O12 0.832658 0.674700 0.565178
O O13 0.789484 0.857121 0.570093
O O14 0.208540 0.500000 0.412931
#
# Coordination Sequence:
#
# PCOD8284676 Si02
#       5
#    32  32  32  32  32
#     4  10  20  34  54  81 114 151 188 224 268 331
#     4  10  20  33  52  79 110 145 183 222 270 332
#     4  10  21  37  58  85 116 148 185 233 287 341
#     4  11  23  38  58  82 109 145 190 240 292 344
#     4  10  21  37  56  81 113 146 185 233 283 338
#
# _framework density 20.629975000000002
#
# number of rings (size 3 to 8) (size 9 to 14) (size 15 to 20)
#    0.000    1.800    0.000    4.800    0.000    8.000 
#    0.000    1.000    0.000    1.800    0.000    1.400 
#    0.000    0.000    0.000    0.000    0.000    0.000 
#
# Total GULP energy -495668.456747 kJ/mol
# GULP energy per Si atom -12391.711419 kJ/mol
# Density = 2.058302 g / cm^3
# Si number density = 20.629975 Si / 1000 Ang^3
#
#
#
# Elastic Constant Matrix: (Units=GPa)
#
#
# Indices 1 2 3 4 5 6 
#
# 1 43.6789 12.5261 7.0795 0.0000 0.0000 0.0000
# 2 12.5261 103.3673 20.0892 0.0000 0.0000 0.0000
# 3 7.0795 20.0892 77.3755 0.0000 0.0000 0.0000
# 4 0.0000 0.0000 0.0000 17.8230 0.0000 0.0000
# 5 0.0000 0.0000 0.0000 0.0000 58.5950 0.0000
# 6 0.0000 0.0000 0.0000 0.0000 0.0000 25.7280
#
#
#
# Elastic Compliance Matrix: (Units=1/GPa)
#
#
# Indices 1 2 3 4 5 6 
#
# 1 0.023885 -0.002601 -0.001510 0.000000 0.000000 0.000000
# 2 -0.002601 0.010472 -0.002481 0.000000 0.000000 0.000000
# 3 -0.001510 -0.002481 0.013706 0.000000 0.000000 0.000000
# 4 0.000000 0.000000 0.000000 0.056107 0.000000 0.000000
# 5 0.000000 0.000000 0.000000 0.000000 0.017066 0.000000
# 6 0.000000 0.000000 0.000000 0.000000 0.000000 0.038868
#
#
# Mechanical properties :
#
#
# Convention : Reuss Voigt Hill
#
# Bulk Modulus (GPa) = 28.67037 33.75683 31.21360
# Shear Modulus (GPa) = 27.03952 32.74432 29.89192
#
# Velocity S-wave (km/s) = 3.62427 3.98832 3.81064
# Velocity P-wave (km/s) = 5.60727 6.13249 5.87575
#
# Compressibility (1/GPa) = 0.03487921
#
# Stress axis : x y z
#
# Youngs Moduli (GPa) = 41.86730 95.49674 72.95943
#
# Poissons Ratio (x) = 0.24838 0.11017
# Poissons Ratio (y) = 0.10889 0.18100
# Poissons Ratio (z) = 0.06322 0.23691
#
# Static dielectric constant tensor:
#      x y z
#    x 3.792170 0.000000 0.000000 
#    y 0.000000 3.991110 0.000000 
#    z 0.000000 0.000000 4.296430 
# 
# 
# High freq. dielectric constant tensor:
#      x y z
#    x 1.792860 0.000000 0.000000 
#    y 0.000000 1.811190 0.000000 
#    z 0.000000 0.000000 1.802670 
# 
# From -- ./inp_files/17728.got.cif
#   From: 2010.03.12/outbox.cif.g09.slc.cpg/sg69_9_cif.got.tgz:17728.got - 2010.04.10 23:52:46.
