data_PCOD8284790
_publ_section_title
;
Structure prediction by ZEFSAII (Michael W. Deem and Ramdas Pophale) SiO2 
 PCOD8284790
Probable space group: F M M M
;
_chemical_formula_sum "Si O2"
_cell_formula_units_Z 160
_cell_length_a 27.046325
_cell_length_b 17.309999
_cell_length_c 18.715554
_cell_angle_alpha 90.000000
_cell_angle_beta 90.000000
_cell_angle_gamma 90.000000
_cell_volume 8762.095703
_symmetry_space_group_name_H-M "F M M M"
_symmetry_group_IT_number 69
_symmetry_cell_setting 'orthorhombic'
loop_
_space_group_symop_operation_xyz
x,y,z
-x,-y,z
x,-y,-z
-x,y,-z
-x,-y,-z
x,y,-z
-x,y,z
x,-y,z
x,1/2+y,1/2+z
-x,1/2-y,1/2+z
x,1/2-y,1/2-z
-x,1/2+y,1/2-z
-x,1/2-y,1/2-z
x,1/2+y,1/2-z
-x,1/2+y,1/2+z
x,1/2-y,1/2+z
1/2+x,y,1/2+z
1/2-x,-y,1/2+z
1/2+x,-y,1/2-z
1/2-x,y,1/2-z
1/2-x,-y,1/2-z
1/2+x,y,1/2-z
1/2-x,y,1/2+z
1/2+x,-y,1/2+z
1/2+x,1/2+y,z
1/2-x,1/2-y,z
1/2+x,1/2-y,-z
1/2-x,1/2+y,-z
1/2-x,1/2-y,-z
1/2+x,1/2+y,-z
1/2-x,1/2+y,z
1/2+x,1/2-y,z
loop_
_atom_site_type_symbol
_atom_site_label
_atom_site_fract_x
_atom_site_fract_y
_atom_site_fract_z
Si Si1 0.281680 0.411297 0.815767
Si Si2 0.620386 0.818133 0.697437
Si Si3 0.441793 0.410865 0.308448
Si Si4 0.393032 0.300059 0.583973
Si Si5 0.778141 0.175658 0.582192
O O1 0.295365 0.500000 0.804864
O O2 0.250000 0.378344 0.750000
O O3 0.332485 0.366422 0.826332
O O4 0.246005 0.400550 0.883755
O O5 0.637612 0.750000 0.750000
O O6 0.581219 0.872588 0.737569
O O7 0.595888 0.780437 0.625859
O O8 0.500000 0.402488 0.301218
O O9 0.425193 0.500000 0.313146
O O10 0.424886 0.368961 0.381517
O O11 0.405918 0.291155 0.500000
O O12 0.336071 0.321188 0.597337
O O13 0.765800 0.170126 0.500000
O O14 0.750000 0.250000 0.615501
#
# Coordination Sequence:
#
# PCOD8284790 Si02
#       5
#    32  32  32  32  32
#     4  11  22  32  49  80 111 142 185 232 273 317
#     4  10  20  34  56  80 107 144 184 228 275 332
#     4  10  22  40  60  82 111 147 185 231 288 341
#     4  10  21  36  58  85 112 145 188 233 277 330
#     4  10  20  35  54  76 109 151 186 217 266 326
#
# _framework density 18.260472
#
# number of rings (size 3 to 8) (size 9 to 14) (size 15 to 20)
#    0.000    1.800    2.000    3.000    0.000    7.200 
#    0.000    3.000    0.000    1.800    0.000    1.400 
#    0.000    0.000    0.000    0.000    0.000    0.000 
#
# Total GULP energy -495980.239382 kJ/mol
# GULP energy per Si atom -12399.505985 kJ/mol
# Density = 1.821891 g / cm^3
# Si number density = 18.260472 Si / 1000 Ang^3
#
#
#
# Elastic Constant Matrix: (Units=GPa)
#
#
# Indices 1 2 3 4 5 6 
#
# 1 69.5356 43.2290 42.5605 0.0000 0.0000 0.0000
# 2 43.2290 106.7120 59.8760 0.0000 0.0000 0.0000
# 3 42.5605 59.8760 118.6625 0.0000 0.0000 0.0000
# 4 0.0000 0.0000 0.0000 19.4024 0.0000 0.0000
# 5 0.0000 0.0000 0.0000 0.0000 24.6781 0.0000
# 6 0.0000 0.0000 0.0000 0.0000 0.0000 32.6561
#
#
#
# Elastic Compliance Matrix: (Units=1/GPa)
#
#
# Indices 1 2 3 4 5 6 
#
# 1 0.020797 -0.005914 -0.004475 0.000000 0.000000 0.000000
# 2 -0.005914 0.014754 -0.005323 0.000000 0.000000 0.000000
# 3 -0.004475 -0.005323 0.012719 0.000000 0.000000 0.000000
# 4 0.000000 0.000000 0.000000 0.051540 0.000000 0.000000
# 5 0.000000 0.000000 0.000000 0.000000 0.040522 0.000000
# 6 0.000000 0.000000 0.000000 0.000000 0.000000 0.030622
#
#
# Mechanical properties :
#
#
# Convention : Reuss Voigt Hill
#
# Bulk Modulus (GPa) = 59.36763 65.13790 62.25276
# Shear Modulus (GPa) = 24.03938 25.29697 24.66817
#
# Velocity S-wave (km/s) = 3.63226 3.72605 3.67945
# Velocity P-wave (km/s) = 7.08330 7.36616 7.22611
#
# Compressibility (1/GPa) = 0.01684420
#
# Stress axis : x y z
#
# Youngs Moduli (GPa) = 48.08470 67.77969 78.62552
#
# Poissons Ratio (x) = 0.40083 0.35185
# Poissons Ratio (y) = 0.28436 0.41856
# Poissons Ratio (z) = 0.21518 0.36083
#
# Static dielectric constant tensor:
#      x y z
#    x 3.255420 0.000000 0.000000 
#    y 0.000000 3.461140 0.000000 
#    z 0.000000 0.000000 3.540190 
# 
# 
# High freq. dielectric constant tensor:
#      x y z
#    x 1.703560 0.000000 0.000000 
#    y 0.000000 1.707380 0.000000 
#    z 0.000000 0.000000 1.709400 
# 
# From -- ./inp_files/23088.got.cif
#   From: 2010.03.12/outbox.cif.g09.slc.cpg/sg69_12_cif.got.tgz:23088.got - 2010.04.10 23:52:46.
