data_PCOD8284570
_publ_section_title
;
Structure prediction by ZEFSAII (Michael W. Deem and Ramdas Pophale) SiO2 
 PCOD8284570
Probable space group: F M M M
;
_chemical_formula_sum "Si O2"
_cell_formula_units_Z 208
_cell_length_a 25.161671
_cell_length_b 23.347396
_cell_length_c 21.096642
_cell_angle_alpha 90.000000
_cell_angle_beta 90.000000
_cell_angle_gamma 90.000000
_cell_volume 12393.422695
_symmetry_space_group_name_H-M "F M M M"
_symmetry_group_IT_number 69
_symmetry_cell_setting 'orthorhombic'
loop_
_space_group_symop_operation_xyz
x,y,z
-x,-y,z
x,-y,-z
-x,y,-z
-x,-y,-z
x,y,-z
-x,y,z
x,-y,z
x,1/2+y,1/2+z
-x,1/2-y,1/2+z
x,1/2-y,1/2-z
-x,1/2+y,1/2-z
-x,1/2-y,1/2-z
x,1/2+y,1/2-z
-x,1/2+y,1/2+z
x,1/2-y,1/2+z
1/2+x,y,1/2+z
1/2-x,-y,1/2+z
1/2+x,-y,1/2-z
1/2-x,y,1/2-z
1/2-x,-y,1/2-z
1/2+x,y,1/2-z
1/2-x,y,1/2+z
1/2+x,-y,1/2+z
1/2+x,1/2+y,z
1/2-x,1/2-y,z
1/2+x,1/2-y,-z
1/2-x,1/2+y,-z
1/2-x,1/2-y,-z
1/2+x,1/2+y,-z
1/2-x,1/2+y,z
1/2+x,1/2-y,z
loop_
_atom_site_type_symbol
_atom_site_label
_atom_site_fract_x
_atom_site_fract_y
_atom_site_fract_z
Si Si1 0.812646 0.434065 0.243216
Si Si2 0.740129 0.183760 0.569858
Si Si3 0.836997 0.159156 0.648122
Si Si4 0.144797 0.151241 0.160707
Si Si5 0.438483 0.195175 0.072028
Si Si6 0.058580 0.328740 0.571016
Si Si7 0.653023 0.250000 0.250000
O O1 0.828897 0.500000 0.238360
O O2 0.750000 0.425371 0.250000
O O3 0.835254 0.402406 0.181517
O O4 0.840330 0.406999 0.304508
O O5 0.724468 0.159187 0.500000
O O6 0.750000 0.250000 0.563313
O O7 0.795576 0.155443 0.590843
O O8 0.694972 0.173117 0.621272
O O9 0.897004 0.167183 0.621468
O O10 0.816858 0.209328 0.698048
O O11 0.097619 0.134277 0.113996
O O12 0.122619 0.201921 0.207893
O O13 0.500000 0.183170 0.092706
O O14 0.425793 0.262261 0.072732
O O15 0.429798 0.172270 0.000000
O O16 0.062806 0.352265 0.500000
O O17 0.000000 0.337789 0.598343
#
# Coordination Sequence:
#
# PCOD8284570 Si02
#       7
#    32  32  32  32  32  32  16
#     4  10  22  38  55  71  95 141 178 211 257 300
#     4  11  20  28  46  77 109 131 155 201 260 315
#     4  11  19  32  50  74 104 131 169 212 247 306
#     4  11  19  32  50  74 104 131 169 212 247 306
#     4   9  17  31  51  76 109 142 167 197 246 307
#     4   9  17  31  51  76 109 142 167 197 246 307
#     4  10  20  27  45  72 100 134 163 197 250 294
#
# _framework density 16.783096
#
# number of rings (size 3 to 8) (size 9 to 14) (size 15 to 20)
#    0.000    1.846    4.615    1.846    0.000    3.077 
#    0.000    3.846    0.000    6.462    0.000    2.154 
#    0.000    0.000    0.000    0.000    0.000    0.000 
#
# Total GULP energy -644234.443796 kJ/mol
# GULP energy per Si atom -12389.123919 kJ/mol
# Density = 1.674490 g / cm^3
# Si number density = 16.783096 Si / 1000 Ang^3
#
#
#
# Elastic Constant Matrix: (Units=GPa)
#
#
# Indices 1 2 3 4 5 6 
#
# 1 102.5292 36.0558 52.2852 0.0000 0.0000 0.0000
# 2 36.0558 88.9698 47.3376 0.0000 0.0000 0.0000
# 3 52.2852 47.3376 97.5517 0.0000 0.0000 0.0000
# 4 0.0000 0.0000 0.0000 16.6364 0.0000 0.0000
# 5 0.0000 0.0000 0.0000 0.0000 27.6504 0.0000
# 6 0.0000 0.0000 0.0000 0.0000 0.0000 16.2543
#
#
#
# Elastic Compliance Matrix: (Units=1/GPa)
#
#
# Indices 1 2 3 4 5 6 
#
# 1 0.013741 -0.002224 -0.006285 0.000000 0.000000 0.000000
# 2 -0.002224 0.015512 -0.006335 0.000000 0.000000 0.000000
# 3 -0.006285 -0.006335 0.016694 0.000000 0.000000 0.000000
# 4 0.000000 0.000000 0.000000 0.060109 0.000000 0.000000
# 5 0.000000 0.000000 0.000000 0.000000 0.036166 0.000000
# 6 0.000000 0.000000 0.000000 0.000000 0.000000 0.061522
#
#
# Mechanical properties :
#
#
# Convention : Reuss Voigt Hill
#
# Bulk Modulus (GPa) = 61.51175 62.26756 61.88966
# Shear Modulus (GPa) = 20.93345 22.33303 21.63324
#
# Velocity S-wave (km/s) = 3.53554 3.65181 3.59415
# Velocity P-wave (km/s) = 7.30734 7.41370 7.36071
#
# Compressibility (1/GPa) = 0.01625706
#
# Stress axis : x y z
#
# Youngs Moduli (GPa) = 72.77614 64.46684 59.90227
#
# Poissons Ratio (x) = 0.14340 0.37650
# Poissons Ratio (y) = 0.16188 0.37948
# Poissons Ratio (z) = 0.45742 0.40840
#
# Static dielectric constant tensor:
#      x y z
#    x 3.090450 0.000000 0.000000 
#    y 0.000000 2.782360 0.000000 
#    z 0.000000 0.000000 3.686830 
# 
# 
# High freq. dielectric constant tensor:
#      x y z
#    x 1.637030 0.000000 0.000000 
#    y 0.000000 1.596520 0.000000 
#    z 0.000000 0.000000 1.664770 
# 
# From -- ./inp_files/27023.got.cif
#   From: 2010.03.12/outbox.cif.g09.slc.cpg/sg69_14_cif.got.tgz:27023.got - 2010.04.10 23:52:46.
