data_PCOD8284709
_publ_section_title
;
Structure prediction by ZEFSAII (Michael W. Deem and Ramdas Pophale) SiO2 
 PCOD8284709
Probable space group: F M M M
;
_chemical_formula_sum "Si O2"
_cell_formula_units_Z 160
_cell_length_a 14.409877
_cell_length_b 32.895765
_cell_length_c 19.684196
_cell_angle_alpha 90.000000
_cell_angle_beta 90.000000
_cell_angle_gamma 90.000000
_cell_volume 9330.779897
_symmetry_space_group_name_H-M "F M M M"
_symmetry_group_IT_number 69
_symmetry_cell_setting 'orthorhombic'
loop_
_space_group_symop_operation_xyz
x,y,z
-x,-y,z
x,-y,-z
-x,y,-z
-x,-y,-z
x,y,-z
-x,y,z
x,-y,z
x,1/2+y,1/2+z
-x,1/2-y,1/2+z
x,1/2-y,1/2-z
-x,1/2+y,1/2-z
-x,1/2-y,1/2-z
x,1/2+y,1/2-z
-x,1/2+y,1/2+z
x,1/2-y,1/2+z
1/2+x,y,1/2+z
1/2-x,-y,1/2+z
1/2+x,-y,1/2-z
1/2-x,y,1/2-z
1/2-x,-y,1/2-z
1/2+x,y,1/2-z
1/2-x,y,1/2+z
1/2+x,-y,1/2+z
1/2+x,1/2+y,z
1/2-x,1/2-y,z
1/2+x,1/2-y,-z
1/2-x,1/2+y,-z
1/2-x,1/2-y,-z
1/2+x,1/2+y,-z
1/2-x,1/2+y,z
1/2+x,1/2-y,z
loop_
_atom_site_type_symbol
_atom_site_label
_atom_site_fract_x
_atom_site_fract_y
_atom_site_fract_z
Si Si1 0.500000 0.907403 0.299334
Si Si2 0.853467 0.752529 0.830732
Si Si3 0.812451 0.453504 0.688289
Si Si4 0.500000 0.098472 0.861611
Si Si5 0.337571 0.545968 0.578197
Si Si6 0.500000 0.810834 0.158108
Si Si7 0.500000 0.183160 0.680640
O O1 0.592137 0.930163 0.322613
O O2 0.500000 0.905528 0.218620
O O3 0.500000 0.864208 0.338498
O O4 0.849437 0.750000 0.750000
O O5 0.750000 0.750000 0.861860
O O6 0.908476 0.714412 0.862753
O O7 0.907802 0.794434 0.848946
O O8 0.836452 0.500000 0.706287
O O9 0.750000 0.435233 0.750000
O O10 0.758580 0.449089 0.617678
O O11 0.589864 0.077754 0.892707
O O12 0.500000 0.146187 0.880766
O O13 0.317868 0.555822 0.500000
O O14 0.376412 0.500000 0.587425
O O15 0.500000 0.815248 0.238570
#
# Coordination Sequence:
#
# PCOD8284709 Si02
#       7
#    16  32  32  16  32  16  16
#     4  11  20  31  48  77 107 133 166 214 269 308
#     4   8  13  25  40  56  87 134 164 190 241 303
#     4  10  20  34  51  72 102 138 174 213 258 309
#     4  11  19  29  49  76 105 133 164 215 265 310
#     4  10  21  36  52  72 101 139 181 218 257 308
#     4   8  16  25  37  63  95 122 163 199 242 303
#     4   8  16  26  37  63  98 125 162 202 240 306
#
# _framework density 17.147548
#
# number of rings (size 3 to 8) (size 9 to 14) (size 15 to 20)
#    0.000    2.600    2.000    2.100    0.000    3.200 
#    3.600    0.500    0.000    2.400    0.000    0.000 
#    0.000   35.200    0.000    0.000    0.000    0.000 
#
# Total GULP energy -495815.540342 kJ/mol
# GULP energy per Si atom -12395.388509 kJ/mol
# Density = 1.710852 g / cm^3
# Si number density = 17.147548 Si / 1000 Ang^3
#
#
#
# Elastic Constant Matrix: (Units=GPa)
#
#
# Indices 1 2 3 4 5 6 
#
# 1 156.3013 86.3847 25.4907 0.0000 0.0000 0.0000
# 2 86.3847 139.1446 33.0137 0.0000 0.0000 0.0000
# 3 25.4907 33.0137 54.8804 0.0000 0.0000 0.0000
# 4 0.0000 0.0000 0.0000 12.4302 0.0000 0.0000
# 5 0.0000 0.0000 0.0000 0.0000 22.5054 0.0000
# 6 0.0000 0.0000 0.0000 0.0000 0.0000 -44.1613
#
#
#
# Elastic Compliance Matrix: (Units=1/GPa)
#
#
# Indices 1 2 3 4 5 6 
#
# 1 0.009790 -0.005832 -0.001039 0.000000 0.000000 0.000000
# 2 -0.005832 0.011857 -0.004424 0.000000 0.000000 0.000000
# 3 -0.001039 -0.004424 0.021365 0.000000 0.000000 0.000000
# 4 0.000000 0.000000 0.000000 0.080449 0.000000 0.000000
# 5 0.000000 0.000000 0.000000 0.000000 0.044434 0.000000
# 6 0.000000 0.000000 0.000000 0.000000 0.000000 -0.022644
#
#
# Mechanical properties :
#
#
# Convention : Reuss Voigt Hill
#
# Bulk Modulus (GPa) = 48.96461 71.12272 60.04367
# Shear Modulus (GPa) = 28.62891 11.85067 20.23979
#
# Velocity S-wave (km/s) = 4.09046 2.63173 3.43932
# Velocity P-wave (km/s) = 7.13625 7.12753 7.13189
#
# Compressibility (1/GPa) = 0.02042291
#
# Stress axis : x y z
#
# Youngs Moduli (GPa) = 102.14102 84.34008 46.80451
#
# Poissons Ratio (x) = 0.49183 0.04865
# Poissons Ratio (y) = 0.59564 0.20706
# Poissons Ratio (z) = 0.10617 0.37311
#
# Static dielectric constant tensor:
#      x y z
#    x 3.346420 0.000000 0.000000 
#    y 0.000000 3.459530 0.000000 
#    z 0.000000 0.000000 2.804450 
# 
# 
# High freq. dielectric constant tensor:
#      x y z
#    x 1.668920 0.000000 0.000000 
#    y 0.000000 1.663780 0.000000 
#    z 0.000000 0.000000 1.610280 
# 
# From -- ./inp_files/21919.got.cif
#   From: 2010.03.12/outbox.cif.g09.slc.cpg/sg69_11_cif.got.tgz:21919.got - 2010.04.10 23:52:46.
