data_PCOD8284026
_publ_section_title
;
Structure prediction by ZEFSAII (Michael W. Deem and Ramdas Pophale) SiO2 
 PCOD8284026
Probable space group: F M M M
;
_chemical_formula_sum "Si O2"
_cell_formula_units_Z 112
_cell_length_a 30.691445
_cell_length_b 8.541274
_cell_length_c 25.104545
_cell_angle_alpha 90.000000
_cell_angle_beta 90.000000
_cell_angle_gamma 90.000000
_cell_volume 6581.006879
_symmetry_space_group_name_H-M "F M M M"
_symmetry_group_IT_number 69
_symmetry_cell_setting 'orthorhombic'
loop_
_space_group_symop_operation_xyz
x,y,z
-x,-y,z
x,-y,-z
-x,y,-z
-x,-y,-z
x,y,-z
-x,y,z
x,-y,z
x,1/2+y,1/2+z
-x,1/2-y,1/2+z
x,1/2-y,1/2-z
-x,1/2+y,1/2-z
-x,1/2-y,1/2-z
x,1/2+y,1/2-z
-x,1/2+y,1/2+z
x,1/2-y,1/2+z
1/2+x,y,1/2+z
1/2-x,-y,1/2+z
1/2+x,-y,1/2-z
1/2-x,y,1/2-z
1/2-x,-y,1/2-z
1/2+x,y,1/2-z
1/2-x,y,1/2+z
1/2+x,-y,1/2+z
1/2+x,1/2+y,z
1/2-x,1/2-y,z
1/2+x,1/2-y,-z
1/2-x,1/2+y,-z
1/2-x,1/2-y,-z
1/2+x,1/2+y,-z
1/2-x,1/2+y,z
1/2+x,1/2-y,z
loop_
_atom_site_type_symbol
_atom_site_label
_atom_site_fract_x
_atom_site_fract_y
_atom_site_fract_z
Si Si1 0.201763 0.315530 0.108512
Si Si2 0.952827 0.316999 0.191384
Si Si3 0.634718 0.815733 0.309594
Si Si4 0.201455 0.185138 0.000000
O O1 0.204457 0.500000 0.104176
O O2 0.250000 0.250000 0.117166
O O3 0.173128 0.265555 0.158353
O O4 0.179362 0.248491 0.054267
O O5 0.941773 0.500000 0.194086
O O6 0.957142 0.250000 0.250000
O O7 0.912148 0.228879 0.163346
O O8 0.000000 0.288910 0.162360
O O9 0.636210 0.750000 0.250000
O O10 0.641719 0.000000 0.310062
O O11 0.250000 0.250000 0.000000
O O12 0.200625 0.000000 0.000000
#
# Coordination Sequence:
#
# PCOD8284026 Si02
#       4
#    32  32  32  16
#     4  11  21  35  52  72  97 127 162 200 241 283
#     4   9  16  27  44  66  92 123 158 196 237 280
#     4  11  21  33  48  70  99 131 164 198 239 288
#     4  10  18  32  52  74  95 120 157 200 242 280
#
# _framework density 17.018673
#
# number of rings (size 3 to 8) (size 9 to 14) (size 15 to 20)
#    0.000    1.714    0.000   10.714    0.000    2.286 
#    0.000    2.857    0.000    0.000    0.000    1.000 
#    0.000    8.000    0.000    0.000    0.000    0.000 
#
# Total GULP energy -346983.428350 kJ/mol
# GULP energy per Si atom -12392.265298 kJ/mol
# Density = 1.697994 g / cm^3
# Si number density = 17.018673 Si / 1000 Ang^3
#
#
#
# Elastic Constant Matrix: (Units=GPa)
#
#
# Indices 1 2 3 4 5 6 
#
# 1 104.9514 41.9995 44.4396 0.0000 0.0000 0.0000
# 2 41.9995 154.2237 32.8131 0.0001 0.0000 0.0001
# 3 44.4396 32.8131 66.8062 0.0000 0.0000 0.0000
# 4 0.0000 0.0001 0.0000 26.1050 0.0000 0.0000
# 5 0.0000 0.0000 0.0000 0.0000 0.5059 0.0000
# 6 0.0000 0.0001 0.0000 0.0000 0.0000 30.5047
#
#
#
# Elastic Compliance Matrix: (Units=1/GPa)
#
#
# Indices 1 2 3 4 5 6 
#
# 1 0.013804 -0.002016 -0.008192 0.000000 0.000001 0.000000
# 2 -0.002016 0.007535 -0.002360 0.000000 0.000000 0.000000
# 3 -0.008192 -0.002360 0.021577 0.000000 -0.000001 0.000000
# 4 0.000000 0.000000 0.000000 0.038307 -0.000001 0.000000
# 5 0.000001 0.000000 -0.000001 -0.000001 1.976637 0.000000
# 6 0.000000 0.000000 0.000000 0.000000 0.000000 0.032782
#
#
# Mechanical properties :
#
#
# Convention : Reuss Voigt Hill
#
# Bulk Modulus (GPa) = 56.24317 62.72063 59.48190
# Shear Modulus (GPa) = 2.35660 25.20507 13.78083
#
# Velocity S-wave (km/s) = 1.17801 3.85258 2.84869
# Velocity P-wave (km/s) = 5.91354 7.53153 6.77103
#
# Compressibility (1/GPa) = 0.01777994
#
# Stress axis : x y z
#
# Youngs Moduli (GPa) = 72.44375 132.70947 46.34544
#
# Poissons Ratio (x) = 0.26757 0.37966
# Poissons Ratio (y) = 0.14606 0.10937
# Poissons Ratio (z) = 0.59346 0.31318
#
# Static dielectric constant tensor:
#      x y z
#    x 3.733380 0.000000 0.000000 
#    y 0.000000 3.744150 0.000000 
#    z 0.000000 0.000000 3.267360 
# 
# 
# High freq. dielectric constant tensor:
#      x y z
#    x 1.653910 0.000000 0.000000 
#    y 0.000000 1.684520 0.000000 
#    z 0.000000 0.000000 1.615780 
# 
# From -- ./inp_files/4719.got.cif
#   From: 2010.03.12/outbox.cif.g09.slc.cpg/sg69_3_cif.got.tgz:4719.got - 2010.04.10 23:52:46.
