data_PCOD8284254
_publ_section_title
;
Structure prediction by ZEFSAII (Michael W. Deem and Ramdas Pophale) SiO2 
 PCOD8284254
Probable space group: F M M M
;
_chemical_formula_sum "Si O2"
_cell_formula_units_Z 208
_cell_length_a 18.214591
_cell_length_b 23.859551
_cell_length_c 27.387771
_cell_angle_alpha 90.000000
_cell_angle_beta 90.000000
_cell_angle_gamma 90.000000
_cell_volume 11902.505159
_symmetry_space_group_name_H-M "F M M M"
_symmetry_group_IT_number 69
_symmetry_cell_setting 'orthorhombic'
loop_
_space_group_symop_operation_xyz
x,y,z
-x,-y,z
x,-y,-z
-x,y,-z
-x,-y,-z
x,y,-z
-x,y,z
x,-y,z
x,1/2+y,1/2+z
-x,1/2-y,1/2+z
x,1/2-y,1/2-z
-x,1/2+y,1/2-z
-x,1/2-y,1/2-z
x,1/2+y,1/2-z
-x,1/2+y,1/2+z
x,1/2-y,1/2+z
1/2+x,y,1/2+z
1/2-x,-y,1/2+z
1/2+x,-y,1/2-z
1/2-x,y,1/2-z
1/2-x,-y,1/2-z
1/2+x,y,1/2-z
1/2-x,y,1/2+z
1/2+x,-y,1/2+z
1/2+x,1/2+y,z
1/2-x,1/2-y,z
1/2+x,1/2-y,-z
1/2-x,1/2+y,-z
1/2-x,1/2-y,-z
1/2+x,1/2+y,-z
1/2-x,1/2+y,z
1/2+x,1/2-y,z
loop_
_atom_site_type_symbol
_atom_site_label
_atom_site_fract_x
_atom_site_fract_y
_atom_site_fract_z
Si Si1 0.845716 0.564882 0.901451
Si Si2 0.414055 0.351310 0.673717
Si Si3 0.192380 0.437571 0.555592
Si Si4 0.334882 0.313323 0.237783
Si Si5 0.416106 0.840067 0.445555
Si Si6 0.916986 0.066348 0.500000
Si Si7 0.585273 0.775238 0.351124
O O1 0.868563 0.500000 0.893169
O O2 0.872527 0.600837 0.855969
O O3 0.758540 0.571194 0.906582
O O4 0.881166 0.590220 0.950747
O O5 0.500000 0.363897 0.672520
O O6 0.384521 0.354507 0.729336
O O7 0.394078 0.290177 0.652414
O O8 0.221246 0.429074 0.500000
O O9 0.159969 0.500000 0.561540
O O10 0.128990 0.394748 0.569398
O O11 0.355514 0.250000 0.250000
O O12 0.250000 0.326792 0.250000
O O13 0.361299 0.316151 0.181183
O O14 0.395278 0.818514 0.500000
O O15 0.500000 0.859178 0.443331
O O16 0.400208 0.790493 0.407515
O O17 0.000000 0.086586 0.500000
O O18 0.907048 0.000000 0.500000
O O19 0.500000 0.784879 0.335796
#
# Coordination Sequence:
#
# PCOD8284254 Si02
#       7
#    32  32  32  32  32  16  32
#     4  10  19  32  49  72 102 135 170 212 256 296
#     4  10  20  33  51  76 100 130 173 212 250 301
#     4   9  17  31  50  71  98 134 173 210 249 295
#     4   9  18  32  52  77  98 126 165 211 251 295
#     4   9  18  32  51  76 105 135 166 204 255 311
#     4   9  16  28  46  66  92 129 171 205 238 287
#     4   9  18  34  53  74 104 137 166 205 258 307
#
# _framework density 17.475313
#
# number of rings (size 3 to 8) (size 9 to 14) (size 15 to 20)
#    0.000    2.692    0.769    0.923    2.154    3.077 
#    1.385    1.538    0.000    3.231    0.000    2.154 
#    0.000    0.000    0.000    0.000    0.000    0.000 
#
# Total GULP energy -644536.607898 kJ/mol
# GULP energy per Si atom -12394.934767 kJ/mol
# Density = 1.743554 g / cm^3
# Si number density = 17.475313 Si / 1000 Ang^3
#
#
#
# Elastic Constant Matrix: (Units=GPa)
#
#
# Indices 1 2 3 4 5 6 
#
# 1 64.9088 33.2718 39.1304 0.0000 0.0000 0.0000
# 2 33.2718 65.4706 46.5149 0.0000 0.0000 0.0000
# 3 39.1304 46.5149 102.1501 0.0000 0.0000 0.0000
# 4 0.0000 0.0000 0.0000 30.1915 0.0000 0.0000
# 5 0.0000 0.0000 0.0000 0.0000 27.5005 0.0000
# 6 0.0000 0.0000 0.0000 0.0000 0.0000 25.4517
#
#
#
# Elastic Compliance Matrix: (Units=1/GPa)
#
#
# Indices 1 2 3 4 5 6 
#
# 1 0.022458 -0.007836 -0.005035 0.000000 0.000000 0.000000
# 2 -0.007836 0.025313 -0.008525 0.000000 0.000000 0.000000
# 3 -0.005035 -0.008525 0.015600 0.000000 0.000000 0.000000
# 4 0.000000 0.000000 0.000000 0.033122 0.000000 0.000000
# 5 0.000000 0.000000 0.000000 0.000000 0.036363 0.000000
# 6 0.000000 0.000000 0.000000 0.000000 0.000000 0.039290
#
#
# Mechanical properties :
#
#
# Convention : Reuss Voigt Hill
#
# Bulk Modulus (GPa) = 48.59106 52.26265 50.42686
# Shear Modulus (GPa) = 22.54314 24.20290 23.37302
#
# Velocity S-wave (km/s) = 3.59555 3.72556 3.66114
# Velocity P-wave (km/s) = 6.71589 6.96261 6.84036
#
# Compressibility (1/GPa) = 0.02057992
#
# Stress axis : x y z
#
# Youngs Moduli (GPa) = 44.52717 39.50571 64.10281
#
# Poissons Ratio (x) = 0.30957 0.32274
# Poissons Ratio (y) = 0.34892 0.54645
# Poissons Ratio (z) = 0.22418 0.33677
#
# Static dielectric constant tensor:
#      x y z
#    x 3.241910 0.000000 0.000000 
#    y 0.000000 2.954830 0.000000 
#    z 0.000000 0.000000 3.360590 
# 
# 
# High freq. dielectric constant tensor:
#      x y z
#    x 1.680620 0.000000 0.000000 
#    y 0.000000 1.641500 0.000000 
#    z 0.000000 0.000000 1.671770 
# 
# From -- ./inp_files/27009.got.cif
#   From: 2010.03.12/outbox.cif.g09.slc.cpg/sg69_14_cif.got.tgz:27009.got - 2010.04.10 23:52:46.
