data_PCOD8284231
_publ_section_title
;
Structure prediction by ZEFSAII (Michael W. Deem and Ramdas Pophale) SiO2 
 PCOD8284231
Probable space group: F M M M
;
_chemical_formula_sum "Si O2"
_cell_formula_units_Z 208
_cell_length_a 27.264344
_cell_length_b 18.959455
_cell_length_c 21.955238
_cell_angle_alpha 90.000000
_cell_angle_beta 90.000000
_cell_angle_gamma 90.000000
_cell_volume 11349.038026
_symmetry_space_group_name_H-M "F M M M"
_symmetry_group_IT_number 69
_symmetry_cell_setting 'orthorhombic'
loop_
_space_group_symop_operation_xyz
x,y,z
-x,-y,z
x,-y,-z
-x,y,-z
-x,-y,-z
x,y,-z
-x,y,z
x,-y,z
x,1/2+y,1/2+z
-x,1/2-y,1/2+z
x,1/2-y,1/2-z
-x,1/2+y,1/2-z
-x,1/2-y,1/2-z
x,1/2+y,1/2-z
-x,1/2+y,1/2+z
x,1/2-y,1/2+z
1/2+x,y,1/2+z
1/2-x,-y,1/2+z
1/2+x,-y,1/2-z
1/2-x,y,1/2-z
1/2-x,-y,1/2-z
1/2+x,y,1/2-z
1/2-x,y,1/2+z
1/2+x,-y,1/2+z
1/2+x,1/2+y,z
1/2-x,1/2-y,z
1/2+x,1/2-y,-z
1/2-x,1/2+y,-z
1/2-x,1/2-y,-z
1/2+x,1/2+y,-z
1/2-x,1/2+y,z
1/2+x,1/2-y,z
loop_
_atom_site_type_symbol
_atom_site_label
_atom_site_fract_x
_atom_site_fract_y
_atom_site_fract_z
Si Si1 0.500000 0.078476 0.428771
Si Si2 0.442705 0.578913 0.624459
Si Si3 0.725655 0.679761 0.427813
Si Si4 0.442852 0.918699 0.736411
Si Si5 0.905219 0.347348 0.623558
Si Si6 0.616385 0.700166 0.570839
Si Si7 0.309610 0.920537 0.427703
O O1 0.500000 0.070556 0.500000
O O2 0.451151 0.119160 0.410692
O O3 0.500000 0.000000 0.398824
O O4 0.500000 0.580886 0.611861
O O5 0.422697 0.500000 0.611916
O O6 0.431552 0.601019 0.693941
O O7 0.417882 0.632476 0.577950
O O8 0.726097 0.682668 0.500000
O O9 0.750000 0.750000 0.400439
O O10 0.669820 0.676235 0.404819
O O11 0.758021 0.613239 0.405649
O O12 0.500000 0.906925 0.720767
O O13 0.410622 0.865914 0.695046
O O14 0.428507 0.000000 0.723654
O O15 0.904771 0.263635 0.611836
O O16 0.854485 0.377799 0.599547
O O17 0.617661 0.723586 0.500000
O O18 0.314396 0.917368 0.500000
O O19 0.310877 0.000000 0.403141
#
# Coordination Sequence:
#
# PCOD8284231 Si02
#       7
#    16  32  32  32  32  32  32
#     4  11  22  32  44  71 117 159 182 213 263 323
#     4   9  21  41  61  80 105 142 190 240 282 322
#     4   9  17  34  53  72 105 144 181 221 270 320
#     4   9  18  36  58  78 106 147 192 231 267 313
#     4  12  21  32  52  82 115 148 181 218 268 331
#     4  11  23  36  56  84 115 147 179 225 283 338
#     4  10  19  31  51  79 109 143 185 226 267 325
#
# _framework density 18.327544
#
# number of rings (size 3 to 8) (size 9 to 14) (size 15 to 20)
#    0.000    1.923    2.308    3.692    1.077    3.077 
#    0.000    3.846    0.000    0.923    0.000    3.231 
#    0.000    0.000    0.000    0.000    0.000    0.000 
#
# Total GULP energy -644748.979299 kJ/mol
# GULP energy per Si atom -12399.018833 kJ/mol
# Density = 1.828583 g / cm^3
# Si number density = 18.327544 Si / 1000 Ang^3
#
#
#
# Elastic Constant Matrix: (Units=GPa)
#
#
# Indices 1 2 3 4 5 6 
#
# 1 88.3742 49.2955 19.7865 0.0000 0.0000 0.0000
# 2 49.2955 116.6296 17.8560 0.0000 0.0000 0.0000
# 3 19.7865 17.8560 29.3993 0.0000 0.0000 0.0000
# 4 0.0000 0.0000 0.0000 27.9728 0.0000 0.0000
# 5 0.0000 0.0000 0.0000 0.0000 9.9577 0.0000
# 6 0.0000 0.0000 0.0000 0.0000 0.0000 34.7976
#
#
#
# Elastic Compliance Matrix: (Units=1/GPa)
#
#
# Indices 1 2 3 4 5 6 
#
# 1 0.016150 -0.005691 -0.007413 0.000000 0.000000 0.000000
# 2 -0.005691 0.011459 -0.003129 0.000000 0.000000 0.000000
# 3 -0.007413 -0.003129 0.040904 0.000000 0.000000 0.000000
# 4 0.000000 0.000000 0.000000 0.035749 0.000000 0.000000
# 5 0.000000 0.000000 0.000000 0.000000 0.100425 0.000000
# 6 0.000000 0.000000 0.000000 0.000000 0.000000 0.028738
#
#
# Mechanical properties :
#
#
# Convention : Reuss Voigt Hill
#
# Bulk Modulus (GPa) = 27.74212 45.36435 36.55324
# Shear Modulus (GPa) = 17.99175 24.37662 21.18419
#
# Velocity S-wave (km/s) = 3.13657 3.65095 3.40349
# Velocity P-wave (km/s) = 5.31857 6.52520 5.95254
#
# Compressibility (1/GPa) = 0.03604627
#
# Stress axis : x y z
#
# Youngs Moduli (GPa) = 61.92078 87.27017 24.44750
#
# Poissons Ratio (x) = 0.49666 0.18122
# Poissons Ratio (y) = 0.35239 0.07650
# Poissons Ratio (z) = 0.45900 0.27310
#
# Static dielectric constant tensor:
#      x y z
#    x 3.578280 0.000000 0.000000 
#    y 0.000000 3.505910 0.000000 
#    z 0.000000 0.000000 3.153570 
# 
# 
# High freq. dielectric constant tensor:
#      x y z
#    x 1.710300 0.000000 0.000000 
#    y 0.000000 1.716390 0.000000 
#    z 0.000000 0.000000 1.681240 
# 
# From -- ./inp_files/38481.got.cif
#   From: 2010.03.12/outbox.cif.g09.slc.cpg/sg69_20_cif.got.tgz:38481.got - 2010.04.10 23:52:46.
