data_PCOD8284671
_publ_section_title
;
Structure prediction by ZEFSAII (Michael W. Deem and Ramdas Pophale) SiO2 
 PCOD8284671
Probable space group: F M M M
;
_chemical_formula_sum "Si O2"
_cell_formula_units_Z 208
_cell_length_a 18.298162
_cell_length_b 22.542002
_cell_length_c 26.856442
_cell_angle_alpha 90.000000
_cell_angle_beta 90.000000
_cell_angle_gamma 90.000000
_cell_volume 11077.670116
_symmetry_space_group_name_H-M "F M M M"
_symmetry_group_IT_number 69
_symmetry_cell_setting 'orthorhombic'
loop_
_space_group_symop_operation_xyz
x,y,z
-x,-y,z
x,-y,-z
-x,y,-z
-x,-y,-z
x,y,-z
-x,y,z
x,-y,z
x,1/2+y,1/2+z
-x,1/2-y,1/2+z
x,1/2-y,1/2-z
-x,1/2+y,1/2-z
-x,1/2-y,1/2-z
x,1/2+y,1/2-z
-x,1/2+y,1/2+z
x,1/2-y,1/2+z
1/2+x,y,1/2+z
1/2-x,-y,1/2+z
1/2+x,-y,1/2-z
1/2-x,y,1/2-z
1/2-x,-y,1/2-z
1/2+x,y,1/2-z
1/2-x,y,1/2+z
1/2+x,-y,1/2+z
1/2+x,1/2+y,z
1/2-x,1/2-y,z
1/2+x,1/2-y,-z
1/2-x,1/2+y,-z
1/2-x,1/2-y,-z
1/2+x,1/2+y,-z
1/2-x,1/2+y,z
1/2+x,1/2-y,z
loop_
_atom_site_type_symbol
_atom_site_label
_atom_site_fract_x
_atom_site_fract_y
_atom_site_fract_z
Si Si1 0.666519 0.816440 0.809743
Si Si2 0.207868 0.932870 0.058561
Si Si3 0.344579 0.862155 0.087130
Si Si4 0.661427 0.318541 0.197825
Si Si5 0.081781 0.747794 0.443486
Si Si6 0.414709 0.934762 0.000000
Si Si7 0.084044 0.873425 0.888049
O O1 0.632935 0.858385 0.853911
O O2 0.636959 0.748917 0.814907
O O3 0.643956 0.837505 0.754742
O O4 0.753403 0.820963 0.814611
O O5 0.261609 0.884743 0.083380
O O6 0.127293 0.922923 0.080773
O O7 0.232453 0.000000 0.071152
O O8 0.207275 0.921876 0.000000
O O9 0.354876 0.795543 0.066996
O O10 0.393126 0.903705 0.051708
O O11 0.615854 0.367404 0.167480
O O12 0.087196 0.727033 0.500000
O O13 0.097361 0.690377 0.411627
O O14 0.000000 0.773720 0.432352
O O15 0.500000 0.939758 0.000000
O O16 0.378001 0.000000 0.000000
O O17 0.000000 0.893096 0.887024
#
# Coordination Sequence:
#
# PCOD8284671 Si02
#       7
#    32  32  32  32  32  16  32
#     4   9  18  31  59  82 117 149 183 232 288 349
#     4  11  24  40  58  82 111 149 202 249 282 331
#     4  12  19  34  60  88 114 148 189 240 291 342
#     4   9  17  35  52  86 116 148 187 230 290 351
#     4  10  20  33  51  83 122 153 182 226 292 362
#     4  11  24  40  58  83 121 165 196 231 295 361
#     4  11  22  37  57  81 117 156 191 236 291 346
#
# _framework density 18.776512
#
# number of rings (size 3 to 8) (size 9 to 14) (size 15 to 20)
#    0.000    1.615    4.615    2.308    0.000    1.846 
#    0.000    5.385    0.000    2.769    0.000    0.000 
#    0.000    0.000    0.000    0.000    0.000    0.000 
#
# Total GULP energy -644437.201514 kJ/mol
# GULP energy per Si atom -12393.023106 kJ/mol
# Density = 1.873378 g / cm^3
# Si number density = 18.776512 Si / 1000 Ang^3
#
#
#
# Elastic Constant Matrix: (Units=GPa)
#
#
# Indices 1 2 3 4 5 6 
#
# 1 67.9076 25.1400 24.4427 0.0000 0.0000 0.0000
# 2 25.1400 53.5798 49.4763 0.0000 0.0000 0.0000
# 3 24.4427 49.4763 141.9661 0.0000 0.0000 0.0000
# 4 0.0000 0.0000 0.0000 13.5770 0.0000 0.0000
# 5 0.0000 0.0000 0.0000 0.0000 24.3511 0.0000
# 6 0.0000 0.0000 0.0000 0.0000 0.0000 -68.9071
#
#
#
# Elastic Compliance Matrix: (Units=1/GPa)
#
#
# Indices 1 2 3 4 5 6 
#
# 1 0.017827 -0.008154 -0.000227 0.000000 0.000000 0.000000
# 2 -0.008154 0.031250 -0.009487 0.000000 0.000000 0.000000
# 3 -0.000227 -0.009487 0.010389 0.000000 0.000000 0.000000
# 4 0.000000 0.000000 0.000000 0.073654 0.000000 0.000000
# 5 0.000000 0.000000 0.000000 0.000000 0.041066 0.000000
# 6 0.000000 0.000000 0.000000 0.000000 0.000000 -0.014512
#
#
# Mechanical properties :
#
#
# Convention : Reuss Voigt Hill
#
# Bulk Modulus (GPa) = 42.14310 51.28573 46.71442
# Shear Modulus (GPa) = 24.59168 4.76384 14.67776
#
# Velocity S-wave (km/s) = 3.62291 1.59456 2.79894
# Velocity P-wave (km/s) = 6.32408 5.54646 5.94799
#
# Compressibility (1/GPa) = 0.02372868
#
# Stress axis : x y z
#
# Youngs Moduli (GPa) = 56.09605 31.99969 96.25205
#
# Poissons Ratio (x) = 0.26094 0.02189
# Poissons Ratio (y) = 0.45743 0.91315
# Poissons Ratio (z) = 0.01275 0.30358
#
# Static dielectric constant tensor:
#      x y z
#    x 3.381310 0.000000 0.000000 
#    y 0.000000 3.431620 0.000000 
#    z 0.000000 0.000000 3.720440 
# 
# 
# High freq. dielectric constant tensor:
#      x y z
#    x 1.717140 0.000000 0.000000 
#    y 0.000000 1.699560 0.000000 
#    z 0.000000 0.000000 1.742220 
# 
# From -- ./inp_files/42122.got.cif
#   From: 2010.03.12/outbox.cif.g09.slc.cpg/sg69_22_cif.got.tgz:42122.got - 2010.04.10 23:52:46.
