data_PCOD8284466
_publ_section_title
;
Structure prediction by ZEFSAII (Michael W. Deem and Ramdas Pophale) SiO2 
 PCOD8284466
Probable space group: F M M M
;
_chemical_formula_sum "Si O2"
_cell_formula_units_Z 176
_cell_length_a 21.874374
_cell_length_b 28.891019
_cell_length_c 13.788874
_cell_angle_alpha 90.000000
_cell_angle_beta 90.000000
_cell_angle_gamma 90.000000
_cell_volume 8714.195446
_symmetry_space_group_name_H-M "F M M M"
_symmetry_group_IT_number 69
_symmetry_cell_setting 'orthorhombic'
loop_
_space_group_symop_operation_xyz
x,y,z
-x,-y,z
x,-y,-z
-x,y,-z
-x,-y,-z
x,y,-z
-x,y,z
x,-y,z
x,1/2+y,1/2+z
-x,1/2-y,1/2+z
x,1/2-y,1/2-z
-x,1/2+y,1/2-z
-x,1/2-y,1/2-z
x,1/2+y,1/2-z
-x,1/2+y,1/2+z
x,1/2-y,1/2+z
1/2+x,y,1/2+z
1/2-x,-y,1/2+z
1/2+x,-y,1/2-z
1/2-x,y,1/2-z
1/2-x,-y,1/2-z
1/2+x,y,1/2-z
1/2-x,y,1/2+z
1/2+x,-y,1/2+z
1/2+x,1/2+y,z
1/2-x,1/2-y,z
1/2+x,1/2-y,-z
1/2-x,1/2+y,-z
1/2-x,1/2-y,-z
1/2+x,1/2+y,-z
1/2-x,1/2+y,z
1/2+x,1/2-y,z
loop_
_atom_site_type_symbol
_atom_site_label
_atom_site_fract_x
_atom_site_fract_y
_atom_site_fract_z
Si Si1 0.739982 0.679745 0.890211
Si Si2 0.927548 0.053405 0.500000
Si Si3 0.348122 0.949282 0.284707
Si Si4 0.265873 0.074885 0.107715
Si Si5 0.150607 0.299235 0.773458
Si Si6 0.572121 0.384955 0.683017
O O1 0.772067 0.629845 0.882503
O O2 0.793733 0.712850 0.848335
O O3 0.679030 0.679315 0.825037
O O4 0.722813 0.693427 0.000000
O O5 0.905474 0.083192 0.592811
O O6 0.000000 0.051268 0.500000
O O7 0.902722 0.000000 0.500000
O O8 0.307637 0.949199 0.186959
O O9 0.305219 0.938431 0.376402
O O10 0.403142 0.912063 0.277937
O O11 0.377547 0.000000 0.296390
O O12 0.285895 0.058310 0.000000
O O13 0.118372 0.250000 0.750000
O O14 0.101143 0.333738 0.820631
O O15 0.500000 0.379044 0.687210
#
# Coordination Sequence:
#
# PCOD8284466 Si02
#       6
#    32  16  32  32  32  32
#     4  10  19  36  61  86 116 150 187 240 301 356
#     4   9  20  38  60  86 113 150 200 248 299 354
#     4  11  21  34  55  83 113 148 188 227 285 353
#     4  10  19  34  57  83 115 147 179 230 293 350
#     4  11  22  37  59  88 116 149 194 240 295 358
#     4  11  23  40  57  80 118 155 196 245 287 343
#
# _framework density 20.196929999999998
#
# number of rings (size 3 to 8) (size 9 to 14) (size 15 to 20)
#    0.000    1.545    3.636    3.818    2.545    4.364 
#    0.000    0.000    0.000    2.182    0.000    1.273 
#    0.000    0.000    0.000    0.000    0.000    0.000 
#
# Total GULP energy -545475.390818 kJ/mol
# GULP energy per Si atom -12397.167973 kJ/mol
# Density = 2.015096 g / cm^3
# Si number density = 20.196930 Si / 1000 Ang^3
#
#
#
# Elastic Constant Matrix: (Units=GPa)
#
#
# Indices 1 2 3 4 5 6 
#
# 1 72.4954 28.5019 15.0360 0.0000 0.0000 0.0000
# 2 28.5019 122.8301 11.2399 0.0000 0.0000 0.0000
# 3 15.0360 11.2399 91.4650 0.0000 0.0000 0.0000
# 4 0.0000 0.0000 0.0000 21.4934 0.0000 0.0000
# 5 0.0000 0.0000 0.0000 0.0000 24.4935 0.0000
# 6 0.0000 0.0000 0.0000 0.0000 0.0000 27.1432
#
#
#
# Elastic Compliance Matrix: (Units=1/GPa)
#
#
# Indices 1 2 3 4 5 6 
#
# 1 0.015583 -0.003420 -0.002141 0.000000 0.000000 0.000000
# 2 -0.003420 0.008984 -0.000542 0.000000 0.000000 0.000000
# 3 -0.002141 -0.000542 0.011352 0.000000 0.000000 0.000000
# 4 0.000000 0.000000 0.000000 0.046526 0.000000 0.000000
# 5 0.000000 0.000000 0.000000 0.000000 0.040827 0.000000
# 6 0.000000 0.000000 0.000000 0.000000 0.000000 0.036842
#
#
# Mechanical properties :
#
#
# Convention : Reuss Voigt Hill
#
# Bulk Modulus (GPa) = 42.17172 44.03847 43.10510
# Shear Modulus (GPa) = 27.74324 30.09354 28.91839
#
# Velocity S-wave (km/s) = 3.71028 3.86425 3.78805
# Velocity P-wave (km/s) = 6.26742 6.46233 6.36562
#
# Compressibility (1/GPa) = 0.02371257
#
# Stress axis : x y z
#
# Youngs Moduli (GPa) = 64.17386 111.30305 88.09211
#
# Poissons Ratio (x) = 0.38065 0.18864
# Poissons Ratio (y) = 0.21947 0.04774
# Poissons Ratio (z) = 0.13742 0.06031
#
# Static dielectric constant tensor:
#      x y z
#    x 3.445480 0.000000 0.000000 
#    y 0.000000 3.759850 0.000000 
#    z 0.000000 0.000000 3.767360 
# 
# 
# High freq. dielectric constant tensor:
#      x y z
#    x 1.759040 0.000000 0.000000 
#    y 0.000000 1.803710 0.000000 
#    z 0.000000 0.000000 1.771980 
# 
# From -- ./inp_files/18272.got.cif
#   From: 2010.03.12/outbox.cif.g09.slc.cpg/sg69_10_cif.got.tgz:18272.got - 2010.04.10 23:52:46.
