data_PCOD8284673
_publ_section_title
;
Structure prediction by ZEFSAII (Michael W. Deem and Ramdas Pophale) SiO2 
 PCOD8284673
Probable space group: F M M M
;
_chemical_formula_sum "Si O2"
_cell_formula_units_Z 240
_cell_length_a 24.588610
_cell_length_b 26.804764
_cell_length_c 20.564244
_cell_angle_alpha 90.000000
_cell_angle_beta 90.000000
_cell_angle_gamma 90.000000
_cell_volume 13553.726406
_symmetry_space_group_name_H-M "F M M M"
_symmetry_group_IT_number 69
_symmetry_cell_setting 'orthorhombic'
loop_
_space_group_symop_operation_xyz
x,y,z
-x,-y,z
x,-y,-z
-x,y,-z
-x,-y,-z
x,y,-z
-x,y,z
x,-y,z
x,1/2+y,1/2+z
-x,1/2-y,1/2+z
x,1/2-y,1/2-z
-x,1/2+y,1/2-z
-x,1/2-y,1/2-z
x,1/2+y,1/2-z
-x,1/2+y,1/2+z
x,1/2-y,1/2+z
1/2+x,y,1/2+z
1/2-x,-y,1/2+z
1/2+x,-y,1/2-z
1/2-x,y,1/2-z
1/2-x,-y,1/2-z
1/2+x,y,1/2-z
1/2-x,y,1/2+z
1/2+x,-y,1/2+z
1/2+x,1/2+y,z
1/2-x,1/2-y,z
1/2+x,1/2-y,-z
1/2-x,1/2+y,-z
1/2-x,1/2-y,-z
1/2+x,1/2+y,-z
1/2-x,1/2+y,z
1/2+x,1/2-y,z
loop_
_atom_site_type_symbol
_atom_site_label
_atom_site_fract_x
_atom_site_fract_y
_atom_site_fract_z
Si Si1 0.110720 0.441510 0.146018
Si Si2 0.207188 0.288435 0.153578
Si Si3 0.136373 0.283001 0.575315
Si Si4 0.061478 0.289263 0.692012
Si Si5 0.793821 0.134009 0.868691
Si Si6 0.000000 0.441084 0.926769
Si Si7 0.641240 0.142120 0.755619
Si Si8 0.221464 0.557906 0.928020
O O1 0.107289 0.500000 0.165939
O O2 0.120061 0.407035 0.208418
O O3 0.162554 0.430342 0.101587
O O4 0.054912 0.424026 0.110547
O O5 0.250000 0.250000 0.188832
O O6 0.181333 0.258239 0.093400
O O7 0.238378 0.335078 0.124234
O O8 0.161596 0.310414 0.201985
O O9 0.118972 0.278111 0.500000
O O10 0.086135 0.270923 0.623240
O O11 0.159525 0.338911 0.588697
O O12 0.067793 0.250000 0.750000
O O13 0.090331 0.339942 0.713660
O O14 0.000000 0.302613 0.677421
O O15 0.810325 0.127570 0.793406
O O16 0.775100 0.080189 0.893526
O O17 0.000000 0.500000 0.932462
O O18 0.000000 0.418253 0.000000
O O19 0.232969 0.500000 0.926954
O O20 0.218870 0.579988 0.000000
#
# Coordination Sequence:
#
# PCOD8284673 Si02
#       8
#    32  32  32  32  32  16  32  32
#     4  10  21  35  54  80 108 142 183 229 273 322
#     4  10  20  33  52  77 108 139 176 216 259 315
#     4  10  21  36  55  80 106 137 180 225 266 318
#     4  10  21  37  57  76 103 141 176 220 275 327
#     4  10  21  33  52  76 108 141 176 214 267 318
#     4   9  18  36  58  76 101 142 187 229 276 327
#     4  11  21  35  54  81 107 142 180 225 268 330
#     4  10  20  34  51  75 108 143 177 216 268 327
#
# _framework density 17.707308000000001
#
# number of rings (size 3 to 8) (size 9 to 14) (size 15 to 20)
#    0.000    1.933    2.667    1.200    0.933    8.000 
#    0.000    1.333    0.000    0.000    0.000    0.000 
#    0.000    0.000    0.000   14.133    0.000    0.000 
#
# Total GULP energy -743577.113472 kJ/mol
# GULP energy per Si atom -12392.951891 kJ/mol
# Density = 1.766701 g / cm^3
# Si number density = 17.707308 Si / 1000 Ang^3
#
#
#
# Elastic Constant Matrix: (Units=GPa)
#
#
# Indices 1 2 3 4 5 6 
#
# 1 102.8595 37.4370 53.3651 0.0000 0.0000 0.0000
# 2 37.4370 56.7255 45.0523 0.0000 0.0000 0.0000
# 3 53.3651 45.0523 132.0329 0.0000 0.0000 0.0000
# 4 0.0000 0.0000 0.0000 25.5903 0.0000 0.0000
# 5 0.0000 0.0000 0.0000 0.0000 17.1356 0.0000
# 6 0.0000 0.0000 0.0000 0.0000 0.0000 21.6181
#
#
#
# Elastic Compliance Matrix: (Units=1/GPa)
#
#
# Indices 1 2 3 4 5 6 
#
# 1 0.013822 -0.006427 -0.003394 0.000000 0.000000 0.000000
# 2 -0.006427 0.027170 -0.006674 0.000000 0.000000 0.000000
# 3 -0.003394 -0.006674 0.011223 0.000000 0.000000 0.000000
# 4 0.000000 0.000000 0.000000 0.039077 0.000000 0.000000
# 5 0.000000 0.000000 0.000000 0.000000 0.058358 0.000000
# 6 0.000000 0.000000 0.000000 0.000000 0.000000 0.046258
#
#
# Mechanical properties :
#
#
# Convention : Reuss Voigt Hill
#
# Bulk Modulus (GPa) = 52.00970 62.59185 57.30078
# Shear Modulus (GPa) = 21.24910 23.25303 22.25106
#
# Velocity S-wave (km/s) = 3.46789 3.62773 3.54871
# Velocity P-wave (km/s) = 6.74319 7.27818 7.01579
#
# Compressibility (1/GPa) = 0.01922718
#
# Stress axis : x y z
#
# Youngs Moduli (GPa) = 72.35007 36.80478 89.10558
#
# Poissons Ratio (x) = 0.23653 0.30238
# Poissons Ratio (y) = 0.46497 0.59465
# Poissons Ratio (z) = 0.24552 0.24562
#
# Static dielectric constant tensor:
#      x y z
#    x 3.354620 0.000000 0.000000 
#    y 0.000000 3.188650 0.000000 
#    z 0.000000 0.000000 3.251740 
# 
# 
# High freq. dielectric constant tensor:
#      x y z
#    x 1.683610 0.000000 0.000000 
#    y 0.000000 1.671290 0.000000 
#    z 0.000000 0.000000 1.677850 
# 
# From -- ./inp_files/33028.got.cif
#   From: 2010.03.12/outbox.cif.g09.slc.cpg/sg69_17_cif.got.tgz:33028.got - 2010.04.10 23:52:46.
