data_PCOD8284131
_publ_section_title
;
Structure prediction by ZEFSAII (Michael W. Deem and Ramdas Pophale) SiO2 
 PCOD8284131
Probable space group: F M M M
;
_chemical_formula_sum "Si O2"
_cell_formula_units_Z 208
_cell_length_a 17.507762
_cell_length_b 25.083155
_cell_length_c 29.965726
_cell_angle_alpha 90.000000
_cell_angle_beta 90.000000
_cell_angle_gamma 90.000000
_cell_volume 13159.445815
_symmetry_space_group_name_H-M "F M M M"
_symmetry_group_IT_number 69
_symmetry_cell_setting 'orthorhombic'
loop_
_space_group_symop_operation_xyz
x,y,z
-x,-y,z
x,-y,-z
-x,y,-z
-x,-y,-z
x,y,-z
-x,y,z
x,-y,z
x,1/2+y,1/2+z
-x,1/2-y,1/2+z
x,1/2-y,1/2-z
-x,1/2+y,1/2-z
-x,1/2-y,1/2-z
x,1/2+y,1/2-z
-x,1/2+y,1/2+z
x,1/2-y,1/2+z
1/2+x,y,1/2+z
1/2-x,-y,1/2+z
1/2+x,-y,1/2-z
1/2-x,y,1/2-z
1/2-x,-y,1/2-z
1/2+x,y,1/2-z
1/2-x,y,1/2+z
1/2+x,-y,1/2+z
1/2+x,1/2+y,z
1/2-x,1/2-y,z
1/2+x,1/2-y,-z
1/2-x,1/2+y,-z
1/2-x,1/2-y,-z
1/2+x,1/2+y,-z
1/2-x,1/2+y,z
1/2+x,1/2-y,z
loop_
_atom_site_type_symbol
_atom_site_label
_atom_site_fract_x
_atom_site_fract_y
_atom_site_fract_z
Si Si1 0.833752 0.936714 0.551460
Si Si2 0.914050 0.156950 0.250406
Si Si3 0.585505 0.701958 0.347403
Si Si4 0.288487 0.376750 0.368552
Si Si5 0.684332 0.292038 0.173641
Si Si6 0.000000 0.561856 0.948589
Si Si7 0.677856 0.060610 0.218312
O O1 0.820161 0.919702 0.500000
O O2 0.774515 0.906125 0.583901
O O3 0.918226 0.917601 0.569712
O O4 0.823435 0.000000 0.555921
O O5 0.912135 0.193343 0.294194
O O6 0.852574 0.181177 0.216892
O O7 0.890926 0.096668 0.263030
O O8 0.000000 0.156294 0.230211
O O9 0.500000 0.699403 0.366640
O O10 0.634636 0.657921 0.372685
O O11 0.620451 0.760876 0.355179
O O12 0.217357 0.338504 0.357782
O O13 0.297280 0.421619 0.330923
O O14 0.750000 0.250000 0.188609
O O15 0.000000 0.500000 0.939940
O O16 0.000000 0.575613 0.000000
O O17 0.750000 0.066795 0.250000
O O18 0.648145 0.000000 0.216454
#
# Coordination Sequence:
#
# PCOD8284131 Si02
#       7
#    32  32  32  32  32  16  32
#     4   9  17  30  48  70  94 117 148 190 228 270
#     4  10  19  31  47  67  89 122 165 199 229 264
#     4   9  19  30  44  66  91 119 156 197 232 266
#     4  10  19  29  47  68  91 122 155 181 228 281
#     4  10  19  30  45  64  90 120 155 195 235 268
#     4   7  12  24  42  64  88 114 139 172 224 268
#     4  10  19  31  45  63  94 131 158 184 222 275
#
# _framework density 15.806137
#
# number of rings (size 3 to 8) (size 9 to 14) (size 15 to 20)
#    0.000    2.538    1.538    2.308    1.077    4.615 
#    0.000    0.000    0.000    4.154    0.000    0.000 
#    0.000    1.846    0.000    6.769    0.000    0.000 
#
# Total GULP energy -644376.438698 kJ/mol
# GULP energy per Si atom -12391.854590 kJ/mol
# Density = 1.577016 g / cm^3
# Si number density = 15.806137 Si / 1000 Ang^3
#
#
#
# Elastic Constant Matrix: (Units=GPa)
#
#
# Indices 1 2 3 4 5 6 
#
# 1 71.3015 37.2710 23.4211 0.0000 0.0000 0.0000
# 2 37.2710 86.9329 40.9130 0.0000 0.0000 0.0000
# 3 23.4211 40.9130 74.0025 0.0000 0.0000 0.0000
# 4 0.0000 0.0000 0.0000 9.3779 0.0000 0.0000
# 5 0.0000 0.0000 0.0000 0.0000 13.9096 0.0000
# 6 0.0000 0.0000 0.0000 0.0000 0.0000 17.8301
#
#
#
# Elastic Compliance Matrix: (Units=1/GPa)
#
#
# Indices 1 2 3 4 5 6 
#
# 1 0.018285 -0.006915 -0.001964 0.000000 0.000000 0.000000
# 2 -0.006915 0.018164 -0.007854 0.000000 0.000000 0.000000
# 3 -0.001964 -0.007854 0.018477 0.000000 0.000000 0.000000
# 4 0.000000 0.000000 0.000000 0.106634 0.000000 0.000000
# 5 0.000000 0.000000 0.000000 0.000000 0.071893 0.000000
# 6 0.000000 0.000000 0.000000 0.000000 0.000000 0.056085
#
#
# Mechanical properties :
#
#
# Convention : Reuss Voigt Hill
#
# Bulk Modulus (GPa) = 46.59789 48.38302 47.49045
# Shear Modulus (GPa) = 15.14442 16.93232 16.03837
#
# Velocity S-wave (km/s) = 3.09873 3.27655 3.18888
# Velocity P-wave (km/s) = 6.50752 6.70754 6.60828
#
# Compressibility (1/GPa) = 0.02146020
#
# Stress axis : x y z
#
# Youngs Moduli (GPa) = 54.69062 55.05425 54.12273
#
# Poissons Ratio (x) = 0.38070 0.10629
# Poissons Ratio (y) = 0.37818 0.42506
# Poissons Ratio (z) = 0.10741 0.43237
#
# Static dielectric constant tensor:
#      x y z
#    x 3.143950 0.000000 0.000000 
#    y 0.000000 3.054210 0.000000 
#    z 0.000000 0.000000 2.677540 
# 
# 
# High freq. dielectric constant tensor:
#      x y z
#    x 1.597720 0.000000 0.000000 
#    y 0.000000 1.609560 0.000000 
#    z 0.000000 0.000000 1.571300 
# 
# From -- ./inp_files/27063.got.cif
#   From: 2010.03.12/outbox.cif.g09.slc.cpg/sg69_14_cif.got.tgz:27063.got - 2010.04.10 23:52:46.
