data_PCOD8284217
_publ_section_title
;
Structure prediction by ZEFSAII (Michael W. Deem and Ramdas Pophale) SiO2 
 PCOD8284217
Probable space group: F M M M
;
_chemical_formula_sum "Si O2"
_cell_formula_units_Z 208
_cell_length_a 16.220044
_cell_length_b 19.494800
_cell_length_c 32.967315
_cell_angle_alpha 90.000000
_cell_angle_beta 90.000000
_cell_angle_gamma 90.000000
_cell_volume 10424.479745
_symmetry_space_group_name_H-M "F M M M"
_symmetry_group_IT_number 69
_symmetry_cell_setting 'orthorhombic'
loop_
_space_group_symop_operation_xyz
x,y,z
-x,-y,z
x,-y,-z
-x,y,-z
-x,-y,-z
x,y,-z
-x,y,z
x,-y,z
x,1/2+y,1/2+z
-x,1/2-y,1/2+z
x,1/2-y,1/2-z
-x,1/2+y,1/2-z
-x,1/2-y,1/2-z
x,1/2+y,1/2-z
-x,1/2+y,1/2+z
x,1/2-y,1/2+z
1/2+x,y,1/2+z
1/2-x,-y,1/2+z
1/2+x,-y,1/2-z
1/2-x,y,1/2-z
1/2-x,-y,1/2-z
1/2+x,y,1/2-z
1/2-x,y,1/2+z
1/2+x,-y,1/2+z
1/2+x,1/2+y,z
1/2-x,1/2-y,z
1/2+x,1/2-y,-z
1/2-x,1/2+y,-z
1/2-x,1/2-y,-z
1/2+x,1/2+y,-z
1/2-x,1/2+y,z
1/2+x,1/2-y,z
loop_
_atom_site_type_symbol
_atom_site_label
_atom_site_fract_x
_atom_site_fract_y
_atom_site_fract_z
Si Si1 0.598135 0.660275 0.877630
Si Si2 0.901412 0.923612 0.586286
Si Si3 0.904059 0.075732 0.198273
Si Si4 0.402021 0.310476 0.648632
Si Si5 0.598061 0.422355 0.045256
Si Si6 0.655665 0.677098 0.262635
Si Si7 0.589457 0.419167 0.500000
O O1 0.500000 0.657427 0.878007
O O2 0.634410 0.616089 0.840101
O O3 0.627242 0.738402 0.870599
O O4 0.632962 0.629422 0.920158
O O5 0.870290 0.869484 0.618789
O O6 0.863893 0.900592 0.542133
O O7 0.000000 0.922904 0.582850
O O8 0.871011 0.000000 0.598449
O O9 0.891332 0.115853 0.240252
O O10 0.000000 0.067621 0.190563
O O11 0.863389 0.000000 0.201370
O O12 0.500000 0.311618 0.656198
O O13 0.354320 0.329110 0.689472
O O14 0.500000 0.420988 0.046281
O O15 0.628465 0.500000 0.054663
O O16 0.628427 0.400014 0.000000
O O17 0.616083 0.750000 0.250000
O O18 0.750000 0.673434 0.250000
O O19 0.575117 0.500000 0.500000
O O20 0.500000 0.382068 0.500000
#
# Coordination Sequence:
#
# PCOD8284217 Si02
#       7
#    32  32  32  32  32  32  16
#     4   9  16  27  43  67  98 129 163 202 244 298
#     4   8  14  25  42  67  99 134 169 202 243 294
#     4  10  20  34  55  79 100 128 166 208 255 307
#     4  10  19  31  50  73  99 133 169 213 262 304
#     4   8  13  22  37  59  93 134 165 194 242 300
#     4  11  23  38  54  71  98 135 173 212 262 314
#     4   7  10  20  38  60  94 135 165 195 238 289
#
# _framework density 19.953033999999999
#
# number of rings (size 3 to 8) (size 9 to 14) (size 15 to 20)
#    0.000    2.846    1.538    2.308    0.000    3.385 
#    1.385    1.538    0.000    0.000    0.000    0.000 
#    2.308    2.615    1.846    0.000    0.000    0.000 
#
# Total GULP energy -644364.060456 kJ/mol
# GULP energy per Si atom -12391.616547 kJ/mol
# Density = 1.990762 g / cm^3
# Si number density = 19.953034 Si / 1000 Ang^3
#
#
#
# Elastic Constant Matrix: (Units=GPa)
#
#
# Indices 1 2 3 4 5 6 
#
# 1 13.4759 12.5641 15.9506 0.0000 0.0000 0.0000
# 2 12.5641 169.2743 112.7095 0.0000 0.0000 0.0000
# 3 15.9506 112.7095 215.9095 0.0000 0.0000 0.0000
# 4 0.0000 0.0000 0.0000 40.0019 0.0000 0.0000
# 5 0.0000 0.0000 0.0000 0.0000 9.0005 0.0000
# 6 0.0000 0.0000 0.0000 0.0000 0.0000 7.3404
#
#
#
# Elastic Compliance Matrix: (Units=1/GPa)
#
#
# Indices 1 2 3 4 5 6 
#
# 1 0.082407 -0.003162 -0.004437 0.000000 0.000000 0.000000
# 2 -0.003162 0.009176 -0.004557 0.000000 0.000000 0.000000
# 3 -0.004437 -0.004557 0.007338 0.000000 0.000000 0.000000
# 4 0.000000 0.000000 0.000000 0.024999 0.000000 0.000000
# 5 0.000000 0.000000 0.000000 0.000000 0.111104 0.000000
# 6 0.000000 0.000000 0.000000 0.000000 0.000000 0.136231
#
#
# Mechanical properties :
#
#
# Convention : Reuss Voigt Hill
#
# Bulk Modulus (GPa) = 13.40316 75.67867 44.54092
# Shear Modulus (GPa) = 11.89238 28.43094 20.16166
#
# Velocity S-wave (km/s) = 2.44400 3.77887 3.18222
# Velocity P-wave (km/s) = 3.83355 7.55318 5.98944
#
# Compressibility (1/GPa) = 0.07460926
#
# Stress axis : x y z
#
# Youngs Moduli (GPa) = 12.13493 108.97729 136.27659
#
# Poissons Ratio (x) = 0.34459 0.60469
# Poissons Ratio (y) = 0.03837 0.62096
# Poissons Ratio (z) = 0.05385 0.49656
#
# Static dielectric constant tensor:
#      x y z
#    x 2.909490 0.000000 0.000000 
#    y 0.000000 3.836630 0.000000 
#    z 0.000000 0.000000 4.037580 
# 
# 
# High freq. dielectric constant tensor:
#      x y z
#    x 1.713680 0.000000 0.000000 
#    y 0.000000 1.773830 0.000000 
#    z 0.000000 0.000000 1.794730 
# 
# From -- ./inp_files/46487.got.cif
#   From: 2010.03.12/outbox.cif.g09.slc.cpg/sg69_24_cif.got.tgz:46487.got - 2010.04.10 23:52:46.
