data_PCOD8284364
_publ_section_title
;
Structure prediction by ZEFSAII (Michael W. Deem and Ramdas Pophale) SiO2 
 PCOD8284364
Probable space group: F M M M
;
_chemical_formula_sum "Si O2"
_cell_formula_units_Z 160
_cell_length_a 23.547097
_cell_length_b 22.749533
_cell_length_c 14.535099
_cell_angle_alpha 90.000000
_cell_angle_beta 90.000000
_cell_angle_gamma 90.000000
_cell_volume 7786.241198
_symmetry_space_group_name_H-M "F M M M"
_symmetry_group_IT_number 69
_symmetry_cell_setting 'orthorhombic'
loop_
_space_group_symop_operation_xyz
x,y,z
-x,-y,z
x,-y,-z
-x,y,-z
-x,-y,-z
x,y,-z
-x,y,z
x,-y,z
x,1/2+y,1/2+z
-x,1/2-y,1/2+z
x,1/2-y,1/2-z
-x,1/2+y,1/2-z
-x,1/2-y,1/2-z
x,1/2+y,1/2-z
-x,1/2+y,1/2+z
x,1/2-y,1/2+z
1/2+x,y,1/2+z
1/2-x,-y,1/2+z
1/2+x,-y,1/2-z
1/2-x,y,1/2-z
1/2-x,-y,1/2-z
1/2+x,y,1/2-z
1/2-x,y,1/2+z
1/2+x,-y,1/2+z
1/2+x,1/2+y,z
1/2-x,1/2-y,z
1/2+x,1/2-y,-z
1/2-x,1/2+y,-z
1/2-x,1/2-y,-z
1/2+x,1/2+y,-z
1/2-x,1/2+y,z
1/2+x,1/2-y,z
loop_
_atom_site_type_symbol
_atom_site_label
_atom_site_fract_x
_atom_site_fract_y
_atom_site_fract_z
Si Si1 0.807848 0.278883 0.602731
Si Si2 0.500000 0.224649 0.850552
Si Si3 0.316038 0.884863 0.735192
Si Si4 0.100345 0.565447 0.605274
Si Si5 0.500000 0.856187 0.601746
Si Si6 0.116051 0.667839 0.102950
O O1 0.799996 0.306062 0.500000
O O2 0.750000 0.250000 0.637276
O O3 0.824997 0.326146 0.677024
O O4 0.856899 0.231732 0.602409
O O5 0.500000 0.250000 0.750000
O O6 0.500000 0.285272 0.908806
O O7 0.448159 0.180312 0.866626
O O8 0.250000 0.900721 0.750000
O O9 0.345002 0.935018 0.672882
O O10 0.349270 0.876959 0.831822
O O11 0.118772 0.580360 0.500000
O O12 0.073554 0.500000 0.609773
O O13 0.056727 0.615005 0.646068
O O14 0.500000 0.883514 0.500000
O O15 0.117400 0.640563 0.000000
#
# Coordination Sequence:
#
# PCOD8284364 Si02
#       6
#    32  16  32  32  16  32
#     4  10  19  33  53  79 112 148 188 230 271 325
#     4  12  22  35  57  85 120 157 190 231 279 334
#     4  12  23  35  57  81 115 155 198 231 273 337
#     4  10  22  40  62  86 109 137 183 246 305 346
#     4  10  19  36  60  84 111 141 175 223 287 349
#     4  11  23  36  52  81 121 159 192 229 277 336
#
# _framework density 20.549067999999998
#
# number of rings (size 3 to 8) (size 9 to 14) (size 15 to 20)
#    0.000    1.200    2.000    6.000    0.000    5.600 
#    0.000    0.000    0.000    0.600    0.000    0.000 
#    0.000    4.800    0.000    0.000    0.000    0.000 
#
# Total GULP energy -495782.366819 kJ/mol
# GULP energy per Si atom -12394.559170 kJ/mol
# Density = 2.050230 g / cm^3
# Si number density = 20.549068 Si / 1000 Ang^3
#
#
#
# Elastic Constant Matrix: (Units=GPa)
#
#
# Indices 1 2 3 4 5 6 
#
# 1 148.8658 21.5407 44.1996 0.0000 0.0000 0.0000
# 2 21.5407 45.9366 15.2761 0.0000 0.0000 0.0000
# 3 44.1996 15.2761 128.0492 0.0000 0.0000 0.0000
# 4 0.0000 0.0000 0.0000 33.0983 0.0000 0.0000
# 5 0.0000 0.0000 0.0000 0.0000 33.3671 0.0000
# 6 0.0000 0.0000 0.0000 0.0000 0.0000 19.6357
#
#
#
# Elastic Compliance Matrix: (Units=1/GPa)
#
#
# Indices 1 2 3 4 5 6 
#
# 1 0.007836 -0.002890 -0.002360 0.000000 0.000000 0.000000
# 2 -0.002890 0.023734 -0.001834 0.000000 0.000000 0.000000
# 3 -0.002360 -0.001834 0.008843 0.000000 0.000000 0.000000
# 4 0.000000 0.000000 0.000000 0.030213 0.000000 0.000000
# 5 0.000000 0.000000 0.000000 0.000000 0.029970 0.000000
# 6 0.000000 0.000000 0.000000 0.000000 0.000000 0.050928
#
#
# Mechanical properties :
#
#
# Convention : Reuss Voigt Hill
#
# Bulk Modulus (GPa) = 38.10163 53.87603 45.98883
# Shear Modulus (GPa) = 28.66314 33.34257 31.00286
#
# Velocity S-wave (km/s) = 3.73884 4.03250 3.88844
# Velocity P-wave (km/s) = 6.10087 6.92507 6.52599
#
# Compressibility (1/GPa) = 0.02624559
#
# Stress axis : x y z
#
# Youngs Moduli (GPa) = 127.61024 42.13348 113.08423
#
# Poissons Ratio (x) = 0.12176 0.26690
# Poissons Ratio (y) = 0.36876 0.20739
# Poissons Ratio (z) = 0.30118 0.07727
#
# Static dielectric constant tensor:
#      x y z
#    x 3.904860 0.000000 0.000000 
#    y 0.000000 3.421360 0.000000 
#    z 0.000000 0.000000 4.012060 
# 
# 
# High freq. dielectric constant tensor:
#      x y z
#    x 1.817150 0.000000 0.000000 
#    y 0.000000 1.756030 0.000000 
#    z 0.000000 0.000000 1.812510 
# 
# From -- ./inp_files/17755.got.cif
#   From: 2010.03.12/outbox.cif.g09.slc.cpg/sg69_9_cif.got.tgz:17755.got - 2010.04.10 23:52:46.
