data_PCOD8284348
_publ_section_title
;
Structure prediction by ZEFSAII (Michael W. Deem and Ramdas Pophale) SiO2 
 PCOD8284348
Probable space group: F M M M
;
_chemical_formula_sum "Si O2"
_cell_formula_units_Z 160
_cell_length_a 20.299059
_cell_length_b 16.239582
_cell_length_c 26.464196
_cell_angle_alpha 90.000000
_cell_angle_beta 90.000000
_cell_angle_gamma 90.000000
_cell_volume 8723.875453
_symmetry_space_group_name_H-M "F M M M"
_symmetry_group_IT_number 69
_symmetry_cell_setting 'orthorhombic'
loop_
_space_group_symop_operation_xyz
x,y,z
-x,-y,z
x,-y,-z
-x,y,-z
-x,-y,-z
x,y,-z
-x,y,z
x,-y,z
x,1/2+y,1/2+z
-x,1/2-y,1/2+z
x,1/2-y,1/2-z
-x,1/2+y,1/2-z
-x,1/2-y,1/2-z
x,1/2+y,1/2-z
-x,1/2+y,1/2+z
x,1/2-y,1/2+z
1/2+x,y,1/2+z
1/2-x,-y,1/2+z
1/2+x,-y,1/2-z
1/2-x,y,1/2-z
1/2-x,-y,1/2-z
1/2+x,y,1/2-z
1/2-x,y,1/2+z
1/2+x,-y,1/2+z
1/2+x,1/2+y,z
1/2-x,1/2-y,z
1/2+x,1/2-y,-z
1/2-x,1/2+y,-z
1/2-x,1/2-y,-z
1/2+x,1/2+y,-z
1/2-x,1/2+y,z
1/2+x,1/2-y,z
loop_
_atom_site_type_symbol
_atom_site_label
_atom_site_fract_x
_atom_site_fract_y
_atom_site_fract_z
Si Si1 0.640985 0.133480 0.942274
Si Si2 0.577877 0.500000 0.264867
Si Si3 0.177489 0.221198 0.128978
Si Si4 0.074144 0.827134 0.786899
Si Si5 0.924555 0.500000 0.122477
Si Si6 0.787469 0.590679 0.445925
O O1 0.649186 0.219478 0.913914
O O2 0.708968 0.084460 0.941711
O O3 0.589707 0.080836 0.910081
O O4 0.615834 0.146908 0.000000
O O5 0.500000 0.500000 0.267865
O O6 0.599880 0.585795 0.237224
O O7 0.609985 0.500000 0.321614
O O8 0.250000 0.250000 0.148879
O O9 0.126289 0.205990 0.172966
O O10 0.182258 0.134334 0.101789
O O11 0.070309 0.750000 0.750000
O O12 0.000000 0.841119 0.809229
O O13 0.000000 0.500000 0.135777
O O14 0.804931 0.633891 0.500000
O O15 0.817553 0.500000 0.445322
#
# Coordination Sequence:
#
# PCOD8284348 Si02
#       6
#    32  16  32  32  16  32
#     4  10  19  33  51  77 113 146 179 219 269 333
#     4   9  20  37  57  79 102 141 196 236 276 337
#     4  10  21  34  56  84 113 142 184 230 274 320
#     4  10  21  39  60  80 108 148 189 232 284 340
#     4  11  21  34  54  78 107 144 185 233 280 328
#     4   9  17  32  54  78 108 144 179 216 265 327
#
# _framework density 18.340472999999999
#
# number of rings (size 3 to 8) (size 9 to 14) (size 15 to 20)
#    0.000    2.200    1.000    2.100    1.400    6.000 
#    0.000    0.000    0.000    5.400    0.000    1.400 
#    0.000    0.000    0.000    0.000    0.000    0.000 
#
# Total GULP energy -495526.927586 kJ/mol
# GULP energy per Si atom -12388.173190 kJ/mol
# Density = 1.829873 g / cm^3
# Si number density = 18.340473 Si / 1000 Ang^3
#
#
#
# Elastic Constant Matrix: (Units=GPa)
#
#
# Indices 1 2 3 4 5 6 
#
# 1 67.6092 27.6340 55.5323 0.0000 0.0000 0.0000
# 2 27.6340 102.6449 44.8902 0.0000 0.0000 0.0000
# 3 55.5323 44.8902 123.2226 0.0000 0.0000 0.0000
# 4 0.0000 0.0000 0.0000 10.5328 0.0000 0.0000
# 5 0.0000 0.0000 0.0000 0.0000 -0.4404 0.0000
# 6 0.0000 0.0000 0.0000 0.0000 0.0000 146.2625
#
#
#
# Elastic Compliance Matrix: (Units=1/GPa)
#
#
# Indices 1 2 3 4 5 6 
#
# 1 0.023839 -0.002045 -0.009998 0.000000 0.000000 0.000000
# 2 -0.002045 0.011764 -0.003364 0.000000 0.000000 0.000000
# 3 -0.009998 -0.003364 0.013847 0.000000 0.000000 0.000000
# 4 0.000000 0.000000 0.000000 0.094941 0.000000 0.000000
# 5 0.000000 0.000000 0.000000 0.000000 -2.270889 0.000000
# 6 0.000000 0.000000 0.000000 0.000000 0.000000 0.006837
#
#
# Mechanical properties :
#
#
# Convention : Reuss Voigt Hill
#
# Bulk Modulus (GPa) = 53.66287 61.06551 57.36419
# Shear Modulus (GPa) = -2.40081 42.29901 19.94910
#
# Velocity S-wave (km/s) = -1.14537 4.80763 3.30162
# Velocity P-wave (km/s) = 5.25106 8.01158 6.77344
#
# Compressibility (1/GPa) = 0.01863486
#
# Stress axis : x y z
#
# Youngs Moduli (GPa) = 41.94751 85.00416 72.21865
#
# Poissons Ratio (x) = 0.17386 0.72207
# Poissons Ratio (y) = 0.08580 0.24294
# Poissons Ratio (z) = 0.41941 0.28595
#
# Static dielectric constant tensor:
#      x y z
#    x 3.180460 0.000000 0.000000 
#    y 0.000000 3.549180 0.000000 
#    z 0.000000 0.000000 3.474350 
# 
# 
# High freq. dielectric constant tensor:
#      x y z
#    x 1.677380 0.000000 0.000000 
#    y 0.000000 1.726430 0.000000 
#    z 0.000000 0.000000 1.715300 
# 
# From -- ./inp_files/25849.got.cif
#   From: 2010.03.12/outbox.cif.g09.slc.cpg/sg69_13_cif.got.tgz:25849.got - 2010.04.10 23:52:46.
