data_PCOD8284645
_publ_section_title
;
Structure prediction by ZEFSAII (Michael W. Deem and Ramdas Pophale) SiO2 
 PCOD8284645
Probable space group: F M M M
;
_chemical_formula_sum "Si O2"
_cell_formula_units_Z 200
_cell_length_a 30.086532
_cell_length_b 19.619746
_cell_length_c 18.665859
_cell_angle_alpha 90.000000
_cell_angle_beta 90.000000
_cell_angle_gamma 90.000000
_cell_volume 11018.272072
_symmetry_space_group_name_H-M "F M M M"
_symmetry_group_IT_number 69
_symmetry_cell_setting 'orthorhombic'
loop_
_space_group_symop_operation_xyz
x,y,z
-x,-y,z
x,-y,-z
-x,y,-z
-x,-y,-z
x,y,-z
-x,y,z
x,-y,z
x,1/2+y,1/2+z
-x,1/2-y,1/2+z
x,1/2-y,1/2-z
-x,1/2+y,1/2-z
-x,1/2-y,1/2-z
x,1/2+y,1/2-z
-x,1/2+y,1/2+z
x,1/2-y,1/2+z
1/2+x,y,1/2+z
1/2-x,-y,1/2+z
1/2+x,-y,1/2-z
1/2-x,y,1/2-z
1/2-x,-y,1/2-z
1/2+x,y,1/2-z
1/2-x,y,1/2+z
1/2+x,-y,1/2+z
1/2+x,1/2+y,z
1/2-x,1/2-y,z
1/2+x,1/2-y,-z
1/2-x,1/2+y,-z
1/2-x,1/2-y,-z
1/2+x,1/2+y,-z
1/2-x,1/2+y,z
1/2+x,1/2-y,z
loop_
_atom_site_type_symbol
_atom_site_label
_atom_site_fract_x
_atom_site_fract_y
_atom_site_fract_z
Si Si1 0.750000 0.750000 0.750000
Si Si2 0.381244 0.246662 0.081293
Si Si3 0.667083 0.884019 0.579950
Si Si4 0.323127 0.845625 0.820675
Si Si5 0.737686 0.920686 0.079363
Si Si6 0.051444 0.804855 0.811821
Si Si7 0.883744 0.422534 0.289428
O O1 0.716658 0.795174 0.798159
O O2 0.344277 0.304698 0.079270
O O3 0.362091 0.188770 0.132987
O O4 0.426354 0.276945 0.115341
O O5 0.391040 0.220305 0.000000
O O6 0.664251 0.915510 0.500000
O O7 0.717194 0.887436 0.609626
O O8 0.633722 0.927135 0.629257
O O9 0.303022 0.904651 0.869411
O O10 0.345459 0.882463 0.753380
O O11 0.745661 0.000000 0.077108
O O12 0.726954 0.891919 0.000000
O O13 0.059799 0.750000 0.750000
O O14 0.071364 0.877781 0.786875
O O15 0.000000 0.816469 0.827984
O O16 0.892596 0.500000 0.261427
#
# Coordination Sequence:
#
# PCOD8284645 Si02
#       7
#     8  32  32  32  32  32  32
#     4  12  24  32  52  76 110 156 204 240 276 300
#     4  10  20  35  57  83 109 141 182 229 281 333
#     4   9  19  34  52  75 105 144 188 230 274 322
#     4  12  21  35  49  77 110 148 190 236 272 316
#     4  10  20  33  49  70 102 146 189 229 273 318
#     4  10  20  39  62  84 108 137 174 222 276 337
#     4  11  22  35  56  83 112 146 182 224 280 339
#
# _framework density 18.151665999999999
#
# number of rings (size 3 to 8) (size 9 to 14) (size 15 to 20)
#    0.000    1.600    1.600    5.280    0.000    1.600 
#    0.000    5.600    0.000    0.000    0.000    4.480 
#    0.000    2.560    0.000    0.000    0.000    0.000 
#
# Total GULP energy -619898.121696 kJ/mol
# GULP energy per Si atom -12397.962434 kJ/mol
# Density = 1.811035 g / cm^3
# Si number density = 18.151666 Si / 1000 Ang^3
#
#
#
# Elastic Constant Matrix: (Units=GPa)
#
#
# Indices 1 2 3 4 5 6 
#
# 1 119.2708 49.0046 46.5178 0.0000 0.0000 0.0000
# 2 49.0046 85.8236 38.0807 0.0000 0.0000 0.0000
# 3 46.5178 38.0807 78.7795 0.0000 0.0000 0.0000
# 4 0.0000 0.0000 0.0000 21.6816 0.0000 0.0000
# 5 0.0000 0.0000 0.0000 0.0000 21.4248 0.0000
# 6 0.0000 0.0000 0.0000 0.0000 0.0000 18.8476
#
#
#
# Elastic Compliance Matrix: (Units=1/GPa)
#
#
# Indices 1 2 3 4 5 6 
#
# 1 0.012289 -0.004834 -0.004920 0.000000 0.000000 0.000000
# 2 -0.004834 0.016735 -0.005235 0.000000 0.000000 0.000000
# 3 -0.004920 -0.005235 0.018129 0.000000 0.000000 0.000000
# 4 0.000000 0.000000 0.000000 0.046122 0.000000 0.000000
# 5 0.000000 0.000000 0.000000 0.000000 0.046675 0.000000
# 6 0.000000 0.000000 0.000000 0.000000 0.000000 0.053057
#
#
# Mechanical properties :
#
#
# Convention : Reuss Voigt Hill
#
# Bulk Modulus (GPa) = 58.22214 61.23113 59.72664
# Shear Modulus (GPa) = 21.86172 22.40885 22.13528
#
# Velocity S-wave (km/s) = 3.47420 3.51741 3.49587
# Velocity P-wave (km/s) = 6.94539 7.09242 7.01929
#
# Compressibility (1/GPa) = 0.01717560
#
# Stress axis : x y z
#
# Youngs Moduli (GPa) = 81.37161 59.75578 55.15957
#
# Poissons Ratio (x) = 0.28886 0.27138
# Poissons Ratio (y) = 0.39336 0.28875
# Poissons Ratio (z) = 0.40034 0.31281
#
# Static dielectric constant tensor:
#      x y z
#    x 3.201250 0.000000 0.000000 
#    y 0.000000 3.247900 0.000000 
#    z 0.000000 0.000000 3.574450 
# 
# 
# High freq. dielectric constant tensor:
#      x y z
#    x 1.688420 0.000000 0.000000 
#    y 0.000000 1.697930 0.000000 
#    z 0.000000 0.000000 1.712240 
# 
# From -- ./inp_files/27919.got.cif
#   From: 2010.03.12/outbox.cif.g09.slc.cpg/sg69_14_cif.got.tgz:27919.got - 2010.04.10 23:52:46.
