data_PCOD8284020
_publ_section_title
;
Structure prediction by ZEFSAII (Michael W. Deem and Ramdas Pophale) SiO2 
 PCOD8284020
Probable space group: F M M M
;
_chemical_formula_sum "Si O2"
_cell_formula_units_Z 112
_cell_length_a 27.757390
_cell_length_b 30.902031
_cell_length_c 8.892493
_cell_angle_alpha 90.000000
_cell_angle_beta 90.000000
_cell_angle_gamma 90.000000
_cell_volume 7627.622361
_symmetry_space_group_name_H-M "F M M M"
_symmetry_group_IT_number 69
_symmetry_cell_setting 'orthorhombic'
loop_
_space_group_symop_operation_xyz
x,y,z
-x,-y,z
x,-y,-z
-x,y,-z
-x,-y,-z
x,y,-z
-x,y,z
x,-y,z
x,1/2+y,1/2+z
-x,1/2-y,1/2+z
x,1/2-y,1/2-z
-x,1/2+y,1/2-z
-x,1/2-y,1/2-z
x,1/2+y,1/2-z
-x,1/2+y,1/2+z
x,1/2-y,1/2+z
1/2+x,y,1/2+z
1/2-x,-y,1/2+z
1/2+x,-y,1/2-z
1/2-x,y,1/2-z
1/2-x,-y,1/2-z
1/2+x,y,1/2-z
1/2-x,y,1/2+z
1/2+x,-y,1/2+z
1/2+x,1/2+y,z
1/2-x,1/2-y,z
1/2+x,1/2-y,-z
1/2-x,1/2+y,-z
1/2-x,1/2-y,-z
1/2+x,1/2+y,-z
1/2-x,1/2+y,z
1/2+x,1/2-y,z
loop_
_atom_site_type_symbol
_atom_site_label
_atom_site_fract_x
_atom_site_fract_y
_atom_site_fract_z
Si Si1 0.055980 0.879960 0.823999
Si Si2 0.881252 0.547620 0.170145
Si Si3 0.942641 0.792700 0.330509
Si Si4 0.197789 0.500000 0.321083
O O1 0.083732 0.919628 0.751989
O O2 0.075883 0.835105 0.756322
O O3 0.000000 0.885949 0.785046
O O4 0.065513 0.879156 0.000000
O O5 0.906421 0.500000 0.168230
O O6 0.830693 0.542891 0.261452
O O7 0.870811 0.563432 0.000000
O O8 0.922882 0.794085 0.500000
O O9 0.921579 0.750000 0.250000
O O10 0.000000 0.791111 0.328001
O O11 0.200784 0.500000 0.500000
O O12 0.250000 0.500000 0.250000
#
# Coordination Sequence:
#
# PCOD8284020 Si02
#       4
#    32  32  32  16
#     4  10  19  29  42  61  87 119 152 184 219 258
#     4   9  19  32  45  64  87 114 147 181 216 257
#     4   9  16  26  40  57  79 109 146 185 221 256
#     4  10  18  32  51  68  87 110 138 175 219 261
#
# _framework density 14.683475
#
# number of rings (size 3 to 8) (size 9 to 14) (size 15 to 20)
#    0.857    1.714    0.000    3.429    0.000    5.714 
#    0.000    2.857    0.000    0.000    0.000    0.000 
#    0.000    1.143    0.000   11.429    0.000    7.429 
#
# Total GULP energy -347015.148333 kJ/mol
# GULP energy per Si atom -12393.398155 kJ/mol
# Density = 1.465005 g / cm^3
# Si number density = 14.683475 Si / 1000 Ang^3
#
#
#
# Elastic Constant Matrix: (Units=GPa)
#
#
# Indices 1 2 3 4 5 6 
#
# 1 50.2372 45.0537 56.4030 0.0049 -0.0054 -0.0008
# 2 45.0537 106.6939 62.6005 -0.0006 -0.0028 0.0011
# 3 56.4030 62.6005 137.8393 -0.0082 -0.0023 -0.0164
# 4 0.0049 -0.0006 -0.0082 32.8221 -0.0017 -0.0039
# 5 -0.0054 -0.0028 -0.0023 -0.0017 22.4680 0.0056
# 6 -0.0008 0.0011 -0.0164 -0.0039 0.0056 -1.3445
#
#
#
# Elastic Compliance Matrix: (Units=1/GPa)
#
#
# Indices 1 2 3 4 5 6 
#
# 1 0.044783 -0.011123 -0.013274 -0.000010 0.000008 0.000127
# 2 -0.011123 0.015540 -0.002506 0.000001 -0.000001 0.000049
# 3 -0.013274 -0.002506 0.013824 0.000005 -0.000002 -0.000163
# 4 -0.000010 0.000001 0.000005 0.030467 0.000002 -0.000089
# 5 0.000008 -0.000001 -0.000002 0.000002 0.044508 0.000184
# 6 0.000127 0.000049 -0.000163 -0.000089 0.000184 -0.743755
#
#
# Mechanical properties :
#
#
# Convention : Reuss Voigt Hill
#
# Bulk Modulus (GPa) = 49.15759 69.20942 59.18350
# Shear Modulus (GPa) = -9.36249 19.50334 5.07042
#
# Velocity S-wave (km/s) = -2.52786 3.64847 1.86028
# Velocity P-wave (km/s) = 5.00308 8.06133 6.70879
#
# Compressibility (1/GPa) = 0.02034274
#
# Stress axis : x y z
#
# Youngs Moduli (GPa) = 22.32969 64.35073 72.33540
#
# Poissons Ratio (x) = 0.71575 0.96015
# Poissons Ratio (y) = 0.24837 0.18128
# Poissons Ratio (z) = 0.29640 0.16127
#
# Static dielectric constant tensor:
#      x y z
#    x 2.424360 0.000000 0.000000 
#    y 0.000000 2.899420 0.000020 
#    z 0.000000 0.000020 3.094190 
# 
# 
# High freq. dielectric constant tensor:
#      x y z
#    x 1.504550 0.000000 0.000000 
#    y 0.000000 1.559500 0.000000 
#    z 0.000000 0.000000 1.587620 
# 
# From -- ./inp_files/4005.got.cif
#   From: 2010.03.12/outbox.cif.g09.slc.cpg/sg69_3_cif.got.tgz:4005.got - 2010.04.10 23:52:46.
