data_PCOD8284170
_publ_section_title
;
Structure prediction by ZEFSAII (Michael W. Deem and Ramdas Pophale) SiO2 
 PCOD8284170
Probable space group: F M M M
;
_chemical_formula_sum "Si O2"
_cell_formula_units_Z 208
_cell_length_a 24.843349
_cell_length_b 18.828829
_cell_length_c 24.220542
_cell_angle_alpha 90.000000
_cell_angle_beta 90.000000
_cell_angle_gamma 90.000000
_cell_volume 11329.671272
_symmetry_space_group_name_H-M "F M M M"
_symmetry_group_IT_number 69
_symmetry_cell_setting 'orthorhombic'
loop_
_space_group_symop_operation_xyz
x,y,z
-x,-y,z
x,-y,-z
-x,y,-z
-x,-y,-z
x,y,-z
-x,y,z
x,-y,z
x,1/2+y,1/2+z
-x,1/2-y,1/2+z
x,1/2-y,1/2-z
-x,1/2+y,1/2-z
-x,1/2-y,1/2-z
x,1/2+y,1/2-z
-x,1/2+y,1/2+z
x,1/2-y,1/2+z
1/2+x,y,1/2+z
1/2-x,-y,1/2+z
1/2+x,-y,1/2-z
1/2-x,y,1/2-z
1/2-x,-y,1/2-z
1/2+x,y,1/2-z
1/2-x,y,1/2+z
1/2+x,-y,1/2+z
1/2+x,1/2+y,z
1/2-x,1/2-y,z
1/2+x,1/2-y,-z
1/2-x,1/2+y,-z
1/2-x,1/2-y,-z
1/2+x,1/2+y,-z
1/2-x,1/2+y,z
1/2+x,1/2-y,z
loop_
_atom_site_type_symbol
_atom_site_label
_atom_site_fract_x
_atom_site_fract_y
_atom_site_fract_z
Si Si1 0.810624 0.276168 0.936769
Si Si2 0.346337 0.419703 0.616058
Si Si3 0.562341 0.374652 0.305464
Si Si4 0.117336 0.750000 0.750000
Si Si5 0.654002 0.170701 0.650723
Si Si6 0.753733 0.579933 0.689146
Si Si7 0.940080 0.579618 0.314869
O O1 0.750000 0.250000 0.923377
O O2 0.824522 0.359616 0.926541
O O3 0.848529 0.228317 0.898000
O O4 0.824448 0.259504 0.000000
O O5 0.346508 0.500000 0.589370
O O6 0.405003 0.403057 0.641330
O O7 0.306547 0.417978 0.667513
O O8 0.500000 0.378987 0.322399
O O9 0.578786 0.294304 0.290865
O O10 0.575071 0.420135 0.250238
O O11 0.156684 0.794596 0.788760
O O12 0.707446 0.122695 0.647570
O O13 0.599695 0.124740 0.646799
O O14 0.776870 0.500000 0.692217
O O15 0.750000 0.613611 0.750000
O O16 0.937233 0.500000 0.336922
O O17 0.000000 0.611539 0.322156
#
# Coordination Sequence:
#
# PCOD8284170 Si02
#       7
#    32  32  32  16  32  32  32
#     4  11  24  43  61  80 109 147 191 239 287 338
#     4  11  22  38  57  82 111 145 190 237 284 333
#     4  10  19  32  52  82 120 157 191 226 272 333
#     4  10  19  30  53  86 118 152 184 232 274 328
#     4  11  20  34  56  81 113 146 185 227 280 336
#     4  10  20  32  51  82 119 149 176 219 281 348
#     4   9  18  32  53  84 121 156 185 216 265 333
#
# _framework density 18.358872999999999
#
# number of rings (size 3 to 8) (size 9 to 14) (size 15 to 20)
#    0.000    1.692    3.077    3.000    0.000    3.077 
#    0.000    0.000    0.000    3.692    0.000    2.154 
#    0.000    0.000    0.000    0.000    0.000    0.000 
#
# Total GULP energy -644540.846874 kJ/mol
# GULP energy per Si atom -12395.016286 kJ/mol
# Density = 1.831709 g / cm^3
# Si number density = 18.358873 Si / 1000 Ang^3
#
#
#
# Elastic Constant Matrix: (Units=GPa)
#
#
# Indices 1 2 3 4 5 6 
#
# 1 99.1318 40.6159 30.3022 0.0000 0.0000 0.0000
# 2 40.6159 105.4295 32.5632 0.0000 0.0000 0.0000
# 3 30.3022 32.5632 65.5363 0.0000 0.0000 0.0000
# 4 0.0000 0.0000 0.0000 19.4228 0.0000 0.0000
# 5 0.0000 0.0000 0.0000 0.0000 15.9630 0.0000
# 6 0.0000 0.0000 0.0000 0.0000 0.0000 24.1209
#
#
#
# Elastic Compliance Matrix: (Units=1/GPa)
#
#
# Indices 1 2 3 4 5 6 
#
# 1 0.012853 -0.003681 -0.004114 0.000000 0.000000 0.000000
# 2 -0.003681 0.012259 -0.004389 0.000000 0.000000 0.000000
# 3 -0.004114 -0.004389 0.019342 0.000000 0.000000 0.000000
# 4 0.000000 0.000000 0.000000 0.051486 0.000000 0.000000
# 5 0.000000 0.000000 0.000000 0.000000 0.062645 0.000000
# 6 0.000000 0.000000 0.000000 0.000000 0.000000 0.041458
#
#
# Mechanical properties :
#
#
# Convention : Reuss Voigt Hill
#
# Bulk Modulus (GPa) = 49.78685 53.00671 51.39678
# Shear Modulus (GPa) = 21.63514 23.00909 22.32211
#
# Velocity S-wave (km/s) = 3.43659 3.54403 3.49072
# Velocity P-wave (km/s) = 6.55167 6.75885 6.65607
#
# Compressibility (1/GPa) = 0.02008563
#
# Stress axis : x y z
#
# Youngs Moduli (GPa) = 77.80102 81.57481 51.70170
#
# Poissons Ratio (x) = 0.30027 0.21270
# Poissons Ratio (y) = 0.28638 0.22692
# Poissons Ratio (z) = 0.32008 0.35803
#
# Static dielectric constant tensor:
#      x y z
#    x 3.372590 0.000000 0.000000 
#    y 0.000000 3.703320 0.000000 
#    z 0.000000 0.000000 2.916200 
# 
# 
# High freq. dielectric constant tensor:
#      x y z
#    x 1.713610 0.000000 0.000000 
#    y 0.000000 1.727630 0.000000 
#    z 0.000000 0.000000 1.658630 
# 
# From -- ./inp_files/43302.got.cif
#   From: 2010.03.12/outbox.cif.g09.slc.cpg/sg69_22_cif.got.tgz:43302.got - 2010.04.10 23:52:46.
