data_PCOD8284139
_publ_section_title
;
Structure prediction by ZEFSAII (Michael W. Deem and Ramdas Pophale) SiO2 
 PCOD8284139
Probable space group: F M M M
;
_chemical_formula_sum "Si O2"
_cell_formula_units_Z 208
_cell_length_a 24.817211
_cell_length_b 27.937919
_cell_length_c 17.982822
_cell_angle_alpha 90.000000
_cell_angle_beta 90.000000
_cell_angle_gamma 90.000000
_cell_volume 12468.231937
_symmetry_space_group_name_H-M "F M M M"
_symmetry_group_IT_number 69
_symmetry_cell_setting 'orthorhombic'
loop_
_space_group_symop_operation_xyz
x,y,z
-x,-y,z
x,-y,-z
-x,y,-z
-x,-y,-z
x,y,-z
-x,y,z
x,-y,z
x,1/2+y,1/2+z
-x,1/2-y,1/2+z
x,1/2-y,1/2-z
-x,1/2+y,1/2-z
-x,1/2-y,1/2-z
x,1/2+y,1/2-z
-x,1/2+y,1/2+z
x,1/2-y,1/2+z
1/2+x,y,1/2+z
1/2-x,-y,1/2+z
1/2+x,-y,1/2-z
1/2-x,y,1/2-z
1/2-x,-y,1/2-z
1/2+x,y,1/2-z
1/2-x,y,1/2+z
1/2+x,-y,1/2+z
1/2+x,1/2+y,z
1/2-x,1/2-y,z
1/2+x,1/2-y,-z
1/2-x,1/2+y,-z
1/2-x,1/2-y,-z
1/2+x,1/2+y,-z
1/2-x,1/2+y,z
1/2+x,1/2-y,z
loop_
_atom_site_type_symbol
_atom_site_label
_atom_site_fract_x
_atom_site_fract_y
_atom_site_fract_z
Si Si1 0.936242 0.447096 0.000000
Si Si2 0.358801 0.307832 0.588361
Si Si3 0.937655 0.617473 0.584182
Si Si4 0.436093 0.886281 0.859666
Si Si5 0.563780 0.946584 0.718413
Si Si6 0.250131 0.806907 0.166148
Si Si7 0.354935 0.301563 0.914522
O O1 0.916673 0.419840 0.073135
O O2 0.910471 0.500000 0.000000
O O3 0.000000 0.451015 0.000000
O O4 0.361226 0.316336 0.500000
O O5 0.406361 0.335751 0.630664
O O6 0.301442 0.326209 0.620070
O O7 0.368038 0.252514 0.610395
O O8 0.926541 0.599773 0.500000
O O9 0.918038 0.575706 0.639537
O O10 0.907237 0.666728 0.601740
O O11 0.000000 0.629354 0.597263
O O12 0.500000 0.876801 0.860330
O O13 0.416217 0.912157 0.784525
O O14 0.500000 0.950787 0.723141
O O15 0.588833 0.000000 0.725796
O O16 0.250000 0.826794 0.250000
O O17 0.250000 0.750000 0.164148
O O18 0.195115 0.825040 0.128797
O O19 0.337929 0.301560 0.000000
#
# Coordination Sequence:
#
# PCOD8284139 Si02
#       7
#    16  32  32  32  32  32  32
#     4   9  16  28  46  66  95 132 166 198 231 274
#     4  10  19  31  48  71 100 132 166 200 232 278
#     4   9  18  32  50  74 100 126 160 197 240 299
#     4  10  19  30  45  72 104 132 163 196 238 291
#     4   9  18  32  49  69  96 128 161 203 248 286
#     4   9  18  31  48  69  92 123 166 209 241 274
#     4   9  18  32  49  69  99 133 161 195 239 284
#
# _framework density 16.682397000000002
#
# number of rings (size 3 to 8) (size 9 to 14) (size 15 to 20)
#    0.000    2.692    0.769    0.923    2.154    4.615 
#    0.000    3.077    0.000    2.769    0.000    3.231 
#    0.000    0.000    0.000    0.000    0.000    0.000 
#
# Total GULP energy -644714.327231 kJ/mol
# GULP energy per Si atom -12398.352447 kJ/mol
# Density = 1.664443 g / cm^3
# Si number density = 16.682397 Si / 1000 Ang^3
#
#
#
# Elastic Constant Matrix: (Units=GPa)
#
#
# Indices 1 2 3 4 5 6 
#
# 1 67.1505 44.7859 43.9270 0.0000 0.0000 0.0000
# 2 44.7859 89.2812 55.5673 0.0000 0.0000 0.0000
# 3 43.9270 55.5673 112.9828 0.0000 0.0000 0.0000
# 4 0.0000 0.0000 0.0000 25.5120 0.0000 0.0000
# 5 0.0000 0.0000 0.0000 0.0000 21.8008 0.0000
# 6 0.0000 0.0000 0.0000 0.0000 0.0000 4.4269
#
#
#
# Elastic Compliance Matrix: (Units=1/GPa)
#
#
# Indices 1 2 3 4 5 6 
#
# 1 0.024156 -0.009039 -0.004946 0.000000 0.000000 0.000000
# 2 -0.009039 0.019524 -0.006088 0.000000 0.000000 0.000000
# 3 -0.004946 -0.006088 0.013768 0.000000 0.000000 0.000000
# 4 0.000000 0.000000 0.000000 0.039197 0.000000 0.000000
# 5 0.000000 0.000000 0.000000 0.000000 0.045870 0.000000
# 6 0.000000 0.000000 0.000000 0.000000 0.000000 0.225891
#
#
# Mechanical properties :
#
#
# Convention : Reuss Voigt Hill
#
# Bulk Modulus (GPa) = 57.79720 61.99720 59.89720
# Shear Modulus (GPa) = 12.06800 18.69023 15.37912
#
# Velocity S-wave (km/s) = 2.69252 3.35080 3.03954
# Velocity P-wave (km/s) = 6.66236 7.22596 6.94987
#
# Compressibility (1/GPa) = 0.01730188
#
# Stress axis : x y z
#
# Youngs Moduli (GPa) = 41.39767 51.21971 72.63156
#
# Poissons Ratio (x) = 0.46297 0.35925
# Poissons Ratio (y) = 0.37419 0.44218
# Poissons Ratio (z) = 0.20476 0.31182
#
# Static dielectric constant tensor:
#      x y z
#    x 2.941830 0.000000 0.000000 
#    y 0.000000 3.074320 0.000000 
#    z 0.000000 0.000000 3.340700 
# 
# 
# High freq. dielectric constant tensor:
#      x y z
#    x 1.613830 0.000000 0.000000 
#    y 0.000000 1.622480 0.000000 
#    z 0.000000 0.000000 1.658210 
# 
# From -- ./inp_files/26998.got.cif
#   From: 2010.03.12/outbox.cif.g09.slc.cpg/sg69_14_cif.got.tgz:26998.got - 2010.04.10 23:52:46.
