data_PCOD8284748
_publ_section_title
;
Structure prediction by ZEFSAII (Michael W. Deem and Ramdas Pophale) SiO2 
 PCOD8284748
Probable space group: F M M M
;
_chemical_formula_sum "Si O2"
_cell_formula_units_Z 144
_cell_length_a 26.764426
_cell_length_b 8.881254
_cell_length_c 32.253542
_cell_angle_alpha 90.000000
_cell_angle_beta 90.000000
_cell_angle_gamma 90.000000
_cell_volume 7666.720651
_symmetry_space_group_name_H-M "F M M M"
_symmetry_group_IT_number 69
_symmetry_cell_setting 'orthorhombic'
loop_
_space_group_symop_operation_xyz
x,y,z
-x,-y,z
x,-y,-z
-x,y,-z
-x,-y,-z
x,y,-z
-x,y,z
x,-y,z
x,1/2+y,1/2+z
-x,1/2-y,1/2+z
x,1/2-y,1/2-z
-x,1/2+y,1/2-z
-x,1/2-y,1/2-z
x,1/2+y,1/2-z
-x,1/2+y,1/2+z
x,1/2-y,1/2+z
1/2+x,y,1/2+z
1/2-x,-y,1/2+z
1/2+x,-y,1/2-z
1/2-x,y,1/2-z
1/2-x,-y,1/2-z
1/2+x,y,1/2-z
1/2-x,y,1/2+z
1/2+x,-y,1/2+z
1/2+x,1/2+y,z
1/2-x,1/2-y,z
1/2+x,1/2-y,-z
1/2-x,1/2+y,-z
1/2-x,1/2-y,-z
1/2+x,1/2+y,-z
1/2-x,1/2+y,z
1/2+x,1/2-y,z
loop_
_atom_site_type_symbol
_atom_site_label
_atom_site_fract_x
_atom_site_fract_y
_atom_site_fract_z
Si Si1 0.144356 0.821222 0.292555
Si Si2 0.199026 0.674251 0.125454
Si Si3 0.902295 0.322587 0.082563
Si Si4 0.557083 0.173336 0.337674
Si Si5 0.557836 0.321835 0.000000
O O1 0.164488 0.750000 0.250000
O O2 0.182205 0.770500 0.328864
O O3 0.089632 0.756411 0.302765
O O4 0.140455 0.000000 0.288889
O O5 0.210026 0.500000 0.127124
O O6 0.250000 0.750000 0.110818
O O7 0.155663 0.712137 0.092573
O O8 0.912648 0.500000 0.080579
O O9 0.937164 0.252677 0.117909
O O10 0.914864 0.246015 0.039501
O O11 0.500000 0.186338 0.323372
O O12 0.573971 0.000000 0.341575
O O13 0.563977 0.500000 0.000000
O O14 0.500000 0.273843 0.000000
#
# Coordination Sequence:
#
# PCOD8284748 Si02
#       5
#    32  32  32  32  16
#     4  10  21  36  53  77 107 139 179 224 269 319
#     4   9  20  37  57  80 105 137 177 220 267 320
#     4  10  21  37  56  81 111 142 179 220 264 316
#     4  10  20  34  53  77 106 142 181 220 266 320
#     4  11  23  37  56  85 116 145 180 219 260 309
#
# _framework density 18.782477
#
# number of rings (size 3 to 8) (size 9 to 14) (size 15 to 20)
#    0.000    2.111    0.000    4.333    0.000   11.556 
#    0.000    2.778    0.000    0.000    0.000    0.000 
#    0.000    0.000    0.000    0.000    0.000    0.000 
#
# Total GULP energy -446489.443790 kJ/mol
# GULP energy per Si atom -12402.484550 kJ/mol
# Density = 1.873973 g / cm^3
# Si number density = 18.782477 Si / 1000 Ang^3
#
#
#
# Elastic Constant Matrix: (Units=GPa)
#
#
# Indices 1 2 3 4 5 6 
#
# 1 102.9584 47.4867 33.1571 0.0000 0.0000 0.0007
# 2 47.4867 93.5528 40.4969 0.0000 0.0000 -0.0014
# 3 33.1571 40.4969 109.2011 0.0000 0.0000 0.0005
# 4 0.0000 0.0000 0.0000 38.1100 0.0000 0.0000
# 5 0.0000 0.0000 0.0000 0.0000 15.1275 0.0000
# 6 0.0007 -0.0014 0.0005 0.0000 0.0000 32.4254
#
#
#
# Elastic Compliance Matrix: (Units=1/GPa)
#
#
# Indices 1 2 3 4 5 6 
#
# 1 0.012966 -0.005810 -0.001782 0.000000 0.000000 -0.000001
# 2 -0.005810 0.015337 -0.003923 0.000000 0.000000 0.000001
# 3 -0.001782 -0.003923 0.011154 0.000000 0.000000 0.000000
# 4 0.000000 0.000000 0.000000 0.026240 0.000000 0.000000
# 5 0.000000 0.000000 0.000000 0.000000 0.066105 0.000000
# 6 -0.000001 0.000001 0.000000 0.000000 0.000000 0.030840
#
#
# Mechanical properties :
#
#
# Convention : Reuss Voigt Hill
#
# Bulk Modulus (GPa) = 60.88322 60.88818 60.88570
# Shear Modulus (GPa) = 26.15771 29.43735 27.79753
#
# Velocity S-wave (km/s) = 3.73589 3.96318 3.85121
# Velocity P-wave (km/s) = 7.14804 7.30960 7.22927
#
# Compressibility (1/GPa) = 0.01642489
#
# Stress axis : x y z
#
# Youngs Moduli (GPa) = 77.12242 65.20318 89.65715
#
# Poissons Ratio (x) = 0.37884 0.15980
# Poissons Ratio (y) = 0.44809 0.35176
# Poissons Ratio (z) = 0.13746 0.25582
#
# Static dielectric constant tensor:
#      x y z
#    x 3.451950 0.000000 0.000000 
#    y 0.000000 3.553870 0.000000 
#    z 0.000000 0.000000 3.427080 
# 
# 
# High freq. dielectric constant tensor:
#      x y z
#    x 1.726880 0.000000 0.000000 
#    y 0.000000 1.743790 0.000000 
#    z 0.000000 0.000000 1.723860 
# 
# From -- ./inp_files/44505.got.cif
#   From: 2010.03.12/outbox.cif.g09.slc.cpg/sg69_23_cif.got.tgz:44505.got - 2010.04.10 23:52:46.
