data_PCOD8284686
_publ_section_title
;
Structure prediction by ZEFSAII (Michael W. Deem and Ramdas Pophale) SiO2 
 PCOD8284686
Probable space group: F M M M
;
_chemical_formula_sum "Si O2"
_cell_formula_units_Z 192
_cell_length_a 18.449070
_cell_length_b 18.646753
_cell_length_c 28.450125
_cell_angle_alpha 90.000000
_cell_angle_beta 90.000000
_cell_angle_gamma 90.000000
_cell_volume 9787.276903
_symmetry_space_group_name_H-M "F M M M"
_symmetry_group_IT_number 69
_symmetry_cell_setting 'orthorhombic'
loop_
_space_group_symop_operation_xyz
x,y,z
-x,-y,z
x,-y,-z
-x,y,-z
-x,-y,-z
x,y,-z
-x,y,z
x,-y,z
x,1/2+y,1/2+z
-x,1/2-y,1/2+z
x,1/2-y,1/2-z
-x,1/2+y,1/2-z
-x,1/2-y,1/2-z
x,1/2+y,1/2-z
-x,1/2+y,1/2+z
x,1/2-y,1/2+z
1/2+x,y,1/2+z
1/2-x,-y,1/2+z
1/2+x,-y,1/2-z
1/2-x,y,1/2-z
1/2-x,-y,1/2-z
1/2+x,y,1/2-z
1/2-x,y,1/2+z
1/2+x,-y,1/2+z
1/2+x,1/2+y,z
1/2-x,1/2-y,z
1/2+x,1/2-y,-z
1/2-x,1/2+y,-z
1/2-x,1/2-y,-z
1/2+x,1/2+y,-z
1/2-x,1/2+y,z
1/2+x,1/2-y,z
loop_
_atom_site_type_symbol
_atom_site_label
_atom_site_fract_x
_atom_site_fract_y
_atom_site_fract_z
Si Si1 0.578652 0.416469 0.895117
Si Si2 0.179831 0.298610 0.946704
Si Si3 0.216801 0.079663 0.054193
Si Si4 0.417850 0.842559 0.300852
Si Si5 0.914085 0.081146 0.290405
Si Si6 0.085582 0.793463 0.356780
O O1 0.500000 0.383839 0.911102
O O2 0.578550 0.500000 0.906311
O O3 0.646966 0.381179 0.921929
O O4 0.588109 0.404256 0.839822
O O5 0.250000 0.250000 0.940336
O O6 0.208332 0.379058 0.937054
O O7 0.118920 0.281461 0.908370
O O8 0.148434 0.290882 0.000000
O O9 0.228501 0.000000 0.074772
O O10 0.196605 0.078061 0.000000
O O11 0.500000 0.824414 0.286898
O O12 0.379860 0.875872 0.254364
O O13 0.383871 0.768099 0.321037
O O14 0.894395 0.127915 0.336568
O O15 0.000000 0.075463 0.284049
O O16 0.881964 0.000000 0.294829
O O17 0.000000 0.783536 0.362919
#
# Coordination Sequence:
#
# PCOD8284686 Si02
#       6
#    32  32  32  32  32  32
#     4   9  16  26  45  74 103 131 167 212 257 299
#     4  10  21  37  55  74 100 136 174 210 256 314
#     4   9  18  32  49  69  96 134 175 211 254 310
#     4   9  16  28  47  73 104 134 165 204 253 305
#     4   9  17  30  50  77 108 138 168 205 250 301
#     4  10  20  33  53  80 104 130 170 217 258 296
#
# _framework density 19.617305000000002
#
# number of rings (size 3 to 8) (size 9 to 14) (size 15 to 20)
#    0.000    2.667    0.000    2.000    0.000    5.333 
#    0.000    1.667    0.000   13.000    0.000   11.667 
#    0.000    0.000    0.000    0.000    0.000    0.000 
#
# Total GULP energy -594693.084983 kJ/mol
# GULP energy per Si atom -12389.439270 kJ/mol
# Density = 1.957266 g / cm^3
# Si number density = 19.617305 Si / 1000 Ang^3
#
#
#
# Elastic Constant Matrix: (Units=GPa)
#
#
# Indices 1 2 3 4 5 6 
#
# 1 30.8504 16.3364 30.9703 0.0000 0.0000 0.0000
# 2 16.3364 103.1363 46.4553 0.0000 0.0000 0.0000
# 3 30.9703 46.4553 104.1744 0.0000 0.0000 0.0000
# 4 0.0000 0.0000 0.0000 27.7942 0.0000 0.0000
# 5 0.0000 0.0000 0.0000 0.0000 14.0587 0.0000
# 6 0.0000 0.0000 0.0000 0.0000 0.0000 11.2449
#
#
#
# Elastic Compliance Matrix: (Units=1/GPa)
#
#
# Indices 1 2 3 4 5 6 
#
# 1 0.046370 -0.001421 -0.013152 0.000000 0.000000 0.000000
# 2 -0.001421 0.012177 -0.005008 0.000000 0.000000 0.000000
# 3 -0.013152 -0.005008 0.015742 0.000000 0.000000 0.000000
# 4 0.000000 0.000000 0.000000 0.035979 0.000000 0.000000
# 5 0.000000 0.000000 0.000000 0.000000 0.071130 0.000000
# 6 0.000000 0.000000 0.000000 0.000000 0.000000 0.088929
#
#
# Mechanical properties :
#
#
# Convention : Reuss Voigt Hill
#
# Bulk Modulus (GPa) = 28.46723 47.29836 37.88280
# Shear Modulus (GPa) = 15.56677 20.24615 17.90646
#
# Velocity S-wave (km/s) = 2.82001 3.21605 3.02452
# Velocity P-wave (km/s) = 5.01458 6.16064 5.61692
#
# Compressibility (1/GPa) = 0.03512811
#
# Stress axis : x y z
#
# Youngs Moduli (GPa) = 21.56576 82.12539 63.52321
#
# Poissons Ratio (x) = 0.11669 0.83544
# Poissons Ratio (y) = 0.03064 0.31809
# Poissons Ratio (z) = 0.28363 0.41125
#
# Static dielectric constant tensor:
#      x y z
#    x 3.294110 0.000000 0.000000 
#    y 0.000000 4.023140 0.000000 
#    z 0.000000 0.000000 3.541140 
# 
# 
# High freq. dielectric constant tensor:
#      x y z
#    x 1.709730 0.000000 0.000000 
#    y 0.000000 1.778560 0.000000 
#    z 0.000000 0.000000 1.760880 
# 
# From -- ./inp_files/32027.got.cif
#   From: 2010.03.12/outbox.cif.g09.slc.cpg/sg69_17_cif.got.tgz:32027.got - 2010.04.10 23:52:46.
