data_PCOD8284571
_publ_section_title
;
Structure prediction by ZEFSAII (Michael W. Deem and Ramdas Pophale) SiO2 
 PCOD8284571
Probable space group: F M M M
;
_chemical_formula_sum "Si O2"
_cell_formula_units_Z 160
_cell_length_a 31.525029
_cell_length_b 14.004273
_cell_length_c 23.570603
_cell_angle_alpha 90.000000
_cell_angle_beta 90.000000
_cell_angle_gamma 90.000000
_cell_volume 10406.070316
_symmetry_space_group_name_H-M "F M M M"
_symmetry_group_IT_number 69
_symmetry_cell_setting 'orthorhombic'
loop_
_space_group_symop_operation_xyz
x,y,z
-x,-y,z
x,-y,-z
-x,y,-z
-x,-y,-z
x,y,-z
-x,y,z
x,-y,z
x,1/2+y,1/2+z
-x,1/2-y,1/2+z
x,1/2-y,1/2-z
-x,1/2+y,1/2-z
-x,1/2-y,1/2-z
x,1/2+y,1/2-z
-x,1/2+y,1/2+z
x,1/2-y,1/2+z
1/2+x,y,1/2+z
1/2-x,-y,1/2+z
1/2+x,-y,1/2-z
1/2-x,y,1/2-z
1/2-x,-y,1/2-z
1/2+x,y,1/2-z
1/2-x,y,1/2+z
1/2+x,-y,1/2+z
1/2+x,1/2+y,z
1/2-x,1/2-y,z
1/2+x,1/2-y,-z
1/2-x,1/2+y,-z
1/2-x,1/2-y,-z
1/2+x,1/2+y,-z
1/2-x,1/2+y,z
1/2+x,1/2-y,z
loop_
_atom_site_type_symbol
_atom_site_label
_atom_site_fract_x
_atom_site_fract_y
_atom_site_fract_z
Si Si1 0.950385 0.110352 0.266031
Si Si2 0.319418 0.251633 0.182926
Si Si3 0.949951 0.606769 0.564227
Si Si4 0.249136 0.604970 0.182503
Si Si5 0.414808 0.773848 0.663777
O O1 0.923529 0.147233 0.212332
O O2 0.938046 0.174076 0.320653
O O3 0.000000 0.122673 0.252193
O O4 0.938898 0.000000 0.278141
O O5 0.325834 0.250000 0.250000
O O6 0.291797 0.342106 0.162233
O O7 0.293744 0.157922 0.162596
O O8 0.365159 0.255130 0.154456
O O9 0.935740 0.629269 0.500000
O O10 0.934422 0.500000 0.581612
O O11 0.930826 0.687851 0.604010
O O12 0.000000 0.610821 0.569900
O O13 0.248863 0.500000 0.155486
O O14 0.250000 0.602508 0.250000
#
# Coordination Sequence:
#
# PCOD8284571 Si02
#       5
#    32  32  32  32  32
#     4  10  20  30  41  62  92 123 150 176 217 275
#     4   9  16  27  37  61  89 112 149 179 209 268
#     4   9  18  32  49  68  89 116 152 191 230 269
#     4   8  15  26  40  54  82 120 147 175 213 255
#     4  11  18  29  46  66  91 119 148 187 228 263
#
# _framework density 15.375641
#
# number of rings (size 3 to 8) (size 9 to 14) (size 15 to 20)
#    0.000    2.600    2.000    4.800    0.000    4.000 
#    0.000    0.000    0.000    0.600    0.000    5.600 
#    0.000    1.600    0.000    0.000    0.000    0.000 
#
# Total GULP energy -495822.724582 kJ/mol
# GULP energy per Si atom -12395.568115 kJ/mol
# Density = 1.534065 g / cm^3
# Si number density = 15.375641 Si / 1000 Ang^3
#
#
#
# Elastic Constant Matrix: (Units=GPa)
#
#
# Indices 1 2 3 4 5 6 
#
# 1 89.9416 46.5013 22.9868 0.0000 0.0000 0.0000
# 2 46.5013 139.1473 39.3144 0.0000 0.0000 0.0000
# 3 22.9868 39.3144 57.8979 0.0000 0.0000 0.0000
# 4 0.0000 0.0000 0.0000 18.9844 0.0000 0.0000
# 5 0.0000 0.0000 0.0000 0.0000 9.7265 0.0000
# 6 0.0000 0.0000 0.0000 0.0000 0.0000 10.8324
#
#
#
# Elastic Compliance Matrix: (Units=1/GPa)
#
#
# Indices 1 2 3 4 5 6 
#
# 1 0.013826 -0.003798 -0.002910 0.000000 0.000000 0.000000
# 2 -0.003798 0.009936 -0.005239 0.000000 0.000000 0.000000
# 3 -0.002910 -0.005239 0.021985 0.000000 0.000000 0.000000
# 4 0.000000 0.000000 0.000000 0.052675 0.000000 0.000000
# 5 0.000000 0.000000 0.000000 0.000000 0.102812 0.000000
# 6 0.000000 0.000000 0.000000 0.000000 0.000000 0.092316
#
#
# Mechanical properties :
#
#
# Convention : Reuss Voigt Hill
#
# Bulk Modulus (GPa) = 45.76235 56.06575 50.91405
# Shear Modulus (GPa) = 15.39754 19.78762 17.59258
#
# Velocity S-wave (km/s) = 3.16796 3.59129 3.38625
# Velocity P-wave (km/s) = 6.57334 7.33074 6.96235
#
# Compressibility (1/GPa) = 0.02185202
#
# Stress axis : x y z
#
# Youngs Moduli (GPa) = 72.32855 100.64261 45.48645
#
# Poissons Ratio (x) = 0.38226 0.13237
# Poissons Ratio (y) = 0.27472 0.23830
# Poissons Ratio (z) = 0.21048 0.52726
#
# Static dielectric constant tensor:
#      x y z
#    x 3.028740 0.000000 0.000000 
#    y 0.000000 3.306420 0.000000 
#    z 0.000000 0.000000 2.549780 
# 
# 
# High freq. dielectric constant tensor:
#      x y z
#    x 1.594080 0.000000 0.000000 
#    y 0.000000 1.597250 0.000000 
#    z 0.000000 0.000000 1.529570 
# 
# From -- ./inp_files/18905.got.cif
#   From: 2010.03.12/outbox.cif.g09.slc.cpg/sg69_10_cif.got.tgz:18905.got - 2010.04.10 23:52:46.
