data_PCOD8284623
_publ_section_title
;
Structure prediction by ZEFSAII (Michael W. Deem and Ramdas Pophale) SiO2 
 PCOD8284623
Probable space group: F M M M
;
_chemical_formula_sum "Si O2"
_cell_formula_units_Z 144
_cell_length_a 17.248198
_cell_length_b 32.262400
_cell_length_c 13.341686
_cell_angle_alpha 90.000000
_cell_angle_beta 90.000000
_cell_angle_gamma 90.000000
_cell_volume 7424.224836
_symmetry_space_group_name_H-M "F M M M"
_symmetry_group_IT_number 69
_symmetry_cell_setting 'orthorhombic'
loop_
_space_group_symop_operation_xyz
x,y,z
-x,-y,z
x,-y,-z
-x,y,-z
-x,-y,-z
x,y,-z
-x,y,z
x,-y,z
x,1/2+y,1/2+z
-x,1/2-y,1/2+z
x,1/2-y,1/2-z
-x,1/2+y,1/2-z
-x,1/2-y,1/2-z
x,1/2+y,1/2-z
-x,1/2+y,1/2+z
x,1/2-y,1/2+z
1/2+x,y,1/2+z
1/2-x,-y,1/2+z
1/2+x,-y,1/2-z
1/2-x,y,1/2-z
1/2-x,-y,1/2-z
1/2+x,y,1/2-z
1/2-x,y,1/2+z
1/2+x,-y,1/2+z
1/2+x,1/2+y,z
1/2-x,1/2-y,z
1/2+x,1/2-y,-z
1/2-x,1/2+y,-z
1/2-x,1/2-y,-z
1/2+x,1/2+y,-z
1/2-x,1/2+y,z
1/2+x,1/2-y,z
loop_
_atom_site_type_symbol
_atom_site_label
_atom_site_fract_x
_atom_site_fract_y
_atom_site_fract_z
Si Si1 0.409264 0.187573 0.219316
Si Si2 0.907802 0.594445 0.195965
Si Si3 0.407546 0.952867 0.000000
Si Si4 0.837719 0.739274 0.386905
Si Si5 0.407820 0.453119 0.110791
O O1 0.500000 0.187916 0.242155
O O2 0.380701 0.142039 0.187448
O O3 0.389955 0.219917 0.131192
O O4 0.364997 0.200954 0.319872
O O5 0.873872 0.575308 0.299622
O O6 0.000000 0.591115 0.196370
O O7 0.874918 0.569900 0.099437
O O8 0.500000 0.951714 0.000000
O O9 0.377075 0.000000 0.000000
O O10 0.847188 0.724532 0.500000
O O11 0.750000 0.750000 0.359036
O O12 0.500000 0.451731 0.113703
O O13 0.379118 0.500000 0.129187
O O14 0.379507 0.437806 0.000000
#
# Coordination Sequence:
#
# PCOD8284623 Si02
#       5
#    32  32  16  32  32
#     4  10  20  32  50  77 104 131 165 209 261 307
#     4   9  17  26  39  64  95 129 163 201 246 296
#     4   9  16  26  40  60  95 140 172 196 240 305
#     4  10  21  37  55  71  95 136 171 214 254 307
#     4   8  13  22  36  54  82 123 163 194 232 287
#
# _framework density 19.395963999999999
#
# number of rings (size 3 to 8) (size 9 to 14) (size 15 to 20)
#    0.000    2.778    0.000    4.000    1.556    5.333 
#    0.000    2.222    0.000    0.000    0.000    0.000 
#    0.000   14.222    5.333    0.000    0.000    0.000 
#
# Total GULP energy -446252.413933 kJ/mol
# GULP energy per Si atom -12395.900387 kJ/mol
# Density = 1.935182 g / cm^3
# Si number density = 19.395964 Si / 1000 Ang^3
#
#
#
# Elastic Constant Matrix: (Units=GPa)
#
#
# Indices 1 2 3 4 5 6 
#
# 1 37.3612 16.4801 22.1442 0.0000 0.0000 0.0000
# 2 16.4801 145.7040 72.7482 0.0000 0.0000 0.0000
# 3 22.1442 72.7482 152.8585 0.0000 0.0000 0.0000
# 4 0.0000 0.0000 0.0000 23.4662 0.0000 0.0000
# 5 0.0000 0.0000 0.0000 0.0000 11.5859 0.0000
# 6 0.0000 0.0000 0.0000 0.0000 0.0000 2.7479
#
#
#
# Elastic Compliance Matrix: (Units=1/GPa)
#
#
# Indices 1 2 3 4 5 6 
#
# 1 0.029555 -0.001581 -0.003529 0.000000 0.000000 0.000000
# 2 -0.001581 0.009087 -0.004096 0.000000 0.000000 0.000000
# 3 -0.003529 -0.004096 0.009002 0.000000 0.000000 0.000000
# 4 0.000000 0.000000 0.000000 0.042614 0.000000 0.000000
# 5 0.000000 0.000000 0.000000 0.000000 0.086312 0.000000
# 6 0.000000 0.000000 0.000000 0.000000 0.000000 0.363910
#
#
# Mechanical properties :
#
#
# Convention : Reuss Voigt Hill
#
# Bulk Modulus (GPa) = 34.20797 62.07430 48.14114
# Shear Modulus (GPa) = 8.79298 22.53010 15.66154
#
# Velocity S-wave (km/s) = 2.13149 3.41190 2.84467
# Velocity P-wave (km/s) = 4.87161 6.89889 5.97190
#
# Compressibility (1/GPa) = 0.02923295
#
# Stress axis : x y z
#
# Youngs Moduli (GPa) = 33.83549 110.04823 111.08084
#
# Poissons Ratio (x) = 0.17396 0.39203
# Poissons Ratio (y) = 0.05349 0.45495
# Poissons Ratio (z) = 0.11941 0.45072
#
# Static dielectric constant tensor:
#      x y z
#    x 3.025440 0.000000 0.000000 
#    y 0.000000 3.544240 0.000000 
#    z 0.000000 0.000000 3.823910 
# 
# 
# High freq. dielectric constant tensor:
#      x y z
#    x 1.698380 0.000000 0.000000 
#    y 0.000000 1.754400 0.000000 
#    z 0.000000 0.000000 1.769290 
# 
# From -- ./inp_files/15552.got.cif
#   From: 2010.03.12/outbox.cif.g09.slc.cpg/sg69_8_cif.got.tgz:15552.got - 2010.04.10 23:52:46.
