data_PCOD8284033
_publ_section_title
;
Structure prediction by ZEFSAII (Michael W. Deem and Ramdas Pophale) SiO2 
 PCOD8284033
Probable space group: F M M M
;
_chemical_formula_sum "Si O2"
_cell_formula_units_Z 176
_cell_length_a 15.038092
_cell_length_b 18.481711
_cell_length_c 28.548744
_cell_angle_alpha 90.000000
_cell_angle_beta 90.000000
_cell_angle_gamma 90.000000
_cell_volume 7934.543008
_symmetry_space_group_name_H-M "F M M M"
_symmetry_group_IT_number 69
_symmetry_cell_setting 'orthorhombic'
loop_
_space_group_symop_operation_xyz
x,y,z
-x,-y,z
x,-y,-z
-x,y,-z
-x,-y,-z
x,y,-z
-x,y,z
x,-y,z
x,1/2+y,1/2+z
-x,1/2-y,1/2+z
x,1/2-y,1/2-z
-x,1/2+y,1/2-z
-x,1/2-y,1/2-z
x,1/2+y,1/2-z
-x,1/2+y,1/2+z
x,1/2-y,1/2+z
1/2+x,y,1/2+z
1/2-x,-y,1/2+z
1/2+x,-y,1/2-z
1/2-x,y,1/2-z
1/2-x,-y,1/2-z
1/2+x,y,1/2-z
1/2-x,y,1/2+z
1/2+x,-y,1/2+z
1/2+x,1/2+y,z
1/2-x,1/2-y,z
1/2+x,1/2-y,-z
1/2-x,1/2+y,-z
1/2-x,1/2-y,-z
1/2+x,1/2+y,-z
1/2-x,1/2+y,z
1/2+x,1/2-y,z
loop_
_atom_site_type_symbol
_atom_site_label
_atom_site_fract_x
_atom_site_fract_y
_atom_site_fract_z
Si Si1 0.105478 0.629298 0.379512
Si Si2 0.840414 0.417442 0.720999
Si Si3 0.105942 0.420581 0.947402
Si Si4 0.394938 0.292451 0.385245
Si Si5 0.894605 0.500000 0.553309
Si Si6 0.901641 0.693351 0.216064
O O1 0.157538 0.618526 0.330463
O O2 0.129103 0.709696 0.399011
O O3 0.137779 0.571446 0.418484
O O4 0.000000 0.621153 0.369892
O O5 0.865559 0.500000 0.713944
O O6 0.750000 0.404712 0.750000
O O7 0.911450 0.382201 0.756355
O O8 0.136521 0.500000 0.927628
O O9 0.148630 0.353252 0.918933
O O10 0.000000 0.417182 0.946343
O O11 0.141181 0.412360 0.000000
O O12 0.500000 0.303834 0.386993
O O13 0.354127 0.311560 0.334175
O O14 0.855545 0.500000 0.500000
O O15 0.000000 0.500000 0.550290
O O16 0.850009 0.750000 0.250000
O O17 0.000000 0.724752 0.205550
#
# Coordination Sequence:
#
# PCOD8284033 Si02
#       6
#    32  32  32  32  16  32
#     4  10  18  32  53  75 109 150 185 228 283 333
#     4  11  23  36  51  75 106 145 189 228 266 327
#     4   8  14  25  41  64  98 135 169 213 271 326
#     4   9  17  28  46  72  99 133 177 218 259 325
#     4   9  18  30  49  80 112 144 184 229 278 333
#     4  10  19  33  52  75 104 137 179 222 270 330
#
# _framework density 22.181491999999999
#
# number of rings (size 3 to 8) (size 9 to 14) (size 15 to 20)
#    0.000    2.455    2.727    1.091    0.000    2.909 
#    0.000    5.455    0.000    0.000    0.000    1.273 
#    0.000    2.909    0.000    0.000    0.000    0.727 
#
# Total GULP energy -545083.579116 kJ/mol
# GULP energy per Si atom -12388.263162 kJ/mol
# Density = 2.213101 g / cm^3
# Si number density = 22.181492 Si / 1000 Ang^3
#
#
#
# Elastic Constant Matrix: (Units=GPa)
#
#
# Indices 1 2 3 4 5 6 
#
# 1 11.2580 16.2668 11.2153 0.0000 0.0000 0.0000
# 2 16.2668 210.6194 109.6010 0.0000 0.0000 0.0000
# 3 11.2153 109.6010 169.9827 0.0000 0.0000 0.0000
# 4 0.0000 0.0000 0.0000 52.0338 0.0000 0.0000
# 5 0.0000 0.0000 0.0000 0.0000 9.6438 0.0000
# 6 0.0000 0.0000 0.0000 0.0000 0.0000 11.4986
#
#
#
# Elastic Compliance Matrix: (Units=1/GPa)
#
#
# Indices 1 2 3 4 5 6 
#
# 1 0.100657 -0.006499 -0.002451 0.000000 0.000000 0.000000
# 2 -0.006499 0.007565 -0.004449 0.000000 0.000000 0.000000
# 3 -0.002451 -0.004449 0.008913 0.000000 0.000000 0.000000
# 4 0.000000 0.000000 0.000000 0.019218 0.000000 0.000000
# 5 0.000000 0.000000 0.000000 0.000000 0.103694 0.000000
# 6 0.000000 0.000000 0.000000 0.000000 0.000000 0.086967
#
#
# Mechanical properties :
#
#
# Convention : Reuss Voigt Hill
#
# Bulk Modulus (GPa) = 11.06951 74.00294 42.53622
# Shear Modulus (GPa) = 13.02340 31.62037 22.32188
#
# Velocity S-wave (km/s) = 2.42570 3.77971 3.17571
# Velocity P-wave (km/s) = 3.58422 7.24453 5.71532
#
# Compressibility (1/GPa) = 0.09033826
#
# Stress axis : x y z
#
# Youngs Moduli (GPa) = 9.93469 132.18935 112.19269
#
# Poissons Ratio (x) = 0.85904 0.27500
# Poissons Ratio (y) = 0.06456 0.49914
# Poissons Ratio (z) = 0.02435 0.58810
#
# Static dielectric constant tensor:
#      x y z
#    x 3.367690 0.000000 0.000000 
#    y 0.000000 4.304760 0.000000 
#    z 0.000000 0.000000 4.286520 
# 
# 
# High freq. dielectric constant tensor:
#      x y z
#    x 1.825880 0.000000 0.000000 
#    y 0.000000 1.886870 0.000000 
#    z 0.000000 0.000000 1.871170 
# 
# From -- ./inp_files/41867.got.cif
#   From: 2010.03.12/outbox.cif.g09.slc.cpg/sg69_21_cif.got.tgz:41867.got - 2010.04.10 23:52:46.
