data_PCOD8284122
_publ_section_title
;
Structure prediction by ZEFSAII (Michael W. Deem and Ramdas Pophale) SiO2 
 PCOD8284122
Probable space group: F M M M
;
_chemical_formula_sum "Si O2"
_cell_formula_units_Z 192
_cell_length_a 29.600194
_cell_length_b 28.460170
_cell_length_c 14.924839
_cell_angle_alpha 90.000000
_cell_angle_beta 90.000000
_cell_angle_gamma 90.000000
_cell_volume 12573.080677
_symmetry_space_group_name_H-M "F M M M"
_symmetry_group_IT_number 69
_symmetry_cell_setting 'orthorhombic'
loop_
_space_group_symop_operation_xyz
x,y,z
-x,-y,z
x,-y,-z
-x,y,-z
-x,-y,-z
x,y,-z
-x,y,z
x,-y,z
x,1/2+y,1/2+z
-x,1/2-y,1/2+z
x,1/2-y,1/2-z
-x,1/2+y,1/2-z
-x,1/2-y,1/2-z
x,1/2+y,1/2-z
-x,1/2+y,1/2+z
x,1/2-y,1/2+z
1/2+x,y,1/2+z
1/2-x,-y,1/2+z
1/2+x,-y,1/2-z
1/2-x,y,1/2-z
1/2-x,-y,1/2-z
1/2+x,y,1/2-z
1/2-x,y,1/2+z
1/2+x,-y,1/2+z
1/2+x,1/2+y,z
1/2-x,1/2-y,z
1/2+x,1/2-y,-z
1/2-x,1/2+y,-z
1/2-x,1/2-y,-z
1/2+x,1/2+y,-z
1/2-x,1/2+y,z
1/2+x,1/2-y,z
loop_
_atom_site_type_symbol
_atom_site_label
_atom_site_fract_x
_atom_site_fract_y
_atom_site_fract_z
Si Si1 0.664329 0.944445 0.500000
Si Si2 0.446397 0.687069 0.598743
Si Si3 0.446443 0.870255 0.733680
Si Si4 0.623819 0.944473 0.687977
Si Si5 0.707674 0.444211 0.306440
Si Si6 0.446518 0.708980 0.899348
Si Si7 0.734109 0.055994 0.000000
O O1 0.638106 0.927824 0.588695
O O2 0.714948 0.923680 0.500000
O O3 0.668384 0.000000 0.500000
O O4 0.428184 0.673293 0.500000
O O5 0.500000 0.690516 0.597123
O O6 0.431310 0.647087 0.667893
O O7 0.428178 0.738977 0.626639
O O8 0.500000 0.877898 0.725211
O O9 0.423050 0.919730 0.713382
O O10 0.427187 0.830740 0.666135
O O11 0.661628 0.927834 0.759047
O O12 0.615586 0.000000 0.692213
O O13 0.710788 0.500000 0.305162
O O14 0.750000 0.423792 0.250000
O O15 0.709097 0.425855 0.409581
O O16 0.500000 0.708833 0.890208
O O17 0.431432 0.696357 0.000000
O O18 0.735203 0.000000 0.000000
#
# Coordination Sequence:
#
# PCOD8284122 Si02
#       7
#    16  32  32  32  32  32  16
#     4   9  16  28  45  62  83 112 144 176 223 271
#     4   8  14  27  46  64  81 104 138 184 236 275
#     4  10  19  29  43  61  87 124 158 181 205 245
#     4  10  20  31  42  61  89 122 154 182 208 245
#     4   9  15  26  44  64  83 104 138 182 229 270
#     4   8  14  25  43  66  86 103 133 182 233 271
#     4   9  14  24  46  67  79 100 133 179 239 283
#
# _framework density 15.270720000000001
#
# number of rings (size 3 to 8) (size 9 to 14) (size 15 to 20)
#    0.000    3.000    1.667    1.500    1.167    2.333 
#    1.500    0.000    0.000    1.500    0.000    2.333 
#    0.000    2.667    0.000    9.667    0.000    1.000 
#
# Total GULP energy -594824.311027 kJ/mol
# GULP energy per Si atom -12392.173146 kJ/mol
# Density = 1.523596 g / cm^3
# Si number density = 15.270720 Si / 1000 Ang^3
#
#
#
# Elastic Constant Matrix: (Units=GPa)
#
#
# Indices 1 2 3 4 5 6 
#
# 1 56.3055 32.1930 44.4098 0.0000 0.0000 0.0000
# 2 32.1930 49.0817 40.8487 0.0000 0.0000 0.0000
# 3 44.4098 40.8487 131.4639 0.0000 0.0000 0.0000
# 4 0.0000 0.0000 0.0000 14.4994 0.0000 0.0000
# 5 0.0000 0.0000 0.0000 0.0000 17.8749 0.0000
# 6 0.0000 0.0000 0.0000 0.0000 0.0000 2.6961
#
#
#
# Elastic Compliance Matrix: (Units=1/GPa)
#
#
# Indices 1 2 3 4 5 6 
#
# 1 0.031244 -0.015793 -0.005647 0.000000 0.000000 0.000000
# 2 -0.015793 0.035464 -0.005684 0.000000 0.000000 0.000000
# 3 -0.005647 -0.005684 0.011281 0.000000 0.000000 0.000000
# 4 0.000000 0.000000 0.000000 0.068968 0.000000 0.000000
# 5 0.000000 0.000000 0.000000 0.000000 0.055944 0.000000
# 6 0.000000 0.000000 0.000000 0.000000 0.000000 0.370905
#
#
# Mechanical properties :
#
#
# Convention : Reuss Voigt Hill
#
# Bulk Modulus (GPa) = 42.12473 52.41714 47.27094
# Shear Modulus (GPa) = 7.86202 14.97405 11.41803
#
# Velocity S-wave (km/s) = 2.27148 3.13481 2.73739
# Velocity P-wave (km/s) = 5.87577 6.89220 6.40418
#
# Compressibility (1/GPa) = 0.02373902
#
# Stress axis : x y z
#
# Youngs Moduli (GPa) = 32.00575 28.19765 88.64777
#
# Poissons Ratio (x) = 0.44534 0.50062
# Poissons Ratio (y) = 0.50548 0.50390
# Poissons Ratio (z) = 0.18075 0.16028
#
# Static dielectric constant tensor:
#      x y z
#    x 2.576480 0.000000 0.000000 
#    y 0.000000 2.634000 0.000000 
#    z 0.000000 0.000000 3.425610 
# 
# 
# High freq. dielectric constant tensor:
#      x y z
#    x 1.541720 0.000000 0.000000 
#    y 0.000000 1.542870 0.000000 
#    z 0.000000 0.000000 1.608270 
# 
# From -- ./inp_files/19914.got.cif
#   From: 2010.03.12/outbox.cif.g09.slc.cpg/sg69_10_cif.got.tgz:19914.got - 2010.04.10 23:52:46.
