data_PCOD8284964
_publ_section_title
;
Structure prediction by ZEFSAII (Michael W. Deem and Ramdas Pophale) SiO2 
 PCOD8284964
Probable space group: F M M M
;
_chemical_formula_sum "Si O2"
_cell_formula_units_Z 192
_cell_length_a 24.714188
_cell_length_b 23.408791
_cell_length_c 18.182552
_cell_angle_alpha 90.000000
_cell_angle_beta 90.000000
_cell_angle_gamma 90.000000
_cell_volume 10519.138383
_symmetry_space_group_name_H-M "F M M M"
_symmetry_group_IT_number 69
_symmetry_cell_setting 'orthorhombic'
loop_
_space_group_symop_operation_xyz
x,y,z
-x,-y,z
x,-y,-z
-x,y,-z
-x,-y,-z
x,y,-z
-x,y,z
x,-y,z
x,1/2+y,1/2+z
-x,1/2-y,1/2+z
x,1/2-y,1/2-z
-x,1/2+y,1/2-z
-x,1/2-y,1/2-z
x,1/2+y,1/2-z
-x,1/2+y,1/2+z
x,1/2-y,1/2+z
1/2+x,y,1/2+z
1/2-x,-y,1/2+z
1/2+x,-y,1/2-z
1/2-x,y,1/2-z
1/2-x,-y,1/2-z
1/2+x,y,1/2-z
1/2-x,y,1/2+z
1/2+x,-y,1/2+z
1/2+x,1/2+y,z
1/2-x,1/2-y,z
1/2+x,1/2-y,-z
1/2-x,1/2+y,-z
1/2-x,1/2-y,-z
1/2+x,1/2+y,-z
1/2-x,1/2+y,z
1/2+x,1/2-y,z
loop_
_atom_site_type_symbol
_atom_site_label
_atom_site_fract_x
_atom_site_fract_y
_atom_site_fract_z
Si Si1 0.681667 0.500000 0.173599
Si Si2 0.658194 0.119953 0.148711
Si Si3 0.937924 0.286746 0.679905
Si Si4 0.697966 0.000000 0.845680
Si Si5 0.653792 0.124272 0.319244
Si Si6 0.255187 0.684751 0.085063
Si Si7 0.438145 0.318735 0.584055
O O1 0.694969 0.500000 0.258688
O O2 0.738888 0.500000 0.129792
O O3 0.648157 0.442120 0.154578
O O4 0.672043 0.127376 0.234501
O O5 0.696483 0.158927 0.099462
O O6 0.596494 0.137732 0.133248
O O7 0.667304 0.055051 0.122407
O O8 0.917884 0.250000 0.750000
O O9 0.903136 0.343952 0.669028
O O10 0.930242 0.246886 0.608719
O O11 0.000000 0.305950 0.690855
O O12 0.700011 0.154266 0.366045
O O13 0.250000 0.750000 0.109059
O O14 0.271434 0.678147 0.000000
O O15 0.419744 0.322718 0.500000
O O16 0.500000 0.337634 0.595460
#
# Coordination Sequence:
#
# PCOD8284964 Si02
#       7
#    16  32  32  16  32  32  32
#     4   9  18  36  53  79 113 147 189 236 282 326
#     4  11  20  36  58  80 108 149 194 230 276 337
#     4  10  20  36  58  86 113 143 188 232 274 335
#     4   9  18  34  55  78 107 148 190 234 271 326
#     4  11  21  35  59  82 109 150 190 237 283 334
#     4  11  24  36  50  79 117 146 181 238 294 345
#     4  10  21  37  58  85 118 150 180 227 288 339
#
# _framework density 18.252445999999999
#
# number of rings (size 3 to 8) (size 9 to 14) (size 15 to 20)
#    0.000    1.667    3.333    2.000    0.000    2.667 
#    0.000    3.750    0.000    4.000    0.000    0.000 
#    0.000    4.000    0.000    0.000    0.000    0.000 
#
# Total GULP energy -595238.285999 kJ/mol
# GULP energy per Si atom -12400.797625 kJ/mol
# Density = 1.821090 g / cm^3
# Si number density = 18.252446 Si / 1000 Ang^3
#
#
#
# Elastic Constant Matrix: (Units=GPa)
#
#
# Indices 1 2 3 4 5 6 
#
# 1 102.2911 73.1499 27.3516 0.0000 0.0000 0.0000
# 2 73.1499 165.1521 40.0081 0.0000 0.0000 0.0000
# 3 27.3516 40.0081 70.7665 0.0000 0.0000 0.0000
# 4 0.0000 0.0000 0.0000 290.4406 0.0000 0.0000
# 5 0.0000 0.0000 0.0000 0.0000 25.6535 0.0000
# 6 0.0000 0.0000 0.0000 0.0000 0.0000 21.4629
#
#
#
# Elastic Compliance Matrix: (Units=1/GPa)
#
#
# Indices 1 2 3 4 5 6 
#
# 1 0.014626 -0.005919 -0.002306 0.000000 0.000000 0.000000
# 2 -0.005919 0.009412 -0.003033 0.000000 0.000000 0.000000
# 3 -0.002306 -0.003033 0.016737 0.000000 0.000000 0.000000
# 4 0.000000 0.000000 0.000000 0.003443 0.000000 0.000000
# 5 0.000000 0.000000 0.000000 0.000000 0.038981 0.000000
# 6 0.000000 0.000000 0.000000 0.000000 0.000000 0.046592
#
#
# Mechanical properties :
#
#
# Convention : Reuss Voigt Hill
#
# Bulk Modulus (GPa) = 54.77367 68.80321 61.78844
# Shear Modulus (GPa) = 31.56688 80.69140 56.12914
#
# Velocity S-wave (km/s) = 4.16319 6.65616 5.55143
# Velocity P-wave (km/s) = 7.29271 9.84123 8.66122
#
# Compressibility (1/GPa) = 0.01825695
#
# Stress axis : x y z
#
# Youngs Moduli (GPa) = 68.37241 106.25165 59.74734
#
# Poissons Ratio (x) = 0.62895 0.13780
# Poissons Ratio (y) = 0.40472 0.18121
# Poissons Ratio (z) = 0.15769 0.32226
#
# Static dielectric constant tensor:
#      x y z
#    x 3.354340 0.000000 0.000000 
#    y 0.000000 3.664820 0.000000 
#    z 0.000000 0.000000 3.286350 
# 
# 
# High freq. dielectric constant tensor:
#      x y z
#    x 1.702230 0.000000 0.000000 
#    y 0.000000 1.708260 0.000000 
#    z 0.000000 0.000000 1.697610 
# 
# From -- ./inp_files/32925.got.cif
#   From: 2010.03.12/outbox.cif.g09.slc.cpg/sg69_17_cif.got.tgz:32925.got - 2010.04.10 23:52:46.
