data_PCOD8284052
_publ_section_title
;
Structure prediction by ZEFSAII (Michael W. Deem and Ramdas Pophale) SiO2 
 PCOD8284052
Probable space group: F M M M
;
_chemical_formula_sum "Si O2"
_cell_formula_units_Z 240
_cell_length_a 20.579079
_cell_length_b 21.039486
_cell_length_c 27.137496
_cell_angle_alpha 90.000000
_cell_angle_beta 90.000000
_cell_angle_gamma 90.000000
_cell_volume 11749.809691
_symmetry_space_group_name_H-M "F M M M"
_symmetry_group_IT_number 69
_symmetry_cell_setting 'orthorhombic'
loop_
_space_group_symop_operation_xyz
x,y,z
-x,-y,z
x,-y,-z
-x,y,-z
-x,-y,-z
x,y,-z
-x,y,z
x,-y,z
x,1/2+y,1/2+z
-x,1/2-y,1/2+z
x,1/2-y,1/2-z
-x,1/2+y,1/2-z
-x,1/2-y,1/2-z
x,1/2+y,1/2-z
-x,1/2+y,1/2+z
x,1/2-y,1/2+z
1/2+x,y,1/2+z
1/2-x,-y,1/2+z
1/2+x,-y,1/2-z
1/2-x,y,1/2-z
1/2-x,-y,1/2-z
1/2+x,y,1/2-z
1/2-x,y,1/2+z
1/2+x,-y,1/2+z
1/2+x,1/2+y,z
1/2-x,1/2-y,z
1/2+x,1/2-y,-z
1/2-x,1/2+y,-z
1/2-x,1/2-y,-z
1/2+x,1/2+y,-z
1/2-x,1/2+y,z
1/2+x,1/2-y,z
loop_
_atom_site_type_symbol
_atom_site_label
_atom_site_fract_x
_atom_site_fract_y
_atom_site_fract_z
Si Si1 0.680579 0.424852 0.224259
Si Si2 0.719473 0.070289 0.383950
Si Si3 0.323909 0.750009 0.554841
Si Si4 0.334870 0.890652 0.055396
Si Si5 0.405434 0.570519 0.944238
Si Si6 0.068280 0.183850 0.884384
Si Si7 0.925128 0.179648 0.230920
Si Si8 0.928900 0.500000 0.941897
O O1 0.660150 0.500000 0.229624
O O2 0.750000 0.412680 0.250000
O O3 0.688316 0.404444 0.166899
O O4 0.624936 0.377466 0.247647
O O5 0.778534 0.111850 0.403942
O O6 0.669528 0.069729 0.428735
O O7 0.747040 0.000000 0.373574
O O8 0.323906 0.780073 0.500000
O O9 0.250000 0.750000 0.574682
O O10 0.358760 0.681575 0.553303
O O11 0.366654 0.791748 0.590664
O O12 0.391484 0.936557 0.075114
O O13 0.312438 0.912348 0.000000
O O14 0.435051 0.500000 0.940793
O O15 0.444681 0.613836 0.906191
O O16 0.411639 0.596621 0.000000
O O17 0.079653 0.182147 0.827131
O O18 0.000000 0.221663 0.895039
O O19 0.903794 0.250000 0.250000
O O20 0.000000 0.164429 0.247923
O O21 0.000000 0.500000 0.916749
O O22 0.936913 0.500000 0.000000
#
# Coordination Sequence:
#
# PCOD8284052 Si02
#       8
#    32  32  32  32  32  32  32  16
#     4  10  22  40  64  98 129 157 202 262 327 390
#     4  10  18  32  56  87 122 156 192 244 305 364
#     4  10  22  37  54  81 120 164 208 251 301 366
#     4  10  19  32  53  80 112 156 203 249 302 360
#     4  10  20  33  55  90 130 169 206 243 292 369
#     4  11  23  40  61  85 119 163 208 258 314 370
#     4  10  23  44  67  93 123 162 215 266 321 394
#     4   9  18  32  50  76 109 148 203 261 304 351
#
# _framework density 20.425863
#
# number of rings (size 3 to 8) (size 9 to 14) (size 15 to 20)
#    0.000    1.933    2.000    1.600    0.000    5.067 
#    0.000    3.333    0.000    0.800    0.000    0.000 
#    0.000    0.000    0.000    0.000    0.000    0.000 
#
# Total GULP energy -743289.360495 kJ/mol
# GULP energy per Si atom -12388.156008 kJ/mol
# Density = 2.037937 g / cm^3
# Si number density = 20.425863 Si / 1000 Ang^3
#
#
#
# Elastic Constant Matrix: (Units=GPa)
#
#
# Indices 1 2 3 4 5 6 
#
# 1 134.1118 52.5407 22.3536 0.0000 0.0000 0.0000
# 2 52.5407 112.1495 32.7490 0.0000 0.0000 0.0000
# 3 22.3536 32.7490 78.9562 0.0000 0.0000 0.0000
# 4 0.0000 0.0000 0.0000 22.3588 0.0000 0.0000
# 5 0.0000 0.0000 0.0000 0.0000 29.2562 0.0000
# 6 0.0000 0.0000 0.0000 0.0000 0.0000 -24.5157
#
#
#
# Elastic Compliance Matrix: (Units=1/GPa)
#
#
# Indices 1 2 3 4 5 6 
#
# 1 0.009192 -0.004035 -0.000929 0.000000 0.000000 0.000000
# 2 -0.004035 0.011917 -0.003800 0.000000 0.000000 0.000000
# 3 -0.000929 -0.003800 0.014504 0.000000 0.000000 0.000000
# 4 0.000000 0.000000 0.000000 0.044725 0.000000 0.000000
# 5 0.000000 0.000000 0.000000 0.000000 0.034181 0.000000
# 6 0.000000 0.000000 0.000000 0.000000 0.000000 -0.040790
#
#
# Mechanical properties :
#
#
# Convention : Reuss Voigt Hill
#
# Bulk Modulus (GPa) = 55.29486 60.05600 57.67543
# Shear Modulus (GPa) = 51.39477 19.92480 35.65979
#
# Velocity S-wave (km/s) = 5.02158 3.12664 4.18283
# Velocity P-wave (km/s) = 7.79432 6.51922 7.18511
#
# Compressibility (1/GPa) = 0.01808486
#
# Stress axis : x y z
#
# Youngs Moduli (GPa) = 108.78872 83.91459 68.94414
#
# Poissons Ratio (x) = 0.33861 0.06403
# Poissons Ratio (y) = 0.43898 0.26201
# Poissons Ratio (z) = 0.10103 0.31891
#
# Static dielectric constant tensor:
#      x y z
#    x 3.857290 0.000000 0.000000 
#    y 0.000000 3.914310 0.000000 
#    z 0.000000 0.000000 3.578890 
# 
# 
# High freq. dielectric constant tensor:
#      x y z
#    x 1.799310 0.000000 0.000000 
#    y 0.000000 1.798660 0.000000 
#    z 0.000000 0.000000 1.776690 
# 
# From -- ./inp_files/42833.got.cif
#   From: 2010.03.12/outbox.cif.g09.slc.cpg/sg69_22_cif.got.tgz:42833.got - 2010.04.10 23:52:46.
