data_PCOD8284574
_publ_section_title
;
Structure prediction by ZEFSAII (Michael W. Deem and Ramdas Pophale) SiO2 
 PCOD8284574
Probable space group: F M M M
;
_chemical_formula_sum "Si O2"
_cell_formula_units_Z 192
_cell_length_a 28.593788
_cell_length_b 16.269360
_cell_length_c 23.556230
_cell_angle_alpha 90.000000
_cell_angle_beta 90.000000
_cell_angle_gamma 90.000000
_cell_volume 10958.420166
_symmetry_space_group_name_H-M "F M M M"
_symmetry_group_IT_number 69
_symmetry_cell_setting 'orthorhombic'
loop_
_space_group_symop_operation_xyz
x,y,z
-x,-y,z
x,-y,-z
-x,y,-z
-x,-y,-z
x,y,-z
-x,y,z
x,-y,z
x,1/2+y,1/2+z
-x,1/2-y,1/2+z
x,1/2-y,1/2-z
-x,1/2+y,1/2-z
-x,1/2-y,1/2-z
x,1/2+y,1/2-z
-x,1/2+y,1/2+z
x,1/2-y,1/2+z
1/2+x,y,1/2+z
1/2-x,-y,1/2+z
1/2+x,-y,1/2-z
1/2-x,y,1/2-z
1/2-x,-y,1/2-z
1/2+x,y,1/2-z
1/2-x,y,1/2+z
1/2+x,-y,1/2+z
1/2+x,1/2+y,z
1/2-x,1/2-y,z
1/2+x,1/2-y,-z
1/2-x,1/2+y,-z
1/2-x,1/2-y,-z
1/2+x,1/2+y,-z
1/2-x,1/2+y,z
1/2+x,1/2-y,z
loop_
_atom_site_type_symbol
_atom_site_label
_atom_site_fract_x
_atom_site_fract_y
_atom_site_fract_z
Si Si1 0.392258 0.000000 0.434179
Si Si2 0.053766 0.343417 0.748619
Si Si3 0.327680 0.847016 0.566436
Si Si4 0.447240 0.095337 0.125553
Si Si5 0.769265 0.091617 0.432262
Si Si6 0.361961 0.676888 0.567278
Si Si7 0.444907 0.000000 0.321800
O O1 0.359995 0.076619 0.420114
O O2 0.410311 0.000000 0.500000
O O3 0.434804 0.000000 0.389513
O O4 0.076579 0.250000 0.750000
O O5 0.060649 0.383312 0.809533
O O6 0.075270 0.413801 0.705817
O O7 0.000000 0.331231 0.731345
O O8 0.321476 0.834048 0.500000
O O9 0.275192 0.857190 0.591725
O O10 0.353418 0.767831 0.592139
O O11 0.500000 0.118140 0.106719
O O12 0.411963 0.146582 0.087555
O O13 0.437224 0.000000 0.115525
O O14 0.769269 0.094292 0.500000
O O15 0.818631 0.123967 0.408608
O O16 0.762893 0.000000 0.409531
O O17 0.362920 0.674208 0.500000
O O18 0.500000 0.000000 0.311113
#
# Coordination Sequence:
#
# PCOD8284574 Si02
#       7
#    16  32  32  32  32  32  16
#     4  10  20  33  50  75 109 140 165 199 257 329
#     4   9  18  34  55  75  95 125 172 224 260 292
#     4   9  17  31  47  68 102 138 169 206 253 306
#     4  10  20  35  52  71 102 136 167 210 260 303
#     4   9  15  27  47  69  97 132 170 212 255 301
#     4  10  20  30  46  75 104 134 175 215 255 309
#     4  10  20  35  56  79 102 133 175 219 263 311
#
# _framework density 17.520772999999998
#
# number of rings (size 3 to 8) (size 9 to 14) (size 15 to 20)
#    0.000    2.500    1.667    1.000    2.333    3.500 
#    0.000    0.833    0.000    3.000    0.000    2.333 
#    0.000    0.000    0.000    0.000    0.000    0.000 
#
# Total GULP energy -594680.559021 kJ/mol
# GULP energy per Si atom -12389.178313 kJ/mol
# Density = 1.748090 g / cm^3
# Si number density = 17.520773 Si / 1000 Ang^3
#
#
#
# Elastic Constant Matrix: (Units=GPa)
#
#
# Indices 1 2 3 4 5 6 
#
# 1 88.0044 67.1965 27.7206 0.0000 0.0000 0.0000
# 2 67.1965 137.5810 36.2264 0.0000 0.0000 0.0000
# 3 27.7206 36.2264 39.3356 0.0000 0.0000 0.0000
# 4 0.0000 0.0000 0.0000 11.9300 0.0000 0.0000
# 5 0.0000 0.0000 0.0000 0.0000 2.7125 0.0000
# 6 0.0000 0.0000 0.0000 0.0000 0.0000 11.1608
#
#
#
# Elastic Compliance Matrix: (Units=1/GPa)
#
#
# Indices 1 2 3 4 5 6 
#
# 1 0.019301 -0.007717 -0.006495 0.000000 0.000000 0.000000
# 2 -0.007717 0.012680 -0.006240 0.000000 0.000000 0.000000
# 3 -0.006495 -0.006240 0.035746 0.000000 0.000000 0.000000
# 4 0.000000 0.000000 0.000000 0.083822 0.000000 0.000000
# 5 0.000000 0.000000 0.000000 0.000000 0.368667 0.000000
# 6 0.000000 0.000000 0.000000 0.000000 0.000000 0.089599
#
#
# Mechanical properties :
#
#
# Convention : Reuss Voigt Hill
#
# Bulk Modulus (GPa) = 37.27986 58.57868 47.92927
# Shear Modulus (GPa) = 7.57965 14.07917 10.82941
#
# Velocity S-wave (km/s) = 2.08218 2.83781 2.48884
# Velocity P-wave (km/s) = 5.20618 6.65161 5.97278
#
# Compressibility (1/GPa) = 0.02682414
#
# Stress axis : x y z
#
# Youngs Moduli (GPa) = 51.81044 78.86155 27.97489
#
# Poissons Ratio (x) = 0.60855 0.18170
# Poissons Ratio (y) = 0.39981 0.17456
# Poissons Ratio (z) = 0.33652 0.49210
#
# Static dielectric constant tensor:
#      x y z
#    x 3.222540 0.000000 0.000000 
#    y 0.000000 -13.469800 0.000000 
#    z 0.000000 0.000000 2.857590 
# 
# 
# High freq. dielectric constant tensor:
#      x y z
#    x 1.662030 0.000000 0.000000 
#    y 0.000000 1.703030 0.000000 
#    z 0.000000 0.000000 1.623950 
# 
# From -- ./inp_files/19906.got.cif
#   From: 2010.03.12/outbox.cif.g09.slc.cpg/sg69_10_cif.got.tgz:19906.got - 2010.04.10 23:52:46.
