data_PCOD8284752
_publ_section_title
;
Structure prediction by ZEFSAII (Michael W. Deem and Ramdas Pophale) SiO2 
 PCOD8284752
Probable space group: F M M M
;
_chemical_formula_sum "Si O2"
_cell_formula_units_Z 208
_cell_length_a 26.387062
_cell_length_b 26.951677
_cell_length_c 16.973478
_cell_angle_alpha 90.000000
_cell_angle_beta 90.000000
_cell_angle_gamma 90.000000
_cell_volume 12071.122926
_symmetry_space_group_name_H-M "F M M M"
_symmetry_group_IT_number 69
_symmetry_cell_setting 'orthorhombic'
loop_
_space_group_symop_operation_xyz
x,y,z
-x,-y,z
x,-y,-z
-x,y,-z
-x,-y,-z
x,y,-z
-x,y,z
x,-y,z
x,1/2+y,1/2+z
-x,1/2-y,1/2+z
x,1/2-y,1/2-z
-x,1/2+y,1/2-z
-x,1/2-y,1/2-z
x,1/2+y,1/2-z
-x,1/2+y,1/2+z
x,1/2-y,1/2+z
1/2+x,y,1/2+z
1/2-x,-y,1/2+z
1/2+x,-y,1/2-z
1/2-x,y,1/2-z
1/2-x,-y,1/2-z
1/2+x,y,1/2-z
1/2-x,y,1/2+z
1/2+x,-y,1/2+z
1/2+x,1/2+y,z
1/2-x,1/2-y,z
1/2+x,1/2-y,-z
1/2-x,1/2+y,-z
1/2-x,1/2-y,-z
1/2+x,1/2+y,-z
1/2-x,1/2+y,z
1/2+x,1/2-y,z
loop_
_atom_site_type_symbol
_atom_site_label
_atom_site_fract_x
_atom_site_fract_y
_atom_site_fract_z
Si Si1 0.440767 0.945078 0.189687
Si Si2 0.301896 0.777455 0.414069
Si Si3 0.128803 0.790442 0.312259
Si Si4 0.441741 0.558822 0.000000
Si Si5 0.940180 0.854799 0.411960
Si Si6 0.196736 0.862233 0.209954
Si Si7 0.379840 0.442207 0.845736
O O1 0.500000 0.940240 0.203892
O O2 0.422167 0.907859 0.121976
O O3 0.416705 0.932407 0.273143
O O4 0.425315 0.000000 0.160989
O O5 0.322717 0.793989 0.500000
O O6 0.250000 0.750000 0.424955
O O7 0.339176 0.737833 0.376944
O O8 0.292471 0.825136 0.360979
O O9 0.109164 0.750000 0.250000
O O10 0.079867 0.811837 0.355505
O O11 0.160909 0.834966 0.273353
O O12 0.410197 0.576749 0.076815
O O13 0.445578 0.500000 0.000000
O O14 0.500000 0.580107 0.000000
O O15 0.917771 0.849961 0.500000
O O16 0.000000 0.850256 0.413371
O O17 0.250000 0.877799 0.250000
O O18 0.170882 0.910750 0.171392
O O19 0.364474 0.500000 0.854354
#
# Coordination Sequence:
#
# PCOD8284752 Si02
#       7
#    32  32  32  16  32  32  32
#     4   9  17  31  52  78 105 135 176 221 264 315
#     4  10  20  34  56  81 102 129 175 229 278 314
#     4  10  20  35  55  77 104 138 175 226 273 319
#     4   9  18  34  58  86 113 142 180 232 282 327
#     4  10  20  34  53  78 107 140 178 216 265 327
#     4  11  21  35  54  79 111 140 180 225 264 316
#     4  10  20  34  55  81 111 147 180 215 271 335
#
# _framework density 17.231206
#
# number of rings (size 3 to 8) (size 9 to 14) (size 15 to 20)
#    0.000    2.077    3.077    0.923    1.077    2.769 
#    0.000    1.538    0.000    0.000    0.000    0.000 
#    0.000    0.000    0.000    0.000    0.000    0.000 
#
# Total GULP energy -644612.808099 kJ/mol
# GULP energy per Si atom -12396.400156 kJ/mol
# Density = 1.719199 g / cm^3
# Si number density = 17.231206 Si / 1000 Ang^3
#
#
#
# Elastic Constant Matrix: (Units=GPa)
#
#
# Indices 1 2 3 4 5 6 
#
# 1 56.8819 53.0839 56.1909 0.0000 0.0000 0.0000
# 2 53.0839 82.7663 53.6693 0.0000 0.0000 0.0000
# 3 56.1909 53.6693 135.4429 0.0000 0.0000 0.0000
# 4 0.0000 0.0000 0.0000 25.3157 0.0000 0.0000
# 5 0.0000 0.0000 0.0000 0.0000 28.0337 0.0000
# 6 0.0000 0.0000 0.0000 0.0000 0.0000 26.6516
#
#
#
# Elastic Compliance Matrix: (Units=1/GPa)
#
#
# Indices 1 2 3 4 5 6 
#
# 1 0.055167 -0.027645 -0.011933 0.000000 0.000000 0.000000
# 2 -0.027645 0.030113 -0.000463 0.000000 0.000000 0.000000
# 3 -0.011933 -0.000463 0.012517 0.000000 0.000000 0.000000
# 4 0.000000 0.000000 0.000000 0.039501 0.000000 0.000000
# 5 0.000000 0.000000 0.000000 0.000000 0.035671 0.000000
# 6 0.000000 0.000000 0.000000 0.000000 0.000000 0.037521
#
#
# Mechanical properties :
#
#
# Convention : Reuss Voigt Hill
#
# Bulk Modulus (GPa) = 56.44734 66.77550 61.61142
# Shear Modulus (GPa) = 16.86463 23.47668 20.17066
#
# Velocity S-wave (km/s) = 3.13185 3.69514 3.42510
# Velocity P-wave (km/s) = 6.77554 7.55263 7.17461
#
# Compressibility (1/GPa) = 0.01771563
#
# Stress axis : x y z
#
# Youngs Moduli (GPa) = 18.12679 33.20796 79.88904
#
# Poissons Ratio (x) = 0.91803 0.95330
# Poissons Ratio (y) = 0.50111 0.03703
# Poissons Ratio (z) = 0.21630 0.01539
#
# Static dielectric constant tensor:
#      x y z
#    x 3.039280 0.000000 0.000000 
#    y 0.000000 3.249380 0.000000 
#    z 0.000000 0.000000 3.656560 
# 
# 
# High freq. dielectric constant tensor:
#      x y z
#    x 1.651490 0.000000 0.000000 
#    y 0.000000 1.657700 0.000000 
#    z 0.000000 0.000000 1.680210 
# 
# From -- ./inp_files/25194.got.cif
#   From: 2010.03.12/outbox.cif.g09.slc.cpg/sg69_13_cif.got.tgz:25194.got - 2010.04.10 23:52:46.
