data_PCOD8284141
_publ_section_title
;
Structure prediction by ZEFSAII (Michael W. Deem and Ramdas Pophale) SiO2 
 PCOD8284141
Probable space group: F M M M
;
_chemical_formula_sum "Si O2"
_cell_formula_units_Z 192
_cell_length_a 28.241122
_cell_length_b 15.570622
_cell_length_c 26.761392
_cell_angle_alpha 90.000000
_cell_angle_beta 90.000000
_cell_angle_gamma 90.000000
_cell_volume 11767.836025
_symmetry_space_group_name_H-M "F M M M"
_symmetry_group_IT_number 69
_symmetry_cell_setting 'orthorhombic'
loop_
_space_group_symop_operation_xyz
x,y,z
-x,-y,z
x,-y,-z
-x,y,-z
-x,-y,-z
x,y,-z
-x,y,z
x,-y,z
x,1/2+y,1/2+z
-x,1/2-y,1/2+z
x,1/2-y,1/2-z
-x,1/2+y,1/2-z
-x,1/2-y,1/2-z
x,1/2+y,1/2-z
-x,1/2+y,1/2+z
x,1/2-y,1/2+z
1/2+x,y,1/2+z
1/2-x,-y,1/2+z
1/2+x,-y,1/2-z
1/2-x,y,1/2-z
1/2-x,-y,1/2-z
1/2+x,y,1/2-z
1/2-x,y,1/2+z
1/2+x,-y,1/2+z
1/2+x,1/2+y,z
1/2-x,1/2-y,z
1/2+x,1/2-y,-z
1/2-x,1/2+y,-z
1/2-x,1/2-y,-z
1/2+x,1/2+y,-z
1/2-x,1/2+y,z
1/2+x,1/2-y,z
loop_
_atom_site_type_symbol
_atom_site_label
_atom_site_fract_x
_atom_site_fract_y
_atom_site_fract_z
Si Si1 0.056097 0.404004 0.500000
Si Si2 0.555265 0.161042 0.606718
Si Si3 0.802934 0.748687 0.809370
Si Si4 0.632213 0.597289 0.180327
Si Si5 0.131177 0.097143 0.703841
Si Si6 0.945406 0.357643 0.870849
Si Si7 0.943872 0.500000 0.945320
O O1 0.076666 0.500000 0.500000
O O2 0.073772 0.357773 0.449466
O O3 0.000000 0.404073 0.500000
O O4 0.500000 0.135968 0.613107
O O5 0.585094 0.107248 0.647043
O O6 0.564644 0.260222 0.615784
O O7 0.800467 0.750000 0.750000
O O8 0.750000 0.750000 0.831968
O O9 0.828553 0.831526 0.834150
O O10 0.830394 0.660280 0.822032
O O11 0.651801 0.500000 0.172919
O O12 0.620654 0.614961 0.238158
O O13 0.080729 0.114259 0.679160
O O14 0.149236 0.000000 0.695138
O O15 0.926571 0.414887 0.916770
O O16 0.000000 0.376055 0.860235
O O17 0.000000 0.500000 0.950355
O O18 0.920201 0.500000 0.000000
#
# Coordination Sequence:
#
# PCOD8284141 Si02
#       7
#    16  32  32  32  32  32  16
#     4   9  18  32  48  65  92 125 161 204 242 274
#     4  10  20  32  48  70  98 131 165 200 237 281
#     4   9  18  33  50  69  96 126 158 201 249 291
#     4  10  20  32  49  72  99 128 164 199 237 288
#     4  10  19  32  49  71  99 131 162 198 238 289
#     4  10  19  30  46  69  99 133 164 195 235 283
#     4   9  18  30  46  68  98 131 164 201 237 274
#
# _framework density 16.315659
#
# number of rings (size 3 to 8) (size 9 to 14) (size 15 to 20)
#    0.000    2.333    2.500    0.500    1.167    2.333 
#    0.000    6.667    0.000    0.000    0.000    0.583 
#    0.000    0.000    0.000    0.000    0.000    0.000 
#
# Total GULP energy -595006.558695 kJ/mol
# GULP energy per Si atom -12395.969973 kJ/mol
# Density = 1.627852 g / cm^3
# Si number density = 16.315659 Si / 1000 Ang^3
#
#
#
# Elastic Constant Matrix: (Units=GPa)
#
#
# Indices 1 2 3 4 5 6 
#
# 1 72.5690 45.5965 42.5530 0.0000 0.0000 0.0000
# 2 45.5965 123.2110 41.0698 0.0000 0.0000 0.0000
# 3 42.5530 41.0698 77.2733 0.0000 0.0000 0.0000
# 4 0.0000 0.0000 0.0000 12.5272 0.0000 0.0000
# 5 0.0000 0.0000 0.0000 0.0000 3.6161 0.0000
# 6 0.0000 0.0000 0.0000 0.0000 0.0000 17.4188
#
#
#
# Elastic Compliance Matrix: (Units=1/GPa)
#
#
# Indices 1 2 3 4 5 6 
#
# 1 0.022765 -0.005160 -0.009794 0.000000 0.000000 0.000000
# 2 -0.005160 0.011033 -0.003022 0.000000 0.000000 0.000000
# 3 -0.009794 -0.003022 0.019941 0.000000 0.000000 0.000000
# 4 0.000000 0.000000 0.000000 0.079826 0.000000 0.000000
# 5 0.000000 0.000000 0.000000 0.000000 0.276539 0.000000
# 6 0.000000 0.000000 0.000000 0.000000 0.000000 0.057409
#
#
# Mechanical properties :
#
#
# Convention : Reuss Voigt Hill
#
# Bulk Modulus (GPa) = 56.22282 59.05466 57.63874
# Shear Modulus (GPa) = 9.81558 16.30137 13.05847
#
# Velocity S-wave (km/s) = 2.45542 3.16432 2.83214
# Velocity P-wave (km/s) = 6.52480 7.04445 6.78960
#
# Compressibility (1/GPa) = 0.01778637
#
# Stress axis : x y z
#
# Youngs Moduli (GPa) = 43.92705 90.63546 50.14865
#
# Poissons Ratio (x) = 0.46769 0.49114
# Poissons Ratio (y) = 0.22667 0.15157
# Poissons Ratio (z) = 0.43021 0.27394
#
# Static dielectric constant tensor:
#      x y z
#    x 2.952080 0.000000 0.000000 
#    y 0.000000 3.381450 0.000000 
#    z 0.000000 0.000000 3.073120 
# 
# 
# High freq. dielectric constant tensor:
#      x y z
#    x 1.592860 0.000000 0.000000 
#    y 0.000000 1.650220 0.000000 
#    z 0.000000 0.000000 1.608780 
# 
# From -- ./inp_files/38986.got.cif
#   From: 2010.03.12/outbox.cif.g09.slc.cpg/sg69_20_cif.got.tgz:38986.got - 2010.04.10 23:52:46.
