data_PCOD8284743
_publ_section_title
;
Structure prediction by ZEFSAII (Michael W. Deem and Ramdas Pophale) SiO2 
 PCOD8284743
Probable space group: F M M M
;
_chemical_formula_sum "Si O2"
_cell_formula_units_Z 208
_cell_length_a 21.450114
_cell_length_b 19.425815
_cell_length_c 26.485244
_cell_angle_alpha 90.000000
_cell_angle_beta 90.000000
_cell_angle_gamma 90.000000
_cell_volume 11036.028959
_symmetry_space_group_name_H-M "F M M M"
_symmetry_group_IT_number 69
_symmetry_cell_setting 'orthorhombic'
loop_
_space_group_symop_operation_xyz
x,y,z
-x,-y,z
x,-y,-z
-x,y,-z
-x,-y,-z
x,y,-z
-x,y,z
x,-y,z
x,1/2+y,1/2+z
-x,1/2-y,1/2+z
x,1/2-y,1/2-z
-x,1/2+y,1/2-z
-x,1/2-y,1/2-z
x,1/2+y,1/2-z
-x,1/2+y,1/2+z
x,1/2-y,1/2+z
1/2+x,y,1/2+z
1/2-x,-y,1/2+z
1/2+x,-y,1/2-z
1/2-x,y,1/2-z
1/2-x,-y,1/2-z
1/2+x,y,1/2-z
1/2-x,y,1/2+z
1/2+x,-y,1/2+z
1/2+x,1/2+y,z
1/2-x,1/2-y,z
1/2+x,1/2-y,-z
1/2-x,1/2+y,-z
1/2-x,1/2-y,-z
1/2+x,1/2+y,-z
1/2-x,1/2+y,z
1/2+x,1/2-y,z
loop_
_atom_site_type_symbol
_atom_site_label
_atom_site_fract_x
_atom_site_fract_y
_atom_site_fract_z
Si Si1 0.431889 0.812270 0.440885
Si Si2 0.708328 0.075560 0.110341
Si Si3 0.335646 0.077848 0.557986
Si Si4 0.397207 0.328095 0.395994
Si Si5 0.314973 0.077464 0.771851
Si Si6 0.572900 0.179081 0.779883
Si Si7 0.000000 0.581144 0.941948
O O1 0.438863 0.821140 0.500000
O O2 0.500000 0.816812 0.414963
O O3 0.389758 0.873811 0.419893
O O4 0.401906 0.739038 0.429748
O O5 0.778859 0.091027 0.095504
O O6 0.669896 0.140524 0.090457
O O7 0.696656 0.073145 0.169276
O O8 0.689505 0.000000 0.087546
O O9 0.317239 0.096173 0.500000
O O10 0.360109 0.000000 0.561260
O O11 0.411000 0.307772 0.338330
O O12 0.441332 0.389418 0.413053
O O13 0.250000 0.108910 0.750000
O O14 0.376831 0.122976 0.758801
O O15 0.326374 0.000000 0.750186
O O16 0.500000 0.154631 0.773936
O O17 0.583262 0.250000 0.750000
O O18 0.000000 0.500000 0.936434
O O19 0.000000 0.605175 0.000000
#
# Coordination Sequence:
#
# PCOD8284743 Si02
#       7
#    32  32  32  32  32  32  16
#     4  10  20  34  53  75 104 142 182 225 275 330
#     4   9  19  35  55  78 106 141 179 219 271 329
#     4   9  19  35  53  75 103 137 181 230 275 324
#     4  11  20  36  55  79 112 148 180 223 273 330
#     4   9  19  36  57  81 107 138 179 227 277 329
#     4  10  21  37  56  81 111 145 187 229 274 328
#     4  11  22  34  53  84 117 149 184 221 265 324
#
# _framework density 18.847359000000001
#
# number of rings (size 3 to 8) (size 9 to 14) (size 15 to 20)
#    0.000    2.231    1.538    0.923    0.000    4.615 
#    0.000    7.692    0.000    0.000    0.000    6.462 
#    0.000    0.000    0.000    0.000    0.000    0.000 
#
# Total GULP energy -644412.464025 kJ/mol
# GULP energy per Si atom -12392.547385 kJ/mol
# Density = 1.880446 g / cm^3
# Si number density = 18.847359 Si / 1000 Ang^3
#
#
#
# Elastic Constant Matrix: (Units=GPa)
#
#
# Indices 1 2 3 4 5 6 
#
# 1 142.9752 93.4649 16.1265 0.0000 0.0000 0.0000
# 2 93.4649 117.7659 22.0373 0.0000 0.0000 0.0000
# 3 16.1265 22.0373 26.4095 0.0000 0.0000 0.0000
# 4 0.0000 0.0000 0.0000 17.9919 0.0000 0.0000
# 5 0.0000 0.0000 0.0000 0.0000 27.8278 0.0000
# 6 0.0000 0.0000 0.0000 0.0000 0.0000 40.2070
#
#
#
# Elastic Compliance Matrix: (Units=1/GPa)
#
#
# Indices 1 2 3 4 5 6 
#
# 1 0.014553 -0.011717 0.000890 0.000000 0.000000 0.000000
# 2 -0.011717 0.019496 -0.009114 0.000000 0.000000 0.000000
# 3 0.000890 -0.009114 0.044926 0.000000 0.000000 0.000000
# 4 0.000000 0.000000 0.000000 0.055581 0.000000 0.000000
# 5 0.000000 0.000000 0.000000 0.000000 0.035935 0.000000
# 6 0.000000 0.000000 0.000000 0.000000 0.000000 0.024871
#
#
# Mechanical properties :
#
#
# Convention : Reuss Voigt Hill
#
# Bulk Modulus (GPa) = 25.57850 61.15643 43.36746
# Shear Modulus (GPa) = 20.13901 27.57345 23.85623
#
# Velocity S-wave (km/s) = 3.27239 3.82905 3.56161
# Velocity P-wave (km/s) = 5.28005 7.21579 6.32244
#
# Compressibility (1/GPa) = 0.03909533
#
# Stress axis : x y z
#
# Youngs Moduli (GPa) = 68.71335 51.29299 22.25868
#
# Poissons Ratio (x) = 0.60099 -0.01982
# Poissons Ratio (y) = 0.80510 0.20286
# Poissons Ratio (z) = -0.06118 0.46746
#
# Static dielectric constant tensor:
#      x y z
#    x 3.118700 0.000000 0.000000 
#    y 0.000000 3.643190 0.000000 
#    z 0.000000 0.000000 3.348680 
# 
# 
# High freq. dielectric constant tensor:
#      x y z
#    x 1.737870 0.000000 0.000000 
#    y 0.000000 1.736220 0.000000 
#    z 0.000000 0.000000 1.718310 
# 
# From -- ./inp_files/43287.got.cif
#   From: 2010.03.12/outbox.cif.g09.slc.cpg/sg69_22_cif.got.tgz:43287.got - 2010.04.10 23:52:46.
