data_PCOD8284543
_publ_section_title
;
Structure prediction by ZEFSAII (Michael W. Deem and Ramdas Pophale) SiO2 
 PCOD8284543
Probable space group: F M M M
;
_chemical_formula_sum "Si O2"
_cell_formula_units_Z 160
_cell_length_a 28.556740
_cell_length_b 18.076638
_cell_length_c 15.805757
_cell_angle_alpha 90.000000
_cell_angle_beta 90.000000
_cell_angle_gamma 90.000000
_cell_volume 8159.087473
_symmetry_space_group_name_H-M "F M M M"
_symmetry_group_IT_number 69
_symmetry_cell_setting 'orthorhombic'
loop_
_space_group_symop_operation_xyz
x,y,z
-x,-y,z
x,-y,-z
-x,y,-z
-x,-y,-z
x,y,-z
-x,y,z
x,-y,z
x,1/2+y,1/2+z
-x,1/2-y,1/2+z
x,1/2-y,1/2-z
-x,1/2+y,1/2-z
-x,1/2-y,1/2-z
x,1/2+y,1/2-z
-x,1/2+y,1/2+z
x,1/2-y,1/2+z
1/2+x,y,1/2+z
1/2-x,-y,1/2+z
1/2+x,-y,1/2-z
1/2-x,y,1/2-z
1/2-x,-y,1/2-z
1/2+x,y,1/2-z
1/2-x,y,1/2+z
1/2+x,-y,1/2+z
1/2+x,1/2+y,z
1/2-x,1/2-y,z
1/2+x,1/2-y,-z
1/2-x,1/2+y,-z
1/2-x,1/2-y,-z
1/2+x,1/2+y,-z
1/2-x,1/2+y,z
1/2+x,1/2-y,z
loop_
_atom_site_type_symbol
_atom_site_label
_atom_site_fract_x
_atom_site_fract_y
_atom_site_fract_z
Si Si1 0.848443 0.333583 0.659677
Si Si2 0.861621 0.085140 0.500000
Si Si3 0.233436 0.916063 0.097113
Si Si4 0.052493 0.718471 0.344428
Si Si5 0.317412 0.831534 0.845866
Si Si6 0.551449 0.172469 0.000000
O O1 0.821533 0.395125 0.604790
O O2 0.904459 0.338498 0.641028
O O3 0.825566 0.254636 0.634601
O O4 0.840761 0.351941 0.757486
O O5 0.841151 0.119349 0.583910
O O6 0.916783 0.100227 0.500000
O O7 0.849702 0.000000 0.500000
O O8 0.262728 0.856565 0.153231
O O9 0.240968 0.000000 0.129668
O O10 0.249554 0.909878 0.000000
O O11 0.058150 0.750000 0.250000
O O12 0.060109 0.780836 0.414839
O O13 0.000000 0.683013 0.354807
O O14 0.500000 0.139532 0.000000
#
# Coordination Sequence:
#
# PCOD8284543 Si02
#       6
#    32  16  32  32  32  16
#     4  11  22  38  62  90 115 156 204 252 296 349
#     4  12  22  35  60  86 125 167 201 248 305 366
#     4  11  25  40  57  85 122 163 200 245 304 361
#     4  10  19  36  60  89 122 153 196 256 309 358
#     4  11  22  39  58  88 118 155 204 246 296 353
#     4  10  20  35  57  85 122 165 201 248 315 366
#
# _framework density 19.610036999999998
#
# number of rings (size 3 to 8) (size 9 to 14) (size 15 to 20)
#    0.000    1.200    5.000    1.800    2.800    5.000 
#    0.000    0.000    0.000    0.600    0.000    1.400 
#    0.000    0.000    0.000    0.000    0.000    0.000 
#
# Total GULP energy -495788.991341 kJ/mol
# GULP energy per Si atom -12394.724784 kJ/mol
# Density = 1.956540 g / cm^3
# Si number density = 19.610037 Si / 1000 Ang^3
#
#
#
# Elastic Constant Matrix: (Units=GPa)
#
#
# Indices 1 2 3 4 5 6 
#
# 1 155.7159 45.4915 14.8302 0.0000 0.0000 0.0000
# 2 45.4915 80.9597 50.4158 0.0000 0.0000 0.0000
# 3 14.8302 50.4158 85.7179 0.0000 0.0000 0.0000
# 4 0.0000 0.0000 0.0000 56.1507 0.0000 0.0000
# 5 0.0000 0.0000 0.0000 0.0000 37.3645 0.0000
# 6 0.0000 0.0000 0.0000 0.0000 0.0000 14.8129
#
#
#
# Elastic Compliance Matrix: (Units=1/GPa)
#
#
# Indices 1 2 3 4 5 6 
#
# 1 0.007886 -0.005652 0.001960 0.000000 0.000000 0.000000
# 2 -0.005652 0.023541 -0.012868 0.000000 0.000000 0.000000
# 3 0.001960 -0.012868 0.018896 0.000000 0.000000 0.000000
# 4 0.000000 0.000000 0.000000 0.017809 0.000000 0.000000
# 5 0.000000 0.000000 0.000000 0.000000 0.026763 0.000000
# 6 0.000000 0.000000 0.000000 0.000000 0.000000 0.067509
#
#
# Mechanical properties :
#
#
# Convention : Reuss Voigt Hill
#
# Bulk Modulus (GPa) = 58.13022 60.42984 59.28003
# Shear Modulus (GPa) = 24.84370 35.77602 30.30986
#
# Velocity S-wave (km/s) = 3.56320 4.27590 3.93571
# Velocity P-wave (km/s) = 6.82905 7.43374 7.13780
#
# Compressibility (1/GPa) = 0.01720276
#
# Stress axis : x y z
#
# Youngs Moduli (GPa) = 126.79982 42.47939 52.92252
#
# Poissons Ratio (x) = 0.24008 -0.10371
# Poissons Ratio (y) = 0.71665 0.68100
# Poissons Ratio (z) = -0.24849 0.54662
#
# Static dielectric constant tensor:
#      x y z
#    x 4.211160 0.000000 0.000000 
#    y 0.000000 3.328280 0.000000 
#    z 0.000000 0.000000 3.722480 
# 
# 
# High freq. dielectric constant tensor:
#      x y z
#    x 1.784220 0.000000 0.000000 
#    y 0.000000 1.718480 0.000000 
#    z 0.000000 0.000000 1.779060 
# 
# From -- ./inp_files/19579.got.cif
#   From: 2010.03.12/outbox.cif.g09.slc.cpg/sg69_10_cif.got.tgz:19579.got - 2010.04.10 23:52:46.
