data_PCOD8284717
_publ_section_title
;
Structure prediction by ZEFSAII (Michael W. Deem and Ramdas Pophale) SiO2 
 PCOD8284717
Probable space group: F M M M
;
_chemical_formula_sum "Si O2"
_cell_formula_units_Z 144
_cell_length_a 20.594422
_cell_length_b 21.571023
_cell_length_c 18.447093
_cell_angle_alpha 90.000000
_cell_angle_beta 90.000000
_cell_angle_gamma 90.000000
_cell_volume 8194.987336
_symmetry_space_group_name_H-M "F M M M"
_symmetry_group_IT_number 69
_symmetry_cell_setting 'orthorhombic'
loop_
_space_group_symop_operation_xyz
x,y,z
-x,-y,z
x,-y,-z
-x,y,-z
-x,-y,-z
x,y,-z
-x,y,z
x,-y,z
x,1/2+y,1/2+z
-x,1/2-y,1/2+z
x,1/2-y,1/2-z
-x,1/2+y,1/2-z
-x,1/2-y,1/2-z
x,1/2+y,1/2-z
-x,1/2+y,1/2+z
x,1/2-y,1/2+z
1/2+x,y,1/2+z
1/2-x,-y,1/2+z
1/2+x,-y,1/2-z
1/2-x,y,1/2-z
1/2-x,-y,1/2-z
1/2+x,y,1/2-z
1/2-x,y,1/2+z
1/2+x,-y,1/2+z
1/2+x,1/2+y,z
1/2-x,1/2-y,z
1/2+x,1/2-y,-z
1/2-x,1/2+y,-z
1/2-x,1/2-y,-z
1/2+x,1/2+y,-z
1/2-x,1/2+y,z
1/2+x,1/2-y,z
loop_
_atom_site_type_symbol
_atom_site_label
_atom_site_fract_x
_atom_site_fract_y
_atom_site_fract_z
Si Si1 0.820784 0.928265 0.226873
Si Si2 0.923019 0.500000 0.079159
Si Si3 0.380228 0.429496 0.081238
Si Si4 0.500000 0.150537 0.585396
Si Si5 0.500000 0.791530 0.087538
Si Si6 0.427747 0.113547 0.172556
O O1 0.750000 0.905118 0.250000
O O2 0.822511 0.921956 0.139330
O O3 0.875343 0.882980 0.262611
O O4 0.833307 0.000000 0.249744
O O5 0.899331 0.560930 0.120184
O O6 0.000000 0.500000 0.071847
O O7 0.890408 0.500000 0.000000
O O8 0.406386 0.500000 0.080323
O O9 0.436716 0.385555 0.111944
O O10 0.356649 0.410600 0.000000
O O11 0.500000 0.150704 0.500000
O O12 0.500000 0.220768 0.614172
O O13 0.564138 0.823951 0.123470
O O14 0.500000 0.799359 0.000000
O O15 0.500000 0.096087 0.203931
#
# Coordination Sequence:
#
# PCOD8284717 Si02
#       6
#    32  16  32  16  16  32
#     4  10  20  34  51  74 109 138 165 212 265 305
#     4   9  14  24  43  68 101 129 165 204 237 291
#     4   9  18  33  54  76  99 129 172 215 258 310
#     4   9  17  31  52  79 104 132 168 217 264 294
#     4   9  18  31  50  77 110 135 168 214 255 308
#     4   9  18  29  48  75 101 132 172 202 256 301
#
# _framework density 17.571718000000001
#
# number of rings (size 3 to 8) (size 9 to 14) (size 15 to 20)
#    0.667    2.111    1.111    1.000    1.556    1.333 
#    0.000    4.444    0.000    2.667    0.000    4.667 
#    0.000    0.000    0.000    0.000    0.000    0.000 
#
# Total GULP energy -445970.960738 kJ/mol
# GULP energy per Si atom -12388.082243 kJ/mol
# Density = 1.753172 g / cm^3
# Si number density = 17.571718 Si / 1000 Ang^3
#
#
#
# Elastic Constant Matrix: (Units=GPa)
#
#
# Indices 1 2 3 4 5 6 
#
# 1 92.0106 29.8990 57.9400 0.0000 0.0000 0.0000
# 2 29.8990 84.5509 33.1445 0.0000 0.0000 0.0000
# 3 57.9400 33.1445 109.3151 0.0000 0.0000 0.0000
# 4 0.0000 0.0000 0.0000 13.9634 0.0000 0.0000
# 5 0.0000 0.0000 0.0000 0.0000 23.3110 0.0000
# 6 0.0000 0.0000 0.0000 0.0000 0.0000 -0.5990
#
#
#
# Elastic Compliance Matrix: (Units=1/GPa)
#
#
# Indices 1 2 3 4 5 6 
#
# 1 0.016875 -0.002793 -0.008097 0.000000 0.000000 0.000000
# 2 -0.002793 0.013885 -0.002729 0.000000 0.000000 0.000000
# 3 -0.008097 -0.002729 0.014267 0.000000 0.000000 0.000000
# 4 0.000000 0.000000 0.000000 0.071616 0.000000 0.000000
# 5 0.000000 0.000000 0.000000 0.000000 0.042898 0.000000
# 6 0.000000 0.000000 0.000000 0.000000 0.000000 -1.669472
#
#
# Mechanical properties :
#
#
# Convention : Reuss Voigt Hill
#
# Bulk Modulus (GPa) = 56.22012 58.64929 57.43470
# Shear Modulus (GPa) = -3.38578 18.32795 7.47108
#
# Velocity S-wave (km/s) = -1.38961 3.23311 2.06422
# Velocity P-wave (km/s) = 5.43042 6.88381 6.19985
#
# Compressibility (1/GPa) = 0.01778723
#
# Stress axis : x y z
#
# Youngs Moduli (GPa) = 59.25969 72.02081 70.09074
#
# Poissons Ratio (x) = 0.20116 0.56754
# Poissons Ratio (y) = 0.16552 0.19131
# Poissons Ratio (z) = 0.47984 0.19658
#
# Static dielectric constant tensor:
#      x y z
#    x 2.879190 0.000000 0.000000 
#    y 0.000000 3.247210 0.000000 
#    z 0.000000 0.000000 3.343890 
# 
# 
# High freq. dielectric constant tensor:
#      x y z
#    x 1.635330 0.000000 0.000000 
#    y 0.000000 1.653980 0.000000 
#    z 0.000000 0.000000 1.690650 
# 
# From -- ./inp_files/24822.got.cif
#   From: 2010.03.12/outbox.cif.g09.slc.cpg/sg69_13_cif.got.tgz:24822.got - 2010.04.10 23:52:46.
