data_PCOD8284980
_publ_section_title
;
Structure prediction by ZEFSAII (Michael W. Deem and Ramdas Pophale) SiO2 
 PCOD8284980
Probable space group: F M M M
;
_chemical_formula_sum "Si O2"
_cell_formula_units_Z 192
_cell_length_a 16.793044
_cell_length_b 19.860037
_cell_length_c 27.889913
_cell_angle_alpha 90.000000
_cell_angle_beta 90.000000
_cell_angle_gamma 90.000000
_cell_volume 9301.578137
_symmetry_space_group_name_H-M "F M M M"
_symmetry_group_IT_number 69
_symmetry_cell_setting 'orthorhombic'
loop_
_space_group_symop_operation_xyz
x,y,z
-x,-y,z
x,-y,-z
-x,y,-z
-x,-y,-z
x,y,-z
-x,y,z
x,-y,z
x,1/2+y,1/2+z
-x,1/2-y,1/2+z
x,1/2-y,1/2-z
-x,1/2+y,1/2-z
-x,1/2-y,1/2-z
x,1/2+y,1/2-z
-x,1/2+y,1/2+z
x,1/2-y,1/2+z
1/2+x,y,1/2+z
1/2-x,-y,1/2+z
1/2+x,-y,1/2-z
1/2-x,y,1/2-z
1/2-x,-y,1/2-z
1/2+x,y,1/2-z
1/2-x,y,1/2+z
1/2+x,-y,1/2+z
1/2+x,1/2+y,z
1/2-x,1/2-y,z
1/2+x,1/2-y,-z
1/2-x,1/2+y,-z
1/2-x,1/2-y,-z
1/2+x,1/2+y,-z
1/2-x,1/2+y,z
1/2+x,1/2-y,z
loop_
_atom_site_type_symbol
_atom_site_label
_atom_site_fract_x
_atom_site_fract_y
_atom_site_fract_z
Si Si1 0.407312 0.707563 0.139604
Si Si2 0.663674 0.672661 0.236403
Si Si3 0.174120 0.134691 0.943617
Si Si4 0.667380 0.578322 0.407652
Si Si5 0.588958 0.639529 0.328092
Si Si6 0.500000 0.579870 0.447108
Si Si7 0.411945 0.000000 0.556748
O O1 0.500000 0.686489 0.136836
O O2 0.362545 0.663573 0.180963
O O3 0.363759 0.693764 0.088630
O O4 0.398069 0.785664 0.151286
O O5 0.663820 0.750000 0.250000
O O6 0.750000 0.641882 0.250000
O O7 0.599113 0.636803 0.270721
O O8 0.267661 0.124835 0.933539
O O9 0.132985 0.066174 0.925536
O O10 0.160205 0.150546 0.000000
O O11 0.682936 0.500000 0.420111
O O12 0.658701 0.591952 0.350712
O O13 0.581255 0.606674 0.424043
O O14 0.500000 0.612862 0.339925
O O15 0.500000 0.500000 0.445469
O O16 0.500000 0.608955 0.500000
O O17 0.500000 0.000000 0.579146
O O18 0.415455 0.000000 0.500000
#
# Coordination Sequence:
#
# PCOD8284980 Si02
#       7
#    32  32  32  32  32  16  16
#     4  10  21  37  59  87 120 156 199 243 293 355
#     4   9  17  32  57  87 115 151 194 241 288 347
#     4  11  22  37  59  84 115 153 195 248 298 346
#     4  11  21  36  58  85 114 150 199 245 291 351
#     4  10  20  36  59  86 120 156 196 239 295 360
#     4   9  18  32  52  76 105 142 186 235 279 332
#     4   9  18  34  56  79 102 143 195 234 278 340
#
# _framework density 20.641659000000001
#
# number of rings (size 3 to 8) (size 9 to 14) (size 15 to 20)
#    0.000    2.000    1.667    2.500    0.000    5.667 
#    0.000    2.500    1.833    1.500    0.000    0.000 
#    0.000    0.000    0.000    0.000    0.000    0.000 
#
# Total GULP energy -594896.331460 kJ/mol
# GULP energy per Si atom -12393.673572 kJ/mol
# Density = 2.059468 g / cm^3
# Si number density = 20.641659 Si / 1000 Ang^3
#
#
#
# Elastic Constant Matrix: (Units=GPa)
#
#
# Indices 1 2 3 4 5 6 
#
# 1 132.6383 13.2665 40.6109 0.0000 0.0000 0.0000
# 2 13.2665 21.2079 14.5396 0.0000 0.0000 0.0000
# 3 40.6109 14.5396 124.4576 0.0000 0.0000 0.0000
# 4 0.0000 0.0000 0.0000 20.3595 0.0000 0.0000
# 5 0.0000 0.0000 0.0000 0.0000 30.4109 0.0000
# 6 0.0000 0.0000 0.0000 0.0000 0.0000 28.5662
#
#
#
# Elastic Compliance Matrix: (Units=1/GPa)
#
#
# Indices 1 2 3 4 5 6 
#
# 1 0.008646 -0.003777 -0.002380 0.000000 0.000000 0.000000
# 2 -0.003777 0.052907 -0.004948 0.000000 0.000000 0.000000
# 3 -0.002380 -0.004948 0.009390 0.000000 0.000000 0.000000
# 4 0.000000 0.000000 0.000000 0.049117 0.000000 0.000000
# 5 0.000000 0.000000 0.000000 0.000000 0.032883 0.000000
# 6 0.000000 0.000000 0.000000 0.000000 0.000000 0.035006
#
#
# Mechanical properties :
#
#
# Convention : Reuss Voigt Hill
#
# Bulk Modulus (GPa) = 20.52025 46.12641 33.32333
# Shear Modulus (GPa) = 22.08448 29.85976 25.97212
#
# Velocity S-wave (km/s) = 3.27448 3.80752 3.55101
# Velocity P-wave (km/s) = 4.92535 6.45944 5.74384
#
# Compressibility (1/GPa) = 0.04873235
#
# Stress axis : x y z
#
# Youngs Moduli (GPa) = 115.66406 18.90100 106.50149
#
# Poissons Ratio (x) = 0.07138 0.25346
# Poissons Ratio (y) = 0.43683 0.52702
# Poissons Ratio (z) = 0.27527 0.09353
#
# Static dielectric constant tensor:
#      x y z
#    x 4.011230 0.000000 0.000000 
#    y 0.000000 3.289990 0.000000 
#    z 0.000000 0.000000 3.868650 
# 
# 
# High freq. dielectric constant tensor:
#      x y z
#    x 1.823770 0.000000 0.000000 
#    y 0.000000 1.760720 0.000000 
#    z 0.000000 0.000000 1.808560 
# 
# From -- ./inp_files/38386.got.cif
#   From: 2010.03.12/outbox.cif.g09.slc.cpg/sg69_20_cif.got.tgz:38386.got - 2010.04.10 23:52:46.
