data_PCOD8284956
_publ_section_title
;
Structure prediction by ZEFSAII (Michael W. Deem and Ramdas Pophale) SiO2 
 PCOD8284956
Probable space group: F M M M
;
_chemical_formula_sum "Si O2"
_cell_formula_units_Z 112
_cell_length_a 39.201704
_cell_length_b 9.392315
_cell_length_c 16.038525
_cell_angle_alpha 90.000000
_cell_angle_beta 90.000000
_cell_angle_gamma 90.000000
_cell_volume 5905.300743
_symmetry_space_group_name_H-M "F M M M"
_symmetry_group_IT_number 69
_symmetry_cell_setting 'orthorhombic'
loop_
_space_group_symop_operation_xyz
x,y,z
-x,-y,z
x,-y,-z
-x,y,-z
-x,-y,-z
x,y,-z
-x,y,z
x,-y,z
x,1/2+y,1/2+z
-x,1/2-y,1/2+z
x,1/2-y,1/2-z
-x,1/2+y,1/2-z
-x,1/2-y,1/2-z
x,1/2+y,1/2-z
-x,1/2+y,1/2+z
x,1/2-y,1/2+z
1/2+x,y,1/2+z
1/2-x,-y,1/2+z
1/2+x,-y,1/2-z
1/2-x,y,1/2-z
1/2-x,-y,1/2-z
1/2+x,y,1/2-z
1/2-x,y,1/2+z
1/2+x,-y,1/2+z
1/2+x,1/2+y,z
1/2-x,1/2-y,z
1/2+x,1/2-y,-z
1/2-x,1/2+y,-z
1/2-x,1/2-y,-z
1/2+x,1/2+y,-z
1/2-x,1/2+y,z
1/2+x,1/2-y,z
loop_
_atom_site_type_symbol
_atom_site_label
_atom_site_fract_x
_atom_site_fract_y
_atom_site_fract_z
Si Si1 0.537010 0.335586 0.666125
Si Si2 0.825035 0.332627 0.168520
Si Si3 0.106313 0.668858 0.090638
Si Si4 0.214977 0.832865 0.500000
O O1 0.500000 0.317720 0.620010
O O2 0.543640 0.500000 0.687657
O O3 0.535807 0.250000 0.750000
O O4 0.568555 0.274206 0.613082
O O5 0.821435 0.500000 0.185859
O O6 0.810708 0.250000 0.250000
O O7 0.864530 0.284543 0.155898
O O8 0.805182 0.289596 0.084117
O O9 0.106143 0.500000 0.085133
O O10 0.115546 0.732094 0.000000
O O11 0.250000 0.750000 0.500000
O O12 0.222248 0.000000 0.500000
#
# Coordination Sequence:
#
# PCOD8284956 Si02
#       4
#    32  32  32  16
#     4   9  17  28  44  68  97 130 169 213 259 305
#     4  10  20  36  58  82 108 142 180 217 262 314
#     4   9  16  29  50  73 100 134 173 217 260 304
#     4  10  22  40  60  82 111 143 175 213 262 318
#
# _framework density 18.966010000000001
#
# number of rings (size 3 to 8) (size 9 to 14) (size 15 to 20)
#    0.000    2.571    1.429    0.857    0.000    2.286 
#    0.000    5.714    0.000    2.571    0.000    4.000 
#    0.000    0.000    0.000    0.000    0.000    0.000 
#
# Total GULP energy -346915.444197 kJ/mol
# GULP energy per Si atom -12389.837293 kJ/mol
# Density = 1.892284 g / cm^3
# Si number density = 18.966010 Si / 1000 Ang^3
#
#
#
# Elastic Constant Matrix: (Units=GPa)
#
#
# Indices 1 2 3 4 5 6 
#
# 1 134.2634 35.1117 60.0048 0.0000 0.0000 0.0000
# 2 35.1117 30.4267 38.2769 0.0000 0.0000 0.0000
# 3 60.0048 38.2769 137.9022 0.0000 0.0000 0.0000
# 4 0.0000 0.0000 0.0000 25.8053 0.0000 0.0000
# 5 0.0000 0.0000 0.0000 0.0000 22.7046 0.0000
# 6 0.0000 0.0000 0.0000 0.0000 0.0000 22.9373
#
#
#
# Elastic Compliance Matrix: (Units=1/GPa)
#
#
# Indices 1 2 3 4 5 6 
#
# 1 0.010995 -0.010248 -0.001940 0.000000 0.000000 0.000000
# 2 -0.010248 0.060050 -0.012209 0.000000 0.000000 0.000000
# 3 -0.001940 -0.012209 0.011484 0.000000 0.000000 0.000000
# 4 0.000000 0.000000 0.000000 0.038752 0.000000 0.000000
# 5 0.000000 0.000000 0.000000 0.000000 0.044044 0.000000
# 6 0.000000 0.000000 0.000000 0.000000 0.000000 0.043597
#
#
# Mechanical properties :
#
#
# Convention : Reuss Voigt Hill
#
# Bulk Modulus (GPa) = 29.64108 63.26434 46.45271
# Shear Modulus (GPa) = 18.59010 25.56937 22.07974
#
# Velocity S-wave (km/s) = 3.13418 3.67572 3.41570
# Velocity P-wave (km/s) = 5.36283 7.17243 6.33260
#
# Compressibility (1/GPa) = 0.03373696
#
# Stress axis : x y z
#
# Youngs Moduli (GPa) = 90.95171 16.65271 87.07514
#
# Poissons Ratio (x) = 0.17065 0.16891
# Poissons Ratio (y) = 0.93203 1.06309
# Poissons Ratio (z) = 0.17642 0.20331
#
# Static dielectric constant tensor:
#      x y z
#    x 3.996480 0.000000 0.000000 
#    y 0.000000 3.078110 0.000000 
#    z 0.000000 0.000000 3.588880 
# 
# 
# High freq. dielectric constant tensor:
#      x y z
#    x 1.752540 0.000000 0.000000 
#    y 0.000000 1.694590 0.000000 
#    z 0.000000 0.000000 1.733790 
# 
# From -- ./inp_files/7330.got.cif
#   From: 2010.03.12/outbox.cif.g09.slc.cpg/sg69_4_cif.got.tgz:7330.got - 2010.04.10 23:52:46.
