data_PCOD8284284
_publ_section_title
;
Structure prediction by ZEFSAII (Michael W. Deem and Ramdas Pophale) SiO2 
 PCOD8284284
Probable space group: F M M M
;
_chemical_formula_sum "Si O2"
_cell_formula_units_Z 176
_cell_length_a 19.781284
_cell_length_b 17.494685
_cell_length_c 27.158299
_cell_angle_alpha 90.000000
_cell_angle_beta 90.000000
_cell_angle_gamma 90.000000
_cell_volume 9398.600090
_symmetry_space_group_name_H-M "F M M M"
_symmetry_group_IT_number 69
_symmetry_cell_setting 'orthorhombic'
loop_
_space_group_symop_operation_xyz
x,y,z
-x,-y,z
x,-y,-z
-x,y,-z
-x,-y,-z
x,y,-z
-x,y,z
x,-y,z
x,1/2+y,1/2+z
-x,1/2-y,1/2+z
x,1/2-y,1/2-z
-x,1/2+y,1/2-z
-x,1/2-y,1/2-z
x,1/2+y,1/2-z
-x,1/2+y,1/2+z
x,1/2-y,1/2+z
1/2+x,y,1/2+z
1/2-x,-y,1/2+z
1/2+x,-y,1/2-z
1/2-x,y,1/2-z
1/2-x,-y,1/2-z
1/2+x,y,1/2-z
1/2-x,y,1/2+z
1/2+x,-y,1/2+z
1/2+x,1/2+y,z
1/2-x,1/2-y,z
1/2+x,1/2-y,-z
1/2-x,1/2+y,-z
1/2-x,1/2-y,-z
1/2+x,1/2+y,-z
1/2-x,1/2+y,z
1/2+x,1/2-y,z
loop_
_atom_site_type_symbol
_atom_site_label
_atom_site_fract_x
_atom_site_fract_y
_atom_site_fract_z
Si Si1 0.828080 0.665527 0.737446
Si Si2 0.207169 0.087905 0.858592
Si Si3 0.578426 0.685966 0.410736
Si Si4 0.637561 0.586116 0.669857
Si Si5 0.919902 0.416031 0.000000
Si Si6 0.184667 0.302503 0.442723
O O1 0.856924 0.750000 0.750000
O O2 0.750000 0.663034 0.750000
O O3 0.835865 0.639102 0.680621
O O4 0.867286 0.605470 0.772192
O O5 0.286302 0.096142 0.848525
O O6 0.193947 0.118198 0.913640
O O7 0.183772 0.000000 0.854693
O O8 0.500000 0.706037 0.417661
O O9 0.589835 0.645712 0.358452
O O10 0.606048 0.627669 0.452045
O O11 0.619860 0.763342 0.417646
O O12 0.611173 0.500000 0.661376
O O13 0.886741 0.500000 0.000000
O O14 0.000000 0.422274 0.000000
O O15 0.171743 0.320648 0.500000
O O16 0.250000 0.250000 0.434997
#
# Coordination Sequence:
#
# PCOD8284284 Si02
#       6
#    32  32  32  32  16  32
#     4   9  17  29  52  80 111 150 189 231 276 330
#     4  10  20  34  55  83 115 149 190 238 288 335
#     4  11  21  35  55  81 112 151 191 231 283 344
#     4  10  19  32  51  81 117 149 184 229 281 341
#     4   9  18  32  49  74 111 151 189 224 271 341
#     4  11  22  37  57  81 111 150 191 241 291 337
#
# _framework density 18.726192999999999
#
# number of rings (size 3 to 8) (size 9 to 14) (size 15 to 20)
#    0.000    1.909    2.727    2.182    2.545    3.636 
#    0.000    0.000    0.000    5.455    0.000    1.273 
#    0.000    0.000    0.000    0.000    0.000    0.000 
#
# Total GULP energy -545571.417564 kJ/mol
# GULP energy per Si atom -12399.350399 kJ/mol
# Density = 1.868357 g / cm^3
# Si number density = 18.726193 Si / 1000 Ang^3
#
#
#
# Elastic Constant Matrix: (Units=GPa)
#
#
# Indices 1 2 3 4 5 6 
#
# 1 49.8835 23.9355 20.4168 0.0000 0.0000 0.0000
# 2 23.9355 100.0025 43.7615 0.0000 0.0000 0.0000
# 3 20.4168 43.7615 114.5239 0.0000 0.0000 0.0000
# 4 0.0000 0.0000 0.0000 33.5313 0.0000 0.0000
# 5 0.0000 0.0000 0.0000 0.0000 17.2812 0.0000
# 6 0.0000 0.0000 0.0000 0.0000 0.0000 16.4828
#
#
#
# Elastic Compliance Matrix: (Units=1/GPa)
#
#
# Indices 1 2 3 4 5 6 
#
# 1 0.023192 -0.004493 -0.002418 0.000000 0.000000 0.000000
# 2 -0.004493 0.012878 -0.004120 0.000000 0.000000 0.000000
# 3 -0.002418 -0.004120 0.010737 0.000000 0.000000 0.000000
# 4 0.000000 0.000000 0.000000 0.029823 0.000000 0.000000
# 5 0.000000 0.000000 0.000000 0.000000 0.057866 0.000000
# 6 0.000000 0.000000 0.000000 0.000000 0.000000 0.060669
#
#
# Mechanical properties :
#
#
# Convention : Reuss Voigt Hill
#
# Bulk Modulus (GPa) = 40.41064 48.95973 44.68518
# Shear Modulus (GPa) = 22.17532 25.21213 23.69372
#
# Velocity S-wave (km/s) = 3.44494 3.67325 3.56092
# Velocity P-wave (km/s) = 6.11964 6.64772 6.38914
#
# Compressibility (1/GPa) = 0.02474596
#
# Stress axis : x y z
#
# Youngs Moduli (GPa) = 43.11805 77.65155 93.13484
#
# Poissons Ratio (x) = 0.34889 0.22518
# Poissons Ratio (y) = 0.19373 0.38371
# Poissons Ratio (z) = 0.10425 0.31992
#
# Static dielectric constant tensor:
#      x y z
#    x 2.998720 0.000000 0.000000 
#    y 0.000000 3.504180 0.000000 
#    z 0.000000 0.000000 3.607980 
# 
# 
# High freq. dielectric constant tensor:
#      x y z
#    x 1.676750 0.000000 0.000000 
#    y 0.000000 1.724790 0.000000 
#    z 0.000000 0.000000 1.738500 
# 
# From -- ./inp_files/26755.got.cif
#   From: 2010.03.12/outbox.cif.g09.slc.cpg/sg69_14_cif.got.tgz:26755.got - 2010.04.10 23:52:46.
