data_PCOD8284469
_publ_section_title
;
Structure prediction by ZEFSAII (Michael W. Deem and Ramdas Pophale) SiO2 
 PCOD8284469
Probable space group: F M M M
;
_chemical_formula_sum "Si O2"
_cell_formula_units_Z 192
_cell_length_a 16.656769
_cell_length_b 32.034621
_cell_length_c 17.040148
_cell_angle_alpha 90.000000
_cell_angle_beta 90.000000
_cell_angle_gamma 90.000000
_cell_volume 9092.508497
_symmetry_space_group_name_H-M "F M M M"
_symmetry_group_IT_number 69
_symmetry_cell_setting 'orthorhombic'
loop_
_space_group_symop_operation_xyz
x,y,z
-x,-y,z
x,-y,-z
-x,y,-z
-x,-y,-z
x,y,-z
-x,y,z
x,-y,z
x,1/2+y,1/2+z
-x,1/2-y,1/2+z
x,1/2-y,1/2-z
-x,1/2+y,1/2-z
-x,1/2-y,1/2-z
x,1/2+y,1/2-z
-x,1/2+y,1/2+z
x,1/2-y,1/2+z
1/2+x,y,1/2+z
1/2-x,-y,1/2+z
1/2+x,-y,1/2-z
1/2-x,y,1/2-z
1/2-x,-y,1/2-z
1/2+x,y,1/2-z
1/2-x,y,1/2+z
1/2+x,-y,1/2+z
1/2+x,1/2+y,z
1/2-x,1/2-y,z
1/2+x,1/2-y,-z
1/2-x,1/2+y,-z
1/2-x,1/2-y,-z
1/2+x,1/2+y,-z
1/2-x,1/2+y,z
1/2+x,1/2-y,z
loop_
_atom_site_type_symbol
_atom_site_label
_atom_site_fract_x
_atom_site_fract_y
_atom_site_fract_z
Si Si1 0.909655 0.000000 0.593085
Si Si2 0.406879 0.268050 0.592380
Si Si3 0.675982 0.083859 0.090559
Si Si4 0.000000 0.046088 0.905871
Si Si5 0.090046 0.178008 0.156787
Si Si6 0.329009 0.665550 0.306344
Si Si7 0.645652 0.097594 0.588008
O O1 0.867304 0.042355 0.622896
O O2 0.906423 0.000000 0.500000
O O3 0.000000 0.000000 0.625287
O O4 0.394756 0.267691 0.500000
O O5 0.500000 0.279328 0.613316
O O6 0.383752 0.222920 0.626178
O O7 0.339357 0.299284 0.626947
O O8 0.658651 0.121187 0.150935
O O9 0.770333 0.073806 0.093214
O O10 0.650177 0.094915 0.000000
O O11 0.921812 0.069254 0.870871
O O12 0.000000 0.000000 0.869887
O O13 0.000000 0.043798 0.000000
O O14 0.094758 0.175035 0.250697
O O15 0.152910 0.143496 0.125306
O O16 0.000000 0.167302 0.128249
O O17 0.250000 0.669186 0.250000
O O18 0.617497 0.105061 0.500000
#
# Coordination Sequence:
#
# PCOD8284469 Si02
#       7
#    16  32  32  16  32  32  32
#     4   9  20  40  69  99 123 159 213 272 324 369
#     4  10  23  43  67  93 121 165 225 279 322 373
#     4  10  22  41  65  93 125 162 210 263 318 377
#     4   9  18  30  54  90 123 158 207 257 308 374
#     4  11  22  39  62  87 124 166 213 261 318 383
#     4  12  24  41  60  92 132 171 206 258 325 393
#     4  10  19  34  57  87 123 164 206 255 312 374
#
# _framework density 21.116285000000001
#
# number of rings (size 3 to 8) (size 9 to 14) (size 15 to 20)
#    0.000    1.667    2.500    2.000    1.167    4.667 
#    0.000    2.917    1.833    0.000    0.000    0.000 
#    0.000    0.000    0.000    0.000    0.000    0.000 
#
# Total GULP energy -594927.084158 kJ/mol
# GULP energy per Si atom -12394.314253 kJ/mol
# Density = 2.106822 g / cm^3
# Si number density = 21.116285 Si / 1000 Ang^3
#
#
#
# Elastic Constant Matrix: (Units=GPa)
#
#
# Indices 1 2 3 4 5 6 
#
# 1 90.9133 74.5115 40.8903 0.0000 0.0000 0.0000
# 2 74.5115 185.2082 66.0884 0.0000 0.0000 0.0000
# 3 40.8903 66.0884 92.4261 0.0000 0.0000 0.0000
# 4 0.0000 0.0000 0.0000 10.6318 0.0000 0.0000
# 5 0.0000 0.0000 0.0000 0.0000 29.2444 0.0000
# 6 0.0000 0.0000 0.0000 0.0000 0.0000 34.0784
#
#
#
# Elastic Compliance Matrix: (Units=1/GPa)
#
#
# Indices 1 2 3 4 5 6 
#
# 1 0.017252 -0.005662 -0.003584 0.000000 0.000000 0.000000
# 2 -0.005662 0.009107 -0.004007 0.000000 0.000000 0.000000
# 3 -0.003584 -0.004007 0.015270 0.000000 0.000000 0.000000
# 4 0.000000 0.000000 0.000000 0.094058 0.000000 0.000000
# 5 0.000000 0.000000 0.000000 0.000000 0.034195 0.000000
# 6 0.000000 0.000000 0.000000 0.000000 0.000000 0.029344
#
#
# Mechanical properties :
#
#
# Convention : Reuss Voigt Hill
#
# Bulk Modulus (GPa) = 66.12248 81.28087 73.70168
# Shear Modulus (GPa) = 21.66640 27.26139 24.46389
#
# Velocity S-wave (km/s) = 3.20668 3.59696 3.40741
# Velocity P-wave (km/s) = 6.71505 7.47171 7.10346
#
# Compressibility (1/GPa) = 0.01512345
#
# Stress axis : x y z
#
# Youngs Moduli (GPa) = 57.96519 109.80642 65.48677
#
# Poissons Ratio (x) = 0.62169 0.23471
# Poissons Ratio (y) = 0.32818 0.26241
# Poissons Ratio (z) = 0.20775 0.44000
#
# Static dielectric constant tensor:
#      x y z
#    x 3.846140 0.000000 0.000000 
#    y 0.000000 3.862910 0.000000 
#    z 0.000000 0.000000 3.791740 
# 
# 
# High freq. dielectric constant tensor:
#      x y z
#    x 1.829000 0.000000 0.000000 
#    y 0.000000 1.829710 0.000000 
#    z 0.000000 0.000000 1.814110 
# 
# From -- ./inp_files/23735.got.cif
#   From: 2010.03.12/outbox.cif.g09.slc.cpg/sg69_12_cif.got.tgz:23735.got - 2010.04.10 23:52:46.
