data_PCOD8284730
_publ_section_title
;
Structure prediction by ZEFSAII (Michael W. Deem and Ramdas Pophale) SiO2 
 PCOD8284730
Probable space group: F M M M
;
_chemical_formula_sum "Si O2"
_cell_formula_units_Z 176
_cell_length_a 26.505485
_cell_length_b 25.266509
_cell_length_c 14.274102
_cell_angle_alpha 90.000000
_cell_angle_beta 90.000000
_cell_angle_gamma 90.000000
_cell_volume 9559.381458
_symmetry_space_group_name_H-M "F M M M"
_symmetry_group_IT_number 69
_symmetry_cell_setting 'orthorhombic'
loop_
_space_group_symop_operation_xyz
x,y,z
-x,-y,z
x,-y,-z
-x,y,-z
-x,-y,-z
x,y,-z
-x,y,z
x,-y,z
x,1/2+y,1/2+z
-x,1/2-y,1/2+z
x,1/2-y,1/2-z
-x,1/2+y,1/2-z
-x,1/2-y,1/2-z
x,1/2+y,1/2-z
-x,1/2+y,1/2+z
x,1/2-y,1/2+z
1/2+x,y,1/2+z
1/2-x,-y,1/2+z
1/2+x,-y,1/2-z
1/2-x,y,1/2-z
1/2-x,-y,1/2-z
1/2+x,y,1/2-z
1/2-x,y,1/2+z
1/2+x,-y,1/2+z
1/2+x,1/2+y,z
1/2-x,1/2-y,z
1/2+x,1/2-y,-z
1/2-x,1/2+y,-z
1/2-x,1/2-y,-z
1/2+x,1/2+y,-z
1/2-x,1/2+y,z
1/2+x,1/2-y,z
loop_
_atom_site_type_symbol
_atom_site_label
_atom_site_fract_x
_atom_site_fract_y
_atom_site_fract_z
Si Si1 0.191018 0.358720 0.746472
Si Si2 0.132587 0.750000 0.750000
Si Si3 0.857425 0.562534 0.609905
Si Si4 0.554539 0.440087 0.237248
Si Si5 0.443182 0.286005 0.604984
Si Si6 0.384842 0.394077 0.605955
O O1 0.250000 0.349208 0.750000
O O2 0.166242 0.301439 0.731438
O O3 0.183260 0.400333 0.661482
O O4 0.168663 0.381888 0.843883
O O5 0.095755 0.749851 0.838854
O O6 0.856190 0.574128 0.500000
O O7 0.847224 0.500000 0.630814
O O8 0.911267 0.581945 0.652078
O O9 0.500000 0.410168 0.240523
O O10 0.543064 0.500000 0.214993
O O11 0.585088 0.437926 0.335025
O O12 0.443673 0.263842 0.500000
O O13 0.500000 0.284477 0.646902
O O14 0.422834 0.345319 0.607555
O O15 0.373821 0.413479 0.500000
#
# Coordination Sequence:
#
# PCOD8284730 Si02
#       6
#    32  16  32  32  32  32
#     4  10  21  36  55  76 101 134 176 222 270 317
#     4  10  20  34  52  76 106 136 168 212 262 314
#     4   9  19  36  56  78 105 137 175 219 263 308
#     4   9  17  29  48  76 107 137 168 204 251 307
#     4   9  17  30  49  71  97 132 169 204 248 304
#     4   9  18  32  48  69  99 134 172 212 255 306
#
# _framework density 18.411232999999999
#
# number of rings (size 3 to 8) (size 9 to 14) (size 15 to 20)
#    0.000    2.727    0.000    1.091    0.000    3.636 
#    0.000    3.636    0.000    5.455    0.000    0.000 
#    0.000    0.000    0.000    0.000    0.000    0.000 
#
# Total GULP energy -545173.289926 kJ/mol
# GULP energy per Si atom -12390.302044 kJ/mol
# Density = 1.836933 g / cm^3
# Si number density = 18.411233 Si / 1000 Ang^3
#
#
#
# Elastic Constant Matrix: (Units=GPa)
#
#
# Indices 1 2 3 4 5 6 
#
# 1 150.6606 35.5486 55.4563 0.0000 0.0000 0.0000
# 2 35.5486 55.6933 37.7684 0.0000 0.0000 0.0000
# 3 55.4563 37.7684 128.7790 0.0000 0.0000 0.0000
# 4 0.0000 0.0000 0.0000 27.2387 0.0000 0.0000
# 5 0.0000 0.0000 0.0000 0.0000 15.8672 0.0000
# 6 0.0000 0.0000 0.0000 0.0000 0.0000 17.9279
#
#
#
# Elastic Compliance Matrix: (Units=1/GPa)
#
#
# Indices 1 2 3 4 5 6 
#
# 1 0.008443 -0.003649 -0.002566 0.000000 0.000000 0.000000
# 2 -0.003649 0.023990 -0.005464 0.000000 0.000000 0.000000
# 3 -0.002566 -0.005464 0.010473 0.000000 0.000000 0.000000
# 4 0.000000 0.000000 0.000000 0.036713 0.000000 0.000000
# 5 0.000000 0.000000 0.000000 0.000000 0.063023 0.000000
# 6 0.000000 0.000000 0.000000 0.000000 0.000000 0.055779
#
#
# Mechanical properties :
#
#
# Convention : Reuss Voigt Hill
#
# Bulk Modulus (GPa) = 51.15724 65.85328 58.50526
# Shear Modulus (GPa) = 21.90152 25.96406 23.93279
#
# Velocity S-wave (km/s) = 3.45276 3.75938 3.60933
# Velocity P-wave (km/s) = 6.61375 7.39524 7.01538
#
# Compressibility (1/GPa) = 0.01954757
#
# Stress axis : x y z
#
# Youngs Moduli (GPa) = 118.44428 41.68327 95.48672
#
# Poissons Ratio (x) = 0.15211 0.24497
# Poissons Ratio (y) = 0.43222 0.52179
# Poissons Ratio (z) = 0.30387 0.22778
#
# Static dielectric constant tensor:
#      x y z
#    x 3.684760 0.000000 0.000000 
#    y 0.000000 3.246060 0.000000 
#    z 0.000000 0.000000 3.592080 
# 
# 
# High freq. dielectric constant tensor:
#      x y z
#    x 1.715650 0.000000 0.000000 
#    y 0.000000 1.699720 0.000000 
#    z 0.000000 0.000000 1.712730 
# 
# From -- ./inp_files/18994.got.cif
#   From: 2010.03.12/outbox.cif.g09.slc.cpg/sg69_10_cif.got.tgz:18994.got - 2010.04.10 23:52:46.
