data_PCOD8284418
_publ_section_title
;
Structure prediction by ZEFSAII (Michael W. Deem and Ramdas Pophale) SiO2 
 PCOD8284418
Probable space group: F M M M
;
_chemical_formula_sum "Si O2"
_cell_formula_units_Z 144
_cell_length_a 31.024791
_cell_length_b 17.175014
_cell_length_c 13.760267
_cell_angle_alpha 90.000000
_cell_angle_beta 90.000000
_cell_angle_gamma 90.000000
_cell_volume 7332.175055
_symmetry_space_group_name_H-M "F M M M"
_symmetry_group_IT_number 69
_symmetry_cell_setting 'orthorhombic'
loop_
_space_group_symop_operation_xyz
x,y,z
-x,-y,z
x,-y,-z
-x,y,-z
-x,-y,-z
x,y,-z
-x,y,z
x,-y,z
x,1/2+y,1/2+z
-x,1/2-y,1/2+z
x,1/2-y,1/2-z
-x,1/2+y,1/2-z
-x,1/2-y,1/2-z
x,1/2+y,1/2-z
-x,1/2+y,1/2+z
x,1/2-y,1/2+z
1/2+x,y,1/2+z
1/2-x,-y,1/2+z
1/2+x,-y,1/2-z
1/2-x,y,1/2-z
1/2-x,-y,1/2-z
1/2+x,y,1/2-z
1/2-x,y,1/2+z
1/2+x,-y,1/2+z
1/2+x,1/2+y,z
1/2-x,1/2-y,z
1/2+x,1/2-y,-z
1/2-x,1/2+y,-z
1/2-x,1/2-y,-z
1/2+x,1/2+y,-z
1/2-x,1/2+y,z
1/2+x,1/2-y,z
loop_
_atom_site_type_symbol
_atom_site_label
_atom_site_fract_x
_atom_site_fract_y
_atom_site_fract_z
Si Si1 0.049912 0.843936 0.500000
Si Si2 0.675157 0.911540 0.000000
Si Si3 0.205289 0.411313 0.790414
Si Si4 0.624238 0.827874 0.301111
Si Si5 0.047827 0.409091 0.207804
Si Si6 0.874680 0.747111 0.500000
O O1 0.063372 0.890352 0.597802
O O2 0.073902 0.760540 0.500000
O O3 0.000000 0.825142 0.500000
O O4 0.705990 0.904871 0.906800
O O5 0.643155 0.836889 0.000000
O O6 0.653241 0.000000 0.000000
O O7 0.200084 0.500000 0.754612
O O8 0.250000 0.376048 0.750000
O O9 0.165619 0.363222 0.750066
O O10 0.609061 0.750000 0.250000
O O11 0.582368 0.882340 0.288923
O O12 0.638388 0.807191 0.410201
O O13 0.044758 0.500000 0.217965
O O14 0.000000 0.372911 0.227653
#
# Coordination Sequence:
#
# PCOD8284418 Si02
#       6
#    16  16  32  32  32  16
#     4  10  19  33  58  88 119 148 194 255 300 342
#     4  10  20  39  65  88 115 154 204 253 293 343
#     4  10  22  41  65  90 118 158 203 247 297 352
#     4  12  23  39  59  87 126 156 195 243 302 358
#     4  10  21  38  62  90 119 156 201 248 298 353
#     4  12  24  39  55  93 120 158 200 240 301 363
#
# _framework density 19.639467
#
# number of rings (size 3 to 8) (size 9 to 14) (size 15 to 20)
#    0.000    1.333    4.444    1.000    0.000    6.667 
#    0.000    4.444    0.000    1.333    0.000    0.000 
#    0.000    0.000    0.000    0.000    0.000    0.000 
#
# Total GULP energy -446183.898234 kJ/mol
# GULP energy per Si atom -12393.997173 kJ/mol
# Density = 1.959477 g / cm^3
# Si number density = 19.639467 Si / 1000 Ang^3
#
#
#
# Elastic Constant Matrix: (Units=GPa)
#
#
# Indices 1 2 3 4 5 6 
#
# 1 113.1834 39.8443 44.3650 0.0000 0.0000 0.0000
# 2 39.8443 59.7409 36.7264 0.0000 0.0000 0.0000
# 3 44.3650 36.7264 127.9267 0.0000 0.0000 0.0000
# 4 0.0000 0.0000 0.0000 31.2599 0.0000 0.0000
# 5 0.0000 0.0000 0.0000 0.0000 21.5240 0.0000
# 6 0.0000 0.0000 0.0000 0.0000 0.0000 10.3962
#
#
#
# Elastic Compliance Matrix: (Units=1/GPa)
#
#
# Indices 1 2 3 4 5 6 
#
# 1 0.012068 -0.006650 -0.002276 0.000000 0.000000 0.000000
# 2 -0.006650 0.023990 -0.004581 0.000000 0.000000 0.000000
# 3 -0.002276 -0.004581 0.009922 0.000000 0.000000 0.000000
# 4 0.000000 0.000000 0.000000 0.031990 0.000000 0.000000
# 5 0.000000 0.000000 0.000000 0.000000 0.046460 0.000000
# 6 0.000000 0.000000 0.000000 0.000000 0.000000 0.096189
#
#
# Mechanical properties :
#
#
# Convention : Reuss Voigt Hill
#
# Bulk Modulus (GPa) = 52.72613 60.30251 56.51432
# Shear Modulus (GPa) = 19.68848 24.63037 22.15942
#
# Velocity S-wave (km/s) = 3.16966 3.54521 3.36268
# Velocity P-wave (km/s) = 6.34830 6.89416 6.62685
#
# Compressibility (1/GPa) = 0.01896593
#
# Stress axis : x y z
#
# Youngs Moduli (GPa) = 82.86139 41.68347 100.78998
#
# Poissons Ratio (x) = 0.27718 0.22942
# Poissons Ratio (y) = 0.55100 0.46175
# Poissons Ratio (z) = 0.18861 0.19096
#
# Static dielectric constant tensor:
#      x y z
#    x 3.703480 0.000000 0.000000 
#    y 0.000000 3.626170 0.000000 
#    z 0.000000 0.000000 3.872390 
# 
# 
# High freq. dielectric constant tensor:
#      x y z
#    x 1.766440 0.000000 0.000000 
#    y 0.000000 1.759410 0.000000 
#    z 0.000000 0.000000 1.761620 
# 
# From -- ./inp_files/19503.got.cif
#   From: 2010.03.12/outbox.cif.g09.slc.cpg/sg69_10_cif.got.tgz:19503.got - 2010.04.10 23:52:46.
