data_PCOD8284102
_publ_section_title
;
Structure prediction by ZEFSAII (Michael W. Deem and Ramdas Pophale) SiO2 
 PCOD8284102
Probable space group: F M M M
;
_chemical_formula_sum "Si O2"
_cell_formula_units_Z 192
_cell_length_a 18.619832
_cell_length_b 30.672842
_cell_length_c 17.709572
_cell_angle_alpha 90.000000
_cell_angle_beta 90.000000
_cell_angle_gamma 90.000000
_cell_volume 10114.346811
_symmetry_space_group_name_H-M "F M M M"
_symmetry_group_IT_number 69
_symmetry_cell_setting 'orthorhombic'
loop_
_space_group_symop_operation_xyz
x,y,z
-x,-y,z
x,-y,-z
-x,y,-z
-x,-y,-z
x,y,-z
-x,y,z
x,-y,z
x,1/2+y,1/2+z
-x,1/2-y,1/2+z
x,1/2-y,1/2-z
-x,1/2+y,1/2-z
-x,1/2-y,1/2-z
x,1/2+y,1/2-z
-x,1/2+y,1/2+z
x,1/2-y,1/2+z
1/2+x,y,1/2+z
1/2-x,-y,1/2+z
1/2+x,-y,1/2-z
1/2-x,y,1/2-z
1/2-x,-y,1/2-z
1/2+x,y,1/2-z
1/2-x,y,1/2+z
1/2+x,-y,1/2+z
1/2+x,1/2+y,z
1/2-x,1/2-y,z
1/2+x,1/2-y,-z
1/2-x,1/2+y,-z
1/2-x,1/2-y,-z
1/2+x,1/2+y,-z
1/2-x,1/2+y,z
1/2+x,1/2-y,z
loop_
_atom_site_type_symbol
_atom_site_label
_atom_site_fract_x
_atom_site_fract_y
_atom_site_fract_z
Si Si1 0.849010 0.668690 0.413399
Si Si2 0.580819 0.256015 0.410297
Si Si3 0.817260 0.166606 0.587161
Si Si4 0.382120 0.000000 0.411425
Si Si5 0.418890 0.088449 0.666509
Si Si6 0.680052 0.087973 0.801918
Si Si7 0.730964 0.500000 0.338105
O O1 0.870301 0.661397 0.500000
O O2 0.892701 0.709375 0.378184
O O3 0.765440 0.680069 0.404299
O O4 0.867665 0.624119 0.371595
O O5 0.584282 0.253877 0.500000
O O6 0.500000 0.265181 0.381412
O O7 0.633673 0.293961 0.381975
O O8 0.835282 0.155247 0.500000
O O9 0.835383 0.126015 0.639502
O O10 0.418440 0.043067 0.377994
O O11 0.394848 0.000000 0.500000
O O12 0.298422 0.000000 0.392973
O O13 0.500000 0.106132 0.669384
O O14 0.389836 0.081054 0.750562
O O15 0.750000 0.097120 0.750000
O O16 0.687623 0.044401 0.853029
O O17 0.750000 0.500000 0.250000
#
# Coordination Sequence:
#
# PCOD8284102 Si02
#       7
#    32  32  32  16  32  32  16
#     4  10  19  34  56  83 114 153 193 233 286 355
#     4   9  18  33  54  81 114 149 188 241 297 343
#     4  10  20  35  60  87 110 144 197 246 288 338
#     4  12  23  37  60  92 124 154 193 238 285 342
#     4  12  24  37  56  85 120 159 192 230 290 354
#     4  11  20  39  61  79 114 156 192 232 280 340
#     4  10  18  38  62  79 109 157 194 225 273 334
#
# _framework density 18.982935999999999
#
# number of rings (size 3 to 8) (size 9 to 14) (size 15 to 20)
#    0.000    1.500    5.000    1.750    0.000    7.000 
#    0.000    0.833    0.000    2.000    0.000    0.000 
#    0.000    6.000    0.000    0.000    0.000    0.000 
#
# Total GULP energy -595220.158170 kJ/mol
# GULP energy per Si atom -12400.419962 kJ/mol
# Density = 1.893973 g / cm^3
# Si number density = 18.982936 Si / 1000 Ang^3
#
#
#
# Elastic Constant Matrix: (Units=GPa)
#
#
# Indices 1 2 3 4 5 6 
#
# 1 107.8236 47.9599 27.3971 0.0000 0.0000 0.0000
# 2 47.9599 143.6653 28.9066 0.0000 0.0000 0.0000
# 3 27.3971 28.9066 54.0458 0.0000 0.0000 0.0000
# 4 0.0000 0.0000 0.0000 22.0295 0.0000 0.0000
# 5 0.0000 0.0000 0.0000 0.0000 10.3939 0.0000
# 6 0.0000 0.0000 0.0000 0.0000 0.0000 20.5662
#
#
#
# Elastic Compliance Matrix: (Units=1/GPa)
#
#
# Indices 1 2 3 4 5 6 
#
# 1 0.011726 -0.003046 -0.004315 0.000000 0.000000 0.000000
# 2 -0.003046 0.008591 -0.003051 0.000000 0.000000 0.000000
# 3 -0.004315 -0.003051 0.022322 0.000000 0.000000 0.000000
# 4 0.000000 0.000000 0.000000 0.045394 0.000000 0.000000
# 5 0.000000 0.000000 0.000000 0.000000 0.096210 0.000000
# 6 0.000000 0.000000 0.000000 0.000000 0.000000 0.048623
#
#
# Mechanical properties :
#
#
# Convention : Reuss Voigt Hill
#
# Bulk Modulus (GPa) = 45.83969 57.11799 51.47884
# Shear Modulus (GPa) = 19.15986 24.01598 21.58792
#
# Velocity S-wave (km/s) = 3.18043 3.56073 3.37594
# Velocity P-wave (km/s) = 6.13898 6.86000 6.50948
#
# Compressibility (1/GPa) = 0.02181516
#
# Stress axis : x y z
#
# Youngs Moduli (GPa) = 85.28267 116.39501 44.79911
#
# Poissons Ratio (x) = 0.35457 0.19330
# Poissons Ratio (y) = 0.25979 0.13668
# Poissons Ratio (z) = 0.36797 0.35512
#
# Static dielectric constant tensor:
#      x y z
#    x 3.512100 0.000000 0.000000 
#    y 0.000000 3.796460 0.000000 
#    z 0.000000 0.000000 3.233260 
# 
# 
# High freq. dielectric constant tensor:
#      x y z
#    x 1.734800 0.000000 0.000000 
#    y 0.000000 1.754100 0.000000 
#    z 0.000000 0.000000 1.708530 
# 
# From -- ./inp_files/23685.got.cif
#   From: 2010.03.12/outbox.cif.g09.slc.cpg/sg69_12_cif.got.tgz:23685.got - 2010.04.10 23:52:46.
