data_PCOD8284027
_publ_section_title
;
Structure prediction by ZEFSAII (Michael W. Deem and Ramdas Pophale) SiO2 
 PCOD8284027
Probable space group: F M M M
;
_chemical_formula_sum "Si O2"
_cell_formula_units_Z 128
_cell_length_a 25.000252
_cell_length_b 8.677445
_cell_length_c 30.245790
_cell_angle_alpha 90.000000
_cell_angle_beta 90.000000
_cell_angle_gamma 90.000000
_cell_volume 6561.470619
_symmetry_space_group_name_H-M "F M M M"
_symmetry_group_IT_number 69
_symmetry_cell_setting 'orthorhombic'
loop_
_space_group_symop_operation_xyz
x,y,z
-x,-y,z
x,-y,-z
-x,y,-z
-x,-y,-z
x,y,-z
-x,y,z
x,-y,z
x,1/2+y,1/2+z
-x,1/2-y,1/2+z
x,1/2-y,1/2-z
-x,1/2+y,1/2-z
-x,1/2-y,1/2-z
x,1/2+y,1/2-z
-x,1/2+y,1/2+z
x,1/2-y,1/2+z
1/2+x,y,1/2+z
1/2-x,-y,1/2+z
1/2+x,-y,1/2-z
1/2-x,y,1/2-z
1/2-x,-y,1/2-z
1/2+x,y,1/2-z
1/2-x,y,1/2+z
1/2+x,-y,1/2+z
1/2+x,1/2+y,z
1/2-x,1/2-y,z
1/2+x,1/2-y,-z
1/2-x,1/2+y,-z
1/2-x,1/2-y,-z
1/2+x,1/2+y,-z
1/2-x,1/2+y,z
1/2+x,1/2-y,z
loop_
_atom_site_type_symbol
_atom_site_label
_atom_site_fract_x
_atom_site_fract_y
_atom_site_fract_z
Si Si1 0.590126 0.680920 0.119151
Si Si2 0.691965 0.680749 0.588777
Si Si3 0.308895 0.682634 0.000000
Si Si4 0.061088 0.669166 0.792432
Si Si5 0.000000 0.183028 0.050949
O O1 0.600853 0.500000 0.115129
O O2 0.646784 0.771504 0.123510
O O3 0.562325 0.719853 0.165187
O O4 0.552654 0.738305 0.078182
O O5 0.699600 0.500000 0.584278
O O6 0.750000 0.750000 0.600618
O O7 0.664862 0.752184 0.544321
O O8 0.250000 0.750000 0.000000
O O9 0.310356 0.500000 0.000000
O O10 0.087440 0.500000 0.801375
O O11 0.089664 0.750000 0.750000
O O12 0.000000 0.641868 0.779824
O O13 0.000000 0.000000 0.049389
O O14 0.000000 0.247574 0.000000
#
# Coordination Sequence:
#
# PCOD8284027 Si02
#       5
#    32  32  16  32  16
#     4  11  21  36  59  85 116 154 194 237 287 344
#     4  11  22  37  55  80 111 148 193 242 289 337
#     4  10  18  32  52  75 102 139 186 238 284 329
#     4  10  20  35  57  84 115 147 187 238 290 341
#     4   9  20  36  54  81 116 157 197 232 277 338
#
# _framework density 19.507822999999998
#
# number of rings (size 3 to 8) (size 9 to 14) (size 15 to 20)
#    0.000    1.625    1.250    6.375    1.750    1.000 
#    0.000    0.000    0.000    3.750    0.000    5.250 
#    0.000    0.000    0.000    0.000    0.000    0.000 
#
# Total GULP energy -396535.699662 kJ/mol
# GULP energy per Si atom -12391.740614 kJ/mol
# Density = 1.946342 g / cm^3
# Si number density = 19.507823 Si / 1000 Ang^3
#
#
#
# Elastic Constant Matrix: (Units=GPa)
#
#
# Indices 1 2 3 4 5 6 
#
# 1 93.1186 37.9233 29.4631 0.0000 0.0000 -0.0006
# 2 37.9233 135.8899 28.5288 0.0000 0.0000 -0.0012
# 3 29.4631 28.5288 116.0072 0.0000 0.0000 0.0001
# 4 0.0000 0.0000 0.0000 31.6784 0.0000 0.0000
# 5 0.0000 0.0000 0.0000 0.0000 11.8231 0.0000
# 6 -0.0006 -0.0012 0.0001 0.0000 0.0000 25.6141
#
#
#
# Elastic Compliance Matrix: (Units=1/GPa)
#
#
# Indices 1 2 3 4 5 6 
#
# 1 0.012766 -0.003039 -0.002495 0.000000 0.000000 0.000000
# 2 -0.003039 0.008483 -0.001314 0.000000 0.000000 0.000000
# 3 -0.002495 -0.001314 0.009577 0.000000 0.000000 0.000000
# 4 0.000000 0.000000 0.000000 0.031567 0.000000 0.000000
# 5 0.000000 0.000000 0.000000 0.000000 0.084580 0.000000
# 6 0.000000 0.000000 0.000000 0.000000 0.000000 0.039041
#
#
# Mechanical properties :
#
#
# Convention : Reuss Voigt Hill
#
# Bulk Modulus (GPa) = 58.37829 59.64956 59.01393
# Shear Modulus (GPa) = 24.34032 30.42981 27.38506
#
# Velocity S-wave (km/s) = 3.53614 3.95381 3.75080
# Velocity P-wave (km/s) = 6.83103 7.17545 7.00536
#
# Compressibility (1/GPa) = 0.01712966
#
# Stress axis : x y z
#
# Youngs Moduli (GPa) = 78.33303 117.88418 104.41646
#
# Poissons Ratio (x) = 0.35823 0.26051
# Poissons Ratio (y) = 0.23804 0.13724
# Poissons Ratio (z) = 0.19544 0.15494
#
# Static dielectric constant tensor:
#      x y z
#    x 3.351750 0.000000 0.000000 
#    y 0.000000 3.631140 0.000000 
#    z 0.000000 0.000000 4.552570 
# 
# 
# High freq. dielectric constant tensor:
#      x y z
#    x 1.736240 0.000000 0.000000 
#    y 0.000000 1.765780 0.000000 
#    z 0.000000 0.000000 1.752090 
# 
# From -- ./inp_files/4844.got.cif
#   From: 2010.03.12/outbox.cif.g09.slc.cpg/sg69_3_cif.got.tgz:4844.got - 2010.04.10 23:52:46.
