data_PCOD8284984
_publ_section_title
;
Structure prediction by ZEFSAII (Michael W. Deem and Ramdas Pophale) SiO2 
 PCOD8284984
Probable space group: F M M M
;
_chemical_formula_sum "Si O2"
_cell_formula_units_Z 160
_cell_length_a 17.237891
_cell_length_b 30.882004
_cell_length_c 14.918699
_cell_angle_alpha 90.000000
_cell_angle_beta 90.000000
_cell_angle_gamma 90.000000
_cell_volume 7941.829458
_symmetry_space_group_name_H-M "F M M M"
_symmetry_group_IT_number 69
_symmetry_cell_setting 'orthorhombic'
loop_
_space_group_symop_operation_xyz
x,y,z
-x,-y,z
x,-y,-z
-x,y,-z
-x,-y,-z
x,y,-z
-x,y,z
x,-y,z
x,1/2+y,1/2+z
-x,1/2-y,1/2+z
x,1/2-y,1/2-z
-x,1/2+y,1/2-z
-x,1/2-y,1/2-z
x,1/2+y,1/2-z
-x,1/2+y,1/2+z
x,1/2-y,1/2+z
1/2+x,y,1/2+z
1/2-x,-y,1/2+z
1/2+x,-y,1/2-z
1/2-x,y,1/2-z
1/2-x,-y,1/2-z
1/2+x,y,1/2-z
1/2-x,y,1/2+z
1/2+x,-y,1/2+z
1/2+x,1/2+y,z
1/2-x,1/2-y,z
1/2+x,1/2-y,-z
1/2-x,1/2+y,-z
1/2-x,1/2-y,-z
1/2+x,1/2+y,-z
1/2-x,1/2+y,z
1/2+x,1/2-y,z
loop_
_atom_site_type_symbol
_atom_site_label
_atom_site_fract_x
_atom_site_fract_y
_atom_site_fract_z
Si Si1 0.409009 0.547644 0.209429
Si Si2 0.088062 0.313715 0.500000
Si Si3 0.089740 0.931483 0.595341
Si Si4 0.663503 0.654832 0.360393
Si Si5 0.593801 0.282647 0.500000
Si Si6 0.842577 0.363188 0.661106
O O1 0.500000 0.559306 0.198220
O O2 0.391700 0.500000 0.167251
O O3 0.385047 0.543282 0.314902
O O4 0.356885 0.584510 0.161721
O O5 0.127269 0.266393 0.500000
O O6 0.103809 0.341729 0.412355
O O7 0.000000 0.301219 0.500000
O O8 0.106792 0.956372 0.500000
O O9 0.131840 0.885987 0.587034
O O10 0.000000 0.921099 0.603501
O O11 0.631672 0.697083 0.410415
O O12 0.755857 0.649964 0.363610
O O13 0.633727 0.655778 0.257884
O O14 0.500000 0.287928 0.500000
#
# Coordination Sequence:
#
# PCOD8284984 Si02
#       6
#    32  16  32  32  16  32
#     4   9  18  34  57  83 113 154 201 243 283 335
#     4  11  25  41  58  84 116 154 196 245 291 335
#     4   9  16  28  51  83 116 149 187 235 292 345
#     4  10  20  36  59  88 116 155 191 229 293 353
#     4  11  23  39  63  91 116 145 191 241 291 357
#     4  10  22  39  58  84 121 158 194 239 288 348
#
# _framework density 20.146491999999999
#
# number of rings (size 3 to 8) (size 9 to 14) (size 15 to 20)
#    0.000    2.200    1.000    1.800    0.000    5.200 
#    0.000   14.500    0.000    1.800    0.000    0.000 
#    0.000    0.000    0.000    0.000    0.000    0.000 
#
# Total GULP energy -495587.493304 kJ/mol
# GULP energy per Si atom -12389.687333 kJ/mol
# Density = 2.010064 g / cm^3
# Si number density = 20.146492 Si / 1000 Ang^3
#
#
#
# Elastic Constant Matrix: (Units=GPa)
#
#
# Indices 1 2 3 4 5 6 
#
# 1 134.2263 -123.2467 39.5451 0.0000 0.0000 0.0000
# 2 -123.2467 465.9470 59.7053 0.0000 0.0000 0.0000
# 3 39.5451 59.7053 101.6639 0.0000 0.0000 0.0000
# 4 0.0000 0.0000 0.0000 12.2763 0.0000 0.0000
# 5 0.0000 0.0000 0.0000 0.0000 26.4181 0.0000
# 6 0.0000 0.0000 0.0000 0.0000 0.0000 -342.0646
#
#
#
# Elastic Compliance Matrix: (Units=1/GPa)
#
#
# Indices 1 2 3 4 5 6 
#
# 1 0.014481 0.004923 -0.008524 0.000000 0.000000 0.000000
# 2 0.004923 0.003994 -0.004261 0.000000 0.000000 0.000000
# 3 -0.008524 -0.004261 0.015654 0.000000 0.000000 0.000000
# 4 0.000000 0.000000 0.000000 0.081458 0.000000 0.000000
# 5 0.000000 0.000000 0.000000 0.000000 0.037853 0.000000
# 6 0.000000 0.000000 0.000000 0.000000 0.000000 -0.002923
#
#
# Mechanical properties :
#
#
# Convention : Reuss Voigt Hill
#
# Bulk Modulus (GPa) = 54.32985 72.64939 63.48962
# Shear Modulus (GPa) = 29.00633 -12.28515 8.36059
#
# Velocity S-wave (km/s) = 3.79855 -2.47207 2.03934
# Velocity P-wave (km/s) = 6.80181 5.29062 6.09324
#
# Compressibility (1/GPa) = 0.01840609
#
# Stress axis : x y z
#
# Youngs Moduli (GPa) = 69.05405 250.36344 63.88097
#
# Poissons Ratio (x) = -1.23246 0.54452
# Poissons Ratio (y) = -0.33993 0.27217
# Poissons Ratio (z) = 0.58861 1.06668
#
# Static dielectric constant tensor:
#      x y z
#    x 3.547970 0.000000 0.000000 
#    y 0.000000 3.415560 0.000000 
#    z 0.000000 0.000000 3.700020 
# 
# 
# High freq. dielectric constant tensor:
#      x y z
#    x 1.776540 0.000000 0.000000 
#    y 0.000000 1.779440 0.000000 
#    z 0.000000 0.000000 1.789880 
# 
# From -- ./inp_files/15709.got.cif
#   From: 2010.03.12/outbox.cif.g09.slc.cpg/sg69_8_cif.got.tgz:15709.got - 2010.04.10 23:52:46.
