data_PCOD8284087
_publ_section_title
;
Structure prediction by ZEFSAII (Michael W. Deem and Ramdas Pophale) SiO2 
 PCOD8284087
Probable space group: F M M M
;
_chemical_formula_sum "Si O2"
_cell_formula_units_Z 192
_cell_length_a 23.594637
_cell_length_b 15.048041
_cell_length_c 27.682058
_cell_angle_alpha 90.000000
_cell_angle_beta 90.000000
_cell_angle_gamma 90.000000
_cell_volume 9828.599537
_symmetry_space_group_name_H-M "F M M M"
_symmetry_group_IT_number 69
_symmetry_cell_setting 'orthorhombic'
loop_
_space_group_symop_operation_xyz
x,y,z
-x,-y,z
x,-y,-z
-x,y,-z
-x,-y,-z
x,y,-z
-x,y,z
x,-y,z
x,1/2+y,1/2+z
-x,1/2-y,1/2+z
x,1/2-y,1/2-z
-x,1/2+y,1/2-z
-x,1/2-y,1/2-z
x,1/2+y,1/2-z
-x,1/2+y,1/2+z
x,1/2-y,1/2+z
1/2+x,y,1/2+z
1/2-x,-y,1/2+z
1/2+x,-y,1/2-z
1/2-x,y,1/2-z
1/2-x,-y,1/2-z
1/2+x,y,1/2-z
1/2-x,y,1/2+z
1/2+x,-y,1/2+z
1/2+x,1/2+y,z
1/2-x,1/2-y,z
1/2+x,1/2-y,-z
1/2-x,1/2+y,-z
1/2-x,1/2-y,-z
1/2+x,1/2+y,-z
1/2-x,1/2+y,z
1/2+x,1/2-y,z
loop_
_atom_site_type_symbol
_atom_site_label
_atom_site_fract_x
_atom_site_fract_y
_atom_site_fract_z
Si Si1 0.852682 0.897149 0.361612
Si Si2 0.064871 0.250430 0.606175
Si Si3 0.685922 0.145275 0.244667
Si Si4 0.936177 0.315047 0.500000
Si Si5 0.262579 0.394933 0.095330
Si Si6 0.134944 0.600970 0.658421
Si Si7 0.818330 0.896977 0.000000
O O1 0.906662 0.840192 0.376321
O O2 0.839162 0.886574 0.305615
O O3 0.799836 0.858423 0.392871
O O4 0.865005 0.000000 0.373525
O O5 0.072084 0.256748 0.548232
O O6 0.087739 0.336010 0.635147
O O7 0.000000 0.242866 0.620958
O O8 0.686533 0.250000 0.250000
O O9 0.750000 0.107083 0.250000
O O10 0.641723 0.106854 0.283997
O O11 0.886522 0.388104 0.500000
O O12 0.000000 0.357889 0.500000
O O13 0.259249 0.500000 0.091121
O O14 0.304112 0.367439 0.138553
O O15 0.288488 0.352417 0.046511
O O16 0.119696 0.500000 0.642939
O O17 0.804697 0.000000 0.000000
#
# Coordination Sequence:
#
# PCOD8284087 Si02
#       7
#    32  32  32  16  32  32  16
#     4  11  23  41  64  90 123 165 207 253 309 361
#     4  11  25  44  63  88 122 161 214 261 299 359
#     4  11  21  35  62  96 128 163 203 246 303 375
#     4  10  22  40  60  85 121 165 209 256 297 353
#     4   9  19  33  56  89 125 157 193 245 305 370
#     4  11  21  37  61  91 128 162 195 246 309 368
#     4  10  18  34  57  90 129 163 201 250 308 375
#
# _framework density 19.534828000000001
#
# number of rings (size 3 to 8) (size 9 to 14) (size 15 to 20)
#    0.000    1.500    5.000    0.500    0.000    2.833 
#    0.000    5.417    0.000    3.500    0.000    0.000 
#    0.000    0.000    0.000    0.000    0.000    0.000 
#
# Total GULP energy -595112.171882 kJ/mol
# GULP energy per Si atom -12398.170248 kJ/mol
# Density = 1.949037 g / cm^3
# Si number density = 19.534828 Si / 1000 Ang^3
#
#
#
# Elastic Constant Matrix: (Units=GPa)
#
#
# Indices 1 2 3 4 5 6 
#
# 1 147.2692 58.9474 65.6355 0.0000 0.0000 0.0000
# 2 58.9474 82.9970 29.0272 0.0000 0.0000 0.0000
# 3 65.6355 29.0272 136.8670 0.0000 0.0000 0.0000
# 4 0.0000 0.0000 0.0000 11.8892 0.0000 0.0000
# 5 0.0000 0.0000 0.0000 0.0000 25.8821 0.0000
# 6 0.0000 0.0000 0.0000 0.0000 0.0000 20.0779
#
#
#
# Elastic Compliance Matrix: (Units=1/GPa)
#
#
# Indices 1 2 3 4 5 6 
#
# 1 0.011185 -0.006554 -0.003974 0.000000 0.000000 0.000000
# 2 -0.006554 0.016854 -0.000432 0.000000 0.000000 0.000000
# 3 -0.003974 -0.000432 0.009303 0.000000 0.000000 0.000000
# 4 0.000000 0.000000 0.000000 0.084110 0.000000 0.000000
# 5 0.000000 0.000000 0.000000 0.000000 0.038637 0.000000
# 6 0.000000 0.000000 0.000000 0.000000 0.000000 0.049806
#
#
# Mechanical properties :
#
#
# Convention : Reuss Voigt Hill
#
# Bulk Modulus (GPa) = 64.83331 74.92813 69.88072
# Shear Modulus (GPa) = 21.10102 25.80470 23.45286
#
# Velocity S-wave (km/s) = 3.29017 3.63844 3.46868
# Velocity P-wave (km/s) = 6.90610 7.48936 7.20363
#
# Compressibility (1/GPa) = 0.01542417
#
# Stress axis : x y z
#
# Youngs Moduli (GPa) = 89.40817 59.33155 107.48651
#
# Poissons Ratio (x) = 0.38886 0.42712
# Poissons Ratio (y) = 0.58598 0.04638
# Poissons Ratio (z) = 0.35528 0.02560
#
# Static dielectric constant tensor:
#      x y z
#    x 3.545160 0.000000 0.000000 
#    y 0.000000 3.378640 0.000000 
#    z 0.000000 0.000000 3.869870 
# 
# 
# High freq. dielectric constant tensor:
#      x y z
#    x 1.746530 0.000000 0.000000 
#    y 0.000000 1.749310 0.000000 
#    z 0.000000 0.000000 1.776430 
# 
# From -- ./inp_files/38373.got.cif
#   From: 2010.03.12/outbox.cif.g09.slc.cpg/sg69_20_cif.got.tgz:38373.got - 2010.04.10 23:52:46.
