data_PCOD8284401
_publ_section_title
;
Structure prediction by ZEFSAII (Michael W. Deem and Ramdas Pophale) SiO2 
 PCOD8284401
Probable space group: F M M M
;
_chemical_formula_sum "Si O2"
_cell_formula_units_Z 144
_cell_length_a 17.853583
_cell_length_b 17.624923
_cell_length_c 23.853227
_cell_angle_alpha 90.000000
_cell_angle_beta 90.000000
_cell_angle_gamma 90.000000
_cell_volume 7505.847845
_symmetry_space_group_name_H-M "F M M M"
_symmetry_group_IT_number 69
_symmetry_cell_setting 'orthorhombic'
loop_
_space_group_symop_operation_xyz
x,y,z
-x,-y,z
x,-y,-z
-x,y,-z
-x,-y,-z
x,y,-z
-x,y,z
x,-y,z
x,1/2+y,1/2+z
-x,1/2-y,1/2+z
x,1/2-y,1/2-z
-x,1/2+y,1/2-z
-x,1/2-y,1/2-z
x,1/2+y,1/2-z
-x,1/2+y,1/2+z
x,1/2-y,1/2+z
1/2+x,y,1/2+z
1/2-x,-y,1/2+z
1/2+x,-y,1/2-z
1/2-x,y,1/2-z
1/2-x,-y,1/2-z
1/2+x,y,1/2-z
1/2-x,y,1/2+z
1/2+x,-y,1/2+z
1/2+x,1/2+y,z
1/2-x,1/2-y,z
1/2+x,1/2-y,-z
1/2-x,1/2+y,-z
1/2-x,1/2-y,-z
1/2+x,1/2+y,-z
1/2-x,1/2+y,z
1/2+x,1/2-y,z
loop_
_atom_site_type_symbol
_atom_site_label
_atom_site_fract_x
_atom_site_fract_y
_atom_site_fract_z
Si Si1 0.164961 0.839665 0.253732
Si Si2 0.290348 0.089981 0.562979
Si Si3 0.500000 0.589911 0.561854
Si Si4 0.414677 0.910541 0.351650
Si Si5 0.355862 0.409888 0.370776
O O1 0.161054 0.750000 0.250000
O O2 0.250000 0.869626 0.250000
O O3 0.114691 0.873232 0.204781
O O4 0.132377 0.868325 0.312153
O O5 0.290555 0.124491 0.500000
O O6 0.365230 0.116634 0.595295
O O7 0.218667 0.119466 0.597725
O O8 0.286373 0.000000 0.558866
O O9 0.500000 0.500000 0.558211
O O10 0.500000 0.625772 0.500000
O O11 0.425775 0.617807 0.592803
O O12 0.500000 0.885434 0.363003
O O13 0.407803 0.000000 0.343689
O O14 0.353979 0.500000 0.361247
#
# Coordination Sequence:
#
# PCOD8284401 Si02
#       5
#    32  32  16  32  32
#     4  11  23  38  56  79 108 147 186 229 277 327
#     4   9  17  31  54  82 108 139 179 224 277 328
#     4   9  18  32  53  86 118 140 175 228 278 329
#     4  10  21  36  56  83 112 142 180 228 273 322
#     4  10  19  33  56  83 111 144 182 228 277 328
#
# _framework density 19.185040999999998
#
# number of rings (size 3 to 8) (size 9 to 14) (size 15 to 20)
#    0.000    2.111    2.222    1.333    1.556    4.444 
#    0.000    2.222    0.000    4.000    0.000    0.000 
#    0.000    0.000    0.000    0.000    0.000    0.000 
#
# Total GULP energy -446442.009158 kJ/mol
# GULP energy per Si atom -12401.166921 kJ/mol
# Density = 1.914137 g / cm^3
# Si number density = 19.185041 Si / 1000 Ang^3
#
#
#
# Elastic Constant Matrix: (Units=GPa)
#
#
# Indices 1 2 3 4 5 6 
#
# 1 159.0813 30.2684 69.2801 0.0000 0.0000 0.0000
# 2 30.2684 26.8819 33.6844 0.0000 0.0000 0.0000
# 3 69.2801 33.6844 172.8014 0.0000 0.0000 0.0000
# 4 0.0000 0.0000 0.0000 -6.1163 0.0000 0.0000
# 5 0.0000 0.0000 0.0000 0.0000 32.8522 0.0000
# 6 0.0000 0.0000 0.0000 0.0000 0.0000 14.0504
#
#
#
# Elastic Compliance Matrix: (Units=1/GPa)
#
#
# Indices 1 2 3 4 5 6 
#
# 1 0.008513 -0.007024 -0.002044 0.000000 0.000000 0.000000
# 2 -0.007024 0.055019 -0.007909 0.000000 0.000000 0.000000
# 3 -0.002044 -0.007909 0.008148 0.000000 0.000000 0.000000
# 4 0.000000 0.000000 0.000000 -0.163499 0.000000 0.000000
# 5 0.000000 0.000000 0.000000 0.000000 0.030439 0.000000
# 6 0.000000 0.000000 0.000000 0.000000 0.000000 0.071172
#
#
# Mechanical properties :
#
#
# Convention : Reuss Voigt Hill
#
# Bulk Modulus (GPa) = 26.50675 69.47005 47.98840
# Shear Modulus (GPa) = 88.77735 23.19273 55.98504
#
# Velocity S-wave (km/s) = 6.80990 3.48069 5.40786
# Velocity P-wave (km/s) = 8.69939 7.24174 8.00381
#
# Compressibility (1/GPa) = 0.03772624
#
# Stress axis : x y z
#
# Youngs Moduli (GPa) = 117.47291 18.17565 122.72952
#
# Poissons Ratio (x) = 0.12767 0.25082
# Poissons Ratio (y) = 0.82515 0.97063
# Poissons Ratio (z) = 0.24008 0.14375
#
# Static dielectric constant tensor:
#      x y z
#    x 3.766760 0.000000 0.000000 
#    y 0.000000 3.036430 0.000000 
#    z 0.000000 0.000000 4.526090 
# 
# 
# High freq. dielectric constant tensor:
#      x y z
#    x 1.759600 0.000000 0.000000 
#    y 0.000000 1.698910 0.000000 
#    z 0.000000 0.000000 1.762100 
# 
# From -- ./inp_files/22864.got.cif
#   From: 2010.03.12/outbox.cif.g09.slc.cpg/sg69_12_cif.got.tgz:22864.got - 2010.04.10 23:52:46.
