data_PCOD8284299
_publ_section_title
;
Structure prediction by ZEFSAII (Michael W. Deem and Ramdas Pophale) SiO2 
 PCOD8284299
Probable space group: F M M M
;
_chemical_formula_sum "Si O2"
_cell_formula_units_Z 192
_cell_length_a 30.055496
_cell_length_b 19.124269
_cell_length_c 19.002048
_cell_angle_alpha 90.000000
_cell_angle_beta 90.000000
_cell_angle_gamma 90.000000
_cell_volume 10922.175587
_symmetry_space_group_name_H-M "F M M M"
_symmetry_group_IT_number 69
_symmetry_cell_setting 'orthorhombic'
loop_
_space_group_symop_operation_xyz
x,y,z
-x,-y,z
x,-y,-z
-x,y,-z
-x,-y,-z
x,y,-z
-x,y,z
x,-y,z
x,1/2+y,1/2+z
-x,1/2-y,1/2+z
x,1/2-y,1/2-z
-x,1/2+y,1/2-z
-x,1/2-y,1/2-z
x,1/2+y,1/2-z
-x,1/2+y,1/2+z
x,1/2-y,1/2+z
1/2+x,y,1/2+z
1/2-x,-y,1/2+z
1/2+x,-y,1/2-z
1/2-x,y,1/2-z
1/2-x,-y,1/2-z
1/2+x,y,1/2-z
1/2-x,y,1/2+z
1/2+x,-y,1/2+z
1/2+x,1/2+y,z
1/2-x,1/2-y,z
1/2+x,1/2-y,-z
1/2-x,1/2+y,-z
1/2-x,1/2-y,-z
1/2+x,1/2+y,-z
1/2-x,1/2+y,z
1/2+x,1/2-y,z
loop_
_atom_site_type_symbol
_atom_site_label
_atom_site_fract_x
_atom_site_fract_y
_atom_site_fract_z
Si Si1 0.298857 0.226527 0.669777
Si Si2 0.050995 0.328391 0.726762
Si Si3 0.296491 0.923147 0.288046
Si Si4 0.368424 0.688958 0.579301
Si Si5 0.619422 0.921801 0.810086
Si Si6 0.949740 0.713792 0.576869
O O1 0.308519 0.250000 0.750000
O O2 0.250000 0.250000 0.645670
O O3 0.303380 0.142297 0.659605
O O4 0.335049 0.259802 0.619326
O O5 0.064245 0.250000 0.750000
O O6 0.081969 0.382822 0.765588
O O7 0.059307 0.338064 0.642498
O O8 0.000000 0.344310 0.746708
O O9 0.250000 0.910253 0.250000
O O10 0.334255 0.921228 0.229884
O O11 0.296898 0.000000 0.326157
O O12 0.351088 0.679309 0.500000
O O13 0.371336 0.613581 0.615047
O O14 0.417850 0.719917 0.581592
O O15 0.602361 0.000000 0.823803
O O16 0.943334 0.676137 0.500000
O O17 0.000000 0.743029 0.584092
#
# Coordination Sequence:
#
# PCOD8284299 Si02
#       6
#    32  32  32  32  32  32
#     4  11  19  34  57  81 106 141 185 234 276 327
#     4  10  19  33  56  80 104 139 181 229 272 319
#     4  10  19  32  52  80 109 139 177 221 276 333
#     4  11  22  34  53  78 108 146 184 229 275 326
#     4  11  22  34  52  78 109 144 179 225 277 327
#     4   9  18  32  52  79 107 137 176 219 271 329
#
# _framework density 17.578914999999999
#
# number of rings (size 3 to 8) (size 9 to 14) (size 15 to 20)
#    0.000    1.667    5.000    1.000    0.000    1.000 
#    0.000    0.000    0.000    1.000    0.000   10.500 
#    0.000    0.000    0.000    0.000    0.000    0.000 
#
# Total GULP energy -594979.814720 kJ/mol
# GULP energy per Si atom -12395.412807 kJ/mol
# Density = 1.753890 g / cm^3
# Si number density = 17.578915 Si / 1000 Ang^3
#
#
#
# Elastic Constant Matrix: (Units=GPa)
#
#
# Indices 1 2 3 4 5 6 
#
# 1 96.2597 52.8911 50.8731 0.0000 0.0000 0.0000
# 2 52.8911 150.8370 64.1094 0.0000 0.0000 0.0000
# 3 50.8731 64.1094 109.6108 0.0000 0.0000 0.0000
# 4 0.0000 0.0000 0.0000 18.9344 0.0000 0.0000
# 5 0.0000 0.0000 0.0000 0.0000 15.6611 0.0000
# 6 0.0000 0.0000 0.0000 0.0000 0.0000 66.4508
#
#
#
# Elastic Compliance Matrix: (Units=1/GPa)
#
#
# Indices 1 2 3 4 5 6 
#
# 1 0.014722 -0.003005 -0.005075 0.000000 0.000000 0.000000
# 2 -0.003005 0.009436 -0.004124 0.000000 0.000000 0.000000
# 3 -0.005075 -0.004124 0.013891 0.000000 0.000000 0.000000
# 4 0.000000 0.000000 0.000000 0.052814 0.000000 0.000000
# 5 0.000000 0.000000 0.000000 0.000000 0.063852 0.000000
# 6 0.000000 0.000000 0.000000 0.000000 0.000000 0.015049
#
#
# Mechanical properties :
#
#
# Convention : Reuss Voigt Hill
#
# Bulk Modulus (GPa) = 73.31444 76.93940 75.12692
# Shear Modulus (GPa) = 25.16094 32.79820 28.97957
#
# Velocity S-wave (km/s) = 3.78738 4.32414 4.06463
# Velocity P-wave (km/s) = 7.80526 8.29421 8.05345
#
# Compressibility (1/GPa) = 0.01363988
#
# Stress axis : x y z
#
# Youngs Moduli (GPa) = 67.92540 105.97233 71.98914
#
# Poissons Ratio (x) = 0.31847 0.36536
# Poissons Ratio (y) = 0.20413 0.29691
# Poissons Ratio (z) = 0.34473 0.43707
#
# Static dielectric constant tensor:
#      x y z
#    x 3.352450 0.000000 0.000000 
#    y 0.000000 3.468370 0.000000 
#    z 0.000000 0.000000 3.426220 
# 
# 
# High freq. dielectric constant tensor:
#      x y z
#    x 1.700850 0.000000 0.000000 
#    y 0.000000 1.661190 0.000000 
#    z 0.000000 0.000000 1.661960 
# 
# From -- ./inp_files/33534.got.cif
#   From: 2010.03.12/outbox.cif.g09.slc.cpg/sg69_17_cif.got.tgz:33534.got - 2010.04.10 23:52:46.
