data_PCOD8284244
_publ_section_title
;
Structure prediction by ZEFSAII (Michael W. Deem and Ramdas Pophale) SiO2 
 PCOD8284244
Probable space group: F M M M
;
_chemical_formula_sum "Si O2"
_cell_formula_units_Z 112
_cell_length_a 20.123865
_cell_length_b 7.910469
_cell_length_c 39.432384
_cell_angle_alpha 90.000000
_cell_angle_beta 90.000000
_cell_angle_gamma 90.000000
_cell_volume 6277.210067
_symmetry_space_group_name_H-M "F M M M"
_symmetry_group_IT_number 69
_symmetry_cell_setting 'orthorhombic'
loop_
_space_group_symop_operation_xyz
x,y,z
-x,-y,z
x,-y,-z
-x,y,-z
-x,-y,-z
x,y,-z
-x,y,z
x,-y,z
x,1/2+y,1/2+z
-x,1/2-y,1/2+z
x,1/2-y,1/2-z
-x,1/2+y,1/2-z
-x,1/2-y,1/2-z
x,1/2+y,1/2-z
-x,1/2+y,1/2+z
x,1/2-y,1/2+z
1/2+x,y,1/2+z
1/2-x,-y,1/2+z
1/2+x,-y,1/2-z
1/2-x,y,1/2-z
1/2-x,-y,1/2-z
1/2+x,y,1/2-z
1/2-x,y,1/2+z
1/2+x,-y,1/2+z
1/2+x,1/2+y,z
1/2-x,1/2-y,z
1/2+x,1/2-y,-z
1/2-x,1/2+y,-z
1/2-x,1/2-y,-z
1/2+x,1/2+y,-z
1/2-x,1/2+y,z
1/2+x,1/2-y,z
loop_
_atom_site_type_symbol
_atom_site_label
_atom_site_fract_x
_atom_site_fract_y
_atom_site_fract_z
Si Si1 0.920687 0.500000 0.038385
Si Si2 0.324347 0.697582 0.212307
Si Si3 0.920991 0.811545 0.917722
Si Si4 0.073716 0.700072 0.341998
O O1 0.892975 0.330161 0.056532
O O2 0.000000 0.500000 0.039677
O O3 0.894244 0.500000 0.000000
O O4 0.329311 0.500000 0.209315
O O5 0.345040 0.750000 0.250000
O O6 0.250000 0.750000 0.203067
O O7 0.375573 0.780585 0.185443
O O8 0.899807 0.756916 0.879720
O O9 0.000000 0.818778 0.919408
O O10 0.893171 0.000000 0.926918
O O11 0.069387 0.500000 0.337940
O O12 0.000000 0.777706 0.336088
#
# Coordination Sequence:
#
# PCOD8284244 Si02
#       4
#    16  32  32  32
#     4   9  16  24  36  60  92 121 150 182 219 274
#     4  10  19  32  47  64  90 120 150 188 235 279
#     4   8  14  26  41  58  84 118 152 185 227 270
#     4   8  15  29  48  65  85 119 156 191 229 271
#
# _framework density 17.842323
#
# number of rings (size 3 to 8) (size 9 to 14) (size 15 to 20)
#    0.000    3.286    0.000    3.429    0.000    1.143 
#    5.143    2.857    0.000    0.000    0.000    0.000 
#    0.000    1.143    0.571    0.000    0.000    0.000 
#
# Total GULP energy -346970.418043 kJ/mol
# GULP energy per Si atom -12391.800644 kJ/mol
# Density = 1.780171 g / cm^3
# Si number density = 17.842323 Si / 1000 Ang^3
#
#
#
# Elastic Constant Matrix: (Units=GPa)
#
#
# Indices 1 2 3 4 5 6 
#
# 1 50.4548 24.4159 63.2340 0.0000 0.0000 0.0000
# 2 24.4159 83.3685 63.1719 0.0000 0.0000 0.0000
# 3 63.2340 63.1719 165.4826 0.0000 0.0000 0.0000
# 4 0.0000 0.0000 0.0000 25.2126 0.0000 0.0000
# 5 0.0000 0.0000 0.0000 0.0000 5.9933 0.0000
# 6 0.0000 0.0000 0.0000 0.0000 0.0000 8.3841
#
#
#
# Elastic Compliance Matrix: (Units=1/GPa)
#
#
# Indices 1 2 3 4 5 6 
#
# 1 0.038036 -0.000178 -0.014467 0.000000 0.000000 0.000000
# 2 -0.000178 0.016878 -0.006375 0.000000 0.000000 0.000000
# 3 -0.014467 -0.006375 0.014005 0.000000 0.000000 0.000000
# 4 0.000000 0.000000 0.000000 0.039663 0.000000 0.000000
# 5 0.000000 0.000000 0.000000 0.000000 0.166853 0.000000
# 6 0.000000 0.000000 0.000000 0.000000 0.000000 0.119273
#
#
# Mechanical properties :
#
#
# Convention : Reuss Voigt Hill
#
# Bulk Modulus (GPa) = 37.20247 66.77218 51.98733
# Shear Modulus (GPa) = 11.21817 17.81694 14.51756
#
# Velocity S-wave (km/s) = 2.51019 3.16346 2.85556
# Velocity P-wave (km/s) = 5.41270 7.13078 6.33030
#
# Compressibility (1/GPa) = 0.02687994
#
# Stress axis : x y z
#
# Youngs Moduli (GPa) = 26.29062 59.25016 71.40554
#
# Poissons Ratio (x) = 0.01053 1.03300
# Poissons Ratio (y) = 0.00467 0.45521
# Poissons Ratio (z) = 0.38034 0.37772
#
# Static dielectric constant tensor:
#      x y z
#    x 0.914110 0.000000 0.000000 
#    y 0.000000 3.406730 0.000000 
#    z 0.000000 0.000000 0.316880 
# 
# 
# High freq. dielectric constant tensor:
#      x y z
#    x 1.631770 0.000000 0.000000 
#    y 0.000000 1.687820 0.000000 
#    z 0.000000 0.000000 1.692880 
# 
# From -- ./inp_files/3967.got.cif
#   From: 2010.03.12/outbox.cif.g09.slc.cpg/sg69_2_cif.got.tgz:3967.got - 2010.04.10 23:52:46.
