data_PCOD8284765
_publ_section_title
;
Structure prediction by ZEFSAII (Michael W. Deem and Ramdas Pophale) SiO2 
 PCOD8284765
Probable space group: F M M M
;
_chemical_formula_sum "Si O2"
_cell_formula_units_Z 160
_cell_length_a 23.427506
_cell_length_b 14.535041
_cell_length_c 23.280765
_cell_angle_alpha 90.000000
_cell_angle_beta 90.000000
_cell_angle_gamma 90.000000
_cell_volume 7927.560516
_symmetry_space_group_name_H-M "F M M M"
_symmetry_group_IT_number 69
_symmetry_cell_setting 'orthorhombic'
loop_
_space_group_symop_operation_xyz
x,y,z
-x,-y,z
x,-y,-z
-x,y,-z
-x,-y,-z
x,y,-z
-x,y,z
x,-y,z
x,1/2+y,1/2+z
-x,1/2-y,1/2+z
x,1/2-y,1/2-z
-x,1/2+y,1/2-z
-x,1/2-y,1/2-z
x,1/2+y,1/2-z
-x,1/2+y,1/2+z
x,1/2-y,1/2+z
1/2+x,y,1/2+z
1/2-x,-y,1/2+z
1/2+x,-y,1/2-z
1/2-x,y,1/2-z
1/2-x,-y,1/2-z
1/2+x,y,1/2-z
1/2-x,y,1/2+z
1/2+x,-y,1/2+z
1/2+x,1/2+y,z
1/2-x,1/2-y,z
1/2+x,1/2-y,-z
1/2-x,1/2+y,-z
1/2-x,1/2-y,-z
1/2+x,1/2+y,-z
1/2-x,1/2+y,z
1/2+x,1/2-y,z
loop_
_atom_site_type_symbol
_atom_site_label
_atom_site_fract_x
_atom_site_fract_y
_atom_site_fract_z
Si Si1 0.563479 0.791438 0.874270
Si Si2 0.935295 0.397527 0.761569
Si Si3 0.784634 0.891320 0.063976
Si Si4 0.839418 0.899218 0.432831
Si Si5 0.891179 0.604017 0.359978
O O1 0.500000 0.827011 0.889705
O O2 0.580033 0.821945 0.809467
O O3 0.609007 0.833263 0.917071
O O4 0.563888 0.680663 0.880974
O O5 0.931206 0.500000 0.788692
O O6 0.890150 0.390352 0.709326
O O7 0.000000 0.380481 0.738303
O O8 0.722134 0.853313 0.083619
O O9 0.830490 0.866474 0.112907
O O10 0.777663 0.000000 0.058973
O O11 0.802160 0.853276 0.000000
O O12 0.840318 0.912646 0.500000
O O13 0.847200 0.000000 0.403449
O O14 0.908752 0.500000 0.379659
#
# Coordination Sequence:
#
# PCOD8284765 Si02
#       5
#    32  32  32  32  32
#     4  11  22  34  52  80 111 142 178 217 258 310
#     4   9  18  34  55  77 104 140 179 219 265 313
#     4   8  16  34  58  80 103 135 175 217 263 314
#     4   9  19  37  59  81 106 136 172 219 273 321
#     4  10  20  34  54  79 106 140 180 218 258 309
#
# _framework density 20.182753000000002
#
# number of rings (size 3 to 8) (size 9 to 14) (size 15 to 20)
#    0.000    2.600    0.000    3.000    0.000    6.000 
#    0.000    4.000    0.000    9.000    0.000   14.000 
#    0.000    0.000    0.000    0.000    0.000    0.000 
#
# Total GULP energy -495606.700130 kJ/mol
# GULP energy per Si atom -12390.167503 kJ/mol
# Density = 2.013682 g / cm^3
# Si number density = 20.182753 Si / 1000 Ang^3
#
#
#
# Elastic Constant Matrix: (Units=GPa)
#
#
# Indices 1 2 3 4 5 6 
#
# 1 116.7598 41.0391 58.2512 0.0000 0.0000 0.0000
# 2 41.0391 91.0798 21.6705 0.0000 0.0000 0.0000
# 3 58.2512 21.6705 52.5789 0.0000 0.0000 0.0000
# 4 0.0000 0.0000 0.0000 14.9654 0.0000 0.0000
# 5 0.0000 0.0000 0.0000 0.0000 34.0011 0.0000
# 6 0.0000 0.0000 0.0000 0.0000 0.0000 22.0059
#
#
#
# Elastic Compliance Matrix: (Units=1/GPa)
#
#
# Indices 1 2 3 4 5 6 
#
# 1 0.020537 -0.004258 -0.020997 0.000000 0.000000 0.000000
# 2 -0.004258 0.013056 -0.000664 0.000000 0.000000 0.000000
# 3 -0.020997 -0.000664 0.042555 0.000000 0.000000 0.000000
# 4 0.000000 0.000000 0.000000 0.066821 0.000000 0.000000
# 5 0.000000 0.000000 0.000000 0.000000 0.029411 0.000000
# 6 0.000000 0.000000 0.000000 0.000000 0.000000 0.045442
#
#
# Mechanical properties :
#
#
# Convention : Reuss Voigt Hill
#
# Bulk Modulus (GPa) = 41.13590 55.81556 48.47573
# Shear Modulus (GPa) = 18.00099 23.49168 20.74634
#
# Velocity S-wave (km/s) = 2.98971 3.41537 3.20960
# Velocity P-wave (km/s) = 5.68716 6.57785 6.14865
#
# Compressibility (1/GPa) = 0.02430966
#
# Stress axis : x y z
#
# Youngs Moduli (GPa) = 48.69367 76.59444 23.49889
#
# Poissons Ratio (x) = 0.32611 0.49341
# Poissons Ratio (y) = 0.20732 0.01561
# Poissons Ratio (z) = 1.02243 0.05087
#
# Static dielectric constant tensor:
#      x y z
#    x 3.814890 0.000000 0.000000 
#    y 0.000000 3.965200 0.000000 
#    z 0.000000 0.000000 3.417440 
# 
# 
# High freq. dielectric constant tensor:
#      x y z
#    x 1.774030 0.000000 0.000000 
#    y 0.000000 1.801290 0.000000 
#    z 0.000000 0.000000 1.759310 
# 
# From -- ./inp_files/17690.got.cif
#   From: 2010.03.12/outbox.cif.g09.slc.cpg/sg69_9_cif.got.tgz:17690.got - 2010.04.10 23:52:46.
