data_PCOD8284133
_publ_section_title
;
Structure prediction by ZEFSAII (Michael W. Deem and Ramdas Pophale) SiO2 
 PCOD8284133
Probable space group: F M M M
;
_chemical_formula_sum "Si O2"
_cell_formula_units_Z 192
_cell_length_a 30.259935
_cell_length_b 26.690514
_cell_length_c 14.514449
_cell_angle_alpha 90.000000
_cell_angle_beta 90.000000
_cell_angle_gamma 90.000000
_cell_volume 11722.641453
_symmetry_space_group_name_H-M "F M M M"
_symmetry_group_IT_number 69
_symmetry_cell_setting 'orthorhombic'
loop_
_space_group_symop_operation_xyz
x,y,z
-x,-y,z
x,-y,-z
-x,y,-z
-x,-y,-z
x,y,-z
-x,y,z
x,-y,z
x,1/2+y,1/2+z
-x,1/2-y,1/2+z
x,1/2-y,1/2-z
-x,1/2+y,1/2-z
-x,1/2-y,1/2-z
x,1/2+y,1/2-z
-x,1/2+y,1/2+z
x,1/2-y,1/2+z
1/2+x,y,1/2+z
1/2-x,-y,1/2+z
1/2+x,-y,1/2-z
1/2-x,y,1/2-z
1/2-x,-y,1/2-z
1/2+x,y,1/2-z
1/2-x,y,1/2+z
1/2+x,-y,1/2+z
1/2+x,1/2+y,z
1/2-x,1/2-y,z
1/2+x,1/2-y,-z
1/2-x,1/2+y,-z
1/2-x,1/2-y,-z
1/2+x,1/2+y,-z
1/2-x,1/2+y,z
1/2+x,1/2-y,z
loop_
_atom_site_type_symbol
_atom_site_label
_atom_site_fract_x
_atom_site_fract_y
_atom_site_fract_z
Si Si1 0.169120 0.057318 0.000000
Si Si2 0.321540 0.808017 0.743514
Si Si3 0.450221 0.058794 0.605413
Si Si4 0.791700 0.941450 0.305226
Si Si5 0.133235 0.599930 0.685894
Si Si6 0.753951 0.690898 0.102891
Si Si7 0.773378 0.443762 0.000000
O O1 0.153662 0.088854 0.912981
O O2 0.221055 0.053982 0.000000
O O3 0.149504 0.000000 0.000000
O O4 0.335378 0.750000 0.750000
O O5 0.364139 0.842255 0.720998
O O6 0.289153 0.823899 0.660385
O O7 0.298136 0.823538 0.839700
O O8 0.435646 0.071096 0.500000
O O9 0.500000 0.078241 0.622347
O O10 0.418454 0.085565 0.680040
O O11 0.447732 0.000000 0.622574
O O12 0.750000 0.917678 0.250000
O O13 0.839057 0.932776 0.258965
O O14 0.790468 0.916078 0.407165
O O15 0.782700 0.000000 0.315639
O O16 0.750000 0.750000 0.092100
O O17 0.754739 0.665821 0.000000
O O18 0.792866 0.500000 0.000000
#
# Coordination Sequence:
#
# PCOD8284133 Si02
#       7
#    16  32  32  32  32  32  16
#     4  11  20  30  47  75 106 134 172 205 241 313
#     4   9  20  33  43  67  98 127 175 220 248 293
#     4   9  18  33  53  79 109 132 156 202 259 317
#     4  10  19  30  43  64  97 135 170 203 241 296
#     4  12  21  30  50  74  98 138 171 203 255 310
#     4   8  15  30  48  61  89 134 173 218 261 284
#     4   9  18  30  40  60 102 140 163 198 240 290
#
# _framework density 16.378561999999999
#
# number of rings (size 3 to 8) (size 9 to 14) (size 15 to 20)
#    0.000    2.333    2.500    3.000    3.500    0.000 
#    1.500    0.000    0.000    0.500    0.000    0.583 
#    0.000    3.333    0.000    0.000    0.000    0.000 
#
# Total GULP energy -594753.215343 kJ/mol
# GULP energy per Si atom -12390.691986 kJ/mol
# Density = 1.634128 g / cm^3
# Si number density = 16.378562 Si / 1000 Ang^3
#
#
#
# Elastic Constant Matrix: (Units=GPa)
#
#
# Indices 1 2 3 4 5 6 
#
# 1 92.8462 28.4244 44.8055 0.0000 0.0000 0.0000
# 2 28.4244 60.4764 26.9661 0.0000 0.0000 0.0000
# 3 44.8055 26.9661 130.0827 0.0000 0.0000 0.0000
# 4 0.0000 0.0000 0.0000 -126.1357 0.0000 0.0000
# 5 0.0000 0.0000 0.0000 0.0000 35.9840 0.0000
# 6 0.0000 0.0000 0.0000 0.0000 0.0000 20.4919
#
#
#
# Elastic Compliance Matrix: (Units=1/GPa)
#
#
# Indices 1 2 3 4 5 6 
#
# 1 0.014136 -0.004929 -0.003847 0.000000 0.000000 0.000000
# 2 -0.004929 0.019938 -0.002436 0.000000 0.000000 0.000000
# 3 -0.003847 -0.002436 0.009517 0.000000 0.000000 0.000000
# 4 0.000000 0.000000 0.000000 -0.007928 0.000000 0.000000
# 5 0.000000 0.000000 0.000000 0.000000 0.027790 0.000000
# 6 0.000000 0.000000 0.000000 0.000000 0.000000 0.048800
#
#
# Mechanical properties :
#
#
# Convention : Reuss Voigt Hill
#
# Bulk Modulus (GPa) = 47.23993 53.75526 50.49759
# Shear Modulus (GPa) = 35.27786 -1.71799 16.77993
#
# Velocity S-wave (km/s) = 4.64605 -1.02528 3.20426
# Velocity P-wave (km/s) = 7.59514 5.61161 6.67744
#
# Compressibility (1/GPa) = 0.02116853
#
# Stress axis : x y z
#
# Youngs Moduli (GPa) = 70.74153 50.15597 105.07010
#
# Poissons Ratio (x) = 0.24720 0.40424
# Poissons Ratio (y) = 0.34865 0.25590
# Poissons Ratio (z) = 0.27216 0.12216
#
# Static dielectric constant tensor:
#      x y z
#    x 2.880620 0.000000 0.000000 
#    y 0.000000 3.116070 0.000000 
#    z 0.000000 0.000000 3.549350 
# 
# 
# High freq. dielectric constant tensor:
#      x y z
#    x 1.578660 0.000000 0.000000 
#    y 0.000000 1.634960 0.000000 
#    z 0.000000 0.000000 1.634530 
# 
# From -- ./inp_files/19965.got.cif
#   From: 2010.03.12/outbox.cif.g09.slc.cpg/sg69_10_cif.got.tgz:19965.got - 2010.04.10 23:52:46.
