data_PCOD8284554
_publ_section_title
;
Structure prediction by ZEFSAII (Michael W. Deem and Ramdas Pophale) SiO2 
 PCOD8284554
Probable space group: F M M M
;
_chemical_formula_sum "Si O2"
_cell_formula_units_Z 88
_cell_length_a 14.151238
_cell_length_b 24.814087
_cell_length_c 13.028514
_cell_angle_alpha 90.000000
_cell_angle_beta 90.000000
_cell_angle_gamma 90.000000
_cell_volume 4574.963354
_symmetry_space_group_name_H-M "F M M M"
_symmetry_group_IT_number 69
_symmetry_cell_setting 'orthorhombic'
loop_
_space_group_symop_operation_xyz
x,y,z
-x,-y,z
x,-y,-z
-x,y,-z
-x,-y,-z
x,y,-z
-x,y,z
x,-y,z
x,1/2+y,1/2+z
-x,1/2-y,1/2+z
x,1/2-y,1/2-z
-x,1/2+y,1/2-z
-x,1/2-y,1/2-z
x,1/2+y,1/2-z
-x,1/2+y,1/2+z
x,1/2-y,1/2+z
1/2+x,y,1/2+z
1/2-x,-y,1/2+z
1/2+x,-y,1/2-z
1/2-x,y,1/2-z
1/2-x,-y,1/2-z
1/2+x,y,1/2-z
1/2-x,y,1/2+z
1/2+x,-y,1/2+z
1/2+x,1/2+y,z
1/2-x,1/2-y,z
1/2+x,1/2-y,-z
1/2-x,1/2+y,-z
1/2-x,1/2-y,-z
1/2+x,1/2+y,-z
1/2-x,1/2+y,z
1/2+x,1/2-y,z
loop_
_atom_site_type_symbol
_atom_site_label
_atom_site_fract_x
_atom_site_fract_y
_atom_site_fract_z
Si Si1 0.000000 0.895928 0.831329
Si Si2 0.159384 0.117922 0.500000
Si Si3 0.500000 0.738855 0.000000
Si Si4 0.500000 0.000000 0.186225
Si Si5 0.631609 0.859059 0.500000
Si Si6 0.500000 0.661790 0.362694
Si Si7 0.640244 0.500000 0.500000
O O1 0.905749 0.892284 0.900948
O O2 0.000000 0.842470 0.759665
O O3 0.000000 0.948670 0.761115
O O4 0.256519 0.150831 0.500000
O O5 0.094558 0.131261 0.598084
O O6 0.197023 0.055954 0.500000
O O7 0.408089 0.701587 0.000000
O O8 0.500000 0.776478 0.100984
O O9 0.413447 0.000000 0.108334
#
# Coordination Sequence:
#
# PCOD8284554 Si02
#       7
#    16  16   8   8  16  16   8
#     4  10  21  38  57  85 117 161 186 235 285 362
#     4  10  20  36  58  90 114 146 192 248 282 344
#     4   8  20  40  62  82 114 158 188 254 286 330
#     4  11  18  37  64  82 116 157 194 235 292 332
#     4  10  24  38  52  84 130 148 190 241 293 334
#     4  10  19  36  65  84 106 153 209 227 288 342
#     4  11  18  34  62  89 112 150 192 251 282 333
#
# _framework density 19.235126999999999
#
# number of rings (size 3 to 8) (size 9 to 14) (size 15 to 20)
#    0.000    2.364    3.636    1.091    0.000   10.182 
#    0.000    1.818    0.000   17.455    0.000    0.000 
#    0.000    0.000    0.000    0.000    0.000    0.000 
#
# Total GULP energy -272537.965024 kJ/mol
# GULP energy per Si atom -12388.089319 kJ/mol
# Density = 1.919135 g / cm^3
# Si number density = 19.235127 Si / 1000 Ang^3
#
#
#
# Elastic Constant Matrix: (Units=GPa)
#
#
# Indices 1 2 3 4 5 6 
#
# 1 147.7902 34.9641 38.5597 0.0000 0.0000 0.0000
# 2 34.9641 142.6000 41.8115 0.0000 0.0000 0.0000
# 3 38.5597 41.8115 146.7449 0.0000 0.0000 0.0000
# 4 0.0000 0.0000 0.0000 25.5947 0.0000 0.0000
# 5 0.0000 0.0000 0.0000 0.0000 -2.1571 0.0000
# 6 0.0000 0.0000 0.0000 0.0000 0.0000 11.7197
#
#
#
# Elastic Compliance Matrix: (Units=1/GPa)
#
#
# Indices 1 2 3 4 5 6 
#
# 1 0.007504 -0.001377 -0.001580 0.000000 0.000000 0.000000
# 2 -0.001377 0.007904 -0.001890 0.000000 0.000000 0.000000
# 3 -0.001580 -0.001890 0.007768 0.000000 0.000000 0.000000
# 4 0.000000 0.000000 0.000000 0.039071 0.000000 0.000000
# 5 0.000000 0.000000 0.000000 0.000000 -0.463577 0.000000
# 6 0.000000 0.000000 0.000000 0.000000 0.000000 0.085326
#
#
# Mechanical properties :
#
#
# Convention : Reuss Voigt Hill
#
# Bulk Modulus (GPa) = 74.16564 74.20062 74.18313
# Shear Modulus (GPa) = -16.56644 28.48479 5.95918
#
# Velocity S-wave (km/s) = -2.93791 3.85239 1.76204
# Velocity P-wave (km/s) = 5.20891 7.64507 6.54140
#
# Compressibility (1/GPa) = 0.01348333
#
# Stress axis : x y z
#
# Youngs Moduli (GPa) = 133.25877 126.51045 128.72938
#
# Poissons Ratio (x) = 0.17418 0.20334
# Poissons Ratio (y) = 0.18347 0.24335
# Poissons Ratio (z) = 0.21049 0.23916
#
# Static dielectric constant tensor:
#      x y z
#    x 3.197430 0.000000 0.000000 
#    y 0.000000 3.568860 0.000000 
#    z 0.000000 0.000000 3.588830 
# 
# 
# High freq. dielectric constant tensor:
#      x y z
#    x 1.720900 0.000000 0.000000 
#    y 0.000000 1.757650 0.000000 
#    z 0.000000 0.000000 1.754090 
# 
# From -- ./inp_files/7165.got.cif
#   From: 2010.03.12/outbox.cif.g09.slc.cpg/sg69_4_cif.got.tgz:7165.got - 2010.04.10 23:52:46.
