data_PCOD8284506
_publ_section_title
;
Structure prediction by ZEFSAII (Michael W. Deem and Ramdas Pophale) SiO2 
 PCOD8284506
Probable space group: F M M M
;
_chemical_formula_sum "Si O2"
_cell_formula_units_Z 112
_cell_length_a 18.791855
_cell_length_b 22.479649
_cell_length_c 13.609139
_cell_angle_alpha 90.000000
_cell_angle_beta 90.000000
_cell_angle_gamma 90.000000
_cell_volume 5748.967168
_symmetry_space_group_name_H-M "F M M M"
_symmetry_group_IT_number 69
_symmetry_cell_setting 'orthorhombic'
loop_
_space_group_symop_operation_xyz
x,y,z
-x,-y,z
x,-y,-z
-x,y,-z
-x,-y,-z
x,y,-z
-x,y,z
x,-y,z
x,1/2+y,1/2+z
-x,1/2-y,1/2+z
x,1/2-y,1/2-z
-x,1/2+y,1/2-z
-x,1/2-y,1/2-z
x,1/2+y,1/2-z
-x,1/2+y,1/2+z
x,1/2-y,1/2+z
1/2+x,y,1/2+z
1/2-x,-y,1/2+z
1/2+x,-y,1/2-z
1/2-x,y,1/2-z
1/2-x,-y,1/2-z
1/2+x,y,1/2-z
1/2-x,y,1/2+z
1/2+x,-y,1/2+z
1/2+x,1/2+y,z
1/2-x,1/2-y,z
1/2+x,1/2-y,-z
1/2-x,1/2+y,-z
1/2-x,1/2-y,-z
1/2+x,1/2+y,-z
1/2-x,1/2+y,z
1/2+x,1/2-y,z
loop_
_atom_site_type_symbol
_atom_site_label
_atom_site_fract_x
_atom_site_fract_y
_atom_site_fract_z
Si Si1 0.000000 0.235970 0.607851
Si Si2 0.381522 0.250000 0.250000
Si Si3 0.500000 0.376661 0.890333
Si Si4 0.648359 0.376734 0.205962
Si Si5 0.216448 0.069799 0.388613
O O1 0.069926 0.216746 0.667825
O O2 0.000000 0.206155 0.500000
O O3 0.000000 0.306488 0.599213
O O4 0.337127 0.304851 0.204902
O O5 0.429622 0.396261 0.831159
O O6 0.500000 0.405170 0.000000
O O7 0.705718 0.403563 0.131691
O O8 0.658478 0.401827 0.315814
O O9 0.194050 0.084752 0.500000
O O10 0.220023 0.000000 0.369388
#
# Coordination Sequence:
#
# PCOD8284506 Si02
#       5
#    16  16  16  32  32
#     4   8  15  29  46  69 111 153 170 191 247 321
#     4   9  18  29  48  82 112 134 168 210 260 318
#     4   9  17  31  55  84 109 137 175 216 259 308
#     4  10  19  35  56  81 111 139 170 218 267 313
#     4  10  22  40  57  72  99 145 189 220 262 317
#
# _framework density 19.481760999999999
#
# number of rings (size 3 to 8) (size 9 to 14) (size 15 to 20)
#    0.000    2.571    0.000    3.429    0.000    4.571 
#    0.000    5.000    0.000    6.857    0.000    0.000 
#    0.000    0.000    0.000    0.000    0.000    0.000 
#
# Total GULP energy -347073.641376 kJ/mol
# GULP energy per Si atom -12395.487192 kJ/mol
# Density = 1.943742 g / cm^3
# Si number density = 19.481761 Si / 1000 Ang^3
#
#
#
# Elastic Constant Matrix: (Units=GPa)
#
#
# Indices 1 2 3 4 5 6 
#
# 1 117.4874 31.1914 57.4440 0.0000 0.0000 0.0000
# 2 31.1914 85.4151 32.0668 0.0000 0.0000 0.0000
# 3 57.4440 32.0668 143.8724 0.0000 0.0000 0.0000
# 4 0.0000 0.0000 0.0000 27.3463 0.0000 0.0000
# 5 0.0000 0.0000 0.0000 0.0000 17.4829 0.0000
# 6 0.0000 0.0000 0.0000 0.0000 0.0000 82.7868
#
#
#
# Elastic Compliance Matrix: (Units=1/GPa)
#
#
# Indices 1 2 3 4 5 6 
#
# 1 0.011083 -0.002604 -0.003845 0.000000 0.000000 0.000000
# 2 -0.002604 0.013388 -0.001944 0.000000 0.000000 0.000000
# 3 -0.003845 -0.001944 0.008919 0.000000 0.000000 0.000000
# 4 0.000000 0.000000 0.000000 0.036568 0.000000 0.000000
# 5 0.000000 0.000000 0.000000 0.000000 0.057199 0.000000
# 6 0.000000 0.000000 0.000000 0.000000 0.000000 0.012079
#
#
# Mechanical properties :
#
#
# Convention : Reuss Voigt Hill
#
# Bulk Modulus (GPa) = 60.22511 65.35326 62.78918
# Shear Modulus (GPa) = 30.94896 40.59470 35.77183
#
# Velocity S-wave (km/s) = 3.99006 4.56974 4.28970
# Velocity P-wave (km/s) = 7.22552 7.83977 7.53891
#
# Compressibility (1/GPa) = 0.01660437
#
# Stress axis : x y z
#
# Youngs Moduli (GPa) = 90.23164 74.69186 112.11979
#
# Poissons Ratio (x) = 0.19448 0.43106
# Poissons Ratio (y) = 0.23494 0.21801
# Poissons Ratio (z) = 0.34691 0.14523
#
# Static dielectric constant tensor:
#      x y z
#    x 3.426260 0.000000 0.000000 
#    y 0.000000 3.362660 0.000000 
#    z 0.000000 0.000000 4.283750 
# 
# 
# High freq. dielectric constant tensor:
#      x y z
#    x 1.744030 0.000000 0.000000 
#    y 0.000000 1.740190 0.000000 
#    z 0.000000 0.000000 1.770890 
# 
# From -- ./inp_files/15167.got.cif
#   From: 2010.03.12/outbox.cif.g09.slc.cpg/sg69_8_cif.got.tgz:15167.got - 2010.04.10 23:52:46.
