data_PCOD8284321
_publ_section_title
;
Structure prediction by ZEFSAII (Michael W. Deem and Ramdas Pophale) SiO2 
 PCOD8284321
Probable space group: F M M M
;
_chemical_formula_sum "Si O2"
_cell_formula_units_Z 184
_cell_length_a 17.980973
_cell_length_b 24.000969
_cell_length_c 21.417535
_cell_angle_alpha 90.000000
_cell_angle_beta 90.000000
_cell_angle_gamma 90.000000
_cell_volume 9242.968015
_symmetry_space_group_name_H-M "F M M M"
_symmetry_group_IT_number 69
_symmetry_cell_setting 'orthorhombic'
loop_
_space_group_symop_operation_xyz
x,y,z
-x,-y,z
x,-y,-z
-x,y,-z
-x,-y,-z
x,y,-z
-x,y,z
x,-y,z
x,1/2+y,1/2+z
-x,1/2-y,1/2+z
x,1/2-y,1/2-z
-x,1/2+y,1/2-z
-x,1/2-y,1/2-z
x,1/2+y,1/2-z
-x,1/2+y,1/2+z
x,1/2-y,1/2+z
1/2+x,y,1/2+z
1/2-x,-y,1/2+z
1/2+x,-y,1/2-z
1/2-x,y,1/2-z
1/2-x,-y,1/2-z
1/2+x,y,1/2-z
1/2-x,y,1/2+z
1/2+x,-y,1/2+z
1/2+x,1/2+y,z
1/2-x,1/2-y,z
1/2+x,1/2-y,-z
1/2-x,1/2+y,-z
1/2-x,1/2-y,-z
1/2+x,1/2+y,-z
1/2-x,1/2+y,z
1/2+x,1/2-y,z
loop_
_atom_site_type_symbol
_atom_site_label
_atom_site_fract_x
_atom_site_fract_y
_atom_site_fract_z
Si Si1 0.083490 0.758197 0.569769
Si Si2 0.582193 0.062079 0.425929
Si Si3 0.589066 0.563884 0.362866
Si Si4 0.668612 0.831657 0.842560
Si Si5 0.809703 0.345247 0.428073
Si Si6 0.250000 0.250000 0.750000
Si Si7 0.079922 0.565214 0.000000
O O1 0.093023 0.783141 0.500000
O O2 0.099326 0.805279 0.620466
O O3 0.141509 0.709295 0.580299
O O4 0.000000 0.735078 0.579078
O O5 0.578886 0.068707 0.500000
O O6 0.500000 0.075515 0.398830
O O7 0.643201 0.103894 0.398649
O O8 0.606246 0.000000 0.406526
O O9 0.500000 0.571712 0.357375
O O10 0.609760 0.500000 0.344698
O O11 0.635387 0.608009 0.319621
O O12 0.619270 0.578804 0.433670
O O13 0.736136 0.839078 0.889288
O O14 0.694999 0.791065 0.787436
O O15 0.788398 0.355721 0.500000
O O16 0.064717 0.500000 0.000000
O O17 0.000000 0.596178 0.000000
#
# Coordination Sequence:
#
# PCOD8284321 Si02
#       7
#    32  32  32  32  32   8  16
#     4  10  20  35  58  88 116 146 188 239 303 369
#     4   8  14  26  46  75 114 155 186 217 270 346
#     4   9  19  36  60  92 124 154 190 235 294 362
#     4  12  23  40  60  80 117 160 198 247 295 348
#     4  10  19  32  53  83 117 150 188 239 299 362
#     4  12  28  48  58  76 116 160 218 264 296 340
#     4   7  12  26  50  85 128 156 171 208 276 359
#
# _framework density 19.907025999999998
#
# number of rings (size 3 to 8) (size 9 to 14) (size 15 to 20)
#    0.000    2.348    1.739    3.130    2.435    4.174 
#    0.000    2.174    0.000    0.000    0.000    2.435 
#    0.000    0.000    0.000    0.000    0.000    0.000 
#
# Total GULP energy -569926.908429 kJ/mol
# GULP energy per Si atom -12389.715401 kJ/mol
# Density = 1.986172 g / cm^3
# Si number density = 19.907026 Si / 1000 Ang^3
#
#
#
# Elastic Constant Matrix: (Units=GPa)
#
#
# Indices 1 2 3 4 5 6 
#
# 1 90.8415 49.8507 30.1046 0.0000 0.0000 0.0000
# 2 49.8507 120.4070 46.0444 0.0000 0.0000 0.0000
# 3 30.1046 46.0444 41.4534 0.0000 0.0000 0.0000
# 4 0.0000 0.0000 0.0000 7.4794 0.0000 0.0000
# 5 0.0000 0.0000 0.0000 0.0000 -3.7535 0.0000
# 6 0.0000 0.0000 0.0000 0.0000 0.0000 42.6018
#
#
#
# Elastic Compliance Matrix: (Units=1/GPa)
#
#
# Indices 1 2 3 4 5 6 
#
# 1 0.015363 -0.003640 -0.007114 0.000000 0.000000 0.000000
# 2 -0.003640 0.015300 -0.014351 0.000000 0.000000 0.000000
# 3 -0.007114 -0.014351 0.045230 0.000000 0.000000 0.000000
# 4 0.000000 0.000000 0.000000 0.133700 0.000000 0.000000
# 5 0.000000 0.000000 0.000000 0.000000 -0.266420 0.000000
# 6 0.000000 0.000000 0.000000 0.000000 0.000000 0.023473
#
#
# Mechanical properties :
#
#
# Convention : Reuss Voigt Hill
#
# Bulk Modulus (GPa) = 38.93564 56.07794 47.50679
# Shear Modulus (GPa) = 196.70179 17.71235 107.20707
#
# Velocity S-wave (km/s) = 9.95112 2.98611 7.34648
# Velocity P-wave (km/s) = 12.31398 6.33405 9.79169
#
# Compressibility (1/GPa) = 0.02568341
#
# Stress axis : x y z
#
# Youngs Moduli (GPa) = 65.08983 65.35819 22.10911
#
# Poissons Ratio (x) = 0.23793 0.15728
# Poissons Ratio (y) = 0.23695 0.31729
# Poissons Ratio (z) = 0.46304 0.93796
#
# Static dielectric constant tensor:
#      x y z
#    x 3.737510 0.000000 0.000000 
#    y 0.000000 3.976800 0.000000 
#    z 0.000000 0.000000 3.269190 
# 
# 
# High freq. dielectric constant tensor:
#      x y z
#    x 1.776980 0.000000 0.000000 
#    y 0.000000 1.792850 0.000000 
#    z 0.000000 0.000000 1.712970 
# 
# From -- ./inp_files/36737.got.cif
#   From: 2010.03.12/outbox.cif.g09.slc.cpg/sg69_19_cif.got.tgz:36737.got - 2010.04.10 23:52:46.
