data_PCOD8284394
_publ_section_title
;
Structure prediction by ZEFSAII (Michael W. Deem and Ramdas Pophale) SiO2 
 PCOD8284394
Probable space group: F M M M
;
_chemical_formula_sum "Si O2"
_cell_formula_units_Z 176
_cell_length_a 28.278242
_cell_length_b 17.587108
_cell_length_c 17.004878
_cell_angle_alpha 90.000000
_cell_angle_beta 90.000000
_cell_angle_gamma 90.000000
_cell_volume 8457.078422
_symmetry_space_group_name_H-M "F M M M"
_symmetry_group_IT_number 69
_symmetry_cell_setting 'orthorhombic'
loop_
_space_group_symop_operation_xyz
x,y,z
-x,-y,z
x,-y,-z
-x,y,-z
-x,-y,-z
x,y,-z
-x,y,z
x,-y,z
x,1/2+y,1/2+z
-x,1/2-y,1/2+z
x,1/2-y,1/2-z
-x,1/2+y,1/2-z
-x,1/2-y,1/2-z
x,1/2+y,1/2-z
-x,1/2+y,1/2+z
x,1/2-y,1/2+z
1/2+x,y,1/2+z
1/2-x,-y,1/2+z
1/2+x,-y,1/2-z
1/2-x,y,1/2-z
1/2-x,-y,1/2-z
1/2+x,y,1/2-z
1/2-x,y,1/2+z
1/2+x,-y,1/2+z
1/2+x,1/2+y,z
1/2-x,1/2-y,z
1/2+x,1/2-y,-z
1/2-x,1/2+y,-z
1/2-x,1/2-y,-z
1/2+x,1/2+y,-z
1/2-x,1/2+y,z
1/2+x,1/2-y,z
loop_
_atom_site_type_symbol
_atom_site_label
_atom_site_fract_x
_atom_site_fract_y
_atom_site_fract_z
Si Si1 0.444998 0.184754 0.592948
Si Si2 0.945269 0.000000 0.412784
Si Si3 0.769762 0.089761 0.087067
Si Si4 0.173871 0.911183 0.660921
Si Si5 0.136899 0.911253 0.834864
Si Si6 0.909954 0.654371 0.909671
O O1 0.433818 0.176632 0.500000
O O2 0.500000 0.167136 0.610003
O O3 0.412595 0.127762 0.642939
O O4 0.432247 0.268968 0.625616
O O5 0.930349 0.077500 0.367259
O O6 0.921294 0.000000 0.500000
O O7 0.000000 0.000000 0.422485
O O8 0.728927 0.111270 0.150015
O O9 0.820777 0.123174 0.111609
O O10 0.775424 0.000000 0.087160
O O11 0.756457 0.119821 0.000000
O O12 0.154312 0.894211 0.747099
O O13 0.146284 0.853412 0.602635
O O14 0.165988 0.000000 0.637367
O O15 0.128980 0.000000 0.849094
O O16 0.925065 0.653779 0.000000
#
# Coordination Sequence:
#
# PCOD8284394 Si02
#       6
#    32  16  32  32  32  32
#     4  10  22  40  60  81 109 148 196 250 296 330
#     4   9  16  28  50  78 107 138 175 223 279 340
#     4   9  17  31  56  87 115 148 190 234 284 341
#     4  10  19  33  55  85 120 151 184 225 283 347
#     4  10  21  37  57  82 117 155 196 237 282 336
#     4  10  19  33  55  83 113 145 186 234 285 345
#
# _framework density 20.810969
#
# number of rings (size 3 to 8) (size 9 to 14) (size 15 to 20)
#    0.000    2.273    0.909    2.182    0.000    7.273 
#    0.000    4.545    0.000    5.455    0.000    0.000 
#    0.000    0.000    0.000    0.000    0.000    0.000 
#
# Total GULP energy -545216.930022 kJ/mol
# GULP energy per Si atom -12391.293864 kJ/mol
# Density = 2.076360 g / cm^3
# Si number density = 20.810969 Si / 1000 Ang^3
#
#
#
# Elastic Constant Matrix: (Units=GPa)
#
#
# Indices 1 2 3 4 5 6 
#
# 1 162.6137 58.4192 51.2048 0.0000 0.0000 0.0000
# 2 58.4192 87.7476 34.0970 0.0000 0.0000 0.0000
# 3 51.2048 34.0970 65.6092 0.0000 0.0000 0.0000
# 4 0.0000 0.0000 0.0000 29.0191 0.0000 0.0000
# 5 0.0000 0.0000 0.0000 0.0000 32.1087 0.0000
# 6 0.0000 0.0000 0.0000 0.0000 0.0000 26.4087
#
#
#
# Elastic Compliance Matrix: (Units=1/GPa)
#
#
# Indices 1 2 3 4 5 6 
#
# 1 0.009242 -0.004198 -0.005031 0.000000 0.000000 0.000000
# 2 -0.004198 0.016187 -0.005136 0.000000 0.000000 0.000000
# 3 -0.005031 -0.005136 0.021838 0.000000 0.000000 0.000000
# 4 0.000000 0.000000 0.000000 0.034460 0.000000 0.000000
# 5 0.000000 0.000000 0.000000 0.000000 0.031144 0.000000
# 6 0.000000 0.000000 0.000000 0.000000 0.000000 0.037866
#
#
# Mechanical properties :
#
#
# Convention : Reuss Voigt Hill
#
# Bulk Modulus (GPa) = 53.94889 67.04584 60.49736
# Shear Modulus (GPa) = 26.93298 28.99060 27.96179
#
# Velocity S-wave (km/s) = 3.60136 3.73640 3.66950
# Velocity P-wave (km/s) = 6.57820 7.13448 6.86198
#
# Compressibility (1/GPa) = 0.01853606
#
# Stress axis : x y z
#
# Youngs Moduli (GPa) = 108.20280 61.77840 45.79256
#
# Poissons Ratio (x) = 0.25934 0.23039
# Poissons Ratio (y) = 0.45422 0.23519
# Poissons Ratio (z) = 0.54439 0.31730
#
# Static dielectric constant tensor:
#      x y z
#    x 3.895760 0.000000 0.000000 
#    y 0.000000 3.688380 0.000000 
#    z 0.000000 0.000000 3.687480 
# 
# 
# High freq. dielectric constant tensor:
#      x y z
#    x 1.826440 0.000000 0.000000 
#    y 0.000000 1.787230 0.000000 
#    z 0.000000 0.000000 1.792250 
# 
# From -- ./inp_files/26772.got.cif
#   From: 2010.03.12/outbox.cif.g09.slc.cpg/sg69_14_cif.got.tgz:26772.got - 2010.04.10 23:52:46.
