data_PCOD8284352
_publ_section_title
;
Structure prediction by ZEFSAII (Michael W. Deem and Ramdas Pophale) SiO2 
 PCOD8284352
Probable space group: F M M M
;
_chemical_formula_sum "Si O2"
_cell_formula_units_Z 160
_cell_length_a 23.711926
_cell_length_b 23.091086
_cell_length_c 14.129937
_cell_angle_alpha 90.000000
_cell_angle_beta 90.000000
_cell_angle_gamma 90.000000
_cell_volume 7736.622656
_symmetry_space_group_name_H-M "F M M M"
_symmetry_group_IT_number 69
_symmetry_cell_setting 'orthorhombic'
loop_
_space_group_symop_operation_xyz
x,y,z
-x,-y,z
x,-y,-z
-x,y,-z
-x,-y,-z
x,y,-z
-x,y,z
x,-y,z
x,1/2+y,1/2+z
-x,1/2-y,1/2+z
x,1/2-y,1/2-z
-x,1/2+y,1/2-z
-x,1/2-y,1/2-z
x,1/2+y,1/2-z
-x,1/2+y,1/2+z
x,1/2-y,1/2+z
1/2+x,y,1/2+z
1/2-x,-y,1/2+z
1/2+x,-y,1/2-z
1/2-x,y,1/2-z
1/2-x,-y,1/2-z
1/2+x,y,1/2-z
1/2-x,y,1/2+z
1/2+x,-y,1/2+z
1/2+x,1/2+y,z
1/2-x,1/2-y,z
1/2+x,1/2-y,-z
1/2-x,1/2+y,-z
1/2-x,1/2-y,-z
1/2+x,1/2+y,-z
1/2-x,1/2+y,z
1/2+x,1/2-y,z
loop_
_atom_site_type_symbol
_atom_site_label
_atom_site_fract_x
_atom_site_fract_y
_atom_site_fract_z
Si Si1 0.807211 0.277998 0.605641
Si Si2 0.500000 0.218958 0.886898
Si Si3 0.315352 0.885694 0.735088
Si Si4 0.098234 0.564456 0.608276
Si Si5 0.500000 0.850896 0.612688
Si Si6 0.115976 0.668909 0.106272
O O1 0.797770 0.303672 0.500000
O O2 0.750000 0.250000 0.644093
O O3 0.824382 0.327008 0.677687
O O4 0.856249 0.231708 0.604836
O O5 0.500000 0.285225 0.844872
O O6 0.446449 0.181239 0.852236
O O7 0.500000 0.225016 0.000000
O O8 0.250000 0.902288 0.750000
O O9 0.345768 0.935108 0.673612
O O10 0.347796 0.877447 0.834466
O O11 0.115384 0.577848 0.500000
O O12 0.071583 0.500000 0.615698
O O13 0.054817 0.613015 0.646457
O O14 0.500000 0.849088 0.500000
O O15 0.113052 0.643426 0.000000
#
# Coordination Sequence:
#
# PCOD8284352 Si02
#       6
#    32  16  32  32  16  32
#     4  10  19  33  52  76 110 148 185 220 258 317
#     4   9  18  34  54  80 117 154 185 219 264 323
#     4  12  23  34  55  81 114 149 191 226 268 325
#     4  10  22  40  61  83 106 136 180 237 294 338
#     4   9  17  35  61  85 110 141 177 222 282 345
#     4  10  21  35  52  78 115 154 188 223 265 321
#
# _framework density 20.680858000000001
#
# number of rings (size 3 to 8) (size 9 to 14) (size 15 to 20)
#    0.000    1.800    2.000    2.700    0.000    6.400 
#    0.000    3.000    0.000    0.600    0.000    0.000 
#    0.000    4.000    0.000    0.000    0.000    0.000 
#
# Total GULP energy -495956.216541 kJ/mol
# GULP energy per Si atom -12398.905414 kJ/mol
# Density = 2.063379 g / cm^3
# Si number density = 20.680858 Si / 1000 Ang^3
#
#
#
# Elastic Constant Matrix: (Units=GPa)
#
#
# Indices 1 2 3 4 5 6 
#
# 1 157.9734 29.6288 38.1038 0.0000 0.0000 0.0000
# 2 29.6288 52.5728 24.8027 0.0000 0.0000 0.0000
# 3 38.1038 24.8027 74.9596 0.0000 0.0000 0.0000
# 4 0.0000 0.0000 0.0000 61.3097 0.0000 0.0000
# 5 0.0000 0.0000 0.0000 0.0000 34.8838 0.0000
# 6 0.0000 0.0000 0.0000 0.0000 0.0000 19.5437
#
#
#
# Elastic Compliance Matrix: (Units=1/GPa)
#
#
# Indices 1 2 3 4 5 6 
#
# 1 0.007571 -0.002905 -0.002888 0.000000 0.000000 0.000000
# 2 -0.002905 0.023654 -0.006350 0.000000 0.000000 0.000000
# 3 -0.002888 -0.006350 0.016910 0.000000 0.000000 0.000000
# 4 0.000000 0.000000 0.000000 0.016311 0.000000 0.000000
# 5 0.000000 0.000000 0.000000 0.000000 0.028667 0.000000
# 6 0.000000 0.000000 0.000000 0.000000 0.000000 0.051167
#
#
# Mechanical properties :
#
#
# Convention : Reuss Voigt Hill
#
# Bulk Modulus (GPa) = 41.92864 52.28626 47.10745
# Shear Modulus (GPa) = 28.32621 36.01213 32.16917
#
# Velocity S-wave (km/s) = 3.70494 4.17745 3.94827
# Velocity P-wave (km/s) = 6.21452 6.97176 6.60400
#
# Compressibility (1/GPa) = 0.02385005
#
# Stress axis : x y z
#
# Youngs Moduli (GPa) = 132.07425 42.27584 59.13827
#
# Poissons Ratio (x) = 0.12280 0.17077
# Poissons Ratio (y) = 0.38365 0.37554
# Poissons Ratio (z) = 0.38138 0.26846
#
# Static dielectric constant tensor:
#      x y z
#    x 3.913050 0.000000 0.000000 
#    y 0.000000 3.388270 0.000000 
#    z 0.000000 0.000000 3.868170 
# 
# 
# High freq. dielectric constant tensor:
#      x y z
#    x 1.821450 0.000000 0.000000 
#    y 0.000000 1.762910 0.000000 
#    z 0.000000 0.000000 1.809910 
# 
# From -- ./inp_files/17753.got.cif
#   From: 2010.03.12/outbox.cif.g09.slc.cpg/sg69_9_cif.got.tgz:17753.got - 2010.04.10 23:52:46.
