data_PCOD8284193
_publ_section_title
;
Structure prediction by ZEFSAII (Michael W. Deem and Ramdas Pophale) SiO2 
 PCOD8284193
Probable space group: F M M M
;
_chemical_formula_sum "Si O2"
_cell_formula_units_Z 192
_cell_length_a 20.559611
_cell_length_b 29.523031
_cell_length_c 17.839626
_cell_angle_alpha 90.000000
_cell_angle_beta 90.000000
_cell_angle_gamma 90.000000
_cell_volume 10828.332456
_symmetry_space_group_name_H-M "F M M M"
_symmetry_group_IT_number 69
_symmetry_cell_setting 'orthorhombic'
loop_
_space_group_symop_operation_xyz
x,y,z
-x,-y,z
x,-y,-z
-x,y,-z
-x,-y,-z
x,y,-z
-x,y,z
x,-y,z
x,1/2+y,1/2+z
-x,1/2-y,1/2+z
x,1/2-y,1/2-z
-x,1/2+y,1/2-z
-x,1/2-y,1/2-z
x,1/2+y,1/2-z
-x,1/2+y,1/2+z
x,1/2-y,1/2+z
1/2+x,y,1/2+z
1/2-x,-y,1/2+z
1/2+x,-y,1/2-z
1/2-x,y,1/2-z
1/2-x,-y,1/2-z
1/2+x,y,1/2-z
1/2-x,y,1/2+z
1/2+x,-y,1/2+z
1/2+x,1/2+y,z
1/2-x,1/2-y,z
1/2+x,1/2-y,-z
1/2-x,1/2+y,-z
1/2-x,1/2-y,-z
1/2+x,1/2+y,-z
1/2-x,1/2+y,z
1/2+x,1/2-y,z
loop_
_atom_site_type_symbol
_atom_site_label
_atom_site_fract_x
_atom_site_fract_y
_atom_site_fract_z
Si Si1 0.749698 0.551178 0.000000
Si Si2 0.573821 0.292526 0.802712
Si Si3 0.738286 0.623203 0.873723
Si Si4 0.901706 0.450154 0.000000
Si Si5 0.191714 0.718256 0.584291
Si Si6 0.352404 0.875084 0.234086
Si Si7 0.572738 0.050152 0.159745
O O1 0.730726 0.579036 0.074372
O O2 0.718506 0.500000 0.000000
O O3 0.825558 0.546172 0.000000
O O4 0.500000 0.303407 0.833222
O O5 0.569084 0.250000 0.750000
O O6 0.624910 0.280274 0.868486
O O7 0.599784 0.333486 0.751347
O O8 0.717617 0.667190 0.919932
O O9 0.691702 0.614456 0.804583
O O10 0.810445 0.633123 0.841429
O O11 0.924573 0.425918 0.076948
O O12 0.934348 0.500000 0.000000
O O13 0.175479 0.734730 0.500000
O O14 0.250000 0.750000 0.618458
O O15 0.392691 0.920498 0.222358
O O16 0.500000 0.045688 0.187816
O O17 0.605609 0.000000 0.155495
#
# Coordination Sequence:
#
# PCOD8284193 Si02
#       7
#    16  32  32  16  32  32  32
#     4  11  20  33  51  74 106 142 172 216 276 323
#     4  10  21  37  56  79 111 145 175 213 265 320
#     4  10  20  34  52  77 106 134 174 221 263 319
#     4   9  17  30  47  69  99 137 172 205 254 313
#     4  10  20  35  58  84 107 137 180 221 264 311
#     4  10  20  33  53  77 102 136 177 218 263 311
#     4  10  19  31  48  71 101 136 176 217 258 312
#
# _framework density 17.731262000000001
#
# number of rings (size 3 to 8) (size 9 to 14) (size 15 to 20)
#    0.000    2.000    2.500    1.750    0.000    3.667 
#    0.000    1.667    0.000    0.000    0.000    0.000 
#    0.000    5.333    0.000    0.000    0.000    0.000 
#
# Total GULP energy -594799.025850 kJ/mol
# GULP energy per Si atom -12391.646372 kJ/mol
# Density = 1.769090 g / cm^3
# Si number density = 17.731262 Si / 1000 Ang^3
#
#
#
# Elastic Constant Matrix: (Units=GPa)
#
#
# Indices 1 2 3 4 5 6 
#
# 1 108.9202 48.8476 37.5695 0.0000 0.0000 0.0000
# 2 48.8476 99.7618 39.5081 0.0000 0.0000 0.0000
# 3 37.5695 39.5081 72.8184 0.0000 0.0000 0.0000
# 4 0.0000 0.0000 0.0000 29.0199 0.0000 0.0000
# 5 0.0000 0.0000 0.0000 0.0000 16.4249 0.0000
# 6 0.0000 0.0000 0.0000 0.0000 0.0000 24.5315
#
#
#
# Elastic Compliance Matrix: (Units=1/GPa)
#
#
# Indices 1 2 3 4 5 6 
#
# 1 0.012627 -0.004589 -0.004025 0.000000 0.000000 0.000000
# 2 -0.004589 0.014435 -0.005464 0.000000 0.000000 0.000000
# 3 -0.004025 -0.005464 0.018774 0.000000 0.000000 0.000000
# 4 0.000000 0.000000 0.000000 0.034459 0.000000 0.000000
# 5 0.000000 0.000000 0.000000 0.000000 0.060883 0.000000
# 6 0.000000 0.000000 0.000000 0.000000 0.000000 0.040764
#
#
# Mechanical properties :
#
#
# Convention : Reuss Voigt Hill
#
# Bulk Modulus (GPa) = 56.56133 59.26122 57.91127
# Shear Modulus (GPa) = 23.14903 24.36696 23.75800
#
# Velocity S-wave (km/s) = 3.61716 3.71109 3.66443
# Velocity P-wave (km/s) = 7.02948 7.20121 7.11586
#
# Compressibility (1/GPa) = 0.01767993
#
# Stress axis : x y z
#
# Youngs Moduli (GPa) = 79.19291 69.27766 53.26478
#
# Poissons Ratio (x) = 0.31790 0.21440
# Poissons Ratio (y) = 0.36340 0.29104
# Poissons Ratio (z) = 0.31877 0.37854
#
# Static dielectric constant tensor:
#      x y z
#    x 3.461780 0.000000 0.000000 
#    y 0.000000 3.430530 0.000000 
#    z 0.000000 0.000000 3.814810 
# 
# 
# High freq. dielectric constant tensor:
#      x y z
#    x 1.683550 0.000000 0.000000 
#    y 0.000000 1.680800 0.000000 
#    z 0.000000 0.000000 1.681690 
# 
# From -- ./inp_files/32191.got.cif
#   From: 2010.03.12/outbox.cif.g09.slc.cpg/sg69_17_cif.got.tgz:32191.got - 2010.04.10 23:52:46.
