data_PCOD8284552
_publ_section_title
;
Structure prediction by ZEFSAII (Michael W. Deem and Ramdas Pophale) SiO2 
 PCOD8284552
Probable space group: F M M M
;
_chemical_formula_sum "Si O2"
_cell_formula_units_Z 136
_cell_length_a 13.915718
_cell_length_b 23.044957
_cell_length_c 20.392953
_cell_angle_alpha 90.000000
_cell_angle_beta 90.000000
_cell_angle_gamma 90.000000
_cell_volume 6539.757426
_symmetry_space_group_name_H-M "F M M M"
_symmetry_group_IT_number 69
_symmetry_cell_setting 'orthorhombic'
loop_
_space_group_symop_operation_xyz
x,y,z
-x,-y,z
x,-y,-z
-x,y,-z
-x,-y,-z
x,y,-z
-x,y,z
x,-y,z
x,1/2+y,1/2+z
-x,1/2-y,1/2+z
x,1/2-y,1/2-z
-x,1/2+y,1/2-z
-x,1/2-y,1/2-z
x,1/2+y,1/2-z
-x,1/2+y,1/2+z
x,1/2-y,1/2+z
1/2+x,y,1/2+z
1/2-x,-y,1/2+z
1/2+x,-y,1/2-z
1/2-x,y,1/2-z
1/2-x,-y,1/2-z
1/2+x,y,1/2-z
1/2-x,y,1/2+z
1/2+x,-y,1/2+z
1/2+x,1/2+y,z
1/2-x,1/2-y,z
1/2+x,1/2-y,-z
1/2-x,1/2+y,-z
1/2-x,1/2-y,-z
1/2+x,1/2+y,-z
1/2-x,1/2+y,z
1/2+x,1/2-y,z
loop_
_atom_site_type_symbol
_atom_site_label
_atom_site_fract_x
_atom_site_fract_y
_atom_site_fract_z
Si Si1 0.731272 0.565627 0.173479
Si Si2 0.395600 0.671413 0.170699
Si Si3 0.361855 0.238136 0.072279
Si Si4 0.109613 0.391045 0.076913
Si Si5 0.250000 0.750000 0.250000
O O1 0.693591 0.500000 0.166166
O O2 0.750000 0.579610 0.250000
O O3 0.647228 0.609037 0.150369
O O4 0.824327 0.571935 0.126379
O O5 0.500000 0.662792 0.206154
O O6 0.417558 0.709898 0.107030
O O7 0.317995 0.707779 0.210281
O O8 0.250000 0.250000 0.074573
O O9 0.382897 0.175032 0.103314
O O10 0.404479 0.236360 0.000000
O O11 0.000000 0.413244 0.083741
O O12 0.143046 0.396584 0.000000
#
# Coordination Sequence:
#
# PCOD8284552 Si02
#       5
#    32  32  32  32   8
#     4  11  25  45  62  85 129 179 223 270 322 379
#     4  12  24  39  64  93 125 166 209 256 310 384
#     4  10  19  36  63  94 128 161 194 250 327 391
#     4  10  21  40  69 102 131 165 217 277 334 389
#     4  12  22  44  60  94 124 156 202 260 316 370
#
# _framework density 20.795877999999998
#
# number of rings (size 3 to 8) (size 9 to 14) (size 15 to 20)
#    0.000    1.176    4.706    1.059    0.000    3.765 
#    0.000    3.529    0.000    0.000    0.000    3.294 
#    0.000    0.000    0.000    0.000    0.000    0.000 
#
# Total GULP energy -421324.052133 kJ/mol
# GULP energy per Si atom -12391.883886 kJ/mol
# Density = 2.074855 g / cm^3
# Si number density = 20.795878 Si / 1000 Ang^3
#
#
#
# Elastic Constant Matrix: (Units=GPa)
#
#
# Indices 1 2 3 4 5 6 
#
# 1 146.7611 38.8000 33.7056 0.0000 0.0000 0.0000
# 2 38.8000 134.3786 36.3306 0.0000 0.0000 0.0000
# 3 33.7056 36.3306 88.9359 0.0000 0.0000 0.0000
# 4 0.0000 0.0000 0.0000 33.6334 0.0000 0.0000
# 5 0.0000 0.0000 0.0000 0.0000 77.6858 0.0000
# 6 0.0000 0.0000 0.0000 0.0000 0.0000 -2.6630
#
#
#
# Elastic Compliance Matrix: (Units=1/GPa)
#
#
# Indices 1 2 3 4 5 6 
#
# 1 0.007767 -0.001626 -0.002279 0.000000 0.000000 0.000000
# 2 -0.001626 0.008706 -0.002940 0.000000 0.000000 0.000000
# 3 -0.002279 -0.002940 0.013309 0.000000 0.000000 0.000000
# 4 0.000000 0.000000 0.000000 0.029732 0.000000 0.000000
# 5 0.000000 0.000000 0.000000 0.000000 0.012872 0.000000
# 6 0.000000 0.000000 0.000000 0.000000 0.000000 -0.375509
#
#
# Mechanical properties :
#
#
# Convention : Reuss Voigt Hill
#
# Bulk Modulus (GPa) = 62.14783 65.30534 63.72659
# Shear Modulus (GPa) = -17.60148 39.14717 10.77285
#
# Velocity S-wave (km/s) = -2.91244 4.34343 2.27849
# Velocity P-wave (km/s) = 4.31739 7.52496 6.13453
#
# Compressibility (1/GPa) = 0.01609067
#
# Stress axis : x y z
#
# Youngs Moduli (GPa) = 128.74556 114.86113 75.13765
#
# Poissons Ratio (x) = 0.18682 0.17126
# Poissons Ratio (y) = 0.20940 0.22091
# Poissons Ratio (z) = 0.29345 0.33770
#
# Static dielectric constant tensor:
#      x y z
#    x 3.836330 0.000000 0.000000 
#    y 0.000000 3.831420 0.000000 
#    z 0.000000 0.000000 4.198530 
# 
# 
# High freq. dielectric constant tensor:
#      x y z
#    x 1.821110 0.000000 0.000000 
#    y 0.000000 1.811460 0.000000 
#    z 0.000000 0.000000 1.806640 
# 
# From -- ./inp_files/29784.got.cif
#   From: 2010.03.12/outbox.cif.g09.slc.cpg/sg69_15_cif.got.tgz:29784.got - 2010.04.10 23:52:46.
