data_PCOD8284097
_publ_section_title
;
Structure prediction by ZEFSAII (Michael W. Deem and Ramdas Pophale) SiO2 
 PCOD8284097
Probable space group: F M M M
;
_chemical_formula_sum "Si O2"
_cell_formula_units_Z 112
_cell_length_a 21.471624
_cell_length_b 23.536949
_cell_length_c 10.935992
_cell_angle_alpha 90.000000
_cell_angle_beta 90.000000
_cell_angle_gamma 90.000000
_cell_volume 5526.793569
_symmetry_space_group_name_H-M "F M M M"
_symmetry_group_IT_number 69
_symmetry_cell_setting 'orthorhombic'
loop_
_space_group_symop_operation_xyz
x,y,z
-x,-y,z
x,-y,-z
-x,y,-z
-x,-y,-z
x,y,-z
-x,y,z
x,-y,z
x,1/2+y,1/2+z
-x,1/2-y,1/2+z
x,1/2-y,1/2-z
-x,1/2+y,1/2-z
-x,1/2-y,1/2-z
x,1/2+y,1/2-z
-x,1/2+y,1/2+z
x,1/2-y,1/2+z
1/2+x,y,1/2+z
1/2-x,-y,1/2+z
1/2+x,-y,1/2-z
1/2-x,y,1/2-z
1/2-x,-y,1/2-z
1/2+x,y,1/2-z
1/2-x,y,1/2+z
1/2+x,-y,1/2+z
1/2+x,1/2+y,z
1/2-x,1/2-y,z
1/2+x,1/2-y,-z
1/2-x,1/2+y,-z
1/2-x,1/2-y,-z
1/2+x,1/2+y,-z
1/2-x,1/2+y,z
1/2+x,1/2-y,z
loop_
_atom_site_type_symbol
_atom_site_label
_atom_site_fract_x
_atom_site_fract_y
_atom_site_fract_z
Si Si1 0.500000 0.317846 0.131330
Si Si2 0.393721 0.750000 0.250000
Si Si3 0.500000 0.437410 0.792864
Si Si4 0.123901 0.062975 0.360361
Si Si5 0.701655 0.171314 0.141232
O O1 0.562965 0.299593 0.197826
O O2 0.500000 0.386008 0.111380
O O3 0.500000 0.288098 0.000000
O O4 0.351575 0.780315 0.146791
O O5 0.500000 0.500000 0.856394
O O6 0.560607 0.429252 0.711702
O O7 0.105047 0.071865 0.500000
O O8 0.175338 0.109320 0.323627
O O9 0.152382 0.000000 0.336962
O O10 0.750000 0.185841 0.250000
O O11 0.728402 0.172289 0.000000
#
# Coordination Sequence:
#
# PCOD8284097 Si02
#       5
#    16  16  16  32  32
#     4  11  23  38  60  90 123 155 190 243 305 361
#     4  11  23  42  60  86 117 163 198 246 292 365
#     4  10  18  35  61  89 117 150 192 239 300 362
#     4   9  18  35  60  89 119 151 193 245 299 358
#     4  11  24  41  63  88 118 160 208 253 297 351
#
# _framework density 20.264914999999998
#
# number of rings (size 3 to 8) (size 9 to 14) (size 15 to 20)
#    0.000    1.714    2.857    1.714    0.000    6.000 
#    0.000    0.000    0.000    0.000    0.000    0.000 
#    0.000    0.000    0.000    0.000    0.000    0.000 
#
# Total GULP energy -346942.759229 kJ/mol
# GULP energy per Si atom -12390.812830 kJ/mol
# Density = 2.021879 g / cm^3
# Si number density = 20.264915 Si / 1000 Ang^3
#
#
#
# Elastic Constant Matrix: (Units=GPa)
#
#
# Indices 1 2 3 4 5 6 
#
# 1 90.1734 39.5362 47.0368 0.0000 0.0000 0.0000
# 2 39.5362 133.9827 26.7639 0.0000 0.0000 0.0000
# 3 47.0368 26.7639 98.4994 0.0000 -0.0001 0.0000
# 4 0.0000 0.0000 0.0000 23.7294 0.0000 0.0000
# 5 0.0000 0.0000 -0.0001 0.0000 20.9945 0.0000
# 6 0.0000 0.0000 0.0000 0.0000 0.0000 16.3758
#
#
#
# Elastic Compliance Matrix: (Units=1/GPa)
#
#
# Indices 1 2 3 4 5 6 
#
# 1 0.016113 -0.003402 -0.006770 0.000000 0.000000 0.000000
# 2 -0.003402 0.008610 -0.000715 0.000000 0.000000 0.000000
# 3 -0.006770 -0.000715 0.013579 0.000000 0.000000 0.000000
# 4 0.000000 0.000000 0.000000 0.042142 0.000000 0.000000
# 5 0.000000 0.000000 0.000000 0.000000 0.047631 0.000000
# 6 0.000000 0.000000 0.000000 0.000000 0.000000 0.061066
#
#
# Mechanical properties :
#
#
# Convention : Reuss Voigt Hill
#
# Bulk Modulus (GPa) = 60.50175 61.03660 60.76918
# Shear Modulus (GPa) = 23.10262 26.17451 24.63857
#
# Velocity S-wave (km/s) = 3.38010 3.59781 3.49065
# Velocity P-wave (km/s) = 6.71965 6.88794 6.80431
#
# Compressibility (1/GPa) = 0.01652845
#
# Stress axis : x y z
#
# Youngs Moduli (GPa) = 62.06213 116.13830 73.64052
#
# Poissons Ratio (x) = 0.39514 0.49855
# Poissons Ratio (y) = 0.21116 0.05264
# Poissons Ratio (z) = 0.42016 0.08302
#
# Static dielectric constant tensor:
#      x y z
#    x 3.523510 0.000000 0.000000 
#    y 0.000000 4.127070 0.000000 
#    z 0.000000 0.000000 3.431920 
# 
# 
# High freq. dielectric constant tensor:
#      x y z
#    x 1.777760 0.000000 0.000000 
#    y 0.000000 1.817000 0.000000 
#    z 0.000000 0.000000 1.775540 
# 
# From -- ./inp_files/10053.got.cif
#   From: 2010.03.12/outbox.cif.g09.slc.cpg/sg69_6_cif.got.tgz:10053.got - 2010.04.10 23:52:46.
