data_PCOD8284311
_publ_section_title
;
Structure prediction by ZEFSAII (Michael W. Deem and Ramdas Pophale) SiO2 
 PCOD8284311
Probable space group: F M M M
;
_chemical_formula_sum "Si O2"
_cell_formula_units_Z 192
_cell_length_a 19.579161
_cell_length_b 22.133854
_cell_length_c 21.397924
_cell_angle_alpha 90.000000
_cell_angle_beta 90.000000
_cell_angle_gamma 90.000000
_cell_volume 9273.053368
_symmetry_space_group_name_H-M "F M M M"
_symmetry_group_IT_number 69
_symmetry_cell_setting 'orthorhombic'
loop_
_space_group_symop_operation_xyz
x,y,z
-x,-y,z
x,-y,-z
-x,y,-z
-x,-y,-z
x,y,-z
-x,y,z
x,-y,z
x,1/2+y,1/2+z
-x,1/2-y,1/2+z
x,1/2-y,1/2-z
-x,1/2+y,1/2-z
-x,1/2-y,1/2-z
x,1/2+y,1/2-z
-x,1/2+y,1/2+z
x,1/2-y,1/2+z
1/2+x,y,1/2+z
1/2-x,-y,1/2+z
1/2+x,-y,1/2-z
1/2-x,y,1/2-z
1/2-x,-y,1/2-z
1/2+x,y,1/2-z
1/2-x,y,1/2+z
1/2+x,-y,1/2+z
1/2+x,1/2+y,z
1/2-x,1/2-y,z
1/2+x,1/2-y,-z
1/2-x,1/2+y,-z
1/2-x,1/2-y,-z
1/2+x,1/2+y,-z
1/2-x,1/2+y,z
1/2+x,1/2-y,z
loop_
_atom_site_type_symbol
_atom_site_label
_atom_site_fract_x
_atom_site_fract_y
_atom_site_fract_z
Si Si1 0.926239 0.000000 0.571909
Si Si2 0.791186 0.569237 0.190731
Si Si3 0.334741 0.614623 0.428276
Si Si4 0.577010 0.568620 0.763236
Si Si5 0.422837 0.267376 0.571834
Si Si6 0.081057 0.859415 0.117526
Si Si7 0.081681 0.568028 0.500000
O O1 0.884684 0.940358 0.588402
O O2 0.943235 0.000000 0.500000
O O3 0.000000 0.000000 0.607747
O O4 0.768286 0.500000 0.180393
O O5 0.750000 0.596366 0.250000
O O6 0.776658 0.607056 0.126051
O O7 0.872420 0.574556 0.204697
O O8 0.306583 0.610561 0.500000
O O9 0.372967 0.677077 0.416807
O O10 0.500000 0.587089 0.742993
O O11 0.577727 0.500000 0.789143
O O12 0.606037 0.612164 0.817524
O O13 0.421566 0.246488 0.500000
O O14 0.500000 0.286388 0.590587
O O15 0.396260 0.210760 0.612752
O O16 0.000000 0.863052 0.113141
O O17 0.111945 0.898199 0.060649
O O18 0.110038 0.500000 0.500000
O O19 0.000000 0.568499 0.500000
#
# Coordination Sequence:
#
# PCOD8284311 Si02
#       7
#    16  32  32  32  32  32  16
#     4   9  16  26  43  76 114 140 169 220 276 317
#     4  10  21  38  58  80 110 148 182 226 287 346
#     4  10  19  32  53  79 106 141 183 228 272 329
#     4   9  18  32  52  79 109 142 182 232 286 338
#     4   9  16  27  45  75 114 152 184 222 279 340
#     4   9  15  26  44  70 107 147 184 224 275 331
#     4   9  14  20  38  68 100 140 187 235 282 324
#
# _framework density 20.705154
#
# number of rings (size 3 to 8) (size 9 to 14) (size 15 to 20)
#    0.000    2.667    1.667    1.000    0.000    5.333 
#    0.000    0.833    1.833    5.000    0.000    2.333 
#    0.000    0.000    0.000    0.000    0.000    0.000 
#
# Total GULP energy -594819.982492 kJ/mol
# GULP energy per Si atom -12392.082969 kJ/mol
# Density = 2.065803 g / cm^3
# Si number density = 20.705154 Si / 1000 Ang^3
#
#
#
# Elastic Constant Matrix: (Units=GPa)
#
#
# Indices 1 2 3 4 5 6 
#
# 1 29.3664 2.9826 26.2502 0.0000 0.0000 0.0000
# 2 2.9826 102.3784 49.7216 0.0000 0.0000 0.0000
# 3 26.2502 49.7216 133.8871 0.0000 0.0000 0.0000
# 4 0.0000 0.0000 0.0000 18.9326 0.0000 0.0000
# 5 0.0000 0.0000 0.0000 0.0000 25.7015 0.0000
# 6 0.0000 0.0000 0.0000 0.0000 0.0000 10.8122
#
#
#
# Elastic Compliance Matrix: (Units=1/GPa)
#
#
# Indices 1 2 3 4 5 6 
#
# 1 0.042240 0.003406 -0.009547 0.000000 0.000000 0.000000
# 2 0.003406 0.012192 -0.005195 0.000000 0.000000 0.000000
# 3 -0.009547 -0.005195 0.011270 0.000000 0.000000 0.000000
# 4 0.000000 0.000000 0.000000 0.052819 0.000000 0.000000
# 5 0.000000 0.000000 0.000000 0.000000 0.038908 0.000000
# 6 0.000000 0.000000 0.000000 0.000000 0.000000 0.092488
#
#
# Mechanical properties :
#
#
# Convention : Reuss Voigt Hill
#
# Bulk Modulus (GPa) = 23.23972 47.06008 35.14990
# Shear Modulus (GPa) = 17.42571 23.53443 20.48007
#
# Velocity S-wave (km/s) = 2.90420 3.37508 3.14845
# Velocity P-wave (km/s) = 4.74282 6.16167 5.49821
#
# Compressibility (1/GPa) = 0.04302977
#
# Stress axis : x y z
#
# Youngs Moduli (GPa) = 23.67416 82.02320 88.73035
#
# Poissons Ratio (x) = -0.27936 0.84707
# Poissons Ratio (y) = -0.08063 0.46099
# Poissons Ratio (z) = 0.22601 0.42614
#
# Static dielectric constant tensor:
#      x y z
#    x 3.375790 0.000000 0.000000 
#    y 0.000000 3.687190 0.000000 
#    z 0.000000 0.000000 3.871440 
# 
# 
# High freq. dielectric constant tensor:
#      x y z
#    x 1.766740 0.000000 0.000000 
#    y 0.000000 1.796780 0.000000 
#    z 0.000000 0.000000 1.814440 
# 
# From -- ./inp_files/32938.got.cif
#   From: 2010.03.12/outbox.cif.g09.slc.cpg/sg69_17_cif.got.tgz:32938.got - 2010.04.10 23:52:46.
