data_PCOD8284268
_publ_section_title
;
Structure prediction by ZEFSAII (Michael W. Deem and Ramdas Pophale) SiO2 
 PCOD8284268
Probable space group: F M M M
;
_chemical_formula_sum "Si O2"
_cell_formula_units_Z 160
_cell_length_a 31.091928
_cell_length_b 15.104595
_cell_length_c 18.205818
_cell_angle_alpha 90.000000
_cell_angle_beta 90.000000
_cell_angle_gamma 90.000000
_cell_volume 8550.016153
_symmetry_space_group_name_H-M "F M M M"
_symmetry_group_IT_number 69
_symmetry_cell_setting 'orthorhombic'
loop_
_space_group_symop_operation_xyz
x,y,z
-x,-y,z
x,-y,-z
-x,y,-z
-x,-y,-z
x,y,-z
-x,y,z
x,-y,z
x,1/2+y,1/2+z
-x,1/2-y,1/2+z
x,1/2-y,1/2-z
-x,1/2+y,1/2-z
-x,1/2-y,1/2-z
x,1/2+y,1/2-z
-x,1/2+y,1/2+z
x,1/2-y,1/2+z
1/2+x,y,1/2+z
1/2-x,-y,1/2+z
1/2+x,-y,1/2-z
1/2-x,y,1/2-z
1/2-x,-y,1/2-z
1/2+x,y,1/2-z
1/2-x,y,1/2+z
1/2+x,-y,1/2+z
1/2+x,1/2+y,z
1/2-x,1/2-y,z
1/2+x,1/2-y,-z
1/2-x,1/2+y,-z
1/2-x,1/2-y,-z
1/2+x,1/2+y,-z
1/2-x,1/2+y,z
1/2+x,1/2-y,z
loop_
_atom_site_type_symbol
_atom_site_label
_atom_site_fract_x
_atom_site_fract_y
_atom_site_fract_z
Si Si1 0.231770 0.000000 0.911483
Si Si2 0.873334 0.679969 0.087612
Si Si3 0.331987 0.855921 0.416516
Si Si4 0.096627 0.500000 0.580981
Si Si5 0.828672 0.000000 0.412974
Si Si6 0.950554 0.173337 0.308923
Si Si7 0.050294 0.000000 0.228626
O O1 0.207582 0.088621 0.880438
O O2 0.280185 0.000000 0.881430
O O3 0.228374 0.000000 0.000000
O O4 0.842025 0.758922 0.117658
O O5 0.853148 0.587402 0.114743
O O6 0.920939 0.692339 0.120664
O O7 0.878416 0.684217 0.000000
O O8 0.318849 0.839166 0.500000
O O9 0.375058 0.912690 0.409771
O O10 0.074921 0.500000 0.500000
O O11 0.060541 0.500000 0.642588
O O12 0.826209 0.000000 0.500000
O O13 0.946603 0.250000 0.250000
O O14 0.931752 0.085897 0.269905
O O15 0.000000 0.163101 0.335868
O O16 0.000000 0.000000 0.234690
#
# Coordination Sequence:
#
# PCOD8284268 Si02
#       7
#    16  32  32  16  16  32  16
#     4   8  14  27  45  71 105 132 155 196 254 299
#     4  10  19  32  50  74 101 130 167 208 246 286
#     4   8  15  27  46  71  98 126 158 201 251 296
#     4   9  16  29  49  74  99 123 160 208 253 297
#     4   9  18  29  45  73 105 132 165 204 237 284
#     4  10  21  36  52  72  99 131 168 206 246 298
#     4  10  20  33  49  70  98 132 167 203 246 297
#
# _framework density 18.713415000000001
#
# number of rings (size 3 to 8) (size 9 to 14) (size 15 to 20)
#    0.000    2.800    0.000    3.000    0.000    1.400 
#    0.000    4.000    0.000   10.800    0.000   32.200 
#    0.000    0.000    0.000    0.000    0.000    0.000 
#
# Total GULP energy -495688.489831 kJ/mol
# GULP energy per Si atom -12392.212246 kJ/mol
# Density = 1.867082 g / cm^3
# Si number density = 18.713415 Si / 1000 Ang^3
#
#
#
# Elastic Constant Matrix: (Units=GPa)
#
#
# Indices 1 2 3 4 5 6 
#
# 1 102.4756 57.1990 37.1150 0.0000 0.0000 0.0000
# 2 57.1990 154.5508 18.7913 0.0000 0.0000 0.0000
# 3 37.1150 18.7913 40.3600 0.0000 0.0000 0.0000
# 4 0.0000 0.0000 0.0000 16.1936 0.0000 0.0000
# 5 0.0000 0.0000 0.0000 0.0000 13.8063 0.0000
# 6 0.0000 0.0000 0.0000 0.0000 0.0000 34.2467
#
#
#
# Elastic Compliance Matrix: (Units=1/GPa)
#
#
# Indices 1 2 3 4 5 6 
#
# 1 0.017417 -0.004769 -0.013796 0.000000 0.000000 0.000000
# 2 -0.004769 0.008164 0.000584 0.000000 0.000000 0.000000
# 3 -0.013796 0.000584 0.037192 0.000000 0.000000 0.000000
# 4 0.000000 0.000000 0.000000 0.061753 0.000000 0.000000
# 5 0.000000 0.000000 0.000000 0.000000 0.072431 0.000000
# 6 0.000000 0.000000 0.000000 0.000000 0.000000 0.029200
#
#
# Mechanical properties :
#
#
# Convention : Reuss Voigt Hill
#
# Bulk Modulus (GPa) = 37.29750 58.17743 47.73747
# Shear Modulus (GPa) = 18.44640 25.13473 21.79056
#
# Velocity S-wave (km/s) = 3.14304 3.66886 3.41608
# Velocity P-wave (km/s) = 5.75724 7.00739 6.41285
#
# Compressibility (1/GPa) = 0.02681145
#
# Stress axis : x y z
#
# Youngs Moduli (GPa) = 57.41552 122.48625 26.88730
#
# Poissons Ratio (x) = 0.58408 0.37095
# Poissons Ratio (y) = 0.27379 -0.01570
# Poissons Ratio (z) = 0.79213 -0.07152
#
# Static dielectric constant tensor:
#      x y z
#    x 3.367670 0.000000 0.000000 
#    y 0.000000 3.983960 0.000000 
#    z 0.000000 0.000000 2.953900 
# 
# 
# High freq. dielectric constant tensor:
#      x y z
#    x 1.715760 0.000000 0.000000 
#    y 0.000000 1.749000 0.000000 
#    z 0.000000 0.000000 1.676730 
# 
# From -- ./inp_files/27545.got.cif
#   From: 2010.03.12/outbox.cif.g09.slc.cpg/sg69_14_cif.got.tgz:27545.got - 2010.04.10 23:52:46.
