data_PCOD8284871
_publ_section_title
;
Structure prediction by ZEFSAII (Michael W. Deem and Ramdas Pophale) SiO2 
 PCOD8284871
Probable space group: F M M M
;
_chemical_formula_sum "Si O2"
_cell_formula_units_Z 160
_cell_length_a 14.212250
_cell_length_b 31.484070
_cell_length_c 18.499990
_cell_angle_alpha 90.000000
_cell_angle_beta 90.000000
_cell_angle_gamma 90.000000
_cell_volume 8277.995792
_symmetry_space_group_name_H-M "F M M M"
_symmetry_group_IT_number 69
_symmetry_cell_setting 'orthorhombic'
loop_
_space_group_symop_operation_xyz
x,y,z
-x,-y,z
x,-y,-z
-x,y,-z
-x,-y,-z
x,y,-z
-x,y,z
x,-y,z
x,1/2+y,1/2+z
-x,1/2-y,1/2+z
x,1/2-y,1/2-z
-x,1/2+y,1/2-z
-x,1/2-y,1/2-z
x,1/2+y,1/2-z
-x,1/2+y,1/2+z
x,1/2-y,1/2+z
1/2+x,y,1/2+z
1/2-x,-y,1/2+z
1/2+x,-y,1/2-z
1/2-x,y,1/2-z
1/2-x,-y,1/2-z
1/2+x,y,1/2-z
1/2-x,y,1/2+z
1/2+x,-y,1/2+z
1/2+x,1/2+y,z
1/2-x,1/2-y,z
1/2+x,1/2-y,-z
1/2-x,1/2+y,-z
1/2-x,1/2-y,-z
1/2+x,1/2+y,-z
1/2-x,1/2+y,z
1/2+x,1/2-y,z
loop_
_atom_site_type_symbol
_atom_site_label
_atom_site_fract_x
_atom_site_fract_y
_atom_site_fract_z
Si Si1 0.727975 0.305417 0.332318
Si Si2 0.500000 0.048270 0.212501
Si Si3 0.196284 0.046817 0.918672
Si Si4 0.388497 0.765945 0.586585
Si Si5 0.000000 0.546955 0.381814
Si Si6 0.685727 0.598486 0.317777
O O1 0.750000 0.290504 0.250000
O O2 0.651410 0.275479 0.371783
O O3 0.826030 0.304638 0.379234
O O4 0.679712 0.351285 0.329426
O O5 0.500000 0.044249 0.297018
O O6 0.413725 0.076631 0.188412
O O7 0.500000 0.000000 0.179241
O O8 0.094371 0.069734 0.909743
O O9 0.271985 0.078624 0.889013
O O10 0.196440 0.000000 0.879751
O O11 0.224430 0.039998 0.000000
O O12 0.372098 0.762419 0.500000
O O13 0.500000 0.772123 0.603206
O O14 0.000000 0.500000 0.417110
O O15 0.750000 0.586232 0.250000
#
# Coordination Sequence:
#
# PCOD8284871 Si02
#       6
#    32  16  32  32  16  32
#     4  10  22  38  60  90 122 158 196 245 297 352
#     4  11  22  37  63  89 117 160 208 254 296 355
#     4  10  20  35  56  82 115 154 196 246 301 353
#     4  10  21  40  66  91 119 157 198 239 295 364
#     4   9  17  32  57  83 109 144 193 245 297 351
#     4  11  23  39  58  88 122 157 202 247 301 358
#
# _framework density 19.328351000000001
#
# number of rings (size 3 to 8) (size 9 to 14) (size 15 to 20)
#    0.000    1.800    2.000    3.300    1.400    5.200 
#    7.200    0.500    0.000    1.800    0.000    0.000 
#    0.000    0.000    0.000    0.000    0.000    0.000 
#
# Total GULP energy -495572.701803 kJ/mol
# GULP energy per Si atom -12389.317545 kJ/mol
# Density = 1.928436 g / cm^3
# Si number density = 19.328351 Si / 1000 Ang^3
#
#
#
# Elastic Constant Matrix: (Units=GPa)
#
#
# Indices 1 2 3 4 5 6 
#
# 1 144.6889 54.2564 48.3991 0.0000 0.0000 0.0000
# 2 54.2564 114.9694 35.9045 0.0000 0.0000 0.0000
# 3 48.3991 35.9045 105.3290 0.0000 0.0000 0.0000
# 4 0.0000 0.0000 0.0000 21.4107 0.0000 0.0000
# 5 0.0000 0.0000 0.0000 0.0000 31.3239 0.0000
# 6 0.0000 0.0000 0.0000 0.0000 0.0000 36.7175
#
#
#
# Elastic Compliance Matrix: (Units=1/GPa)
#
#
# Indices 1 2 3 4 5 6 
#
# 1 0.009211 -0.003385 -0.003078 0.000000 0.000000 0.000000
# 2 -0.003385 0.010978 -0.002187 0.000000 0.000000 0.000000
# 3 -0.003078 -0.002187 0.011654 0.000000 0.000000 0.000000
# 4 0.000000 0.000000 0.000000 0.046706 0.000000 0.000000
# 5 0.000000 0.000000 0.000000 0.000000 0.031925 0.000000
# 6 0.000000 0.000000 0.000000 0.000000 0.000000 0.027235
#
#
# Mechanical properties :
#
#
# Convention : Reuss Voigt Hill
#
# Bulk Modulus (GPa) = 68.76516 71.34522 70.05519
# Shear Modulus (GPa) = 31.27809 32.98556 32.13183
#
# Velocity S-wave (km/s) = 4.02711 4.13557 4.08170
# Velocity P-wave (km/s) = 7.56823 7.73280 7.65096
#
# Compressibility (1/GPa) = 0.01454225
#
# Stress axis : x y z
#
# Youngs Moduli (GPa) = 108.57145 91.08725 85.80758
#
# Poissons Ratio (x) = 0.30836 0.26414
# Poissons Ratio (y) = 0.36755 0.18764
# Poissons Ratio (z) = 0.33421 0.19919
#
# Static dielectric constant tensor:
#      x y z
#    x 3.501210 0.000000 0.000000 
#    y 0.000000 3.553830 0.000000 
#    z 0.000000 0.000000 3.602860 
# 
# 
# High freq. dielectric constant tensor:
#      x y z
#    x 1.757280 0.000000 0.000000 
#    y 0.000000 1.739570 0.000000 
#    z 0.000000 0.000000 1.755700 
# 
# From -- ./inp_files/21858.got.cif
#   From: 2010.03.12/outbox.cif.g09.slc.cpg/sg69_11_cif.got.tgz:21858.got - 2010.04.10 23:52:46.
