data_PCOD8284220
_publ_section_title
;
Structure prediction by ZEFSAII (Michael W. Deem and Ramdas Pophale) SiO2 
 PCOD8284220
Probable space group: F M M M
;
_chemical_formula_sum "Si O2"
_cell_formula_units_Z 144
_cell_length_a 27.962047
_cell_length_b 18.242682
_cell_length_c 14.596635
_cell_angle_alpha 90.000000
_cell_angle_beta 90.000000
_cell_angle_gamma 90.000000
_cell_volume 7445.783384
_symmetry_space_group_name_H-M "F M M M"
_symmetry_group_IT_number 69
_symmetry_cell_setting 'orthorhombic'
loop_
_space_group_symop_operation_xyz
x,y,z
-x,-y,z
x,-y,-z
-x,y,-z
-x,-y,-z
x,y,-z
-x,y,z
x,-y,z
x,1/2+y,1/2+z
-x,1/2-y,1/2+z
x,1/2-y,1/2-z
-x,1/2+y,1/2-z
-x,1/2-y,1/2-z
x,1/2+y,1/2-z
-x,1/2+y,1/2+z
x,1/2-y,1/2+z
1/2+x,y,1/2+z
1/2-x,-y,1/2+z
1/2+x,-y,1/2-z
1/2-x,y,1/2-z
1/2-x,-y,1/2-z
1/2+x,y,1/2-z
1/2-x,y,1/2+z
1/2+x,-y,1/2+z
1/2+x,1/2+y,z
1/2-x,1/2-y,z
1/2+x,1/2-y,-z
1/2-x,1/2+y,-z
1/2-x,1/2-y,-z
1/2+x,1/2+y,-z
1/2-x,1/2+y,z
1/2+x,1/2-y,z
loop_
_atom_site_type_symbol
_atom_site_label
_atom_site_fract_x
_atom_site_fract_y
_atom_site_fract_z
Si Si1 0.738400 0.833895 0.353773
Si Si2 0.091166 0.913812 0.717195
Si Si3 0.000000 0.087515 0.606933
Si Si4 0.174805 0.419002 0.900656
Si Si5 0.141579 0.084764 0.896382
O O1 0.750000 0.853680 0.250000
O O2 0.750000 0.750000 0.375880
O O3 0.775313 0.878564 0.414633
O O4 0.684899 0.858731 0.379067
O O5 0.138291 0.879323 0.669007
O O6 0.097490 0.897157 0.826194
O O7 0.044637 0.880652 0.666568
O O8 0.089726 0.000000 0.698227
O O9 0.000000 0.115284 0.500000
O O10 0.000000 0.000000 0.606544
O O11 0.186193 0.500000 0.863368
O O12 0.149512 0.422069 0.000000
O O13 0.158351 0.000000 0.881537
O O14 0.122490 0.095857 0.000000
#
# Coordination Sequence:
#
# PCOD8284220 Si02
#       5
#    32  32  16  32  32
#     4  11  22  34  49  72 102 137 175 213 259 298
#     4   9  17  30  48  72 103 132 163 208 256 302
#     4   9  16  28  49  77 106 133 162 205 263 311
#     4  10  19  31  50  74  99 132 170 206 251 307
#     4  10  20  34  52  73 100 139 180 212 250 303
#
# _framework density 19.339805999999999
#
# number of rings (size 3 to 8) (size 9 to 14) (size 15 to 20)
#    0.000    2.111    2.222    2.000    0.000    7.111 
#    0.000    0.556    0.000    3.333    0.000    3.111 
#    0.000    3.556    0.000    0.000    0.000    0.000 
#
# Total GULP energy -445980.356484 kJ/mol
# GULP energy per Si atom -12388.343236 kJ/mol
# Density = 1.929579 g / cm^3
# Si number density = 19.339806 Si / 1000 Ang^3
#
#
#
# Elastic Constant Matrix: (Units=GPa)
#
#
# Indices 1 2 3 4 5 6 
#
# 1 114.2899 21.8519 66.4634 0.0000 0.0000 0.0000
# 2 21.8519 44.8247 28.5455 0.0000 0.0000 0.0000
# 3 66.4634 28.5455 156.9250 0.0000 0.0000 0.0000
# 4 0.0000 0.0000 0.0000 8.7400 0.0000 0.0000
# 5 0.0000 0.0000 0.0000 0.0000 32.2139 0.0000
# 6 0.0000 0.0000 0.0000 0.0000 0.0000 6.7312
#
#
#
# Elastic Compliance Matrix: (Units=1/GPa)
#
#
# Indices 1 2 3 4 5 6 
#
# 1 0.011942 -0.002942 -0.004523 0.000000 0.000000 0.000000
# 2 -0.002942 0.025957 -0.003476 0.000000 0.000000 0.000000
# 3 -0.004523 -0.003476 0.008920 0.000000 0.000000 0.000000
# 4 0.000000 0.000000 0.000000 0.114417 0.000000 0.000000
# 5 0.000000 0.000000 0.000000 0.000000 0.031042 0.000000
# 6 0.000000 0.000000 0.000000 0.000000 0.000000 0.148562
#
#
# Mechanical properties :
#
#
# Convention : Reuss Voigt Hill
#
# Bulk Modulus (GPa) = 40.09819 61.08458 50.59139
# Shear Modulus (GPa) = 13.47586 22.81561 18.14574
#
# Velocity S-wave (km/s) = 2.64255 3.43844 3.06642
# Velocity P-wave (km/s) = 5.48537 6.88602 6.22521
#
# Compressibility (1/GPa) = 0.02493878
#
# Stress axis : x y z
#
# Youngs Moduli (GPa) = 83.73582 38.52585 112.10309
#
# Poissons Ratio (x) = 0.11332 0.50703
# Poissons Ratio (y) = 0.24631 0.38965
# Poissons Ratio (z) = 0.37873 0.13391
#
# Static dielectric constant tensor:
#      x y z
#    x 3.478670 0.000000 0.000000 
#    y 0.000000 3.099590 0.000000 
#    z 0.000000 0.000000 3.839090 
# 
# 
# High freq. dielectric constant tensor:
#      x y z
#    x 1.728750 0.000000 0.000000 
#    y 0.000000 1.698220 0.000000 
#    z 0.000000 0.000000 1.778860 
# 
# From -- ./inp_files/19428.got.cif
#   From: 2010.03.12/outbox.cif.g09.slc.cpg/sg69_10_cif.got.tgz:19428.got - 2010.04.10 23:52:46.
