data_PCOD8284579
_publ_section_title
;
Structure prediction by ZEFSAII (Michael W. Deem and Ramdas Pophale) SiO2 
 PCOD8284579
Probable space group: F M M M
;
_chemical_formula_sum "Si O2"
_cell_formula_units_Z 144
_cell_length_a 29.962163
_cell_length_b 9.721663
_cell_length_c 28.687121
_cell_angle_alpha 90.000000
_cell_angle_beta 90.000000
_cell_angle_gamma 90.000000
_cell_volume 8356.043455
_symmetry_space_group_name_H-M "F M M M"
_symmetry_group_IT_number 69
_symmetry_cell_setting 'orthorhombic'
loop_
_space_group_symop_operation_xyz
x,y,z
-x,-y,z
x,-y,-z
-x,y,-z
-x,-y,-z
x,y,-z
-x,y,z
x,-y,z
x,1/2+y,1/2+z
-x,1/2-y,1/2+z
x,1/2-y,1/2-z
-x,1/2+y,1/2-z
-x,1/2-y,1/2-z
x,1/2+y,1/2-z
-x,1/2+y,1/2+z
x,1/2-y,1/2+z
1/2+x,y,1/2+z
1/2-x,-y,1/2+z
1/2+x,-y,1/2-z
1/2-x,y,1/2-z
1/2-x,-y,1/2-z
1/2+x,y,1/2-z
1/2-x,y,1/2+z
1/2+x,-y,1/2+z
1/2+x,1/2+y,z
1/2-x,1/2-y,z
1/2+x,1/2-y,-z
1/2-x,1/2+y,-z
1/2-x,1/2-y,-z
1/2+x,1/2+y,-z
1/2-x,1/2+y,z
1/2+x,1/2-y,z
loop_
_atom_site_type_symbol
_atom_site_label
_atom_site_fract_x
_atom_site_fract_y
_atom_site_fract_z
Si Si1 0.552015 0.000000 0.051784
Si Si2 0.709358 0.842696 0.055562
Si Si3 0.447960 0.154076 0.709867
Si Si4 0.368500 0.649203 0.947435
Si Si5 0.551522 0.271694 0.894228
O O1 0.566036 0.871757 0.082914
O O2 0.500000 0.000000 0.043304
O O3 0.575151 0.000000 0.000000
O O4 0.750000 0.750000 0.075161
O O5 0.664077 0.767348 0.072833
O O6 0.711061 0.000000 0.074743
O O7 0.711030 0.843712 0.000000
O O8 0.500000 0.138053 0.720130
O O9 0.425992 0.250000 0.750000
O O10 0.440121 0.230437 0.660933
O O11 0.426669 0.000000 0.709863
O O12 0.343765 0.500000 0.946569
O O13 0.413652 0.625280 0.917706
O O14 0.382450 0.687987 0.000000
O O15 0.500000 0.312940 0.905074
#
# Coordination Sequence:
#
# PCOD8284579 Si02
#       5
#    16  32  32  32  32
#     4   9  18  30  44  64  92 128 168 205 239 283
#     4   9  17  30  48  67  89 118 154 197 243 288
#     4   9  18  31  48  67  89 119 160 209 259 302
#     4  10  20  31  45  67  95 127 163 200 239 287
#     4  10  20  32  47  66  95 132 169 206 246 288
#
# _framework density 17.233035999999998
#
# number of rings (size 3 to 8) (size 9 to 14) (size 15 to 20)
#    0.000    2.556    0.000    2.000    3.111    5.333 
#    0.000    1.111    0.000    0.000    0.000    0.000 
#    0.000    0.889    0.000    6.444    0.000    2.222 
#
# Total GULP energy -446023.534587 kJ/mol
# GULP energy per Si atom -12389.542627 kJ/mol
# Density = 1.719381 g / cm^3
# Si number density = 17.233036 Si / 1000 Ang^3
#
#
#
# Elastic Constant Matrix: (Units=GPa)
#
#
# Indices 1 2 3 4 5 6 
#
# 1 82.1224 34.2341 27.5175 0.0000 0.0000 0.0000
# 2 34.2341 135.0741 51.6001 0.0000 0.0000 0.0000
# 3 27.5175 51.6001 94.4758 0.0000 0.0000 0.0000
# 4 0.0000 0.0000 0.0000 22.3056 0.0000 0.0000
# 5 0.0000 0.0000 0.0000 0.0000 5.7295 0.0000
# 6 0.0000 0.0000 0.0000 0.0000 0.0000 18.5018
#
#
#
# Elastic Compliance Matrix: (Units=1/GPa)
#
#
# Indices 1 2 3 4 5 6 
#
# 1 0.014153 -0.002543 -0.002733 0.000000 0.000000 0.000000
# 2 -0.002543 0.009812 -0.004618 0.000000 0.000000 0.000000
# 3 -0.002733 -0.004618 0.013903 0.000000 0.000000 0.000000
# 4 0.000000 0.000000 0.000000 0.044832 0.000000 0.000000
# 5 0.000000 0.000000 0.000000 0.000000 0.174537 0.000000
# 6 0.000000 0.000000 0.000000 0.000000 0.000000 0.054049
#
#
# Mechanical properties :
#
#
# Convention : Reuss Voigt Hill
#
# Bulk Modulus (GPa) = 55.31301 59.81953 57.56627
# Shear Modulus (GPa) = 14.83234 22.52874 18.68054
#
# Velocity S-wave (km/s) = 2.93694 3.61958 3.29598
# Velocity P-wave (km/s) = 6.60814 7.22883 6.92544
#
# Compressibility (1/GPa) = 0.01807893
#
# Stress axis : x y z
#
# Youngs Moduli (GPa) = 70.65706 101.91463 71.92496
#
# Poissons Ratio (x) = 0.25915 0.19660
# Poissons Ratio (y) = 0.17967 0.33219
# Poissons Ratio (z) = 0.19314 0.47069
#
# Static dielectric constant tensor:
#      x y z
#    x 2.932490 0.000000 0.000000 
#    y 0.000000 3.595040 0.000000 
#    z 0.000000 0.000000 2.940790 
# 
# 
# High freq. dielectric constant tensor:
#      x y z
#    x 1.627890 0.000000 0.000000 
#    y 0.000000 1.688630 0.000000 
#    z 0.000000 0.000000 1.621890 
# 
# From -- ./inp_files/47401.got.cif
#   From: 2010.03.12/outbox.cif.g09.slc.cpg/sg69_24_cif.got.tgz:47401.got - 2010.04.10 23:52:46.
