data_PCOD8284931
_publ_section_title
;
Structure prediction by ZEFSAII (Michael W. Deem and Ramdas Pophale) SiO2 
 PCOD8284931
Probable space group: F M M M
;
_chemical_formula_sum "Si O2"
_cell_formula_units_Z 104
_cell_length_a 13.136801
_cell_length_b 13.283587
_cell_length_c 30.532535
_cell_angle_alpha 90.000000
_cell_angle_beta 90.000000
_cell_angle_gamma 90.000000
_cell_volume 5328.044571
_symmetry_space_group_name_H-M "F M M M"
_symmetry_group_IT_number 69
_symmetry_cell_setting 'orthorhombic'
loop_
_space_group_symop_operation_xyz
x,y,z
-x,-y,z
x,-y,-z
-x,y,-z
-x,-y,-z
x,y,-z
-x,y,z
x,-y,z
x,1/2+y,1/2+z
-x,1/2-y,1/2+z
x,1/2-y,1/2-z
-x,1/2+y,1/2-z
-x,1/2-y,1/2-z
x,1/2+y,1/2-z
-x,1/2+y,1/2+z
x,1/2-y,1/2+z
1/2+x,y,1/2+z
1/2-x,-y,1/2+z
1/2+x,-y,1/2-z
1/2-x,y,1/2-z
1/2-x,-y,1/2-z
1/2+x,y,1/2-z
1/2-x,y,1/2+z
1/2+x,-y,1/2+z
1/2+x,1/2+y,z
1/2-x,1/2-y,z
1/2+x,1/2-y,-z
1/2-x,1/2+y,-z
1/2-x,1/2-y,-z
1/2+x,1/2+y,-z
1/2-x,1/2+y,z
1/2+x,1/2-y,z
loop_
_atom_site_type_symbol
_atom_site_label
_atom_site_fract_x
_atom_site_fract_y
_atom_site_fract_z
Si Si1 0.114135 0.190427 0.449531
Si Si2 0.189030 0.113479 0.088930
Si Si3 0.617752 0.883301 0.685976
Si Si4 0.250000 0.750000 0.750000
O O1 0.137718 0.166422 0.500000
O O2 0.127732 0.310132 0.442062
O O3 0.190078 0.126762 0.419075
O O4 0.000000 0.157991 0.437137
O O5 0.166694 0.139526 0.139018
O O6 0.154653 0.000000 0.077582
O O7 0.500000 0.850338 0.685174
O O8 0.677268 0.819315 0.721390
O O9 0.628767 0.000000 0.698393
#
# Coordination Sequence:
#
# PCOD8284931 Si02
#       4
#    32  32  32   8
#     4  10  21  35  52  79 111 140 179 228 269 311
#     4  10  20  36  56  76 105 144 181 218 264 318
#     4  10  22  38  56  82 112 140 176 221 266 316
#     4  12  20  36  64  84 106 144 176 212 268 328
#
# _framework density 19.519356999999999
#
# number of rings (size 3 to 8) (size 9 to 14) (size 15 to 20)
#    0.000    1.846    0.000    5.538    0.000    4.923 
#    0.000    4.615    0.000    3.692    0.000    0.000 
#    0.000    0.000    0.000    0.000    0.000    0.000 
#
# Total GULP energy -322432.383756 kJ/mol
# GULP energy per Si atom -12401.245529 kJ/mol
# Density = 1.947493 g / cm^3
# Si number density = 19.519357 Si / 1000 Ang^3
#
#
#
# Elastic Constant Matrix: (Units=GPa)
#
#
# Indices 1 2 3 4 5 6 
#
# 1 159.9038 31.8937 89.5466 0.0000 0.0000 0.0000
# 2 31.8937 59.8499 35.6984 0.0000 0.0000 0.0000
# 3 89.5466 35.6984 102.5576 0.0000 0.0000 0.0000
# 4 0.0000 0.0000 0.0000 28.7730 0.0000 0.0000
# 5 0.0000 0.0000 0.0000 0.0000 28.8475 0.0000
# 6 0.0000 0.0000 0.0000 0.0000 0.0000 22.9661
#
#
#
# Elastic Compliance Matrix: (Units=1/GPa)
#
#
# Indices 1 2 3 4 5 6 
#
# 1 0.012239 -0.000187 -0.010621 0.000000 0.000000 0.000000
# 2 -0.000187 0.021089 -0.007178 0.000000 0.000000 0.000000
# 3 -0.010621 -0.007178 0.021523 0.000000 0.000000 0.000000
# 4 0.000000 0.000000 0.000000 0.034755 0.000000 0.000000
# 5 0.000000 0.000000 0.000000 0.000000 0.034665 0.000000
# 6 0.000000 0.000000 0.000000 0.000000 0.000000 0.043542
#
#
# Mechanical properties :
#
#
# Convention : Reuss Voigt Hill
#
# Bulk Modulus (GPa) = 52.96730 70.73210 61.84970
# Shear Modulus (GPa) = 23.80071 27.12881 25.46476
#
# Velocity S-wave (km/s) = 3.49569 3.73210 3.61583
# Velocity P-wave (km/s) = 6.59453 7.40858 7.01337
#
# Compressibility (1/GPa) = 0.01887957
#
# Stress axis : x y z
#
# Youngs Moduli (GPa) = 81.70644 47.41752 46.46253
#
# Poissons Ratio (x) = 0.00886 0.49349
# Poissons Ratio (y) = 0.01527 0.33349
# Poissons Ratio (z) = 0.86782 0.34034
#
# Static dielectric constant tensor:
#      x y z
#    x 3.698170 0.000000 0.000000 
#    y 0.000000 3.595020 0.000000 
#    z 0.000000 0.000000 3.472150 
# 
# 
# High freq. dielectric constant tensor:
#      x y z
#    x 1.772370 0.000000 0.000000 
#    y 0.000000 1.759390 0.000000 
#    z 0.000000 0.000000 1.757450 
# 
# From -- ./inp_files/35497.got.cif
#   From: 2010.03.12/outbox.cif.g09.slc.cpg/sg69_18_cif.got.tgz:35497.got - 2010.04.10 23:52:46.
