data_PCOD8284006
_publ_section_title
;
Structure prediction by ZEFSAII (Michael W. Deem and Ramdas Pophale) SiO2 
 PCOD8284006
Probable space group: F M M M
;
_chemical_formula_sum "Si O2"
_cell_formula_units_Z 208
_cell_length_a 22.174984
_cell_length_b 16.730845
_cell_length_c 27.938411
_cell_angle_alpha 90.000000
_cell_angle_beta 90.000000
_cell_angle_gamma 90.000000
_cell_volume 10365.324263
_symmetry_space_group_name_H-M "F M M M"
_symmetry_group_IT_number 69
_symmetry_cell_setting 'orthorhombic'
loop_
_space_group_symop_operation_xyz
x,y,z
-x,-y,z
x,-y,-z
-x,y,-z
-x,-y,-z
x,y,-z
-x,y,z
x,-y,z
x,1/2+y,1/2+z
-x,1/2-y,1/2+z
x,1/2-y,1/2-z
-x,1/2+y,1/2-z
-x,1/2-y,1/2-z
x,1/2+y,1/2-z
-x,1/2+y,1/2+z
x,1/2-y,1/2+z
1/2+x,y,1/2+z
1/2-x,-y,1/2+z
1/2+x,-y,1/2-z
1/2-x,y,1/2-z
1/2-x,-y,1/2-z
1/2+x,y,1/2-z
1/2-x,y,1/2+z
1/2+x,-y,1/2+z
1/2+x,1/2+y,z
1/2-x,1/2-y,z
1/2+x,1/2-y,-z
1/2-x,1/2+y,-z
1/2-x,1/2-y,-z
1/2+x,1/2+y,-z
1/2-x,1/2+y,z
1/2+x,1/2-y,z
loop_
_atom_site_type_symbol
_atom_site_label
_atom_site_fract_x
_atom_site_fract_y
_atom_site_fract_z
Si Si1 0.570883 0.826041 0.108911
Si Si2 0.569460 0.146525 0.386722
Si Si3 0.174881 0.095113 0.445967
Si Si4 0.072302 0.500000 0.446225
Si Si5 0.751154 0.090308 0.641368
Si Si6 0.626542 0.908783 0.803684
Si Si7 0.862428 0.905869 0.197437
O O1 0.500000 0.834008 0.097244
O O2 0.595171 0.735023 0.104709
O O3 0.608626 0.875764 0.070069
O O4 0.582479 0.857130 0.162841
O O5 0.500000 0.149629 0.398523
O O6 0.578248 0.117379 0.332179
O O7 0.599653 0.079721 0.421338
O O8 0.188911 0.123853 0.500000
O O9 0.226565 0.128803 0.409433
O O10 0.172888 0.000000 0.442166
O O11 0.096066 0.500000 0.500000
O O12 0.000000 0.500000 0.442853
O O13 0.805476 0.094501 0.678352
O O14 0.693837 0.132876 0.667029
O O15 0.731682 0.000000 0.630512
O O16 0.628567 0.870369 0.750508
O O17 0.602392 0.000000 0.803410
O O18 0.852215 0.000000 0.203173
#
# Coordination Sequence:
#
# PCOD8284006 Si02
#       7
#    32  32  32  16  32  32  32
#     4  10  21  35  51  75 111 149 183 221 266 324
#     4  10  21  36  53  76 106 137 173 224 279 323
#     4   9  18  34  56  81 111 144 175 216 269 321
#     4   9  18  36  58  74  95 130 172 222 279 326
#     4   8  15  30  52  77 106 138 177 219 263 316
#     4   9  18  32  51  77 108 146 181 221 266 309
#     4  10  18  31  55  78 101 137 185 225 264 322
#
# _framework density 20.066908000000002
#
# number of rings (size 3 to 8) (size 9 to 14) (size 15 to 20)
#    0.000    2.692    0.769    1.846    0.000    5.231 
#    0.000    9.231    0.000    4.615    0.000    0.000 
#    0.000    0.000    0.000    0.000    0.000    0.000 
#
# Total GULP energy -644412.880054 kJ/mol
# GULP energy per Si atom -12392.555386 kJ/mol
# Density = 2.002123 g / cm^3
# Si number density = 20.066908 Si / 1000 Ang^3
#
#
#
# Elastic Constant Matrix: (Units=GPa)
#
#
# Indices 1 2 3 4 5 6 
#
# 1 22.4787 19.7572 7.0782 0.0000 0.0000 0.0000
# 2 19.7572 66.2717 42.4271 0.0000 0.0000 0.0000
# 3 7.0782 42.4271 156.5171 0.0000 0.0000 0.0000
# 4 0.0000 0.0000 0.0000 12.5068 0.0000 0.0000
# 5 0.0000 0.0000 0.0000 0.0000 21.4167 0.0000
# 6 0.0000 0.0000 0.0000 0.0000 0.0000 13.7259
#
#
#
# Elastic Compliance Matrix: (Units=1/GPa)
#
#
# Indices 1 2 3 4 5 6 
#
# 1 0.061167 -0.019922 0.002634 0.000000 0.000000 0.000000
# 2 -0.019922 0.024746 -0.005807 0.000000 0.000000 0.000000
# 3 0.002634 -0.005807 0.007844 0.000000 0.000000 0.000000
# 4 0.000000 0.000000 0.000000 0.079957 0.000000 0.000000
# 5 0.000000 0.000000 0.000000 0.000000 0.046692 0.000000
# 6 0.000000 0.000000 0.000000 0.000000 0.000000 0.072855
#
#
# Mechanical properties :
#
#
# Convention : Reuss Voigt Hill
#
# Bulk Modulus (GPa) = 21.02261 42.64362 31.83312
# Shear Modulus (GPa) = 14.07235 21.26354 17.66795
#
# Velocity S-wave (km/s) = 2.65103 3.25873 2.97046
# Velocity P-wave (km/s) = 4.45753 5.95449 5.25954
#
# Compressibility (1/GPa) = 0.04756783
#
# Stress axis : x y z
#
# Youngs Moduli (GPa) = 16.34871 40.41032 127.48486
#
# Poissons Ratio (x) = 0.80504 -0.33579
# Poissons Ratio (y) = 0.32569 0.74031
# Poissons Ratio (z) = -0.04306 0.23466
#
# Static dielectric constant tensor:
#      x y z
#    x 3.442120 0.000000 0.000000 
#    y 0.000000 3.616580 0.000000 
#    z 0.000000 0.000000 3.895770 
# 
# 
# High freq. dielectric constant tensor:
#      x y z
#    x 1.766070 0.000000 0.000000 
#    y 0.000000 1.758510 0.000000 
#    z 0.000000 0.000000 1.788890 
# 
# From -- ./inp_files/43281.got.cif
#   From: 2010.03.12/outbox.cif.g09.slc.cpg/sg69_22_cif.got.tgz:43281.got - 2010.04.10 23:52:46.
