data_PCOD8284628
_publ_section_title
;
Structure prediction by ZEFSAII (Michael W. Deem and Ramdas Pophale) SiO2 
 PCOD8284628
Probable space group: F M M M
;
_chemical_formula_sum "Si O2"
_cell_formula_units_Z 160
_cell_length_a 22.478118
_cell_length_b 18.626962
_cell_length_c 20.454177
_cell_angle_alpha 90.000000
_cell_angle_beta 90.000000
_cell_angle_gamma 90.000000
_cell_volume 8564.144475
_symmetry_space_group_name_H-M "F M M M"
_symmetry_group_IT_number 69
_symmetry_cell_setting 'orthorhombic'
loop_
_space_group_symop_operation_xyz
x,y,z
-x,-y,z
x,-y,-z
-x,y,-z
-x,-y,-z
x,y,-z
-x,y,z
x,-y,z
x,1/2+y,1/2+z
-x,1/2-y,1/2+z
x,1/2-y,1/2-z
-x,1/2+y,1/2-z
-x,1/2-y,1/2-z
x,1/2+y,1/2-z
-x,1/2+y,1/2+z
x,1/2-y,1/2+z
1/2+x,y,1/2+z
1/2-x,-y,1/2+z
1/2+x,-y,1/2-z
1/2-x,y,1/2-z
1/2-x,-y,1/2-z
1/2+x,y,1/2-z
1/2-x,y,1/2+z
1/2+x,-y,1/2+z
1/2+x,1/2+y,z
1/2-x,1/2-y,z
1/2+x,1/2-y,-z
1/2-x,1/2+y,-z
1/2-x,1/2-y,-z
1/2+x,1/2+y,-z
1/2-x,1/2+y,z
1/2+x,1/2-y,z
loop_
_atom_site_type_symbol
_atom_site_label
_atom_site_fract_x
_atom_site_fract_y
_atom_site_fract_z
Si Si1 0.068004 0.306791 0.072488
Si Si2 0.564944 0.421368 0.255516
Si Si3 0.348122 0.917135 0.125753
Si Si4 0.260163 0.333456 0.823833
Si Si5 0.613071 0.202543 0.685028
O O1 0.110954 0.376378 0.073155
O O2 0.087804 0.250962 0.127499
O O3 0.000000 0.330195 0.085991
O O4 0.073698 0.272359 0.000000
O O5 0.500000 0.417628 0.290349
O O6 0.573164 0.500000 0.222927
O O7 0.618097 0.407789 0.305707
O O8 0.565124 0.358617 0.201652
O O9 0.282796 0.880778 0.129991
O O10 0.340836 0.000000 0.105198
O O11 0.250000 0.358797 0.750000
O O12 0.250000 0.250000 0.835659
O O13 0.329729 0.342519 0.840283
O O14 0.628754 0.250000 0.750000
#
# Coordination Sequence:
#
# PCOD8284628 Si02
#       5
#    32  32  32  32  32
#     4  11  24  40  59  85 115 151 192 235 289 345
#     4  10  20  32  51  83 118 149 186 235 288 337
#     4  11  22  35  54  84 119 155 192 229 279 342
#     4  11  17  33  54  82 115 147 184 237 284 328
#     4  12  20  35  61  85 115 150 196 242 287 338
#
# _framework density 18.682542999999999
#
# number of rings (size 3 to 8) (size 9 to 14) (size 15 to 20)
#    0.000    1.000    8.000    1.200    0.000    3.600 
#    0.000    3.000    0.000    0.600    0.000    2.800 
#    0.000    0.000    0.000    0.000    0.000    0.000 
#
# Total GULP energy -495676.981706 kJ/mol
# GULP energy per Si atom -12391.924543 kJ/mol
# Density = 1.864002 g / cm^3
# Si number density = 18.682543 Si / 1000 Ang^3
#
#
#
# Elastic Constant Matrix: (Units=GPa)
#
#
# Indices 1 2 3 4 5 6 
#
# 1 124.5783 43.8199 35.0623 0.0000 0.0000 0.0000
# 2 43.8199 101.2236 40.6498 0.0000 0.0000 0.0000
# 3 35.0623 40.6498 80.1030 0.0000 0.0000 0.0000
# 4 0.0000 0.0000 0.0000 11.7351 0.0000 0.0000
# 5 0.0000 0.0000 0.0000 0.0000 13.3460 0.0000
# 6 0.0000 0.0000 0.0000 0.0000 0.0000 26.1914
#
#
#
# Elastic Compliance Matrix: (Units=1/GPa)
#
#
# Indices 1 2 3 4 5 6 
#
# 1 0.009918 -0.003203 -0.002716 0.000000 0.000000 0.000000
# 2 -0.003203 0.013442 -0.005419 0.000000 0.000000 0.000000
# 3 -0.002716 -0.005419 0.016423 0.000000 0.000000 0.000000
# 4 0.000000 0.000000 0.000000 0.085214 0.000000 0.000000
# 5 0.000000 0.000000 0.000000 0.000000 0.074929 0.000000
# 6 0.000000 0.000000 0.000000 0.000000 0.000000 0.038181
#
#
# Mechanical properties :
#
#
# Convention : Reuss Voigt Hill
#
# Bulk Modulus (GPa) = 58.45733 60.55210 59.50471
# Shear Modulus (GPa) = 18.76275 22.67936 20.72105
#
# Velocity S-wave (km/s) = 3.17250 3.48793 3.33395
# Velocity P-wave (km/s) = 6.69159 6.97871 6.83666
#
# Compressibility (1/GPa) = 0.01710649
#
# Stress axis : x y z
#
# Youngs Moduli (GPa) = 100.82606 74.39357 60.89040
#
# Poissons Ratio (x) = 0.23827 0.16537
# Poissons Ratio (y) = 0.32293 0.32999
# Poissons Ratio (z) = 0.27384 0.40317
#
# Static dielectric constant tensor:
#      x y z
#    x 4.165150 0.000000 0.000000 
#    y 0.000000 3.517610 0.000000 
#    z 0.000000 0.000000 3.051510 
# 
# 
# High freq. dielectric constant tensor:
#      x y z
#    x 1.745860 0.000000 0.000000 
#    y 0.000000 1.723770 0.000000 
#    z 0.000000 0.000000 1.671630 
# 
# From -- ./inp_files/24591.got.cif
#   From: 2010.03.12/outbox.cif.g09.slc.cpg/sg69_13_cif.got.tgz:24591.got - 2010.04.10 23:52:46.
