data_PCOD8284698
_publ_section_title
;
Structure prediction by ZEFSAII (Michael W. Deem and Ramdas Pophale) SiO2 
 PCOD8284698
Probable space group: F M M M
;
_chemical_formula_sum "Si O2"
_cell_formula_units_Z 192
_cell_length_a 17.014274
_cell_length_b 28.481150
_cell_length_c 20.595802
_cell_angle_alpha 90.000000
_cell_angle_beta 90.000000
_cell_angle_gamma 90.000000
_cell_volume 9980.439160
_symmetry_space_group_name_H-M "F M M M"
_symmetry_group_IT_number 69
_symmetry_cell_setting 'orthorhombic'
loop_
_space_group_symop_operation_xyz
x,y,z
-x,-y,z
x,-y,-z
-x,y,-z
-x,-y,-z
x,y,-z
-x,y,z
x,-y,z
x,1/2+y,1/2+z
-x,1/2-y,1/2+z
x,1/2-y,1/2-z
-x,1/2+y,1/2-z
-x,1/2-y,1/2-z
x,1/2+y,1/2-z
-x,1/2+y,1/2+z
x,1/2-y,1/2+z
1/2+x,y,1/2+z
1/2-x,-y,1/2+z
1/2+x,-y,1/2-z
1/2-x,y,1/2-z
1/2-x,-y,1/2-z
1/2+x,y,1/2-z
1/2-x,y,1/2+z
1/2+x,-y,1/2+z
1/2+x,1/2+y,z
1/2-x,1/2-y,z
1/2+x,1/2-y,-z
1/2-x,1/2+y,-z
1/2-x,1/2-y,-z
1/2+x,1/2+y,-z
1/2-x,1/2+y,z
1/2+x,1/2-y,z
loop_
_atom_site_type_symbol
_atom_site_label
_atom_site_fract_x
_atom_site_fract_y
_atom_site_fract_z
Si Si1 0.328865 0.000000 0.794479
Si Si2 0.089549 0.320019 0.428039
Si Si3 0.591125 0.413937 0.238532
Si Si4 0.090253 0.240599 0.673527
Si Si5 0.808787 0.843181 0.307068
Si Si6 0.753250 0.000000 0.570619
Si Si7 0.810660 0.404073 0.614473
O O1 0.250000 0.000000 0.750000
O O2 0.383113 0.044470 0.784889
O O3 0.312857 0.000000 0.870533
O O4 0.097224 0.296742 0.500000
O O5 0.116030 0.284980 0.370492
O O6 0.144524 0.365633 0.428295
O O7 0.000000 0.335824 0.415026
O O8 0.500000 0.413412 0.224941
O O9 0.615743 0.365585 0.271896
O O10 0.634367 0.422080 0.171424
O O11 0.098763 0.250000 0.750000
O O12 0.153516 0.200581 0.654117
O O13 0.000000 0.226742 0.656401
O O14 0.750000 0.826393 0.250000
O O15 0.768410 0.880227 0.356013
O O16 0.704331 0.048814 0.573363
O O17 0.795288 0.000000 0.500000
#
# Coordination Sequence:
#
# PCOD8284698 Si02
#       7
#    16  32  32  32  32  16  32
#     4  12  19  40  59  87 123 151 197 250 297 352
#     4  10  22  40  59  83 120 160 196 242 303 367
#     4  11  20  33  60  92 118 154 199 249 302 355
#     4  10  20  36  58  85 117 153 196 242 295 356
#     4  10  20  33  56  88 122 151 189 250 295 345
#     4  12  24  40  62  84 120 162 196 240 306 362
#     4  11  21  38  60  87 120 153 198 249 293 361
#
# _framework density 19.237631
#
# number of rings (size 3 to 8) (size 9 to 14) (size 15 to 20)
#    0.000    1.333    3.333    4.250    0.000    3.667 
#    0.000    3.750    0.000    4.000    0.000    0.000 
#    0.000    0.000    0.000    0.000    0.000    0.000 
#
# Total GULP energy -594979.725663 kJ/mol
# GULP energy per Si atom -12395.410951 kJ/mol
# Density = 1.919385 g / cm^3
# Si number density = 19.237631 Si / 1000 Ang^3
#
#
#
# Elastic Constant Matrix: (Units=GPa)
#
#
# Indices 1 2 3 4 5 6 
#
# 1 76.4457 45.4510 21.8028 0.0000 0.0000 0.0000
# 2 45.4510 115.4922 40.6603 0.0000 0.0000 0.0000
# 3 21.8028 40.6603 118.2443 0.0000 0.0000 0.0000
# 4 0.0000 0.0000 0.0000 22.1320 0.0000 0.0000
# 5 0.0000 0.0000 0.0000 0.0000 16.8441 0.0000
# 6 0.0000 0.0000 0.0000 0.0000 0.0000 38.4459
#
#
#
# Elastic Compliance Matrix: (Units=1/GPa)
#
#
# Indices 1 2 3 4 5 6 
#
# 1 0.017172 -0.006420 -0.000959 0.000000 0.000000 0.000000
# 2 -0.006420 0.012252 -0.003029 0.000000 0.000000 0.000000
# 3 -0.000959 -0.003029 0.009675 0.000000 0.000000 0.000000
# 4 0.000000 0.000000 0.000000 0.045184 0.000000 0.000000
# 5 0.000000 0.000000 0.000000 0.000000 0.059368 0.000000
# 6 0.000000 0.000000 0.000000 0.000000 0.000000 0.026011
#
#
# Mechanical properties :
#
#
# Convention : Reuss Voigt Hill
#
# Bulk Modulus (GPa) = 54.69586 58.44561 56.57073
# Shear Modulus (GPa) = 25.43606 28.96893 27.20250
#
# Velocity S-wave (km/s) = 3.64016 3.88473 3.76443
# Velocity P-wave (km/s) = 6.79419 7.11114 6.95448
#
# Compressibility (1/GPa) = 0.01828292
#
# Stress axis : x y z
#
# Youngs Moduli (GPa) = 58.23500 81.62124 103.35467
#
# Poissons Ratio (x) = 0.52404 0.09907
# Poissons Ratio (y) = 0.37389 0.31307
# Poissons Ratio (z) = 0.05582 0.24724
#
# Static dielectric constant tensor:
#      x y z
#    x 3.509730 0.000000 0.000000 
#    y 0.000000 3.659680 0.000000 
#    z 0.000000 0.000000 3.406440 
# 
# 
# High freq. dielectric constant tensor:
#      x y z
#    x 1.741440 0.000000 0.000000 
#    y 0.000000 1.757890 0.000000 
#    z 0.000000 0.000000 1.734030 
# 
# From -- ./inp_files/23741.got.cif
#   From: 2010.03.12/outbox.cif.g09.slc.cpg/sg69_12_cif.got.tgz:23741.got - 2010.04.10 23:52:46.
