data_PCOD8284055
_publ_section_title
;
Structure prediction by ZEFSAII (Michael W. Deem and Ramdas Pophale) SiO2 
 PCOD8284055
Probable space group: F M M M
;
_chemical_formula_sum "Si O2"
_cell_formula_units_Z 144
_cell_length_a 18.477479
_cell_length_b 22.932868
_cell_length_c 15.269154
_cell_angle_alpha 90.000000
_cell_angle_beta 90.000000
_cell_angle_gamma 90.000000
_cell_volume 6470.175546
_symmetry_space_group_name_H-M "F M M M"
_symmetry_group_IT_number 69
_symmetry_cell_setting 'orthorhombic'
loop_
_space_group_symop_operation_xyz
x,y,z
-x,-y,z
x,-y,-z
-x,y,-z
-x,-y,-z
x,y,-z
-x,y,z
x,-y,z
x,1/2+y,1/2+z
-x,1/2-y,1/2+z
x,1/2-y,1/2-z
-x,1/2+y,1/2-z
-x,1/2-y,1/2-z
x,1/2+y,1/2-z
-x,1/2+y,1/2+z
x,1/2-y,1/2+z
1/2+x,y,1/2+z
1/2-x,-y,1/2+z
1/2+x,-y,1/2-z
1/2-x,y,1/2-z
1/2-x,-y,1/2-z
1/2+x,y,1/2-z
1/2-x,y,1/2+z
1/2+x,-y,1/2+z
1/2+x,1/2+y,z
1/2-x,1/2-y,z
1/2+x,1/2-y,-z
1/2-x,1/2+y,-z
1/2-x,1/2-y,-z
1/2+x,1/2+y,-z
1/2-x,1/2+y,z
1/2+x,1/2-y,z
loop_
_atom_site_type_symbol
_atom_site_label
_atom_site_fract_x
_atom_site_fract_y
_atom_site_fract_z
Si Si1 0.795842 0.932229 0.662116
Si Si2 0.670402 0.262765 0.896096
Si Si3 0.581802 0.500000 0.895421
Si Si4 0.416229 0.850412 0.896445
Si Si5 0.158435 0.611342 0.403106
O O1 0.750000 0.920410 0.750000
O O2 0.872672 0.899331 0.658073
O O3 0.743948 0.903699 0.588442
O O4 0.810289 0.000000 0.644523
O O5 0.750000 0.250000 0.857078
O O6 0.613581 0.213287 0.868898
O O7 0.644744 0.325753 0.857203
O O8 0.676449 0.269414 0.000000
O O9 0.500000 0.500000 0.865421
O O10 0.618984 0.557512 0.852619
O O11 0.592491 0.500000 0.000000
O O12 0.500000 0.854233 0.869359
O O13 0.406116 0.860881 0.000000
O O14 0.124754 0.614291 0.500000
#
# Coordination Sequence:
#
# PCOD8284055 Si02
#       5
#    32  32  16  32  32
#     4  11  23  38  57  82 115 154 200 241 294 358
#     4   9  16  29  54  87 115 146 189 237 291 346
#     4   9  18  30  47  76 105 131 177 238 286 324
#     4  10  21  38  62  93 124 152 193 251 306 356
#     4  10  18  32  57  82 107 145 193 241 286 345
#
# _framework density 22.255965
#
# number of rings (size 3 to 8) (size 9 to 14) (size 15 to 20)
#    0.000    2.111    3.333    0.667    0.000    2.667 
#    0.000    8.889    0.000    1.333    0.000    0.000 
#    0.000    0.000    0.000    0.000    0.000    0.000 
#
# Total GULP energy -446174.679523 kJ/mol
# GULP energy per Si atom -12393.741098 kJ/mol
# Density = 2.220531 g / cm^3
# Si number density = 22.255965 Si / 1000 Ang^3
#
#
#
# Elastic Constant Matrix: (Units=GPa)
#
#
# Indices 1 2 3 4 5 6 
#
# 1 175.4131 95.5149 15.2238 0.0000 0.0000 0.0000
# 2 95.5149 237.9600 24.9529 0.0000 0.0000 0.0000
# 3 15.2238 24.9529 25.0932 0.0000 0.0000 0.0000
# 4 0.0000 0.0000 0.0000 16.8079 0.0000 0.0000
# 5 0.0000 0.0000 0.0000 0.0000 14.9563 0.0000
# 6 0.0000 0.0000 0.0000 0.0000 0.0000 41.1448
#
#
#
# Elastic Compliance Matrix: (Units=1/GPa)
#
#
# Indices 1 2 3 4 5 6 
#
# 1 0.007360 -0.002775 -0.001705 0.000000 0.000000 0.000000
# 2 -0.002775 0.005738 -0.004022 0.000000 0.000000 0.000000
# 3 -0.001705 -0.004022 0.044886 0.000000 0.000000 0.000000
# 4 0.000000 0.000000 0.000000 0.059496 0.000000 0.000000
# 5 0.000000 0.000000 0.000000 0.000000 0.066861 0.000000
# 6 0.000000 0.000000 0.000000 0.000000 0.000000 0.024304
#
#
# Mechanical properties :
#
#
# Convention : Reuss Voigt Hill
#
# Bulk Modulus (GPa) = 24.40339 78.87215 51.63777
# Shear Modulus (GPa) = 20.89329 34.76678 27.83004
#
# Velocity S-wave (km/s) = 3.06726 3.95667 3.54001
# Velocity P-wave (km/s) = 4.85106 7.50928 6.32147
#
# Compressibility (1/GPa) = 0.04097792
#
# Stress axis : x y z
#
# Youngs Moduli (GPa) = 135.86770 174.27041 22.27877
#
# Poissons Ratio (x) = 0.48368 0.03799
# Poissons Ratio (y) = 0.37709 0.08961
# Poissons Ratio (z) = 0.23170 0.70097
#
# Static dielectric constant tensor:
#      x y z
#    x 3.880960 0.000000 0.000000 
#    y 0.000000 4.377040 0.000000 
#    z 0.000000 0.000000 3.515620 
# 
# 
# High freq. dielectric constant tensor:
#      x y z
#    x 1.858920 0.000000 0.000000 
#    y 0.000000 1.898820 0.000000 
#    z 0.000000 0.000000 1.836060 
# 
# From -- ./inp_files/22853.got.cif
#   From: 2010.03.12/outbox.cif.g09.slc.cpg/sg69_12_cif.got.tgz:22853.got - 2010.04.10 23:52:46.
