data_PCOD8284983
_publ_section_title
;
Structure prediction by ZEFSAII (Michael W. Deem and Ramdas Pophale) SiO2 
 PCOD8284983
Probable space group: F M M M
;
_chemical_formula_sum "Si O2"
_cell_formula_units_Z 144
_cell_length_a 7.911822
_cell_length_b 26.932468
_cell_length_c 34.817223
_cell_angle_alpha 90.000000
_cell_angle_beta 90.000000
_cell_angle_gamma 90.000000
_cell_volume 7419.024232
_symmetry_space_group_name_H-M "F M M M"
_symmetry_group_IT_number 69
_symmetry_cell_setting 'orthorhombic'
loop_
_space_group_symop_operation_xyz
x,y,z
-x,-y,z
x,-y,-z
-x,y,-z
-x,-y,-z
x,y,-z
-x,y,z
x,-y,z
x,1/2+y,1/2+z
-x,1/2-y,1/2+z
x,1/2-y,1/2-z
-x,1/2+y,1/2-z
-x,1/2-y,1/2-z
x,1/2+y,1/2-z
-x,1/2+y,1/2+z
x,1/2-y,1/2+z
1/2+x,y,1/2+z
1/2-x,-y,1/2+z
1/2+x,-y,1/2-z
1/2-x,y,1/2-z
1/2-x,-y,1/2-z
1/2+x,y,1/2-z
1/2-x,y,1/2+z
1/2+x,-y,1/2+z
1/2+x,1/2+y,z
1/2-x,1/2-y,z
1/2+x,1/2-y,-z
1/2-x,1/2+y,-z
1/2-x,1/2-y,-z
1/2+x,1/2+y,-z
1/2-x,1/2+y,z
1/2+x,1/2-y,z
loop_
_atom_site_type_symbol
_atom_site_label
_atom_site_fract_x
_atom_site_fract_y
_atom_site_fract_z
Si Si1 0.698022 0.444645 0.825984
Si Si2 0.805698 0.599450 0.592027
Si Si3 0.000000 0.942681 0.545199
Si Si4 0.691021 0.347797 0.291459
Si Si5 0.799914 0.694726 0.130485
O O1 0.500000 0.441365 0.819045
O O2 0.766865 0.500000 0.817798
O O3 0.743357 0.430295 0.869478
O O4 0.784445 0.407000 0.796126
O O5 0.672596 0.582654 0.560000
O O6 0.785935 0.658244 0.599600
O O7 0.000000 0.588183 0.579259
O O8 0.000000 0.935801 0.500000
O O9 0.000000 0.000000 0.557508
O O10 0.500000 0.332711 0.293896
O O11 0.750000 0.329116 0.250000
O O12 0.778056 0.318640 0.327159
O O13 0.750000 0.750000 0.118860
O O14 0.000000 0.686571 0.129117
#
# Coordination Sequence:
#
# PCOD8284983 Si02
#       5
#    32  32  16  32  32
#     4   9  18  32  52  76 102 140 192 240 287 344
#     4  10  20  38  61  88 121 157 196 245 291 342
#     4  11  24  40  62  94 130 163 194 234 285 348
#     4  10  21  34  48  70 107 147 187 241 297 349
#     4  10  20  36  59  88 112 147 200 248 299 351
#
# _framework density 19.409562000000001
#
# number of rings (size 3 to 8) (size 9 to 14) (size 15 to 20)
#    0.000    2.111    1.111    2.000    1.556    5.778 
#    0.000    3.333    0.000    0.667    0.000    0.000 
#    0.000    0.000    0.000    0.000    0.000    0.000 
#
# Total GULP energy -446311.703668 kJ/mol
# GULP energy per Si atom -12397.547324 kJ/mol
# Density = 1.936538 g / cm^3
# Si number density = 19.409562 Si / 1000 Ang^3
#
#
#
# Elastic Constant Matrix: (Units=GPa)
#
#
# Indices 1 2 3 4 5 6 
#
# 1 84.8433 22.4041 36.0113 0.0000 0.0000 0.0000
# 2 22.4041 108.2544 29.8233 0.0000 0.0000 0.0000
# 3 36.0113 29.8233 75.8082 0.0000 0.0000 0.0000
# 4 0.0000 0.0000 0.0000 26.5878 0.0000 0.0000
# 5 0.0000 0.0000 0.0000 0.0000 28.9441 0.0000
# 6 0.0000 0.0000 0.0000 0.0000 0.0000 28.7892
#
#
#
# Elastic Compliance Matrix: (Units=1/GPa)
#
#
# Indices 1 2 3 4 5 6 
#
# 1 0.014918 -0.001273 -0.006586 0.000000 0.000000 0.000000
# 2 -0.001273 0.010469 -0.003514 0.000000 0.000000 0.000000
# 3 -0.006586 -0.003514 0.017702 0.000000 0.000000 0.000000
# 4 0.000000 0.000000 0.000000 0.037611 0.000000 0.000000
# 5 0.000000 0.000000 0.000000 0.000000 0.034549 0.000000
# 6 0.000000 0.000000 0.000000 0.000000 0.000000 0.034735
#
#
# Mechanical properties :
#
#
# Convention : Reuss Voigt Hill
#
# Bulk Modulus (GPa) = 49.15513 49.48705 49.32109
# Shear Modulus (GPa) = 27.85348 28.90871 28.38109
#
# Velocity S-wave (km/s) = 3.79230 3.86347 3.82805
# Velocity P-wave (km/s) = 6.67500 6.74192 6.70854
#
# Compressibility (1/GPa) = 0.02034376
#
# Stress axis : x y z
#
# Youngs Moduli (GPa) = 67.03385 95.52014 56.49113
#
# Poissons Ratio (x) = 0.12160 0.37203
# Poissons Ratio (y) = 0.08534 0.19850
# Poissons Ratio (z) = 0.44146 0.33564
#
# Static dielectric constant tensor:
#      x y z
#    x 3.544800 0.000000 0.000000 
#    y 0.000000 3.601100 0.000000 
#    z 0.000000 0.000000 3.941560 
# 
# 
# High freq. dielectric constant tensor:
#      x y z
#    x 1.761130 0.000000 0.000000 
#    y 0.000000 1.757280 0.000000 
#    z 0.000000 0.000000 1.721730 
# 
# From -- ./inp_files/44517.got.cif
#   From: 2010.03.12/outbox.cif.g09.slc.cpg/sg69_23_cif.got.tgz:44517.got - 2010.04.10 23:52:46.
