data_PCOD8284116
_publ_section_title
;
Structure prediction by ZEFSAII (Michael W. Deem and Ramdas Pophale) SiO2 
 PCOD8284116
Probable space group: F M M M
;
_chemical_formula_sum "Si O2"
_cell_formula_units_Z 152
_cell_length_a 28.428750
_cell_length_b 13.608830
_cell_length_c 21.481531
_cell_angle_alpha 90.000000
_cell_angle_beta 90.000000
_cell_angle_gamma 90.000000
_cell_volume 8310.818232
_symmetry_space_group_name_H-M "F M M M"
_symmetry_group_IT_number 69
_symmetry_cell_setting 'orthorhombic'
loop_
_space_group_symop_operation_xyz
x,y,z
-x,-y,z
x,-y,-z
-x,y,-z
-x,-y,-z
x,y,-z
-x,y,z
x,-y,z
x,1/2+y,1/2+z
-x,1/2-y,1/2+z
x,1/2-y,1/2-z
-x,1/2+y,1/2-z
-x,1/2-y,1/2-z
x,1/2+y,1/2-z
-x,1/2+y,1/2+z
x,1/2-y,1/2+z
1/2+x,y,1/2+z
1/2-x,-y,1/2+z
1/2+x,-y,1/2-z
1/2-x,y,1/2-z
1/2-x,-y,1/2-z
1/2+x,y,1/2-z
1/2-x,y,1/2+z
1/2+x,-y,1/2+z
1/2+x,1/2+y,z
1/2-x,1/2-y,z
1/2+x,1/2-y,-z
1/2-x,1/2+y,-z
1/2-x,1/2-y,-z
1/2+x,1/2+y,-z
1/2-x,1/2+y,z
1/2+x,1/2-y,z
loop_
_atom_site_type_symbol
_atom_site_label
_atom_site_fract_x
_atom_site_fract_y
_atom_site_fract_z
Si Si1 0.578918 0.890771 0.731429
Si Si2 0.552446 0.500000 0.926532
Si Si3 0.382311 0.680135 0.072837
Si Si4 0.179134 0.386347 0.677859
Si Si5 0.250000 0.250000 0.750000
Si Si6 0.447771 0.211754 0.848567
O O1 0.634772 0.876241 0.723701
O O2 0.567433 0.878606 0.804646
O O3 0.550599 0.810990 0.692354
O O4 0.563402 0.000000 0.709550
O O5 0.500000 0.500000 0.897515
O O6 0.581641 0.594850 0.905630
O O7 0.548295 0.500000 0.000000
O O8 0.334086 0.658827 0.109803
O O9 0.409335 0.778979 0.095504
O O10 0.371002 0.684163 0.000000
O O11 0.195336 0.500000 0.671030
O O12 0.220428 0.320836 0.705452
O O13 0.500000 0.193863 0.876347
#
# Coordination Sequence:
#
# PCOD8284116 Si02
#       6
#    32  16  32  32   8  32
#     4   9  18  33  50  69 100 139 173 212 261 309
#     4   9  16  26  44  71 100 134 170 197 231 285
#     4  10  19  33  50  71 104 140 170 208 258 308
#     4  10  20  35  54  77 103 132 167 210 266 321
#     4  12  22  36  58  82 102 124 166 218 264 322
#     4  10  19  28  44  75 105 135 178 216 251 299
#
# _framework density 18.289415000000002
#
# number of rings (size 3 to 8) (size 9 to 14) (size 15 to 20)
#    0.000    2.211    1.053    4.737    1.474    2.947 
#    0.000    0.526    0.000    0.632    0.000    1.474 
#    0.000    0.000    0.000    0.000    0.000    0.000 
#
# Total GULP energy -471038.709374 kJ/mol
# GULP energy per Si atom -12395.755510 kJ/mol
# Density = 1.824779 g / cm^3
# Si number density = 18.289415 Si / 1000 Ang^3
#
#
#
# Elastic Constant Matrix: (Units=GPa)
#
#
# Indices 1 2 3 4 5 6 
#
# 1 94.5356 25.8035 45.1396 0.0000 0.0000 0.0000
# 2 25.8035 49.3081 24.2673 0.0000 0.0000 0.0000
# 3 45.1396 24.2673 100.9914 0.0000 0.0000 0.0000
# 4 0.0000 0.0000 0.0000 25.7352 0.0000 0.0000
# 5 0.0000 0.0000 0.0000 0.0000 27.4557 0.0000
# 6 0.0000 0.0000 0.0000 0.0000 0.0000 19.6110
#
#
#
# Elastic Compliance Matrix: (Units=1/GPa)
#
#
# Indices 1 2 3 4 5 6 
#
# 1 0.014448 -0.004970 -0.005263 0.000000 0.000000 0.000000
# 2 -0.004970 0.024711 -0.003716 0.000000 0.000000 0.000000
# 3 -0.005263 -0.003716 0.013147 0.000000 0.000000 0.000000
# 4 0.000000 0.000000 0.000000 0.038857 0.000000 0.000000
# 5 0.000000 0.000000 0.000000 0.000000 0.036422 0.000000
# 6 0.000000 0.000000 0.000000 0.000000 0.000000 0.050992
#
#
# Mechanical properties :
#
#
# Convention : Reuss Voigt Hill
#
# Bulk Modulus (GPa) = 40.97342 48.36178 44.66760
# Shear Modulus (GPa) = 23.29783 24.53537 23.91660
#
# Velocity S-wave (km/s) = 3.57296 3.66663 3.62010
# Velocity P-wave (km/s) = 6.28274 6.66524 6.47682
#
# Compressibility (1/GPa) = 0.02440607
#
# Stress axis : x y z
#
# Youngs Moduli (GPa) = 69.21436 40.46848 76.06110
#
# Poissons Ratio (x) = 0.20114 0.40034
# Poissons Ratio (y) = 0.34402 0.28265
# Poissons Ratio (z) = 0.36430 0.15039
#
# Static dielectric constant tensor:
#      x y z
#    x 3.200700 0.000000 0.000000 
#    y 0.000000 3.181390 0.000000 
#    z 0.000000 0.000000 3.365020 
# 
# 
# High freq. dielectric constant tensor:
#      x y z
#    x 1.690160 0.000000 0.000000 
#    y 0.000000 1.691740 0.000000 
#    z 0.000000 0.000000 1.701460 
# 
# From -- ./inp_files/37789.got.cif
#   From: 2010.03.12/outbox.cif.g09.slc.cpg/sg69_19_cif.got.tgz:37789.got - 2010.04.10 23:52:46.
