data_PCOD8284128
_publ_section_title
;
Structure prediction by ZEFSAII (Michael W. Deem and Ramdas Pophale) SiO2 
 PCOD8284128
Probable space group: F M M M
;
_chemical_formula_sum "Si O2"
_cell_formula_units_Z 176
_cell_length_a 28.007764
_cell_length_b 17.381373
_cell_length_c 21.392890
_cell_angle_alpha 90.000000
_cell_angle_beta 90.000000
_cell_angle_gamma 90.000000
_cell_volume 10414.345367
_symmetry_space_group_name_H-M "F M M M"
_symmetry_group_IT_number 69
_symmetry_cell_setting 'orthorhombic'
loop_
_space_group_symop_operation_xyz
x,y,z
-x,-y,z
x,-y,-z
-x,y,-z
-x,-y,-z
x,y,-z
-x,y,z
x,-y,z
x,1/2+y,1/2+z
-x,1/2-y,1/2+z
x,1/2-y,1/2-z
-x,1/2+y,1/2-z
-x,1/2-y,1/2-z
x,1/2+y,1/2-z
-x,1/2+y,1/2+z
x,1/2-y,1/2+z
1/2+x,y,1/2+z
1/2-x,-y,1/2+z
1/2+x,-y,1/2-z
1/2-x,y,1/2-z
1/2-x,-y,1/2-z
1/2+x,y,1/2-z
1/2-x,y,1/2+z
1/2+x,-y,1/2+z
1/2+x,1/2+y,z
1/2-x,1/2-y,z
1/2+x,1/2-y,-z
1/2-x,1/2+y,-z
1/2-x,1/2-y,-z
1/2+x,1/2+y,-z
1/2-x,1/2+y,z
1/2+x,1/2-y,z
loop_
_atom_site_type_symbol
_atom_site_label
_atom_site_fract_x
_atom_site_fract_y
_atom_site_fract_z
Si Si1 0.893914 0.149042 0.123530
Si Si2 0.943886 0.408941 0.500000
Si Si3 0.699503 0.413215 0.831237
Si Si4 0.885052 0.201748 0.689488
Si Si5 0.306400 0.412288 0.315830
Si Si6 0.945497 0.086334 0.760594
O O1 0.917406 0.128173 0.058475
O O2 0.836279 0.137344 0.126260
O O3 0.904463 0.238726 0.137762
O O4 0.916101 0.093417 0.175641
O O5 0.936553 0.500000 0.500000
O O6 0.000000 0.387821 0.500000
O O7 0.695448 0.500000 0.855590
O O8 0.686221 0.408926 0.758522
O O9 0.754163 0.384963 0.838453
O O10 0.866154 0.250000 0.750000
O O11 0.843844 0.149624 0.657593
O O12 0.928577 0.146454 0.708470
O O13 0.316378 0.500000 0.338482
O O14 0.000000 0.104125 0.776770
O O15 0.938401 0.000000 0.734542
#
# Coordination Sequence:
#
# PCOD8284128 Si02
#       6
#    32  16  32  32  32  32
#     4  11  21  33  49  74 102 129 168 216 258 298
#     4  11  24  40  58  73  91 135 187 220 251 296
#     4   9  16  27  47  71 101 136 166 203 244 292
#     4  10  19  29  45  73 103 134 158 199 259 307
#     4   9  16  28  46  72 103 135 168 194 238 312
#     4  10  19  31  48  70  99 131 161 200 254 316
#
# _framework density 16.899766
#
# number of rings (size 3 to 8) (size 9 to 14) (size 15 to 20)
#    0.000    2.091    3.636    3.818    0.000    6.182 
#    0.000    0.000    0.000    2.182    0.000    3.818 
#    0.000    4.364    0.000    0.000    0.000    0.000 
#
# Total GULP energy -545428.052881 kJ/mol
# GULP energy per Si atom -12396.092111 kJ/mol
# Density = 1.686130 g / cm^3
# Si number density = 16.899766 Si / 1000 Ang^3
#
#
#
# Elastic Constant Matrix: (Units=GPa)
#
#
# Indices 1 2 3 4 5 6 
#
# 1 110.0760 53.2126 42.4257 0.0000 0.0000 0.0000
# 2 53.2126 109.9385 40.1632 0.0000 0.0000 0.0000
# 3 42.4257 40.1632 68.9148 0.0000 0.0000 0.0000
# 4 0.0000 0.0000 0.0000 18.0011 0.0000 0.0000
# 5 0.0000 0.0000 0.0000 0.0000 20.3567 0.0000
# 6 0.0000 0.0000 0.0000 0.0000 0.0000 17.8591
#
#
#
# Elastic Compliance Matrix: (Units=1/GPa)
#
#
# Indices 1 2 3 4 5 6 
#
# 1 0.013409 -0.004414 -0.005682 0.000000 0.000000 0.000000
# 2 -0.004414 0.013010 -0.004864 0.000000 0.000000 0.000000
# 3 -0.005682 -0.004864 0.020844 0.000000 0.000000 0.000000
# 4 0.000000 0.000000 0.000000 0.055552 0.000000 0.000000
# 5 0.000000 0.000000 0.000000 0.000000 0.049124 0.000000
# 6 0.000000 0.000000 0.000000 0.000000 0.000000 0.055994
#
#
# Mechanical properties :
#
#
# Convention : Reuss Voigt Hill
#
# Bulk Modulus (GPa) = 57.66877 62.28136 59.97506
# Shear Modulus (GPa) = 20.52264 21.45191 20.98728
#
# Velocity S-wave (km/s) = 3.48857 3.56667 3.52784
# Velocity P-wave (km/s) = 7.10105 7.34132 7.22218
#
# Compressibility (1/GPa) = 0.01734041
#
# Stress axis : x y z
#
# Youngs Moduli (GPa) = 74.57951 76.86582 47.97619
#
# Poissons Ratio (x) = 0.33930 0.27260
# Poissons Ratio (y) = 0.32921 0.23338
# Poissons Ratio (z) = 0.42376 0.37391
#
# Static dielectric constant tensor:
#      x y z
#    x 3.377650 0.000000 0.000000 
#    y 0.000000 3.391010 0.000000 
#    z 0.000000 0.000000 2.654850 
# 
# 
# High freq. dielectric constant tensor:
#      x y z
#    x 1.666040 0.000000 0.000000 
#    y 0.000000 1.662870 0.000000 
#    z 0.000000 0.000000 1.576280 
# 
# From -- ./inp_files/38971.got.cif
#   From: 2010.03.12/outbox.cif.g09.slc.cpg/sg69_20_cif.got.tgz:38971.got - 2010.04.10 23:52:46.
