data_PCOD8284432
_publ_section_title
;
Structure prediction by ZEFSAII (Michael W. Deem and Ramdas Pophale) SiO2 
 PCOD8284432
Probable space group: F M M M
;
_chemical_formula_sum "Si O2"
_cell_formula_units_Z 144
_cell_length_a 31.653837
_cell_length_b 9.461775
_cell_length_c 27.369252
_cell_angle_alpha 90.000000
_cell_angle_beta 90.000000
_cell_angle_gamma 90.000000
_cell_volume 8197.131578
_symmetry_space_group_name_H-M "F M M M"
_symmetry_group_IT_number 69
_symmetry_cell_setting 'orthorhombic'
loop_
_space_group_symop_operation_xyz
x,y,z
-x,-y,z
x,-y,-z
-x,y,-z
-x,-y,-z
x,y,-z
-x,y,z
x,-y,z
x,1/2+y,1/2+z
-x,1/2-y,1/2+z
x,1/2-y,1/2-z
-x,1/2+y,1/2-z
-x,1/2-y,1/2-z
x,1/2+y,1/2-z
-x,1/2+y,1/2+z
x,1/2-y,1/2+z
1/2+x,y,1/2+z
1/2-x,-y,1/2+z
1/2+x,-y,1/2-z
1/2-x,y,1/2-z
1/2-x,-y,1/2-z
1/2+x,y,1/2-z
1/2-x,y,1/2+z
1/2+x,-y,1/2+z
1/2+x,1/2+y,z
1/2-x,1/2-y,z
1/2+x,1/2-y,-z
1/2-x,1/2+y,-z
1/2-x,1/2-y,-z
1/2+x,1/2+y,-z
1/2-x,1/2+y,z
1/2+x,1/2-y,z
loop_
_atom_site_type_symbol
_atom_site_label
_atom_site_fract_x
_atom_site_fract_y
_atom_site_fract_z
Si Si1 0.500000 0.340661 0.058171
Si Si2 0.338442 0.284383 0.604695
Si Si3 0.292698 0.329070 0.700401
Si Si4 0.681011 0.500000 0.942827
Si Si5 0.779829 0.500000 0.056105
Si Si6 0.576886 0.344000 0.555331
O O1 0.500000 0.500000 0.078262
O O2 0.457800 0.263255 0.077260
O O3 0.500000 0.334205 0.000000
O O4 0.330551 0.297740 0.662599
O O5 0.298976 0.360331 0.579341
O O6 0.382935 0.353117 0.590953
O O7 0.340847 0.127881 0.584525
O O8 0.285808 0.500000 0.706869
O O9 0.306446 0.250000 0.750000
O O10 0.250000 0.250000 0.681942
O O11 0.730577 0.500000 0.933826
O O12 0.669644 0.500000 0.000000
O O13 0.791752 0.500000 0.000000
O O14 0.590619 0.300031 0.500000
O O15 0.556488 0.500000 0.554258
#
# Coordination Sequence:
#
# PCOD8284432 Si02
#       6
#    16  32  32  16  16  32
#     4   9  19  33  51  77 108 141 178 221 268 322
#     4  12  23  35  55  79 108 144 190 231 274 326
#     4  11  23  39  59  80 105 141 188 241 290 330
#     4  11  24  34  49  76 112 152 186 222 269 319
#     4  11  20  36  51  72 108 148 184 220 261 323
#     4  10  19  34  54  77 108 145 182 220 268 330
#
# _framework density 17.567121
#
# number of rings (size 3 to 8) (size 9 to 14) (size 15 to 20)
#    0.000    1.222    2.222    5.667    4.667    3.111 
#    0.000    0.000    0.000    0.000    0.000    0.778 
#    0.000    0.000    0.000    0.000    0.000    0.000 
#
# Total GULP energy -446311.690930 kJ/mol
# GULP energy per Si atom -12397.546970 kJ/mol
# Density = 1.752714 g / cm^3
# Si number density = 17.567121 Si / 1000 Ang^3
#
#
#
# Elastic Constant Matrix: (Units=GPa)
#
#
# Indices 1 2 3 4 5 6 
#
# 1 61.4727 35.0923 59.2188 0.0000 0.0000 0.0001
# 2 35.0923 137.2431 24.3722 -0.0001 0.0000 -0.0003
# 3 59.2188 24.3722 68.3598 0.0000 0.0000 -0.0003
# 4 0.0000 -0.0001 0.0000 27.5489 0.0000 -0.0001
# 5 0.0000 0.0000 0.0000 0.0000 18.1743 0.0000
# 6 0.0001 -0.0003 -0.0003 -0.0001 0.0000 71.9430
#
#
#
# Elastic Compliance Matrix: (Units=1/GPa)
#
#
# Indices 1 2 3 4 5 6 
#
# 1 0.115574 -0.012568 -0.095639 0.000000 0.000000 -0.000001
# 2 -0.012568 0.009145 0.007627 0.000000 0.000000 0.000000
# 3 -0.095639 0.007627 0.094759 0.000000 0.000000 0.000001
# 4 0.000000 0.000000 0.000000 0.036299 0.000000 0.000000
# 5 0.000000 0.000000 0.000000 0.000000 0.055023 0.000000
# 6 -0.000001 0.000000 0.000001 0.000000 0.000000 0.013900
#
#
# Mechanical properties :
#
#
# Convention : Reuss Voigt Hill
#
# Bulk Modulus (GPa) = 54.58808 56.04913 55.31860
# Shear Modulus (GPa) = 9.39909 33.42605 21.41257
#
# Velocity S-wave (km/s) = 2.31560 4.36680 3.49506
# Velocity P-wave (km/s) = 6.18796 7.57629 6.91704
#
# Compressibility (1/GPa) = 0.01831902
#
# Stress axis : x y z
#
# Youngs Moduli (GPa) = 8.65248 109.34363 10.55306
#
# Poissons Ratio (x) = 1.37420 1.00928
# Poissons Ratio (y) = 0.10874 -0.08048
# Poissons Ratio (z) = 0.82751 -0.83391
#
# Static dielectric constant tensor:
#      x y z
#    x 3.053480 0.000000 0.000000 
#    y 0.000000 3.519020 0.000000 
#    z 0.000000 0.000000 3.135470 
# 
# 
# High freq. dielectric constant tensor:
#      x y z
#    x 1.659300 0.000000 0.000000 
#    y 0.000000 1.705020 0.000000 
#    z 0.000000 0.000000 1.647180 
# 
# From -- ./inp_files/5672.got.cif
#   From: 2010.03.12/outbox.cif.g09.slc.cpg/sg69_3_cif.got.tgz:5672.got - 2010.04.10 23:52:46.
