data_PCOD8284181
_publ_section_title
;
Structure prediction by ZEFSAII (Michael W. Deem and Ramdas Pophale) SiO2 
 PCOD8284181
Probable space group: F M M M
;
_chemical_formula_sum "Si O2"
_cell_formula_units_Z 144
_cell_length_a 9.664828
_cell_length_b 34.396487
_cell_length_c 27.871057
_cell_angle_alpha 90.000000
_cell_angle_beta 90.000000
_cell_angle_gamma 90.000000
_cell_volume 9265.346346
_symmetry_space_group_name_H-M "F M M M"
_symmetry_group_IT_number 69
_symmetry_cell_setting 'orthorhombic'
loop_
_space_group_symop_operation_xyz
x,y,z
-x,-y,z
x,-y,-z
-x,y,-z
-x,-y,-z
x,y,-z
-x,y,z
x,-y,z
x,1/2+y,1/2+z
-x,1/2-y,1/2+z
x,1/2-y,1/2-z
-x,1/2+y,1/2-z
-x,1/2-y,1/2-z
x,1/2+y,1/2-z
-x,1/2+y,1/2+z
x,1/2-y,1/2+z
1/2+x,y,1/2+z
1/2-x,-y,1/2+z
1/2+x,-y,1/2-z
1/2-x,y,1/2-z
1/2-x,-y,1/2-z
1/2+x,y,1/2-z
1/2-x,y,1/2+z
1/2+x,-y,1/2+z
1/2+x,1/2+y,z
1/2-x,1/2-y,z
1/2+x,1/2-y,-z
1/2-x,1/2+y,-z
1/2-x,1/2-y,-z
1/2+x,1/2+y,-z
1/2-x,1/2+y,z
1/2+x,1/2-y,z
loop_
_atom_site_type_symbol
_atom_site_label
_atom_site_fract_x
_atom_site_fract_y
_atom_site_fract_z
Si Si1 0.339983 0.854683 0.055828
Si Si2 0.500000 0.705585 0.297662
Si Si3 0.841255 0.427706 0.443067
Si Si4 0.239738 0.795763 0.366340
Si Si5 0.000000 0.702470 0.308676
Si Si6 0.840273 0.500000 0.057181
O O1 0.500000 0.866025 0.066096
O O2 0.237978 0.888796 0.073447
O O3 0.295573 0.815771 0.083397
O O4 0.318324 0.845715 0.000000
O O5 0.368581 0.691293 0.326475
O O6 0.500000 0.685033 0.245231
O O7 0.500000 0.752010 0.297511
O O8 0.847695 0.429913 0.500000
O O9 0.746777 0.463044 0.423582
O O10 0.000000 0.429085 0.422888
O O11 0.250000 0.750000 0.376831
O O12 0.376319 0.811884 0.341709
O O13 0.000000 0.500000 0.076655
O O14 0.846339 0.500000 0.000000
#
# Coordination Sequence:
#
# PCOD8284181 Si02
#       6
#    32  16  32  32  16  16
#     4  10  20  33  45  59  87 127 163 191 222 263
#     4   9  16  32  47  67  87 110 140 185 240 293
#     4   9  17  28  43  63  86 114 150 190 227 261
#     4  10  19  31  47  66  88 117 154 192 231 275
#     4   9  18  28  49  69  87 106 140 189 244 289
#     4   9  15  25  43  65  87 113 146 181 222 273
#
# _framework density 15.541783000000001
#
# number of rings (size 3 to 8) (size 9 to 14) (size 15 to 20)
#    0.000    2.556    1.111    1.667    1.556    7.111 
#    0.000    0.000    0.000    0.000    0.000    0.000 
#    0.000    0.000    0.000    6.000    0.000    0.778 
#
# Total GULP energy -446068.850403 kJ/mol
# GULP energy per Si atom -12390.801400 kJ/mol
# Density = 1.550641 g / cm^3
# Si number density = 15.541783 Si / 1000 Ang^3
#
#
#
# Elastic Constant Matrix: (Units=GPa)
#
#
# Indices 1 2 3 4 5 6 
#
# 1 157.8210 50.0404 41.9636 0.0000 0.0000 0.0000
# 2 50.0404 72.1096 35.3376 0.0000 0.0000 0.0000
# 3 41.9636 35.3376 60.3553 0.0000 0.0000 0.0000
# 4 0.0000 0.0000 0.0000 2.4100 0.0000 0.0000
# 5 0.0000 0.0000 0.0000 0.0000 26.9963 0.0000
# 6 0.0000 0.0000 0.0000 0.0000 0.0000 28.4446
#
#
#
# Elastic Compliance Matrix: (Units=1/GPa)
#
#
# Indices 1 2 3 4 5 6 
#
# 1 0.008619 -0.004269 -0.003493 0.000000 0.000000 0.000000
# 2 -0.004269 0.021563 -0.009656 0.000000 0.000000 0.000000
# 3 -0.003493 -0.009656 0.024651 0.000000 0.000000 0.000000
# 4 0.000000 0.000000 0.000000 0.414943 0.000000 0.000000
# 5 0.000000 0.000000 0.000000 0.000000 0.037042 0.000000
# 6 0.000000 0.000000 0.000000 0.000000 0.000000 0.035156
#
#
# Mechanical properties :
#
#
# Convention : Reuss Voigt Hill
#
# Bulk Modulus (GPa) = 50.01216 60.55213 55.28214
# Shear Modulus (GPa) = 8.56934 22.43313 15.50123
#
# Velocity S-wave (km/s) = 2.35068 3.80334 3.16158
# Velocity P-wave (km/s) = 6.29418 7.63758 6.99819
#
# Compressibility (1/GPa) = 0.01999514
#
# Stress axis : x y z
#
# Youngs Moduli (GPa) = 116.02757 46.37654 40.56681
#
# Poissons Ratio (x) = 0.19800 0.14169
# Poissons Ratio (y) = 0.49536 0.39173
# Poissons Ratio (z) = 0.40525 0.44783
#
# Static dielectric constant tensor:
#      x y z
#    x 3.342850 0.000000 0.000000 
#    y 0.000000 2.793590 0.000000 
#    z 0.000000 0.000000 2.693260 
# 
# 
# High freq. dielectric constant tensor:
#      x y z
#    x 1.624020 0.000000 0.000000 
#    y 0.000000 1.567180 0.000000 
#    z 0.000000 0.000000 1.553980 
# 
# From -- ./inp_files/44554.got.cif
#   From: 2010.03.12/outbox.cif.g09.slc.cpg/sg69_23_cif.got.tgz:44554.got - 2010.04.10 23:52:46.
