data_PCOD8284108
_publ_section_title
;
Structure prediction by ZEFSAII (Michael W. Deem and Ramdas Pophale) SiO2 
 PCOD8284108
Probable space group: F M M M
;
_chemical_formula_sum "Si O2"
_cell_formula_units_Z 160
_cell_length_a 26.554271
_cell_length_b 17.139052
_cell_length_c 23.431209
_cell_angle_alpha 90.000000
_cell_angle_beta 90.000000
_cell_angle_gamma 90.000000
_cell_volume 10663.895422
_symmetry_space_group_name_H-M "F M M M"
_symmetry_group_IT_number 69
_symmetry_cell_setting 'orthorhombic'
loop_
_space_group_symop_operation_xyz
x,y,z
-x,-y,z
x,-y,-z
-x,y,-z
-x,-y,-z
x,y,-z
-x,y,z
x,-y,z
x,1/2+y,1/2+z
-x,1/2-y,1/2+z
x,1/2-y,1/2-z
-x,1/2+y,1/2-z
-x,1/2-y,1/2-z
x,1/2+y,1/2-z
-x,1/2+y,1/2+z
x,1/2-y,1/2+z
1/2+x,y,1/2+z
1/2-x,-y,1/2+z
1/2+x,-y,1/2-z
1/2-x,y,1/2-z
1/2-x,-y,1/2-z
1/2+x,y,1/2-z
1/2-x,y,1/2+z
1/2+x,-y,1/2+z
1/2+x,1/2+y,z
1/2-x,1/2-y,z
1/2+x,1/2-y,-z
1/2-x,1/2+y,-z
1/2-x,1/2-y,-z
1/2+x,1/2+y,-z
1/2-x,1/2+y,z
1/2+x,1/2-y,z
loop_
_atom_site_type_symbol
_atom_site_label
_atom_site_fract_x
_atom_site_fract_y
_atom_site_fract_z
Si Si1 0.237670 0.911189 0.815801
Si Si2 0.306309 0.413257 0.500000
Si Si3 0.811112 0.414596 0.500000
Si Si4 0.556839 0.408527 0.934778
Si Si5 0.151176 0.155189 0.116349
Si Si6 0.796101 0.303979 0.899498
O O1 0.250000 0.899567 0.750000
O O2 0.179702 0.889218 0.831786
O O3 0.276231 0.855104 0.847470
O O4 0.247129 0.000000 0.835079
O O5 0.332414 0.500000 0.500000
O O6 0.247625 0.427552 0.500000
O O7 0.321220 0.361631 0.445352
O O8 0.837984 0.500000 0.500000
O O9 0.824378 0.368557 0.556515
O O10 0.500000 0.377855 0.926276
O O11 0.559147 0.500000 0.923098
O O12 0.592002 0.365718 0.887867
O O13 0.574898 0.390474 0.000000
O O14 0.159150 0.248045 0.123435
O O15 0.750000 0.250000 0.923634
#
# Coordination Sequence:
#
# PCOD8284108 Si02
#       6
#    32  16  16  32  32  32
#     4  10  20  32  44  60  85 119 155 184 216 262
#     4  11  18  26  38  56  85 116 150 181 206 248
#     4  11  17  23  40  60  83 119 151 171 206 260
#     4   9  17  28  43  65  92 120 149 182 220 268
#     4  11  19  27  44  63  90 119 147 179 221 268
#     4  10  19  27  39  60  85 113 145 180 214 260
#
# _framework density 15.003897
#
# number of rings (size 3 to 8) (size 9 to 14) (size 15 to 20)
#    0.000    1.800    5.000    3.900    0.000    3.600 
#    0.000    0.000    0.000    0.000    0.000    2.800 
#    0.000    5.600    0.000    0.000    0.000    0.000 
#
# Total GULP energy -495723.786025 kJ/mol
# GULP energy per Si atom -12393.094651 kJ/mol
# Density = 1.496975 g / cm^3
# Si number density = 15.003897 Si / 1000 Ang^3
#
#
#
# Elastic Constant Matrix: (Units=GPa)
#
#
# Indices 1 2 3 4 5 6 
#
# 1 78.2323 33.5564 30.3339 0.0000 0.0000 0.0000
# 2 33.5564 110.9208 37.5608 0.0000 0.0000 0.0000
# 3 30.3339 37.5608 61.8127 0.0000 0.0000 0.0000
# 4 0.0000 0.0000 0.0000 23.7851 0.0000 0.0000
# 5 0.0000 0.0000 0.0000 0.0000 24.8851 0.0000
# 6 0.0000 0.0000 0.0000 0.0000 0.0000 19.4750
#
#
#
# Elastic Compliance Matrix: (Units=1/GPa)
#
#
# Indices 1 2 3 4 5 6 
#
# 1 0.016461 -0.002826 -0.006361 0.000000 0.000000 0.000000
# 2 -0.002826 0.011836 -0.005806 0.000000 0.000000 0.000000
# 3 -0.006361 -0.005806 0.022827 0.000000 0.000000 0.000000
# 4 0.000000 0.000000 0.000000 0.042043 0.000000 0.000000
# 5 0.000000 0.000000 0.000000 0.000000 0.040185 0.000000
# 6 0.000000 0.000000 0.000000 0.000000 0.000000 0.051348
#
#
# Mechanical properties :
#
#
# Convention : Reuss Voigt Hill
#
# Bulk Modulus (GPa) = 47.30426 50.42978 48.86702
# Shear Modulus (GPa) = 22.54979 23.59668 23.07323
#
# Velocity S-wave (km/s) = 3.88097 3.97003 3.92575
# Velocity P-wave (km/s) = 7.18881 7.39588 7.29308
#
# Compressibility (1/GPa) = 0.02113975
#
# Stress axis : x y z
#
# Youngs Moduli (GPa) = 60.74992 84.48597 43.80731
#
# Poissons Ratio (x) = 0.23875 0.27865
# Poissons Ratio (y) = 0.17167 0.25433
# Poissons Ratio (z) = 0.38642 0.49049
#
# Static dielectric constant tensor:
#      x y z
#    x 2.807590 0.000000 0.000000 
#    y 0.000000 3.224100 0.000000 
#    z 0.000000 0.000000 2.716590 
# 
# 
# High freq. dielectric constant tensor:
#      x y z
#    x 1.532820 0.000000 0.000000 
#    y 0.000000 1.584590 0.000000 
#    z 0.000000 0.000000 1.553220 
# 
# From -- ./inp_files/25004.got.cif
#   From: 2010.03.12/outbox.cif.g09.slc.cpg/sg69_13_cif.got.tgz:25004.got - 2010.04.10 23:52:46.
