data_PCOD8284536
_publ_section_title
;
Structure prediction by ZEFSAII (Michael W. Deem and Ramdas Pophale) SiO2 
 PCOD8284536
Probable space group: F M M M
;
_chemical_formula_sum "Si O2"
_cell_formula_units_Z 192
_cell_length_a 20.003279
_cell_length_b 28.439595
_cell_length_c 15.987871
_cell_angle_alpha 90.000000
_cell_angle_beta 90.000000
_cell_angle_gamma 90.000000
_cell_volume 9095.262447
_symmetry_space_group_name_H-M "F M M M"
_symmetry_group_IT_number 69
_symmetry_cell_setting 'orthorhombic'
loop_
_space_group_symop_operation_xyz
x,y,z
-x,-y,z
x,-y,-z
-x,y,-z
-x,-y,-z
x,y,-z
-x,y,z
x,-y,z
x,1/2+y,1/2+z
-x,1/2-y,1/2+z
x,1/2-y,1/2-z
-x,1/2+y,1/2-z
-x,1/2-y,1/2-z
x,1/2+y,1/2-z
-x,1/2+y,1/2+z
x,1/2-y,1/2+z
1/2+x,y,1/2+z
1/2-x,-y,1/2+z
1/2+x,-y,1/2-z
1/2-x,y,1/2-z
1/2-x,-y,1/2-z
1/2+x,y,1/2-z
1/2-x,y,1/2+z
1/2+x,-y,1/2+z
1/2+x,1/2+y,z
1/2-x,1/2-y,z
1/2+x,1/2-y,-z
1/2-x,1/2+y,-z
1/2-x,1/2-y,-z
1/2+x,1/2+y,-z
1/2-x,1/2+y,z
1/2+x,1/2-y,z
loop_
_atom_site_type_symbol
_atom_site_label
_atom_site_fract_x
_atom_site_fract_y
_atom_site_fract_z
Si Si1 0.500000 0.095849 0.904587
Si Si2 0.374872 0.610039 0.169246
Si Si3 0.857390 0.628236 0.144416
Si Si4 0.317391 0.270645 0.596948
Si Si5 0.749081 0.447139 0.650664
Si Si6 0.500000 0.946724 0.269692
Si Si7 0.072992 0.202645 0.902879
O O1 0.566883 0.126867 0.890922
O O2 0.500000 0.056312 0.832091
O O3 0.500000 0.075626 0.000000
O O4 0.352690 0.633926 0.256008
O O5 0.316099 0.580585 0.123969
O O6 0.435166 0.575395 0.189360
O O7 0.395726 0.651073 0.106974
O O8 0.821315 0.673610 0.107229
O O9 0.816075 0.581350 0.117689
O O10 0.316362 0.257292 0.500000
O O11 0.250000 0.250000 0.638969
O O12 0.380329 0.243093 0.638087
O O13 0.747243 0.500000 0.612129
O O14 0.750000 0.450920 0.750000
O O15 0.500000 0.000000 0.296369
O O16 0.000000 0.204917 0.858806
O O17 0.064039 0.212523 0.000000
#
# Coordination Sequence:
#
# PCOD8284536 Si02
#       7
#    16  32  32  32  32  16  32
#     4  10  22  37  55  80 114 157 193 232 286 337
#     4  10  19  36  58  86 115 147 189 237 291 338
#     4  10  21  35  57  86 116 148 193 242 284 337
#     4  10  21  37  57  82 113 152 193 232 284 344
#     4   9  18  34  57  83 113 150 189 232 284 338
#     4  10  20  35  58  87 117 150 194 238 283 344
#     4  10  21  37  58  82 111 149 187 228 285 351
#
# _framework density 21.109891999999999
#
# number of rings (size 3 to 8) (size 9 to 14) (size 15 to 20)
#    0.000    2.167    0.833    2.000    1.167    4.833 
#    0.000    2.500    0.000    6.000    0.000    0.000 
#    0.000    0.000    0.000    0.000    0.000    0.000 
#
# Total GULP energy -595051.332179 kJ/mol
# GULP energy per Si atom -12396.902754 kJ/mol
# Density = 2.106185 g / cm^3
# Si number density = 21.109892 Si / 1000 Ang^3
#
#
#
# Elastic Constant Matrix: (Units=GPa)
#
#
# Indices 1 2 3 4 5 6 
#
# 1 180.0653 79.8798 15.3851 0.0000 0.0000 0.0000
# 2 79.8798 151.6259 9.0103 0.0000 0.0000 0.0000
# 3 15.3851 9.0103 21.9596 0.0000 0.0000 0.0000
# 4 0.0000 0.0000 0.0000 15.0296 0.0000 0.0000
# 5 0.0000 0.0000 0.0000 0.0000 11.8998 0.0000
# 6 0.0000 0.0000 0.0000 0.0000 0.0000 -5.2183
#
#
#
# Elastic Compliance Matrix: (Units=1/GPa)
#
#
# Indices 1 2 3 4 5 6 
#
# 1 0.007536 -0.003748 -0.003742 0.000000 0.000000 0.000000
# 2 -0.003748 0.008624 -0.000913 0.000000 0.000000 0.000000
# 3 -0.003742 -0.000913 0.048534 0.000000 0.000000 0.000000
# 4 0.000000 0.000000 0.000000 0.066535 0.000000 0.000000
# 5 0.000000 0.000000 0.000000 0.000000 0.084035 0.000000
# 6 0.000000 0.000000 0.000000 0.000000 0.000000 -0.191633
#
#
# Mechanical properties :
#
#
# Convention : Reuss Voigt Hill
#
# Bulk Modulus (GPa) = 20.88160 62.46682 41.67421
# Shear Modulus (GPa) = 88.65467 20.96726 54.81097
#
# Velocity S-wave (km/s) = 6.48752 3.15500 5.10107
# Velocity P-wave (km/s) = 8.12592 6.55191 7.38099
#
# Compressibility (1/GPa) = 0.04788906
#
# Stress axis : x y z
#
# Youngs Moduli (GPa) = 132.70043 115.95865 20.60400
#
# Poissons Ratio (x) = 0.43457 0.07710
# Poissons Ratio (y) = 0.49731 0.01881
# Poissons Ratio (z) = 0.49655 0.10585
#
# Static dielectric constant tensor:
#      x y z
#    x 4.296720 0.000000 0.000000 
#    y 0.000000 3.690380 0.000000 
#    z 0.000000 0.000000 3.411070 
# 
# 
# High freq. dielectric constant tensor:
#      x y z
#    x 1.850100 0.000000 0.000000 
#    y 0.000000 1.824580 0.000000 
#    z 0.000000 0.000000 1.787900 
# 
# From -- ./inp_files/23689.got.cif
#   From: 2010.03.12/outbox.cif.g09.slc.cpg/sg69_12_cif.got.tgz:23689.got - 2010.04.10 23:52:46.
