data_PCOD8284129
_publ_section_title
;
Structure prediction by ZEFSAII (Michael W. Deem and Ramdas Pophale) SiO2 
 PCOD8284129
Probable space group: F M M M
;
_chemical_formula_sum "Si O2"
_cell_formula_units_Z 144
_cell_length_a 21.295472
_cell_length_b 17.060510
_cell_length_c 23.354119
_cell_angle_alpha 90.000000
_cell_angle_beta 90.000000
_cell_angle_gamma 90.000000
_cell_volume 8484.822644
_symmetry_space_group_name_H-M "F M M M"
_symmetry_group_IT_number 69
_symmetry_cell_setting 'orthorhombic'
loop_
_space_group_symop_operation_xyz
x,y,z
-x,-y,z
x,-y,-z
-x,y,-z
-x,-y,-z
x,y,-z
-x,y,z
x,-y,z
x,1/2+y,1/2+z
-x,1/2-y,1/2+z
x,1/2-y,1/2-z
-x,1/2+y,1/2-z
-x,1/2-y,1/2-z
x,1/2+y,1/2-z
-x,1/2+y,1/2+z
x,1/2-y,1/2+z
1/2+x,y,1/2+z
1/2-x,-y,1/2+z
1/2+x,-y,1/2-z
1/2-x,y,1/2-z
1/2-x,-y,1/2-z
1/2+x,y,1/2-z
1/2-x,y,1/2+z
1/2+x,-y,1/2+z
1/2+x,1/2+y,z
1/2-x,1/2-y,z
1/2+x,1/2-y,-z
1/2-x,1/2+y,-z
1/2-x,1/2-y,-z
1/2+x,1/2+y,-z
1/2-x,1/2+y,z
1/2+x,1/2-y,z
loop_
_atom_site_type_symbol
_atom_site_label
_atom_site_fract_x
_atom_site_fract_y
_atom_site_fract_z
Si Si1 0.191507 0.697633 0.099972
Si Si2 0.826040 0.086661 0.500000
Si Si3 0.763649 0.411083 0.683797
Si Si4 0.871078 0.848806 0.113745
Si Si5 0.000000 0.092837 0.932510
Si Si6 0.681253 0.084711 0.500000
O O1 0.250000 0.750000 0.075325
O O2 0.158134 0.639729 0.054921
O O3 0.216183 0.646675 0.152509
O O4 0.136196 0.755206 0.122574
O O5 0.753582 0.067307 0.500000
O O6 0.860230 0.000000 0.500000
O O7 0.748932 0.500000 0.665332
O O8 0.750000 0.397994 0.750000
O O9 0.836470 0.392828 0.666668
O O10 0.834250 0.867146 0.055783
O O11 0.942346 0.874206 0.104459
O O12 0.000000 0.000000 0.930196
O O13 0.000000 0.120281 0.000000
O O14 0.644988 0.000000 0.500000
#
# Coordination Sequence:
#
# PCOD8284129 Si02
#       6
#    32  16  32  32  16  16
#     4  10  19  29  46  71 102 133 166 210 266 313
#     4  11  18  26  44  71 102 136 167 204 262 325
#     4  10  20  34  53  76 103 136 174 219 269 321
#     4  11  21  32  50  75 108 139 173 212 261 318
#     4  11  22  34  52  77 108 148 180 210 259 318
#     4  11  17  26  46  70 105 137 164 205 255 320
#
# _framework density 16.97148
#
# number of rings (size 3 to 8) (size 9 to 14) (size 15 to 20)
#    0.000    1.444    5.556    3.667    0.000    4.000 
#    0.000    0.000    0.000    2.667    0.000    5.444 
#    0.000    0.000    0.000    0.000    0.000    0.000 
#
# Total GULP energy -446063.669713 kJ/mol
# GULP energy per Si atom -12390.657492 kJ/mol
# Density = 1.693285 g / cm^3
# Si number density = 16.971480 Si / 1000 Ang^3
#
#
#
# Elastic Constant Matrix: (Units=GPa)
#
#
# Indices 1 2 3 4 5 6 
#
# 1 87.8121 38.0736 40.3715 0.0000 0.0000 0.0000
# 2 38.0736 136.1622 47.8408 0.0000 0.0000 0.0000
# 3 40.3715 47.8408 85.1032 0.0000 0.0000 0.0000
# 4 0.0000 0.0000 0.0000 28.2449 0.0000 0.0000
# 5 0.0000 0.0000 0.0000 0.0000 30.5677 0.0000
# 6 0.0000 0.0000 0.0000 0.0000 0.0000 17.5042
#
#
#
# Elastic Compliance Matrix: (Units=1/GPa)
#
#
# Indices 1 2 3 4 5 6 
#
# 1 0.015038 -0.002117 -0.005944 0.000000 0.000000 0.000000
# 2 -0.002117 0.009450 -0.004308 0.000000 0.000000 0.000000
# 3 -0.005944 -0.004308 0.016992 0.000000 0.000000 0.000000
# 4 0.000000 0.000000 0.000000 0.035405 0.000000 0.000000
# 5 0.000000 0.000000 0.000000 0.000000 0.032714 0.000000
# 6 0.000000 0.000000 0.000000 0.000000 0.000000 0.057129
#
#
# Mechanical properties :
#
#
# Convention : Reuss Voigt Hill
#
# Bulk Modulus (GPa) = 59.72800 62.40550 61.06675
# Shear Modulus (GPa) = 25.37470 27.44947 26.41208
#
# Velocity S-wave (km/s) = 3.87090 4.02604 3.94923
# Velocity P-wave (km/s) = 7.43290 7.64609 7.54025
#
# Compressibility (1/GPa) = 0.01674257
#
# Stress axis : x y z
#
# Youngs Moduli (GPa) = 66.49605 105.82395 58.85107
#
# Poissons Ratio (x) = 0.22398 0.34982
# Poissons Ratio (y) = 0.14074 0.25353
# Poissons Ratio (z) = 0.39526 0.45590
#
# Static dielectric constant tensor:
#      x y z
#    x 2.941420 0.000000 0.000000 
#    y 0.000000 3.661000 0.000000 
#    z 0.000000 0.000000 3.057080 
# 
# 
# High freq. dielectric constant tensor:
#      x y z
#    x 1.603650 0.000000 0.000000 
#    y 0.000000 1.681410 0.000000 
#    z 0.000000 0.000000 1.639530 
# 
# From -- ./inp_files/30753.got.cif
#   From: 2010.03.12/outbox.cif.g09.slc.cpg/sg69_16_cif.got.tgz:30753.got - 2010.04.10 23:52:46.
