data_PCOD8284812
_publ_section_title
;
Structure prediction by ZEFSAII (Michael W. Deem and Ramdas Pophale) SiO2 
 PCOD8284812
Probable space group: F M M M
;
_chemical_formula_sum "Si O2"
_cell_formula_units_Z 160
_cell_length_a 21.433957
_cell_length_b 24.545450
_cell_length_c 13.794909
_cell_angle_alpha 90.000000
_cell_angle_beta 90.000000
_cell_angle_gamma 90.000000
_cell_volume 7257.586048
_symmetry_space_group_name_H-M "F M M M"
_symmetry_group_IT_number 69
_symmetry_cell_setting 'orthorhombic'
loop_
_space_group_symop_operation_xyz
x,y,z
-x,-y,z
x,-y,-z
-x,y,-z
-x,-y,-z
x,y,-z
-x,y,z
x,-y,z
x,1/2+y,1/2+z
-x,1/2-y,1/2+z
x,1/2-y,1/2-z
-x,1/2+y,1/2-z
-x,1/2-y,1/2-z
x,1/2+y,1/2-z
-x,1/2+y,1/2+z
x,1/2-y,1/2+z
1/2+x,y,1/2+z
1/2-x,-y,1/2+z
1/2+x,-y,1/2-z
1/2-x,y,1/2-z
1/2-x,-y,1/2-z
1/2+x,y,1/2-z
1/2-x,y,1/2+z
1/2+x,-y,1/2+z
1/2+x,1/2+y,z
1/2-x,1/2-y,z
1/2+x,1/2-y,-z
1/2-x,1/2+y,-z
1/2-x,1/2-y,-z
1/2+x,1/2+y,-z
1/2-x,1/2+y,z
1/2+x,1/2-y,z
loop_
_atom_site_type_symbol
_atom_site_label
_atom_site_fract_x
_atom_site_fract_y
_atom_site_fract_z
Si Si1 0.430444 0.198270 0.390200
Si Si2 0.750000 0.145530 0.250000
Si Si3 0.155427 0.438117 0.677781
Si Si4 0.846945 0.698968 0.109126
Si Si5 0.930375 0.063596 0.000000
Si Si6 0.069823 0.620508 0.793647
O O1 0.420659 0.173322 0.500000
O O2 0.500000 0.224997 0.384876
O O3 0.376896 0.242395 0.368428
O O4 0.424615 0.154089 0.306570
O O5 0.788340 0.105238 0.179146
O O6 0.791976 0.185148 0.315784
O O7 0.180799 0.500000 0.667675
O O8 0.109523 0.420007 0.592601
O O9 0.113944 0.432324 0.776407
O O10 0.902900 0.655204 0.117742
O O11 0.820285 0.697074 0.000000
O O12 0.000000 0.091873 0.000000
O O13 0.942423 0.000000 0.000000
O O14 0.000000 0.602005 0.817782
#
# Coordination Sequence:
#
# PCOD8284812 Si02
#       6
#    32  16  32  32  16  32
#     4   9  18  34  59  89 120 151 184 231 288 344
#     4  10  23  40  61  82 108 154 206 240 276 338
#     4  10  21  37  57  82 115 153 191 238 289 341
#     4  10  21  38  58  82 113 150 193 238 282 337
#     4   9  18  32  54  84 111 140 181 235 300 351
#     4  10  20  34  58  89 118 149 187 233 284 348
#
# _framework density 22.045898000000001
#
# number of rings (size 3 to 8) (size 9 to 14) (size 15 to 20)
#    0.000    2.300    0.000    2.100    2.800    4.000 
#    0.000    8.000    0.000   22.200    0.000    5.600 
#    0.000    0.000    0.000    0.000    0.000    0.000 
#
# Total GULP energy -495699.353532 kJ/mol
# GULP energy per Si atom -12392.483838 kJ/mol
# Density = 2.199572 g / cm^3
# Si number density = 22.045898 Si / 1000 Ang^3
#
#
#
# Elastic Constant Matrix: (Units=GPa)
#
#
# Indices 1 2 3 4 5 6 
#
# 1 124.9640 27.0586 32.7992 0.0000 0.0000 0.0000
# 2 27.0586 55.5829 27.4182 0.0000 0.0000 0.0000
# 3 32.7992 27.4182 70.0658 0.0000 0.0000 0.0000
# 4 0.0000 0.0000 0.0000 3.0521 0.0000 0.0000
# 5 0.0000 0.0000 0.0000 0.0000 40.0940 0.0000
# 6 0.0000 0.0000 0.0000 0.0000 0.0000 32.0877
#
#
#
# Elastic Compliance Matrix: (Units=1/GPa)
#
#
# Indices 1 2 3 4 5 6 
#
# 1 0.009515 -0.003017 -0.003273 0.000000 0.000000 0.000000
# 2 -0.003017 0.023252 -0.007686 0.000000 0.000000 0.000000
# 3 -0.003273 -0.007686 0.018812 0.000000 0.000000 0.000000
# 4 0.000000 0.000000 0.000000 0.327638 0.000000 0.000000
# 5 0.000000 0.000000 0.000000 0.000000 0.024941 0.000000
# 6 0.000000 0.000000 0.000000 0.000000 0.000000 0.031165
#
#
# Mechanical properties :
#
#
# Convention : Reuss Voigt Hill
#
# Bulk Modulus (GPa) = 42.32833 47.24053 44.78443
# Shear Modulus (GPa) = 10.61228 25.93586 18.27407
#
# Velocity S-wave (km/s) = 2.19640 3.43366 2.88220
# Velocity P-wave (km/s) = 5.06695 6.09876 5.60664
#
# Compressibility (1/GPa) = 0.02362484
#
# Stress axis : x y z
#
# Youngs Moduli (GPa) = 105.09952 43.00787 53.15631
#
# Poissons Ratio (x) = 0.12977 0.17400
# Poissons Ratio (y) = 0.31711 0.40858
# Poissons Ratio (z) = 0.34403 0.33057
#
# Static dielectric constant tensor:
#      x y z
#    x 4.228960 0.000000 0.000000 
#    y 0.000000 3.841740 0.000000 
#    z 0.000000 0.000000 3.927190 
# 
# 
# High freq. dielectric constant tensor:
#      x y z
#    x 1.875310 0.000000 0.000000 
#    y 0.000000 1.863150 0.000000 
#    z 0.000000 0.000000 1.850940 
# 
# From -- ./inp_files/18015.got.cif
#   From: 2010.03.12/outbox.cif.g09.slc.cpg/sg69_10_cif.got.tgz:18015.got - 2010.04.10 23:52:46.
