data_PCOD8284669
_publ_section_title
;
Structure prediction by ZEFSAII (Michael W. Deem and Ramdas Pophale) SiO2 
 PCOD8284669
Probable space group: F M M M
;
_chemical_formula_sum "Si O2"
_cell_formula_units_Z 160
_cell_length_a 25.573010
_cell_length_b 17.712049
_cell_length_c 19.392646
_cell_angle_alpha 90.000000
_cell_angle_beta 90.000000
_cell_angle_gamma 90.000000
_cell_volume 8783.906883
_symmetry_space_group_name_H-M "F M M M"
_symmetry_group_IT_number 69
_symmetry_cell_setting 'orthorhombic'
loop_
_space_group_symop_operation_xyz
x,y,z
-x,-y,z
x,-y,-z
-x,y,-z
-x,-y,-z
x,y,-z
-x,y,z
x,-y,z
x,1/2+y,1/2+z
-x,1/2-y,1/2+z
x,1/2-y,1/2-z
-x,1/2+y,1/2-z
-x,1/2-y,1/2-z
x,1/2+y,1/2-z
-x,1/2+y,1/2+z
x,1/2-y,1/2+z
1/2+x,y,1/2+z
1/2-x,-y,1/2+z
1/2+x,-y,1/2-z
1/2-x,y,1/2-z
1/2-x,-y,1/2-z
1/2+x,y,1/2-z
1/2-x,y,1/2+z
1/2+x,-y,1/2+z
1/2+x,1/2+y,z
1/2-x,1/2-y,z
1/2+x,1/2-y,-z
1/2-x,1/2+y,-z
1/2-x,1/2-y,-z
1/2+x,1/2+y,-z
1/2-x,1/2+y,z
1/2+x,1/2-y,z
loop_
_atom_site_type_symbol
_atom_site_label
_atom_site_fract_x
_atom_site_fract_y
_atom_site_fract_z
Si Si1 0.632033 0.416249 0.691277
Si Si2 0.059688 0.132096 0.577302
Si Si3 0.690166 0.770447 0.173961
Si Si4 0.060090 0.087740 0.819176
Si Si5 0.396546 0.792801 0.419547
O O1 0.655242 0.500000 0.703977
O O2 0.592691 0.420507 0.627285
O O3 0.679571 0.360605 0.670616
O O4 0.598562 0.388041 0.757091
O O5 0.078895 0.115036 0.500000
O O6 0.066481 0.220895 0.593461
O O7 0.000000 0.109663 0.587443
O O8 0.670866 0.750000 0.250000
O O9 0.750000 0.750000 0.161414
O O10 0.658922 0.723671 0.116649
O O11 0.075499 0.134622 0.886918
O O12 0.000000 0.104877 0.798057
O O13 0.067289 0.000000 0.837353
O O14 0.386797 0.809058 0.500000
#
# Coordination Sequence:
#
# PCOD8284669 Si02
#       5
#    32  32  32  32  32
#     4  10  20  35  54  80 111 142 175 219 270 319
#     4   9  18  31  50  78 110 145 182 218 261 317
#     4  10  20  38  60  81 104 133 180 227 269 321
#     4  10  20  33  51  78 111 147 184 219 260 312
#     4  10  20  35  54  78 108 143 182 223 268 314
#
# _framework density 18.215129999999998
#
# number of rings (size 3 to 8) (size 9 to 14) (size 15 to 20)
#    0.000    2.200    2.000    1.200    0.000    3.600 
#    0.000    8.000    0.000    0.000    0.000    0.000 
#    0.000    0.000    0.000    0.000    0.000    0.000 
#
# Total GULP energy -495931.702288 kJ/mol
# GULP energy per Si atom -12398.292557 kJ/mol
# Density = 1.817367 g / cm^3
# Si number density = 18.215130 Si / 1000 Ang^3
#
#
#
# Elastic Constant Matrix: (Units=GPa)
#
#
# Indices 1 2 3 4 5 6 
#
# 1 87.6856 45.7250 33.5197 0.0000 0.0000 0.0000
# 2 45.7250 79.8899 26.6973 0.0000 0.0000 0.0000
# 3 33.5197 26.6973 94.0567 0.0000 0.0000 0.0000
# 4 0.0000 0.0000 0.0000 26.6849 0.0000 0.0000
# 5 0.0000 0.0000 0.0000 0.0000 26.0676 0.0000
# 6 0.0000 0.0000 0.0000 0.0000 0.0000 16.3362
#
#
#
# Elastic Compliance Matrix: (Units=1/GPa)
#
#
# Indices 1 2 3 4 5 6 
#
# 1 0.017359 -0.008693 -0.003719 0.000000 0.000000 0.000000
# 2 -0.008693 0.018182 -0.002063 0.000000 0.000000 0.000000
# 3 -0.003719 -0.002063 0.012543 0.000000 0.000000 0.000000
# 4 0.000000 0.000000 0.000000 0.037474 0.000000 0.000000
# 5 0.000000 0.000000 0.000000 0.000000 0.038362 0.000000
# 6 0.000000 0.000000 0.000000 0.000000 0.000000 0.061214
#
#
# Mechanical properties :
#
#
# Convention : Reuss Voigt Hill
#
# Bulk Modulus (GPa) = 52.26162 52.61291 52.43727
# Shear Modulus (GPa) = 22.67978 24.19710 23.43844
#
# Velocity S-wave (km/s) = 3.53244 3.64869 3.59103
# Velocity P-wave (km/s) = 6.73729 6.83355 6.78559
#
# Compressibility (1/GPa) = 0.01913450
#
# Stress axis : x y z
#
# Youngs Moduli (GPa) = 57.60724 55.00005 79.72698
#
# Poissons Ratio (x) = 0.47809 0.29651
# Poissons Ratio (y) = 0.50076 0.16447
# Poissons Ratio (z) = 0.21424 0.11346
#
# Static dielectric constant tensor:
#      x y z
#    x 3.153210 0.000000 0.000000 
#    y 0.000000 3.281950 0.000000 
#    z 0.000000 0.000000 3.465010 
# 
# 
# High freq. dielectric constant tensor:
#      x y z
#    x 1.687270 0.000000 0.000000 
#    y 0.000000 1.707110 0.000000 
#    z 0.000000 0.000000 1.711200 
# 
# From -- ./inp_files/23126.got.cif
#   From: 2010.03.12/outbox.cif.g09.slc.cpg/sg69_12_cif.got.tgz:23126.got - 2010.04.10 23:52:46.
