data_PCOD8284436
_publ_section_title
;
Structure prediction by ZEFSAII (Michael W. Deem and Ramdas Pophale) SiO2 
 PCOD8284436
Probable space group: F M M M
;
_chemical_formula_sum "Si O2"
_cell_formula_units_Z 176
_cell_length_a 27.260358
_cell_length_b 17.037746
_cell_length_c 18.006596
_cell_angle_alpha 90.000000
_cell_angle_beta 90.000000
_cell_angle_gamma 90.000000
_cell_volume 8363.254544
_symmetry_space_group_name_H-M "F M M M"
_symmetry_group_IT_number 69
_symmetry_cell_setting 'orthorhombic'
loop_
_space_group_symop_operation_xyz
x,y,z
-x,-y,z
x,-y,-z
-x,y,-z
-x,-y,-z
x,y,-z
-x,y,z
x,-y,z
x,1/2+y,1/2+z
-x,1/2-y,1/2+z
x,1/2-y,1/2-z
-x,1/2+y,1/2-z
-x,1/2-y,1/2-z
x,1/2+y,1/2-z
-x,1/2+y,1/2+z
x,1/2-y,1/2+z
1/2+x,y,1/2+z
1/2-x,-y,1/2+z
1/2+x,-y,1/2-z
1/2-x,y,1/2-z
1/2-x,-y,1/2-z
1/2+x,y,1/2-z
1/2-x,y,1/2+z
1/2+x,-y,1/2+z
1/2+x,1/2+y,z
1/2-x,1/2-y,z
1/2+x,1/2-y,-z
1/2-x,1/2+y,-z
1/2-x,1/2-y,-z
1/2+x,1/2+y,-z
1/2-x,1/2+y,z
1/2+x,1/2-y,z
loop_
_atom_site_type_symbol
_atom_site_label
_atom_site_fract_x
_atom_site_fract_y
_atom_site_fract_z
Si Si1 0.240608 0.658375 0.668615
Si Si2 0.000000 0.405933 0.081454
Si Si3 0.334782 0.355569 0.415404
Si Si4 0.916390 0.589184 0.817179
Si Si5 0.145691 0.173661 0.083866
Si Si6 0.557455 0.907065 0.343620
O O1 0.250000 0.619391 0.750000
O O2 0.250000 0.750000 0.676698
O O3 0.278154 0.629545 0.605134
O O4 0.185858 0.636973 0.640547
O O5 0.953001 0.371308 0.123825
O O6 0.000000 0.500000 0.076389
O O7 0.000000 0.368482 0.000000
O O8 0.343585 0.385239 0.500000
O O9 0.362815 0.405450 0.352714
O O10 0.353466 0.266983 0.406068
O O11 0.932758 0.500000 0.806425
O O12 0.923423 0.626468 0.735864
O O13 0.091443 0.138972 0.097906
O O14 0.160957 0.152069 0.000000
O O15 0.500000 0.886370 0.355494
O O16 0.565972 0.000000 0.353131
#
# Coordination Sequence:
#
# PCOD8284436 Si02
#       6
#    32  16  32  32  32  32
#     4   9  17  32  56  81 108 144 183 221 269 330
#     4   9  16  28  48  71  99 137 174 207 251 311
#     4  10  20  34  54  83 116 147 177 219 274 328
#     4  10  19  34  54  79 109 142 181 220 266 326
#     4  10  21  37  56  81 111 144 185 230 274 325
#     4  10  21  39  60  79 105 144 188 236 285 327
#
# _framework density 21.044440000000002
#
# number of rings (size 3 to 8) (size 9 to 14) (size 15 to 20)
#    0.000    2.273    0.909    2.182    0.000    6.182 
#    1.636    2.727    0.000    5.455    0.000    0.000 
#    0.000    0.000    0.000    0.000    0.000    0.000 
#
# Total GULP energy -545326.952105 kJ/mol
# GULP energy per Si atom -12393.794366 kJ/mol
# Density = 2.099654 g / cm^3
# Si number density = 21.044440 Si / 1000 Ang^3
#
#
#
# Elastic Constant Matrix: (Units=GPa)
#
#
# Indices 1 2 3 4 5 6 
#
# 1 128.7691 16.6948 39.6705 0.0000 0.0000 0.0000
# 2 16.6948 18.3816 15.6169 0.0000 0.0000 0.0000
# 3 39.6705 15.6169 115.4645 0.0000 0.0000 0.0000
# 4 0.0000 0.0000 0.0000 18.9731 0.0000 0.0000
# 5 0.0000 0.0000 0.0000 0.0000 41.3207 0.0000
# 6 0.0000 0.0000 0.0000 0.0000 0.0000 22.3193
#
#
#
# Elastic Compliance Matrix: (Units=1/GPa)
#
#
# Indices 1 2 3 4 5 6 
#
# 1 0.009324 -0.006493 -0.002325 0.000000 0.000000 0.000000
# 2 -0.006493 0.065987 -0.006694 0.000000 0.000000 0.000000
# 3 -0.002325 -0.006694 0.010365 0.000000 0.000000 0.000000
# 4 0.000000 0.000000 0.000000 0.052706 0.000000 0.000000
# 5 0.000000 0.000000 0.000000 0.000000 0.024201 0.000000
# 6 0.000000 0.000000 0.000000 0.000000 0.000000 0.044804
#
#
# Mechanical properties :
#
#
# Convention : Reuss Voigt Hill
#
# Bulk Modulus (GPa) = 18.29790 45.17550 31.73670
# Shear Modulus (GPa) = 19.48343 29.23149 24.35746
#
# Velocity S-wave (km/s) = 3.04604 3.73102 3.40579
# Velocity P-wave (km/s) = 4.59183 6.33040 5.52987
#
# Compressibility (1/GPa) = 0.05465109
#
# Stress axis : x y z
#
# Youngs Moduli (GPa) = 107.25021 15.15461 96.47874
#
# Poissons Ratio (x) = 0.09840 0.22434
# Poissons Ratio (y) = 0.69635 0.64584
# Poissons Ratio (z) = 0.24939 0.10145
#
# Static dielectric constant tensor:
#      x y z
#    x 3.800730 0.000000 0.000000 
#    y 0.000000 3.244880 0.000000 
#    z 0.000000 0.000000 4.019800 
# 
# 
# High freq. dielectric constant tensor:
#      x y z
#    x 1.831790 0.000000 0.000000 
#    y 0.000000 1.768400 0.000000 
#    z 0.000000 0.000000 1.839440 
# 
# From -- ./inp_files/26754.got.cif
#   From: 2010.03.12/outbox.cif.g09.slc.cpg/sg69_14_cif.got.tgz:26754.got - 2010.04.10 23:52:46.
