data_PCOD8284130
_publ_section_title
;
Structure prediction by ZEFSAII (Michael W. Deem and Ramdas Pophale) SiO2 
 PCOD8284130
Probable space group: F M M M
;
_chemical_formula_sum "Si O2"
_cell_formula_units_Z 136
_cell_length_a 14.823960
_cell_length_b 21.448527
_cell_length_c 26.147247
_cell_angle_alpha 90.000000
_cell_angle_beta 90.000000
_cell_angle_gamma 90.000000
_cell_volume 8313.572258
_symmetry_space_group_name_H-M "F M M M"
_symmetry_group_IT_number 69
_symmetry_cell_setting 'orthorhombic'
loop_
_space_group_symop_operation_xyz
x,y,z
-x,-y,z
x,-y,-z
-x,y,-z
-x,-y,-z
x,y,-z
-x,y,z
x,-y,z
x,1/2+y,1/2+z
-x,1/2-y,1/2+z
x,1/2-y,1/2-z
-x,1/2+y,1/2-z
-x,1/2-y,1/2-z
x,1/2+y,1/2-z
-x,1/2+y,1/2+z
x,1/2-y,1/2+z
1/2+x,y,1/2+z
1/2-x,-y,1/2+z
1/2+x,-y,1/2-z
1/2-x,y,1/2-z
1/2-x,-y,1/2-z
1/2+x,y,1/2-z
1/2-x,y,1/2+z
1/2+x,-y,1/2+z
1/2+x,1/2+y,z
1/2-x,1/2-y,z
1/2+x,1/2-y,-z
1/2-x,1/2+y,-z
1/2-x,1/2-y,-z
1/2+x,1/2+y,-z
1/2-x,1/2+y,z
1/2+x,1/2-y,z
loop_
_atom_site_type_symbol
_atom_site_label
_atom_site_fract_x
_atom_site_fract_y
_atom_site_fract_z
Si Si1 0.000000 0.074148 0.828253
Si Si2 0.164100 0.572990 0.603172
Si Si3 0.600899 0.628493 0.000000
Si Si4 0.500000 0.252233 0.000000
Si Si5 0.635504 0.427273 0.629954
Si Si6 0.000000 0.132619 0.556296
Si Si7 0.500000 0.573117 0.285008
O O1 0.912125 0.098068 0.858341
O O2 0.000000 0.104242 0.771293
O O3 0.000000 0.000000 0.825315
O O4 0.152763 0.500000 0.591992
O O5 0.157210 0.608311 0.549464
O O6 0.258776 0.587828 0.630642
O O7 0.500000 0.597180 0.000000
O O8 0.589159 0.703745 0.000000
O O9 0.500000 0.208222 0.949456
O O10 0.616411 0.500000 0.619647
O O11 0.590286 0.388340 0.584747
O O12 0.590107 0.407076 0.683833
O O13 0.000000 0.101382 0.500000
O O14 0.500000 0.500000 0.276488
#
# Coordination Sequence:
#
# PCOD8284130 Si02
#       7
#    16  32  16   8  32  16  16
#     4   9  16  27  44  66  96 132 159 181 219 274
#     4  10  19  29  46  73  98 125 157 187 229 279
#     4  10  19  33  47  62  96 127 152 192 233 270
#     4   8  20  34  48  64  88 126 164 194 232 274
#     4   9  18  30  46  71  98 122 153 191 233 276
#     4   9  18  33  47  64  90 123 159 190 230 276
#     4   8  15  29  45  64  97 131 154 185 225 269
#
# _framework density 16.358792000000001
#
# number of rings (size 3 to 8) (size 9 to 14) (size 15 to 20)
#    0.706    2.118    1.176    1.412    1.647    2.353 
#    0.000    7.059    0.000    0.000    0.000   13.176 
#    0.000   15.059    0.000    0.000    0.000    0.000 
#
# Total GULP energy -421399.967570 kJ/mol
# GULP energy per Si atom -12394.116693 kJ/mol
# Density = 1.632156 g / cm^3
# Si number density = 16.358792 Si / 1000 Ang^3
#
#
#
# Elastic Constant Matrix: (Units=GPa)
#
#
# Indices 1 2 3 4 5 6 
#
# 1 138.2740 32.0008 69.2316 0.0000 0.0000 0.0000
# 2 32.0008 51.3881 34.8481 0.0000 0.0000 0.0000
# 3 69.2316 34.8481 153.7700 0.0000 0.0000 0.0000
# 4 0.0000 0.0000 0.0000 0.1520 0.0000 0.0000
# 5 0.0000 0.0000 0.0000 0.0000 13.0536 0.0000
# 6 0.0000 0.0000 0.0000 0.0000 0.0000 14.4641
#
#
#
# Elastic Compliance Matrix: (Units=1/GPa)
#
#
# Indices 1 2 3 4 5 6 
#
# 1 0.009902 -0.003714 -0.003617 0.000000 0.000000 0.000000
# 2 -0.003714 0.024386 -0.003854 0.000000 0.000000 0.000000
# 3 -0.003617 -0.003854 0.009005 0.000000 0.000000 0.000000
# 4 0.000000 0.000000 0.000000 6.578613 0.000000 0.000000
# 5 0.000000 0.000000 0.000000 0.000000 0.076607 0.000000
# 6 0.000000 0.000000 0.000000 0.000000 0.000000 0.069137
#
#
# Mechanical properties :
#
#
# Convention : Reuss Voigt Hill
#
# Bulk Modulus (GPa) = 47.79256 68.39923 58.09589
# Shear Modulus (GPa) = 0.73562 19.35737 10.04649
#
# Velocity S-wave (km/s) = 0.67131 3.44365 2.48086
# Velocity P-wave (km/s) = 5.46622 7.59699 6.61792
#
# Compressibility (1/GPa) = 0.02092376
#
# Stress axis : x y z
#
# Youngs Moduli (GPa) = 100.98643 41.00651 111.04881
#
# Poissons Ratio (x) = 0.15229 0.40162
# Poissons Ratio (y) = 0.37505 0.42803
# Poissons Ratio (z) = 0.36523 0.15806
#
# Static dielectric constant tensor:
#      x y z
#    x 3.132980 0.000000 0.000000 
#    y 0.000000 2.651960 0.000000 
#    z 0.000000 0.000000 3.236490 
# 
# 
# High freq. dielectric constant tensor:
#      x y z
#    x 1.634100 0.000000 0.000000 
#    y 0.000000 1.577130 0.000000 
#    z 0.000000 0.000000 1.632310 
# 
# From -- ./inp_files/35961.got.cif
#   From: 2010.03.12/outbox.cif.g09.slc.cpg/sg69_18_cif.got.tgz:35961.got - 2010.04.10 23:52:46.
