data_PCOD8284727
_publ_section_title
;
Structure prediction by ZEFSAII (Michael W. Deem and Ramdas Pophale) SiO2 
 PCOD8284727
Probable space group: F M M M
;
_chemical_formula_sum "Si O2"
_cell_formula_units_Z 160
_cell_length_a 25.970078
_cell_length_b 23.261453
_cell_length_c 13.897880
_cell_angle_alpha 90.000000
_cell_angle_beta 90.000000
_cell_angle_gamma 90.000000
_cell_volume 8395.733613
_symmetry_space_group_name_H-M "F M M M"
_symmetry_group_IT_number 69
_symmetry_cell_setting 'orthorhombic'
loop_
_space_group_symop_operation_xyz
x,y,z
-x,-y,z
x,-y,-z
-x,y,-z
-x,-y,-z
x,y,-z
-x,y,z
x,-y,z
x,1/2+y,1/2+z
-x,1/2-y,1/2+z
x,1/2-y,1/2-z
-x,1/2+y,1/2-z
-x,1/2-y,1/2-z
x,1/2+y,1/2-z
-x,1/2+y,1/2+z
x,1/2-y,1/2+z
1/2+x,y,1/2+z
1/2-x,-y,1/2+z
1/2+x,-y,1/2-z
1/2-x,y,1/2-z
1/2-x,-y,1/2-z
1/2+x,y,1/2-z
1/2-x,y,1/2+z
1/2+x,-y,1/2+z
1/2+x,1/2+y,z
1/2-x,1/2-y,z
1/2+x,1/2-y,-z
1/2-x,1/2+y,-z
1/2-x,1/2-y,-z
1/2+x,1/2+y,-z
1/2-x,1/2+y,z
1/2+x,1/2-y,z
loop_
_atom_site_type_symbol
_atom_site_label
_atom_site_fract_x
_atom_site_fract_y
_atom_site_fract_z
Si Si1 0.785793 0.371623 0.112593
Si Si2 0.354583 0.768327 0.888139
Si Si3 0.941672 0.146471 0.387524
Si Si4 0.833336 0.857625 0.113185
Si Si5 0.868522 0.066849 0.724999
O O1 0.810749 0.311859 0.149579
O O2 0.725974 0.370723 0.137052
O O3 0.814688 0.422808 0.168666
O O4 0.796224 0.380703 0.000000
O O5 0.410810 0.794521 0.865638
O O6 0.348471 0.705017 0.842195
O O7 0.344911 0.758884 0.000000
O O8 0.938836 0.131975 0.500000
O O9 0.916529 0.092809 0.333122
O O10 0.000000 0.155290 0.352188
O O11 0.866993 0.904579 0.169059
O O12 0.845180 0.862857 0.000000
O O13 0.878260 0.000000 0.738504
#
# Coordination Sequence:
#
# PCOD8284727 Si02
#       5
#    32  32  32  32  32
#     4   9  18  32  52  78 106 137 173 216 266 316
#     4   8  15  31  54  80 108 133 164 212 266 318
#     4   9  19  37  61  86 107 127 157 208 277 338
#     4  10  20  34  52  74 105 146 182 210 250 305
#     4  11  23  36  50  74 108 142 182 226 258 293
#
# _framework density 19.057299
#
# number of rings (size 3 to 8) (size 9 to 14) (size 15 to 20)
#    0.000    2.600    0.000    3.000    0.000    9.600 
#    0.000    9.000    0.000    1.800    0.000    1.400 
#    0.000    0.000    0.000    0.000    0.000    0.000 
#
# Total GULP energy -495953.207631 kJ/mol
# GULP energy per Si atom -12398.830191 kJ/mol
# Density = 1.901392 g / cm^3
# Si number density = 19.057299 Si / 1000 Ang^3
#
#
#
# Elastic Constant Matrix: (Units=GPa)
#
#
# Indices 1 2 3 4 5 6 
#
# 1 93.6354 24.6696 34.8371 0.0000 0.0000 0.0000
# 2 24.6696 78.1976 36.4889 0.0000 0.0000 0.0000
# 3 34.8371 36.4889 49.3520 0.0000 0.0000 0.0000
# 4 0.0000 0.0000 0.0000 26.5879 0.0000 0.0000
# 5 0.0000 0.0000 0.0000 0.0000 23.4004 0.0000
# 6 0.0000 0.0000 0.0000 0.0000 0.0000 16.0677
#
#
#
# Elastic Compliance Matrix: (Units=1/GPa)
#
#
# Indices 1 2 3 4 5 6 
#
# 1 0.014488 0.000308 -0.010455 0.000000 0.000000 0.000000
# 2 0.000308 0.019530 -0.014657 0.000000 0.000000 0.000000
# 3 -0.010455 -0.014657 0.038479 0.000000 0.000000 0.000000
# 4 0.000000 0.000000 0.000000 0.037611 0.000000 0.000000
# 5 0.000000 0.000000 0.000000 0.000000 0.042734 0.000000
# 6 0.000000 0.000000 0.000000 0.000000 0.000000 0.062237
#
#
# Mechanical properties :
#
#
# Convention : Reuss Voigt Hill
#
# Bulk Modulus (GPa) = 43.68761 45.90847 44.79804
# Shear Modulus (GPa) = 18.36084 21.55715 19.95900
#
# Velocity S-wave (km/s) = 3.10732 3.36694 3.23974
# Velocity P-wave (km/s) = 5.98733 6.26555 6.12802
#
# Compressibility (1/GPa) = 0.02288978
#
# Stress axis : x y z
#
# Youngs Moduli (GPa) = 69.02112 51.20206 25.98797
#
# Poissons Ratio (x) = -0.01575 0.27169
# Poissons Ratio (y) = -0.02123 0.38091
# Poissons Ratio (z) = 0.72159 0.75048
#
# Static dielectric constant tensor:
#      x y z
#    x 3.556500 0.000000 0.000000 
#    y 0.000000 3.383510 0.000000 
#    z 0.000000 0.000000 3.475160 
# 
# 
# High freq. dielectric constant tensor:
#      x y z
#    x 1.722540 0.000000 0.000000 
#    y 0.000000 1.724290 0.000000 
#    z 0.000000 0.000000 1.749400 
# 
# From -- ./inp_files/17676.got.cif
#   From: 2010.03.12/outbox.cif.g09.slc.cpg/sg69_9_cif.got.tgz:17676.got - 2010.04.10 23:52:46.
