data_PCOD8284260
_publ_section_title
;
Structure prediction by ZEFSAII (Michael W. Deem and Ramdas Pophale) SiO2 
 PCOD8284260
Probable space group: F M M M
;
_chemical_formula_sum "Si O2"
_cell_formula_units_Z 144
_cell_length_a 33.319275
_cell_length_b 9.882572
_cell_length_c 26.712492
_cell_angle_alpha 90.000000
_cell_angle_beta 90.000000
_cell_angle_gamma 90.000000
_cell_volume 8795.892950
_symmetry_space_group_name_H-M "F M M M"
_symmetry_group_IT_number 69
_symmetry_cell_setting 'orthorhombic'
loop_
_space_group_symop_operation_xyz
x,y,z
-x,-y,z
x,-y,-z
-x,y,-z
-x,-y,-z
x,y,-z
-x,y,z
x,-y,z
x,1/2+y,1/2+z
-x,1/2-y,1/2+z
x,1/2-y,1/2-z
-x,1/2+y,1/2-z
-x,1/2-y,1/2-z
x,1/2+y,1/2-z
-x,1/2+y,1/2+z
x,1/2-y,1/2+z
1/2+x,y,1/2+z
1/2-x,-y,1/2+z
1/2+x,-y,1/2-z
1/2-x,y,1/2-z
1/2-x,-y,1/2-z
1/2+x,y,1/2-z
1/2-x,y,1/2+z
1/2+x,-y,1/2+z
1/2+x,1/2+y,z
1/2-x,1/2-y,z
1/2+x,1/2-y,-z
1/2-x,1/2+y,-z
1/2-x,1/2-y,-z
1/2+x,1/2+y,-z
1/2-x,1/2+y,z
1/2+x,1/2-y,z
loop_
_atom_site_type_symbol
_atom_site_label
_atom_site_fract_x
_atom_site_fract_y
_atom_site_fract_z
Si Si1 0.335980 0.269322 0.647757
Si Si2 0.500000 0.650627 0.295110
Si Si3 0.587345 0.340929 0.699825
Si Si4 0.786717 0.844183 0.443167
Si Si5 0.205507 0.500000 0.680674
Si Si6 0.792808 0.500000 0.201179
O O1 0.383733 0.280459 0.656781
O O2 0.325416 0.315249 0.591373
O O3 0.316488 0.365511 0.688738
O O4 0.318907 0.122773 0.658110
O O5 0.500000 0.500000 0.272430
O O6 0.500000 0.750000 0.250000
O O7 0.542247 0.673014 0.324191
O O8 0.596971 0.500000 0.711662
O O9 0.592141 0.250000 0.750000
O O10 0.799019 0.808074 0.500000
O O11 0.750000 0.750000 0.425177
O O12 0.773297 0.000000 0.438659
O O13 0.210842 0.500000 0.739836
O O14 0.252613 0.500000 0.666129
#
# Coordination Sequence:
#
# PCOD8284260 Si02
#       6
#    32  16  32  32  16  16
#     4  12  22  33  50  72  97 130 170 207 246 290
#     4   8  16  30  48  70  95 129 162 198 241 290
#     4  10  19  32  50  72 101 131 165 201 244 295
#     4  10  21  37  55  73  94 126 168 214 258 294
#     4  11  24  32  47  68 100 136 166 200 237 291
#     4  11  20  36  47  66  98 134 168 198 239 285
#
# _framework density 16.371278
#
# number of rings (size 3 to 8) (size 9 to 14) (size 15 to 20)
#    0.000    1.556    2.222    4.000    3.111    1.778 
#    0.000    0.000    0.000    0.000    0.000    0.778 
#    0.000    4.444    0.000    2.000    0.000    0.889 
#
# Total GULP energy -446080.451146 kJ/mol
# GULP energy per Si atom -12391.123643 kJ/mol
# Density = 1.633402 g / cm^3
# Si number density = 16.371278 Si / 1000 Ang^3
#
#
#
# Elastic Constant Matrix: (Units=GPa)
#
#
# Indices 1 2 3 4 5 6 
#
# 1 126.3806 30.1089 31.8822 0.0000 0.0000 0.0000
# 2 30.1089 93.4702 10.2320 0.0000 0.0000 0.0000
# 3 31.8822 10.2320 59.4256 0.0000 0.0000 0.0000
# 4 0.0000 0.0000 0.0000 24.0627 0.0000 0.0000
# 5 0.0000 0.0000 0.0000 0.0000 17.6750 0.0000
# 6 0.0000 0.0000 0.0000 0.0000 0.0000 15.8558
#
#
#
# Elastic Compliance Matrix: (Units=1/GPa)
#
#
# Indices 1 2 3 4 5 6 
#
# 1 0.009740 -0.002615 -0.004775 0.000000 0.000000 0.000000
# 2 -0.002615 0.011606 -0.000595 0.000000 0.000000 0.000000
# 3 -0.004775 -0.000595 0.019492 0.000000 0.000000 0.000000
# 4 0.000000 0.000000 0.000000 0.041558 0.000000 0.000000
# 5 0.000000 0.000000 0.000000 0.000000 0.056577 0.000000
# 6 0.000000 0.000000 0.000000 0.000000 0.000000 0.063068
#
#
# Mechanical properties :
#
#
# Convention : Reuss Voigt Hill
#
# Bulk Modulus (GPa) = 40.21368 47.08025 43.64696
# Shear Modulus (GPa) = 22.09429 25.32226 23.70827
#
# Velocity S-wave (km/s) = 3.67764 3.93714 3.80960
# Velocity P-wave (km/s) = 6.53072 7.03480 6.78744
#
# Compressibility (1/GPa) = 0.02486716
#
# Stress axis : x y z
#
# Youngs Moduli (GPa) = 102.66648 86.16176 51.30208
#
# Poissons Ratio (x) = 0.22530 0.24499
# Poissons Ratio (y) = 0.26845 0.03055
# Poissons Ratio (z) = 0.49028 0.05131
#
# Static dielectric constant tensor:
#      x y z
#    x 3.666610 0.000000 0.000000 
#    y 0.000000 2.110120 0.000000 
#    z 0.000000 0.000000 2.918340 
# 
# 
# High freq. dielectric constant tensor:
#      x y z
#    x 1.627100 0.000000 0.000000 
#    y 0.000000 1.652370 0.000000 
#    z 0.000000 0.000000 1.593650 
# 
# From -- ./inp_files/5671.got.cif
#   From: 2010.03.12/outbox.cif.g09.slc.cpg/sg69_3_cif.got.tgz:5671.got - 2010.04.10 23:52:46.
