data_PCOD8284419
_publ_section_title
;
Structure prediction by ZEFSAII (Michael W. Deem and Ramdas Pophale) SiO2 
 PCOD8284419
Probable space group: F M M M
;
_chemical_formula_sum "Si O2"
_cell_formula_units_Z 192
_cell_length_a 24.907142
_cell_length_b 15.470609
_cell_length_c 23.479580
_cell_angle_alpha 90.000000
_cell_angle_beta 90.000000
_cell_angle_gamma 90.000000
_cell_volume 9047.354986
_symmetry_space_group_name_H-M "F M M M"
_symmetry_group_IT_number 69
_symmetry_cell_setting 'orthorhombic'
loop_
_space_group_symop_operation_xyz
x,y,z
-x,-y,z
x,-y,-z
-x,y,-z
-x,-y,-z
x,y,-z
-x,y,z
x,-y,z
x,1/2+y,1/2+z
-x,1/2-y,1/2+z
x,1/2-y,1/2-z
-x,1/2+y,1/2-z
-x,1/2-y,1/2-z
x,1/2+y,1/2-z
-x,1/2+y,1/2+z
x,1/2-y,1/2+z
1/2+x,y,1/2+z
1/2-x,-y,1/2+z
1/2+x,-y,1/2-z
1/2-x,y,1/2-z
1/2-x,-y,1/2-z
1/2+x,y,1/2-z
1/2-x,y,1/2+z
1/2+x,-y,1/2+z
1/2+x,1/2+y,z
1/2-x,1/2-y,z
1/2+x,1/2-y,-z
1/2-x,1/2+y,-z
1/2-x,1/2-y,-z
1/2+x,1/2+y,-z
1/2-x,1/2+y,z
1/2+x,1/2-y,z
loop_
_atom_site_type_symbol
_atom_site_label
_atom_site_fract_x
_atom_site_fract_y
_atom_site_fract_z
Si Si1 0.690197 0.103347 0.064214
Si Si2 0.307469 0.848864 0.262998
Si Si3 0.616729 0.401342 0.664098
Si Si4 0.500000 0.727285 0.932792
Si Si5 0.302245 0.400201 0.887859
Si Si6 0.086100 0.095357 0.934762
Si Si7 0.000000 0.601530 0.866166
O O1 0.646366 0.142500 0.109104
O O2 0.747997 0.139724 0.085456
O O3 0.691440 0.000000 0.062740
O O4 0.677909 0.137764 0.000000
O O5 0.301888 0.750000 0.250000
O O6 0.250000 0.895041 0.250000
O O7 0.354944 0.886248 0.224320
O O8 0.321214 0.857881 0.328904
O O9 0.621499 0.500000 0.648243
O O10 0.553717 0.377100 0.670118
O O11 0.551129 0.673393 0.907703
O O12 0.500000 0.828585 0.916773
O O13 0.500000 0.728676 0.000000
O O14 0.291816 0.500000 0.875656
O O15 0.350878 0.382899 0.930935
O O16 0.074556 0.000000 0.906447
O O17 0.069652 0.088454 0.000000
O O18 0.000000 0.500000 0.887337
#
# Coordination Sequence:
#
# PCOD8284419 Si02
#       7
#    32  32  32  16  32  32  16
#     4   9  17  31  56  88 117 149 190 239 296 355
#     4  11  23  37  58  87 120 153 191 244 297 358
#     4  10  21  40  62  83 114 154 200 248 296 351
#     4  10  21  37  61  86 117 166 209 248 295 356
#     4  10  19  33  58  89 119 151 191 240 298 364
#     4   9  18  34  58  91 127 158 193 243 302 364
#     4  10  24  42  61  84 115 158 206 262 304 343
#
# _framework density 21.221672999999999
#
# number of rings (size 3 to 8) (size 9 to 14) (size 15 to 20)
#    0.000    2.167    1.667    1.250    2.333    4.500 
#    0.000    2.917    0.000    3.000    0.000    0.000 
#    0.000    0.000    0.000    0.000    0.000    0.000 
#
# Total GULP energy -594698.989891 kJ/mol
# GULP energy per Si atom -12389.562289 kJ/mol
# Density = 2.117337 g / cm^3
# Si number density = 21.221673 Si / 1000 Ang^3
#
#
#
# Elastic Constant Matrix: (Units=GPa)
#
#
# Indices 1 2 3 4 5 6 
#
# 1 170.3504 35.2610 42.7016 0.0000 0.0000 0.0000
# 2 35.2610 51.6572 4.5786 0.0000 0.0000 0.0000
# 3 42.7016 4.5786 96.4543 0.0000 0.0000 0.0000
# 4 0.0000 0.0000 0.0000 20.2333 0.0000 0.0000
# 5 0.0000 0.0000 0.0000 0.0000 29.0905 0.0000
# 6 0.0000 0.0000 0.0000 0.0000 0.0000 13.6931
#
#
#
# Elastic Compliance Matrix: (Units=1/GPa)
#
#
# Indices 1 2 3 4 5 6 
#
# 1 0.007694 -0.004971 -0.003170 0.000000 0.000000 0.000000
# 2 -0.004971 0.022652 0.001125 0.000000 0.000000 0.000000
# 3 -0.003170 0.001125 0.011718 0.000000 0.000000 0.000000
# 4 0.000000 0.000000 0.000000 0.049423 0.000000 0.000000
# 5 0.000000 0.000000 0.000000 0.000000 0.034375 0.000000
# 6 0.000000 0.000000 0.000000 0.000000 0.000000 0.073030
#
#
# Mechanical properties :
#
#
# Convention : Reuss Voigt Hill
#
# Bulk Modulus (GPa) = 35.67355 53.72715 44.70035
# Shear Modulus (GPa) = 22.49547 28.33142 25.41345
#
# Velocity S-wave (km/s) = 3.25933 3.65776 3.46428
# Velocity P-wave (km/s) = 5.56873 6.57351 6.09187
#
# Compressibility (1/GPa) = 0.02803198
#
# Stress axis : x y z
#
# Youngs Moduli (GPa) = 129.97405 44.14678 85.34115
#
# Poissons Ratio (x) = 0.21945 0.27055
# Poissons Ratio (y) = 0.64608 -0.09604
# Poissons Ratio (z) = 0.41205 -0.04968
#
# Static dielectric constant tensor:
#      x y z
#    x 4.828330 0.000000 0.000000 
#    y 0.000000 3.727920 0.000000 
#    z 0.000000 0.000000 3.176650 
# 
# 
# High freq. dielectric constant tensor:
#      x y z
#    x 1.840810 0.000000 0.000000 
#    y 0.000000 1.816290 0.000000 
#    z 0.000000 0.000000 1.806450 
# 
# From -- ./inp_files/43230.got.cif
#   From: 2010.03.12/outbox.cif.g09.slc.cpg/sg69_22_cif.got.tgz:43230.got - 2010.04.10 23:52:46.
