data_PCOD8284257
_publ_section_title
;
Structure prediction by ZEFSAII (Michael W. Deem and Ramdas Pophale) SiO2 
 PCOD8284257
Probable space group: F M M M
;
_chemical_formula_sum "Si O2"
_cell_formula_units_Z 208
_cell_length_a 17.823195
_cell_length_b 28.182925
_cell_length_c 24.702361
_cell_angle_alpha 90.000000
_cell_angle_beta 90.000000
_cell_angle_gamma 90.000000
_cell_volume 12408.237222
_symmetry_space_group_name_H-M "F M M M"
_symmetry_group_IT_number 69
_symmetry_cell_setting 'orthorhombic'
loop_
_space_group_symop_operation_xyz
x,y,z
-x,-y,z
x,-y,-z
-x,y,-z
-x,-y,-z
x,y,-z
-x,y,z
x,-y,z
x,1/2+y,1/2+z
-x,1/2-y,1/2+z
x,1/2-y,1/2-z
-x,1/2+y,1/2-z
-x,1/2-y,1/2-z
x,1/2+y,1/2-z
-x,1/2+y,1/2+z
x,1/2-y,1/2+z
1/2+x,y,1/2+z
1/2-x,-y,1/2+z
1/2+x,-y,1/2-z
1/2-x,y,1/2-z
1/2-x,-y,1/2-z
1/2+x,y,1/2-z
1/2-x,y,1/2+z
1/2+x,-y,1/2+z
1/2+x,1/2+y,z
1/2-x,1/2-y,z
1/2+x,1/2-y,-z
1/2-x,1/2+y,-z
1/2-x,1/2-y,-z
1/2+x,1/2+y,-z
1/2-x,1/2+y,z
1/2+x,1/2-y,z
loop_
_atom_site_type_symbol
_atom_site_label
_atom_site_fract_x
_atom_site_fract_y
_atom_site_fract_z
Si Si1 0.584786 0.306352 0.751208
Si Si2 0.344059 0.801741 0.140914
Si Si3 0.585617 0.374877 0.563746
Si Si4 0.355208 0.889654 0.435820
Si Si5 0.709982 0.552954 0.564076
Si Si6 0.000000 0.052764 0.064086
Si Si7 0.832670 0.692998 0.642382
O O1 0.500000 0.324930 0.757114
O O2 0.589034 0.250000 0.750000
O O3 0.618965 0.324281 0.694651
O O4 0.633146 0.326469 0.801253
O O5 0.379347 0.827867 0.089606
O O6 0.256174 0.809721 0.146002
O O7 0.362201 0.746267 0.132452
O O8 0.591466 0.367026 0.500000
O O9 0.500000 0.382920 0.582343
O O10 0.633557 0.420789 0.582041
O O11 0.354163 0.881009 0.500000
O O12 0.281467 0.917382 0.415121
O O13 0.426166 0.920014 0.416305
O O14 0.360857 0.838647 0.407463
O O15 0.714959 0.549051 0.500000
O O16 0.710440 0.500000 0.589415
O O17 0.000000 0.000000 0.089427
O O18 0.000000 0.049033 0.000000
#
# Coordination Sequence:
#
# PCOD8284257 Si02
#       7
#    32  32  32  32  32  16  32
#     4   9  18  32  50  71  96 127 167 211 248 285
#     4  10  19  34  50  71 101 137 168 203 248 293
#     4  10  20  33  49  73 104 134 169 207 248 305
#     4  10  19  32  49  75 107 135 166 203 249 303
#     4   9  17  31  51  72  97 129 165 208 254 296
#     4   9  18  32  50  72 101 136 170 208 251 294
#     4  10  20  31  51  74 101 132 170 208 240 293
#
# _framework density 16.763058000000001
#
# number of rings (size 3 to 8) (size 9 to 14) (size 15 to 20)
#    0.000    2.385    1.538    1.385    1.077    5.231 
#    0.000    3.077    0.000    0.000    0.000    3.231 
#    0.000    0.000    0.000    0.000    0.000    0.000 
#
# Total GULP energy -644784.924757 kJ/mol
# GULP energy per Si atom -12399.710091 kJ/mol
# Density = 1.672491 g / cm^3
# Si number density = 16.763058 Si / 1000 Ang^3
#
#
#
# Elastic Constant Matrix: (Units=GPa)
#
#
# Indices 1 2 3 4 5 6 
#
# 1 128.0123 52.8599 35.9756 0.0000 0.0000 0.0000
# 2 52.8599 101.2536 44.7036 0.0000 0.0000 0.0000
# 3 35.9756 44.7036 54.8481 0.0000 0.0000 0.0000
# 4 0.0000 0.0000 0.0000 5.0198 0.0000 0.0000
# 5 0.0000 0.0000 0.0000 0.0000 24.3695 0.0000
# 6 0.0000 0.0000 0.0000 0.0000 0.0000 24.8709
#
#
#
# Elastic Compliance Matrix: (Units=1/GPa)
#
#
# Indices 1 2 3 4 5 6 
#
# 1 0.010431 -0.003788 -0.003755 0.000000 0.000000 0.000000
# 2 -0.003788 0.016803 -0.011211 0.000000 0.000000 0.000000
# 3 -0.003755 -0.011211 0.029832 0.000000 0.000000 0.000000
# 4 0.000000 0.000000 0.000000 0.199211 0.000000 0.000000
# 5 0.000000 0.000000 0.000000 0.000000 0.041035 0.000000
# 6 0.000000 0.000000 0.000000 0.000000 0.000000 0.040208
#
#
# Mechanical properties :
#
#
# Convention : Reuss Voigt Hill
#
# Bulk Modulus (GPa) = 51.12514 61.24357 56.18436
# Shear Modulus (GPa) = 13.10454 20.89037 16.99746
#
# Velocity S-wave (km/s) = 2.79901 3.53401 3.18776
# Velocity P-wave (km/s) = 6.40397 7.29839 6.86576
#
# Compressibility (1/GPa) = 0.01955985
#
# Stress axis : x y z
#
# Youngs Moduli (GPa) = 95.86775 59.51203 33.52086
#
# Poissons Ratio (x) = 0.22543 0.12585
# Poissons Ratio (y) = 0.36314 0.37580
# Poissons Ratio (z) = 0.35994 0.66718
#
# Static dielectric constant tensor:
#      x y z
#    x 3.373840 0.000000 0.000000 
#    y 0.000000 3.144970 0.000000 
#    z 0.000000 0.000000 2.965350 
# 
# 
# High freq. dielectric constant tensor:
#      x y z
#    x 1.665050 0.000000 0.000000 
#    y 0.000000 1.628310 0.000000 
#    z 0.000000 0.000000 1.617240 
# 
# From -- ./inp_files/27908.got.cif
#   From: 2010.03.12/outbox.cif.g09.slc.cpg/sg69_14_cif.got.tgz:27908.got - 2010.04.10 23:52:46.
