data_PCOD8284924
_publ_section_title
;
Structure prediction by ZEFSAII (Michael W. Deem and Ramdas Pophale) SiO2 
 PCOD8284924
Probable space group: F M M M
;
_chemical_formula_sum "Si O2"
_cell_formula_units_Z 176
_cell_length_a 10.054852
_cell_length_b 38.230984
_cell_length_c 26.644451
_cell_angle_alpha 90.000000
_cell_angle_beta 90.000000
_cell_angle_gamma 90.000000
_cell_volume 10242.310436
_symmetry_space_group_name_H-M "F M M M"
_symmetry_group_IT_number 69
_symmetry_cell_setting 'orthorhombic'
loop_
_space_group_symop_operation_xyz
x,y,z
-x,-y,z
x,-y,-z
-x,y,-z
-x,-y,-z
x,y,-z
-x,y,z
x,-y,z
x,1/2+y,1/2+z
-x,1/2-y,1/2+z
x,1/2-y,1/2-z
-x,1/2+y,1/2-z
-x,1/2-y,1/2-z
x,1/2+y,1/2-z
-x,1/2+y,1/2+z
x,1/2-y,1/2+z
1/2+x,y,1/2+z
1/2-x,-y,1/2+z
1/2+x,-y,1/2-z
1/2-x,y,1/2-z
1/2-x,-y,1/2-z
1/2+x,y,1/2-z
1/2-x,y,1/2+z
1/2+x,-y,1/2+z
1/2+x,1/2+y,z
1/2-x,1/2-y,z
1/2+x,1/2-y,-z
1/2-x,1/2+y,-z
1/2-x,1/2-y,-z
1/2+x,1/2+y,-z
1/2-x,1/2+y,z
1/2+x,1/2-y,z
loop_
_atom_site_type_symbol
_atom_site_label
_atom_site_fract_x
_atom_site_fract_y
_atom_site_fract_z
Si Si1 0.156707 0.172180 0.097622
Si Si2 0.657618 0.283548 0.000000
Si Si3 0.856351 0.597843 0.287481
Si Si4 0.346540 0.593812 0.099291
Si Si5 0.146082 0.538502 0.058780
Si Si6 0.349618 0.819029 0.707630
O O1 0.198071 0.195216 0.049893
O O2 0.211825 0.132886 0.089732
O O3 0.204379 0.189512 0.150812
O O4 0.000000 0.168322 0.102795
O O5 0.750000 0.250000 0.000000
O O6 0.500000 0.274321 0.000000
O O7 0.750000 0.581114 0.250000
O O8 0.831413 0.583437 0.342762
O O9 0.850650 0.639516 0.287798
O O10 0.000000 0.585586 0.267899
O O11 0.500000 0.591099 0.081464
O O12 0.258464 0.566693 0.069495
O O13 0.185097 0.500000 0.080413
O O14 0.000000 0.549607 0.080284
O O15 0.134298 0.535512 0.000000
O O16 0.500000 0.804292 0.716198
O O17 0.250000 0.802904 0.750000
#
# Coordination Sequence:
#
# PCOD8284924 Si02
#       6
#    32  16  32  32  32  32
#     4   8  16  30  49  72  97 126 158 193 239 286
#     4  10  20  36  54  70  95 132 163 191 232 281
#     4   8  14  24  39  63  94 120 146 183 228 276
#     4   9  17  29  48  74  95 116 155 201 233 270
#     4   9  19  34  47  62  91 128 157 186 235 290
#     4   8  13  24  42  66  94 121 150 187 232 280
#
# _framework density 17.183623000000001
#
# number of rings (size 3 to 8) (size 9 to 14) (size 15 to 20)
#    0.000    3.455    0.000    2.727    1.273    1.455 
#    0.000    5.455    0.000    1.091    0.000    3.818 
#    0.000    0.000    0.000    0.000    0.000    0.000 
#
# Total GULP energy -545098.046448 kJ/mol
# GULP energy per Si atom -12388.591965 kJ/mol
# Density = 1.714451 g / cm^3
# Si number density = 17.183623 Si / 1000 Ang^3
#
#
#
# Elastic Constant Matrix: (Units=GPa)
#
#
# Indices 1 2 3 4 5 6 
#
# 1 84.3964 43.4141 53.7921 0.0000 0.0000 0.0000
# 2 43.4141 66.0700 41.4123 0.0000 0.0000 0.0000
# 3 53.7921 41.4123 109.5666 0.0000 0.0000 0.0000
# 4 0.0000 0.0000 0.0000 -0.0133 0.0000 0.0000
# 5 0.0000 0.0000 0.0000 0.0000 30.1537 0.0000
# 6 0.0000 0.0000 0.0000 0.0000 0.0000 12.4264
#
#
#
# Elastic Compliance Matrix: (Units=1/GPa)
#
#
# Indices 1 2 3 4 5 6 
#
# 1 0.021089 -0.009655 -0.006704 0.000000 0.000000 0.000000
# 2 -0.009655 0.024255 -0.004427 0.000000 0.000000 0.000000
# 3 -0.006704 -0.004427 0.014092 0.000000 0.000000 0.000000
# 4 0.000000 0.000000 0.000000-75.315794 0.000000 0.000000
# 5 0.000000 0.000000 0.000000 0.000000 0.033163 0.000000
# 6 0.000000 0.000000 0.000000 0.000000 0.000000 0.080474
#
#
# Mechanical properties :
#
#
# Convention : Reuss Voigt Hill
#
# Bulk Modulus (GPa) = 55.98496 59.69666 57.84081
# Shear Modulus (GPa) = -0.06658 16.60767 8.27054
#
# Velocity S-wave (km/s) = -0.19706 3.11220 2.19624
# Velocity P-wave (km/s) = 5.70959 6.90871 6.33757
#
# Compressibility (1/GPa) = 0.01786194
#
# Stress axis : x y z
#
# Youngs Moduli (GPa) = 47.41911 41.22924 70.96378
#
# Poissons Ratio (x) = 0.39807 0.47576
# Poissons Ratio (y) = 0.45783 0.31418
# Poissons Ratio (z) = 0.31791 0.18253
#
# Static dielectric constant tensor:
#      x y z
#    x 3.320250 0.000000 0.000000 
#    y 0.000000 2.874190 0.000000 
#    z 0.000000 0.000000 3.482840 
# 
# 
# High freq. dielectric constant tensor:
#      x y z
#    x 1.650420 0.000000 0.000000 
#    y 0.000000 1.623490 0.000000 
#    z 0.000000 0.000000 1.666460 
# 
# From -- ./inp_files/35264.got.cif
#   From: 2010.03.12/outbox.cif.g09.slc.cpg/sg69_18_cif.got.tgz:35264.got - 2010.04.10 23:52:46.
