data_PCOD8284485
_publ_section_title
;
Structure prediction by ZEFSAII (Michael W. Deem and Ramdas Pophale) SiO2 
 PCOD8284485
Probable space group: F M M M
;
_chemical_formula_sum "Si O2"
_cell_formula_units_Z 192
_cell_length_a 28.318476
_cell_length_b 16.342543
_cell_length_c 20.311013
_cell_angle_alpha 90.000000
_cell_angle_beta 90.000000
_cell_angle_gamma 90.000000
_cell_volume 9399.853779
_symmetry_space_group_name_H-M "F M M M"
_symmetry_group_IT_number 69
_symmetry_cell_setting 'orthorhombic'
loop_
_space_group_symop_operation_xyz
x,y,z
-x,-y,z
x,-y,-z
-x,y,-z
-x,-y,-z
x,y,-z
-x,y,z
x,-y,z
x,1/2+y,1/2+z
-x,1/2-y,1/2+z
x,1/2-y,1/2-z
-x,1/2+y,1/2-z
-x,1/2-y,1/2-z
x,1/2+y,1/2-z
-x,1/2+y,1/2+z
x,1/2-y,1/2+z
1/2+x,y,1/2+z
1/2-x,-y,1/2+z
1/2+x,-y,1/2-z
1/2-x,y,1/2-z
1/2-x,-y,1/2-z
1/2+x,y,1/2-z
1/2-x,y,1/2+z
1/2+x,-y,1/2+z
1/2+x,1/2+y,z
1/2-x,1/2-y,z
1/2+x,1/2-y,-z
1/2-x,1/2+y,-z
1/2-x,1/2-y,-z
1/2+x,1/2+y,-z
1/2-x,1/2+y,z
1/2+x,1/2-y,z
loop_
_atom_site_type_symbol
_atom_site_label
_atom_site_fract_x
_atom_site_fract_y
_atom_site_fract_z
Si Si1 0.207693 0.647708 0.000000
Si Si2 0.553794 0.664833 0.783909
Si Si3 0.301665 0.904152 0.751274
Si Si4 0.449562 0.406870 0.351678
Si Si5 0.866167 0.596477 0.370887
Si Si6 0.648959 0.904589 0.121992
Si Si7 0.684204 0.837710 0.500000
O O1 0.184691 0.607047 0.063193
O O2 0.263126 0.623204 0.000000
O O3 0.194481 0.742028 0.000000
O O4 0.500000 0.670075 0.809934
O O5 0.569319 0.750000 0.750000
O O6 0.559401 0.596383 0.727117
O O7 0.585901 0.640795 0.846737
O O8 0.250000 0.863444 0.750000
O O9 0.326385 0.885619 0.682801
O O10 0.330011 0.863424 0.811961
O O11 0.296958 0.000000 0.765118
O O12 0.500000 0.361807 0.368657
O O13 0.455104 0.500000 0.373177
O O14 0.404164 0.367223 0.389537
O O15 0.875273 0.500000 0.381333
O O16 0.846704 0.636258 0.437548
O O17 0.640899 0.000000 0.134977
#
# Coordination Sequence:
#
# PCOD8284485 Si02
#       7
#    16  32  32  32  32  32  16
#     4  11  25  43  58  81 120 166 206 254 320 375
#     4  10  21  36  60  93 125 157 195 244 310 371
#     4   9  17  30  53  85 113 138 185 248 300 354
#     4   9  17  32  56  88 121 148 183 234 291 357
#     4  11  22  39  62  88 119 162 211 260 310 363
#     4  10  19  34  59  88 114 151 194 240 305 374
#     4  11  27  43  58  81 118 168 214 258 314 370
#
# _framework density 20.425848999999999
#
# number of rings (size 3 to 8) (size 9 to 14) (size 15 to 20)
#    0.000    2.000    1.667    2.000    2.333    3.667 
#    0.000    0.833    0.000    7.000    0.000    0.000 
#    0.000    0.000    0.000    0.000    0.000    0.000 
#
# Total GULP energy -594784.624892 kJ/mol
# GULP energy per Si atom -12391.346352 kJ/mol
# Density = 2.037936 g / cm^3
# Si number density = 20.425849 Si / 1000 Ang^3
#
#
#
# Elastic Constant Matrix: (Units=GPa)
#
#
# Indices 1 2 3 4 5 6 
#
# 1 184.0103 27.7725 58.2406 0.0000 0.0000 0.0000
# 2 27.7725 45.4187 13.2140 0.0000 0.0000 0.0000
# 3 58.2406 13.2140 102.1695 0.0000 0.0000 0.0000
# 4 0.0000 0.0000 0.0000 38.1521 0.0000 0.0000
# 5 0.0000 0.0000 0.0000 0.0000 39.8250 0.0000
# 6 0.0000 0.0000 0.0000 0.0000 0.0000 22.4575
#
#
#
# Elastic Compliance Matrix: (Units=1/GPa)
#
#
# Indices 1 2 3 4 5 6 
#
# 1 0.007070 -0.003274 -0.003607 0.000000 0.000000 0.000000
# 2 -0.003274 0.024394 -0.001289 0.000000 0.000000 0.000000
# 3 -0.003607 -0.001289 0.012010 0.000000 0.000000 0.000000
# 4 0.000000 0.000000 0.000000 0.026211 0.000000 0.000000
# 5 0.000000 0.000000 0.000000 0.000000 0.025110 0.000000
# 6 0.000000 0.000000 0.000000 0.000000 0.000000 0.044529
#
#
# Mechanical properties :
#
#
# Convention : Reuss Voigt Hill
#
# Bulk Modulus (GPa) = 36.85173 58.89473 47.87323
# Shear Modulus (GPa) = 30.35667 35.57834 32.96751
#
# Velocity S-wave (km/s) = 3.85929 4.17805 4.02183
# Velocity P-wave (km/s) = 6.15953 7.22294 6.71232
#
# Compressibility (1/GPa) = 0.02713577
#
# Stress axis : x y z
#
# Youngs Moduli (GPa) = 141.43873 40.99335 83.26122
#
# Poissons Ratio (x) = 0.13421 0.30031
# Poissons Ratio (y) = 0.46305 0.10730
# Poissons Ratio (z) = 0.51015 0.05283
#
# Static dielectric constant tensor:
#      x y z
#    x 4.318540 0.000000 0.000000 
#    y 0.000000 3.480390 0.000000 
#    z 0.000000 0.000000 3.421990 
# 
# 
# High freq. dielectric constant tensor:
#      x y z
#    x 1.825600 0.000000 0.000000 
#    y 0.000000 1.773010 0.000000 
#    z 0.000000 0.000000 1.772170 
# 
# From -- ./inp_files/27809.got.cif
#   From: 2010.03.12/outbox.cif.g09.slc.cpg/sg69_14_cif.got.tgz:27809.got - 2010.04.10 23:52:46.
