data_PCOD8284444
_publ_section_title
;
Structure prediction by ZEFSAII (Michael W. Deem and Ramdas Pophale) SiO2 
 PCOD8284444
Probable space group: F M M M
;
_chemical_formula_sum "Si O2"
_cell_formula_units_Z 160
_cell_length_a 20.020190
_cell_length_b 21.135921
_cell_length_c 21.668129
_cell_angle_alpha 90.000000
_cell_angle_beta 90.000000
_cell_angle_gamma 90.000000
_cell_volume 9168.763788
_symmetry_space_group_name_H-M "F M M M"
_symmetry_group_IT_number 69
_symmetry_cell_setting 'orthorhombic'
loop_
_space_group_symop_operation_xyz
x,y,z
-x,-y,z
x,-y,-z
-x,y,-z
-x,-y,-z
x,y,-z
-x,y,z
x,-y,z
x,1/2+y,1/2+z
-x,1/2-y,1/2+z
x,1/2-y,1/2-z
-x,1/2+y,1/2-z
-x,1/2-y,1/2-z
x,1/2+y,1/2-z
-x,1/2+y,1/2+z
x,1/2-y,1/2+z
1/2+x,y,1/2+z
1/2-x,-y,1/2+z
1/2+x,-y,1/2-z
1/2-x,y,1/2-z
1/2-x,-y,1/2-z
1/2+x,y,1/2-z
1/2-x,y,1/2+z
1/2+x,-y,1/2+z
1/2+x,1/2+y,z
1/2-x,1/2-y,z
1/2+x,1/2-y,-z
1/2-x,1/2+y,-z
1/2-x,1/2-y,-z
1/2+x,1/2+y,-z
1/2-x,1/2+y,z
1/2+x,1/2-y,z
loop_
_atom_site_type_symbol
_atom_site_label
_atom_site_fract_x
_atom_site_fract_y
_atom_site_fract_z
Si Si1 0.750000 0.750000 0.147909
Si Si2 0.118902 0.070632 0.735682
Si Si3 0.627358 0.199698 0.069839
Si Si4 0.000000 0.267663 0.148409
Si Si5 0.923274 0.069721 0.403165
Si Si6 0.000000 0.351744 0.269659
Si Si7 0.250000 0.150261 0.750000
O O1 0.691558 0.774115 0.104389
O O2 0.773470 0.807330 0.192015
O O3 0.084231 0.067748 0.669786
O O4 0.188289 0.107211 0.730511
O O5 0.066527 0.106502 0.779692
O O6 0.131921 0.000000 0.761520
O O7 0.564158 0.225320 0.106146
O O8 0.625236 0.122813 0.068041
O O9 0.627909 0.225498 0.000000
O O10 0.000000 0.319363 0.202408
O O11 0.000000 0.198151 0.175825
O O12 0.000000 0.087168 0.419294
O O13 0.905329 0.000000 0.430280
#
# Coordination Sequence:
#
# PCOD8284444 Si02
#       7
#    16  32  32  16  32  16  16
#     4  11  23  38  52  78 107 145 182 218 282 315
#     4  11  19  32  53  81 109 136 171 216 272 324
#     4  12  22  37  54  76 109 144 187 225 262 321
#     4  11  21  34  54  80 103 140 180 210 269 312
#     4  10  19  34  55  80 111 140 177 222 272 327
#     4  11  19  34  56  77 110 137 167 218 261 330
#     4  11  21  36  56  76 109 137 178 226 266 335
#
# _framework density 17.450552999999999
#
# number of rings (size 3 to 8) (size 9 to 14) (size 15 to 20)
#    0.000    1.000    6.000    2.400    0.000    3.600 
#    0.000    1.000    0.000    0.000    0.000    0.000 
#    0.000   30.400    0.000    0.000    0.000    0.000 
#
# Total GULP energy -495964.954872 kJ/mol
# GULP energy per Si atom -12399.123872 kJ/mol
# Density = 1.741084 g / cm^3
# Si number density = 17.450553 Si / 1000 Ang^3
#
#
#
# Elastic Constant Matrix: (Units=GPa)
#
#
# Indices 1 2 3 4 5 6 
#
# 1 108.5084 59.0654 34.8136 0.0000 0.0000 0.0000
# 2 59.0654 132.5891 44.5853 0.0000 0.0000 0.0000
# 3 34.8136 44.5853 95.3162 0.0000 0.0000 0.0000
# 4 0.0000 0.0000 0.0000 8.3994 0.0000 0.0000
# 5 0.0000 0.0000 0.0000 0.0000 11.6536 0.0000
# 6 0.0000 0.0000 0.0000 0.0000 0.0000 20.3307
#
#
#
# Elastic Compliance Matrix: (Units=1/GPa)
#
#
# Indices 1 2 3 4 5 6 
#
# 1 0.012592 -0.004821 -0.002344 0.000000 0.000000 0.000000
# 2 -0.004821 0.010796 -0.003289 0.000000 0.000000 0.000000
# 3 -0.002344 -0.003289 0.012886 0.000000 0.000000 0.000000
# 4 0.000000 0.000000 0.000000 0.119056 0.000000 0.000000
# 5 0.000000 0.000000 0.000000 0.000000 0.085811 0.000000
# 6 0.000000 0.000000 0.000000 0.000000 0.000000 0.049187
#
#
# Mechanical properties :
#
#
# Convention : Reuss Voigt Hill
#
# Bulk Modulus (GPa) = 65.08062 68.14916 66.61489
# Shear Modulus (GPa) = 15.80488 21.27336 18.53912
#
# Velocity S-wave (km/s) = 3.01274 3.49530 3.26295
# Velocity P-wave (km/s) = 7.03402 7.44493 7.24239
#
# Compressibility (1/GPa) = 0.01536556
#
# Stress axis : x y z
#
# Youngs Moduli (GPa) = 79.41292 92.62789 77.60378
#
# Poissons Ratio (x) = 0.44660 0.18190
# Poissons Ratio (y) = 0.38288 0.25523
# Poissons Ratio (z) = 0.18615 0.30465
#
# Static dielectric constant tensor:
#      x y z
#    x 3.055410 0.000000 0.000000 
#    y 0.000000 3.654250 0.000000 
#    z 0.000000 0.000000 3.098080 
# 
# 
# High freq. dielectric constant tensor:
#      x y z
#    x 1.672780 0.000000 0.000000 
#    y 0.000000 1.687100 0.000000 
#    z 0.000000 0.000000 1.653890 
# 
# From -- ./inp_files/31052.got.cif
#   From: 2010.03.12/outbox.cif.g09.slc.cpg/sg69_16_cif.got.tgz:31052.got - 2010.04.10 23:52:46.
