data_PCOD8284346
_publ_section_title
;
Structure prediction by ZEFSAII (Michael W. Deem and Ramdas Pophale) SiO2 
 PCOD8284346
Probable space group: F M M M
;
_chemical_formula_sum "Si O2"
_cell_formula_units_Z 208
_cell_length_a 29.707017
_cell_length_b 18.057755
_cell_length_c 21.457925
_cell_angle_alpha 90.000000
_cell_angle_beta 90.000000
_cell_angle_gamma 90.000000
_cell_volume 11510.932949
_symmetry_space_group_name_H-M "F M M M"
_symmetry_group_IT_number 69
_symmetry_cell_setting 'orthorhombic'
loop_
_space_group_symop_operation_xyz
x,y,z
-x,-y,z
x,-y,-z
-x,y,-z
-x,-y,-z
x,y,-z
-x,y,z
x,-y,z
x,1/2+y,1/2+z
-x,1/2-y,1/2+z
x,1/2-y,1/2-z
-x,1/2+y,1/2-z
-x,1/2-y,1/2-z
x,1/2+y,1/2-z
-x,1/2+y,1/2+z
x,1/2-y,1/2+z
1/2+x,y,1/2+z
1/2-x,-y,1/2+z
1/2+x,-y,1/2-z
1/2-x,y,1/2-z
1/2-x,-y,1/2-z
1/2+x,y,1/2-z
1/2-x,y,1/2+z
1/2+x,-y,1/2+z
1/2+x,1/2+y,z
1/2-x,1/2-y,z
1/2+x,1/2-y,-z
1/2-x,1/2+y,-z
1/2-x,1/2-y,-z
1/2+x,1/2+y,-z
1/2-x,1/2+y,z
1/2+x,1/2-y,z
loop_
_atom_site_type_symbol
_atom_site_label
_atom_site_fract_x
_atom_site_fract_y
_atom_site_fract_z
Si Si1 0.230975 0.417732 0.929711
Si Si2 0.796394 0.280358 0.855995
Si Si3 0.175515 0.355848 0.429864
Si Si4 0.394244 0.210660 0.188194
Si Si5 0.915187 0.351875 0.625299
Si Si6 0.552172 0.586362 0.255618
Si Si7 0.051327 0.581181 0.500000
O O1 0.214865 0.500000 0.912242
O O2 0.208187 0.362876 0.881595
O O3 0.285061 0.415581 0.924369
O O4 0.216350 0.397173 0.000000
O O5 0.750000 0.250000 0.822490
O O6 0.804958 0.225238 0.913675
O O7 0.839620 0.287851 0.811145
O O8 0.155442 0.353553 0.500000
O O9 0.136638 0.378850 0.381464
O O10 0.411445 0.250000 0.250000
O O11 0.414406 0.261561 0.132374
O O12 0.416692 0.129086 0.192939
O O13 0.936415 0.393103 0.684229
O O14 0.940137 0.371107 0.561811
O O15 0.500000 0.605744 0.268038
O O16 0.561686 0.500000 0.265588
O O17 0.076705 0.500000 0.500000
O O18 0.000000 0.561455 0.500000
#
# Coordination Sequence:
#
# PCOD8284346 Si02
#       7
#    32  32  32  32  32  32  16
#     4   9  17  27  42  69 100 131 166 202 243 296
#     4   9  17  30  49  70  97 131 166 211 256 301
#     4   9  16  29  46  67  97 135 169 196 240 304
#     4   9  20  35  54  76  96 130 179 218 255 305
#     4  10  19  33  51  75 102 134 168 206 249 307
#     4  10  21  37  55  75 101 134 175 224 271 309
#     4  11  22  32  46  74 108 135 155 187 249 314
#
# _framework density 18.069779
#
# number of rings (size 3 to 8) (size 9 to 14) (size 15 to 20)
#    0.000    2.538    0.769    1.385    0.000    8.615 
#    0.000    0.000    0.000    0.000    0.000    8.615 
#    0.000    1.846    0.000    0.000    0.000    0.000 
#
# Total GULP energy -644262.124530 kJ/mol
# GULP energy per Si atom -12389.656241 kJ/mol
# Density = 1.802865 g / cm^3
# Si number density = 18.069779 Si / 1000 Ang^3
#
#
#
# Elastic Constant Matrix: (Units=GPa)
#
#
# Indices 1 2 3 4 5 6 
#
# 1 88.8964 44.9644 27.0627 0.0000 0.0000 0.0000
# 2 44.9644 102.8927 40.5160 0.0000 0.0000 0.0000
# 3 27.0627 40.5160 64.9289 0.0000 0.0000 0.0000
# 4 0.0000 0.0000 0.0000 54.2945 0.0000 0.0000
# 5 0.0000 0.0000 0.0000 0.0000 23.1527 0.0000
# 6 0.0000 0.0000 0.0000 0.0000 0.0000 23.7005
#
#
#
# Elastic Compliance Matrix: (Units=1/GPa)
#
#
# Indices 1 2 3 4 5 6 
#
# 1 0.014824 -0.005363 -0.002832 0.000000 0.000000 0.000000
# 2 -0.005363 0.014825 -0.007016 0.000000 0.000000 0.000000
# 3 -0.002832 -0.007016 0.020960 0.000000 0.000000 0.000000
# 4 0.000000 0.000000 0.000000 0.018418 0.000000 0.000000
# 5 0.000000 0.000000 0.000000 0.000000 0.043191 0.000000
# 6 0.000000 0.000000 0.000000 0.000000 0.000000 0.042193
#
#
# Mechanical properties :
#
#
# Convention : Reuss Voigt Hill
#
# Bulk Modulus (GPa) = 49.53631 53.53380 51.53506
# Shear Modulus (GPa) = 26.10126 29.84120 27.97123
#
# Velocity S-wave (km/s) = 3.80474 4.06820 3.93868
# Velocity P-wave (km/s) = 6.83921 7.19427 7.01899
#
# Compressibility (1/GPa) = 0.02018721
#
# Stress axis : x y z
#
# Youngs Moduli (GPa) = 67.45900 67.45380 47.71056
#
# Poissons Ratio (x) = 0.36174 0.13513
# Poissons Ratio (y) = 0.36177 0.33472
# Poissons Ratio (z) = 0.19106 0.47323
#
# Static dielectric constant tensor:
#      x y z
#    x 3.404650 0.000000 0.000000 
#    y 0.000000 3.430840 0.000000 
#    z 0.000000 0.000000 3.169240 
# 
# 
# High freq. dielectric constant tensor:
#      x y z
#    x 1.700770 0.000000 0.000000 
#    y 0.000000 1.699100 0.000000 
#    z 0.000000 0.000000 1.674070 
# 
# From -- ./inp_files/33988.got.cif
#   From: 2010.03.12/outbox.cif.g09.slc.cpg/sg69_17_cif.got.tgz:33988.got - 2010.04.10 23:52:46.
