data_PCOD8284414
_publ_section_title
;
Structure prediction by ZEFSAII (Michael W. Deem and Ramdas Pophale) SiO2 
 PCOD8284414
Probable space group: F M M M
;
_chemical_formula_sum "Si O2"
_cell_formula_units_Z 128
_cell_length_a 23.703991
_cell_length_b 15.613867
_cell_length_c 17.546480
_cell_angle_alpha 90.000000
_cell_angle_beta 90.000000
_cell_angle_gamma 90.000000
_cell_volume 6494.144607
_symmetry_space_group_name_H-M "F M M M"
_symmetry_group_IT_number 69
_symmetry_cell_setting 'orthorhombic'
loop_
_space_group_symop_operation_xyz
x,y,z
-x,-y,z
x,-y,-z
-x,y,-z
-x,-y,-z
x,y,-z
-x,y,z
x,-y,z
x,1/2+y,1/2+z
-x,1/2-y,1/2+z
x,1/2-y,1/2-z
-x,1/2+y,1/2-z
-x,1/2-y,1/2-z
x,1/2+y,1/2-z
-x,1/2+y,1/2+z
x,1/2-y,1/2+z
1/2+x,y,1/2+z
1/2-x,-y,1/2+z
1/2+x,-y,1/2-z
1/2-x,y,1/2-z
1/2-x,-y,1/2-z
1/2+x,y,1/2-z
1/2-x,y,1/2+z
1/2+x,-y,1/2+z
1/2+x,1/2+y,z
1/2-x,1/2-y,z
1/2+x,1/2-y,-z
1/2-x,1/2+y,-z
1/2-x,1/2-y,-z
1/2+x,1/2+y,-z
1/2-x,1/2+y,z
1/2+x,1/2-y,z
loop_
_atom_site_type_symbol
_atom_site_label
_atom_site_fract_x
_atom_site_fract_y
_atom_site_fract_z
Si Si1 0.807819 0.500000 0.409163
Si Si2 0.682003 0.000000 0.909752
Si Si3 0.614355 0.151407 0.412892
Si Si4 0.500000 0.167599 0.193999
Si Si5 0.500000 0.904996 0.655662
Si Si6 0.392152 0.841048 0.087946
O O1 0.804289 0.500000 0.500000
O O2 0.744883 0.500000 0.374236
O O3 0.840447 0.415568 0.378662
O O4 0.649986 0.085544 0.881974
O O5 0.686324 0.000000 0.000000
O O6 0.602545 0.126971 0.500000
O O7 0.554774 0.147049 0.370469
O O8 0.638259 0.248131 0.404979
O O9 0.500000 0.250000 0.250000
O O10 0.500000 0.088063 0.252558
O O11 0.553468 0.159862 0.140207
O O12 0.500000 0.000000 0.620163
O O13 0.409768 0.858272 0.000000
#
# Coordination Sequence:
#
# PCOD8284414 Si02
#       6
#    16  16  32  16  16  32
#     4   9  18  33  55  86 114 141 188 237 276 321
#     4   9  20  37  57  82 110 147 196 237 264 313
#     4  10  19  33  57  86 116 146 180 228 282 337
#     4  12  23  37  56  85 113 147 179 231 273 340
#     4  12  23  34  53  86 116 149 180 224 288 346
#     4  10  21  38  58  82 113 148 184 226 277 329
#
# _framework density 19.710063000000002
#
# number of rings (size 3 to 8) (size 9 to 14) (size 15 to 20)
#    0.000    1.750    3.750    0.750    1.750    3.500 
#    0.000    6.875    0.000    3.000    0.000    0.000 
#    0.000    0.000    0.000    0.000    0.000    0.000 
#
# Total GULP energy -396684.113204 kJ/mol
# GULP energy per Si atom -12396.378538 kJ/mol
# Density = 1.966520 g / cm^3
# Si number density = 19.710063 Si / 1000 Ang^3
#
#
#
# Elastic Constant Matrix: (Units=GPa)
#
#
# Indices 1 2 3 4 5 6 
#
# 1 168.7492 85.0595 44.1291 0.0000 0.0000 0.0000
# 2 85.0595 165.7182 29.0177 0.0000 0.0000 0.0000
# 3 44.1291 29.0177 59.3305 0.0000 0.0000 0.0000
# 4 0.0000 0.0000 0.0000 20.4021 0.0000 0.0000
# 5 0.0000 0.0000 0.0000 0.0000 -14.7541 0.0000
# 6 0.0000 0.0000 0.0000 0.0000 0.0000 18.4052
#
#
#
# Elastic Compliance Matrix: (Units=1/GPa)
#
#
# Indices 1 2 3 4 5 6 
#
# 1 0.009146 -0.003831 -0.004929 0.000000 0.000000 0.000000
# 2 -0.003831 0.008205 -0.001163 0.000000 0.000000 0.000000
# 3 -0.004929 -0.001163 0.021090 0.000000 0.000000 0.000000
# 4 0.000000 0.000000 0.000000 0.049015 0.000000 0.000000
# 5 0.000000 0.000000 0.000000 0.000000 -0.067778 0.000000
# 6 0.000000 0.000000 0.000000 0.000000 0.000000 0.054332
#
#
# Mechanical properties :
#
#
# Convention : Reuss Voigt Hill
#
# Bulk Modulus (GPa) = 53.78164 78.91229 66.34697
# Shear Modulus (GPa) = 49.97296 20.51675 35.24486
#
# Velocity S-wave (km/s) = 5.04074 3.22984 4.23326
# Velocity P-wave (km/s) = 7.82460 7.35069 7.59134
#
# Compressibility (1/GPa) = 0.01859370
#
# Stress axis : x y z
#
# Youngs Moduli (GPa) = 109.33530 121.88304 47.41691
#
# Poissons Ratio (x) = 0.46699 0.23371
# Poissons Ratio (y) = 0.41892 0.05514
# Poissons Ratio (z) = 0.53890 0.14174
#
# Static dielectric constant tensor:
#      x y z
#    x 3.588320 0.000000 0.000000 
#    y 0.000000 3.991740 0.000000 
#    z 0.000000 0.000000 3.462250 
# 
# 
# High freq. dielectric constant tensor:
#      x y z
#    x 1.752610 0.000000 0.000000 
#    y 0.000000 1.788840 0.000000 
#    z 0.000000 0.000000 1.740190 
# 
# From -- ./inp_files/31658.got.cif
#   From: 2010.03.12/outbox.cif.g09.slc.cpg/sg69_16_cif.got.tgz:31658.got - 2010.04.10 23:52:46.
