data_PCOD8284823
_publ_section_title
;
Structure prediction by ZEFSAII (Michael W. Deem and Ramdas Pophale) SiO2 
 PCOD8284823
Probable space group: F M M M
;
_chemical_formula_sum "Si O2"
_cell_formula_units_Z 192
_cell_length_a 23.686396
_cell_length_b 23.424173
_cell_length_c 17.783728
_cell_angle_alpha 90.000000
_cell_angle_beta 90.000000
_cell_angle_gamma 90.000000
_cell_volume 9867.021167
_symmetry_space_group_name_H-M "F M M M"
_symmetry_group_IT_number 69
_symmetry_cell_setting 'orthorhombic'
loop_
_space_group_symop_operation_xyz
x,y,z
-x,-y,z
x,-y,-z
-x,y,-z
-x,-y,-z
x,y,-z
-x,y,z
x,-y,z
x,1/2+y,1/2+z
-x,1/2-y,1/2+z
x,1/2-y,1/2-z
-x,1/2+y,1/2-z
-x,1/2-y,1/2-z
x,1/2+y,1/2-z
-x,1/2+y,1/2+z
x,1/2-y,1/2+z
1/2+x,y,1/2+z
1/2-x,-y,1/2+z
1/2+x,-y,1/2-z
1/2-x,y,1/2-z
1/2-x,-y,1/2-z
1/2+x,y,1/2-z
1/2-x,y,1/2+z
1/2+x,-y,1/2+z
1/2+x,1/2+y,z
1/2-x,1/2-y,z
1/2+x,1/2-y,-z
1/2-x,1/2+y,-z
1/2-x,1/2-y,-z
1/2+x,1/2+y,-z
1/2-x,1/2+y,z
1/2+x,1/2-y,z
loop_
_atom_site_type_symbol
_atom_site_label
_atom_site_fract_x
_atom_site_fract_y
_atom_site_fract_z
Si Si1 0.935099 0.933128 0.685858
Si Si2 0.735833 0.338593 0.088493
Si Si3 0.371725 0.725638 0.912901
Si Si4 0.435278 0.375293 0.154476
Si Si5 0.639482 0.147666 0.912670
Si Si6 0.660157 0.438698 0.912670
O O1 0.926075 0.897179 0.761246
O O2 0.894303 0.903991 0.625074
O O3 0.000000 0.928349 0.658797
O O4 0.918810 0.000000 0.696410
O O5 0.695862 0.283209 0.105591
O O6 0.798308 0.341819 0.124073
O O7 0.702419 0.392740 0.123123
O O8 0.744496 0.343021 0.000000
O O9 0.409839 0.688100 0.856945
O O10 0.390887 0.791035 0.901549
O O11 0.381399 0.706448 0.000000
O O12 0.500000 0.374384 0.131028
O O13 0.404226 0.419433 0.099586
O O14 0.643123 0.131351 0.000000
O O15 0.670679 0.500000 0.873867
O O16 0.671973 0.443498 0.000000
#
# Coordination Sequence:
#
# PCOD8284823 Si02
#       6
#    32  32  32  32  32  32
#     4  10  23  41  56  73 101 138 182 228 267 305
#     4   8  15  30  52  78 108 138 167 206 258 312
#     4   9  18  33  55  85 115 137 165 210 258 309
#     4  10  20  35  54  73 101 142 178 210 258 316
#     4  10  20  35  58  82 103 136 178 216 262 317
#     4   9  17  29  48  77 109 137 170 214 257 301
#
# _framework density 19.458760000000002
#
# number of rings (size 3 to 8) (size 9 to 14) (size 15 to 20)
#    0.000    2.667    0.000    2.500    0.000    7.000 
#    0.000   10.000    0.000    9.000    0.000    0.000 
#    0.000    0.000    0.000    0.000    0.000    0.000 
#
# Total GULP energy -594724.038613 kJ/mol
# GULP energy per Si atom -12390.084138 kJ/mol
# Density = 1.941447 g / cm^3
# Si number density = 19.458760 Si / 1000 Ang^3
#
#
#
# Elastic Constant Matrix: (Units=GPa)
#
#
# Indices 1 2 3 4 5 6 
#
# 1 91.3930 48.3159 32.6198 0.0000 0.0000 0.0000
# 2 48.3159 100.5065 38.6962 0.0000 0.0000 0.0000
# 3 32.6198 38.6962 39.4966 0.0000 0.0000 0.0000
# 4 0.0000 0.0000 0.0000 27.5627 0.0000 0.0000
# 5 0.0000 0.0000 0.0000 0.0000 12.8767 0.0000
# 6 0.0000 0.0000 0.0000 0.0000 0.0000 19.1414
#
#
#
# Elastic Compliance Matrix: (Units=1/GPa)
#
#
# Indices 1 2 3 4 5 6 
#
# 1 0.016617 -0.004342 -0.009470 0.000000 0.000000 0.000000
# 2 -0.004342 0.017111 -0.013178 0.000000 0.000000 0.000000
# 3 -0.009470 -0.013178 0.046050 0.000000 0.000000 0.000000
# 4 0.000000 0.000000 0.000000 0.036281 0.000000 0.000000
# 5 0.000000 0.000000 0.000000 0.000000 0.077660 0.000000
# 6 0.000000 0.000000 0.000000 0.000000 0.000000 0.052243
#
#
# Mechanical properties :
#
#
# Convention : Reuss Voigt Hill
#
# Bulk Modulus (GPa) = 38.76152 52.29555 45.52854
# Shear Modulus (GPa) = 16.20535 19.36711 17.78623
#
# Velocity S-wave (km/s) = 2.88897 3.15824 3.02660
# Velocity P-wave (km/s) = 5.57595 6.34293 5.97177
#
# Compressibility (1/GPa) = 0.02579878
#
# Stress axis : x y z
#
# Youngs Moduli (GPa) = 60.17830 58.44328 21.71550
#
# Poissons Ratio (x) = 0.25378 0.20564
# Poissons Ratio (y) = 0.26132 0.28616
# Poissons Ratio (z) = 0.56987 0.77014
#
# Static dielectric constant tensor:
#      x y z
#    x 3.668230 0.000000 0.000000 
#    y 0.000000 3.866860 0.000000 
#    z 0.000000 0.000000 3.130040 
# 
# 
# High freq. dielectric constant tensor:
#      x y z
#    x 1.756220 0.000000 0.000000 
#    y 0.000000 1.770000 0.000000 
#    z 0.000000 0.000000 1.714640 
# 
# From -- ./inp_files/32037.got.cif
#   From: 2010.03.12/outbox.cif.g09.slc.cpg/sg69_17_cif.got.tgz:32037.got - 2010.04.10 23:52:46.
