data_PCOD8284037
_publ_section_title
;
Structure prediction by ZEFSAII (Michael W. Deem and Ramdas Pophale) SiO2 
 PCOD8284037
Probable space group: F M M M
;
_chemical_formula_sum "Si O2"
_cell_formula_units_Z 144
_cell_length_a 24.708363
_cell_length_b 18.923876
_cell_length_c 17.258277
_cell_angle_alpha 90.000000
_cell_angle_beta 90.000000
_cell_angle_gamma 90.000000
_cell_volume 8069.590601
_symmetry_space_group_name_H-M "F M M M"
_symmetry_group_IT_number 69
_symmetry_cell_setting 'orthorhombic'
loop_
_space_group_symop_operation_xyz
x,y,z
-x,-y,z
x,-y,-z
-x,y,-z
-x,-y,-z
x,y,-z
-x,y,z
x,-y,z
x,1/2+y,1/2+z
-x,1/2-y,1/2+z
x,1/2-y,1/2-z
-x,1/2+y,1/2-z
-x,1/2-y,1/2-z
x,1/2+y,1/2-z
-x,1/2+y,1/2+z
x,1/2-y,1/2+z
1/2+x,y,1/2+z
1/2-x,-y,1/2+z
1/2+x,-y,1/2-z
1/2-x,y,1/2-z
1/2-x,-y,1/2-z
1/2+x,y,1/2-z
1/2-x,y,1/2+z
1/2+x,-y,1/2+z
1/2+x,1/2+y,z
1/2-x,1/2-y,z
1/2+x,1/2-y,-z
1/2-x,1/2+y,-z
1/2-x,1/2-y,-z
1/2+x,1/2+y,-z
1/2-x,1/2+y,z
1/2+x,1/2-y,z
loop_
_atom_site_type_symbol
_atom_site_label
_atom_site_fract_x
_atom_site_fract_y
_atom_site_fract_z
Si Si1 0.408924 0.343368 0.816047
Si Si2 0.939336 0.194186 0.350716
Si Si3 0.000000 0.583229 0.588209
Si Si4 0.869067 0.579522 0.085491
Si Si5 0.810856 0.917716 0.741861
O O1 0.402485 0.264914 0.852662
O O2 0.440313 0.339180 0.734784
O O3 0.444736 0.391026 0.872207
O O4 0.349490 0.376276 0.801879
O O5 0.917801 0.135553 0.410237
O O6 0.000000 0.215528 0.375049
O O7 0.000000 0.500000 0.593335
O O8 0.000000 0.610277 0.500000
O O9 0.892085 0.500000 0.097586
O O10 0.825997 0.597083 0.152347
O O11 0.842060 0.585985 0.000000
O O12 0.750000 0.889166 0.750000
O O13 0.814834 0.000000 0.763193
#
# Coordination Sequence:
#
# PCOD8284037 Si02
#       5
#    32  32  16  32  32
#     4  10  18  35  52  73 106 136 173 221 259 307
#     4  10  18  32  53  77 102 138 175 202 255 330
#     4  11  22  33  48  72 102 139 180 219 262 306
#     4   9  19  34  51  77 109 134 167 219 272 322
#     4   9  18  34  58  82 102 137 184 221 265 320
#
# _framework density 17.844771000000001
#
# number of rings (size 3 to 8) (size 9 to 14) (size 15 to 20)
#    0.000    2.333    2.222    1.333    0.000    2.667 
#    0.000   11.111    0.000    5.333    0.000    0.000 
#    0.000    0.000    0.000    0.000    0.000    0.000 
#
# Total GULP energy -446286.001680 kJ/mol
# GULP energy per Si atom -12396.833380 kJ/mol
# Density = 1.780416 g / cm^3
# Si number density = 17.844771 Si / 1000 Ang^3
#
#
#
# Elastic Constant Matrix: (Units=GPa)
#
#
# Indices 1 2 3 4 5 6 
#
# 1 142.5807 61.3110 48.5713 0.0000 0.0000 0.0000
# 2 61.3110 93.8299 47.7611 0.0000 0.0000 0.0000
# 3 48.5713 47.7611 93.4295 0.0000 0.0000 0.0000
# 4 0.0000 0.0000 0.0000 22.5687 0.0000 0.0000
# 5 0.0000 0.0000 0.0000 0.0000 16.8344 0.0000
# 6 0.0000 0.0000 0.0000 0.0000 0.0000 27.4312
#
#
#
# Elastic Compliance Matrix: (Units=1/GPa)
#
#
# Indices 1 2 3 4 5 6 
#
# 1 0.010188 -0.005354 -0.002559 0.000000 0.000000 0.000000
# 2 -0.005354 0.017220 -0.006019 0.000000 0.000000 0.000000
# 3 -0.002559 -0.006019 0.015111 0.000000 0.000000 0.000000
# 4 0.000000 0.000000 0.000000 0.044309 0.000000 0.000000
# 5 0.000000 0.000000 0.000000 0.000000 0.059402 0.000000
# 6 0.000000 0.000000 0.000000 0.000000 0.000000 0.036455
#
#
# Mechanical properties :
#
#
# Convention : Reuss Voigt Hill
#
# Bulk Modulus (GPa) = 68.24550 71.68076 69.96313
# Shear Modulus (GPa) = 23.20882 24.84663 24.02773
#
# Velocity S-wave (km/s) = 3.61029 3.73550 3.67343
# Velocity P-wave (km/s) = 7.46364 7.67213 7.56860
#
# Compressibility (1/GPa) = 0.01465298
#
# Stress axis : x y z
#
# Youngs Moduli (GPa) = 98.15680 58.07134 66.17758
#
# Poissons Ratio (x) = 0.31093 0.16936
# Poissons Ratio (y) = 0.52556 0.39835
# Poissons Ratio (z) = 0.25121 0.34956
#
# Static dielectric constant tensor:
#      x y z
#    x 3.182450 0.000000 0.000000 
#    y 0.000000 3.445430 0.000000 
#    z 0.000000 0.000000 3.304160 
# 
# 
# High freq. dielectric constant tensor:
#      x y z
#    x 1.664010 0.000000 0.000000 
#    y 0.000000 1.702040 0.000000 
#    z 0.000000 0.000000 1.681280 
# 
# From -- ./inp_files/23019.got.cif
#   From: 2010.03.12/outbox.cif.g09.slc.cpg/sg69_12_cif.got.tgz:23019.got - 2010.04.10 23:52:46.
