data_PCOD8284762
_publ_section_title
;
Structure prediction by ZEFSAII (Michael W. Deem and Ramdas Pophale) SiO2 
 PCOD8284762
Probable space group: F M M M
;
_chemical_formula_sum "Si O2"
_cell_formula_units_Z 192
_cell_length_a 25.526515
_cell_length_b 16.813831
_cell_length_c 23.841161
_cell_angle_alpha 90.000000
_cell_angle_beta 90.000000
_cell_angle_gamma 90.000000
_cell_volume 10232.590759
_symmetry_space_group_name_H-M "F M M M"
_symmetry_group_IT_number 69
_symmetry_cell_setting 'orthorhombic'
loop_
_space_group_symop_operation_xyz
x,y,z
-x,-y,z
x,-y,-z
-x,y,-z
-x,-y,-z
x,y,-z
-x,y,z
x,-y,z
x,1/2+y,1/2+z
-x,1/2-y,1/2+z
x,1/2-y,1/2-z
-x,1/2+y,1/2-z
-x,1/2-y,1/2-z
x,1/2+y,1/2-z
-x,1/2+y,1/2+z
x,1/2-y,1/2+z
1/2+x,y,1/2+z
1/2-x,-y,1/2+z
1/2+x,-y,1/2-z
1/2-x,y,1/2-z
1/2-x,-y,1/2-z
1/2+x,y,1/2-z
1/2-x,y,1/2+z
1/2+x,-y,1/2+z
1/2+x,1/2+y,z
1/2-x,1/2-y,z
1/2+x,1/2-y,-z
1/2-x,1/2+y,-z
1/2-x,1/2-y,-z
1/2+x,1/2+y,-z
1/2-x,1/2+y,z
1/2+x,1/2-y,z
loop_
_atom_site_type_symbol
_atom_site_label
_atom_site_fract_x
_atom_site_fract_y
_atom_site_fract_z
Si Si1 0.160240 0.907087 0.000000
Si Si2 0.878224 0.173066 0.715049
Si Si3 0.060587 0.590065 0.688810
Si Si4 0.790346 0.814933 0.098079
Si Si5 0.095492 0.768355 0.117376
Si Si6 0.727144 0.089798 0.811598
Si Si7 0.939990 0.299429 0.500000
O O1 0.194164 0.880785 0.947007
O O2 0.101603 0.871202 0.000000
O O3 0.153025 0.000000 0.000000
O O4 0.858865 0.250000 0.750000
O O5 0.908602 0.112905 0.755149
O O6 0.917770 0.202261 0.664876
O O7 0.830063 0.127644 0.687279
O O8 0.075482 0.500000 0.672008
O O9 0.074918 0.644671 0.635670
O O10 0.000000 0.599077 0.703065
O O11 0.750000 0.750000 0.072997
O O12 0.841748 0.767283 0.116271
O O13 0.766359 0.858808 0.151296
O O14 0.070475 0.747335 0.056540
O O15 0.750000 0.090453 0.750000
O O16 0.723704 0.000000 0.835058
O O17 0.000000 0.330210 0.500000
#
# Coordination Sequence:
#
# PCOD8284762 Si02
#       7
#    16  32  32  32  32  32  16
#     4  10  23  40  58  83 112 145 189 230 276 337
#     4  10  20  34  54  78 109 147 189 233 277 333
#     4  10  21  36  55  81 114 149 186 232 287 341
#     4  11  21  37  58  79 110 150 185 231 276 331
#     4  10  21  36  57  82 110 147 190 233 276 337
#     4  11  22  33  52  82 116 150 186 229 280 332
#     4  10  22  38  58  85 114 146 188 232 282 335
#
# _framework density 18.763576
#
# number of rings (size 3 to 8) (size 9 to 14) (size 15 to 20)
#    0.000    1.667    1.667    3.750    0.000    8.500 
#    0.000    0.000    0.000    0.000    0.000    1.750 
#    0.000    4.000    0.000    0.000    0.000    0.000 
#
# Total GULP energy -595166.233479 kJ/mol
# GULP energy per Si atom -12399.296531 kJ/mol
# Density = 1.872087 g / cm^3
# Si number density = 18.763576 Si / 1000 Ang^3
#
#
#
# Elastic Constant Matrix: (Units=GPa)
#
#
# Indices 1 2 3 4 5 6 
#
# 1 100.3005 25.6615 25.9782 0.0000 0.0000 0.0000
# 2 25.6615 56.3387 14.0558 0.0000 0.0000 0.0000
# 3 25.9782 14.0558 107.4637 0.0000 0.0000 0.0000
# 4 0.0000 0.0000 0.0000 39.4098 0.0000 0.0000
# 5 0.0000 0.0000 0.0000 0.0000 21.1537 0.0000
# 6 0.0000 0.0000 0.0000 0.0000 0.0000 13.9408
#
#
#
# Elastic Compliance Matrix: (Units=1/GPa)
#
#
# Indices 1 2 3 4 5 6 
#
# 1 0.011775 -0.004810 -0.002217 0.000000 0.000000 0.000000
# 2 -0.004810 0.020314 -0.001494 0.000000 0.000000 0.000000
# 3 -0.002217 -0.001494 0.010037 0.000000 0.000000 0.000000
# 4 0.000000 0.000000 0.000000 0.025374 0.000000 0.000000
# 5 0.000000 0.000000 0.000000 0.000000 0.047273 0.000000
# 6 0.000000 0.000000 0.000000 0.000000 0.000000 0.071732
#
#
# Mechanical properties :
#
#
# Convention : Reuss Voigt Hill
#
# Bulk Modulus (GPa) = 39.86889 43.94375 41.90632
# Shear Modulus (GPa) = 23.59509 28.12803 25.86156
#
# Velocity S-wave (km/s) = 3.54996 3.87599 3.71655
# Velocity P-wave (km/s) = 6.17229 6.59558 6.38744
#
# Compressibility (1/GPa) = 0.02508221
#
# Stress axis : x y z
#
# Youngs Moduli (GPa) = 84.92568 49.22834 99.63225
#
# Poissons Ratio (x) = 0.23680 0.22092
# Poissons Ratio (y) = 0.40851 0.14886
# Poissons Ratio (z) = 0.18831 0.07355
#
# Static dielectric constant tensor:
#      x y z
#    x 3.470000 0.000000 0.000000 
#    y 0.000000 3.446900 0.000000 
#    z 0.000000 0.000000 3.681450 
# 
# 
# High freq. dielectric constant tensor:
#      x y z
#    x 1.732300 0.000000 0.000000 
#    y 0.000000 1.712830 0.000000 
#    z 0.000000 0.000000 1.735890 
# 
# From -- ./inp_files/38401.got.cif
#   From: 2010.03.12/outbox.cif.g09.slc.cpg/sg69_20_cif.got.tgz:38401.got - 2010.04.10 23:52:46.
