data_PCOD8284144
_publ_section_title
;
Structure prediction by ZEFSAII (Michael W. Deem and Ramdas Pophale) SiO2 
 PCOD8284144
Probable space group: F M M M
;
_chemical_formula_sum "Si O2"
_cell_formula_units_Z 192
_cell_length_a 24.601570
_cell_length_b 23.899244
_cell_length_c 19.121281
_cell_angle_alpha 90.000000
_cell_angle_beta 90.000000
_cell_angle_gamma 90.000000
_cell_volume 11242.527806
_symmetry_space_group_name_H-M "F M M M"
_symmetry_group_IT_number 69
_symmetry_cell_setting 'orthorhombic'
loop_
_space_group_symop_operation_xyz
x,y,z
-x,-y,z
x,-y,-z
-x,y,-z
-x,-y,-z
x,y,-z
-x,y,z
x,-y,z
x,1/2+y,1/2+z
-x,1/2-y,1/2+z
x,1/2-y,1/2-z
-x,1/2+y,1/2-z
-x,1/2-y,1/2-z
x,1/2+y,1/2-z
-x,1/2+y,1/2+z
x,1/2-y,1/2+z
1/2+x,y,1/2+z
1/2-x,-y,1/2+z
1/2+x,-y,1/2-z
1/2-x,y,1/2-z
1/2-x,-y,1/2-z
1/2+x,y,1/2-z
1/2-x,y,1/2+z
1/2+x,-y,1/2+z
1/2+x,1/2+y,z
1/2-x,1/2-y,z
1/2+x,1/2-y,-z
1/2-x,1/2+y,-z
1/2-x,1/2-y,-z
1/2+x,1/2+y,-z
1/2-x,1/2+y,z
1/2+x,1/2-y,z
loop_
_atom_site_type_symbol
_atom_site_label
_atom_site_fract_x
_atom_site_fract_y
_atom_site_fract_z
Si Si1 0.062277 0.719941 0.841750
Si Si2 0.642272 0.565044 0.816266
Si Si3 0.062597 0.117135 0.578696
Si Si4 0.064077 0.836228 0.799175
Si Si5 0.840849 0.064379 0.657579
Si Si6 0.236838 0.933583 0.078996
O O1 0.070839 0.684449 0.912605
O O2 0.084488 0.783588 0.847906
O O3 0.085452 0.681923 0.777992
O O4 0.000000 0.728509 0.821632
O O5 0.624206 0.500000 0.825924
O O6 0.591121 0.606159 0.824837
O O7 0.668600 0.573966 0.739849
O O8 0.685382 0.584086 0.874576
O O9 0.078143 0.100425 0.500000
O O10 0.100484 0.085759 0.633232
O O11 0.000000 0.101072 0.595545
O O12 0.000000 0.847909 0.802929
O O13 0.791295 0.092601 0.614309
O O14 0.840531 0.000000 0.638886
O O15 0.240903 0.000000 0.078171
O O16 0.230687 0.910070 0.000000
#
# Coordination Sequence:
#
# PCOD8284144 Si02
#       6
#    32  32  32  32  32  32
#     4   8  15  29  47  67  93 128 168 198 226 276
#     4  10  19  30  49  77 102 124 160 207 245 286
#     4  10  19  30  46  72 105 134 161 197 242 290
#     4   9  16  29  50  72  96 126 160 200 241 284
#     4  10  19  31  48  71 100 133 167 199 237 289
#     4   9  18  33  50  67  92 129 169 205 245 291
#
# _framework density 17.078009999999999
#
# number of rings (size 3 to 8) (size 9 to 14) (size 15 to 20)
#    0.000    2.667    1.667    2.000    0.000    3.667 
#    0.000    3.333    0.000    2.500    0.000    4.667 
#    0.000    0.000    0.000    0.000    0.000    0.000 
#
# Total GULP energy -594654.824417 kJ/mol
# GULP energy per Si atom -12388.642175 kJ/mol
# Density = 1.703914 g / cm^3
# Si number density = 17.078010 Si / 1000 Ang^3
#
#
#
# Elastic Constant Matrix: (Units=GPa)
#
#
# Indices 1 2 3 4 5 6 
#
# 1 86.1442 40.5067 47.0118 0.0000 0.0000 0.0000
# 2 40.5067 56.7743 29.5485 0.0000 0.0000 0.0000
# 3 47.0118 29.5485 92.4013 0.0000 0.0000 0.0000
# 4 0.0000 0.0000 0.0000 17.9576 0.0000 0.0000
# 5 0.0000 0.0000 0.0000 0.0000 23.2950 0.0000
# 6 0.0000 0.0000 0.0000 0.0000 0.0000 6.1162
#
#
#
# Elastic Compliance Matrix: (Units=1/GPa)
#
#
# Indices 1 2 3 4 5 6 
#
# 1 0.020612 -0.011095 -0.006939 0.000000 0.000000 0.000000
# 2 -0.011095 0.027102 -0.003022 0.000000 0.000000 0.000000
# 3 -0.006939 -0.003022 0.015319 0.000000 0.000000 0.000000
# 4 0.000000 0.000000 0.000000 0.055687 0.000000 0.000000
# 5 0.000000 0.000000 0.000000 0.000000 0.042928 0.000000
# 6 0.000000 0.000000 0.000000 0.000000 0.000000 0.163500
#
#
# Mechanical properties :
#
#
# Convention : Reuss Voigt Hill
#
# Bulk Modulus (GPa) = 47.79707 52.16154 49.97930
# Shear Modulus (GPa) = 13.36060 17.35727 15.35894
#
# Velocity S-wave (km/s) = 2.80005 3.19149 3.00215
# Velocity P-wave (km/s) = 6.20499 6.64757 6.43009
#
# Compressibility (1/GPa) = 0.02092179
#
# Stress axis : x y z
#
# Youngs Moduli (GPa) = 48.51452 36.89729 65.27713
#
# Poissons Ratio (x) = 0.40937 0.45297
# Poissons Ratio (y) = 0.53826 0.19728
# Poissons Ratio (z) = 0.33665 0.11151
#
# Static dielectric constant tensor:
#      x y z
#    x 3.067680 0.000000 0.000000 
#    y 0.000000 3.135850 0.000000 
#    z 0.000000 0.000000 3.286480 
# 
# 
# High freq. dielectric constant tensor:
#      x y z
#    x 1.638650 0.000000 0.000000 
#    y 0.000000 1.640430 0.000000 
#    z 0.000000 0.000000 1.651700 
# 
# From -- ./inp_files/32052.got.cif
#   From: 2010.03.12/outbox.cif.g09.slc.cpg/sg69_17_cif.got.tgz:32052.got - 2010.04.10 23:52:46.
