data_PCOD8284593
_publ_section_title
;
Structure prediction by ZEFSAII (Michael W. Deem and Ramdas Pophale) SiO2 
 PCOD8284593
Probable space group: F M M M
;
_chemical_formula_sum "Si O2"
_cell_formula_units_Z 128
_cell_length_a 8.986144
_cell_length_b 34.411067
_cell_length_c 25.588499
_cell_angle_alpha 90.000000
_cell_angle_beta 90.000000
_cell_angle_gamma 90.000000
_cell_volume 7912.547392
_symmetry_space_group_name_H-M "F M M M"
_symmetry_group_IT_number 69
_symmetry_cell_setting 'orthorhombic'
loop_
_space_group_symop_operation_xyz
x,y,z
-x,-y,z
x,-y,-z
-x,y,-z
-x,-y,-z
x,y,-z
-x,y,z
x,-y,z
x,1/2+y,1/2+z
-x,1/2-y,1/2+z
x,1/2-y,1/2-z
-x,1/2+y,1/2-z
-x,1/2-y,1/2-z
x,1/2+y,1/2-z
-x,1/2+y,1/2+z
x,1/2-y,1/2+z
1/2+x,y,1/2+z
1/2-x,-y,1/2+z
1/2+x,-y,1/2-z
1/2-x,y,1/2-z
1/2-x,-y,1/2-z
1/2+x,y,1/2-z
1/2-x,y,1/2+z
1/2+x,-y,1/2+z
1/2+x,1/2+y,z
1/2-x,1/2-y,z
1/2+x,1/2-y,-z
1/2-x,1/2+y,-z
1/2-x,1/2-y,-z
1/2+x,1/2+y,-z
1/2-x,1/2+y,z
1/2+x,1/2-y,z
loop_
_atom_site_type_symbol
_atom_site_label
_atom_site_fract_x
_atom_site_fract_y
_atom_site_fract_z
Si Si1 0.173988 0.658355 0.597762
Si Si2 0.323364 0.290684 0.803733
Si Si3 0.323576 0.208352 0.500000
Si Si4 0.676234 0.500000 0.557716
Si Si5 0.674664 0.416086 0.439190
O O1 0.216469 0.677791 0.652579
O O2 0.233777 0.685235 0.550806
O O3 0.246235 0.615985 0.596002
O O4 0.000000 0.652703 0.591469
O O5 0.500000 0.285074 0.797081
O O6 0.250000 0.305542 0.750000
O O7 0.250000 0.250000 0.820570
O O8 0.500000 0.213711 0.500000
O O9 0.250000 0.250000 0.500000
O O10 0.500000 0.500000 0.552596
O O11 0.745823 0.500000 0.500000
O O12 0.724176 0.541170 0.583905
O O13 0.721876 0.412200 0.500000
O O14 0.500000 0.410103 0.433371
#
# Coordination Sequence:
#
# PCOD8284593 Si02
#       5
#    32  32  16  16  32
#     4  10  20  32  46  66  95 124 150 186 232 273
#     4  10  20  34  51  69  89 118 155 197 237 272
#     4  10  20  32  44  61  90 123 151 182 219 268
#     4   7  12  24  41  63  92 121 152 187 220 258
#     4   9  16  27  45  68  93 124 157 187 220 266
#
# _framework density 16.176838
#
# number of rings (size 3 to 8) (size 9 to 14) (size 15 to 20)
#    0.000    2.625    1.250    3.750    0.000    3.000 
#    0.000    0.625    0.000    2.250    0.000    0.875 
#    0.000    0.000    0.000    0.000    0.000    0.000 
#
# Total GULP energy -396573.011013 kJ/mol
# GULP energy per Si atom -12392.906594 kJ/mol
# Density = 1.614002 g / cm^3
# Si number density = 16.176838 Si / 1000 Ang^3
#
#
#
# Elastic Constant Matrix: (Units=GPa)
#
#
# Indices 1 2 3 4 5 6 
#
# 1 43.9805 47.7822 38.7447 0.0000 0.0000 0.0000
# 2 47.7822 172.4901 75.2559 0.0000 0.0000 0.0000
# 3 38.7447 75.2559 89.5696 0.0000 0.0000 0.0000
# 4 0.0000 0.0000 0.0000 21.1651 0.0000 0.0000
# 5 0.0000 0.0000 0.0000 0.0000 21.6674 0.0000
# 6 0.0000 0.0000 0.0000 0.0000 0.0000 26.5233
#
#
#
# Elastic Compliance Matrix: (Units=1/GPa)
#
#
# Indices 1 2 3 4 5 6 
#
# 1 0.039843 -0.005554 -0.012569 0.000000 0.000000 0.000000
# 2 -0.005554 0.009927 -0.005938 0.000000 0.000000 0.000000
# 3 -0.012569 -0.005938 0.021590 0.000000 0.000000 0.000000
# 4 0.000000 0.000000 0.000000 0.047248 0.000000 0.000000
# 5 0.000000 0.000000 0.000000 0.000000 0.046152 0.000000
# 6 0.000000 0.000000 0.000000 0.000000 0.000000 0.037703
#
#
# Mechanical properties :
#
#
# Convention : Reuss Voigt Hill
#
# Bulk Modulus (GPa) = 43.02979 69.95620 56.49300
# Shear Modulus (GPa) = 19.35507 23.48831 21.42169
#
# Velocity S-wave (km/s) = 3.46275 3.81461 3.64293
# Velocity P-wave (km/s) = 6.53031 7.92087 7.25896
#
# Compressibility (1/GPa) = 0.02323971
#
# Stress axis : x y z
#
# Youngs Moduli (GPa) = 25.09822 100.74035 46.31695
#
# Poissons Ratio (x) = 0.55946 0.58215
# Poissons Ratio (y) = 0.13938 0.27503
# Poissons Ratio (z) = 0.31546 0.59819
#
# Static dielectric constant tensor:
#      x y z
#    x 2.920330 0.000000 0.000000 
#    y 0.000000 3.312080 0.000000 
#    z 0.000000 0.000000 2.899060 
# 
# 
# High freq. dielectric constant tensor:
#      x y z
#    x 1.612740 0.000000 0.000000 
#    y 0.000000 1.632770 0.000000 
#    z 0.000000 0.000000 1.588460 
# 
# From -- ./inp_files/39678.got.cif
#   From: 2010.03.12/outbox.cif.g09.slc.cpg/sg69_20_cif.got.tgz:39678.got - 2010.04.10 23:52:46.
