data_PCOD8284295
_publ_section_title
;
Structure prediction by ZEFSAII (Michael W. Deem and Ramdas Pophale) SiO2 
 PCOD8284295
Probable space group: F M M M
;
_chemical_formula_sum "Si O2"
_cell_formula_units_Z 160
_cell_length_a 28.306882
_cell_length_b 17.000129
_cell_length_c 17.613069
_cell_angle_alpha 90.000000
_cell_angle_beta 90.000000
_cell_angle_gamma 90.000000
_cell_volume 8475.772435
_symmetry_space_group_name_H-M "F M M M"
_symmetry_group_IT_number 69
_symmetry_cell_setting 'orthorhombic'
loop_
_space_group_symop_operation_xyz
x,y,z
-x,-y,z
x,-y,-z
-x,y,-z
-x,-y,-z
x,y,-z
-x,y,z
x,-y,z
x,1/2+y,1/2+z
-x,1/2-y,1/2+z
x,1/2-y,1/2-z
-x,1/2+y,1/2-z
-x,1/2-y,1/2-z
x,1/2+y,1/2-z
-x,1/2+y,1/2+z
x,1/2-y,1/2+z
1/2+x,y,1/2+z
1/2-x,-y,1/2+z
1/2+x,-y,1/2-z
1/2-x,y,1/2-z
1/2-x,-y,1/2-z
1/2+x,y,1/2-z
1/2-x,y,1/2+z
1/2+x,-y,1/2+z
1/2+x,1/2+y,z
1/2-x,1/2-y,z
1/2+x,1/2-y,-z
1/2-x,1/2+y,-z
1/2-x,1/2-y,-z
1/2+x,1/2+y,-z
1/2-x,1/2+y,z
1/2+x,1/2-y,z
loop_
_atom_site_type_symbol
_atom_site_label
_atom_site_fract_x
_atom_site_fract_y
_atom_site_fract_z
Si Si1 0.052842 0.863312 0.085967
Si Si2 0.147407 0.411458 0.658428
Si Si3 0.553601 0.322266 0.415190
Si Si4 0.804798 0.265934 0.413222
Si Si5 0.629690 0.323299 0.698369
O O1 0.092146 0.905792 0.136240
O O2 0.062259 0.770698 0.088021
O O3 0.000000 0.882417 0.116981
O O4 0.057289 0.894141 0.000000
O O5 0.165541 0.500000 0.645921
O O6 0.180882 0.354941 0.608780
O O7 0.151308 0.390192 0.747550
O O8 0.566198 0.352914 0.500000
O O9 0.500000 0.344387 0.395531
O O10 0.586627 0.360177 0.350518
O O11 0.820185 0.251670 0.500000
O O12 0.750000 0.250000 0.401319
O O13 0.830431 0.203442 0.360157
O O14 0.612075 0.250000 0.750000
#
# Coordination Sequence:
#
# PCOD8284295 Si02
#       5
#    32  32  32  32  32
#     4   9  17  30  50  79 114 150 187 225 267 316
#     4  11  23  36  53  83 119 150 176 215 276 337
#     4   9  16  28  50  78 106 141 190 238 268 299
#     4  10  21  39  62  83 101 132 181 232 275 321
#     4  10  19  32  52  78 107 143 180 220 268 324
#
# _framework density 18.877336
#
# number of rings (size 3 to 8) (size 9 to 14) (size 15 to 20)
#    0.000    2.200    4.000    2.400    0.000    6.800 
#    0.000    3.000    0.000    3.600    0.000    1.400 
#    0.000    0.000    0.000    0.000    0.000    0.000 
#
# Total GULP energy -495900.135453 kJ/mol
# GULP energy per Si atom -12397.503386 kJ/mol
# Density = 1.883437 g / cm^3
# Si number density = 18.877336 Si / 1000 Ang^3
#
#
#
# Elastic Constant Matrix: (Units=GPa)
#
#
# Indices 1 2 3 4 5 6 
#
# 1 96.7876 30.5075 61.8648 0.0000 0.0000 0.0000
# 2 30.5075 59.5123 20.7038 0.0000 0.0000 0.0000
# 3 61.8648 20.7038 129.3613 0.0000 0.0000 0.0000
# 4 0.0000 0.0000 0.0000 11.1552 0.0000 0.0000
# 5 0.0000 0.0000 0.0000 0.0000 18.0740 0.0000
# 6 0.0000 0.0000 0.0000 0.0000 0.0000 12.7885
#
#
#
# Elastic Compliance Matrix: (Units=1/GPa)
#
#
# Indices 1 2 3 4 5 6 
#
# 1 0.016766 -0.006147 -0.007034 0.000000 0.000000 0.000000
# 2 -0.006147 0.020048 -0.000269 0.000000 0.000000 0.000000
# 3 -0.007034 -0.000269 0.011137 0.000000 0.000000 0.000000
# 4 0.000000 0.000000 0.000000 0.089644 0.000000 0.000000
# 5 0.000000 0.000000 0.000000 0.000000 0.055328 0.000000
# 6 0.000000 0.000000 0.000000 0.000000 0.000000 0.078195
#
#
# Mechanical properties :
#
#
# Convention : Reuss Voigt Hill
#
# Bulk Modulus (GPa) = 47.50460 56.86816 52.18638
# Shear Modulus (GPa) = 16.39155 19.90922 18.15038
#
# Velocity S-wave (km/s) = 2.94992 3.25108 3.10416
# Velocity P-wave (km/s) = 6.06813 6.65456 6.36810
#
# Compressibility (1/GPa) = 0.02105059
#
# Stress axis : x y z
#
# Youngs Moduli (GPa) = 59.64613 49.88016 89.78937
#
# Poissons Ratio (x) = 0.30663 0.63158
# Poissons Ratio (y) = 0.36667 0.02413
# Poissons Ratio (z) = 0.41955 0.01340
#
# Static dielectric constant tensor:
#      x y z
#    x 3.490740 0.000000 0.000000 
#    y 0.000000 3.031440 0.000000 
#    z 0.000000 0.000000 3.813890 
# 
# 
# High freq. dielectric constant tensor:
#      x y z
#    x 1.731530 0.000000 0.000000 
#    y 0.000000 1.679570 0.000000 
#    z 0.000000 0.000000 1.746710 
# 
# From -- ./inp_files/23145.got.cif
#   From: 2010.03.12/outbox.cif.g09.slc.cpg/sg69_12_cif.got.tgz:23145.got - 2010.04.10 23:52:46.
