data_PCOD8284946
_publ_section_title
;
Structure prediction by ZEFSAII (Michael W. Deem and Ramdas Pophale) SiO2 
 PCOD8284946
Probable space group: F M M M
;
_chemical_formula_sum "Si O2"
_cell_formula_units_Z 192
_cell_length_a 27.451254
_cell_length_b 15.852515
_cell_length_c 22.402126
_cell_angle_alpha 90.000000
_cell_angle_beta 90.000000
_cell_angle_gamma 90.000000
_cell_volume 9748.764888
_symmetry_space_group_name_H-M "F M M M"
_symmetry_group_IT_number 69
_symmetry_cell_setting 'orthorhombic'
loop_
_space_group_symop_operation_xyz
x,y,z
-x,-y,z
x,-y,-z
-x,y,-z
-x,-y,-z
x,y,-z
-x,y,z
x,-y,z
x,1/2+y,1/2+z
-x,1/2-y,1/2+z
x,1/2-y,1/2-z
-x,1/2+y,1/2-z
-x,1/2-y,1/2-z
x,1/2+y,1/2-z
-x,1/2+y,1/2+z
x,1/2-y,1/2+z
1/2+x,y,1/2+z
1/2-x,-y,1/2+z
1/2+x,-y,1/2-z
1/2-x,y,1/2-z
1/2-x,-y,1/2-z
1/2+x,y,1/2-z
1/2-x,y,1/2+z
1/2+x,-y,1/2+z
1/2+x,1/2+y,z
1/2-x,1/2-y,z
1/2+x,1/2-y,-z
1/2-x,1/2+y,-z
1/2-x,1/2-y,-z
1/2+x,1/2+y,-z
1/2-x,1/2+y,z
1/2+x,1/2-y,z
loop_
_atom_site_type_symbol
_atom_site_label
_atom_site_fract_x
_atom_site_fract_y
_atom_site_fract_z
Si Si1 0.389215 0.000000 0.571175
Si Si2 0.371530 0.903544 0.870947
Si Si3 0.444812 0.401029 0.733994
Si Si4 0.443789 0.351761 0.134709
Si Si5 0.221182 0.335990 0.070587
Si Si6 0.554393 0.686804 0.433862
Si Si7 0.280292 0.000000 0.429873
O O1 0.413507 0.916794 0.596236
O O2 0.392483 0.000000 0.500000
O O3 0.334360 0.000000 0.596374
O O4 0.401879 0.876355 0.811913
O O5 0.326501 0.841585 0.886914
O O6 0.410378 0.893211 0.924600
O O7 0.353312 0.000000 0.868067
O O8 0.500000 0.374870 0.712154
O O9 0.444162 0.500000 0.746839
O O10 0.431657 0.354075 0.795257
O O11 0.500000 0.373117 0.122914
O O12 0.430111 0.258939 0.112554
O O13 0.250000 0.250000 0.084785
O O14 0.253566 0.415132 0.091059
O O15 0.207217 0.340256 0.000000
O O16 0.560221 0.724158 0.500000
O O17 0.500000 0.654412 0.422304
O O18 0.283600 0.000000 0.500000
#
# Coordination Sequence:
#
# PCOD8284946 Si02
#       7
#    16  32  32  32  32  32  16
#     4  11  21  32  56  88 119 156 197 245 304 358
#     4  11  22  37  61  87 116 155 202 243 292 354
#     4   9  18  35  59  88 120 158 206 246 283 345
#     4  10  20  36  57  84 121 162 200 239 287 357
#     4  10  21  38  61  87 118 154 197 253 308 364
#     4  10  22  36  52  84 123 153 192 248 305 358
#     4   9  20  37  55  85 116 145 193 246 298 361
#
# _framework density 19.694801999999999
#
# number of rings (size 3 to 8) (size 9 to 14) (size 15 to 20)
#    0.000    2.000    1.667    1.750    2.333    4.000 
#    0.000    3.333    0.000    2.000    0.000    0.000 
#    0.000    0.000    0.000    0.000    0.000    0.000 
#
# Total GULP energy -594947.566172 kJ/mol
# GULP energy per Si atom -12394.740962 kJ/mol
# Density = 1.964998 g / cm^3
# Si number density = 19.694802 Si / 1000 Ang^3
#
#
#
# Elastic Constant Matrix: (Units=GPa)
#
#
# Indices 1 2 3 4 5 6 
#
# 1 119.9285 43.7595 58.9654 0.0000 0.0000 0.0000
# 2 43.7595 74.9414 37.1857 0.0000 0.0000 0.0000
# 3 58.9654 37.1857 103.9288 0.0000 0.0000 0.0000
# 4 0.0000 0.0000 0.0000 29.8401 0.0000 0.0000
# 5 0.0000 0.0000 0.0000 0.0000 24.4201 0.0000
# 6 0.0000 0.0000 0.0000 0.0000 0.0000 31.9293
#
#
#
# Elastic Compliance Matrix: (Units=1/GPa)
#
#
# Indices 1 2 3 4 5 6 
#
# 1 0.012797 -0.004705 -0.005577 0.000000 0.000000 0.000000
# 2 -0.004705 0.017954 -0.003754 0.000000 0.000000 0.000000
# 3 -0.005577 -0.003754 0.014130 0.000000 0.000000 0.000000
# 4 0.000000 0.000000 0.000000 0.033512 0.000000 0.000000
# 5 0.000000 0.000000 0.000000 0.000000 0.040950 0.000000
# 6 0.000000 0.000000 0.000000 0.000000 0.000000 0.031319
#
#
# Mechanical properties :
#
#
# Convention : Reuss Voigt Hill
#
# Bulk Modulus (GPa) = 59.49758 64.29109 61.89434
# Shear Modulus (GPa) = 27.12407 27.83043 27.47725
#
# Velocity S-wave (km/s) = 3.71512 3.76318 3.73923
# Velocity P-wave (km/s) = 6.97697 7.18308 7.08078
#
# Compressibility (1/GPa) = 0.01680741
#
# Stress axis : x y z
#
# Youngs Moduli (GPa) = 78.14174 55.69750 70.77339
#
# Poissons Ratio (x) = 0.26206 0.39472
# Poissons Ratio (y) = 0.36767 0.26572
# Poissons Ratio (z) = 0.43581 0.20911
#
# Static dielectric constant tensor:
#      x y z
#    x 3.705710 0.000000 0.000000 
#    y 0.000000 3.631220 0.000000 
#    z 0.000000 0.000000 3.503750 
# 
# 
# High freq. dielectric constant tensor:
#      x y z
#    x 1.765190 0.000000 0.000000 
#    y 0.000000 1.769440 0.000000 
#    z 0.000000 0.000000 1.754670 
# 
# From -- ./inp_files/38404.got.cif
#   From: 2010.03.12/outbox.cif.g09.slc.cpg/sg69_20_cif.got.tgz:38404.got - 2010.04.10 23:52:46.
