data_PCOD8284402
_publ_section_title
;
Structure prediction by ZEFSAII (Michael W. Deem and Ramdas Pophale) SiO2 
 PCOD8284402
Probable space group: F M M M
;
_chemical_formula_sum "Si O2"
_cell_formula_units_Z 112
_cell_length_a 17.539867
_cell_length_b 9.988751
_cell_length_c 33.006122
_cell_angle_alpha 90.000000
_cell_angle_beta 90.000000
_cell_angle_gamma 90.000000
_cell_volume 5782.717596
_symmetry_space_group_name_H-M "F M M M"
_symmetry_group_IT_number 69
_symmetry_cell_setting 'orthorhombic'
loop_
_space_group_symop_operation_xyz
x,y,z
-x,-y,z
x,-y,-z
-x,y,-z
-x,-y,-z
x,y,-z
-x,y,z
x,-y,z
x,1/2+y,1/2+z
-x,1/2-y,1/2+z
x,1/2-y,1/2-z
-x,1/2+y,1/2-z
-x,1/2-y,1/2-z
x,1/2+y,1/2-z
-x,1/2+y,1/2+z
x,1/2-y,1/2+z
1/2+x,y,1/2+z
1/2-x,-y,1/2+z
1/2+x,-y,1/2-z
1/2-x,y,1/2-z
1/2-x,-y,1/2-z
1/2+x,y,1/2-z
1/2-x,y,1/2+z
1/2+x,-y,1/2+z
1/2+x,1/2+y,z
1/2-x,1/2-y,z
1/2+x,1/2-y,-z
1/2-x,1/2+y,-z
1/2-x,1/2-y,-z
1/2+x,1/2+y,-z
1/2-x,1/2+y,z
1/2+x,1/2-y,z
loop_
_atom_site_type_symbol
_atom_site_label
_atom_site_fract_x
_atom_site_fract_y
_atom_site_fract_z
Si Si1 0.090676 0.000000 0.809915
Si Si2 0.590276 0.219960 0.157210
Si Si3 0.085094 0.341546 0.000000
Si Si4 0.321266 0.846167 0.922388
Si Si5 0.090177 0.000000 0.719566
O O1 0.119144 0.129406 0.834538
O O2 0.126133 0.000000 0.764588
O O3 0.000000 0.000000 0.806595
O O4 0.500000 0.212283 0.151525
O O5 0.626715 0.161177 0.117039
O O6 0.617006 0.131864 0.195531
O O7 0.130138 0.292281 0.039604
O O8 0.078270 0.500000 0.000000
O O9 0.000000 0.278418 0.000000
O O10 0.250000 0.750000 0.916926
O O11 0.294886 0.000000 0.929035
O O12 0.000000 0.000000 0.723608
#
# Coordination Sequence:
#
# PCOD8284402 Si02
#       5
#    16  32  16  32  16
#     4   9  18  30  51  84 115 144 181 239 296 327
#     4  10  19  33  56  83 112 146 190 237 280 330
#     4   9  19  38  65  91 112 139 184 232 273 324
#     4  11  23  38  59  84 115 152 186 225 276 333
#     4   9  16  30  53  82 111 142 189 239 284 331
#
# _framework density 19.368057
#
# number of rings (size 3 to 8) (size 9 to 14) (size 15 to 20)
#    0.000    2.143    1.429    2.143    2.000    4.571 
#    0.000    0.000    0.000    6.000    0.000    0.000 
#    0.000    0.000    0.000    0.000    0.000    0.000 
#
# Total GULP energy -347214.028861 kJ/mol
# GULP energy per Si atom -12400.501031 kJ/mol
# Density = 1.932397 g / cm^3
# Si number density = 19.368057 Si / 1000 Ang^3
#
#
#
# Elastic Constant Matrix: (Units=GPa)
#
#
# Indices 1 2 3 4 5 6 
#
# 1 53.3512 25.5627 26.5175 0.0000 0.0000 0.0000
# 2 25.5627 111.4675 17.9056 0.0000 0.0000 0.0000
# 3 26.5175 17.9056 108.5110 0.0000 0.0000 0.0000
# 4 0.0000 0.0000 0.0000 28.8676 0.0000 0.0000
# 5 0.0000 0.0000 0.0000 0.0000 -2.8681 0.0000
# 6 0.0000 0.0000 0.0000 0.0000 0.0000 20.8969
#
#
#
# Elastic Compliance Matrix: (Units=1/GPa)
#
#
# Indices 1 2 3 4 5 6 
#
# 1 0.023400 -0.004569 -0.004965 0.000000 0.000000 0.000000
# 2 -0.004569 0.010108 -0.000551 0.000000 0.000000 0.000000
# 3 -0.004965 -0.000551 0.010520 0.000000 0.000000 0.000000
# 4 0.000000 0.000000 0.000000 0.034641 0.000000 0.000000
# 5 0.000000 0.000000 0.000000 0.000000 -0.348664 0.000000
# 6 0.000000 0.000000 0.000000 0.000000 0.000000 0.047854
#
#
# Mechanical properties :
#
#
# Convention : Reuss Voigt Hill
#
# Bulk Modulus (GPa) = 41.91428 45.92235 43.91832
# Shear Modulus (GPa) = -25.77068 22.93555 -1.41757
#
# Velocity S-wave (km/s) = -3.65166 3.44495 -0.85645
# Velocity P-wave (km/s) = 1.97696 6.29169 4.66335
#
# Compressibility (1/GPa) = 0.02385822
#
# Stress axis : x y z
#
# Youngs Moduli (GPa) = 42.73429 98.93578 95.05834
#
# Poissons Ratio (x) = 0.45203 0.47192
# Poissons Ratio (y) = 0.19525 0.05241
# Poissons Ratio (z) = 0.21216 0.05455
#
# Static dielectric constant tensor:
#      x y z
#    x 3.206110 0.000000 0.000000 
#    y 0.000000 3.599730 0.000000 
#    z 0.000000 0.000000 3.731850 
# 
# 
# High freq. dielectric constant tensor:
#      x y z
#    x 1.718790 0.000000 0.000000 
#    y 0.000000 1.751920 0.000000 
#    z 0.000000 0.000000 1.769370 
# 
# From -- ./inp_files/7425.got.cif
#   From: 2010.03.12/outbox.cif.g09.slc.cpg/sg69_4_cif.got.tgz:7425.got - 2010.04.10 23:52:46.
