data_PCOD8284581
_publ_section_title
;
Structure prediction by ZEFSAII (Michael W. Deem and Ramdas Pophale) SiO2 
 PCOD8284581
Probable space group: F M M M
;
_chemical_formula_sum "Si O2"
_cell_formula_units_Z 104
_cell_length_a 30.974796
_cell_length_b 9.262065
_cell_length_c 20.554515
_cell_angle_alpha 90.000000
_cell_angle_beta 90.000000
_cell_angle_gamma 90.000000
_cell_volume 5896.896605
_symmetry_space_group_name_H-M "F M M M"
_symmetry_group_IT_number 69
_symmetry_cell_setting 'orthorhombic'
loop_
_space_group_symop_operation_xyz
x,y,z
-x,-y,z
x,-y,-z
-x,y,-z
-x,-y,-z
x,y,-z
-x,y,z
x,-y,z
x,1/2+y,1/2+z
-x,1/2-y,1/2+z
x,1/2-y,1/2-z
-x,1/2+y,1/2-z
-x,1/2-y,1/2-z
x,1/2+y,1/2-z
-x,1/2+y,1/2+z
x,1/2-y,1/2+z
1/2+x,y,1/2+z
1/2-x,-y,1/2+z
1/2+x,-y,1/2-z
1/2-x,y,1/2-z
1/2-x,-y,1/2-z
1/2+x,y,1/2-z
1/2-x,y,1/2+z
1/2+x,-y,1/2+z
1/2+x,1/2+y,z
1/2-x,1/2-y,z
1/2+x,1/2-y,-z
1/2-x,1/2+y,-z
1/2-x,1/2-y,-z
1/2+x,1/2+y,-z
1/2-x,1/2+y,z
1/2+x,1/2-y,z
loop_
_atom_site_type_symbol
_atom_site_label
_atom_site_fract_x
_atom_site_fract_y
_atom_site_fract_z
Si Si1 0.870416 0.333663 0.423067
Si Si2 0.710449 0.838163 0.874717
Si Si3 0.547610 0.161807 0.077234
Si Si4 0.250000 0.250000 0.250000
O O1 0.865407 0.312944 0.500000
O O2 0.866865 0.500000 0.402600
O O3 0.833716 0.244236 0.387219
O O4 0.916364 0.273349 0.397469
O O5 0.750000 0.750000 0.908834
O O6 0.719346 0.846748 0.796811
O O7 0.708048 0.000000 0.903489
O O8 0.500000 0.208904 0.102836
O O9 0.558560 0.000000 0.101971
O O10 0.547208 0.162757 0.000000
#
# Coordination Sequence:
#
# PCOD8284581 Si02
#       4
#    32  32  32   8
#     4  10  20  31  45  70 102 132 162 194 233 281
#     4  10  20  34  53  71  93 122 157 199 240 283
#     4   8  14  26  44  65  92 127 163 196 231 274
#     4   8  22  36  56  72  88 116 158 202 242 288
#
# _framework density 17.636396000000001
#
# number of rings (size 3 to 8) (size 9 to 14) (size 15 to 20)
#    0.923    1.846    0.000    3.231    0.000    3.077 
#    0.000    3.077    0.000    0.000    0.000    1.077 
#    0.000    0.000    0.000    0.000    0.000    0.000 
#
# Total GULP energy -322140.453379 kJ/mol
# GULP energy per Si atom -12390.017438 kJ/mol
# Density = 1.759625 g / cm^3
# Si number density = 17.636396 Si / 1000 Ang^3
#
#
#
# Elastic Constant Matrix: (Units=GPa)
#
#
# Indices 1 2 3 4 5 6 
#
# 1 165.5072 95.0943 27.0434 0.0000 0.0000 0.0000
# 2 95.0943 160.1117 23.5404 0.0000 0.0000 0.0000
# 3 27.0434 23.5404 25.2884 0.0000 0.0000 0.0000
# 4 0.0000 0.0000 0.0000 13.9745 0.0000 0.0000
# 5 0.0000 0.0000 0.0000 0.0000 -4.3184 0.0000
# 6 0.0000 0.0000 0.0000 0.0000 0.0000 39.2689
#
#
#
# Elastic Compliance Matrix: (Units=1/GPa)
#
#
# Indices 1 2 3 4 5 6 
#
# 1 0.009880 -0.004999 -0.005913 0.000000 0.000000 0.000000
# 2 -0.004999 0.009765 -0.003744 0.000000 0.000000 0.000000
# 3 -0.005913 -0.003744 0.049352 0.000000 0.000000 0.000000
# 4 0.000000 0.000000 0.000000 0.071559 0.000000 0.000000
# 5 0.000000 0.000000 0.000000 0.000000 -0.231568 0.000000
# 6 0.000000 0.000000 0.000000 0.000000 0.000000 0.025465
#
#
# Mechanical properties :
#
#
# Convention : Reuss Voigt Hill
#
# Bulk Modulus (GPa) = 25.19775 71.36261 48.28018
# Shear Modulus (GPa) = -217.33910 23.46696 -96.93607
#
# Velocity S-wave (km/s) = -11.11309 3.65169 -7.42179
# Velocity P-wave (km/s) = 12.26170 7.63747 6.78301
#
# Compressibility (1/GPa) = 0.03968609
#
# Stress axis : x y z
#
# Youngs Moduli (GPa) = 101.21153 102.40560 20.26242
#
# Poissons Ratio (x) = 0.51191 0.11981
# Poissons Ratio (y) = 0.50594 0.07587
# Poissons Ratio (z) = 0.59843 0.38344
#
# Static dielectric constant tensor:
#      x y z
#    x 3.540740 0.000000 0.000000 
#    y 0.000000 3.352460 0.000000 
#    z 0.000000 0.000000 2.704990 
# 
# 
# High freq. dielectric constant tensor:
#      x y z
#    x 1.693630 0.000000 0.000000 
#    y 0.000000 1.689880 0.000000 
#    z 0.000000 0.000000 1.615970 
# 
# From -- ./inp_files/4425.got.cif
#   From: 2010.03.12/outbox.cif.g09.slc.cpg/sg69_3_cif.got.tgz:4425.got - 2010.04.10 23:52:46.
