data_PCOD8284562
_publ_section_title
;
Structure prediction by ZEFSAII (Michael W. Deem and Ramdas Pophale) SiO2 
 PCOD8284562
Probable space group: F M M M
;
_chemical_formula_sum "Si O2"
_cell_formula_units_Z 112
_cell_length_a 10.339991
_cell_length_b 18.573498
_cell_length_c 28.025601
_cell_angle_alpha 90.000000
_cell_angle_beta 90.000000
_cell_angle_gamma 90.000000
_cell_volume 5382.311127
_symmetry_space_group_name_H-M "F M M M"
_symmetry_group_IT_number 69
_symmetry_cell_setting 'orthorhombic'
loop_
_space_group_symop_operation_xyz
x,y,z
-x,-y,z
x,-y,-z
-x,y,-z
-x,-y,-z
x,y,-z
-x,y,z
x,-y,z
x,1/2+y,1/2+z
-x,1/2-y,1/2+z
x,1/2-y,1/2-z
-x,1/2+y,1/2-z
-x,1/2-y,1/2-z
x,1/2+y,1/2-z
-x,1/2+y,1/2+z
x,1/2-y,1/2+z
1/2+x,y,1/2+z
1/2-x,-y,1/2+z
1/2+x,-y,1/2-z
1/2-x,y,1/2-z
1/2-x,-y,1/2-z
1/2+x,y,1/2-z
1/2-x,y,1/2+z
1/2+x,-y,1/2+z
1/2+x,1/2+y,z
1/2-x,1/2-y,z
1/2+x,1/2-y,-z
1/2-x,1/2+y,-z
1/2-x,1/2-y,-z
1/2+x,1/2+y,-z
1/2-x,1/2+y,z
1/2+x,1/2-y,z
loop_
_atom_site_type_symbol
_atom_site_label
_atom_site_fract_x
_atom_site_fract_y
_atom_site_fract_z
Si Si1 0.250000 0.750000 0.370820
Si Si2 0.851557 0.852737 0.448539
Si Si3 0.356140 0.500000 0.823555
Si Si4 0.855847 0.343145 0.712193
Si Si5 0.845106 0.000000 0.405743
O O1 0.160670 0.795630 0.406180
O O2 0.166384 0.695542 0.338702
O O3 0.788889 0.829078 0.500000
O O4 0.794754 0.930265 0.434110
O O5 0.000000 0.865266 0.457479
O O6 0.500000 0.500000 0.848529
O O7 0.344476 0.571012 0.791362
O O8 0.232152 0.500000 0.856794
O O9 0.750000 0.314704 0.750000
O O10 0.000000 0.322663 0.730348
O O11 0.000000 0.000000 0.395259
#
# Coordination Sequence:
#
# PCOD8284562 Si02
#       5
#    16  32  16  32  16
#     4  12  22  38  62  86 128 164 200 242 306 364
#     4  10  21  37  60  91 123 159 206 253 296 351
#     4  10  21  42  64  88 120 155 200 254 304 357
#     4  11  25  42  64  90 121 160 203 252 305 361
#     4  10  19  37  65  91 117 159 206 252 298 347
#
# _framework density 20.808903999999998
#
# number of rings (size 3 to 8) (size 9 to 14) (size 15 to 20)
#    0.000    1.429    2.857    2.571    0.000    6.286 
#    0.000    0.000    0.000    3.429    0.000    0.000 
#    0.000    0.000    0.000    0.000    0.000    0.000 
#
# Total GULP energy -346970.035098 kJ/mol
# GULP energy per Si atom -12391.786968 kJ/mol
# Density = 2.076154 g / cm^3
# Si number density = 20.808904 Si / 1000 Ang^3
#
#
#
# Elastic Constant Matrix: (Units=GPa)
#
#
# Indices 1 2 3 4 5 6 
#
# 1 99.6866 13.3252 49.2542 0.0000 0.0000 0.0000
# 2 13.3252 122.6528 43.7380 0.0000 0.0000 0.0000
# 3 49.2542 43.7380 132.5387 0.0000 0.0000 0.0000
# 4 0.0000 0.0000 0.0000 8.7564 0.0000 0.0000
# 5 0.0000 0.0000 0.0000 0.0000 27.2020 0.0000
# 6 0.0000 0.0000 0.0000 0.0000 0.0000 -6.5187
#
#
#
# Elastic Compliance Matrix: (Units=1/GPa)
#
#
# Indices 1 2 3 4 5 6 
#
# 1 0.012300 0.000333 -0.004681 0.000000 0.000000 0.000000
# 2 0.000333 0.009250 -0.003176 0.000000 0.000000 0.000000
# 3 -0.004681 -0.003176 0.010333 0.000000 0.000000 0.000000
# 4 0.000000 0.000000 0.000000 0.114203 0.000000 0.000000
# 5 0.000000 0.000000 0.000000 0.000000 0.036762 0.000000
# 6 0.000000 0.000000 0.000000 0.000000 0.000000 -0.153405
#
#
# Mechanical properties :
#
#
# Convention : Reuss Voigt Hill
#
# Bulk Modulus (GPa) = 59.40375 63.05701 61.23038
# Shear Modulus (GPa) = 99.79909 22.45863 61.12886
#
# Velocity S-wave (km/s) = 6.93281 3.28880 5.42587
# Velocity P-wave (km/s) = 9.62780 6.69256 8.29110
#
# Compressibility (1/GPa) = 0.01683396
#
# Stress axis : x y z
#
# Youngs Moduli (GPa) = 81.30335 108.11379 96.78197
#
# Poissons Ratio (x) = -0.03599 0.45300
# Poissons Ratio (y) = -0.02706 0.30739
# Poissons Ratio (z) = 0.38055 0.34338
#
# Static dielectric constant tensor:
#      x y z
#    x 3.637520 0.000000 0.000000 
#    y 0.000000 4.064850 0.000000 
#    z 0.000000 0.000000 3.881170 
# 
# 
# High freq. dielectric constant tensor:
#      x y z
#    x 1.795160 0.000000 0.000000 
#    y 0.000000 1.840210 0.000000 
#    z 0.000000 0.000000 1.811020 
# 
# From -- ./inp_files/9909.got.cif
#   From: 2010.03.12/outbox.cif.g09.slc.cpg/sg69_5_cif.got.tgz:9909.got - 2010.04.10 23:52:46.
