data_PCOD8284624
_publ_section_title
;
Structure prediction by ZEFSAII (Michael W. Deem and Ramdas Pophale) SiO2 
 PCOD8284624
Probable space group: F M M M
;
_chemical_formula_sum "Si O2"
_cell_formula_units_Z 160
_cell_length_a 16.998968
_cell_length_b 17.985646
_cell_length_c 27.374621
_cell_angle_alpha 90.000000
_cell_angle_beta 90.000000
_cell_angle_gamma 90.000000
_cell_volume 8369.446020
_symmetry_space_group_name_H-M "F M M M"
_symmetry_group_IT_number 69
_symmetry_cell_setting 'orthorhombic'
loop_
_space_group_symop_operation_xyz
x,y,z
-x,-y,z
x,-y,-z
-x,y,-z
-x,-y,-z
x,y,-z
-x,y,z
x,-y,z
x,1/2+y,1/2+z
-x,1/2-y,1/2+z
x,1/2-y,1/2-z
-x,1/2+y,1/2-z
-x,1/2-y,1/2-z
x,1/2+y,1/2-z
-x,1/2+y,1/2+z
x,1/2-y,1/2+z
1/2+x,y,1/2+z
1/2-x,-y,1/2+z
1/2+x,-y,1/2-z
1/2-x,y,1/2-z
1/2-x,-y,1/2-z
1/2+x,y,1/2-z
1/2-x,y,1/2+z
1/2+x,-y,1/2+z
1/2+x,1/2+y,z
1/2-x,1/2-y,z
1/2+x,1/2-y,-z
1/2-x,1/2+y,-z
1/2-x,1/2-y,-z
1/2+x,1/2+y,-z
1/2-x,1/2+y,z
1/2+x,1/2-y,z
loop_
_atom_site_type_symbol
_atom_site_label
_atom_site_fract_x
_atom_site_fract_y
_atom_site_fract_z
Si Si1 0.587822 0.745095 0.693992
Si Si2 0.089401 0.000000 0.132930
Si Si3 0.871187 0.841117 0.112581
Si Si4 0.196302 0.859690 0.634489
Si Si5 0.255208 0.000000 0.308782
Si Si6 0.590156 0.304194 0.444757
O O1 0.500000 0.711134 0.687056
O O2 0.609377 0.750000 0.750000
O O3 0.592448 0.824910 0.666721
O O4 0.656102 0.696688 0.671230
O O5 0.104340 0.926135 0.099603
O O6 0.152152 0.000000 0.177495
O O7 0.000000 0.000000 0.152931
O O8 0.777952 0.829683 0.113596
O O9 0.903774 0.781048 0.074256
O O10 0.138989 0.864352 0.587239
O O11 0.208976 0.932748 0.666288
O O12 0.250000 0.000000 0.250000
O O13 0.621907 0.306752 0.500000
O O14 0.500000 0.329150 0.442022
#
# Coordination Sequence:
#
# PCOD8284624 Si02
#       6
#    32  16  32  32  16  32
#     4  10  20  32  50  77 108 143 192 241 285 341
#     4  10  20  36  57  78 114 154 189 230 289 347
#     4  10  20  34  54  81 111 148 191 236 285 348
#     4  10  21  36  56  79 112 152 189 239 289 347
#     4  10  24  40  55  84 117 153 194 237 287 349
#     4  10  20  37  61  87 115 148 192 245 296 346
#
# _framework density 19.117155
#
# number of rings (size 3 to 8) (size 9 to 14) (size 15 to 20)
#    0.000    2.000    0.000    6.000    5.600    2.400 
#    0.000    4.000    0.000    6.600    0.000    0.000 
#    0.000    0.000    0.000    0.000    0.000    0.000 
#
# Total GULP energy -495603.841742 kJ/mol
# GULP energy per Si atom -12390.096044 kJ/mol
# Density = 1.907364 g / cm^3
# Si number density = 19.117155 Si / 1000 Ang^3
#
#
#
# Elastic Constant Matrix: (Units=GPa)
#
#
# Indices 1 2 3 4 5 6 
#
# 1 129.7779 36.9639 43.7061 0.0000 0.0000 0.0000
# 2 36.9639 89.7302 40.1535 0.0000 0.0000 0.0000
# 3 43.7061 40.1535 144.9024 0.0000 0.0000 0.0000
# 4 0.0000 0.0000 0.0000 14.8750 0.0000 0.0000
# 5 0.0000 0.0000 0.0000 0.0000 25.9035 0.0000
# 6 0.0000 0.0000 0.0000 0.0000 0.0000 14.6815
#
#
#
# Elastic Compliance Matrix: (Units=1/GPa)
#
#
# Indices 1 2 3 4 5 6 
#
# 1 0.009196 -0.002908 -0.001968 0.000000 0.000000 0.000000
# 2 -0.002908 0.013641 -0.002903 0.000000 0.000000 0.000000
# 3 -0.001968 -0.002903 0.008299 0.000000 0.000000 0.000000
# 4 0.000000 0.000000 0.000000 0.067227 0.000000 0.000000
# 5 0.000000 0.000000 0.000000 0.000000 0.038605 0.000000
# 6 0.000000 0.000000 0.000000 0.000000 0.000000 0.068113
#
#
# Mechanical properties :
#
#
# Convention : Reuss Voigt Hill
#
# Bulk Modulus (GPa) = 64.18763 67.33971 65.76367
# Shear Modulus (GPa) = 22.14028 27.33114 24.73571
#
# Velocity S-wave (km/s) = 3.40683 3.78519 3.60099
# Velocity P-wave (km/s) = 7.00886 7.37596 7.19475
#
# Compressibility (1/GPa) = 0.01557933
#
# Stress axis : x y z
#
# Youngs Moduli (GPa) = 108.73719 73.30601 120.49199
#
# Poissons Ratio (x) = 0.21315 0.23714
# Poissons Ratio (y) = 0.31618 0.34980
# Poissons Ratio (z) = 0.21401 0.21281
#
# Static dielectric constant tensor:
#      x y z
#    x 3.707880 0.000000 0.000000 
#    y 0.000000 3.674100 0.000000 
#    z 0.000000 0.000000 3.597670 
# 
# 
# High freq. dielectric constant tensor:
#      x y z
#    x 1.767620 0.000000 0.000000 
#    y 0.000000 1.727430 0.000000 
#    z 0.000000 0.000000 1.728820 
# 
# From -- ./inp_files/27529.got.cif
#   From: 2010.03.12/outbox.cif.g09.slc.cpg/sg69_14_cif.got.tgz:27529.got - 2010.04.10 23:52:46.
