data_PCOD8284711
_publ_section_title
;
Structure prediction by ZEFSAII (Michael W. Deem and Ramdas Pophale) SiO2 
 PCOD8284711
Probable space group: F M M M
;
_chemical_formula_sum "Si O2"
_cell_formula_units_Z 160
_cell_length_a 9.685628
_cell_length_b 29.122763
_cell_length_c 31.060547
_cell_angle_alpha 90.000000
_cell_angle_beta 90.000000
_cell_angle_gamma 90.000000
_cell_volume 8761.318340
_symmetry_space_group_name_H-M "F M M M"
_symmetry_group_IT_number 69
_symmetry_cell_setting 'orthorhombic'
loop_
_space_group_symop_operation_xyz
x,y,z
-x,-y,z
x,-y,-z
-x,y,-z
-x,-y,-z
x,y,-z
-x,y,z
x,-y,z
x,1/2+y,1/2+z
-x,1/2-y,1/2+z
x,1/2-y,1/2-z
-x,1/2+y,1/2-z
-x,1/2-y,1/2-z
x,1/2+y,1/2-z
-x,1/2+y,1/2+z
x,1/2-y,1/2+z
1/2+x,y,1/2+z
1/2-x,-y,1/2+z
1/2+x,-y,1/2-z
1/2-x,y,1/2-z
1/2-x,-y,1/2-z
1/2+x,y,1/2-z
1/2-x,y,1/2+z
1/2+x,-y,1/2+z
1/2+x,1/2+y,z
1/2-x,1/2-y,z
1/2+x,1/2-y,-z
1/2-x,1/2+y,-z
1/2-x,1/2-y,-z
1/2+x,1/2+y,-z
1/2-x,1/2+y,z
1/2+x,1/2-y,z
loop_
_atom_site_type_symbol
_atom_site_label
_atom_site_fract_x
_atom_site_fract_y
_atom_site_fract_z
Si Si1 0.664276 0.551652 0.626579
Si Si2 0.156590 0.291369 0.820238
Si Si3 0.837726 0.108200 0.709692
Si Si4 0.664023 0.610173 0.547648
Si Si5 0.158846 0.292059 0.921273
O O1 0.500000 0.551477 0.624478
O O2 0.722885 0.500000 0.628991
O O3 0.713146 0.579617 0.668359
O O4 0.725367 0.575677 0.583520
O O5 0.250000 0.250000 0.802289
O O6 0.197669 0.338378 0.796935
O O7 0.179054 0.299222 0.870649
O O8 0.000000 0.277608 0.810097
O O9 0.750000 0.089797 0.750000
O O10 0.000000 0.100588 0.718147
O O11 0.712532 0.594376 0.500000
O O12 0.500000 0.609831 0.551358
O O13 0.714777 0.662031 0.555951
O O14 0.250000 0.250000 0.938643
O O15 0.000000 0.282020 0.932983
#
# Coordination Sequence:
#
# PCOD8284711 Si02
#       5
#    32  32  32  32  32
#     4   9  17  31  50  70  96 129 162 200 248 295
#     4   9  17  30  48  68  96 131 164 197 237 285
#     4  10  20  34  51  73 100 130 163 201 245 291
#     4   9  16  27  46  72 100 129 162 200 242 288
#     4   9  16  28  46  69  98 132 164 195 235 283
#
# _framework density 18.262093
#
# number of rings (size 3 to 8) (size 9 to 14) (size 15 to 20)
#    0.000    2.800    2.000    0.000    0.000    2.400 
#    0.000    4.000    0.000    0.000    0.000    0.000 
#    0.000    0.000    0.000    3.600    0.000    4.000 
#
# Total GULP energy -495929.310644 kJ/mol
# GULP energy per Si atom -12398.232766 kJ/mol
# Density = 1.822053 g / cm^3
# Si number density = 18.262093 Si / 1000 Ang^3
#
#
#
# Elastic Constant Matrix: (Units=GPa)
#
#
# Indices 1 2 3 4 5 6 
#
# 1 36.0354 40.0163 33.7260 0.0000 0.0000 0.0000
# 2 40.0163 128.3948 77.6205 0.0000 0.0000 0.0000
# 3 33.7260 77.6205 129.7298 0.0000 0.0000 0.0000
# 4 0.0000 0.0000 0.0000 12.3861 0.0000 0.0000
# 5 0.0000 0.0000 0.0000 0.0000 18.0121 0.0000
# 6 0.0000 0.0000 0.0000 0.0000 0.0000 16.9244
#
#
#
# Elastic Compliance Matrix: (Units=1/GPa)
#
#
# Indices 1 2 3 4 5 6 
#
# 1 0.044512 -0.010774 -0.005125 0.000000 0.000000 0.000000
# 2 -0.010774 0.014810 -0.006060 0.000000 0.000000 0.000000
# 3 -0.005125 -0.006060 0.012667 0.000000 0.000000 0.000000
# 4 0.000000 0.000000 0.000000 0.080735 0.000000 0.000000
# 5 0.000000 0.000000 0.000000 0.000000 0.055518 0.000000
# 6 0.000000 0.000000 0.000000 0.000000 0.000000 0.059086
#
#
# Mechanical properties :
#
#
# Convention : Reuss Voigt Hill
#
# Bulk Modulus (GPa) = 35.62635 66.32062 50.97349
# Shear Modulus (GPa) = 15.59549 18.98433 17.28991
#
# Velocity S-wave (km/s) = 2.92547 3.22770 3.08029
# Velocity P-wave (km/s) = 5.56434 7.09123 6.37367
#
# Compressibility (1/GPa) = 0.02806911
#
# Stress axis : x y z
#
# Youngs Moduli (GPa) = 22.46581 67.52094 78.94686
#
# Poissons Ratio (x) = 0.72750 0.40462
# Poissons Ratio (y) = 0.24206 0.47844
# Poissons Ratio (z) = 0.11514 0.40919
#
# Static dielectric constant tensor:
#      x y z
#    x 2.925070 0.000000 0.000000 
#    y 0.000000 3.512940 0.000000 
#    z 0.000000 0.000000 3.408360 
# 
# 
# High freq. dielectric constant tensor:
#      x y z
#    x 1.650450 0.000000 0.000000 
#    y 0.000000 1.710640 0.000000 
#    z 0.000000 0.000000 1.713960 
# 
# From -- ./inp_files/10525.got.cif
#   From: 2010.03.12/outbox.cif.g09.slc.cpg/sg69_6_cif.got.tgz:10525.got - 2010.04.10 23:52:46.
