data_PCOD8284430
_publ_section_title
;
Structure prediction by ZEFSAII (Michael W. Deem and Ramdas Pophale) SiO2 
 PCOD8284430
Probable space group: F M M M
;
_chemical_formula_sum "Si O2"
_cell_formula_units_Z 160
_cell_length_a 13.543443
_cell_length_b 27.991114
_cell_length_c 23.986072
_cell_angle_alpha 90.000000
_cell_angle_beta 90.000000
_cell_angle_gamma 90.000000
_cell_volume 9093.025317
_symmetry_space_group_name_H-M "F M M M"
_symmetry_group_IT_number 69
_symmetry_cell_setting 'orthorhombic'
loop_
_space_group_symop_operation_xyz
x,y,z
-x,-y,z
x,-y,-z
-x,y,-z
-x,-y,-z
x,y,-z
-x,y,z
x,-y,z
x,1/2+y,1/2+z
-x,1/2-y,1/2+z
x,1/2-y,1/2-z
-x,1/2+y,1/2-z
-x,1/2-y,1/2-z
x,1/2+y,1/2-z
-x,1/2+y,1/2+z
x,1/2-y,1/2+z
1/2+x,y,1/2+z
1/2-x,-y,1/2+z
1/2+x,-y,1/2-z
1/2-x,y,1/2-z
1/2-x,-y,1/2-z
1/2+x,y,1/2-z
1/2-x,y,1/2+z
1/2+x,-y,1/2+z
1/2+x,1/2+y,z
1/2-x,1/2-y,z
1/2+x,1/2-y,-z
1/2-x,1/2+y,-z
1/2-x,1/2-y,-z
1/2+x,1/2+y,-z
1/2-x,1/2+y,z
1/2+x,1/2-y,z
loop_
_atom_site_type_symbol
_atom_site_label
_atom_site_fract_x
_atom_site_fract_y
_atom_site_fract_z
Si Si1 0.384673 0.346734 0.437815
Si Si2 0.617056 0.948429 0.096593
Si Si3 0.777606 0.695101 0.833550
Si Si4 0.384340 0.649913 0.768889
Si Si5 0.616326 0.551801 0.278898
O O1 0.366728 0.326271 0.500000
O O2 0.500000 0.342963 0.421143
O O3 0.349351 0.402326 0.438583
O O4 0.321055 0.316348 0.394287
O O5 0.500000 0.950589 0.097358
O O6 0.659246 0.941361 0.159033
O O7 0.655823 0.000000 0.072645
O O8 0.750000 0.750000 0.829861
O O9 0.675042 0.666978 0.823230
O O10 0.856255 0.681280 0.785522
O O11 0.500000 0.655180 0.780454
O O12 0.349003 0.595034 0.760183
O O13 0.500000 0.554087 0.283997
O O14 0.649696 0.500000 0.254203
#
# Coordination Sequence:
#
# PCOD8284430 Si02
#       5
#    32  32  32  32  32
#     4  10  20  35  55  75  99 133 167 205 254 302
#     4   8  13  24  45  73 103 132 159 192 239 295
#     4  11  23  35  50  74 101 129 170 217 252 288
#     4  10  19  34  54  75 103 135 166 200 247 302
#     4   8  13  24  46  73 102 133 159 190 236 293
#
# _framework density 17.595904000000001
#
# number of rings (size 3 to 8) (size 9 to 14) (size 15 to 20)
#    0.000    2.600    2.000    3.000    0.000    3.200 
#    0.000    5.000    0.000    0.600    0.000    0.000 
#    0.000    0.000    0.000    6.800    0.000    0.200 
#
# Total GULP energy -495532.886530 kJ/mol
# GULP energy per Si atom -12388.322163 kJ/mol
# Density = 1.755586 g / cm^3
# Si number density = 17.595904 Si / 1000 Ang^3
#
#
#
# Elastic Constant Matrix: (Units=GPa)
#
#
# Indices 1 2 3 4 5 6 
#
# 1 77.2007 26.5157 38.8153 0.0000 0.0000 0.0000
# 2 26.5157 129.8032 47.0726 0.0000 0.0000 0.0000
# 3 38.8153 47.0726 86.1015 0.0000 0.0000 0.0000
# 4 0.0000 0.0000 0.0000 46.4280 0.0000 0.0000
# 5 0.0000 0.0000 0.0000 0.0000 24.9747 0.0000
# 6 0.0000 0.0000 0.0000 0.0000 0.0000 39.1539
#
#
#
# Elastic Compliance Matrix: (Units=1/GPa)
#
#
# Indices 1 2 3 4 5 6 
#
# 1 0.016826 -0.000856 -0.007117 0.000000 0.000000 0.000000
# 2 -0.000856 0.009653 -0.004891 0.000000 0.000000 0.000000
# 3 -0.007117 -0.004891 0.017497 0.000000 0.000000 0.000000
# 4 0.000000 0.000000 0.000000 0.021539 0.000000 0.000000
# 5 0.000000 0.000000 0.000000 0.000000 0.040040 0.000000
# 6 0.000000 0.000000 0.000000 0.000000 0.000000 0.025540
#
#
# Mechanical properties :
#
#
# Convention : Reuss Voigt Hill
#
# Bulk Modulus (GPa) = 54.80619 57.54584 56.17601
# Shear Modulus (GPa) = 30.69264 34.15813 32.42538
#
# Velocity S-wave (km/s) = 4.18102 4.41075 4.29742
# Velocity P-wave (km/s) = 7.38395 7.66255 7.52454
#
# Compressibility (1/GPa) = 0.01824611
#
# Stress axis : x y z
#
# Youngs Moduli (GPa) = 59.43300 103.59851 57.15336
#
# Poissons Ratio (x) = 0.08869 0.40677
# Poissons Ratio (y) = 0.05088 0.27955
# Poissons Ratio (z) = 0.42299 0.50673
#
# Static dielectric constant tensor:
#      x y z
#    x 3.007490 0.000000 0.000000 
#    y 0.000000 3.709340 0.000000 
#    z 0.000000 0.000000 3.056970 
# 
# 
# High freq. dielectric constant tensor:
#      x y z
#    x 1.646570 0.000000 0.000000 
#    y 0.000000 1.696040 0.000000 
#    z 0.000000 0.000000 1.648870 
# 
# From -- ./inp_files/17976.got.cif
#   From: 2010.03.12/outbox.cif.g09.slc.cpg/sg69_9_cif.got.tgz:17976.got - 2010.04.10 23:52:46.
