data_PCOD8284560
_publ_section_title
;
Structure prediction by ZEFSAII (Michael W. Deem and Ramdas Pophale) SiO2 
 PCOD8284560
Probable space group: F M M M
;
_chemical_formula_sum "Si O2"
_cell_formula_units_Z 144
_cell_length_a 15.801362
_cell_length_b 19.098459
_cell_length_c 23.087543
_cell_angle_alpha 90.000000
_cell_angle_beta 90.000000
_cell_angle_gamma 90.000000
_cell_volume 6967.397151
_symmetry_space_group_name_H-M "F M M M"
_symmetry_group_IT_number 69
_symmetry_cell_setting 'orthorhombic'
loop_
_space_group_symop_operation_xyz
x,y,z
-x,-y,z
x,-y,-z
-x,y,-z
-x,-y,-z
x,y,-z
-x,y,z
x,-y,z
x,1/2+y,1/2+z
-x,1/2-y,1/2+z
x,1/2-y,1/2-z
-x,1/2+y,1/2-z
-x,1/2-y,1/2-z
x,1/2+y,1/2-z
-x,1/2+y,1/2+z
x,1/2-y,1/2+z
1/2+x,y,1/2+z
1/2-x,-y,1/2+z
1/2+x,-y,1/2-z
1/2-x,y,1/2-z
1/2-x,-y,1/2-z
1/2+x,y,1/2-z
1/2-x,y,1/2+z
1/2+x,-y,1/2+z
1/2+x,1/2+y,z
1/2-x,1/2-y,z
1/2+x,1/2-y,-z
1/2-x,1/2+y,-z
1/2-x,1/2-y,-z
1/2+x,1/2+y,-z
1/2-x,1/2+y,z
1/2+x,1/2-y,z
loop_
_atom_site_type_symbol
_atom_site_label
_atom_site_fract_x
_atom_site_fract_y
_atom_site_fract_z
Si Si1 0.000000 0.577519 0.433056
Si Si2 0.840167 0.829457 0.433078
Si Si3 0.900689 0.922434 0.332796
Si Si4 0.649979 0.823495 0.395943
Si Si5 0.096317 0.171539 0.228812
O O1 0.916081 0.620151 0.418280
O O2 0.000000 0.500000 0.402530
O O3 0.000000 0.563797 0.500000
O O4 0.864325 0.840969 0.500000
O O5 0.881654 0.890145 0.395312
O O6 0.739555 0.835193 0.426076
O O7 0.878745 0.755463 0.411497
O O8 0.864292 0.876781 0.279448
O O9 0.000000 0.925903 0.324733
O O10 0.860538 0.000000 0.330032
O O11 0.657099 0.833733 0.326801
O O12 0.096069 0.250000 0.250000
O O13 0.000000 0.149348 0.211546
#
# Coordination Sequence:
#
# PCOD8284560 Si02
#       5
#    16  32  32  32  32
#     4  11  24  40  61  92 127 169 217 264 320 384
#     4  11  24  41  63  93 128 169 214 262 313 370
#     4  10  23  42  64  93 128 165 206 255 314 379
#     4  11  22  41  64  92 127 163 213 263 317 377
#     4  10  19  37  64  92 122 158 202 257 312 369
#
# _framework density 20.667688999999999
#
# number of rings (size 3 to 8) (size 9 to 14) (size 15 to 20)
#    0.000    1.444    3.333    2.667    1.556    3.556 
#    0.000    2.222    0.000    0.000    0.000    0.000 
#    0.000    0.000    0.000    0.000    0.000    0.000 
#
# Total GULP energy -446403.448729 kJ/mol
# GULP energy per Si atom -12400.095798 kJ/mol
# Density = 2.062065 g / cm^3
# Si number density = 20.667689 Si / 1000 Ang^3
#
#
#
# Elastic Constant Matrix: (Units=GPa)
#
#
# Indices 1 2 3 4 5 6 
#
# 1 39.7217 38.8804 12.7667 0.0000 0.0000 0.0000
# 2 38.8804 170.6455 67.0432 0.0000 0.0000 0.0000
# 3 12.7667 67.0432 177.9758 0.0000 0.0000 0.0000
# 4 0.0000 0.0000 0.0000 29.3295 0.0000 0.0000
# 5 0.0000 0.0000 0.0000 0.0000 51.5882 0.0000
# 6 0.0000 0.0000 0.0000 0.0000 0.0000 22.6293
#
#
#
# Elastic Compliance Matrix: (Units=1/GPa)
#
#
# Indices 1 2 3 4 5 6 
#
# 1 0.032445 -0.007603 0.000537 0.000000 0.000000 0.000000
# 2 -0.007603 0.008660 -0.002717 0.000000 0.000000 0.000000
# 3 0.000537 -0.002717 0.006604 0.000000 0.000000 0.000000
# 4 0.000000 0.000000 0.000000 0.034095 0.000000 0.000000
# 5 0.000000 0.000000 0.000000 0.000000 0.019384 0.000000
# 6 0.000000 0.000000 0.000000 0.000000 0.000000 0.044190
#
#
# Mechanical properties :
#
#
# Convention : Reuss Voigt Hill
#
# Bulk Modulus (GPa) = 35.53426 69.52483 52.52955
# Shear Modulus (GPa) = 28.68202 38.68626 33.68414
#
# Velocity S-wave (km/s) = 3.72932 4.33115 4.04145
# Velocity P-wave (km/s) = 5.98116 7.66317 6.87381
#
# Compressibility (1/GPa) = 0.02814186
#
# Stress axis : x y z
#
# Youngs Moduli (GPa) = 30.82159 115.47625 151.43202
#
# Poissons Ratio (x) = 0.87799 -0.08128
# Poissons Ratio (y) = 0.23434 0.41140
# Poissons Ratio (z) = -0.01654 0.31372
#
# Static dielectric constant tensor:
#      x y z
#    x 3.577910 0.000000 0.000000 
#    y 0.000000 4.087860 0.000000 
#    z 0.000000 0.000000 4.067600 
# 
# 
# High freq. dielectric constant tensor:
#      x y z
#    x 1.789670 0.000000 0.000000 
#    y 0.000000 1.809690 0.000000 
#    z 0.000000 0.000000 1.822570 
# 
# From -- ./inp_files/30720.got.cif
#   From: 2010.03.12/outbox.cif.g09.slc.cpg/sg69_16_cif.got.tgz:30720.got - 2010.04.10 23:52:46.
