data_PCOD8284384
_publ_section_title
;
Structure prediction by ZEFSAII (Michael W. Deem and Ramdas Pophale) SiO2 
 PCOD8284384
Probable space group: F M M M
;
_chemical_formula_sum "Si O2"
_cell_formula_units_Z 176
_cell_length_a 32.953833
_cell_length_b 18.587376
_cell_length_c 15.321416
_cell_angle_alpha 90.000000
_cell_angle_beta 90.000000
_cell_angle_gamma 90.000000
_cell_volume 9384.754696
_symmetry_space_group_name_H-M "F M M M"
_symmetry_group_IT_number 69
_symmetry_cell_setting 'orthorhombic'
loop_
_space_group_symop_operation_xyz
x,y,z
-x,-y,z
x,-y,-z
-x,y,-z
-x,-y,-z
x,y,-z
-x,y,z
x,-y,z
x,1/2+y,1/2+z
-x,1/2-y,1/2+z
x,1/2-y,1/2-z
-x,1/2+y,1/2-z
-x,1/2-y,1/2-z
x,1/2+y,1/2-z
-x,1/2+y,1/2+z
x,1/2-y,1/2+z
1/2+x,y,1/2+z
1/2-x,-y,1/2+z
1/2+x,-y,1/2-z
1/2-x,y,1/2-z
1/2-x,-y,1/2-z
1/2+x,y,1/2-z
1/2-x,y,1/2+z
1/2+x,-y,1/2+z
1/2+x,1/2+y,z
1/2-x,1/2-y,z
1/2+x,1/2-y,-z
1/2-x,1/2+y,-z
1/2-x,1/2-y,-z
1/2+x,1/2+y,-z
1/2-x,1/2+y,z
1/2+x,1/2-y,z
loop_
_atom_site_type_symbol
_atom_site_label
_atom_site_fract_x
_atom_site_fract_y
_atom_site_fract_z
Si Si1 0.283003 0.419160 0.173382
Si Si2 0.000000 0.085111 0.399697
Si Si3 0.954594 0.585218 0.594882
Si Si4 0.655493 0.668454 0.724717
Si Si5 0.272906 0.816967 0.903162
Si Si6 0.575829 0.585717 0.280554
O O1 0.296270 0.500000 0.149938
O O2 0.250000 0.416388 0.250000
O O3 0.323793 0.374445 0.194929
O O4 0.259113 0.383051 0.093052
O O5 0.039595 0.110500 0.345283
O O6 0.000000 0.115797 0.500000
O O7 0.000000 0.000000 0.404212
O O8 0.935210 0.608334 0.500000
O O9 0.956650 0.500000 0.600195
O O10 0.930992 0.612780 0.680370
O O11 0.000000 0.616606 0.599696
O O12 0.644599 0.750000 0.750000
O O13 0.685878 0.664426 0.644439
O O14 0.616032 0.626874 0.689738
O O15 0.250000 0.750000 0.855807
O O16 0.285461 0.794699 0.000000
O O17 0.582000 0.500000 0.285682
#
# Coordination Sequence:
#
# PCOD8284384 Si02
#       6
#    32  16  32  32  32  32
#     4   9  18  33  55  80 105 137 181 230 275 325
#     4   9  18  34  56  79 107 147 190 233 283 333
#     4   8  13  25  49  77 103 136 178 224 275 331
#     4  11  21  35  55  80 110 149 185 227 282 341
#     4  10  20  36  58  80 107 146 190 230 277 341
#     4  10  19  33  54  83 113 143 187 236 279 333
#
# _framework density 18.753820999999999
#
# number of rings (size 3 to 8) (size 9 to 14) (size 15 to 20)
#    0.000    2.455    2.727    1.091    0.000    1.818 
#    0.000    2.273    0.000    2.182    0.000    0.000 
#    0.000    0.000    0.000    0.000    0.000    0.000 
#
# Total GULP energy -545198.663941 kJ/mol
# GULP energy per Si atom -12390.878726 kJ/mol
# Density = 1.871114 g / cm^3
# Si number density = 18.753821 Si / 1000 Ang^3
#
#
#
# Elastic Constant Matrix: (Units=GPa)
#
#
# Indices 1 2 3 4 5 6 
#
# 1 137.6961 48.2562 54.4398 0.0000 0.0000 0.0000
# 2 48.2562 89.3360 24.1450 0.0000 0.0000 0.0000
# 3 54.4398 24.1450 111.2781 0.0000 0.0000 0.0000
# 4 0.0000 0.0000 0.0000 14.0725 0.0000 0.0000
# 5 0.0000 0.0000 0.0000 0.0000 15.8823 0.0000
# 6 0.0000 0.0000 0.0000 0.0000 0.0000 27.5228
#
#
#
# Elastic Compliance Matrix: (Units=1/GPa)
#
#
# Indices 1 2 3 4 5 6 
#
# 1 0.010497 -0.004549 -0.004148 0.000000 0.000000 0.000000
# 2 -0.004549 0.013862 -0.000782 0.000000 0.000000 0.000000
# 3 -0.004148 -0.000782 0.011186 0.000000 0.000000 0.000000
# 4 0.000000 0.000000 0.000000 0.071060 0.000000 0.000000
# 5 0.000000 0.000000 0.000000 0.000000 0.062963 0.000000
# 6 0.000000 0.000000 0.000000 0.000000 0.000000 0.036334
#
#
# Mechanical properties :
#
#
# Convention : Reuss Voigt Hill
#
# Bulk Modulus (GPa) = 60.29295 65.77692 63.03494
# Shear Modulus (GPa) = 21.70244 25.59346 23.64795
#
# Velocity S-wave (km/s) = 3.40550 3.69820 3.55486
# Velocity P-wave (km/s) = 6.90526 7.30655 7.10874
#
# Compressibility (1/GPa) = 0.01658569
#
# Stress axis : x y z
#
# Youngs Moduli (GPa) = 95.26973 72.13835 89.40028
#
# Poissons Ratio (x) = 0.32814 0.37085
# Poissons Ratio (y) = 0.43336 0.06995
# Poissons Ratio (z) = 0.39519 0.05645
#
# Static dielectric constant tensor:
#      x y z
#    x 3.336510 0.000000 0.000000 
#    y 0.000000 3.277950 0.000000 
#    z 0.000000 0.000000 3.540200 
# 
# 
# High freq. dielectric constant tensor:
#      x y z
#    x 1.719960 0.000000 0.000000 
#    y 0.000000 1.701410 0.000000 
#    z 0.000000 0.000000 1.721260 
# 
# From -- ./inp_files/27715.got.cif
#   From: 2010.03.12/outbox.cif.g09.slc.cpg/sg69_14_cif.got.tgz:27715.got - 2010.04.10 23:52:46.
