data_PCOD8284068
_publ_section_title
;
Structure prediction by ZEFSAII (Michael W. Deem and Ramdas Pophale) SiO2 
 PCOD8284068
Probable space group: F M M M
;
_chemical_formula_sum "Si O2"
_cell_formula_units_Z 208
_cell_length_a 27.101439
_cell_length_b 18.423293
_cell_length_c 22.547361
_cell_angle_alpha 90.000000
_cell_angle_beta 90.000000
_cell_angle_gamma 90.000000
_cell_volume 11257.846648
_symmetry_space_group_name_H-M "F M M M"
_symmetry_group_IT_number 69
_symmetry_cell_setting 'orthorhombic'
loop_
_space_group_symop_operation_xyz
x,y,z
-x,-y,z
x,-y,-z
-x,y,-z
-x,-y,-z
x,y,-z
-x,y,z
x,-y,z
x,1/2+y,1/2+z
-x,1/2-y,1/2+z
x,1/2-y,1/2-z
-x,1/2+y,1/2-z
-x,1/2-y,1/2-z
x,1/2+y,1/2-z
-x,1/2+y,1/2+z
x,1/2-y,1/2+z
1/2+x,y,1/2+z
1/2-x,-y,1/2+z
1/2+x,-y,1/2-z
1/2-x,y,1/2-z
1/2-x,-y,1/2-z
1/2+x,y,1/2-z
1/2-x,y,1/2+z
1/2+x,-y,1/2+z
1/2+x,1/2+y,z
1/2-x,1/2-y,z
1/2+x,1/2-y,-z
1/2-x,1/2+y,-z
1/2-x,1/2-y,-z
1/2+x,1/2+y,-z
1/2-x,1/2+y,z
1/2+x,1/2-y,z
loop_
_atom_site_type_symbol
_atom_site_label
_atom_site_fract_x
_atom_site_fract_y
_atom_site_fract_z
Si Si1 0.279302 0.178585 0.430635
Si Si2 0.190915 0.579876 0.930786
Si Si3 0.900554 0.173681 0.569681
Si Si4 0.111035 0.337149 0.603459
Si Si5 0.943745 0.422245 0.836918
Si Si6 0.442414 0.414752 0.793350
Si Si7 0.944001 0.414573 0.500000
O O1 0.292485 0.189238 0.500000
O O2 0.250000 0.250000 0.408130
O O3 0.245576 0.108843 0.417912
O O4 0.329524 0.162696 0.395666
O O5 0.184887 0.500000 0.901008
O O6 0.151290 0.638964 0.908050
O O7 0.182262 0.572028 0.000000
O O8 0.910355 0.161698 0.500000
O O9 0.905553 0.256987 0.585785
O O10 0.941104 0.133260 0.608816
O O11 0.091239 0.361994 0.666977
O O12 0.086942 0.391772 0.557031
O O13 0.919418 0.500000 0.855285
O O14 0.922904 0.395769 0.773214
O O15 0.000000 0.436630 0.822252
O O16 0.500000 0.395381 0.803994
O O17 0.433424 0.500000 0.807540
O O18 0.948078 0.500000 0.500000
O O19 0.000000 0.381797 0.500000
#
# Coordination Sequence:
#
# PCOD8284068 Si02
#       7
#    32  32  32  32  32  32  16
#     4  10  18  33  53  76 116 152 188 243 291 339
#     4   9  18  31  51  77 108 148 188 229 283 347
#     4  11  21  35  54  84 120 150 184 235 297 349
#     4  12  21  35  57  84 114 155 193 233 293 349
#     4   9  20  39  60  81 109 149 195 242 290 344
#     4   9  20  40  61  81 111 153 200 245 287 342
#     4  11  24  38  51  78 121 161 196 241 294 344
#
# _framework density 18.476002000000001
#
# number of rings (size 3 to 8) (size 9 to 14) (size 15 to 20)
#    0.000    1.923    3.077    2.308    0.000    5.538 
#    0.000    2.308    0.000    0.923    0.000    3.231 
#    0.000    0.000    0.000    0.000    0.000    0.000 
#
# Total GULP energy -644439.031669 kJ/mol
# GULP energy per Si atom -12393.058301 kJ/mol
# Density = 1.843395 g / cm^3
# Si number density = 18.476002 Si / 1000 Ang^3
#
#
#
# Elastic Constant Matrix: (Units=GPa)
#
#
# Indices 1 2 3 4 5 6 
#
# 1 86.1939 34.7871 35.4496 0.0000 0.0000 0.0000
# 2 34.7871 100.5253 50.8459 0.0000 0.0000 0.0000
# 3 35.4496 50.8459 101.4003 0.0000 0.0000 0.0000
# 4 0.0000 0.0000 0.0000 13.8678 0.0000 0.0000
# 5 0.0000 0.0000 0.0000 0.0000 5.2992 0.0000
# 6 0.0000 0.0000 0.0000 0.0000 0.0000 20.5581
#
#
#
# Elastic Compliance Matrix: (Units=1/GPa)
#
#
# Indices 1 2 3 4 5 6 
#
# 1 0.014297 -0.003242 -0.003373 0.000000 0.000000 0.000000
# 2 -0.003242 0.014063 -0.005918 0.000000 0.000000 0.000000
# 3 -0.003373 -0.005918 0.014009 0.000000 0.000000 0.000000
# 4 0.000000 0.000000 0.000000 0.072110 0.000000 0.000000
# 5 0.000000 0.000000 0.000000 0.000000 0.188708 0.000000
# 6 0.000000 0.000000 0.000000 0.000000 0.000000 0.048643
#
#
# Mechanical properties :
#
#
# Convention : Reuss Voigt Hill
#
# Bulk Modulus (GPa) = 57.79270 58.92051 58.35661
# Shear Modulus (GPa) = 13.06635 19.08083 16.07359
#
# Velocity S-wave (km/s) = 2.66222 3.21711 2.95273
# Velocity P-wave (km/s) = 6.38731 6.76456 6.57864
#
# Compressibility (1/GPa) = 0.01730322
#
# Stress axis : x y z
#
# Youngs Moduli (GPa) = 69.94372 71.10814 71.38370
#
# Poissons Ratio (x) = 0.23050 0.24077
# Poissons Ratio (y) = 0.22673 0.42248
# Poissons Ratio (z) = 0.23591 0.42085
#
# Static dielectric constant tensor:
#      x y z
#    x 3.363420 0.000000 0.000000 
#    y 0.000000 3.522950 0.000000 
#    z 0.000000 0.000000 3.221650 
# 
# 
# High freq. dielectric constant tensor:
#      x y z
#    x 1.711030 0.000000 0.000000 
#    y 0.000000 1.727530 0.000000 
#    z 0.000000 0.000000 1.687940 
# 
# From -- ./inp_files/38473.got.cif
#   From: 2010.03.12/outbox.cif.g09.slc.cpg/sg69_20_cif.got.tgz:38473.got - 2010.04.10 23:52:46.
