data_PCOD8284921
_publ_section_title
;
Structure prediction by ZEFSAII (Michael W. Deem and Ramdas Pophale) SiO2 
 PCOD8284921
Probable space group: F M M M
;
_chemical_formula_sum "Si O2"
_cell_formula_units_Z 160
_cell_length_a 28.514358
_cell_length_b 16.586218
_cell_length_c 16.267142
_cell_angle_alpha 90.000000
_cell_angle_beta 90.000000
_cell_angle_gamma 90.000000
_cell_volume 7693.469295
_symmetry_space_group_name_H-M "F M M M"
_symmetry_group_IT_number 69
_symmetry_cell_setting 'orthorhombic'
loop_
_space_group_symop_operation_xyz
x,y,z
-x,-y,z
x,-y,-z
-x,y,-z
-x,-y,-z
x,y,-z
-x,y,z
x,-y,z
x,1/2+y,1/2+z
-x,1/2-y,1/2+z
x,1/2-y,1/2-z
-x,1/2+y,1/2-z
-x,1/2-y,1/2-z
x,1/2+y,1/2-z
-x,1/2+y,1/2+z
x,1/2-y,1/2+z
1/2+x,y,1/2+z
1/2-x,-y,1/2+z
1/2+x,-y,1/2-z
1/2-x,y,1/2-z
1/2-x,-y,1/2-z
1/2+x,y,1/2-z
1/2-x,y,1/2+z
1/2+x,-y,1/2+z
1/2+x,1/2+y,z
1/2-x,1/2-y,z
1/2+x,1/2-y,-z
1/2-x,1/2+y,-z
1/2-x,1/2-y,-z
1/2+x,1/2+y,-z
1/2-x,1/2+y,z
1/2+x,1/2-y,z
loop_
_atom_site_type_symbol
_atom_site_label
_atom_site_fract_x
_atom_site_fract_y
_atom_site_fract_z
Si Si1 0.446254 0.698036 0.667824
Si Si2 0.364470 0.595854 0.000000
Si Si3 0.947150 0.793827 0.000000
Si Si4 0.729995 0.337537 0.406143
Si Si5 0.315373 0.092039 0.340302
Si Si6 0.857297 0.096240 0.672159
O O1 0.500000 0.666640 0.669443
O O2 0.436306 0.750000 0.750000
O O3 0.436283 0.745176 0.583333
O O4 0.411661 0.621209 0.665840
O O5 0.338752 0.633636 0.920293
O O6 0.362533 0.500000 0.000000
O O7 0.417801 0.624304 0.000000
O O8 0.000000 0.824057 0.000000
O O9 0.741639 0.357272 0.500000
O O10 0.750000 0.250000 0.382013
O O11 0.759141 0.398199 0.347130
O O12 0.674722 0.354289 0.392862
O O13 0.337081 0.129413 0.258405
O O14 0.329931 0.000000 0.339330
O O15 0.853075 0.000000 0.658686
#
# Coordination Sequence:
#
# PCOD8284921 Si02
#       6
#    32  16  16  32  32  32
#     4  10  23  43  67  93 125 167 208 261 324 374
#     4  10  20  35  62  87 118 163 203 254 316 366
#     4  10  22  39  62  91 124 159 207 261 311 379
#     4  11  25  39  59  90 122 167 212 253 301 368
#     4  10  21  39  58  84 122 162 201 251 310 366
#     4  11  25  40  62  94 126 164 212 259 311 375
#
# _framework density 20.796859999999999
#
# number of rings (size 3 to 8) (size 9 to 14) (size 15 to 20)
#    0.000    1.600    1.000    2.400    7.000    4.200 
#    0.000    0.000    0.000    9.000    0.000    0.000 
#    0.000    0.000    0.000    0.000    0.000    0.000 
#
# Total GULP energy -495838.989881 kJ/mol
# GULP energy per Si atom -12395.974747 kJ/mol
# Density = 2.074953 g / cm^3
# Si number density = 20.796860 Si / 1000 Ang^3
#
#
#
# Elastic Constant Matrix: (Units=GPa)
#
#
# Indices 1 2 3 4 5 6 
#
# 1 138.5955 45.2077 21.7980 0.0000 0.0000 0.0000
# 2 45.2077 57.7295 21.2659 0.0000 0.0000 0.0000
# 3 21.7980 21.2659 105.4550 0.0000 0.0000 0.0000
# 4 0.0000 0.0000 0.0000 18.4787 0.0000 0.0000
# 5 0.0000 0.0000 0.0000 0.0000 19.4442 0.0000
# 6 0.0000 0.0000 0.0000 0.0000 0.0000 43.2265
#
#
#
# Elastic Compliance Matrix: (Units=1/GPa)
#
#
# Indices 1 2 3 4 5 6 
#
# 1 0.009716 -0.007420 -0.000512 0.000000 0.000000 0.000000
# 2 -0.007420 0.024379 -0.003382 0.000000 0.000000 0.000000
# 3 -0.000512 -0.003382 0.010271 0.000000 0.000000 0.000000
# 4 0.000000 0.000000 0.000000 0.054116 0.000000 0.000000
# 5 0.000000 0.000000 0.000000 0.000000 0.051429 0.000000
# 6 0.000000 0.000000 0.000000 0.000000 0.000000 0.023134
#
#
# Mechanical properties :
#
#
# Convention : Reuss Voigt Hill
#
# Bulk Modulus (GPa) = 46.00558 53.14704 49.57631
# Shear Modulus (GPa) = 24.64035 30.46379 27.55207
#
# Velocity S-wave (km/s) = 3.44584 3.83146 3.64375
# Velocity P-wave (km/s) = 6.16451 6.72192 6.44924
#
# Compressibility (1/GPa) = 0.02173649
#
# Stress axis : x y z
#
# Youngs Moduli (GPa) = 102.92248 41.01944 97.36477
#
# Poissons Ratio (x) = 0.30436 0.04986
# Poissons Ratio (y) = 0.76368 0.32933
# Poissons Ratio (z) = 0.05270 0.13875
#
# Static dielectric constant tensor:
#      x y z
#    x 3.787510 0.000000 0.000000 
#    y 0.000000 3.358870 0.000000 
#    z 0.000000 0.000000 4.174480 
# 
# 
# High freq. dielectric constant tensor:
#      x y z
#    x 1.821270 0.000000 0.000000 
#    y 0.000000 1.788060 0.000000 
#    z 0.000000 0.000000 1.834240 
# 
# From -- ./inp_files/19567.got.cif
#   From: 2010.03.12/outbox.cif.g09.slc.cpg/sg69_10_cif.got.tgz:19567.got - 2010.04.10 23:52:46.
