data_PCOD8284867
_publ_section_title
;
Structure prediction by ZEFSAII (Michael W. Deem and Ramdas Pophale) SiO2 
 PCOD8284867
Probable space group: F M M M
;
_chemical_formula_sum "Si O2"
_cell_formula_units_Z 160
_cell_length_a 36.336749
_cell_length_b 8.874354
_cell_length_c 25.707873
_cell_angle_alpha 90.000000
_cell_angle_beta 90.000000
_cell_angle_gamma 90.000000
_cell_volume 8289.893736
_symmetry_space_group_name_H-M "F M M M"
_symmetry_group_IT_number 69
_symmetry_cell_setting 'orthorhombic'
loop_
_space_group_symop_operation_xyz
x,y,z
-x,-y,z
x,-y,-z
-x,y,-z
-x,-y,-z
x,y,-z
-x,y,z
x,-y,z
x,1/2+y,1/2+z
-x,1/2-y,1/2+z
x,1/2-y,1/2-z
-x,1/2+y,1/2-z
-x,1/2-y,1/2-z
x,1/2+y,1/2-z
-x,1/2+y,1/2+z
x,1/2-y,1/2+z
1/2+x,y,1/2+z
1/2-x,-y,1/2+z
1/2+x,-y,1/2-z
1/2-x,y,1/2-z
1/2-x,-y,1/2-z
1/2+x,y,1/2-z
1/2-x,y,1/2+z
1/2+x,-y,1/2+z
1/2+x,1/2+y,z
1/2-x,1/2-y,z
1/2+x,1/2-y,-z
1/2-x,1/2+y,-z
1/2-x,1/2-y,-z
1/2+x,1/2+y,-z
1/2-x,1/2+y,z
1/2+x,1/2-y,z
loop_
_atom_site_type_symbol
_atom_site_label
_atom_site_fract_x
_atom_site_fract_y
_atom_site_fract_z
Si Si1 0.958192 0.322724 0.197341
Si Si2 0.457557 0.677654 0.000000
Si Si3 0.416012 0.822121 0.904445
Si Si4 0.788667 0.822865 0.803634
Si Si5 0.710558 0.676392 0.000000
Si Si6 0.337732 0.175810 0.597772
O O1 0.956208 0.500000 0.203896
O O2 0.942443 0.250000 0.250000
O O3 0.933050 0.266819 0.150030
O O4 0.000000 0.268566 0.187048
O O5 0.438609 0.743127 0.050631
O O6 0.452466 0.500000 0.000000
O O7 0.500000 0.726328 0.000000
O O8 0.373843 0.775377 0.906557
O O9 0.419660 0.000000 0.911528
O O10 0.803144 0.750000 0.750000
O O11 0.750000 0.750000 0.820301
O O12 0.818348 0.787531 0.847750
O O13 0.782790 0.000000 0.795860
O O14 0.750000 0.750000 0.000000
O O15 0.688682 0.727851 0.051171
O O16 0.716806 0.500000 0.000000
O O17 0.347942 0.000000 0.592792
#
# Coordination Sequence:
#
# PCOD8284867 Si02
#       6
#    32  16  32  32  16  32
#     4   9  19  36  57  82 112 146 186 231 277 326
#     4  11  24  41  62  86 113 149 190 231 280 339
#     4  11  23  38  59  86 116 150 188 234 283 331
#     4  10  20  35  56  81 110 147 190 236 283 334
#     4  10  21  38  59  81 106 138 177 224 273 325
#     4  10  22  38  56  81 114 148 182 225 279 337
#
# _framework density 19.300609000000001
#
# number of rings (size 3 to 8) (size 9 to 14) (size 15 to 20)
#    0.000    1.900    0.000    3.900    0.000    7.200 
#    0.000    6.000    0.000    0.000    0.000    0.000 
#    0.000    0.000    0.000    0.000    0.000    0.000 
#
# Total GULP energy -496172.156180 kJ/mol
# GULP energy per Si atom -12404.303905 kJ/mol
# Density = 1.925668 g / cm^3
# Si number density = 19.300609 Si / 1000 Ang^3
#
#
#
# Elastic Constant Matrix: (Units=GPa)
#
#
# Indices 1 2 3 4 5 6 
#
# 1 144.4929 54.4907 93.1014 0.0001 0.0000 -0.0002
# 2 54.4907 67.4576 56.4111 0.0000 0.0000 -0.0003
# 3 93.1014 56.4111 168.0450 0.0000 0.0000 0.0000
# 4 0.0001 0.0000 0.0000 37.3943 0.0000 -0.0001
# 5 0.0000 0.0000 0.0000 0.0000 28.0010 0.0000
# 6 -0.0002 -0.0003 0.0000 -0.0001 0.0000 29.7251
#
#
#
# Elastic Compliance Matrix: (Units=1/GPa)
#
#
# Indices 1 2 3 4 5 6 
#
# 1 0.012227 -0.005856 -0.004809 0.000000 0.000000 0.000000
# 2 -0.005856 0.023414 -0.004616 0.000000 0.000000 0.000000
# 3 -0.004809 -0.004616 0.010164 0.000000 0.000000 0.000000
# 4 0.000000 0.000000 0.000000 0.026742 0.000000 0.000000
# 5 0.000000 0.000000 0.000000 0.000000 0.035713 0.000000
# 6 0.000000 0.000000 0.000000 0.000000 0.000000 0.033642
#
#
# Mechanical properties :
#
#
# Convention : Reuss Voigt Hill
#
# Bulk Modulus (GPa) = 65.59195 87.55575 76.57385
# Shear Modulus (GPa) = 28.16196 30.75691 29.45943
#
# Velocity S-wave (km/s) = 3.82399 3.99629 3.91109
# Velocity P-wave (km/s) = 7.31815 8.17046 7.75603
#
# Compressibility (1/GPa) = 0.01524577
#
# Stress axis : x y z
#
# Youngs Moduli (GPa) = 81.78354 42.70918 98.38406
#
# Poissons Ratio (x) = 0.25010 0.47308
# Poissons Ratio (y) = 0.47892 0.45410
# Poissons Ratio (z) = 0.39326 0.19713
#
# Static dielectric constant tensor:
#      x y z
#    x 3.491750 0.000000 0.000000 
#    y 0.000000 3.512270 0.000000 
#    z 0.000000 0.000000 5.349510 
# 
# 
# High freq. dielectric constant tensor:
#      x y z
#    x 1.753860 0.000000 0.000000 
#    y 0.000000 1.752750 0.000000 
#    z 0.000000 0.000000 1.770380 
# 
# From -- ./inp_files/47509.got.cif
#   From: 2010.03.12/outbox.cif.g09.slc.cpg/sg69_24_cif.got.tgz:47509.got - 2010.04.10 23:52:46.
