data_PCOD8284836
_publ_section_title
;
Structure prediction by ZEFSAII (Michael W. Deem and Ramdas Pophale) SiO2 
 PCOD8284836
Probable space group: F M M M
;
_chemical_formula_sum "Si O2"
_cell_formula_units_Z 128
_cell_length_a 24.536948
_cell_length_b 9.153371
_cell_length_c 29.099433
_cell_angle_alpha 90.000000
_cell_angle_beta 90.000000
_cell_angle_gamma 90.000000
_cell_volume 6535.610092
_symmetry_space_group_name_H-M "F M M M"
_symmetry_group_IT_number 69
_symmetry_cell_setting 'orthorhombic'
loop_
_space_group_symop_operation_xyz
x,y,z
-x,-y,z
x,-y,-z
-x,y,-z
-x,-y,-z
x,y,-z
-x,y,z
x,-y,z
x,1/2+y,1/2+z
-x,1/2-y,1/2+z
x,1/2-y,1/2-z
-x,1/2+y,1/2-z
-x,1/2-y,1/2-z
x,1/2+y,1/2-z
-x,1/2+y,1/2+z
x,1/2-y,1/2+z
1/2+x,y,1/2+z
1/2-x,-y,1/2+z
1/2+x,-y,1/2-z
1/2-x,y,1/2-z
1/2-x,-y,1/2-z
1/2+x,y,1/2-z
1/2-x,y,1/2+z
1/2+x,-y,1/2+z
1/2+x,1/2+y,z
1/2-x,1/2-y,z
1/2+x,1/2-y,-z
1/2-x,1/2+y,-z
1/2-x,1/2-y,-z
1/2+x,1/2+y,-z
1/2-x,1/2+y,z
1/2+x,1/2-y,z
loop_
_atom_site_type_symbol
_atom_site_label
_atom_site_fract_x
_atom_site_fract_y
_atom_site_fract_z
Si Si1 0.596693 0.170710 0.364622
Si Si2 0.806937 0.330880 0.898186
Si Si3 0.806170 0.334213 0.000000
Si Si4 0.936552 0.160877 0.550455
Si Si5 0.500000 0.327797 0.798347
O O1 0.652953 0.261701 0.359873
O O2 0.572393 0.207566 0.414345
O O3 0.554066 0.221228 0.325761
O O4 0.609187 0.000000 0.361301
O O5 0.797192 0.500000 0.887311
O O6 0.750000 0.250000 0.895250
O O7 0.834931 0.304013 0.949587
O O8 0.750000 0.250000 0.000000
O O9 0.787077 0.500000 0.000000
O O10 0.907885 0.188476 0.500000
O O11 0.000000 0.152016 0.540910
O O12 0.916575 0.000000 0.569359
O O13 0.500000 0.500000 0.791077
O O14 0.500000 0.250000 0.750000
#
# Coordination Sequence:
#
# PCOD8284836 Si02
#       5
#    32  32  16  32  16
#     4  11  22  37  56  84 117 150 189 237 289 344
#     4  10  20  35  54  80 114 157 201 242 281 330
#     4   8  16  30  48  71 106 149 199 241 271 311
#     4   9  18  32  50  75 110 152 195 234 273 328
#     4  10  24  44  65  88 115 143 184 237 295 358
#
# _framework density 19.585011000000002
#
# number of rings (size 3 to 8) (size 9 to 14) (size 15 to 20)
#    0.000    2.250    1.250    2.250    1.750    3.500 
#    0.000    1.250    0.000    0.750    0.000    5.250 
#    0.000    0.000    0.000    0.000    0.000    0.000 
#
# Total GULP energy -396557.898592 kJ/mol
# GULP energy per Si atom -12392.434331 kJ/mol
# Density = 1.954043 g / cm^3
# Si number density = 19.585011 Si / 1000 Ang^3
#
#
#
# Elastic Constant Matrix: (Units=GPa)
#
#
# Indices 1 2 3 4 5 6 
#
# 1 105.7812 58.2786 60.9745 0.0000 0.0000 0.0000
# 2 58.2786 97.4738 50.8142 0.0000 0.0000 0.0001
# 3 60.9745 50.8142 103.7172 0.0000 0.0000 0.0000
# 4 0.0000 0.0000 0.0000 28.1245 0.0000 0.0000
# 5 0.0000 0.0000 0.0000 0.0000 22.9045 0.0000
# 6 0.0000 0.0001 0.0000 0.0000 0.0000 36.0388
#
#
#
# Elastic Compliance Matrix: (Units=1/GPa)
#
#
# Indices 1 2 3 4 5 6 
#
# 1 0.017002 -0.006654 -0.006735 0.000000 0.000000 0.000000
# 2 -0.006654 0.016382 -0.004114 0.000000 0.000000 0.000000
# 3 -0.006735 -0.004114 0.015617 0.000000 0.000000 0.000000
# 4 0.000000 0.000000 0.000000 0.035556 0.000000 0.000000
# 5 0.000000 0.000000 0.000000 0.000000 0.043660 0.000000
# 6 0.000000 0.000000 0.000000 0.000000 0.000000 0.027748
#
#
# Mechanical properties :
#
#
# Convention : Reuss Voigt Hill
#
# Bulk Modulus (GPa) = 71.45982 71.90077 71.68030
# Shear Modulus (GPa) = 25.55762 26.54056 26.04909
#
# Velocity S-wave (km/s) = 3.61634 3.68522 3.65094
# Velocity P-wave (km/s) = 7.34870 7.40943 7.37913
#
# Compressibility (1/GPa) = 0.01399388
#
# Stress axis : x y z
#
# Youngs Moduli (GPa) = 58.81769 61.04105 64.03314
#
# Poissons Ratio (x) = 0.40617 0.43127
# Poissons Ratio (y) = 0.39137 0.26346
# Poissons Ratio (z) = 0.39615 0.25115
#
# Static dielectric constant tensor:
#      x y z
#    x 3.966170 0.000000 0.000000 
#    y 0.000000 3.413550 0.000000 
#    z 0.000000 0.000000 3.337850 
# 
# 
# High freq. dielectric constant tensor:
#      x y z
#    x 1.798590 0.000000 0.000000 
#    y 0.000000 1.760510 0.000000 
#    z 0.000000 0.000000 1.717550 
# 
# From -- ./inp_files/39668.got.cif
#   From: 2010.03.12/outbox.cif.g09.slc.cpg/sg69_20_cif.got.tgz:39668.got - 2010.04.10 23:52:46.
