data_PCOD8284029
_publ_section_title
;
Structure prediction by ZEFSAII (Michael W. Deem and Ramdas Pophale) SiO2 
 PCOD8284029
Probable space group: F M M M
;
_chemical_formula_sum "Si O2"
_cell_formula_units_Z 144
_cell_length_a 30.861702
_cell_length_b 8.641720
_cell_length_c 28.229571
_cell_angle_alpha 90.000000
_cell_angle_beta 90.000000
_cell_angle_gamma 90.000000
_cell_volume 7528.775417
_symmetry_space_group_name_H-M "F M M M"
_symmetry_group_IT_number 69
_symmetry_cell_setting 'orthorhombic'
loop_
_space_group_symop_operation_xyz
x,y,z
-x,-y,z
x,-y,-z
-x,y,-z
-x,-y,-z
x,y,-z
-x,y,z
x,-y,z
x,1/2+y,1/2+z
-x,1/2-y,1/2+z
x,1/2-y,1/2-z
-x,1/2+y,1/2-z
-x,1/2-y,1/2-z
x,1/2+y,1/2-z
-x,1/2+y,1/2+z
x,1/2-y,1/2+z
1/2+x,y,1/2+z
1/2-x,-y,1/2+z
1/2+x,-y,1/2-z
1/2-x,y,1/2-z
1/2-x,-y,1/2-z
1/2+x,y,1/2-z
1/2-x,y,1/2+z
1/2+x,-y,1/2+z
1/2+x,1/2+y,z
1/2-x,1/2-y,z
1/2+x,1/2-y,-z
1/2-x,1/2+y,-z
1/2-x,1/2-y,-z
1/2+x,1/2+y,-z
1/2-x,1/2+y,z
1/2+x,1/2-y,z
loop_
_atom_site_type_symbol
_atom_site_label
_atom_site_fract_x
_atom_site_fract_y
_atom_site_fract_z
Si Si1 0.000000 0.683994 0.302584
Si Si2 0.049037 0.322852 0.944214
Si Si3 0.704343 0.679839 0.444651
Si Si4 0.588102 0.681592 0.698438
Si Si5 0.874408 0.820303 0.888399
O O1 0.000000 0.750000 0.250000
O O2 0.044006 0.749674 0.325644
O O3 0.000000 0.500000 0.303486
O O4 0.058891 0.500000 0.929505
O O5 0.082413 0.211245 0.918416
O O6 0.000000 0.277371 0.929503
O O7 0.055065 0.302733 0.000000
O O8 0.696519 0.708202 0.500000
O O9 0.703012 0.500000 0.431718
O O10 0.750000 0.750000 0.428439
O O11 0.667271 0.768760 0.417132
O O12 0.583704 0.500000 0.703985
O O13 0.598317 0.750000 0.750000
O O14 0.625584 0.728490 0.661649
O O15 0.871395 0.000000 0.876919
#
# Coordination Sequence:
#
# PCOD8284029 Si02
#       5
#    16  32  32  32  32
#     4  10  18  32  52  76 105 140 185 234 284 334
#     4   9  19  36  55  76 108 150 193 235 282 337
#     4  10  21  39  63  90 119 150 187 234 289 344
#     4  11  22  38  57  79 110 149 192 241 291 339
#     4  12  24  36  55  84 116 151 192 237 284 341
#
# _framework density 19.126615000000001
#
# number of rings (size 3 to 8) (size 9 to 14) (size 15 to 20)
#    0.000    1.556    0.000    8.333    1.556    4.889 
#    0.000    1.111    0.000    0.667    0.000    4.667 
#    0.000    0.000    0.000    0.000    0.000    0.000 
#
# Total GULP energy -446475.683167 kJ/mol
# GULP energy per Si atom -12402.102310 kJ/mol
# Density = 1.908308 g / cm^3
# Si number density = 19.126615 Si / 1000 Ang^3
#
#
#
# Elastic Constant Matrix: (Units=GPa)
#
#
# Indices 1 2 3 4 5 6 
#
# 1 102.8715 45.0626 48.2514 0.0000 -0.0001 -0.0002
# 2 45.0626 149.0666 37.0827 0.0001 0.0000 -0.0005
# 3 48.2514 37.0827 60.6633 0.0000 0.0000 0.0000
# 4 0.0000 0.0001 0.0000 31.0963 0.0000 0.0000
# 5 -0.0001 0.0000 0.0000 0.0000 28.7729 0.0000
# 6 -0.0002 -0.0005 0.0000 0.0000 0.0000 33.3705
#
#
#
# Elastic Compliance Matrix: (Units=1/GPa)
#
#
# Indices 1 2 3 4 5 6 
#
# 1 0.015981 -0.001968 -0.011508 0.000000 0.000000 0.000000
# 2 -0.001968 0.008154 -0.003419 0.000000 0.000000 0.000000
# 3 -0.011508 -0.003419 0.027728 0.000000 0.000000 0.000000
# 4 0.000000 0.000000 0.000000 0.032158 0.000000 0.000000
# 5 0.000000 0.000000 0.000000 0.000000 0.034755 0.000000
# 6 0.000000 0.000000 0.000000 0.000000 0.000000 0.029967
#
#
# Mechanical properties :
#
#
# Convention : Reuss Voigt Hill
#
# Bulk Modulus (GPa) = 55.33300 63.71052 59.52176
# Shear Modulus (GPa) = 26.51730 30.79491 28.65611
#
# Velocity S-wave (km/s) = 3.72749 4.01690 3.87490
# Velocity P-wave (km/s) = 6.89335 7.40920 7.15592
#
# Compressibility (1/GPa) = 0.01807240
#
# Stress axis : x y z
#
# Youngs Moduli (GPa) = 62.57526 122.64081 36.06503
#
# Poissons Ratio (x) = 0.24138 0.41503
# Poissons Ratio (y) = 0.12316 0.12330
# Poissons Ratio (z) = 0.72011 0.41929
#
# Static dielectric constant tensor:
#      x y z
#    x 3.595520 0.000000 0.000000 
#    y 0.000000 3.553680 0.000000 
#    z 0.000000 0.000000 3.488720 
# 
# 
# High freq. dielectric constant tensor:
#      x y z
#    x 1.728820 0.000000 0.000000 
#    y 0.000000 1.755910 0.000000 
#    z 0.000000 0.000000 1.744580 
# 
# From -- ./inp_files/47382.got.cif
#   From: 2010.03.12/outbox.cif.g09.slc.cpg/sg69_24_cif.got.tgz:47382.got - 2010.04.10 23:52:46.
