data_PCOD8284497
_publ_section_title
;
Structure prediction by ZEFSAII (Michael W. Deem and Ramdas Pophale) SiO2 
 PCOD8284497
Probable space group: F M M M
;
_chemical_formula_sum "Si O2"
_cell_formula_units_Z 192
_cell_length_a 22.430008
_cell_length_b 23.761170
_cell_length_c 21.509288
_cell_angle_alpha 90.000000
_cell_angle_beta 90.000000
_cell_angle_gamma 90.000000
_cell_volume 11463.659676
_symmetry_space_group_name_H-M "F M M M"
_symmetry_group_IT_number 69
_symmetry_cell_setting 'orthorhombic'
loop_
_space_group_symop_operation_xyz
x,y,z
-x,-y,z
x,-y,-z
-x,y,-z
-x,-y,-z
x,y,-z
-x,y,z
x,-y,z
x,1/2+y,1/2+z
-x,1/2-y,1/2+z
x,1/2-y,1/2-z
-x,1/2+y,1/2-z
-x,1/2-y,1/2-z
x,1/2+y,1/2-z
-x,1/2+y,1/2+z
x,1/2-y,1/2+z
1/2+x,y,1/2+z
1/2-x,-y,1/2+z
1/2+x,-y,1/2-z
1/2-x,y,1/2-z
1/2-x,-y,1/2-z
1/2+x,y,1/2-z
1/2-x,y,1/2+z
1/2+x,-y,1/2+z
1/2+x,1/2+y,z
1/2-x,1/2-y,z
1/2+x,1/2-y,-z
1/2-x,1/2+y,-z
1/2-x,1/2-y,-z
1/2+x,1/2+y,-z
1/2-x,1/2+y,z
1/2+x,1/2-y,z
loop_
_atom_site_type_symbol
_atom_site_label
_atom_site_fract_x
_atom_site_fract_y
_atom_site_fract_z
Si Si1 0.069842 0.862550 0.616708
Si Si2 0.658848 0.274292 0.427122
Si Si3 0.757299 0.437925 0.070580
Si Si4 0.250000 0.129456 0.250000
Si Si5 0.153075 0.563911 0.818393
Si Si6 0.278643 0.329163 0.881152
Si Si7 0.069479 0.437929 0.000000
O O1 0.102914 0.802943 0.607502
O O2 0.094453 0.896316 0.677019
O O3 0.087279 0.902471 0.559686
O O4 0.000000 0.850658 0.624111
O O5 0.645573 0.269027 0.500000
O O6 0.666803 0.212018 0.397470
O O7 0.718710 0.309427 0.415922
O O8 0.728170 0.500000 0.076986
O O9 0.813951 0.432343 0.115310
O O10 0.708066 0.391815 0.092075
O O11 0.779202 0.427080 0.000000
O O12 0.194788 0.088460 0.264493
O O13 0.267538 0.169849 0.307183
O O14 0.134807 0.500000 0.801916
O O15 0.101262 0.500000 0.000000
O O16 0.000000 0.448959 0.000000
#
# Coordination Sequence:
#
# PCOD8284497 Si02
#       7
#    32  32  32  16  32  32  16
#     4  11  21  33  48  73 106 139 173 206 248 301
#     4  11  20  33  51  73 104 137 174 212 257 310
#     4   9  16  27  45  71 102 130 162 206 260 313
#     4  10  19  35  52  72  98 128 176 226 264 298
#     4  10  20  32  49  73 102 138 173 213 256 304
#     4  10  20  32  50  74  97 136 171 220 262 306
#     4   9  18  30  46  69 102 142 177 202 232 292
#
# _framework density 16.748577999999998
#
# number of rings (size 3 to 8) (size 9 to 14) (size 15 to 20)
#    0.000    1.917    4.167    2.750    1.167    3.000 
#    0.000    0.000    0.000    2.000    0.000    0.000 
#    0.000    0.667    0.000    3.500    0.000    0.000 
#
# Total GULP energy -595012.914954 kJ/mol
# GULP energy per Si atom -12396.102395 kJ/mol
# Density = 1.671046 g / cm^3
# Si number density = 16.748578 Si / 1000 Ang^3
#
#
#
# Elastic Constant Matrix: (Units=GPa)
#
#
# Indices 1 2 3 4 5 6 
#
# 1 83.2597 49.6359 14.4510 0.0000 0.0000 0.0000
# 2 49.6359 121.8981 21.5326 0.0000 0.0000 0.0000
# 3 14.4510 21.5326 52.4506 0.0000 0.0000 0.0000
# 4 0.0000 0.0000 0.0000 17.1914 0.0000 0.0000
# 5 0.0000 0.0000 0.0000 0.0000 19.0248 0.0000
# 6 0.0000 0.0000 0.0000 0.0000 0.0000 24.8632
#
#
#
# Elastic Compliance Matrix: (Units=1/GPa)
#
#
# Indices 1 2 3 4 5 6 
#
# 1 0.016030 -0.006196 -0.001873 0.000000 0.000000 0.000000
# 2 -0.006196 0.011240 -0.002907 0.000000 0.000000 0.000000
# 3 -0.001873 -0.002907 0.020775 0.000000 0.000000 0.000000
# 4 0.000000 0.000000 0.000000 0.058169 0.000000 0.000000
# 5 0.000000 0.000000 0.000000 0.000000 0.052563 0.000000
# 6 0.000000 0.000000 0.000000 0.000000 0.000000 0.040220
#
#
# Mechanical properties :
#
#
# Convention : Reuss Voigt Hill
#
# Bulk Modulus (GPa) = 38.32536 47.64972 42.98754
# Shear Modulus (GPa) = 21.77258 23.68180 22.72719
#
# Velocity S-wave (km/s) = 3.60942 3.76434 3.68769
# Velocity P-wave (km/s) = 6.34846 6.88516 6.62225
#
# Compressibility (1/GPa) = 0.02609238
#
# Stress axis : x y z
#
# Youngs Moduli (GPa) = 62.38442 88.96618 48.13473
#
# Poissons Ratio (x) = 0.55127 0.09014
# Poissons Ratio (y) = 0.38656 0.13994
# Poissons Ratio (z) = 0.11682 0.25865
#
# Static dielectric constant tensor:
#      x y z
#    x 2.794470 0.000000 0.000000 
#    y 0.000000 3.683820 0.000000 
#    z 0.000000 0.000000 3.074000 
# 
# 
# High freq. dielectric constant tensor:
#      x y z
#    x 1.595140 0.000000 0.000000 
#    y 0.000000 1.660840 0.000000 
#    z 0.000000 0.000000 1.634520 
# 
# From -- ./inp_files/37958.got.cif
#   From: 2010.03.12/outbox.cif.g09.slc.cpg/sg69_19_cif.got.tgz:37958.got - 2010.04.10 23:52:46.
