data_PCOD8284883
_publ_section_title
;
Structure prediction by ZEFSAII (Michael W. Deem and Ramdas Pophale) SiO2 
 PCOD8284883
Probable space group: F M M M
;
_chemical_formula_sum "Si O2"
_cell_formula_units_Z 160
_cell_length_a 17.907278
_cell_length_b 27.988857
_cell_length_c 16.344450
_cell_angle_alpha 90.000000
_cell_angle_beta 90.000000
_cell_angle_gamma 90.000000
_cell_volume 8191.907693
_symmetry_space_group_name_H-M "F M M M"
_symmetry_group_IT_number 69
_symmetry_cell_setting 'orthorhombic'
loop_
_space_group_symop_operation_xyz
x,y,z
-x,-y,z
x,-y,-z
-x,y,-z
-x,-y,-z
x,y,-z
-x,y,z
x,-y,z
x,1/2+y,1/2+z
-x,1/2-y,1/2+z
x,1/2-y,1/2-z
-x,1/2+y,1/2-z
-x,1/2-y,1/2-z
x,1/2+y,1/2-z
-x,1/2+y,1/2+z
x,1/2-y,1/2+z
1/2+x,y,1/2+z
1/2-x,-y,1/2+z
1/2+x,-y,1/2-z
1/2-x,y,1/2-z
1/2-x,-y,1/2-z
1/2+x,y,1/2-z
1/2-x,y,1/2+z
1/2+x,-y,1/2+z
1/2+x,1/2+y,z
1/2-x,1/2-y,z
1/2+x,1/2-y,-z
1/2-x,1/2+y,-z
1/2-x,1/2-y,-z
1/2+x,1/2+y,-z
1/2-x,1/2+y,z
1/2+x,1/2-y,z
loop_
_atom_site_type_symbol
_atom_site_label
_atom_site_fract_x
_atom_site_fract_y
_atom_site_fract_z
Si Si1 0.233490 0.052923 0.403344
Si Si2 0.913159 0.207179 0.903182
Si Si3 0.359117 0.308226 0.406350
Si Si4 0.919193 0.406173 0.097175
Si Si5 0.717821 0.149988 0.660525
O O1 0.241657 0.060307 0.500000
O O2 0.146507 0.057929 0.376124
O O3 0.282150 0.093309 0.358865
O O4 0.260811 0.000000 0.377046
O O5 0.885703 0.258385 0.867171
O O6 0.866747 0.167479 0.852794
O O7 0.000000 0.199782 0.883126
O O8 0.897737 0.201833 0.000000
O O9 0.382226 0.304616 0.500000
O O10 0.402302 0.353363 0.365991
O O11 0.270533 0.318596 0.399283
O O12 0.000000 0.424099 0.129846
O O13 0.920265 0.402539 0.000000
O O14 0.750000 0.159752 0.750000
#
# Coordination Sequence:
#
# PCOD8284883 Si02
#       5
#    32  32  32  32  32
#     4   9  18  33  53  74  95 127 174 223 268 316
#     4  10  20  35  57  81 105 139 185 231 265 298
#     4   9  17  31  51  74 101 136 177 214 252 305
#     4   8  13  23  42  70 101 125 150 194 250 304
#     4  11  22  35  51  75 107 141 174 212 267 328
#
# _framework density 19.531469000000001
#
# number of rings (size 3 to 8) (size 9 to 14) (size 15 to 20)
#    0.000    2.600    0.000    4.200    0.000    6.400 
#    0.000    8.000    0.000    0.600    0.000    2.800 
#    0.000    0.000    0.000    0.000    0.000    0.000 
#
# Total GULP energy -495712.614988 kJ/mol
# GULP energy per Si atom -12392.815375 kJ/mol
# Density = 1.948701 g / cm^3
# Si number density = 19.531469 Si / 1000 Ang^3
#
#
#
# Elastic Constant Matrix: (Units=GPa)
#
#
# Indices 1 2 3 4 5 6 
#
# 1 95.8017 54.7510 13.0226 0.0000 0.0000 0.0000
# 2 54.7510 128.3258 27.8375 0.0000 0.0000 0.0000
# 3 13.0226 27.8375 33.1142 0.0000 0.0000 0.0000
# 4 0.0000 0.0000 0.0000 11.8936 0.0000 0.0000
# 5 0.0000 0.0000 0.0000 0.0000 16.0074 0.0000
# 6 0.0000 0.0000 0.0000 0.0000 0.0000 17.2380
#
#
#
# Elastic Compliance Matrix: (Units=1/GPa)
#
#
# Indices 1 2 3 4 5 6 
#
# 1 0.013813 -0.005767 -0.000584 0.000000 0.000000 0.000000
# 2 -0.005767 0.011938 -0.007768 0.000000 0.000000 0.000000
# 3 -0.000584 -0.007768 0.036959 0.000000 0.000000 0.000000
# 4 0.000000 0.000000 0.000000 0.084079 0.000000 0.000000
# 5 0.000000 0.000000 0.000000 0.000000 0.062471 0.000000
# 6 0.000000 0.000000 0.000000 0.000000 0.000000 0.058012
#
#
# Mechanical properties :
#
#
# Convention : Reuss Voigt Hill
#
# Bulk Modulus (GPa) = 29.00935 49.82934 39.41934
# Shear Modulus (GPa) = 16.28659 19.80315 18.04487
#
# Velocity S-wave (km/s) = 2.89080 3.18765 3.04285
# Velocity P-wave (km/s) = 5.10168 6.25427 5.70715
#
# Compressibility (1/GPa) = 0.03447165
#
# Stress axis : x y z
#
# Youngs Moduli (GPa) = 72.39342 83.76471 27.05736
#
# Poissons Ratio (x) = 0.48305 0.01581
# Poissons Ratio (y) = 0.41748 0.21018
# Poissons Ratio (z) = 0.04231 0.65068
#
# Static dielectric constant tensor:
#      x y z
#    x 3.600170 0.000000 0.000000 
#    y 0.000000 3.612370 0.000000 
#    z 0.000000 0.000000 3.143590 
# 
# 
# High freq. dielectric constant tensor:
#      x y z
#    x 1.749120 0.000000 0.000000 
#    y 0.000000 1.757010 0.000000 
#    z 0.000000 0.000000 1.717140 
# 
# From -- ./inp_files/23159.got.cif
#   From: 2010.03.12/outbox.cif.g09.slc.cpg/sg69_12_cif.got.tgz:23159.got - 2010.04.10 23:52:46.
