data_PCOD8284799
_publ_section_title
;
Structure prediction by ZEFSAII (Michael W. Deem and Ramdas Pophale) SiO2 
 PCOD8284799
Probable space group: F M M M
;
_chemical_formula_sum "Si O2"
_cell_formula_units_Z 128
_cell_length_a 20.724903
_cell_length_b 16.670347
_cell_length_c 19.067603
_cell_angle_alpha 90.000000
_cell_angle_beta 90.000000
_cell_angle_gamma 90.000000
_cell_volume 6587.691416
_symmetry_space_group_name_H-M "F M M M"
_symmetry_group_IT_number 69
_symmetry_cell_setting 'orthorhombic'
loop_
_space_group_symop_operation_xyz
x,y,z
-x,-y,z
x,-y,-z
-x,y,-z
-x,-y,-z
x,y,-z
-x,y,z
x,-y,z
x,1/2+y,1/2+z
-x,1/2-y,1/2+z
x,1/2-y,1/2-z
-x,1/2+y,1/2-z
-x,1/2-y,1/2-z
x,1/2+y,1/2-z
-x,1/2+y,1/2+z
x,1/2-y,1/2+z
1/2+x,y,1/2+z
1/2-x,-y,1/2+z
1/2+x,-y,1/2-z
1/2-x,y,1/2-z
1/2-x,-y,1/2-z
1/2+x,y,1/2-z
1/2-x,y,1/2+z
1/2+x,-y,1/2+z
1/2+x,1/2+y,z
1/2-x,1/2-y,z
1/2+x,1/2-y,-z
1/2-x,1/2+y,-z
1/2-x,1/2-y,-z
1/2+x,1/2+y,-z
1/2-x,1/2+y,z
1/2+x,1/2-y,z
loop_
_atom_site_type_symbol
_atom_site_label
_atom_site_fract_x
_atom_site_fract_y
_atom_site_fract_z
Si Si1 0.311027 0.908241 0.791598
Si Si2 0.238125 0.343419 0.923089
Si Si3 0.621634 0.906552 0.580647
Si Si4 0.926600 0.336288 0.282998
O O1 0.250000 0.869662 0.750000
O O2 0.316602 0.865322 0.866970
O O3 0.378306 0.899943 0.751292
O O4 0.296332 0.000000 0.805405
O O5 0.250000 0.250000 0.919191
O O6 0.302819 0.392862 0.905534
O O7 0.212495 0.367537 0.000000
O O8 0.603865 0.884246 0.500000
O O9 0.581972 0.846896 0.632603
O O10 0.605100 0.000000 0.595741
O O11 0.908007 0.250000 0.250000
O O12 0.000000 0.356933 0.262747
#
# Coordination Sequence:
#
# PCOD8284799 Si02
#       4
#    32  32  32  32
#     4  11  22  35  57  87 114 150 191 232 286 344
#     4  10  20  34  56  86 117 150 189 237 291 344
#     4  10  20  36  60  89 119 150 188 239 301 360
#     4  11  24  40  58  83 117 158 198 238 288 347
#
# _framework density 19.430174999999998
#
# number of rings (size 3 to 8) (size 9 to 14) (size 15 to 20)
#    0.000    1.500    2.500    3.000    0.000    4.000 
#    0.000    1.250    0.000    2.250    0.000    1.750 
#    0.000    0.000    0.000    0.000    0.000    0.000 
#
# Total GULP energy -396719.918446 kJ/mol
# GULP energy per Si atom -12397.497451 kJ/mol
# Density = 1.938595 g / cm^3
# Si number density = 19.430175 Si / 1000 Ang^3
#
#
#
# Elastic Constant Matrix: (Units=GPa)
#
#
# Indices 1 2 3 4 5 6 
#
# 1 80.0254 17.1897 48.9956 0.0000 0.0000 0.0000
# 2 17.1897 64.1296 47.5733 0.0000 0.0000 0.0000
# 3 48.9956 47.5733 145.6730 0.0000 0.0000 0.0000
# 4 0.0000 0.0000 0.0000 40.8184 0.0000 0.0000
# 5 0.0000 0.0000 0.0000 0.0000 21.5529 0.0000
# 6 0.0000 0.0000 0.0000 0.0000 0.0000 20.2561
#
#
#
# Elastic Compliance Matrix: (Units=1/GPa)
#
#
# Indices 1 2 3 4 5 6 
#
# 1 0.015744 -0.000385 -0.005169 0.000000 0.000000 0.000000
# 2 -0.000385 0.020588 -0.006594 0.000000 0.000000 0.000000
# 3 -0.005169 -0.006594 0.010757 0.000000 0.000000 0.000000
# 4 0.000000 0.000000 0.000000 0.024499 0.000000 0.000000
# 5 0.000000 0.000000 0.000000 0.000000 0.046397 0.000000
# 6 0.000000 0.000000 0.000000 0.000000 0.000000 0.049368
#
#
# Mechanical properties :
#
#
# Convention : Reuss Voigt Hill
#
# Bulk Modulus (GPa) = 43.87606 57.48282 50.67944
# Shear Modulus (GPa) = 25.09436 28.26343 26.67890
#
# Velocity S-wave (km/s) = 3.59766 3.81808 3.70951
# Velocity P-wave (km/s) = 6.31570 7.00610 6.66984
#
# Compressibility (1/GPa) = 0.02279147
#
# Stress axis : x y z
#
# Youngs Moduli (GPa) = 63.51717 48.57107 92.96386
#
# Poissons Ratio (x) = 0.01871 0.48057
# Poissons Ratio (y) = 0.02447 0.61301
# Poissons Ratio (z) = 0.32835 0.32028
#
# Static dielectric constant tensor:
#      x y z
#    x 3.282220 0.000000 0.000000 
#    y 0.000000 3.472280 0.000000 
#    z 0.000000 0.000000 3.970280 
# 
# 
# High freq. dielectric constant tensor:
#      x y z
#    x 1.724860 0.000000 0.000000 
#    y 0.000000 1.753460 0.000000 
#    z 0.000000 0.000000 1.775120 
# 
# From -- ./inp_files/22753.got.cif
#   From: 2010.03.12/outbox.cif.g09.slc.cpg/sg69_12_cif.got.tgz:22753.got - 2010.04.10 23:52:46.
