data_PCOD8284766
_publ_section_title
;
Structure prediction by ZEFSAII (Michael W. Deem and Ramdas Pophale) SiO2 
 PCOD8284766
Probable space group: F M M M
;
_chemical_formula_sum "Si O2"
_cell_formula_units_Z 160
_cell_length_a 31.276200
_cell_length_b 18.410443
_cell_length_c 14.646263
_cell_angle_alpha 90.000000
_cell_angle_beta 90.000000
_cell_angle_gamma 90.000000
_cell_volume 8433.445619
_symmetry_space_group_name_H-M "F M M M"
_symmetry_group_IT_number 69
_symmetry_cell_setting 'orthorhombic'
loop_
_space_group_symop_operation_xyz
x,y,z
-x,-y,z
x,-y,-z
-x,y,-z
-x,-y,-z
x,y,-z
-x,y,z
x,-y,z
x,1/2+y,1/2+z
-x,1/2-y,1/2+z
x,1/2-y,1/2-z
-x,1/2+y,1/2-z
-x,1/2-y,1/2-z
x,1/2+y,1/2-z
-x,1/2+y,1/2+z
x,1/2-y,1/2+z
1/2+x,y,1/2+z
1/2-x,-y,1/2+z
1/2+x,-y,1/2-z
1/2-x,y,1/2-z
1/2-x,-y,1/2-z
1/2+x,y,1/2-z
1/2-x,y,1/2+z
1/2+x,-y,1/2+z
1/2+x,1/2+y,z
1/2-x,1/2-y,z
1/2+x,1/2-y,-z
1/2-x,1/2+y,-z
1/2-x,1/2-y,-z
1/2+x,1/2+y,-z
1/2-x,1/2+y,z
1/2+x,1/2-y,z
loop_
_atom_site_type_symbol
_atom_site_label
_atom_site_fract_x
_atom_site_fract_y
_atom_site_fract_z
Si Si1 0.205029 0.272059 0.893755
Si Si2 0.830673 0.421441 0.897705
Si Si3 0.880237 0.694133 0.396539
Si Si4 0.953538 0.294749 0.841382
Si Si5 0.906394 0.081987 0.256103
O O1 0.250000 0.250000 0.846794
O O2 0.202484 0.357980 0.875128
O O3 0.163682 0.228592 0.854619
O O4 0.206347 0.253295 0.000000
O O5 0.807084 0.500000 0.893881
O O6 0.866816 0.420533 0.822943
O O7 0.849986 0.408891 0.000000
O O8 0.873835 0.666175 0.500000
O O9 0.915879 0.758260 0.400593
O O10 0.894423 0.625933 0.335684
O O11 0.956867 0.250000 0.750000
O O12 0.943567 0.377821 0.812873
O O13 0.000000 0.293319 0.891923
O O14 0.920824 0.000000 0.229447
#
# Coordination Sequence:
#
# PCOD8284766 Si02
#       5
#    32  32  32  32  32
#     4   9  17  31  53  79 104 140 188 230 271 321
#     4   9  17  31  52  76 104 139 177 222 276 325
#     4  10  20  35  54  78 111 146 184 227 270 324
#     4   9  18  33  54  77 102 136 179 223 266 314
#     4  10  20  34  54  79 111 145 179 220 274 331
#
# _framework density 18.972079000000001
#
# number of rings (size 3 to 8) (size 9 to 14) (size 15 to 20)
#    0.000    2.600    2.000    0.000    0.000    1.200 
#    0.000    3.000    0.000    6.000    0.000    9.800 
#    0.000    0.000    0.000    0.000    0.000    0.000 
#
# Total GULP energy -495532.607513 kJ/mol
# GULP energy per Si atom -12388.315188 kJ/mol
# Density = 1.892890 g / cm^3
# Si number density = 18.972079 Si / 1000 Ang^3
#
#
#
# Elastic Constant Matrix: (Units=GPa)
#
#
# Indices 1 2 3 4 5 6 
#
# 1 119.1927 46.7971 6.9060 0.0000 0.0000 0.0000
# 2 46.7971 149.2777 29.1665 0.0000 0.0000 0.0000
# 3 6.9060 29.1665 56.7535 0.0000 0.0000 0.0000
# 4 0.0000 0.0000 0.0000 22.9997 0.0000 0.0000
# 5 0.0000 0.0000 0.0000 0.0000 20.4398 0.0000
# 6 0.0000 0.0000 0.0000 0.0000 0.0000 197.9421
#
#
#
# Elastic Compliance Matrix: (Units=1/GPa)
#
#
# Indices 1 2 3 4 5 6 
#
# 1 0.009576 -0.003084 0.000420 0.000000 0.000000 0.000000
# 2 -0.003084 0.008440 -0.003962 0.000000 0.000000 0.000000
# 3 0.000420 -0.003962 0.019605 0.000000 0.000000 0.000000
# 4 0.000000 0.000000 0.000000 0.043479 0.000000 0.000000
# 5 0.000000 0.000000 0.000000 0.000000 0.048924 0.000000
# 6 0.000000 0.000000 0.000000 0.000000 0.000000 0.005052
#
#
# Mechanical properties :
#
#
# Convention : Reuss Voigt Hill
#
# Bulk Modulus (GPa) = 41.03682 54.55145 47.79413
# Shear Modulus (GPa) = 31.95863 64.43325 48.19594
#
# Velocity S-wave (km/s) = 4.10873 5.83403 5.04567
# Velocity P-wave (km/s) = 6.64725 8.61378 7.69360
#
# Compressibility (1/GPa) = 0.02436836
#
# Stress axis : x y z
#
# Youngs Moduli (GPa) = 104.42418 118.48505 51.00694
#
# Poissons Ratio (x) = 0.36542 -0.02141
# Poissons Ratio (y) = 0.32205 0.20209
# Poissons Ratio (z) = -0.04382 0.46945
#
# Static dielectric constant tensor:
#      x y z
#    x 3.916630 0.000000 0.000000 
#    y 0.000000 3.928020 0.000000 
#    z 0.000000 0.000000 3.288990 
# 
# 
# High freq. dielectric constant tensor:
#      x y z
#    x 1.720960 0.000000 0.000000 
#    y 0.000000 1.738710 0.000000 
#    z 0.000000 0.000000 1.726420 
# 
# From -- ./inp_files/27605.got.cif
#   From: 2010.03.12/outbox.cif.g09.slc.cpg/sg69_14_cif.got.tgz:27605.got - 2010.04.10 23:52:46.
