data_PCOD8284684
_publ_section_title
;
Structure prediction by ZEFSAII (Michael W. Deem and Ramdas Pophale) SiO2 
 PCOD8284684
Probable space group: F M M M
;
_chemical_formula_sum "Si O2"
_cell_formula_units_Z 160
_cell_length_a 9.670930
_cell_length_b 33.600860
_cell_length_c 25.914635
_cell_angle_alpha 90.000000
_cell_angle_beta 90.000000
_cell_angle_gamma 90.000000
_cell_volume 8421.001200
_symmetry_space_group_name_H-M "F M M M"
_symmetry_group_IT_number 69
_symmetry_cell_setting 'orthorhombic'
loop_
_space_group_symop_operation_xyz
x,y,z
-x,-y,z
x,-y,-z
-x,y,-z
-x,-y,-z
x,y,-z
-x,y,z
x,-y,z
x,1/2+y,1/2+z
-x,1/2-y,1/2+z
x,1/2-y,1/2-z
-x,1/2+y,1/2-z
-x,1/2-y,1/2-z
x,1/2+y,1/2-z
-x,1/2+y,1/2+z
x,1/2-y,1/2+z
1/2+x,y,1/2+z
1/2-x,-y,1/2+z
1/2+x,-y,1/2-z
1/2-x,y,1/2-z
1/2-x,-y,1/2-z
1/2+x,y,1/2-z
1/2-x,y,1/2+z
1/2+x,-y,1/2+z
1/2+x,1/2+y,z
1/2-x,1/2-y,z
1/2+x,1/2-y,-z
1/2-x,1/2+y,-z
1/2-x,1/2-y,-z
1/2+x,1/2+y,-z
1/2-x,1/2+y,z
1/2+x,1/2-y,z
loop_
_atom_site_type_symbol
_atom_site_label
_atom_site_fract_x
_atom_site_fract_y
_atom_site_fract_z
Si Si1 0.722911 0.920658 0.637355
Si Si2 0.000000 0.548085 0.713160
Si Si3 0.500000 0.697882 0.791071
Si Si4 0.500000 0.826162 0.442137
Si Si5 0.000000 0.211188 0.325526
Si Si6 0.000000 0.920723 0.057246
Si Si7 0.227523 0.827857 0.862358
Si Si8 0.000000 0.454163 0.170743
O O1 0.636451 0.932818 0.687901
O O2 0.636807 0.935104 0.587317
O O3 0.760139 0.874269 0.633542
O O4 0.867744 0.942814 0.637184
O O5 0.000000 0.500000 0.707635
O O6 0.000000 0.564433 0.771813
O O7 0.500000 0.742359 0.813562
O O8 0.500000 0.690671 0.730163
O O9 0.361836 0.676812 0.810638
O O10 0.500000 0.807957 0.500000
O O11 0.500000 0.873411 0.444197
O O12 0.637820 0.812253 0.411488
O O13 0.133514 0.198216 0.358619
O O14 0.000000 0.939234 0.000000
O O15 0.000000 0.500000 0.181083
#
# Coordination Sequence:
#
# PCOD8284684 Si02
#       8
#    32  16  16  16  16  16  32  16
#     4  10  20  33  53  79 101 129 173 216 251 293
#     4  10  20  34  51  71 101 143 177 198 239 308
#     4  10  21  35  50  71 106 148 173 198 250 305
#     4   8  16  34  56  76 101 131 165 210 263 308
#     4  11  21  33  50  75 108 141 173 205 248 308
#     4   8  16  34  57  76  96 128 171 213 253 303
#     4  10  20  33  53  78 101 132 173 216 254 291
#     4  11  22  34  49  73 109 142 161 197 259 309
#
# _framework density 19.000115999999998
#
# number of rings (size 3 to 8) (size 9 to 14) (size 15 to 20)
#    0.000    2.200    0.000    4.800    0.000    8.000 
#    0.000    1.000    0.000   25.800    0.000    0.000 
#    0.000    0.000    0.000    0.000    0.000    0.000 
#
# Total GULP energy -495892.949327 kJ/mol
# GULP energy per Si atom -12397.323733 kJ/mol
# Density = 1.895687 g / cm^3
# Si number density = 19.000116 Si / 1000 Ang^3
#
#
#
# Elastic Constant Matrix: (Units=GPa)
#
#
# Indices 1 2 3 4 5 6 
#
# 1 160.4993 16.5196 63.8956 0.0000 0.0000 0.0000
# 2 16.5196 32.0606 17.0260 0.0000 0.0000 0.0000
# 3 63.8956 17.0260 139.4064 0.0000 0.0000 0.0000
# 4 0.0000 0.0000 0.0000 12.2678 0.0000 0.0000
# 5 0.0000 0.0000 0.0000 0.0000 42.0714 0.0000
# 6 0.0000 0.0000 0.0000 0.0000 0.0000 27.1228
#
#
#
# Elastic Compliance Matrix: (Units=1/GPa)
#
#
# Indices 1 2 3 4 5 6 
#
# 1 0.007771 -0.002259 -0.003286 0.000000 0.000000 0.000000
# 2 -0.002259 0.034011 -0.003118 0.000000 0.000000 0.000000
# 3 -0.003286 -0.003118 0.009060 0.000000 0.000000 0.000000
# 4 0.000000 0.000000 0.000000 0.081514 0.000000 0.000000
# 5 0.000000 0.000000 0.000000 0.000000 0.023769 0.000000
# 6 0.000000 0.000000 0.000000 0.000000 0.000000 0.036869
#
#
# Mechanical properties :
#
#
# Convention : Reuss Voigt Hill
#
# Bulk Modulus (GPa) = 29.83700 58.53875 44.18787
# Shear Modulus (GPa) = 22.57400 31.92740 27.25070
#
# Velocity S-wave (km/s) = 3.45062 4.10369 3.79124
# Velocity P-wave (km/s) = 5.62258 7.30276 6.51704
#
# Compressibility (1/GPa) = 0.03351544
#
# Stress axis : x y z
#
# Youngs Moduli (GPa) = 128.67948 29.40225 110.37268
#
# Poissons Ratio (x) = 0.06643 0.36268
# Poissons Ratio (y) = 0.29071 0.34418
# Poissons Ratio (z) = 0.42284 0.09169
#
# Static dielectric constant tensor:
#      x y z
#    x 3.306180 0.000000 0.000000 
#    y 0.000000 3.342340 0.000000 
#    z 0.000000 0.000000 3.660590 
# 
# 
# High freq. dielectric constant tensor:
#      x y z
#    x 1.744170 0.000000 0.000000 
#    y 0.000000 1.728530 0.000000 
#    z 0.000000 0.000000 1.722100 
# 
# From -- ./inp_files/44662.got.cif
#   From: 2010.03.12/outbox.cif.g09.slc.cpg/sg69_23_cif.got.tgz:44662.got - 2010.04.10 23:52:46.
