data_PCOD8284610
_publ_section_title
;
Structure prediction by ZEFSAII (Michael W. Deem and Ramdas Pophale) SiO2 
 PCOD8284610
Probable space group: F M M M
;
_chemical_formula_sum "Si O2"
_cell_formula_units_Z 176
_cell_length_a 28.553603
_cell_length_b 15.621873
_cell_length_c 23.771773
_cell_angle_alpha 90.000000
_cell_angle_beta 90.000000
_cell_angle_gamma 90.000000
_cell_volume 10603.655125
_symmetry_space_group_name_H-M "F M M M"
_symmetry_group_IT_number 69
_symmetry_cell_setting 'orthorhombic'
loop_
_space_group_symop_operation_xyz
x,y,z
-x,-y,z
x,-y,-z
-x,y,-z
-x,-y,-z
x,y,-z
-x,y,z
x,-y,z
x,1/2+y,1/2+z
-x,1/2-y,1/2+z
x,1/2-y,1/2-z
-x,1/2+y,1/2-z
-x,1/2-y,1/2-z
x,1/2+y,1/2-z
-x,1/2+y,1/2+z
x,1/2-y,1/2+z
1/2+x,y,1/2+z
1/2-x,-y,1/2+z
1/2+x,-y,1/2-z
1/2-x,y,1/2-z
1/2-x,-y,1/2-z
1/2+x,y,1/2-z
1/2-x,y,1/2+z
1/2+x,-y,1/2+z
1/2+x,1/2+y,z
1/2-x,1/2-y,z
1/2+x,1/2-y,-z
1/2-x,1/2+y,-z
1/2-x,1/2-y,-z
1/2+x,1/2+y,-z
1/2-x,1/2+y,z
1/2+x,1/2-y,z
loop_
_atom_site_type_symbol
_atom_site_label
_atom_site_fract_x
_atom_site_fract_y
_atom_site_fract_z
Si Si1 0.194495 0.345819 0.249005
Si Si2 0.555017 0.000000 0.939230
Si Si3 0.551578 0.182721 0.933169
Si Si4 0.147538 0.751713 0.066175
Si Si5 0.694486 0.095686 0.631088
Si Si6 0.304770 0.596629 0.371536
O O1 0.173812 0.250000 0.250000
O O2 0.250000 0.343198 0.250000
O O3 0.176998 0.395268 0.304474
O O4 0.176972 0.392662 0.192554
O O5 0.567063 0.910653 0.907076
O O6 0.500000 0.000000 0.949113
O O7 0.580868 0.000000 0.000000
O O8 0.500000 0.212199 0.910557
O O9 0.592098 0.250244 0.917751
O O10 0.548549 0.170486 0.000000
O O11 0.168078 0.837272 0.092238
O O12 0.171815 0.665532 0.088009
O O13 0.155719 0.755301 0.000000
O O14 0.749473 0.113816 0.626241
O O15 0.682330 0.000000 0.610356
O O16 0.317066 0.500000 0.391643
#
# Coordination Sequence:
#
# PCOD8284610 Si02
#       6
#    32  16  32  32  32  32
#     4   9  15  29  52  71  90 118 157 206 247 272
#     4   7  10  20  40  62  82 108 141 180 232 282
#     4   8  15  28  45  64  88 119 156 199 239 274
#     4  11  22  32  46  69  99 132 163 192 230 289
#     4  10  20  34  50  68  94 130 167 201 234 269
#     4  10  20  32  48  72  99 126 159 198 239 281
#
# _framework density 16.598051000000002
#
# number of rings (size 3 to 8) (size 9 to 14) (size 15 to 20)
#    0.000    2.636    1.818    2.182    1.273    4.364 
#    0.000    1.818    0.000    0.545    0.000    5.091 
#    0.000    2.909    0.000    0.000    0.000    0.000 
#
# Total GULP energy -545126.147521 kJ/mol
# GULP energy per Si atom -12389.230625 kJ/mol
# Density = 1.656027 g / cm^3
# Si number density = 16.598051 Si / 1000 Ang^3
#
#
#
# Elastic Constant Matrix: (Units=GPa)
#
#
# Indices 1 2 3 4 5 6 
#
# 1 68.1262 58.2419 38.7263 0.0000 0.0000 0.0000
# 2 58.2419 121.9801 50.7975 0.0000 0.0000 0.0000
# 3 38.7263 50.7975 84.0001 0.0000 0.0000 0.0000
# 4 0.0000 0.0000 0.0000 15.9981 0.0000 0.0000
# 5 0.0000 0.0000 0.0000 0.0000 -1.6731 0.0000
# 6 0.0000 0.0000 0.0000 0.0000 0.0000 18.7994
#
#
#
# Elastic Compliance Matrix: (Units=1/GPa)
#
#
# Indices 1 2 3 4 5 6 
#
# 1 0.027038 -0.010317 -0.006226 0.000000 0.000000 0.000000
# 2 -0.010317 0.014894 -0.004251 0.000000 0.000000 0.000000
# 3 -0.006226 -0.004251 0.017346 0.000000 0.000000 0.000000
# 4 0.000000 0.000000 0.000000 0.062507 0.000000 0.000000
# 5 0.000000 0.000000 0.000000 0.000000 -0.597675 0.000000
# 6 0.000000 0.000000 0.000000 0.000000 0.000000 0.053193
#
#
# Mechanical properties :
#
#
# Convention : Reuss Voigt Hill
#
# Bulk Modulus (GPa) = 56.52822 63.29307 59.91065
# Shear Modulus (GPa) = -13.32579 15.04760 0.86090
#
# Velocity S-wave (km/s) = -2.83654 3.01423 0.72097
# Velocity P-wave (km/s) = 4.83768 7.09434 6.07177
#
# Compressibility (1/GPa) = 0.01769028
#
# Stress axis : x y z
#
# Youngs Moduli (GPa) = 36.98487 67.13999 57.65123
#
# Poissons Ratio (x) = 0.69268 0.35895
# Poissons Ratio (y) = 0.38157 0.24505
# Poissons Ratio (z) = 0.23028 0.28539
#
# Static dielectric constant tensor:
#      x y z
#    x 3.012650 0.000000 0.000000 
#    y 0.000000 3.289930 0.000000 
#    z 0.000000 0.000000 2.985870 
# 
# 
# High freq. dielectric constant tensor:
#      x y z
#    x 1.606230 0.000000 0.000000 
#    y 0.000000 1.644020 0.000000 
#    z 0.000000 0.000000 1.613450 
# 
# From -- ./inp_files/36161.got.cif
#   From: 2010.03.12/outbox.cif.g09.slc.cpg/sg69_19_cif.got.tgz:36161.got - 2010.04.10 23:52:46.
