data_PCOD8284813
_publ_section_title
;
Structure prediction by ZEFSAII (Michael W. Deem and Ramdas Pophale) SiO2 
 PCOD8284813
Probable space group: F M M M
;
_chemical_formula_sum "Si O2"
_cell_formula_units_Z 136
_cell_length_a 18.303001
_cell_length_b 14.128646
_cell_length_c 27.339275
_cell_angle_alpha 90.000000
_cell_angle_beta 90.000000
_cell_angle_gamma 90.000000
_cell_volume 7069.844159
_symmetry_space_group_name_H-M "F M M M"
_symmetry_group_IT_number 69
_symmetry_cell_setting 'orthorhombic'
loop_
_space_group_symop_operation_xyz
x,y,z
-x,-y,z
x,-y,-z
-x,y,-z
-x,-y,-z
x,y,-z
-x,y,z
x,-y,z
x,1/2+y,1/2+z
-x,1/2-y,1/2+z
x,1/2-y,1/2-z
-x,1/2+y,1/2-z
-x,1/2-y,1/2-z
x,1/2+y,1/2-z
-x,1/2+y,1/2+z
x,1/2-y,1/2+z
1/2+x,y,1/2+z
1/2-x,-y,1/2+z
1/2+x,-y,1/2-z
1/2-x,y,1/2-z
1/2-x,-y,1/2-z
1/2+x,y,1/2-z
1/2-x,y,1/2+z
1/2+x,-y,1/2+z
1/2+x,1/2+y,z
1/2-x,1/2-y,z
1/2+x,1/2-y,-z
1/2-x,1/2+y,-z
1/2-x,1/2-y,-z
1/2+x,1/2+y,-z
1/2-x,1/2+y,z
1/2+x,1/2-y,z
loop_
_atom_site_type_symbol
_atom_site_label
_atom_site_fract_x
_atom_site_fract_y
_atom_site_fract_z
Si Si1 0.340020 0.106535 0.444682
Si Si2 0.640807 0.301564 0.298105
Si Si3 0.000000 0.500000 0.322479
Si Si4 0.500000 0.818446 0.553620
Si Si5 0.250000 0.250000 0.121921
Si Si6 0.580869 0.000000 0.229197
Si Si7 0.000000 0.212017 0.156261
O O1 0.312675 0.122937 0.500000
O O2 0.427190 0.118912 0.441827
O O3 0.296267 0.178201 0.410657
O O4 0.322279 0.000000 0.427391
O O5 0.673769 0.250000 0.250000
O O6 0.695933 0.307230 0.343124
O O7 0.625210 0.409596 0.287140
O O8 0.569055 0.243326 0.312730
O O9 0.072331 0.500000 0.288066
O O10 0.000000 0.402394 0.352922
O O11 0.500000 0.766293 0.500000
O O12 0.500000 0.746042 0.600384
O O13 0.500000 0.000000 0.204348
#
# Coordination Sequence:
#
# PCOD8284813 Si02
#       7
#    32  32   8  16  16  16  16
#     4  10  22  42  64  90 120 155 201 250 302 358
#     4  12  23  42  58  91 123 161 205 248 294 357
#     4  10  20  34  65  94 106 164 205 258 306 336
#     4  10  21  38  64  94 116 144 198 260 301 343
#     4  12  26  38  60  88 128 168 192 238 304 370
#     4  10  20  38  64  88 114 155 212 257 292 338
#     4  12  20  38  65  87 124 154 209 250 293 363
#
# _framework density 19.236633999999999
#
# number of rings (size 3 to 8) (size 9 to 14) (size 15 to 20)
#    0.353    0.706    5.882    1.412    3.294    1.412 
#    2.118    1.176    0.000    0.000    0.000    0.824 
#    0.000    0.471    0.000    0.000    0.000    0.000 
#
# Total GULP energy -421389.833197 kJ/mol
# GULP energy per Si atom -12393.818623 kJ/mol
# Density = 1.919285 g / cm^3
# Si number density = 19.236634 Si / 1000 Ang^3
#
#
#
# Elastic Constant Matrix: (Units=GPa)
#
#
# Indices 1 2 3 4 5 6 
#
# 1 100.3342 47.3228 46.8292 0.0000 0.0000 0.0000
# 2 47.3228 127.6093 52.3700 0.0000 0.0000 0.0000
# 3 46.8292 52.3700 132.4750 0.0000 0.0000 0.0000
# 4 0.0000 0.0000 0.0000 24.1430 0.0000 0.0000
# 5 0.0000 0.0000 0.0000 0.0000 73.6912 0.0000
# 6 0.0000 0.0000 0.0000 0.0000 0.0000 -5.9367
#
#
#
# Elastic Compliance Matrix: (Units=1/GPa)
#
#
# Indices 1 2 3 4 5 6 
#
# 1 0.013155 -0.003545 -0.003249 0.000000 0.000000 0.000000
# 2 -0.003545 0.010309 -0.002822 0.000000 0.000000 0.000000
# 3 -0.003249 -0.002822 0.009813 0.000000 0.000000 0.000000
# 4 0.000000 0.000000 0.000000 0.041420 0.000000 0.000000
# 5 0.000000 0.000000 0.000000 0.000000 0.013570 0.000000
# 6 0.000000 0.000000 0.000000 0.000000 0.000000 -0.168443
#
#
# Mechanical properties :
#
#
# Convention : Reuss Voigt Hill
#
# Bulk Modulus (GPa) = 71.20128 72.60694 71.90411
# Shear Modulus (GPa) = -88.87077 32.63925 -28.11576
#
# Velocity S-wave (km/s) = -6.80434 4.12360 -3.82720
# Velocity P-wave (km/s) = 4.96370 7.77805 4.23437
#
# Compressibility (1/GPa) = 0.01404469
#
# Stress axis : x y z
#
# Youngs Moduli (GPa) = 76.01623 96.99908 101.90845
#
# Poissons Ratio (x) = 0.34388 0.33108
# Poissons Ratio (y) = 0.26949 0.28762
# Poissons Ratio (z) = 0.24696 0.27376
#
# Static dielectric constant tensor:
#      x y z
#    x 3.492430 0.000000 0.000000 
#    y 0.000000 3.227420 0.000000 
#    z 0.000000 0.000000 3.898510 
# 
# 
# High freq. dielectric constant tensor:
#      x y z
#    x 1.746680 0.000000 0.000000 
#    y 0.000000 1.726070 0.000000 
#    z 0.000000 0.000000 1.769320 
# 
# From -- ./inp_files/42490.got.cif
#   From: 2010.03.12/outbox.cif.g09.slc.cpg/sg69_22_cif.got.tgz:42490.got - 2010.04.10 23:52:46.
