data_PCOD8284086
_publ_section_title
;
Structure prediction by ZEFSAII (Michael W. Deem and Ramdas Pophale) SiO2 
 PCOD8284086
Probable space group: F M M M
;
_chemical_formula_sum "Si O2"
_cell_formula_units_Z 176
_cell_length_a 23.839195
_cell_length_b 15.083321
_cell_length_c 27.466455
_cell_angle_alpha 90.000000
_cell_angle_beta 90.000000
_cell_angle_gamma 90.000000
_cell_volume 9876.229423
_symmetry_space_group_name_H-M "F M M M"
_symmetry_group_IT_number 69
_symmetry_cell_setting 'orthorhombic'
loop_
_space_group_symop_operation_xyz
x,y,z
-x,-y,z
x,-y,-z
-x,y,-z
-x,-y,-z
x,y,-z
-x,y,z
x,-y,z
x,1/2+y,1/2+z
-x,1/2-y,1/2+z
x,1/2-y,1/2-z
-x,1/2+y,1/2-z
-x,1/2-y,1/2-z
x,1/2+y,1/2-z
-x,1/2+y,1/2+z
x,1/2-y,1/2+z
1/2+x,y,1/2+z
1/2-x,-y,1/2+z
1/2+x,-y,1/2-z
1/2-x,y,1/2-z
1/2-x,-y,1/2-z
1/2+x,y,1/2-z
1/2-x,y,1/2+z
1/2+x,-y,1/2+z
1/2+x,1/2+y,z
1/2-x,1/2-y,z
1/2+x,1/2-y,-z
1/2-x,1/2+y,-z
1/2-x,1/2-y,-z
1/2+x,1/2+y,-z
1/2-x,1/2+y,z
1/2+x,1/2-y,z
loop_
_atom_site_type_symbol
_atom_site_label
_atom_site_fract_x
_atom_site_fract_y
_atom_site_fract_z
Si Si1 0.000000 0.302780 0.054329
Si Si2 0.307396 0.399160 0.777132
Si Si3 0.379752 0.398385 0.685644
Si Si4 0.000000 0.603069 0.153253
Si Si5 0.391249 0.183610 0.444390
Si Si6 0.685765 0.757676 0.639256
Si Si7 0.938135 0.000000 0.057769
O O1 0.000000 0.377792 0.095521
O O2 0.946254 0.242175 0.061504
O O3 0.000000 0.345959 0.000000
O O4 0.298851 0.500000 0.796329
O O5 0.250000 0.367848 0.750000
O O6 0.361064 0.394387 0.741710
O O7 0.323415 0.333609 0.820537
O O8 0.375125 0.500000 0.666169
O O9 0.443319 0.360309 0.679179
O O10 0.337248 0.337497 0.655681
O O11 0.000000 0.500000 0.161338
O O12 0.370367 0.182474 0.500000
O O13 0.341924 0.219960 0.411769
O O14 0.404690 0.085757 0.424636
O O15 0.750000 0.750000 0.626755
O O16 0.000000 0.000000 0.081486
O O17 0.944609 0.000000 0.000000
#
# Coordination Sequence:
#
# PCOD8284086 Si02
#       7
#    16  32  32  16  32  32  16
#     4  10  18  34  57  83 109 141 193 240 277 330
#     4  10  21  38  59  84 113 145 188 236 277 331
#     4  10  21  38  58  82 116 149 187 233 281 337
#     4  10  20  37  59  81 111 153 186 226 296 337
#     4  10  21  36  56  82 116 150 185 231 284 339
#     4  12  23  35  59  85 112 150 196 234 275 333
#     4   9  16  32  58  82 107 144 182 223 280 343
#
# _framework density 17.820565999999999
#
# number of rings (size 3 to 8) (size 9 to 14) (size 15 to 20)
#    0.000    1.727    4.545    0.545    1.273    0.545 
#    0.000    2.727    0.000    0.545    0.000    0.000 
#    0.000    0.000    0.000    0.000    0.000    0.000 
#
# Total GULP energy -545512.689629 kJ/mol
# GULP energy per Si atom -12398.015673 kJ/mol
# Density = 1.778001 g / cm^3
# Si number density = 17.820566 Si / 1000 Ang^3
#
#
#
# Elastic Constant Matrix: (Units=GPa)
#
#
# Indices 1 2 3 4 5 6 
#
# 1 136.4003 39.5158 57.4520 0.0000 0.0000 0.0000
# 2 39.5158 67.5986 32.9293 0.0000 0.0000 0.0000
# 3 57.4520 32.9293 90.1160 0.0000 0.0000 0.0000
# 4 0.0000 0.0000 0.0000 22.9858 0.0000 0.0000
# 5 0.0000 0.0000 0.0000 0.0000 35.0943 0.0000
# 6 0.0000 0.0000 0.0000 0.0000 0.0000 20.6972
#
#
#
# Elastic Compliance Matrix: (Units=1/GPa)
#
#
# Indices 1 2 3 4 5 6 
#
# 1 0.010684 -0.003561 -0.005510 0.000000 0.000000 0.000000
# 2 -0.003561 0.019184 -0.004739 0.000000 0.000000 0.000000
# 3 -0.005510 -0.004739 0.016341 0.000000 0.000000 0.000000
# 4 0.000000 0.000000 0.000000 0.043505 0.000000 0.000000
# 5 0.000000 0.000000 0.000000 0.000000 0.028495 0.000000
# 6 0.000000 0.000000 0.000000 0.000000 0.000000 0.048316
#
#
# Mechanical properties :
#
#
# Convention : Reuss Voigt Hill
#
# Bulk Modulus (GPa) = 53.79956 61.54547 57.67251
# Shear Modulus (GPa) = 24.95731 26.70331 25.83031
#
# Velocity S-wave (km/s) = 3.74636 3.87519 3.81132
# Velocity P-wave (km/s) = 6.99776 7.39148 7.19731
#
# Compressibility (1/GPa) = 0.01858751
#
# Stress axis : x y z
#
# Youngs Moduli (GPa) = 93.59849 52.12736 61.19398
#
# Poissons Ratio (x) = 0.18564 0.33718
# Poissons Ratio (y) = 0.33334 0.29003
# Poissons Ratio (z) = 0.51573 0.24706
#
# Static dielectric constant tensor:
#      x y z
#    x 3.566200 0.000000 0.000000 
#    y 0.000000 3.461110 0.000000 
#    z 0.000000 0.000000 3.178710 
# 
# 
# High freq. dielectric constant tensor:
#      x y z
#    x 1.694730 0.000000 0.000000 
#    y 0.000000 1.695920 0.000000 
#    z 0.000000 0.000000 1.670910 
# 
# From -- ./inp_files/43181.got.cif
#   From: 2010.03.12/outbox.cif.g09.slc.cpg/sg69_22_cif.got.tgz:43181.got - 2010.04.10 23:52:46.
