data_PCOD8284657
_publ_section_title
;
Structure prediction by ZEFSAII (Michael W. Deem and Ramdas Pophale) SiO2 
 PCOD8284657
Probable space group: F M M M
;
_chemical_formula_sum "Si O2"
_cell_formula_units_Z 160
_cell_length_a 28.498071
_cell_length_b 13.586067
_cell_length_c 23.288425
_cell_angle_alpha 90.000000
_cell_angle_beta 90.000000
_cell_angle_gamma 90.000000
_cell_volume 9016.735586
_symmetry_space_group_name_H-M "F M M M"
_symmetry_group_IT_number 69
_symmetry_cell_setting 'orthorhombic'
loop_
_space_group_symop_operation_xyz
x,y,z
-x,-y,z
x,-y,-z
-x,y,-z
-x,-y,-z
x,y,-z
-x,y,z
x,-y,z
x,1/2+y,1/2+z
-x,1/2-y,1/2+z
x,1/2-y,1/2-z
-x,1/2+y,1/2-z
-x,1/2-y,1/2-z
x,1/2+y,1/2-z
-x,1/2+y,1/2+z
x,1/2-y,1/2+z
1/2+x,y,1/2+z
1/2-x,-y,1/2+z
1/2+x,-y,1/2-z
1/2-x,y,1/2-z
1/2-x,-y,1/2-z
1/2+x,y,1/2-z
1/2-x,y,1/2+z
1/2+x,-y,1/2+z
1/2+x,1/2+y,z
1/2-x,1/2-y,z
1/2+x,1/2-y,-z
1/2-x,1/2+y,-z
1/2-x,1/2-y,-z
1/2+x,1/2+y,-z
1/2-x,1/2+y,z
1/2+x,1/2-y,z
loop_
_atom_site_type_symbol
_atom_site_label
_atom_site_fract_x
_atom_site_fract_y
_atom_site_fract_z
Si Si1 0.350145 0.389062 0.434523
Si Si2 0.183114 0.750000 0.250000
Si Si3 0.334279 0.612046 0.155215
Si Si4 0.773435 0.387292 0.158242
Si Si5 0.500000 0.888337 0.431864
Si Si6 0.097130 0.198072 0.066559
O O1 0.332399 0.381002 0.500000
O O2 0.367670 0.500000 0.420821
O O3 0.306722 0.357596 0.394728
O O4 0.393395 0.314465 0.423498
O O5 0.150585 0.684176 0.292281
O O6 0.215802 0.676425 0.214049
O O7 0.341996 0.500000 0.174851
O O8 0.279962 0.633359 0.139529
O O9 0.364648 0.632891 0.099161
O O10 0.781259 0.500000 0.175692
O O11 0.500000 0.890794 0.500000
O O12 0.545631 0.829323 0.409560
O O13 0.500000 0.000000 0.407501
O O14 0.101640 0.169254 0.000000
#
# Coordination Sequence:
#
# PCOD8284657 Si02
#       6
#    32  16  32  32  16  32
#     4   9  18  33  52  76 105 136 170 207 254 311
#     4  12  21  34  50  71 106 143 180 216 250 293
#     4  11  22  33  50  77 104 137 180 216 252 304
#     4  10  20  33  50  73 105 141 174 213 255 297
#     4   9  18  34  55  78 105 133 162 206 264 317
#     4  10  20  35  56  80 105 133 167 211 265 316
#
# _framework density 17.744782000000001
#
# number of rings (size 3 to 8) (size 9 to 14) (size 15 to 20)
#    0.000    1.900    2.000    3.000    0.000    3.600 
#    0.000    4.500    0.000    3.600    0.000    0.000 
#    0.000    0.000    0.000    0.000    0.000    0.000 
#
# Total GULP energy -495953.336842 kJ/mol
# GULP energy per Si atom -12398.833421 kJ/mol
# Density = 1.770439 g / cm^3
# Si number density = 17.744782 Si / 1000 Ang^3
#
#
#
# Elastic Constant Matrix: (Units=GPa)
#
#
# Indices 1 2 3 4 5 6 
#
# 1 98.7536 55.5036 52.6893 0.0000 0.0000 0.0000
# 2 55.5036 108.8289 52.3036 0.0000 0.0000 0.0000
# 3 52.6893 52.3036 78.1451 0.0000 0.0000 0.0000
# 4 0.0000 0.0000 0.0000 30.9930 0.0000 0.0000
# 5 0.0000 0.0000 0.0000 0.0000 12.3935 0.0000
# 6 0.0000 0.0000 0.0000 0.0000 0.0000 27.5968
#
#
#
# Elastic Compliance Matrix: (Units=1/GPa)
#
#
# Indices 1 2 3 4 5 6 
#
# 1 0.017337 -0.004753 -0.008508 0.000000 0.000000 0.000000
# 2 -0.004753 0.014849 -0.006734 0.000000 0.000000 0.000000
# 3 -0.008508 -0.006734 0.023041 0.000000 0.000000 0.000000
# 4 0.000000 0.000000 0.000000 0.032265 0.000000 0.000000
# 5 0.000000 0.000000 0.000000 0.000000 0.080687 0.000000
# 6 0.000000 0.000000 0.000000 0.000000 0.000000 0.036236
#
#
# Mechanical properties :
#
#
# Convention : Reuss Voigt Hill
#
# Bulk Modulus (GPa) = 65.63303 67.41342 66.52322
# Shear Modulus (GPa) = 20.04124 22.54539 21.29332
#
# Velocity S-wave (km/s) = 3.36432 3.56833 3.46783
# Velocity P-wave (km/s) = 7.22213 7.41959 7.32152
#
# Compressibility (1/GPa) = 0.01523623
#
# Stress axis : x y z
#
# Youngs Moduli (GPa) = 57.67965 67.34359 43.40141
#
# Poissons Ratio (x) = 0.32008 0.36928
# Poissons Ratio (y) = 0.27415 0.29227
# Poissons Ratio (z) = 0.49076 0.45350
#
# Static dielectric constant tensor:
#      x y z
#    x 3.159920 0.000000 0.000000 
#    y 0.000000 3.718220 0.000000 
#    z 0.000000 0.000000 3.329090 
# 
# 
# High freq. dielectric constant tensor:
#      x y z
#    x 1.649600 0.000000 0.000000 
#    y 0.000000 1.713690 0.000000 
#    z 0.000000 0.000000 1.675320 
# 
# From -- ./inp_files/37795.got.cif
#   From: 2010.03.12/outbox.cif.g09.slc.cpg/sg69_19_cif.got.tgz:37795.got - 2010.04.10 23:52:46.
