data_PCOD8284365
_publ_section_title
;
Structure prediction by ZEFSAII (Michael W. Deem and Ramdas Pophale) SiO2 
 PCOD8284365
Probable space group: F M M M
;
_chemical_formula_sum "Si O2"
_cell_formula_units_Z 144
_cell_length_a 19.631371
_cell_length_b 21.056889
_cell_length_c 17.378974
_cell_angle_alpha 90.000000
_cell_angle_beta 90.000000
_cell_angle_gamma 90.000000
_cell_volume 7184.043806
_symmetry_space_group_name_H-M "F M M M"
_symmetry_group_IT_number 69
_symmetry_cell_setting 'orthorhombic'
loop_
_space_group_symop_operation_xyz
x,y,z
-x,-y,z
x,-y,-z
-x,y,-z
-x,-y,-z
x,y,-z
-x,y,z
x,-y,z
x,1/2+y,1/2+z
-x,1/2-y,1/2+z
x,1/2-y,1/2-z
-x,1/2+y,1/2-z
-x,1/2-y,1/2-z
x,1/2+y,1/2-z
-x,1/2+y,1/2+z
x,1/2-y,1/2+z
1/2+x,y,1/2+z
1/2-x,-y,1/2+z
1/2+x,-y,1/2-z
1/2-x,y,1/2-z
1/2-x,-y,1/2-z
1/2+x,y,1/2-z
1/2-x,y,1/2+z
1/2+x,-y,1/2+z
1/2+x,1/2+y,z
1/2-x,1/2-y,z
1/2+x,1/2-y,-z
1/2-x,1/2+y,-z
1/2-x,1/2-y,-z
1/2+x,1/2+y,-z
1/2-x,1/2+y,z
1/2+x,1/2-y,z
loop_
_atom_site_type_symbol
_atom_site_label
_atom_site_fract_x
_atom_site_fract_y
_atom_site_fract_z
Si Si1 0.798441 0.572584 0.589794
Si Si2 0.077391 0.352468 0.851701
Si Si3 0.579530 0.931851 0.000000
Si Si4 0.705392 0.309622 0.409631
Si Si5 0.924254 0.927287 0.195187
O O1 0.814219 0.579018 0.500000
O O2 0.775817 0.500000 0.610554
O O3 0.741327 0.623633 0.614462
O O4 0.868743 0.591183 0.631893
O O5 0.100867 0.397473 0.922029
O O6 0.135181 0.298583 0.860723
O O7 0.086371 0.386676 0.771412
O O8 0.000000 0.326548 0.862422
O O9 0.500000 0.942194 0.000000
O O10 0.617311 0.000000 0.000000
O O11 0.689478 0.308408 0.500000
O O12 0.750000 0.250000 0.384769
O O13 0.000000 0.914540 0.161062
O O14 0.916735 0.000000 0.220721
#
# Coordination Sequence:
#
# PCOD8284365 Si02
#       5
#    32  32  16  32  32
#     4   9  19  36  57  81 107 143 192 236 276 328
#     4  10  19  33  53  80 110 143 181 221 271 335
#     4   9  16  26  45  76 110 140 171 208 256 317
#     4  10  21  38  57  80 112 149 185 228 277 332
#     4   9  18  33  54  82 116 147 180 231 285 329
#
# _framework density 20.044421
#
# number of rings (size 3 to 8) (size 9 to 14) (size 15 to 20)
#    0.000    2.556    1.111    0.667    0.000    5.778 
#    0.000    7.778    0.000    6.667    0.000    0.000 
#    0.000    0.000    0.000    0.000    0.000    0.000 
#
# Total GULP energy -446115.194611 kJ/mol
# GULP energy per Si atom -12392.088739 kJ/mol
# Density = 1.999880 g / cm^3
# Si number density = 20.044421 Si / 1000 Ang^3
#
#
#
# Elastic Constant Matrix: (Units=GPa)
#
#
# Indices 1 2 3 4 5 6 
#
# 1 168.8044 65.7059 48.1009 0.0000 0.0000 0.0000
# 2 65.7059 83.4322 24.2446 0.0000 0.0000 0.0000
# 3 48.1009 24.2446 54.4975 0.0000 0.0000 0.0000
# 4 0.0000 0.0000 0.0000 19.2206 0.0000 0.0000
# 5 0.0000 0.0000 0.0000 0.0000 35.5767 0.0000
# 6 0.0000 0.0000 0.0000 0.0000 0.0000 27.2476
#
#
#
# Elastic Compliance Matrix: (Units=1/GPa)
#
#
# Indices 1 2 3 4 5 6 
#
# 1 0.010068 -0.006140 -0.006154 0.000000 0.000000 0.000000
# 2 -0.006140 0.017510 -0.002370 0.000000 0.000000 0.000000
# 3 -0.006154 -0.002370 0.024836 0.000000 0.000000 0.000000
# 4 0.000000 0.000000 0.000000 0.052028 0.000000 0.000000
# 5 0.000000 0.000000 0.000000 0.000000 0.028108 0.000000
# 6 0.000000 0.000000 0.000000 0.000000 0.000000 0.036701
#
#
# Mechanical properties :
#
#
# Convention : Reuss Voigt Hill
#
# Bulk Modulus (GPa) = 43.32001 64.75967 54.03984
# Shear Modulus (GPa) = 24.23946 27.65449 25.94698
#
# Velocity S-wave (km/s) = 3.48125 3.71841 3.60178
# Velocity P-wave (km/s) = 6.14961 7.12837 6.65700
#
# Compressibility (1/GPa) = 0.02308402
#
# Stress axis : x y z
#
# Youngs Moduli (GPa) = 99.32650 57.10921 40.26413
#
# Poissons Ratio (x) = 0.35067 0.24780
# Poissons Ratio (y) = 0.60990 0.09544
# Poissons Ratio (z) = 0.61130 0.13537
#
# Static dielectric constant tensor:
#      x y z
#    x 3.919370 0.000000 0.000000 
#    y 0.000000 3.655090 0.000000 
#    z 0.000000 0.000000 3.486920 
# 
# 
# High freq. dielectric constant tensor:
#      x y z
#    x 1.798950 0.000000 0.000000 
#    y 0.000000 1.757400 0.000000 
#    z 0.000000 0.000000 1.770820 
# 
# From -- ./inp_files/22838.got.cif
#   From: 2010.03.12/outbox.cif.g09.slc.cpg/sg69_12_cif.got.tgz:22838.got - 2010.04.10 23:52:46.
