data_PCOD8284938
_publ_section_title
;
Structure prediction by ZEFSAII (Michael W. Deem and Ramdas Pophale) SiO2 
 PCOD8284938
Probable space group: F M M M
;
_chemical_formula_sum "Si O2"
_cell_formula_units_Z 160
_cell_length_a 18.145553
_cell_length_b 32.899237
_cell_length_c 14.275850
_cell_angle_alpha 90.000000
_cell_angle_beta 90.000000
_cell_angle_gamma 90.000000
_cell_volume 8522.323393
_symmetry_space_group_name_H-M "F M M M"
_symmetry_group_IT_number 69
_symmetry_cell_setting 'orthorhombic'
loop_
_space_group_symop_operation_xyz
x,y,z
-x,-y,z
x,-y,-z
-x,y,-z
-x,-y,-z
x,y,-z
-x,y,z
x,-y,z
x,1/2+y,1/2+z
-x,1/2-y,1/2+z
x,1/2-y,1/2-z
-x,1/2+y,1/2-z
-x,1/2-y,1/2-z
x,1/2+y,1/2-z
-x,1/2+y,1/2+z
x,1/2-y,1/2+z
1/2+x,y,1/2+z
1/2-x,-y,1/2+z
1/2+x,-y,1/2-z
1/2-x,y,1/2-z
1/2-x,-y,1/2-z
1/2+x,y,1/2-z
1/2-x,y,1/2+z
1/2+x,-y,1/2+z
1/2+x,1/2+y,z
1/2-x,1/2-y,z
1/2+x,1/2-y,-z
1/2-x,1/2+y,-z
1/2-x,1/2-y,-z
1/2+x,1/2+y,-z
1/2-x,1/2+y,z
1/2+x,1/2-y,z
loop_
_atom_site_type_symbol
_atom_site_label
_atom_site_fract_x
_atom_site_fract_y
_atom_site_fract_z
Si Si1 0.662167 0.060147 0.608971
Si Si2 0.291522 0.000000 0.892546
Si Si3 0.419003 0.702399 0.266574
Si Si4 0.850681 0.653234 0.605417
Si Si5 0.584914 0.000000 0.736695
Si Si6 0.786337 0.790763 0.605301
O O1 0.641780 0.053619 0.500000
O O2 0.741912 0.039874 0.629424
O O3 0.661956 0.107145 0.637475
O O4 0.600141 0.039456 0.673042
O O5 0.363753 0.000000 0.828595
O O6 0.318215 0.000000 0.000000
O O7 0.500000 0.690678 0.305175
O O8 0.414686 0.750000 0.250000
O O9 0.407076 0.677175 0.171399
O O10 0.357026 0.691692 0.341667
O O11 0.882747 0.655677 0.500000
O O12 0.770862 0.673074 0.610432
O O13 0.500000 0.000000 0.769274
O O14 0.811110 0.780015 0.500000
O O15 0.750000 0.750000 0.650713
#
# Coordination Sequence:
#
# PCOD8284938 Si02
#       6
#    32  16  32  32  16  32
#     4   9  19  37  60  85 110 144 192 240 281 329
#     4   9  19  37  59  83 116 151 189 232 276 327
#     4  11  23  35  51  78 111 145 179 223 283 344
#     4  10  21  37  60  85 109 144 192 239 283 333
#     4  11  22  34  55  87 121 155 185 223 284 344
#     4  10  20  36  57  78 102 137 184 235 281 327
#
# _framework density 18.774222999999999
#
# number of rings (size 3 to 8) (size 9 to 14) (size 15 to 20)
#    0.000    2.000    2.000    2.700    0.000    5.800 
#    0.000    4.000    0.000    0.000    0.000    8.400 
#    0.000    0.000    0.000    0.000    0.000    0.000 
#
# Total GULP energy -495958.312226 kJ/mol
# GULP energy per Si atom -12398.957806 kJ/mol
# Density = 1.873149 g / cm^3
# Si number density = 18.774223 Si / 1000 Ang^3
#
#
#
# Elastic Constant Matrix: (Units=GPa)
#
#
# Indices 1 2 3 4 5 6 
#
# 1 115.8981 37.0428 54.5896 0.0000 0.0000 0.0000
# 2 37.0428 146.3957 43.4658 0.0000 0.0000 0.0000
# 3 54.5896 43.4658 86.7216 0.0000 0.0000 0.0000
# 4 0.0000 0.0000 0.0000 -9.0540 0.0000 0.0000
# 5 0.0000 0.0000 0.0000 0.0000 17.0382 0.0000
# 6 0.0000 0.0000 0.0000 0.0000 0.0000 -296.9898
#
#
#
# Elastic Compliance Matrix: (Units=1/GPa)
#
#
# Indices 1 2 3 4 5 6 
#
# 1 0.012379 -0.000962 -0.007310 0.000000 0.000000 0.000000
# 2 -0.000962 0.008100 -0.003454 0.000000 0.000000 0.000000
# 3 -0.007310 -0.003454 0.017864 0.000000 0.000000 0.000000
# 4 0.000000 0.000000 0.000000 -0.110449 0.000000 0.000000
# 5 0.000000 0.000000 0.000000 0.000000 0.058692 0.000000
# 6 0.000000 0.000000 0.000000 0.000000 0.000000 -0.003367
#
#
# Mechanical properties :
#
#
# Convention : Reuss Voigt Hill
#
# Bulk Modulus (GPa) = 67.15820 68.80131 67.97976
# Shear Modulus (GPa) = 429.76734 -43.53997 193.11369
#
# Velocity S-wave (km/s) = 15.14630 -4.82096 10.15305
# Velocity P-wave (km/s) = 18.48593 2.39527 13.18080
#
# Compressibility (1/GPa) = 0.01489022
#
# Stress axis : x y z
#
# Youngs Moduli (GPa) = 80.78275 123.46043 55.97822
#
# Poissons Ratio (x) = 0.11874 0.40921
# Poissons Ratio (y) = 0.07770 0.19336
# Poissons Ratio (z) = 0.59054 0.42646
#
# Static dielectric constant tensor:
#      x y z
#    x 3.358450 0.000000 0.000000 
#    y 0.000000 3.634160 0.000000 
#    z 0.000000 0.000000 3.570700 
# 
# 
# High freq. dielectric constant tensor:
#      x y z
#    x 1.713530 0.000000 0.000000 
#    y 0.000000 1.729480 0.000000 
#    z 0.000000 0.000000 1.731060 
# 
# From -- ./inp_files/15659.got.cif
#   From: 2010.03.12/outbox.cif.g09.slc.cpg/sg69_8_cif.got.tgz:15659.got - 2010.04.10 23:52:46.
