data_PCOD8284667
_publ_section_title
;
Structure prediction by ZEFSAII (Michael W. Deem and Ramdas Pophale) SiO2 
 PCOD8284667
Probable space group: F M M M
;
_chemical_formula_sum "Si O2"
_cell_formula_units_Z 88
_cell_length_a 20.641253
_cell_length_b 9.063491
_cell_length_c 25.811705
_cell_angle_alpha 90.000000
_cell_angle_beta 90.000000
_cell_angle_gamma 90.000000
_cell_volume 4828.900511
_symmetry_space_group_name_H-M "F M M M"
_symmetry_group_IT_number 69
_symmetry_cell_setting 'orthorhombic'
loop_
_space_group_symop_operation_xyz
x,y,z
-x,-y,z
x,-y,-z
-x,y,-z
-x,-y,-z
x,y,-z
-x,y,z
x,-y,z
x,1/2+y,1/2+z
-x,1/2-y,1/2+z
x,1/2-y,1/2-z
-x,1/2+y,1/2-z
-x,1/2-y,1/2-z
x,1/2+y,1/2-z
-x,1/2+y,1/2+z
x,1/2-y,1/2+z
1/2+x,y,1/2+z
1/2-x,-y,1/2+z
1/2+x,-y,1/2-z
1/2-x,y,1/2-z
1/2-x,-y,1/2-z
1/2+x,y,1/2-z
1/2-x,y,1/2+z
1/2+x,-y,1/2+z
1/2+x,1/2+y,z
1/2-x,1/2-y,z
1/2+x,1/2-y,-z
1/2-x,1/2+y,-z
1/2-x,1/2-y,-z
1/2+x,1/2+y,-z
1/2-x,1/2+y,z
1/2+x,1/2-y,z
loop_
_atom_site_type_symbol
_atom_site_label
_atom_site_fract_x
_atom_site_fract_y
_atom_site_fract_z
Si Si1 0.575931 0.672211 0.603068
Si Si2 0.750000 0.250000 0.750000
Si Si3 0.874168 0.835539 0.201642
Si Si4 0.076932 0.666560 0.500000
O O1 0.500000 0.701327 0.611181
O O2 0.591899 0.500000 0.600161
O O3 0.614748 0.743726 0.649954
O O4 0.601868 0.747681 0.550629
O O5 0.796820 0.152122 0.786949
O O6 0.908379 0.750000 0.250000
O O7 0.903383 0.000000 0.196166
O O8 0.104519 0.500000 0.500000
O O9 0.000000 0.665278 0.500000
#
# Coordination Sequence:
#
# PCOD8284667 Si02
#       4
#    32   8  32  16
#     4  10  20  33  51  77 108 139 171 208 252 302
#     4   8  22  36  56  74  98 132 174 214 260 304
#     4  10  20  34  54  76 101 134 172 213 256 305
#     4   9  17  31  51  74 103 138 173 207 248 300
#
# _framework density 18.223611999999999
#
# number of rings (size 3 to 8) (size 9 to 14) (size 15 to 20)
#    1.091    1.273    0.000    3.273    0.000    5.091 
#    0.000    0.000    0.000    1.091    0.000    0.000 
#    0.000    0.000    0.000    0.000    0.000    0.000 
#
# Total GULP energy -272646.610917 kJ/mol
# GULP energy per Si atom -12393.027769 kJ/mol
# Density = 1.818213 g / cm^3
# Si number density = 18.223612 Si / 1000 Ang^3
#
#
#
# Elastic Constant Matrix: (Units=GPa)
#
#
# Indices 1 2 3 4 5 6 
#
# 1 36.7998 28.1286 37.3572 0.0000 0.0000 0.0000
# 2 28.1286 163.9919 87.8277 0.0000 0.0000 -0.0001
# 3 37.3572 87.8277 188.5905 0.0000 0.0000 0.0000
# 4 0.0000 0.0000 0.0000 39.3713 0.0000 0.0000
# 5 0.0000 0.0000 0.0000 0.0000 -7.2380 0.0000
# 6 0.0000 -0.0001 0.0000 0.0000 0.0000 15.9171
#
#
#
# Elastic Compliance Matrix: (Units=1/GPa)
#
#
# Indices 1 2 3 4 5 6 
#
# 1 0.035132 -0.003063 -0.005533 0.000000 0.000000 0.000000
# 2 -0.003063 0.008391 -0.003301 0.000000 0.000000 0.000000
# 3 -0.005533 -0.003301 0.007936 0.000000 0.000000 0.000000
# 4 0.000000 0.000000 0.000000 0.025399 0.000000 0.000000
# 5 0.000000 0.000000 0.000000 0.000000 -0.138159 0.000000
# 6 0.000000 0.000000 0.000000 0.000000 0.000000 0.062826
#
#
# Mechanical properties :
#
#
# Convention : Reuss Voigt Hill
#
# Bulk Modulus (GPa) = 36.14635 77.33435 56.74035
# Shear Modulus (GPa) = 144.76234 25.34799 85.05517
#
# Velocity S-wave (km/s) = 8.92240 3.73358 6.83918
# Velocity P-wave (km/s) = 11.22602 7.81758 9.67311
#
# Compressibility (1/GPa) = 0.02766531
#
# Stress axis : x y z
#
# Youngs Moduli (GPa) = 28.46434 119.17311 126.01129
#
# Poissons Ratio (x) = 0.36500 0.69719
# Poissons Ratio (y) = 0.08718 0.41598
# Poissons Ratio (z) = 0.15749 0.39340
#
# Static dielectric constant tensor:
#      x y z
#    x 2.856800 0.000000 0.000000 
#    y 0.000000 3.438960 0.000000 
#    z 0.000000 0.000000 3.418960 
# 
# 
# High freq. dielectric constant tensor:
#      x y z
#    x 1.652280 0.000000 0.000000 
#    y 0.000000 1.723040 0.000000 
#    z 0.000000 0.000000 1.715190 
# 
# From -- ./inp_files/3067.got.cif
#   From: 2010.03.12/outbox.cif.g09.slc.cpg/sg69_2_cif.got.tgz:3067.got - 2010.04.10 23:52:46.
