data_PCOD8284528
_publ_section_title
;
Structure prediction by ZEFSAII (Michael W. Deem and Ramdas Pophale) SiO2 
 PCOD8284528
Probable space group: F M M M
;
_chemical_formula_sum "Si O2"
_cell_formula_units_Z 160
_cell_length_a 27.312781
_cell_length_b 15.295395
_cell_length_c 18.510119
_cell_angle_alpha 90.000000
_cell_angle_beta 90.000000
_cell_angle_gamma 90.000000
_cell_volume 7732.783129
_symmetry_space_group_name_H-M "F M M M"
_symmetry_group_IT_number 69
_symmetry_cell_setting 'orthorhombic'
loop_
_space_group_symop_operation_xyz
x,y,z
-x,-y,z
x,-y,-z
-x,y,-z
-x,-y,-z
x,y,-z
-x,y,z
x,-y,z
x,1/2+y,1/2+z
-x,1/2-y,1/2+z
x,1/2-y,1/2-z
-x,1/2+y,1/2-z
-x,1/2-y,1/2-z
x,1/2+y,1/2-z
-x,1/2+y,1/2+z
x,1/2-y,1/2+z
1/2+x,y,1/2+z
1/2-x,-y,1/2+z
1/2+x,-y,1/2-z
1/2-x,y,1/2-z
1/2-x,-y,1/2-z
1/2+x,y,1/2-z
1/2-x,y,1/2+z
1/2+x,-y,1/2+z
1/2+x,1/2+y,z
1/2-x,1/2-y,z
1/2+x,1/2-y,-z
1/2-x,1/2+y,-z
1/2-x,1/2-y,-z
1/2+x,1/2+y,-z
1/2-x,1/2+y,z
1/2+x,1/2-y,z
loop_
_atom_site_type_symbol
_atom_site_label
_atom_site_fract_x
_atom_site_fract_y
_atom_site_fract_z
Si Si1 0.218451 0.100659 0.317905
Si Si2 0.942957 0.000000 0.920979
Si Si3 0.395841 0.346386 0.836229
Si Si4 0.390140 0.649922 0.672417
Si Si5 0.942741 0.000000 0.585682
Si Si6 0.804895 0.100711 0.918911
O O1 0.250000 0.137474 0.250000
O O2 0.168825 0.153254 0.333541
O O3 0.249626 0.110888 0.390985
O O4 0.204466 0.000000 0.301868
O O5 0.929161 0.910194 0.882418
O O6 0.000000 0.000000 0.929143
O O7 0.917773 0.000000 0.000000
O O8 0.401568 0.378709 0.754159
O O9 0.412288 0.245667 0.844134
O O10 0.340026 0.349567 0.863496
O O11 0.416029 0.585026 0.616992
O O12 0.935930 0.000000 0.500000
O O13 0.000000 0.000000 0.607279
O O14 0.821515 0.000000 0.918239
O O15 0.807995 0.139345 0.000000
#
# Coordination Sequence:
#
# PCOD8284528 Si02
#       6
#    32  16  32  32  16  32
#     4  10  19  35  62  92 128 177 221 265 314 383
#     4  11  25  45  70  97 128 165 213 284 353 402
#     4  11  23  40  66 100 129 168 212 269 334 397
#     4  11  24  42  67  97 133 171 220 269 328 394
#     4  11  27  49  69  90 126 175 222 277 336 390
#     4  10  20  35  59  90 129 170 210 261 324 389
#
# _framework density 20.691127999999999
#
# number of rings (size 3 to 8) (size 9 to 14) (size 15 to 20)
#    0.000    1.400    4.000    1.200    0.000    5.600 
#    0.000    5.000    0.000    0.000    0.000    0.000 
#    0.000    0.000    0.000    0.000    0.000    0.000 
#
# Total GULP energy -496025.741891 kJ/mol
# GULP energy per Si atom -12400.643547 kJ/mol
# Density = 2.064403 g / cm^3
# Si number density = 20.691128 Si / 1000 Ang^3
#
#
#
# Elastic Constant Matrix: (Units=GPa)
#
#
# Indices 1 2 3 4 5 6 
#
# 1 94.4870 40.0628 48.5632 0.0000 0.0000 0.0000
# 2 40.0628 96.7762 64.7403 0.0000 0.0000 0.0000
# 3 48.5632 64.7403 147.1130 0.0000 0.0000 0.0000
# 4 0.0000 0.0000 0.0000 17.4162 0.0000 0.0000
# 5 0.0000 0.0000 0.0000 0.0000 30.9602 0.0000
# 6 0.0000 0.0000 0.0000 0.0000 0.0000 11.4855
#
#
#
# Elastic Compliance Matrix: (Units=1/GPa)
#
#
# Indices 1 2 3 4 5 6 
#
# 1 0.013635 -0.003732 -0.002859 0.000000 0.000000 0.000000
# 2 -0.003732 0.015666 -0.005662 0.000000 0.000000 0.000000
# 3 -0.002859 -0.005662 0.010233 0.000000 0.000000 0.000000
# 4 0.000000 0.000000 0.000000 0.057418 0.000000 0.000000
# 5 0.000000 0.000000 0.000000 0.000000 0.032299 0.000000
# 6 0.000000 0.000000 0.000000 0.000000 0.000000 0.087066
#
#
# Mechanical properties :
#
#
# Convention : Reuss Voigt Hill
#
# Bulk Modulus (GPa) = 66.54227 71.67875 69.11051
# Shear Modulus (GPa) = 20.33901 24.30638 22.32270
#
# Velocity S-wave (km/s) = 3.13866 3.43114 3.28815
# Velocity P-wave (km/s) = 6.73532 7.10031 6.92022
#
# Compressibility (1/GPa) = 0.01502804
#
# Stress axis : x y z
#
# Youngs Moduli (GPa) = 73.33959 63.83274 97.72435
#
# Poissons Ratio (x) = 0.23824 0.27936
# Poissons Ratio (y) = 0.27373 0.55332
# Poissons Ratio (z) = 0.20965 0.36143
#
# Static dielectric constant tensor:
#      x y z
#    x 3.614790 0.000000 0.000000 
#    y 0.000000 3.657090 0.000000 
#    z 0.000000 0.000000 3.885020 
# 
# 
# High freq. dielectric constant tensor:
#      x y z
#    x 1.801780 0.000000 0.000000 
#    y 0.000000 1.803930 0.000000 
#    z 0.000000 0.000000 1.818210 
# 
# From -- ./inp_files/27526.got.cif
#   From: 2010.03.12/outbox.cif.g09.slc.cpg/sg69_14_cif.got.tgz:27526.got - 2010.04.10 23:52:46.
