data_PCOD8284461
_publ_section_title
;
Structure prediction by ZEFSAII (Michael W. Deem and Ramdas Pophale) SiO2 
 PCOD8284461
Probable space group: F M M M
;
_chemical_formula_sum "Si O2"
_cell_formula_units_Z 160
_cell_length_a 30.409053
_cell_length_b 16.151953
_cell_length_c 17.790706
_cell_angle_alpha 90.000000
_cell_angle_beta 90.000000
_cell_angle_gamma 90.000000
_cell_volume 8738.182695
_symmetry_space_group_name_H-M "F M M M"
_symmetry_group_IT_number 69
_symmetry_cell_setting 'orthorhombic'
loop_
_space_group_symop_operation_xyz
x,y,z
-x,-y,z
x,-y,-z
-x,y,-z
-x,-y,-z
x,y,-z
-x,y,z
x,-y,z
x,1/2+y,1/2+z
-x,1/2-y,1/2+z
x,1/2-y,1/2-z
-x,1/2+y,1/2-z
-x,1/2-y,1/2-z
x,1/2+y,1/2-z
-x,1/2+y,1/2+z
x,1/2-y,1/2+z
1/2+x,y,1/2+z
1/2-x,-y,1/2+z
1/2+x,-y,1/2-z
1/2-x,y,1/2-z
1/2-x,-y,1/2-z
1/2+x,y,1/2-z
1/2-x,y,1/2+z
1/2+x,-y,1/2+z
1/2+x,1/2+y,z
1/2-x,1/2-y,z
1/2+x,1/2-y,-z
1/2-x,1/2+y,-z
1/2-x,1/2-y,-z
1/2+x,1/2+y,-z
1/2-x,1/2+y,z
1/2+x,1/2-y,z
loop_
_atom_site_type_symbol
_atom_site_label
_atom_site_fract_x
_atom_site_fract_y
_atom_site_fract_z
Si Si1 0.645309 0.000000 0.084055
Si Si2 0.092392 0.675012 0.416948
Si Si3 0.199396 0.500000 0.770434
Si Si4 0.500000 0.093657 0.373495
Si Si5 0.650203 0.836802 0.726256
Si Si6 0.088205 0.648912 0.137356
Si Si7 0.500000 0.344177 0.715124
O O1 0.687025 0.000000 0.140819
O O2 0.613552 0.922653 0.094480
O O3 0.665136 0.000000 0.000000
O O4 0.107590 0.645462 0.500000
O O5 0.044283 0.638017 0.401055
O O6 0.130455 0.652484 0.357386
O O7 0.088840 0.773538 0.417846
O O8 0.250000 0.500000 0.750000
O O9 0.180925 0.416106 0.734748
O O10 0.500000 0.092300 0.283687
O O11 0.500000 0.000000 0.403892
O O12 0.675435 0.750000 0.750000
O O13 0.609428 0.834786 0.781949
O O14 0.038638 0.631044 0.159030
O O15 0.500000 0.250000 0.750000
#
# Coordination Sequence:
#
# PCOD8284461 Si02
#       7
#    16  32  16  16  32  32  16
#     4  10  22  39  60  88 116 140 178 238 293 338
#     4  11  21  35  52  77 113 152 190 231 277 325
#     4  10  22  40  65  89 110 140 184 222 278 357
#     4  12  25  33  50  75 113 152 199 238 280 311
#     4   9  19  36  58  83 111 147 186 229 276 336
#     4  10  19  34  57  79 108 153 195 229 276 331
#     4  12  18  34  55  75 104 151 201 242 267 315
#
# _framework density 18.310444
#
# number of rings (size 3 to 8) (size 9 to 14) (size 15 to 20)
#    0.000    1.600    4.000    1.500    2.800    1.200 
#    0.000    3.000    0.000    0.000    0.000    8.400 
#    0.000    0.000    0.000    0.000    0.000    0.000 
#
# Total GULP energy -495558.180416 kJ/mol
# GULP energy per Si atom -12388.954510 kJ/mol
# Density = 1.826877 g / cm^3
# Si number density = 18.310444 Si / 1000 Ang^3
#
#
#
# Elastic Constant Matrix: (Units=GPa)
#
#
# Indices 1 2 3 4 5 6 
#
# 1 107.6942 58.0657 53.0247 0.0000 0.0000 0.0000
# 2 58.0657 140.0096 37.2760 0.0000 0.0000 0.0000
# 3 53.0247 37.2760 139.0558 0.0000 0.0000 0.0000
# 4 0.0000 0.0000 0.0000 8.8889 0.0000 0.0000
# 5 0.0000 0.0000 0.0000 0.0000 4.3155 0.0000
# 6 0.0000 0.0000 0.0000 0.0000 0.0000 11.7037
#
#
#
# Elastic Compliance Matrix: (Units=1/GPa)
#
#
# Indices 1 2 3 4 5 6 
#
# 1 0.013758 -0.004640 -0.004002 0.000000 0.000000 0.000000
# 2 -0.004640 0.009256 -0.000712 0.000000 0.000000 0.000000
# 3 -0.004002 -0.000712 0.008908 0.000000 0.000000 0.000000
# 4 0.000000 0.000000 0.000000 0.112500 0.000000 0.000000
# 5 0.000000 0.000000 0.000000 0.000000 0.231722 0.000000
# 6 0.000000 0.000000 0.000000 0.000000 0.000000 0.085443
#
#
# Mechanical properties :
#
#
# Convention : Reuss Voigt Hill
#
# Bulk Modulus (GPa) = 75.67834 75.94359 75.81096
# Shear Modulus (GPa) = 10.31563 20.87450 15.59507
#
# Velocity S-wave (km/s) = 2.37613 3.38010 2.92156
# Velocity P-wave (km/s) = 6.99631 7.53651 7.27143
#
# Compressibility (1/GPa) = 0.01321382
#
# Stress axis : x y z
#
# Youngs Moduli (GPa) = 72.68475 108.03413 112.25418
#
# Poissons Ratio (x) = 0.50131 0.44928
# Poissons Ratio (y) = 0.33728 0.07991
# Poissons Ratio (z) = 0.29091 0.07691
#
# Static dielectric constant tensor:
#      x y z
#    x 3.030720 0.000000 0.000000 
#    y 0.000000 3.568420 0.000000 
#    z 0.000000 0.000000 3.464780 
# 
# 
# High freq. dielectric constant tensor:
#      x y z
#    x 1.675880 0.000000 0.000000 
#    y 0.000000 1.723220 0.000000 
#    z 0.000000 0.000000 1.712960 
# 
# From -- ./inp_files/23257.got.cif
#   From: 2010.03.12/outbox.cif.g09.slc.cpg/sg69_12_cif.got.tgz:23257.got - 2010.04.10 23:52:46.
