data_PCOD8284222
_publ_section_title
;
Structure prediction by ZEFSAII (Michael W. Deem and Ramdas Pophale) SiO2 
 PCOD8284222
Probable space group: F M M M
;
_chemical_formula_sum "Si O2"
_cell_formula_units_Z 160
_cell_length_a 16.153334
_cell_length_b 17.278778
_cell_length_c 30.721963
_cell_angle_alpha 90.000000
_cell_angle_beta 90.000000
_cell_angle_gamma 90.000000
_cell_volume 8574.803165
_symmetry_space_group_name_H-M "F M M M"
_symmetry_group_IT_number 69
_symmetry_cell_setting 'orthorhombic'
loop_
_space_group_symop_operation_xyz
x,y,z
-x,-y,z
x,-y,-z
-x,y,-z
-x,-y,-z
x,y,-z
-x,y,z
x,-y,z
x,1/2+y,1/2+z
-x,1/2-y,1/2+z
x,1/2-y,1/2-z
-x,1/2+y,1/2-z
-x,1/2-y,1/2-z
x,1/2+y,1/2-z
-x,1/2+y,1/2+z
x,1/2-y,1/2+z
1/2+x,y,1/2+z
1/2-x,-y,1/2+z
1/2+x,-y,1/2-z
1/2-x,y,1/2-z
1/2-x,-y,1/2-z
1/2+x,y,1/2-z
1/2-x,y,1/2+z
1/2+x,-y,1/2+z
1/2+x,1/2+y,z
1/2-x,1/2-y,z
1/2+x,1/2-y,-z
1/2-x,1/2+y,-z
1/2-x,1/2-y,-z
1/2+x,1/2+y,-z
1/2-x,1/2+y,z
1/2+x,1/2-y,z
loop_
_atom_site_type_symbol
_atom_site_label
_atom_site_fract_x
_atom_site_fract_y
_atom_site_fract_z
Si Si1 0.406279 0.705631 0.293907
Si Si2 0.596911 0.251226 0.452014
Si Si3 0.207672 0.913410 0.666428
Si Si4 0.669766 0.301531 0.865228
Si Si5 0.094935 0.584778 0.917631
O O1 0.500000 0.672600 0.292779
O O2 0.384256 0.750000 0.250000
O O3 0.338233 0.637288 0.296705
O O4 0.401056 0.765317 0.334624
O O5 0.627484 0.224781 0.500000
O O6 0.500000 0.237240 0.447194
O O7 0.641168 0.198348 0.415609
O O8 0.618165 0.343045 0.448403
O O9 0.300239 0.885365 0.652232
O O10 0.149301 0.908131 0.624852
O O11 0.216890 0.000000 0.684442
O O12 0.750000 0.250000 0.859800
O O13 0.109836 0.500000 0.940252
O O14 0.000000 0.592050 0.902737
#
# Coordination Sequence:
#
# PCOD8284222 Si02
#       5
#    32  32  32  32  32
#     4  10  20  35  57  82 106 138 178 219 265 321
#     4  10  19  31  50  75 104 144 189 229 271 321
#     4  10  20  34  54  80 109 142 175 216 271 322
#     4  10  19  33  51  76 107 140 176 225 271 323
#     4   9  16  28  47  73 107 143 177 217 267 320
#
# _framework density 18.659320000000001
#
# number of rings (size 3 to 8) (size 9 to 14) (size 15 to 20)
#    0.000    2.200    4.000    1.200    0.000    5.600 
#    0.000    4.000    0.000    4.200    0.000    1.400 
#    0.000    0.000    0.000    0.000    0.000    0.000 
#
# Total GULP energy -495687.637576 kJ/mol
# GULP energy per Si atom -12392.190939 kJ/mol
# Density = 1.861685 g / cm^3
# Si number density = 18.659320 Si / 1000 Ang^3
#
#
#
# Elastic Constant Matrix: (Units=GPa)
#
#
# Indices 1 2 3 4 5 6 
#
# 1 49.3366 43.7214 23.1017 0.0000 0.0000 0.0000
# 2 43.7214 109.1207 42.6720 0.0000 0.0000 0.0000
# 3 23.1017 42.6720 99.7869 0.0000 0.0000 0.0000
# 4 0.0000 0.0000 0.0000 19.4151 0.0000 0.0000
# 5 0.0000 0.0000 0.0000 0.0000 26.2957 0.0000
# 6 0.0000 0.0000 0.0000 0.0000 0.0000 20.7621
#
#
#
# Elastic Compliance Matrix: (Units=1/GPa)
#
#
# Indices 1 2 3 4 5 6 
#
# 1 0.031862 -0.011866 -0.002302 0.000000 0.000000 0.000000
# 2 -0.011866 0.015423 -0.003848 0.000000 0.000000 0.000000
# 3 -0.002302 -0.003848 0.012200 0.000000 0.000000 0.000000
# 4 0.000000 0.000000 0.000000 0.051506 0.000000 0.000000
# 5 0.000000 0.000000 0.000000 0.000000 0.038029 0.000000
# 6 0.000000 0.000000 0.000000 0.000000 0.000000 0.048165
#
#
# Mechanical properties :
#
#
# Convention : Reuss Voigt Hill
#
# Bulk Modulus (GPa) = 42.63921 53.02606 47.83263
# Shear Modulus (GPa) = 20.74371 23.21119 21.97745
#
# Velocity S-wave (km/s) = 3.33785 3.53079 3.43567
# Velocity P-wave (km/s) = 6.14459 6.71578 6.43652
#
# Compressibility (1/GPa) = 0.02345259
#
# Stress axis : x y z
#
# Youngs Moduli (GPa) = 31.38490 64.83620 81.96686
#
# Poissons Ratio (x) = 0.76935 0.18870
# Poissons Ratio (y) = 0.37241 0.31545
# Poissons Ratio (z) = 0.07225 0.24952
#
# Static dielectric constant tensor:
#      x y z
#    x 3.589700 0.000000 0.000000 
#    y 0.000000 3.927050 0.000000 
#    z 0.000000 0.000000 3.392730 
# 
# 
# High freq. dielectric constant tensor:
#      x y z
#    x 1.716750 0.000000 0.000000 
#    y 0.000000 1.700930 0.000000 
#    z 0.000000 0.000000 1.716010 
# 
# From -- ./inp_files/23439.got.cif
#   From: 2010.03.12/outbox.cif.g09.slc.cpg/sg69_12_cif.got.tgz:23439.got - 2010.04.10 23:52:46.
