data_PCOD8284872
_publ_section_title
;
Structure prediction by ZEFSAII (Michael W. Deem and Ramdas Pophale) SiO2 
 PCOD8284872
Probable space group: F M M M
;
_chemical_formula_sum "Si O2"
_cell_formula_units_Z 192
_cell_length_a 14.272845
_cell_length_b 25.492967
_cell_length_c 27.599785
_cell_angle_alpha 90.000000
_cell_angle_beta 90.000000
_cell_angle_gamma 90.000000
_cell_volume 10042.379568
_symmetry_space_group_name_H-M "F M M M"
_symmetry_group_IT_number 69
_symmetry_cell_setting 'orthorhombic'
loop_
_space_group_symop_operation_xyz
x,y,z
-x,-y,z
x,-y,-z
-x,y,-z
-x,-y,-z
x,y,-z
-x,y,z
x,-y,z
x,1/2+y,1/2+z
-x,1/2-y,1/2+z
x,1/2-y,1/2-z
-x,1/2+y,1/2-z
-x,1/2-y,1/2-z
x,1/2+y,1/2-z
-x,1/2+y,1/2+z
x,1/2-y,1/2+z
1/2+x,y,1/2+z
1/2-x,-y,1/2+z
1/2+x,-y,1/2-z
1/2-x,y,1/2-z
1/2-x,-y,1/2-z
1/2+x,y,1/2-z
1/2-x,y,1/2+z
1/2+x,-y,1/2+z
1/2+x,1/2+y,z
1/2-x,1/2-y,z
1/2+x,1/2-y,-z
1/2-x,1/2+y,-z
1/2-x,1/2-y,-z
1/2+x,1/2+y,-z
1/2-x,1/2+y,z
1/2+x,1/2-y,z
loop_
_atom_site_type_symbol
_atom_site_label
_atom_site_fract_x
_atom_site_fract_y
_atom_site_fract_z
Si Si1 0.109602 0.690279 0.620768
Si Si2 0.233611 0.373518 0.445316
Si Si3 0.816066 0.873565 0.205025
Si Si4 0.000000 0.058342 0.653285
Si Si5 0.302806 0.939222 0.867657
Si Si6 0.000000 0.560599 0.732877
Si Si7 0.392305 0.712500 0.554723
O O1 0.142005 0.647860 0.581404
O O2 0.159356 0.678541 0.672750
O O3 0.134762 0.746575 0.597193
O O4 0.000000 0.684218 0.628572
O O5 0.206332 0.384729 0.500000
O O6 0.260721 0.428626 0.420701
O O7 0.322481 0.335559 0.438822
O O8 0.750000 0.855814 0.250000
O O9 0.757502 0.913788 0.173909
O O10 0.909360 0.905535 0.218306
O O11 0.093497 0.086960 0.634463
O O12 0.000000 0.055698 0.710432
O O13 0.000000 0.000000 0.631010
O O14 0.306890 0.000000 0.855803
O O15 0.000000 0.500000 0.711382
O O16 0.378796 0.736604 0.500000
O O17 0.500000 0.693982 0.560871
#
# Coordination Sequence:
#
# PCOD8284872 Si02
#       7
#    32  32  32  16  32  16  32
#     4  10  20  35  56  83 112 142 180 227 277 327
#     4  10  21  35  56  83 111 144 184 229 275 328
#     4  11  21  35  55  84 113 146 184 228 274 324
#     4   9  18  32  51  77 103 138 183 225 271 317
#     4  10  21  35  53  79 113 149 185 225 273 328
#     4  11  20  32  56  82 109 144 186 234 274 321
#     4   9  18  34  58  86 113 140 178 230 281 329
#
# _framework density 19.118974999999999
#
# number of rings (size 3 to 8) (size 9 to 14) (size 15 to 20)
#    0.000    2.000    2.500    1.500    1.167    3.333 
#    0.000    0.000    0.000    9.500    0.000   18.667 
#    0.000    0.000    0.000    0.000    0.000    0.000 
#
# Total GULP energy -594740.823824 kJ/mol
# GULP energy per Si atom -12390.433830 kJ/mol
# Density = 1.907546 g / cm^3
# Si number density = 19.118975 Si / 1000 Ang^3
#
#
#
# Elastic Constant Matrix: (Units=GPa)
#
#
# Indices 1 2 3 4 5 6 
#
# 1 72.6004 8.3888 25.5214 0.0000 0.0000 0.0000
# 2 8.3888 30.5862 19.7211 0.0000 0.0000 0.0000
# 3 25.5214 19.7211 113.3898 0.0000 0.0000 0.0000
# 4 0.0000 0.0000 0.0000 23.1716 0.0000 0.0000
# 5 0.0000 0.0000 0.0000 0.0000 23.4658 0.0000
# 6 0.0000 0.0000 0.0000 0.0000 0.0000 -84.3415
#
#
#
# Elastic Compliance Matrix: (Units=1/GPa)
#
#
# Indices 1 2 3 4 5 6 
#
# 1 0.015087 -0.002195 -0.003014 0.000000 0.000000 0.000000
# 2 -0.002195 0.037143 -0.005966 0.000000 0.000000 0.000000
# 3 -0.003014 -0.005966 0.010535 0.000000 0.000000 0.000000
# 4 0.000000 0.000000 0.000000 0.043156 0.000000 0.000000
# 5 0.000000 0.000000 0.000000 0.000000 0.042615 0.000000
# 6 0.000000 0.000000 0.000000 0.000000 0.000000 -0.011857
#
#
# Mechanical properties :
#
#
# Convention : Reuss Voigt Hill
#
# Bulk Modulus (GPa) = 24.74263 35.98211 30.36237
# Shear Modulus (GPa) = 28.98519 3.32219 16.15369
#
# Velocity S-wave (km/s) = 3.89786 1.31963 2.90988
# Velocity P-wave (km/s) = 5.76431 4.60248 5.21585
#
# Compressibility (1/GPa) = 0.04041607
#
# Stress axis : x y z
#
# Youngs Moduli (GPa) = 66.28161 26.92283 94.91999
#
# Poissons Ratio (x) = 0.05908 0.28610
# Poissons Ratio (y) = 0.14546 0.56631
# Poissons Ratio (z) = 0.19978 0.16063
#
# Static dielectric constant tensor:
#      x y z
#    x 4.264450 0.000000 0.000000 
#    y 0.000000 3.348810 0.000000 
#    z 0.000000 0.000000 3.707280 
# 
# 
# High freq. dielectric constant tensor:
#      x y z
#    x 1.765700 0.000000 0.000000 
#    y 0.000000 1.714000 0.000000 
#    z 0.000000 0.000000 1.744850 
# 
# From -- ./inp_files/41162.got.cif
#   From: 2010.03.12/outbox.cif.g09.slc.cpg/sg69_21_cif.got.tgz:41162.got - 2010.04.10 23:52:46.
