data_PCOD8284569
_publ_section_title
;
Structure prediction by ZEFSAII (Michael W. Deem and Ramdas Pophale) SiO2 
 PCOD8284569
Probable space group: F M M M
;
_chemical_formula_sum "Si O2"
_cell_formula_units_Z 104
_cell_length_a 15.077641
_cell_length_b 17.031756
_cell_length_c 19.648303
_cell_angle_alpha 90.000000
_cell_angle_beta 90.000000
_cell_angle_gamma 90.000000
_cell_volume 5045.658718
_symmetry_space_group_name_H-M "F M M M"
_symmetry_group_IT_number 69
_symmetry_cell_setting 'orthorhombic'
loop_
_space_group_symop_operation_xyz
x,y,z
-x,-y,z
x,-y,-z
-x,y,-z
-x,-y,-z
x,y,-z
-x,y,z
x,-y,z
x,1/2+y,1/2+z
-x,1/2-y,1/2+z
x,1/2-y,1/2-z
-x,1/2+y,1/2-z
-x,1/2-y,1/2-z
x,1/2+y,1/2-z
-x,1/2+y,1/2+z
x,1/2-y,1/2+z
1/2+x,y,1/2+z
1/2-x,-y,1/2+z
1/2+x,-y,1/2-z
1/2-x,y,1/2-z
1/2-x,-y,1/2-z
1/2+x,y,1/2-z
1/2-x,y,1/2+z
1/2+x,-y,1/2+z
1/2+x,1/2+y,z
1/2-x,1/2-y,z
1/2+x,1/2-y,-z
1/2-x,1/2+y,-z
1/2-x,1/2-y,-z
1/2+x,1/2+y,-z
1/2-x,1/2+y,z
1/2+x,1/2-y,z
loop_
_atom_site_type_symbol
_atom_site_label
_atom_site_fract_x
_atom_site_fract_y
_atom_site_fract_z
Si Si1 0.000000 0.406093 0.856480
Si Si2 0.899869 0.411918 0.392618
Si Si3 0.000000 0.321760 0.000000
Si Si4 0.160810 0.703673 0.500000
Si Si5 0.151296 0.408404 0.243392
O O1 0.000000 0.375872 0.933281
O O2 0.088968 0.374385 0.817360
O O3 0.000000 0.500000 0.856109
O O4 0.862646 0.500000 0.404615
O O5 0.840026 0.351112 0.433493
O O6 0.899657 0.391294 0.313262
O O7 0.000000 0.405715 0.420046
O O8 0.084277 0.266879 0.000000
O O9 0.250000 0.750000 0.500000
O O10 0.163246 0.500000 0.229088
O O11 0.250000 0.369836 0.250000
#
# Coordination Sequence:
#
# PCOD8284569 Si02
#       5
#    16  32   8  16  32
#     4  10  21  41  64  91 124 167 213 254 306 380
#     4  10  19  40  70  94 116 158 214 271 319 359
#     4  12  27  44  59  84 134 180 204 250 321 388
#     4  12  27  43  58  88 133 169 206 255 318 383
#     4   9  18  34  62  95 122 149 203 269 312 356
#
# _framework density 20.611778999999999
#
# number of rings (size 3 to 8) (size 9 to 14) (size 15 to 20)
#    0.000    1.846    3.077    0.692    4.308    1.231 
#    0.000    4.615    0.000    0.000    0.000    0.000 
#    0.000    0.000    0.000    0.000    0.000    0.000 
#
# Total GULP energy -322300.259180 kJ/mol
# GULP energy per Si atom -12396.163815 kJ/mol
# Density = 2.056487 g / cm^3
# Si number density = 20.611779 Si / 1000 Ang^3
#
#
#
# Elastic Constant Matrix: (Units=GPa)
#
#
# Indices 1 2 3 4 5 6 
#
# 1 154.1847 49.6374 67.2181 0.0000 0.0000 0.0000
# 2 49.6374 72.1092 51.7988 0.0000 0.0000 0.0000
# 3 67.2181 51.7988 148.2430 0.0000 0.0000 0.0000
# 4 0.0000 0.0000 0.0000 -9.0335 0.0000 0.0000
# 5 0.0000 0.0000 0.0000 0.0000 22.5948 0.0000
# 6 0.0000 0.0000 0.0000 0.0000 0.0000 24.3984
#
#
#
# Elastic Compliance Matrix: (Units=1/GPa)
#
#
# Indices 1 2 3 4 5 6 
#
# 1 0.009005 -0.004360 -0.002560 0.000000 0.000000 0.000000
# 2 -0.004360 0.020626 -0.005230 0.000000 0.000000 0.000000
# 3 -0.002560 -0.005230 0.009734 0.000000 0.000000 0.000000
# 4 0.000000 0.000000 0.000000 -0.110699 0.000000 0.000000
# 5 0.000000 0.000000 0.000000 0.000000 0.044258 0.000000
# 6 0.000000 0.000000 0.000000 0.000000 0.000000 0.040986
#
#
# Mechanical properties :
#
#
# Convention : Reuss Voigt Hill
#
# Bulk Modulus (GPa) = 66.37782 79.09394 72.73588
# Shear Modulus (GPa) = 115.65369 21.31746 68.48558
#
# Velocity S-wave (km/s) = 7.49882 3.21944 5.77049
# Velocity P-wave (km/s) = 10.35616 7.23023 8.93102
#
# Compressibility (1/GPa) = 0.01506527
#
# Stress axis : x y z
#
# Youngs Moduli (GPa) = 111.04466 48.48193 102.73392
#
# Poissons Ratio (x) = 0.21139 0.26298
# Poissons Ratio (y) = 0.48417 0.53731
# Poissons Ratio (z) = 0.28425 0.25357
#
# Static dielectric constant tensor:
#      x y z
#    x 3.886300 0.000000 0.000000 
#    y 0.000000 3.470610 0.000000 
#    z 0.000000 0.000000 3.829790 
# 
# 
# High freq. dielectric constant tensor:
#      x y z
#    x 1.810220 0.000000 0.000000 
#    y 0.000000 1.772890 0.000000 
#    z 0.000000 0.000000 1.815040 
# 
# From -- ./inp_files/16187.got.cif
#   From: 2010.03.12/outbox.cif.g09.slc.cpg/sg69_9_cif.got.tgz:16187.got - 2010.04.10 23:52:46.
