data_PCOD8284240
_publ_section_title
;
Structure prediction by ZEFSAII (Michael W. Deem and Ramdas Pophale) SiO2 
 PCOD8284240
Probable space group: F M M M
;
_chemical_formula_sum "Si O2"
_cell_formula_units_Z 192
_cell_length_a 18.852576
_cell_length_b 19.214981
_cell_length_c 29.398001
_cell_angle_alpha 90.000000
_cell_angle_beta 90.000000
_cell_angle_gamma 90.000000
_cell_volume 10649.481414
_symmetry_space_group_name_H-M "F M M M"
_symmetry_group_IT_number 69
_symmetry_cell_setting 'orthorhombic'
loop_
_space_group_symop_operation_xyz
x,y,z
-x,-y,z
x,-y,-z
-x,y,-z
-x,-y,-z
x,y,-z
-x,y,z
x,-y,z
x,1/2+y,1/2+z
-x,1/2-y,1/2+z
x,1/2-y,1/2-z
-x,1/2+y,1/2-z
-x,1/2-y,1/2-z
x,1/2+y,1/2-z
-x,1/2+y,1/2+z
x,1/2-y,1/2+z
1/2+x,y,1/2+z
1/2-x,-y,1/2+z
1/2+x,-y,1/2-z
1/2-x,y,1/2-z
1/2-x,-y,1/2-z
1/2+x,y,1/2-z
1/2-x,y,1/2+z
1/2+x,-y,1/2+z
1/2+x,1/2+y,z
1/2-x,1/2-y,z
1/2+x,1/2-y,-z
1/2-x,1/2+y,-z
1/2-x,1/2-y,-z
1/2+x,1/2+y,-z
1/2-x,1/2+y,z
1/2+x,1/2-y,z
loop_
_atom_site_type_symbol
_atom_site_label
_atom_site_fract_x
_atom_site_fract_y
_atom_site_fract_z
Si Si1 0.823905 0.916929 0.729132
Si Si2 0.836740 0.422491 0.128683
Si Si3 0.327294 0.077879 0.393006
Si Si4 0.082790 0.336503 0.948090
Si Si5 0.681702 0.711783 0.051450
Si Si6 0.078599 0.917585 0.808747
O O1 0.750000 0.887913 0.750000
O O2 0.843520 0.887377 0.678848
O O3 0.886711 0.890964 0.761934
O O4 0.817878 0.000000 0.725568
O O5 0.869257 0.500000 0.129082
O O6 0.754047 0.425606 0.119639
O O7 0.877246 0.382967 0.088740
O O8 0.337879 0.135316 0.431306
O O9 0.372686 0.105509 0.350538
O O10 0.352240 0.000000 0.408690
O O11 0.111653 0.258334 0.943343
O O12 0.000000 0.336293 0.936722
O O13 0.096619 0.363772 0.000000
O O14 0.750000 0.750000 0.075549
O O15 0.704453 0.699281 0.000000
O O16 0.000000 0.885078 0.813607
O O17 0.074602 0.000000 0.807356
#
# Coordination Sequence:
#
# PCOD8284240 Si02
#       6
#    32  32  32  32  32  32
#     4   9  15  27  48  75 109 144 179 223 271 322
#     4  10  19  31  53  83 112 145 187 229 269 318
#     4  10  19  32  54  84 112 138 175 226 277 322
#     4  10  22  39  56  77 109 148 186 227 278 331
#     4  10  20  36  57  79 104 140 184 222 262 324
#     4   9  17  29  47  75 110 143 174 216 275 332
#
# _framework density 18.029046999999998
#
# number of rings (size 3 to 8) (size 9 to 14) (size 15 to 20)
#    0.000    2.333    3.333    0.000    0.000    2.333 
#    0.000    4.167    0.000    1.000    0.000    7.000 
#    0.000    0.000    0.000    0.000    0.000    0.000 
#
# Total GULP energy -594829.490532 kJ/mol
# GULP energy per Si atom -12392.281053 kJ/mol
# Density = 1.798801 g / cm^3
# Si number density = 18.029047 Si / 1000 Ang^3
#
#
#
# Elastic Constant Matrix: (Units=GPa)
#
#
# Indices 1 2 3 4 5 6 
#
# 1 119.2190 26.7035 61.5300 0.0000 0.0000 0.0000
# 2 26.7035 69.4520 59.3237 0.0000 0.0000 0.0000
# 3 61.5300 59.3237 128.5893 0.0000 0.0000 0.0000
# 4 0.0000 0.0000 0.0000 14.1767 0.0000 0.0000
# 5 0.0000 0.0000 0.0000 0.0000 30.8540 0.0000
# 6 0.0000 0.0000 0.0000 0.0000 0.0000 15.3189
#
#
#
# Elastic Compliance Matrix: (Units=1/GPa)
#
#
# Indices 1 2 3 4 5 6 
#
# 1 0.011147 0.000446 -0.005540 0.000000 0.000000 0.000000
# 2 0.000446 0.023780 -0.011184 0.000000 0.000000 0.000000
# 3 -0.005540 -0.011184 0.015587 0.000000 0.000000 0.000000
# 4 0.000000 0.000000 0.000000 0.070538 0.000000 0.000000
# 5 0.000000 0.000000 0.000000 0.000000 0.032411 0.000000
# 6 0.000000 0.000000 0.000000 0.000000 0.000000 0.065279
#
#
# Mechanical properties :
#
#
# Convention : Reuss Voigt Hill
#
# Bulk Modulus (GPa) = 55.68371 68.04164 61.86267
# Shear Modulus (GPa) = 19.43378 23.38346 21.40862
#
# Velocity S-wave (km/s) = 3.28672 3.60528 3.44968
# Velocity P-wave (km/s) = 6.73469 7.42648 7.08903
#
# Compressibility (1/GPa) = 0.01795857
#
# Stress axis : x y z
#
# Youngs Moduli (GPa) = 89.70963 42.05191 64.15581
#
# Poissons Ratio (x) = -0.01875 0.35539
# Poissons Ratio (y) = -0.03999 0.71752
# Poissons Ratio (z) = 0.49695 0.47031
#
# Static dielectric constant tensor:
#      x y z
#    x 3.542700 0.000000 0.000000 
#    y 0.000000 2.990260 0.000000 
#    z 0.000000 0.000000 3.473190 
# 
# 
# High freq. dielectric constant tensor:
#      x y z
#    x 1.700980 0.000000 0.000000 
#    y 0.000000 1.655440 0.000000 
#    z 0.000000 0.000000 1.702660 
# 
# From -- ./inp_files/33521.got.cif
#   From: 2010.03.12/outbox.cif.g09.slc.cpg/sg69_17_cif.got.tgz:33521.got - 2010.04.10 23:52:46.
