data_PCOD8284635
_publ_section_title
;
Structure prediction by ZEFSAII (Michael W. Deem and Ramdas Pophale) SiO2 
 PCOD8284635
Probable space group: F M M M
;
_chemical_formula_sum "Si O2"
_cell_formula_units_Z 208
_cell_length_a 29.476898
_cell_length_b 21.198029
_cell_length_c 19.310022
_cell_angle_alpha 90.000000
_cell_angle_beta 90.000000
_cell_angle_gamma 90.000000
_cell_volume 12065.908544
_symmetry_space_group_name_H-M "F M M M"
_symmetry_group_IT_number 69
_symmetry_cell_setting 'orthorhombic'
loop_
_space_group_symop_operation_xyz
x,y,z
-x,-y,z
x,-y,-z
-x,y,-z
-x,-y,-z
x,y,-z
-x,y,z
x,-y,z
x,1/2+y,1/2+z
-x,1/2-y,1/2+z
x,1/2-y,1/2-z
-x,1/2+y,1/2-z
-x,1/2-y,1/2-z
x,1/2+y,1/2-z
-x,1/2+y,1/2+z
x,1/2-y,1/2+z
1/2+x,y,1/2+z
1/2-x,-y,1/2+z
1/2+x,-y,1/2-z
1/2-x,y,1/2-z
1/2-x,-y,1/2-z
1/2+x,y,1/2-z
1/2-x,y,1/2+z
1/2+x,-y,1/2+z
1/2+x,1/2+y,z
1/2-x,1/2-y,z
1/2+x,1/2-y,-z
1/2-x,1/2+y,-z
1/2-x,1/2-y,-z
1/2+x,1/2+y,-z
1/2-x,1/2+y,z
1/2+x,1/2-y,z
loop_
_atom_site_type_symbol
_atom_site_label
_atom_site_fract_x
_atom_site_fract_y
_atom_site_fract_z
Si Si1 0.712617 0.203988 0.579543
Si Si2 0.111422 0.264353 0.578417
Si Si3 0.051874 0.927104 0.712569
Si Si4 0.178491 0.570879 0.581492
Si Si5 0.948301 0.644249 0.077589
Si Si6 0.588778 0.386067 0.848562
Si Si7 0.000000 0.572235 0.425036
O O1 0.726482 0.198252 0.500000
O O2 0.750000 0.250000 0.616624
O O3 0.665248 0.240177 0.590436
O O4 0.710140 0.130321 0.606939
O O5 0.101598 0.287449 0.500000
O O6 0.087531 0.198677 0.593273
O O7 0.090954 0.312898 0.632766
O O8 0.062506 0.909891 0.632949
O O9 0.085304 0.890746 0.765194
O O10 0.000000 0.909964 0.730444
O O11 0.061725 0.000000 0.722015
O O12 0.168026 0.579895 0.500000
O O13 0.199379 0.500000 0.594964
O O14 0.131475 0.575064 0.622694
O O15 0.000000 0.669696 0.085482
O O16 0.941051 0.616989 0.000000
O O17 0.543812 0.413768 0.880689
O O18 0.000000 0.500000 0.442338
O O19 0.000000 0.608266 0.500000
#
# Coordination Sequence:
#
# PCOD8284635 Si02
#       7
#    32  32  32  32  32  32  16
#     4   8  14  26  45  68  94 125 158 196 243 286
#     4   9  18  31  47  70  98 128 163 198 237 288
#     4  10  20  33  47  65  91 124 164 208 246 283
#     4   9  16  26  41  64  96 131 168 201 230 282
#     4   9  19  34  51  69  90 120 158 203 253 297
#     4  11  19  28  42  65  96 131 162 196 233 276
#     4  11  20  26  36  57  91 137 172 189 217 259
#
# _framework density 17.238652999999999
#
# number of rings (size 3 to 8) (size 9 to 14) (size 15 to 20)
#    0.000    2.538    0.769    3.692    1.077    2.154 
#    0.000    3.077    0.000    0.923    0.000   12.923 
#    0.000    6.154    0.000    0.000    0.000    0.000 
#
# Total GULP energy -644300.077670 kJ/mol
# GULP energy per Si atom -12390.386109 kJ/mol
# Density = 1.719942 g / cm^3
# Si number density = 17.238653 Si / 1000 Ang^3
#
#
#
# Elastic Constant Matrix: (Units=GPa)
#
#
# Indices 1 2 3 4 5 6 
#
# 1 70.5897 49.5917 27.6942 0.0000 0.0000 0.0000
# 2 49.5917 74.4228 38.7771 0.0000 0.0000 0.0000
# 3 27.6942 38.7771 93.0225 0.0000 0.0000 0.0000
# 4 0.0000 0.0000 0.0000 25.8783 0.0000 0.0000
# 5 0.0000 0.0000 0.0000 0.0000 8.0975 0.0000
# 6 0.0000 0.0000 0.0000 0.0000 0.0000 22.9602
#
#
#
# Elastic Compliance Matrix: (Units=1/GPa)
#
#
# Indices 1 2 3 4 5 6 
#
# 1 0.026669 -0.017417 -0.000679 0.000000 0.000000 0.000000
# 2 -0.017417 0.028539 -0.006712 0.000000 0.000000 0.000000
# 3 -0.000679 -0.006712 0.013750 0.000000 0.000000 0.000000
# 4 0.000000 0.000000 0.000000 0.038642 0.000000 0.000000
# 5 0.000000 0.000000 0.000000 0.000000 0.123495 0.000000
# 6 0.000000 0.000000 0.000000 0.000000 0.000000 0.043554
#
#
# Mechanical properties :
#
#
# Convention : Reuss Voigt Hill
#
# Bulk Modulus (GPa) = 51.69891 52.24012 51.96951
# Shear Modulus (GPa) = 15.11887 19.51866 17.31877
#
# Velocity S-wave (km/s) = 2.96469 3.36856 3.17306
# Velocity P-wave (km/s) = 6.46331 6.74533 6.60582
#
# Compressibility (1/GPa) = 0.01934277
#
# Stress axis : x y z
#
# Youngs Moduli (GPa) = 37.49695 35.03921 72.72642
#
# Poissons Ratio (x) = 0.61027 0.04941
# Poissons Ratio (y) = 0.65308 0.48811
# Poissons Ratio (z) = 0.02548 0.23517
#
# Static dielectric constant tensor:
#      x y z
#    x 3.214450 0.000000 0.000000 
#    y 0.000000 3.332240 0.000000 
#    z 0.000000 0.000000 3.162100 
# 
# 
# High freq. dielectric constant tensor:
#      x y z
#    x 1.639960 0.000000 0.000000 
#    y 0.000000 1.663680 0.000000 
#    z 0.000000 0.000000 1.646710 
# 
# From -- ./inp_files/27031.got.cif
#   From: 2010.03.12/outbox.cif.g09.slc.cpg/sg69_14_cif.got.tgz:27031.got - 2010.04.10 23:52:46.
