data_PCOD8284479
_publ_section_title
;
Structure prediction by ZEFSAII (Michael W. Deem and Ramdas Pophale) SiO2 
 PCOD8284479
Probable space group: F M M M
;
_chemical_formula_sum "Si O2"
_cell_formula_units_Z 176
_cell_length_a 18.425454
_cell_length_b 18.304367
_cell_length_c 27.023850
_cell_angle_alpha 90.000000
_cell_angle_beta 90.000000
_cell_angle_gamma 90.000000
_cell_volume 9114.233149
_symmetry_space_group_name_H-M "F M M M"
_symmetry_group_IT_number 69
_symmetry_cell_setting 'orthorhombic'
loop_
_space_group_symop_operation_xyz
x,y,z
-x,-y,z
x,-y,-z
-x,y,-z
-x,-y,-z
x,y,-z
-x,y,z
x,-y,z
x,1/2+y,1/2+z
-x,1/2-y,1/2+z
x,1/2-y,1/2-z
-x,1/2+y,1/2-z
-x,1/2-y,1/2-z
x,1/2+y,1/2-z
-x,1/2+y,1/2+z
x,1/2-y,1/2+z
1/2+x,y,1/2+z
1/2-x,-y,1/2+z
1/2+x,-y,1/2-z
1/2-x,y,1/2-z
1/2-x,-y,1/2-z
1/2+x,y,1/2-z
1/2-x,y,1/2+z
1/2+x,-y,1/2+z
1/2+x,1/2+y,z
1/2-x,1/2-y,z
1/2+x,1/2-y,-z
1/2-x,1/2+y,-z
1/2-x,1/2-y,-z
1/2+x,1/2+y,-z
1/2-x,1/2+y,z
1/2+x,1/2-y,z
loop_
_atom_site_type_symbol
_atom_site_label
_atom_site_fract_x
_atom_site_fract_y
_atom_site_fract_z
Si Si1 0.807455 0.584573 0.861896
Si Si2 0.850966 0.084594 0.177345
Si Si3 0.915141 0.174945 0.090942
Si Si4 0.320319 0.299480 0.556218
Si Si5 0.086499 0.581320 0.500000
Si Si6 0.081655 0.086433 0.280742
O O1 0.817558 0.500000 0.875213
O O2 0.734411 0.597046 0.830270
O O3 0.804801 0.626680 0.913764
O O4 0.874072 0.614447 0.828569
O O5 0.896418 0.137677 0.142453
O O6 0.873497 0.109470 0.232186
O O7 0.872399 0.000000 0.167199
O O8 0.883077 0.255674 0.084801
O O9 0.883084 0.123171 0.047770
O O10 0.000000 0.183386 0.085494
O O11 0.343581 0.319306 0.500000
O O12 0.250000 0.250000 0.556188
O O13 0.119444 0.500000 0.500000
O O14 0.000000 0.578217 0.500000
O O15 0.000000 0.119983 0.280649
O O16 0.076744 0.000000 0.282804
#
# Coordination Sequence:
#
# PCOD8284479 Si02
#       6
#    32  32  32  32  16  32
#     4  10  21  38  62  89 117 154 200 244 291 347
#     4  10  19  34  58  90 122 155 192 237 294 357
#     4  11  21  35  56  84 116 155 196 239 297 358
#     4  11  23  41  60  81 115 159 198 240 294 352
#     4   9  18  32  51  82 121 153 187 236 291 349
#     4   9  18  34  58  88 121 155 194 243 293 342
#
# _framework density 19.310457
#
# number of rings (size 3 to 8) (size 9 to 14) (size 15 to 20)
#    0.000    1.909    2.727    1.636    0.000    5.091 
#    0.000    0.909    0.000    2.182    0.000    3.818 
#    0.000    0.000    0.000    0.000    0.000    0.000 
#
# Total GULP energy -545646.371327 kJ/mol
# GULP energy per Si atom -12401.053894 kJ/mol
# Density = 1.926651 g / cm^3
# Si number density = 19.310457 Si / 1000 Ang^3
#
#
#
# Elastic Constant Matrix: (Units=GPa)
#
#
# Indices 1 2 3 4 5 6 
#
# 1 94.6869 31.5719 34.6753 0.0000 0.0000 0.0000
# 2 31.5719 66.1057 43.9449 0.0000 0.0000 0.0000
# 3 34.6753 43.9449 115.0368 0.0000 0.0000 0.0000
# 4 0.0000 0.0000 0.0000 -9.6372 0.0000 0.0000
# 5 0.0000 0.0000 0.0000 0.0000 25.7209 0.0000
# 6 0.0000 0.0000 0.0000 0.0000 0.0000 24.8096
#
#
#
# Elastic Compliance Matrix: (Units=1/GPa)
#
#
# Indices 1 2 3 4 5 6 
#
# 1 0.012916 -0.004799 -0.002060 0.000000 0.000000 0.000000
# 2 -0.004799 0.022060 -0.006980 0.000000 0.000000 0.000000
# 3 -0.002060 -0.006980 0.011980 0.000000 0.000000 0.000000
# 4 0.000000 0.000000 0.000000 -0.103764 0.000000 0.000000
# 5 0.000000 0.000000 0.000000 0.000000 0.038879 0.000000
# 6 0.000000 0.000000 0.000000 0.000000 0.000000 0.040307
#
#
# Mechanical properties :
#
#
# Convention : Reuss Voigt Hill
#
# Bulk Modulus (GPa) = 51.87547 55.13483 53.50515
# Shear Modulus (GPa) = 88.52450 19.22113 53.87282
#
# Velocity S-wave (km/s) = 6.77807 3.15838 5.28761
# Velocity P-wave (km/s) = 9.39035 6.47412 8.06514
#
# Compressibility (1/GPa) = 0.01927694
#
# Stress axis : x y z
#
# Youngs Moduli (GPa) = 77.42534 45.33160 83.47037
#
# Poissons Ratio (x) = 0.21756 0.17193
# Poissons Ratio (y) = 0.37158 0.58265
# Poissons Ratio (z) = 0.15948 0.31643
#
# Static dielectric constant tensor:
#      x y z
#    x 3.640480 0.000000 0.000000 
#    y 0.000000 3.393940 0.000000 
#    z 0.000000 0.000000 3.661100 
# 
# 
# High freq. dielectric constant tensor:
#      x y z
#    x 1.753730 0.000000 0.000000 
#    y 0.000000 1.725990 0.000000 
#    z 0.000000 0.000000 1.756890 
# 
# From -- ./inp_files/26718.got.cif
#   From: 2010.03.12/outbox.cif.g09.slc.cpg/sg69_14_cif.got.tgz:26718.got - 2010.04.10 23:52:46.
