data_PCOD8284442
_publ_section_title
;
Structure prediction by ZEFSAII (Michael W. Deem and Ramdas Pophale) SiO2 
 PCOD8284442
Probable space group: F M M M
;
_chemical_formula_sum "Si O2"
_cell_formula_units_Z 160
_cell_length_a 25.589229
_cell_length_b 13.816081
_cell_length_c 22.207003
_cell_angle_alpha 90.000000
_cell_angle_beta 90.000000
_cell_angle_gamma 90.000000
_cell_volume 7851.127366
_symmetry_space_group_name_H-M "F M M M"
_symmetry_group_IT_number 69
_symmetry_cell_setting 'orthorhombic'
loop_
_space_group_symop_operation_xyz
x,y,z
-x,-y,z
x,-y,-z
-x,y,-z
-x,-y,-z
x,y,-z
-x,y,z
x,-y,z
x,1/2+y,1/2+z
-x,1/2-y,1/2+z
x,1/2-y,1/2-z
-x,1/2+y,1/2-z
-x,1/2-y,1/2-z
x,1/2+y,1/2-z
-x,1/2+y,1/2+z
x,1/2-y,1/2+z
1/2+x,y,1/2+z
1/2-x,-y,1/2+z
1/2+x,-y,1/2-z
1/2-x,y,1/2-z
1/2-x,-y,1/2-z
1/2+x,y,1/2-z
1/2-x,y,1/2+z
1/2+x,-y,1/2+z
1/2+x,1/2+y,z
1/2-x,1/2-y,z
1/2+x,1/2-y,-z
1/2-x,1/2+y,-z
1/2-x,1/2-y,-z
1/2+x,1/2+y,-z
1/2-x,1/2+y,z
1/2+x,1/2-y,z
loop_
_atom_site_type_symbol
_atom_site_label
_atom_site_fract_x
_atom_site_fract_y
_atom_site_fract_z
Si Si1 0.812032 0.699529 0.844382
Si Si2 0.663098 0.889218 0.277375
Si Si3 0.730971 0.388908 0.932680
Si Si4 0.121571 0.290132 0.567850
Si Si5 0.557287 0.611877 0.838619
O O1 0.804354 0.808292 0.814625
O O2 0.823648 0.621029 0.793051
O O3 0.761440 0.673919 0.883679
O O4 0.860738 0.698654 0.891186
O O5 0.601456 0.866995 0.288031
O O6 0.677620 0.000000 0.297026
O O7 0.740562 0.500000 0.918318
O O8 0.669233 0.367046 0.928660
O O9 0.751255 0.362520 0.000000
O O10 0.108396 0.257952 0.500000
O O11 0.070619 0.336665 0.598055
O O12 0.500000 0.647782 0.816043
O O13 0.555177 0.500000 0.853714
#
# Coordination Sequence:
#
# PCOD8284442 Si02
#       5
#    32  32  32  32  32
#     4  10  19  34  55  78 104 143 183 217 259 315
#     4   9  19  36  56  80 109 141 179 225 274 318
#     4  10  20  34  55  81 109 144 182 219 261 312
#     4  10  20  34  51  75 109 142 174 216 266 317
#     4   9  18  34  56  79 103 134 174 219 267 321
#
# _framework density 20.379238999999998
#
# number of rings (size 3 to 8) (size 9 to 14) (size 15 to 20)
#    0.000    2.400    0.000    2.400    0.000    4.000 
#    0.000   26.000    0.000   24.600    0.000    0.000 
#    0.000    0.000    0.000   70.800    0.000    5.000 
#
# Total GULP energy -495568.090041 kJ/mol
# GULP energy per Si atom -12389.202251 kJ/mol
# Density = 2.033285 g / cm^3
# Si number density = 20.379239 Si / 1000 Ang^3
#
#
#
# Elastic Constant Matrix: (Units=GPa)
#
#
# Indices 1 2 3 4 5 6 
#
# 1 95.6392 24.4402 39.5801 0.0000 0.0000 0.0000
# 2 24.4402 88.9257 26.5453 0.0000 0.0000 0.0000
# 3 39.5801 26.5453 131.0949 0.0000 0.0000 0.0000
# 4 0.0000 0.0000 0.0000 27.2716 0.0000 0.0000
# 5 0.0000 0.0000 0.0000 0.0000 21.3622 0.0000
# 6 0.0000 0.0000 0.0000 0.0000 0.0000 20.4445
#
#
#
# Elastic Compliance Matrix: (Units=1/GPa)
#
#
# Indices 1 2 3 4 5 6 
#
# 1 0.012429 -0.002443 -0.003258 0.000000 0.000000 0.000000
# 2 -0.002443 0.012449 -0.001783 0.000000 0.000000 0.000000
# 3 -0.003258 -0.001783 0.008973 0.000000 0.000000 0.000000
# 4 0.000000 0.000000 0.000000 0.036668 0.000000 0.000000
# 5 0.000000 0.000000 0.000000 0.000000 0.046812 0.000000
# 6 0.000000 0.000000 0.000000 0.000000 0.000000 0.048913
#
#
# Mechanical properties :
#
#
# Convention : Reuss Voigt Hill
#
# Bulk Modulus (GPa) = 52.96036 55.19901 54.07969
# Shear Modulus (GPa) = 26.66590 28.82194 27.74392
#
# Velocity S-wave (km/s) = 3.62122 3.76477 3.69369
# Velocity P-wave (km/s) = 6.59759 6.78548 6.69219
#
# Compressibility (1/GPa) = 0.01888205
#
# Stress axis : x y z
#
# Youngs Moduli (GPa) = 80.46001 80.32668 111.44944
#
# Poissons Ratio (x) = 0.19627 0.36306
# Poissons Ratio (y) = 0.19659 0.19873
# Poissons Ratio (z) = 0.26211 0.14323
#
# Static dielectric constant tensor:
#      x y z
#    x 3.766330 0.000000 0.000000 
#    y 0.000000 3.685610 0.000000 
#    z 0.000000 0.000000 4.183920 
# 
# 
# High freq. dielectric constant tensor:
#      x y z
#    x 1.772790 0.000000 0.000000 
#    y 0.000000 1.779180 0.000000 
#    z 0.000000 0.000000 1.813390 
# 
# From -- ./inp_files/38249.got.cif
#   From: 2010.03.12/outbox.cif.g09.slc.cpg/sg69_20_cif.got.tgz:38249.got - 2010.04.10 23:52:46.
