data_PCOD8284618
_publ_section_title
;
Structure prediction by ZEFSAII (Michael W. Deem and Ramdas Pophale) SiO2 
 PCOD8284618
Probable space group: F M M M
;
_chemical_formula_sum "Si O2"
_cell_formula_units_Z 104
_cell_length_a 32.278960
_cell_length_b 19.566992
_cell_length_c 9.287555
_cell_angle_alpha 90.000000
_cell_angle_beta 90.000000
_cell_angle_gamma 90.000000
_cell_volume 5866.039726
_symmetry_space_group_name_H-M "F M M M"
_symmetry_group_IT_number 69
_symmetry_cell_setting 'orthorhombic'
loop_
_space_group_symop_operation_xyz
x,y,z
-x,-y,z
x,-y,-z
-x,y,-z
-x,-y,-z
x,y,-z
-x,y,z
x,-y,z
x,1/2+y,1/2+z
-x,1/2-y,1/2+z
x,1/2-y,1/2-z
-x,1/2+y,1/2-z
-x,1/2-y,1/2-z
x,1/2+y,1/2-z
-x,1/2+y,1/2+z
x,1/2-y,1/2+z
1/2+x,y,1/2+z
1/2-x,-y,1/2+z
1/2+x,-y,1/2-z
1/2-x,y,1/2-z
1/2-x,-y,1/2-z
1/2+x,y,1/2-z
1/2-x,y,1/2+z
1/2+x,-y,1/2+z
1/2+x,1/2+y,z
1/2-x,1/2-y,z
1/2+x,1/2-y,-z
1/2-x,1/2+y,-z
1/2-x,1/2-y,-z
1/2+x,1/2+y,-z
1/2-x,1/2+y,z
1/2+x,1/2-y,z
loop_
_atom_site_type_symbol
_atom_site_label
_atom_site_fract_x
_atom_site_fract_y
_atom_site_fract_z
Si Si1 0.670527 0.312610 0.338241
Si Si2 0.375509 0.080445 0.666701
Si Si3 0.545649 0.918892 0.838484
Si Si4 0.750000 0.250000 0.750000
O O1 0.652851 0.316394 0.500000
O O2 0.649019 0.250000 0.250000
O O3 0.661194 0.382787 0.254138
O O4 0.720274 0.299356 0.345085
O O5 0.372810 0.100421 0.500000
O O6 0.419560 0.107603 0.727946
O O7 0.369996 0.000000 0.690826
O O8 0.500000 0.891881 0.791271
O O9 0.545171 0.000000 0.836746
O O10 0.556058 0.893065 0.000000
#
# Coordination Sequence:
#
# PCOD8284618 Si02
#       4
#    32  32  32   8
#     4  10  20  35  57  78 101 131 169 211 253 308
#     4  10  20  32  49  77 110 139 171 212 254 297
#     4   8  14  26  45  69  99 136 175 211 249 296
#     4   8  22  36  60  80  96 128 168 212 250 312
#
# _framework density 17.729168000000001
#
# number of rings (size 3 to 8) (size 9 to 14) (size 15 to 20)
#    0.923    1.846    0.000    3.231    0.000    2.462 
#    0.000    3.846    0.000    0.923    0.000    0.000 
#    0.000    0.000    0.000    0.000    0.000    0.000 
#
# Total GULP energy -322125.293649 kJ/mol
# GULP energy per Si atom -12389.434371 kJ/mol
# Density = 1.768882 g / cm^3
# Si number density = 17.729168 Si / 1000 Ang^3
#
#
#
# Elastic Constant Matrix: (Units=GPa)
#
#
# Indices 1 2 3 4 5 6 
#
# 1 99.8156 38.2785 53.1434 0.0000 0.0000 0.0000
# 2 38.2785 53.0648 53.0576 0.0000 0.0000 0.0000
# 3 53.1434 53.0576 152.4018 0.0000 0.0000 0.0000
# 4 0.0000 0.0000 0.0000 24.4420 0.0000 0.0000
# 5 0.0000 0.0000 0.0000 0.0000 29.5373 0.0000
# 6 0.0000 0.0000 0.0000 0.0000 0.0000 16.4359
#
#
#
# Elastic Compliance Matrix: (Units=1/GPa)
#
#
# Indices 1 2 3 4 5 6 
#
# 1 0.014290 -0.008170 -0.002139 0.000000 0.000000 0.000000
# 2 -0.008170 0.033578 -0.008841 0.000000 0.000000 0.000000
# 3 -0.002139 -0.008841 0.010385 0.000000 0.000000 0.000000
# 4 0.000000 0.000000 0.000000 0.040913 0.000000 0.000000
# 5 0.000000 0.000000 0.000000 0.000000 0.033855 0.000000
# 6 0.000000 0.000000 0.000000 0.000000 0.000000 0.060842
#
#
# Mechanical properties :
#
#
# Convention : Reuss Voigt Hill
#
# Bulk Modulus (GPa) = 50.11458 66.02681 58.07070
# Shear Modulus (GPa) = 20.93663 24.80322 22.86993
#
# Velocity S-wave (km/s) = 3.44017 3.74439 3.59550
# Velocity P-wave (km/s) = 6.64137 7.48443 7.07547
#
# Compressibility (1/GPa) = 0.01995427
#
# Stress axis : x y z
#
# Youngs Moduli (GPa) = 69.97750 29.78125 96.28892
#
# Poissons Ratio (x) = 0.24331 0.20595
# Poissons Ratio (y) = 0.57170 0.85130
# Poissons Ratio (z) = 0.14967 0.26330
#
# Static dielectric constant tensor:
#      x y z
#    x 3.340460 0.000000 0.000000 
#    y 0.000000 2.910690 0.000000 
#    z 0.000000 0.000000 3.310600 
# 
# 
# High freq. dielectric constant tensor:
#      x y z
#    x 1.675700 0.000000 0.000000 
#    y 0.000000 1.645540 0.000000 
#    z 0.000000 0.000000 1.692880 
# 
# From -- ./inp_files/4426.got.cif
#   From: 2010.03.12/outbox.cif.g09.slc.cpg/sg69_3_cif.got.tgz:4426.got - 2010.04.10 23:52:46.
