data_PCOD8284829
_publ_section_title
;
Structure prediction by ZEFSAII (Michael W. Deem and Ramdas Pophale) SiO2 
 PCOD8284829
Probable space group: F M M M
;
_chemical_formula_sum "Si O2"
_cell_formula_units_Z 192
_cell_length_a 24.495216
_cell_length_b 19.298203
_cell_length_c 22.475452
_cell_angle_alpha 90.000000
_cell_angle_beta 90.000000
_cell_angle_gamma 90.000000
_cell_volume 10624.452970
_symmetry_space_group_name_H-M "F M M M"
_symmetry_group_IT_number 69
_symmetry_cell_setting 'orthorhombic'
loop_
_space_group_symop_operation_xyz
x,y,z
-x,-y,z
x,-y,-z
-x,y,-z
-x,-y,-z
x,y,-z
-x,y,z
x,-y,z
x,1/2+y,1/2+z
-x,1/2-y,1/2+z
x,1/2-y,1/2-z
-x,1/2+y,1/2-z
-x,1/2-y,1/2-z
x,1/2+y,1/2-z
-x,1/2+y,1/2+z
x,1/2-y,1/2+z
1/2+x,y,1/2+z
1/2-x,-y,1/2+z
1/2+x,-y,1/2-z
1/2-x,y,1/2-z
1/2-x,-y,1/2-z
1/2+x,y,1/2-z
1/2-x,y,1/2+z
1/2+x,-y,1/2+z
1/2+x,1/2+y,z
1/2-x,1/2-y,z
1/2+x,1/2-y,-z
1/2-x,1/2+y,-z
1/2-x,1/2-y,-z
1/2+x,1/2+y,-z
1/2-x,1/2+y,z
1/2+x,1/2-y,z
loop_
_atom_site_type_symbol
_atom_site_label
_atom_site_fract_x
_atom_site_fract_y
_atom_site_fract_z
Si Si1 0.941007 0.425661 0.931641
Si Si2 0.866619 0.680664 0.878463
Si Si3 0.438326 0.329873 0.734471
Si Si4 0.136801 0.832553 0.070632
Si Si5 0.436536 0.580289 0.151636
Si Si6 0.257218 0.669027 0.434847
O O1 0.920904 0.500000 0.903918
O O2 0.898862 0.363858 0.926049
O O3 0.000000 0.406062 0.902709
O O4 0.950102 0.437633 0.000000
O O5 0.891978 0.659212 0.815182
O O6 0.874466 0.761176 0.894142
O O7 0.803215 0.656253 0.884315
O O8 0.500000 0.350947 0.713932
O O9 0.438227 0.250000 0.750000
O O10 0.419787 0.376988 0.789741
O O11 0.095727 0.890563 0.094661
O O12 0.198134 0.860660 0.084533
O O13 0.128344 0.821338 0.000000
O O14 0.500000 0.590502 0.137374
O O15 0.421694 0.500000 0.161542
O O16 0.274571 0.638456 0.500000
O O17 0.250000 0.750000 0.443574
#
# Coordination Sequence:
#
# PCOD8284829 Si02
#       6
#    32  32  32  32  32  32
#     4   9  18  30  43  68 107 139 166 212 268 316
#     4  11  18  31  57  80 104 142 186 224 265 327
#     4  10  20  35  54  78 108 142 183 230 275 320
#     4  10  20  35  57  83 112 145 181 228 278 324
#     4  10  22  40  59  80 111 148 184 228 279 331
#     4   8  16  31  51  79 112 143 179 224 270 318
#
# _framework density 18.071518999999999
#
# number of rings (size 3 to 8) (size 9 to 14) (size 15 to 20)
#    0.000    2.333    1.667    3.500    0.000    2.000 
#    0.000    4.167    0.000    2.000    0.000    0.000 
#    0.000    0.000    0.000    0.000    0.000    0.000 
#
# Total GULP energy -594667.350114 kJ/mol
# GULP energy per Si atom -12388.903127 kJ/mol
# Density = 1.803039 g / cm^3
# Si number density = 18.071519 Si / 1000 Ang^3
#
#
#
# Elastic Constant Matrix: (Units=GPa)
#
#
# Indices 1 2 3 4 5 6 
#
# 1 114.0550 41.1883 52.9902 0.0000 0.0000 0.0000
# 2 41.1883 79.2441 22.5330 0.0000 0.0000 0.0000
# 3 52.9902 22.5330 80.6535 0.0000 0.0000 0.0000
# 4 0.0000 0.0000 0.0000 24.1776 0.0000 0.0000
# 5 0.0000 0.0000 0.0000 0.0000 29.1382 0.0000
# 6 0.0000 0.0000 0.0000 0.0000 0.0000 10.6444
#
#
#
# Elastic Compliance Matrix: (Units=1/GPa)
#
#
# Indices 1 2 3 4 5 6 
#
# 1 0.014348 -0.005189 -0.007977 0.000000 0.000000 0.000000
# 2 -0.005189 0.015585 -0.000945 0.000000 0.000000 0.000000
# 3 -0.007977 -0.000945 0.017904 0.000000 0.000000 0.000000
# 4 0.000000 0.000000 0.000000 0.041361 0.000000 0.000000
# 5 0.000000 0.000000 0.000000 0.000000 0.034319 0.000000
# 6 0.000000 0.000000 0.000000 0.000000 0.000000 0.093946
#
#
# Mechanical properties :
#
#
# Convention : Reuss Voigt Hill
#
# Bulk Modulus (GPa) = 50.98238 56.37507 53.67872
# Shear Modulus (GPa) = 19.82380 23.27478 21.54929
#
# Velocity S-wave (km/s) = 3.31564 3.59266 3.45693
# Velocity P-wave (km/s) = 6.55215 6.96225 6.76031
#
# Compressibility (1/GPa) = 0.01961462
#
# Stress axis : x y z
#
# Youngs Moduli (GPa) = 69.69748 64.16402 55.85490
#
# Poissons Ratio (x) = 0.33296 0.44555
# Poissons Ratio (y) = 0.36168 0.05277
# Poissons Ratio (z) = 0.55597 0.06062
#
# Static dielectric constant tensor:
#      x y z
#    x 3.721580 0.000000 0.000000 
#    y 0.000000 3.254960 0.000000 
#    z 0.000000 0.000000 3.196820 
# 
# 
# High freq. dielectric constant tensor:
#      x y z
#    x 1.701140 0.000000 0.000000 
#    y 0.000000 1.685710 0.000000 
#    z 0.000000 0.000000 1.684240 
# 
# From -- ./inp_files/32014.got.cif
#   From: 2010.03.12/outbox.cif.g09.slc.cpg/sg69_17_cif.got.tgz:32014.got - 2010.04.10 23:52:46.
