data_PCOD8284923
_publ_section_title
;
Structure prediction by ZEFSAII (Michael W. Deem and Ramdas Pophale) SiO2 
 PCOD8284923
Probable space group: F M M M
;
_chemical_formula_sum "Si O2"
_cell_formula_units_Z 192
_cell_length_a 20.818428
_cell_length_b 24.155152
_cell_length_c 21.318820
_cell_angle_alpha 90.000000
_cell_angle_beta 90.000000
_cell_angle_gamma 90.000000
_cell_volume 10720.643892
_symmetry_space_group_name_H-M "F M M M"
_symmetry_group_IT_number 69
_symmetry_cell_setting 'orthorhombic'
loop_
_space_group_symop_operation_xyz
x,y,z
-x,-y,z
x,-y,-z
-x,y,-z
-x,-y,-z
x,y,-z
-x,y,z
x,-y,z
x,1/2+y,1/2+z
-x,1/2-y,1/2+z
x,1/2-y,1/2-z
-x,1/2+y,1/2-z
-x,1/2-y,1/2-z
x,1/2+y,1/2-z
-x,1/2+y,1/2+z
x,1/2-y,1/2+z
1/2+x,y,1/2+z
1/2-x,-y,1/2+z
1/2+x,-y,1/2-z
1/2-x,y,1/2-z
1/2-x,-y,1/2-z
1/2+x,y,1/2-z
1/2-x,y,1/2+z
1/2+x,-y,1/2+z
1/2+x,1/2+y,z
1/2-x,1/2-y,z
1/2+x,1/2-y,-z
1/2-x,1/2+y,-z
1/2-x,1/2-y,-z
1/2+x,1/2+y,-z
1/2-x,1/2+y,z
1/2+x,1/2-y,z
loop_
_atom_site_type_symbol
_atom_site_label
_atom_site_fract_x
_atom_site_fract_y
_atom_site_fract_z
Si Si1 0.703239 0.302409 0.500000
Si Si2 0.164010 0.223669 0.817620
Si Si3 0.707508 0.829342 0.866325
Si Si4 0.071512 0.757668 0.000000
Si Si5 0.927427 0.344208 0.610207
Si Si6 0.273136 0.938891 0.178553
Si Si7 0.832873 0.062742 0.928792
O O1 0.750000 0.250000 0.500000
O O2 0.721168 0.339866 0.439867
O O3 0.627461 0.287989 0.500000
O O4 0.162605 0.250000 0.750000
O O5 0.228748 0.189072 0.829068
O O6 0.158428 0.277462 0.863544
O O7 0.105520 0.181209 0.827459
O O8 0.679814 0.886187 0.834024
O O9 0.078761 0.796417 0.940309
O O10 0.000000 0.729680 0.000000
O O11 0.893642 0.399011 0.584927
O O12 0.000000 0.360218 0.626707
O O13 0.250000 0.936824 0.250000
O O14 0.218677 0.926849 0.126362
O O15 0.304121 0.000000 0.166384
O O16 0.857481 0.000000 0.923774
O O17 0.806584 0.074021 0.000000
#
# Coordination Sequence:
#
# PCOD8284923 Si02
#       7
#    16  32  32  16  32  32  32
#     4  12  20  32  53  83 109 141 177 227 267 332
#     4  11  21  33  50  74 107 139 174 219 268 323
#     4  11  20  32  53  79 105 136 174 214 272 318
#     4  10  20  36  51  72 107 146 180 215 268 324
#     4  11  21  35  54  73 103 141 183 225 262 318
#     4  10  21  36  54  77 106 143 178 215 268 327
#     4  10  21  35  53  78 109 143 179 220 268 322
#
# _framework density 17.909372999999999
#
# number of rings (size 3 to 8) (size 9 to 14) (size 15 to 20)
#    0.000    1.333    5.833    2.000    1.167    0.667 
#    0.000    0.833    0.000    0.000    0.000    0.000 
#    0.000    3.333    0.000    0.000    0.000    0.000 
#
# Total GULP energy -594626.688697 kJ/mol
# GULP energy per Si atom -12388.056015 kJ/mol
# Density = 1.786861 g / cm^3
# Si number density = 17.909373 Si / 1000 Ang^3
#
#
#
# Elastic Constant Matrix: (Units=GPa)
#
#
# Indices 1 2 3 4 5 6 
#
# 1 59.2256 8.0794 20.8053 0.0000 0.0000 0.0000
# 2 8.0794 101.1153 28.6066 0.0000 0.0000 0.0000
# 3 20.8053 28.6066 123.2051 0.0000 0.0000 0.0000
# 4 0.0000 0.0000 0.0000 28.3644 0.0000 0.0000
# 5 0.0000 0.0000 0.0000 0.0000 6.2663 0.0000
# 6 0.0000 0.0000 0.0000 0.0000 0.0000 17.5822
#
#
#
# Elastic Compliance Matrix: (Units=1/GPa)
#
#
# Indices 1 2 3 4 5 6 
#
# 1 0.017985 -0.000618 -0.002894 0.000000 0.000000 0.000000
# 2 -0.000618 0.010606 -0.002358 0.000000 0.000000 0.000000
# 3 -0.002894 -0.002358 0.009153 0.000000 0.000000 0.000000
# 4 0.000000 0.000000 0.000000 0.035255 0.000000 0.000000
# 5 0.000000 0.000000 0.000000 0.000000 0.159584 0.000000
# 6 0.000000 0.000000 0.000000 0.000000 0.000000 0.056876
#
#
# Mechanical properties :
#
#
# Convention : Reuss Voigt Hill
#
# Bulk Modulus (GPa) = 38.45562 44.28094 41.36828
# Shear Modulus (GPa) = 16.13592 25.51289 20.82440
#
# Velocity S-wave (km/s) = 3.00488 3.77842 3.41363
# Velocity P-wave (km/s) = 5.79293 6.61921 6.21981
#
# Compressibility (1/GPa) = 0.02600400
#
# Stress axis : x y z
#
# Youngs Moduli (GPa) = 55.60053 94.28378 109.25724
#
# Poissons Ratio (x) = 0.05831 0.31614
# Poissons Ratio (y) = 0.03439 0.25765
# Poissons Ratio (z) = 0.16088 0.22234
#
# Static dielectric constant tensor:
#      x y z
#    x 3.067520 0.000000 0.000000 
#    y 0.000000 3.738950 0.000000 
#    z 0.000000 0.000000 3.783890 
# 
# 
# High freq. dielectric constant tensor:
#      x y z
#    x 1.634520 0.000000 0.000000 
#    y 0.000000 1.704910 0.000000 
#    z 0.000000 0.000000 1.713300 
# 
# From -- ./inp_files/32939.got.cif
#   From: 2010.03.12/outbox.cif.g09.slc.cpg/sg69_17_cif.got.tgz:32939.got - 2010.04.10 23:52:46.
