data_PCOD8284478
_publ_section_title
;
Structure prediction by ZEFSAII (Michael W. Deem and Ramdas Pophale) SiO2 
 PCOD8284478
Probable space group: F M M M
;
_chemical_formula_sum "Si O2"
_cell_formula_units_Z 192
_cell_length_a 17.040825
_cell_length_b 31.913527
_cell_length_c 17.260259
_cell_angle_alpha 90.000000
_cell_angle_beta 90.000000
_cell_angle_gamma 90.000000
_cell_volume 9386.695477
_symmetry_space_group_name_H-M "F M M M"
_symmetry_group_IT_number 69
_symmetry_cell_setting 'orthorhombic'
loop_
_space_group_symop_operation_xyz
x,y,z
-x,-y,z
x,-y,-z
-x,y,-z
-x,-y,-z
x,y,-z
-x,y,z
x,-y,z
x,1/2+y,1/2+z
-x,1/2-y,1/2+z
x,1/2-y,1/2-z
-x,1/2+y,1/2-z
-x,1/2-y,1/2-z
x,1/2+y,1/2-z
-x,1/2+y,1/2+z
x,1/2-y,1/2+z
1/2+x,y,1/2+z
1/2-x,-y,1/2+z
1/2+x,-y,1/2-z
1/2-x,y,1/2-z
1/2-x,-y,1/2-z
1/2+x,y,1/2-z
1/2-x,y,1/2+z
1/2+x,-y,1/2+z
1/2+x,1/2+y,z
1/2-x,1/2-y,z
1/2+x,1/2-y,-z
1/2-x,1/2+y,-z
1/2-x,1/2-y,-z
1/2+x,1/2+y,-z
1/2-x,1/2+y,z
1/2+x,1/2-y,z
loop_
_atom_site_type_symbol
_atom_site_label
_atom_site_fract_x
_atom_site_fract_y
_atom_site_fract_z
Si Si1 0.911746 0.000000 0.591483
Si Si2 0.338063 0.261630 0.584764
Si Si3 0.679469 0.082995 0.090543
Si Si4 0.000000 0.046692 0.907094
Si Si5 0.089622 0.180253 0.157249
Si Si6 0.328642 0.661583 0.303521
Si Si7 0.644249 0.098059 0.588164
O O1 0.865066 0.041295 0.618227
O O2 0.916519 0.000000 0.500000
O O3 0.000000 0.000000 0.626609
O O4 0.378926 0.267420 0.500000
O O5 0.250000 0.250000 0.569283
O O6 0.384074 0.226598 0.633410
O O7 0.331405 0.304544 0.629889
O O8 0.654897 0.118215 0.152188
O O9 0.772536 0.075587 0.100008
O O10 0.660397 0.094638 0.000000
O O11 0.923360 0.070015 0.872287
O O12 0.000000 0.000000 0.872996
O O13 0.000000 0.045104 0.000000
O O14 0.097940 0.173428 0.249082
O O15 0.146510 0.145503 0.119161
O O16 0.000000 0.173041 0.131579
O O17 0.250000 0.662036 0.250000
O O18 0.620861 0.102097 0.500000
#
# Coordination Sequence:
#
# PCOD8284478 Si02
#       7
#    16  32  32  16  32  32  32
#     4   9  20  40  67  97 127 163 211 273 327 365
#     4  11  23  40  65  92 121 165 217 261 309 374
#     4  10  21  39  67  97 123 161 216 264 315 382
#     4   9  18  30  52  86 127 166 203 253 314 374
#     4  12  25  40  62  91 129 168 210 259 325 385
#     4  12  23  40  63  90 128 168 205 260 318 378
#     4  10  19  34  58  89 126 167 208 255 311 378
#
# _framework density 20.454483
#
# number of rings (size 3 to 8) (size 9 to 14) (size 15 to 20)
#    0.000    1.333    4.167    1.500    1.167    5.667 
#    0.000    0.417    1.833    3.000    0.000    0.000 
#    0.000    0.000    0.000    0.000    0.000    0.000 
#
# Total GULP energy -594934.322498 kJ/mol
# GULP energy per Si atom -12394.465052 kJ/mol
# Density = 2.040793 g / cm^3
# Si number density = 20.454483 Si / 1000 Ang^3
#
#
#
# Elastic Constant Matrix: (Units=GPa)
#
#
# Indices 1 2 3 4 5 6 
#
# 1 90.1541 50.5901 40.2914 0.0000 0.0000 0.0000
# 2 50.5901 170.4292 67.9542 0.0000 0.0000 0.0000
# 3 40.2914 67.9542 96.6504 0.0000 0.0000 0.0000
# 4 0.0000 0.0000 0.0000 22.0510 0.0000 0.0000
# 5 0.0000 0.0000 0.0000 0.0000 17.3634 0.0000
# 6 0.0000 0.0000 0.0000 0.0000 0.0000 24.8287
#
#
#
# Elastic Compliance Matrix: (Units=1/GPa)
#
#
# Indices 1 2 3 4 5 6 
#
# 1 0.014426 -0.002618 -0.004173 0.000000 0.000000 0.000000
# 2 -0.002618 0.008628 -0.004975 0.000000 0.000000 0.000000
# 3 -0.004173 -0.004975 0.015584 0.000000 0.000000 0.000000
# 4 0.000000 0.000000 0.000000 0.045350 0.000000 0.000000
# 5 0.000000 0.000000 0.000000 0.000000 0.057592 0.000000
# 6 0.000000 0.000000 0.000000 0.000000 0.000000 0.040276
#
#
# Mechanical properties :
#
#
# Convention : Reuss Voigt Hill
#
# Bulk Modulus (GPa) = 66.19895 74.98945 70.59420
# Shear Modulus (GPa) = 23.76138 26.07514 24.91826
#
# Velocity S-wave (km/s) = 3.41203 3.57429 3.49410
# Velocity P-wave (km/s) = 6.92509 7.33316 7.13205
#
# Compressibility (1/GPa) = 0.01510598
#
# Stress axis : x y z
#
# Youngs Moduli (GPa) = 69.31699 115.89556 64.16787
#
# Poissons Ratio (x) = 0.30347 0.26778
# Poissons Ratio (y) = 0.18150 0.31924
# Poissons Ratio (z) = 0.28926 0.57658
#
# Static dielectric constant tensor:
#      x y z
#    x 3.554040 0.000000 0.000000 
#    y 0.000000 4.439690 0.000000 
#    z 0.000000 0.000000 3.891210 
# 
# 
# High freq. dielectric constant tensor:
#      x y z
#    x 1.794110 0.000000 0.000000 
#    y 0.000000 1.803610 0.000000 
#    z 0.000000 0.000000 1.789250 
# 
# From -- ./inp_files/23734.got.cif
#   From: 2010.03.12/outbox.cif.g09.slc.cpg/sg69_12_cif.got.tgz:23734.got - 2010.04.10 23:52:46.
