data_PCOD8284566
_publ_section_title
;
Structure prediction by ZEFSAII (Michael W. Deem and Ramdas Pophale) SiO2 
 PCOD8284566
Probable space group: F M M M
;
_chemical_formula_sum "Si O2"
_cell_formula_units_Z 128
_cell_length_a 13.928488
_cell_length_b 23.127641
_cell_length_c 20.343346
_cell_angle_alpha 90.000000
_cell_angle_beta 90.000000
_cell_angle_gamma 90.000000
_cell_volume 6553.264504
_symmetry_space_group_name_H-M "F M M M"
_symmetry_group_IT_number 69
_symmetry_cell_setting 'orthorhombic'
loop_
_space_group_symop_operation_xyz
x,y,z
-x,-y,z
x,-y,-z
-x,y,-z
-x,-y,-z
x,y,-z
-x,y,z
x,-y,z
x,1/2+y,1/2+z
-x,1/2-y,1/2+z
x,1/2-y,1/2-z
-x,1/2+y,1/2-z
-x,1/2-y,1/2-z
x,1/2+y,1/2-z
-x,1/2+y,1/2+z
x,1/2-y,1/2+z
1/2+x,y,1/2+z
1/2-x,-y,1/2+z
1/2+x,-y,1/2-z
1/2-x,y,1/2-z
1/2-x,-y,1/2-z
1/2+x,y,1/2-z
1/2-x,y,1/2+z
1/2+x,-y,1/2+z
1/2+x,1/2+y,z
1/2-x,1/2-y,z
1/2+x,1/2-y,-z
1/2-x,1/2+y,-z
1/2-x,1/2-y,-z
1/2+x,1/2+y,-z
1/2-x,1/2+y,z
1/2+x,1/2-y,z
loop_
_atom_site_type_symbol
_atom_site_label
_atom_site_fract_x
_atom_site_fract_y
_atom_site_fract_z
Si Si1 0.822337 0.124039 0.692306
Si Si2 0.785931 0.500000 0.574334
Si Si3 0.000000 0.792527 0.689337
Si Si4 0.500000 0.798127 0.577010
Si Si5 0.387743 0.500000 0.666412
Si Si6 0.181423 0.124320 0.923574
O O1 0.750000 0.139984 0.750000
O O2 0.860709 0.058665 0.705538
O O3 0.773285 0.136587 0.621732
O O4 0.908271 0.167952 0.695228
O O5 0.757635 0.500000 0.500000
O O6 0.679034 0.500000 0.603049
O O7 0.847889 0.557246 0.591466
O O8 0.000000 0.750000 0.750000
O O9 0.000000 0.759753 0.619522
O O10 0.500000 0.781798 0.500000
O O11 0.592848 0.835635 0.596153
O O12 0.500000 0.500000 0.647124
O O13 0.209837 0.133729 0.000000
#
# Coordination Sequence:
#
# PCOD8284566 Si02
#       6
#    32  16  16  16  16  32
#     4  11  23  40  63  87 117 151 190 240 294 350
#     4   8  16  31  56  89 119 150 190 232 288 350
#     4  12  26  41  58  85 116 154 202 241 284 341
#     4  10  22  39  59  85 119 158 203 243 281 335
#     4  10  19  38  61  86 117 146 183 237 295 352
#     4   9  19  37  60  87 119 153 192 241 291 342
#
# _framework density 19.532250999999999
#
# number of rings (size 3 to 8) (size 9 to 14) (size 15 to 20)
#    0.000    2.000    1.250    1.875    0.000    5.250 
#    0.000    5.000    0.000    0.000    0.000    0.000 
#    0.000    0.000    0.000    0.000    0.000    0.000 
#
# Total GULP energy -396594.332169 kJ/mol
# GULP energy per Si atom -12393.572880 kJ/mol
# Density = 1.948779 g / cm^3
# Si number density = 19.532251 Si / 1000 Ang^3
#
#
#
# Elastic Constant Matrix: (Units=GPa)
#
#
# Indices 1 2 3 4 5 6 
#
# 1 129.3812 95.4869 50.8612 0.0000 0.0000 0.0000
# 2 95.4869 154.6863 67.7526 0.0000 0.0000 0.0000
# 3 50.8612 67.7526 86.7147 0.0000 0.0000 0.0000
# 4 0.0000 0.0000 0.0000 29.8936 0.0000 0.0000
# 5 0.0000 0.0000 0.0000 0.0000 24.3964 0.0000
# 6 0.0000 0.0000 0.0000 0.0000 0.0000 56.9349
#
#
#
# Elastic Compliance Matrix: (Units=1/GPa)
#
#
# Indices 1 2 3 4 5 6 
#
# 1 0.014492 -0.007940 -0.002296 0.000000 0.000000 0.000000
# 2 -0.007940 0.014178 -0.006421 0.000000 0.000000 0.000000
# 3 -0.002296 -0.006421 0.017896 0.000000 0.000000 0.000000
# 4 0.000000 0.000000 0.000000 0.033452 0.000000 0.000000
# 5 0.000000 0.000000 0.000000 0.000000 0.040990 0.000000
# 6 0.000000 0.000000 0.000000 0.000000 0.000000 0.017564
#
#
# Mechanical properties :
#
#
# Convention : Reuss Voigt Hill
#
# Bulk Modulus (GPa) = 75.46205 88.77594 82.11900
# Shear Modulus (GPa) = 28.36041 32.69041 30.52541
#
# Velocity S-wave (km/s) = 3.81462 4.09548 3.95754
# Velocity P-wave (km/s) = 7.62366 8.24097 7.93832
#
# Compressibility (1/GPa) = 0.01325169
#
# Stress axis : x y z
#
# Youngs Moduli (GPa) = 69.00565 70.53062 55.87937
#
# Poissons Ratio (x) = 0.56000 0.12831
# Poissons Ratio (y) = 0.54789 0.35879
# Poissons Ratio (z) = 0.15845 0.45287
#
# Static dielectric constant tensor:
#      x y z
#    x 3.417650 0.000000 0.000000 
#    y 0.000000 3.959210 0.000000 
#    z 0.000000 0.000000 3.574310 
# 
# 
# High freq. dielectric constant tensor:
#      x y z
#    x 1.756810 0.000000 0.000000 
#    y 0.000000 1.774120 0.000000 
#    z 0.000000 0.000000 1.761610 
# 
# From -- ./inp_files/29689.got.cif
#   From: 2010.03.12/outbox.cif.g09.slc.cpg/sg69_15_cif.got.tgz:29689.got - 2010.04.10 23:52:46.
