data_PCOD8284030
_publ_section_title
;
Structure prediction by ZEFSAII (Michael W. Deem and Ramdas Pophale) SiO2 
 PCOD8284030
Probable space group: F M M M
;
_chemical_formula_sum "Si O2"
_cell_formula_units_Z 192
_cell_length_a 22.058346
_cell_length_b 19.380250
_cell_length_c 23.557123
_cell_angle_alpha 90.000000
_cell_angle_beta 90.000000
_cell_angle_gamma 90.000000
_cell_volume 10070.581980
_symmetry_space_group_name_H-M "F M M M"
_symmetry_group_IT_number 69
_symmetry_cell_setting 'orthorhombic'
loop_
_space_group_symop_operation_xyz
x,y,z
-x,-y,z
x,-y,-z
-x,y,-z
-x,-y,-z
x,y,-z
-x,y,z
x,-y,z
x,1/2+y,1/2+z
-x,1/2-y,1/2+z
x,1/2-y,1/2-z
-x,1/2+y,1/2-z
-x,1/2-y,1/2-z
x,1/2+y,1/2-z
-x,1/2+y,1/2+z
x,1/2-y,1/2+z
1/2+x,y,1/2+z
1/2-x,-y,1/2+z
1/2+x,-y,1/2-z
1/2-x,y,1/2-z
1/2-x,-y,1/2-z
1/2+x,y,1/2-z
1/2-x,y,1/2+z
1/2+x,-y,1/2+z
1/2+x,1/2+y,z
1/2-x,1/2-y,z
1/2+x,1/2-y,-z
1/2-x,1/2+y,-z
1/2-x,1/2-y,-z
1/2+x,1/2+y,-z
1/2-x,1/2+y,z
1/2+x,1/2-y,z
loop_
_atom_site_type_symbol
_atom_site_label
_atom_site_fract_x
_atom_site_fract_y
_atom_site_fract_z
Si Si1 0.500000 0.922953 0.567330
Si Si2 0.788496 0.577219 0.616118
Si Si3 0.183472 0.624923 0.735466
Si Si4 0.397839 0.250000 0.750000
Si Si5 0.611967 0.168054 0.566207
Si Si6 0.347338 0.077631 0.144098
Si Si7 0.431822 0.702546 0.631609
O O1 0.500000 0.927601 0.500000
O O2 0.440600 0.882935 0.589063
O O3 0.500000 0.000000 0.593621
O O4 0.798020 0.500000 0.591699
O O5 0.815025 0.577331 0.679902
O O6 0.823103 0.632495 0.577095
O O7 0.717384 0.596684 0.616032
O O8 0.250000 0.653025 0.750000
O O9 0.143115 0.691131 0.721766
O O10 0.157051 0.581105 0.787690
O O11 0.437341 0.280687 0.698692
O O12 0.604286 0.183271 0.500000
O O13 0.606833 0.240084 0.598783
O O14 0.397790 0.130206 0.121052
O O15 0.366707 0.000000 0.127400
O O16 0.500000 0.697485 0.607044
#
# Coordination Sequence:
#
# PCOD8284030 Si02
#       7
#    16  32  32  16  32  32  32
#     4   9  18  34  56  81 111 151 193 226 263 328
#     4  10  19  34  56  83 116 149 185 230 282 337
#     4   9  16  28  52  82 113 147 182 224 276 341
#     4  10  18  32  52  80 114 145 185 234 288 337
#     4  11  22  37  58  84 115 151 189 228 279 340
#     4   9  20  36  56  83 112 146 190 236 285 337
#     4  11  22  37  58  80 111 152 193 240 287 334
#
# _framework density 19.065432000000001
#
# number of rings (size 3 to 8) (size 9 to 14) (size 15 to 20)
#    0.000    2.083    2.500    1.500    0.000    4.000 
#    0.000    1.667    0.000    1.500    0.000    1.167 
#    0.000    0.000    0.000    0.000    0.000    0.000 
#
# Total GULP energy -595188.575546 kJ/mol
# GULP energy per Si atom -12399.761991 kJ/mol
# Density = 1.902204 g / cm^3
# Si number density = 19.065432 Si / 1000 Ang^3
#
#
#
# Elastic Constant Matrix: (Units=GPa)
#
#
# Indices 1 2 3 4 5 6 
#
# 1 90.7915 60.1036 18.6503 0.0000 0.0000 0.0000
# 2 60.1036 135.5150 24.9867 0.0000 0.0000 0.0000
# 3 18.6503 24.9867 48.6112 0.0000 0.0000 0.0000
# 4 0.0000 0.0000 0.0000 19.9661 0.0000 0.0000
# 5 0.0000 0.0000 0.0000 0.0000 20.5771 0.0000
# 6 0.0000 0.0000 0.0000 0.0000 0.0000 24.9054
#
#
#
# Elastic Compliance Matrix: (Units=1/GPa)
#
#
# Indices 1 2 3 4 5 6 
#
# 1 0.015915 -0.006554 -0.002737 0.000000 0.000000 0.000000
# 2 -0.006554 0.010851 -0.003063 0.000000 0.000000 0.000000
# 3 -0.002737 -0.003063 0.023196 0.000000 0.000000 0.000000
# 4 0.000000 0.000000 0.000000 0.050085 0.000000 0.000000
# 5 0.000000 0.000000 0.000000 0.000000 0.048598 0.000000
# 6 0.000000 0.000000 0.000000 0.000000 0.000000 0.040152
#
#
# Mechanical properties :
#
#
# Convention : Reuss Voigt Hill
#
# Bulk Modulus (GPa) = 39.59819 53.59988 46.59903
# Shear Modulus (GPa) = 22.53034 24.50152 23.51593
#
# Velocity S-wave (km/s) = 3.44137 3.58876 3.51584
# Velocity P-wave (km/s) = 6.05024 6.73401 6.40126
#
# Compressibility (1/GPa) = 0.02525368
#
# Stress axis : x y z
#
# Youngs Moduli (GPa) = 62.83273 92.15863 43.11095
#
# Poissons Ratio (x) = 0.60401 0.11801
# Poissons Ratio (y) = 0.41181 0.13205
# Poissons Ratio (z) = 0.17199 0.28227
#
# Static dielectric constant tensor:
#      x y z
#    x 3.416800 0.000000 0.000000 
#    y 0.000000 3.523310 0.000000 
#    z 0.000000 0.000000 3.176470 
# 
# 
# High freq. dielectric constant tensor:
#      x y z
#    x 1.735140 0.000000 0.000000 
#    y 0.000000 1.742460 0.000000 
#    z 0.000000 0.000000 1.712970 
# 
# From -- ./inp_files/37396.got.cif
#   From: 2010.03.12/outbox.cif.g09.slc.cpg/sg69_19_cif.got.tgz:37396.got - 2010.04.10 23:52:46.
