data_PCOD8284267
_publ_section_title
;
Structure prediction by ZEFSAII (Michael W. Deem and Ramdas Pophale) SiO2 
 PCOD8284267
Probable space group: F M M M
;
_chemical_formula_sum "Si O2"
_cell_formula_units_Z 144
_cell_length_a 30.976146
_cell_length_b 13.266357
_cell_length_c 19.228913
_cell_angle_alpha 90.000000
_cell_angle_beta 90.000000
_cell_angle_gamma 90.000000
_cell_volume 7901.941263
_symmetry_space_group_name_H-M "F M M M"
_symmetry_group_IT_number 69
_symmetry_cell_setting 'orthorhombic'
loop_
_space_group_symop_operation_xyz
x,y,z
-x,-y,z
x,-y,-z
-x,y,-z
-x,-y,-z
x,y,-z
-x,y,z
x,-y,z
x,1/2+y,1/2+z
-x,1/2-y,1/2+z
x,1/2-y,1/2-z
-x,1/2+y,1/2-z
-x,1/2-y,1/2-z
x,1/2+y,1/2-z
-x,1/2+y,1/2+z
x,1/2-y,1/2+z
1/2+x,y,1/2+z
1/2-x,-y,1/2+z
1/2+x,-y,1/2-z
1/2-x,y,1/2-z
1/2-x,-y,1/2-z
1/2+x,y,1/2-z
1/2-x,y,1/2+z
1/2+x,-y,1/2+z
1/2+x,1/2+y,z
1/2-x,1/2-y,z
1/2+x,1/2-y,-z
1/2-x,1/2+y,-z
1/2-x,1/2-y,-z
1/2+x,1/2+y,-z
1/2-x,1/2+y,z
1/2+x,1/2-y,z
loop_
_atom_site_type_symbol
_atom_site_label
_atom_site_fract_x
_atom_site_fract_y
_atom_site_fract_z
Si Si1 0.912533 0.304086 0.641268
Si Si2 0.706569 0.118789 0.282173
Si Si3 0.000000 0.116736 0.917670
Si Si4 0.830721 0.881097 0.923817
Si Si5 0.382955 0.885251 0.781965
O O1 0.878185 0.333576 0.582417
O O2 0.905019 0.186690 0.661193
O O3 0.907335 0.375160 0.708627
O O4 0.959621 0.321423 0.611230
O O5 0.750000 0.166969 0.250000
O O6 0.699533 0.159742 0.361108
O O7 0.666879 0.148365 0.231466
O O8 0.710769 0.000000 0.286031
O O9 0.000000 0.000000 0.892674
O O10 0.000000 0.121397 0.000000
O O11 0.836336 0.000000 0.917126
O O12 0.811640 0.851754 0.000000
O O13 0.386140 0.000000 0.808730
#
# Coordination Sequence:
#
# PCOD8284267 Si02
#       5
#    32  32  16  32  32
#     4  10  19  32  50  74 101 128 161 205 252 305
#     4   8  14  27  49  75 101 131 170 212 251 296
#     4  11  22  35  55  79  99 121 155 208 268 317
#     4   9  16  28  48  72  99 129 160 203 261 312
#     4   9  18  32  50  73 102 137 170 202 248 300
#
# _framework density 18.223369000000002
#
# number of rings (size 3 to 8) (size 9 to 14) (size 15 to 20)
#    0.000    2.778    0.000    4.000    0.000    3.556 
#    0.000   10.556    0.000    7.333    0.000    6.222 
#    0.000    0.000    0.000    0.000    0.000    0.000 
#
# Total GULP energy -446172.664157 kJ/mol
# GULP energy per Si atom -12393.685115 kJ/mol
# Density = 1.818189 g / cm^3
# Si number density = 18.223369 Si / 1000 Ang^3
#
#
#
# Elastic Constant Matrix: (Units=GPa)
#
#
# Indices 1 2 3 4 5 6 
#
# 1 140.3963 35.8921 65.9486 0.0000 0.0000 0.0000
# 2 35.8921 93.5239 43.9017 0.0000 0.0000 0.0000
# 3 65.9486 43.9017 103.6429 0.0000 0.0000 0.0000
# 4 0.0000 0.0000 0.0000 24.1542 0.0000 0.0000
# 5 0.0000 0.0000 0.0000 0.0000 21.9031 0.0000
# 6 0.0000 0.0000 0.0000 0.0000 0.0000 61.2573
#
#
#
# Elastic Compliance Matrix: (Units=1/GPa)
#
#
# Indices 1 2 3 4 5 6 
#
# 1 0.010247 -0.001088 -0.006059 0.000000 0.000000 0.000000
# 2 -0.001088 0.013462 -0.005010 0.000000 0.000000 0.000000
# 3 -0.006059 -0.005010 0.015626 0.000000 0.000000 0.000000
# 4 0.000000 0.000000 0.000000 0.041401 0.000000 0.000000
# 5 0.000000 0.000000 0.000000 0.000000 0.045656 0.000000
# 6 0.000000 0.000000 0.000000 0.000000 0.000000 0.016325
#
#
# Mechanical properties :
#
#
# Convention : Reuss Voigt Hill
#
# Bulk Modulus (GPa) = 66.57622 69.89423 68.23522
# Shear Modulus (GPa) = 29.06341 34.25096 31.65719
#
# Velocity S-wave (km/s) = 3.99788 4.34003 4.17247
# Velocity P-wave (km/s) = 7.61075 7.97195 7.79344
#
# Compressibility (1/GPa) = 0.01502038
#
# Stress axis : x y z
#
# Youngs Moduli (GPa) = 97.58773 74.28451 63.99507
#
# Poissons Ratio (x) = 0.08084 0.38777
# Poissons Ratio (y) = 0.10620 0.32060
# Poissons Ratio (z) = 0.59132 0.37215
#
# Static dielectric constant tensor:
#      x y z
#    x 3.457200 0.000000 0.000000 
#    y 0.000000 3.245140 0.000000 
#    z 0.000000 0.000000 3.440690 
# 
# 
# High freq. dielectric constant tensor:
#      x y z
#    x 1.695000 0.000000 0.000000 
#    y 0.000000 1.702040 0.000000 
#    z 0.000000 0.000000 1.692030 
# 
# From -- ./inp_files/27414.got.cif
#   From: 2010.03.12/outbox.cif.g09.slc.cpg/sg69_14_cif.got.tgz:27414.got - 2010.04.10 23:52:46.
