data_PCOD8284523
_publ_section_title
;
Structure prediction by ZEFSAII (Michael W. Deem and Ramdas Pophale) SiO2 
 PCOD8284523
Probable space group: F M M M
;
_chemical_formula_sum "Si O2"
_cell_formula_units_Z 112
_cell_length_a 18.247363
_cell_length_b 17.100515
_cell_length_c 15.936592
_cell_angle_alpha 90.000000
_cell_angle_beta 90.000000
_cell_angle_gamma 90.000000
_cell_volume 4972.843087
_symmetry_space_group_name_H-M "F M M M"
_symmetry_group_IT_number 69
_symmetry_cell_setting 'orthorhombic'
loop_
_space_group_symop_operation_xyz
x,y,z
-x,-y,z
x,-y,-z
-x,y,-z
-x,-y,-z
x,y,-z
-x,y,z
x,-y,z
x,1/2+y,1/2+z
-x,1/2-y,1/2+z
x,1/2-y,1/2-z
-x,1/2+y,1/2-z
-x,1/2-y,1/2-z
x,1/2+y,1/2-z
-x,1/2+y,1/2+z
x,1/2-y,1/2+z
1/2+x,y,1/2+z
1/2-x,-y,1/2+z
1/2+x,-y,1/2-z
1/2-x,y,1/2-z
1/2-x,-y,1/2-z
1/2+x,y,1/2-z
1/2-x,y,1/2+z
1/2+x,-y,1/2+z
1/2+x,1/2+y,z
1/2-x,1/2-y,z
1/2+x,1/2-y,-z
1/2-x,1/2+y,-z
1/2-x,1/2-y,-z
1/2+x,1/2+y,-z
1/2-x,1/2+y,z
1/2+x,1/2-y,z
loop_
_atom_site_type_symbol
_atom_site_label
_atom_site_fract_x
_atom_site_fract_y
_atom_site_fract_z
Si Si1 0.585189 0.817514 0.900240
Si Si2 0.715139 0.589907 0.659105
Si Si3 0.350436 0.156540 0.405105
Si Si4 0.083165 0.500000 0.400472
O O1 0.500000 0.826044 0.876588
O O2 0.630572 0.884151 0.850473
O O3 0.616014 0.734740 0.864549
O O4 0.597185 0.826607 0.000000
O O5 0.721954 0.500000 0.629945
O O6 0.750000 0.602724 0.750000
O O7 0.762184 0.648613 0.599421
O O8 0.378531 0.157575 0.500000
O O9 0.381138 0.077801 0.359801
O O10 0.095715 0.500000 0.500000
O O11 0.000000 0.500000 0.373881
#
# Coordination Sequence:
#
# PCOD8284523 Si02
#       4
#    32  32  32  16
#     4  10  22  40  64  94 125 158 201 255 310 366
#     4  11  24  41  60  84 121 163 209 253 302 367
#     4  10  19  35  60  89 118 153 201 251 303 363
#     4   9  16  28  51  82 115 147 183 236 296 350
#
# _framework density 22.522328000000002
#
# number of rings (size 3 to 8) (size 9 to 14) (size 15 to 20)
#    0.000    1.857    1.429    2.571    0.000   10.286 
#    0.000    5.714    0.000    0.000    0.000    0.000 
#    0.000    0.000    0.000    0.000    0.000    0.000 
#
# Total GULP energy -347088.666704 kJ/mol
# GULP energy per Si atom -12396.023811 kJ/mol
# Density = 2.247107 g / cm^3
# Si number density = 22.522328 Si / 1000 Ang^3
#
#
#
# Elastic Constant Matrix: (Units=GPa)
#
#
# Indices 1 2 3 4 5 6 
#
# 1 180.6012 69.2497 29.7197 0.0000 0.0000 0.0000
# 2 69.2497 110.9592 34.3780 0.0000 0.0000 0.0000
# 3 29.7197 34.3780 35.3027 0.0000 0.0000 0.0000
# 4 0.0000 0.0000 0.0000 18.5322 0.0000 0.0000
# 5 0.0000 0.0000 0.0000 0.0000 25.9259 0.0000
# 6 0.0000 0.0000 0.0000 0.0000 0.0000 38.3396
#
#
#
# Elastic Compliance Matrix: (Units=1/GPa)
#
#
# Indices 1 2 3 4 5 6 
#
# 1 0.007429 -0.003865 -0.002490 0.000000 0.000000 0.000000
# 2 -0.003865 0.014917 -0.011273 0.000000 0.000000 0.000000
# 3 -0.002490 -0.011273 0.041400 0.000000 0.000000 0.000000
# 4 0.000000 0.000000 0.000000 0.053960 0.000000 0.000000
# 5 0.000000 0.000000 0.000000 0.000000 0.038571 0.000000
# 6 0.000000 0.000000 0.000000 0.000000 0.000000 0.026083
#
#
# Mechanical properties :
#
#
# Convention : Reuss Voigt Hill
#
# Bulk Modulus (GPa) = 35.09946 65.95090 50.52518
# Shear Modulus (GPa) = 22.01552 29.46060 25.73806
#
# Velocity S-wave (km/s) = 3.12989 3.62064 3.38417
# Velocity P-wave (km/s) = 5.35535 6.84286 6.14428
#
# Compressibility (1/GPa) = 0.02849047
#
# Stress axis : x y z
#
# Youngs Moduli (GPa) = 134.61177 67.03845 24.15433
#
# Poissons Ratio (x) = 0.25908 0.06016
# Poissons Ratio (y) = 0.52023 0.27228
# Poissons Ratio (z) = 0.33525 0.75570
#
# Static dielectric constant tensor:
#      x y z
#    x 4.126840 0.000000 0.000000 
#    y 0.000000 4.267020 0.000000 
#    z 0.000000 0.000000 3.506770 
# 
# 
# High freq. dielectric constant tensor:
#      x y z
#    x 1.895510 0.000000 0.000000 
#    y 0.000000 1.897340 0.000000 
#    z 0.000000 0.000000 1.845760 
# 
# From -- ./inp_files/22330.got.cif
#   From: 2010.03.12/outbox.cif.g09.slc.cpg/sg69_12_cif.got.tgz:22330.got - 2010.04.10 23:52:46.
