data_PCOD8284801
_publ_section_title
;
Structure prediction by ZEFSAII (Michael W. Deem and Ramdas Pophale) SiO2 
 PCOD8284801
Probable space group: F M M M
;
_chemical_formula_sum "Si O2"
_cell_formula_units_Z 160
_cell_length_a 25.842080
_cell_length_b 16.038654
_cell_length_c 18.043616
_cell_angle_alpha 90.000000
_cell_angle_beta 90.000000
_cell_angle_gamma 90.000000
_cell_volume 7478.576854
_symmetry_space_group_name_H-M "F M M M"
_symmetry_group_IT_number 69
_symmetry_cell_setting 'orthorhombic'
loop_
_space_group_symop_operation_xyz
x,y,z
-x,-y,z
x,-y,-z
-x,y,-z
-x,-y,-z
x,y,-z
-x,y,z
x,-y,z
x,1/2+y,1/2+z
-x,1/2-y,1/2+z
x,1/2-y,1/2-z
-x,1/2+y,1/2-z
-x,1/2-y,1/2-z
x,1/2+y,1/2-z
-x,1/2+y,1/2+z
x,1/2-y,1/2+z
1/2+x,y,1/2+z
1/2-x,-y,1/2+z
1/2+x,-y,1/2-z
1/2-x,y,1/2-z
1/2-x,-y,1/2-z
1/2+x,y,1/2-z
1/2-x,y,1/2+z
1/2+x,-y,1/2+z
1/2+x,1/2+y,z
1/2-x,1/2-y,z
1/2+x,1/2-y,-z
1/2-x,1/2+y,-z
1/2-x,1/2-y,-z
1/2+x,1/2+y,-z
1/2-x,1/2+y,z
1/2+x,1/2-y,z
loop_
_atom_site_type_symbol
_atom_site_label
_atom_site_fract_x
_atom_site_fract_y
_atom_site_fract_z
Si Si1 0.638689 0.901524 0.912573
Si Si2 0.843561 0.099656 0.083097
Si Si3 0.444264 0.406153 0.843038
Si Si4 0.744411 0.401017 0.333053
Si Si5 0.941415 0.171246 0.302126
O O1 0.692319 0.872817 0.874466
O O2 0.594450 0.846216 0.873158
O O3 0.628529 0.000000 0.900766
O O4 0.640225 0.880321 0.000000
O O5 0.896337 0.139323 0.116642
O O6 0.793740 0.136564 0.124248
O O7 0.844657 0.000000 0.090391
O O8 0.839547 0.130722 0.000000
O O9 0.500000 0.362260 0.862127
O O10 0.446658 0.500000 0.871802
O O11 0.436152 0.406679 0.754235
O O12 0.746870 0.500000 0.332651
O O13 0.750000 0.365535 0.250000
O O14 0.925312 0.250000 0.250000
O O15 0.000000 0.181686 0.331794
#
# Coordination Sequence:
#
# PCOD8284801 Si02
#       5
#    32  32  32  32  32
#     4  10  20  34  56  87 117 142 178 234 290 334
#     4   9  16  26  43  70 103 133 163 208 265 318
#     4   9  17  30  50  75 100 129 172 224 270 315
#     4   9  16  27  47  76 108 141 177 217 267 329
#     4  10  21  37  55  75 103 142 183 217 261 331
#
# _framework density 21.394445000000001
#
# number of rings (size 3 to 8) (size 9 to 14) (size 15 to 20)
#    0.000    2.600    0.000    2.400    0.000    7.600 
#    0.000    4.000    0.000    9.000    0.000    7.000 
#    0.000    0.000    0.000    0.000    0.000    0.000 
#
# Total GULP energy -495602.508633 kJ/mol
# GULP energy per Si atom -12390.062716 kJ/mol
# Density = 2.134575 g / cm^3
# Si number density = 21.394445 Si / 1000 Ang^3
#
#
#
# Elastic Constant Matrix: (Units=GPa)
#
#
# Indices 1 2 3 4 5 6 
#
# 1 210.4506 29.6583 121.8409 0.0000 0.0000 0.0000
# 2 29.6583 33.5895 22.1855 0.0000 0.0000 0.0000
# 3 121.8409 22.1855 186.2371 0.0000 0.0000 0.0000
# 4 0.0000 0.0000 0.0000 19.9559 0.0000 0.0000
# 5 0.0000 0.0000 0.0000 0.0000 35.4261 0.0000
# 6 0.0000 0.0000 0.0000 0.0000 0.0000 6.1476
#
#
#
# Elastic Compliance Matrix: (Units=1/GPa)
#
#
# Indices 1 2 3 4 5 6 
#
# 1 0.008108 -0.003968 -0.004832 0.000000 0.000000 0.000000
# 2 -0.003968 0.034255 -0.001485 0.000000 0.000000 0.000000
# 3 -0.004832 -0.001485 0.008708 0.000000 0.000000 0.000000
# 4 0.000000 0.000000 0.000000 0.050111 0.000000 0.000000
# 5 0.000000 0.000000 0.000000 0.000000 0.028228 0.000000
# 6 0.000000 0.000000 0.000000 0.000000 0.000000 0.162666
#
#
# Mechanical properties :
#
#
# Convention : Reuss Voigt Hill
#
# Bulk Modulus (GPa) = 32.78472 86.40519 59.59495
# Shear Modulus (GPa) = 15.48886 29.41207 22.45046
#
# Velocity S-wave (km/s) = 2.69358 3.71179 3.24290
# Velocity P-wave (km/s) = 5.00310 7.67100 6.47593
#
# Compressibility (1/GPa) = 0.03050201
#
# Stress axis : x y z
#
# Youngs Moduli (GPa) = 123.32837 29.19241 114.84193
#
# Poissons Ratio (x) = 0.11583 0.55492
# Poissons Ratio (y) = 0.48936 0.17051
# Poissons Ratio (z) = 0.59593 0.04334
#
# Static dielectric constant tensor:
#      x y z
#    x 4.214730 0.000000 0.000000 
#    y 0.000000 3.352440 0.000000 
#    z 0.000000 0.000000 3.866920 
# 
# 
# High freq. dielectric constant tensor:
#      x y z
#    x 1.856360 0.000000 0.000000 
#    y 0.000000 1.794840 0.000000 
#    z 0.000000 0.000000 1.833540 
# 
# From -- ./inp_files/23163.got.cif
#   From: 2010.03.12/outbox.cif.g09.slc.cpg/sg69_12_cif.got.tgz:23163.got - 2010.04.10 23:52:46.
