data_PCOD8284884
_publ_section_title
;
Structure prediction by ZEFSAII (Michael W. Deem and Ramdas Pophale) SiO2 
 PCOD8284884
Probable space group: F M M M
;
_chemical_formula_sum "Si O2"
_cell_formula_units_Z 176
_cell_length_a 17.661478
_cell_length_b 27.536030
_cell_length_c 20.457675
_cell_angle_alpha 90.000000
_cell_angle_beta 90.000000
_cell_angle_gamma 90.000000
_cell_volume 9949.119465
_symmetry_space_group_name_H-M "F M M M"
_symmetry_group_IT_number 69
_symmetry_cell_setting 'orthorhombic'
loop_
_space_group_symop_operation_xyz
x,y,z
-x,-y,z
x,-y,-z
-x,y,-z
-x,-y,-z
x,y,-z
-x,y,z
x,-y,z
x,1/2+y,1/2+z
-x,1/2-y,1/2+z
x,1/2-y,1/2-z
-x,1/2+y,1/2-z
-x,1/2-y,1/2-z
x,1/2+y,1/2-z
-x,1/2+y,1/2+z
x,1/2-y,1/2+z
1/2+x,y,1/2+z
1/2-x,-y,1/2+z
1/2+x,-y,1/2-z
1/2-x,y,1/2-z
1/2-x,-y,1/2-z
1/2+x,y,1/2-z
1/2-x,y,1/2+z
1/2+x,-y,1/2+z
1/2+x,1/2+y,z
1/2-x,1/2-y,z
1/2+x,1/2-y,-z
1/2-x,1/2+y,-z
1/2-x,1/2-y,-z
1/2+x,1/2+y,-z
1/2-x,1/2+y,z
1/2+x,1/2-y,z
loop_
_atom_site_type_symbol
_atom_site_label
_atom_site_fract_x
_atom_site_fract_y
_atom_site_fract_z
Si Si1 0.834412 0.268886 0.821002
Si Si2 0.911085 0.206269 0.925097
Si Si3 0.087982 0.556173 0.748260
Si Si4 0.151694 0.894808 0.879118
Si Si5 0.583610 0.943744 0.500000
Si Si6 0.199884 0.621796 0.185988
O O1 0.863344 0.250000 0.750000
O O2 0.750000 0.250000 0.833440
O O3 0.888099 0.251116 0.879445
O O4 0.839840 0.326863 0.827005
O O5 0.872141 0.159606 0.894160
O O6 0.000000 0.198965 0.923128
O O7 0.883701 0.214485 0.000000
O O8 0.111808 0.500000 0.739876
O O9 0.105999 0.585766 0.683028
O O10 0.136286 0.580135 0.806867
O O11 0.000000 0.560957 0.765566
O O12 0.242665 0.895128 0.870764
O O13 0.132101 0.930046 0.937725
O O14 0.500000 0.917995 0.500000
O O15 0.569526 0.000000 0.500000
O O16 0.250000 0.628660 0.250000
#
# Coordination Sequence:
#
# PCOD8284884 Si02
#       6
#    32  32  32  32  16  32
#     4  11  19  36  57  81 111 144 188 231 275 332
#     4  11  23  37  55  82 115 151 189 231 282 341
#     4  10  21  36  56  83 113 147 186 230 284 337
#     4  11  20  34  54  79 111 145 183 224 273 336
#     4  11  22  34  50  73 107 145 179 218 263 326
#     4  10  20  35  57  81 110 142 181 232 280 329
#
# _framework density 17.690007000000001
#
# number of rings (size 3 to 8) (size 9 to 14) (size 15 to 20)
#    0.000    1.364    4.545    3.273    0.000    6.909 
#    1.636    0.000    0.000    0.000    0.000    0.000 
#    0.000    2.182    0.000    0.000    0.000    0.000 
#
# Total GULP energy -545637.775320 kJ/mol
# GULP energy per Si atom -12400.858530 kJ/mol
# Density = 1.764974 g / cm^3
# Si number density = 17.690007 Si / 1000 Ang^3
#
#
#
# Elastic Constant Matrix: (Units=GPa)
#
#
# Indices 1 2 3 4 5 6 
#
# 1 90.6060 45.3069 62.9341 0.0000 0.0000 0.0000
# 2 45.3069 85.2142 49.0123 0.0000 0.0000 0.0000
# 3 62.9341 49.0123 99.3779 0.0000 0.0000 0.0000
# 4 0.0000 0.0000 0.0000 26.1912 0.0000 0.0000
# 5 0.0000 0.0000 0.0000 0.0000 29.0908 0.0000
# 6 0.0000 0.0000 0.0000 0.0000 0.0000 21.6391
#
#
#
# Elastic Compliance Matrix: (Units=1/GPa)
#
#
# Indices 1 2 3 4 5 6 
#
# 1 0.021090 -0.004930 -0.010925 0.000000 0.000000 0.000000
# 2 -0.004930 0.017535 -0.005526 0.000000 0.000000 0.000000
# 3 -0.010925 -0.005526 0.019706 0.000000 0.000000 0.000000
# 4 0.000000 0.000000 0.000000 0.038181 0.000000 0.000000
# 5 0.000000 0.000000 0.000000 0.000000 0.034375 0.000000
# 6 0.000000 0.000000 0.000000 0.000000 0.000000 0.046213
#
#
# Mechanical properties :
#
#
# Convention : Reuss Voigt Hill
#
# Bulk Modulus (GPa) = 64.22510 65.52275 64.87393
# Shear Modulus (GPa) = 22.21728 23.24720 22.73224
#
# Velocity S-wave (km/s) = 3.54774 3.62904 3.58862
# Velocity P-wave (km/s) = 7.29155 7.39458 7.34324
#
# Compressibility (1/GPa) = 0.01557024
#
# Stress axis : x y z
#
# Youngs Moduli (GPa) = 47.41587 57.03029 50.74520
#
# Poissons Ratio (x) = 0.28114 0.55437
# Poissons Ratio (y) = 0.23375 0.28042
# Poissons Ratio (z) = 0.51800 0.31515
#
# Static dielectric constant tensor:
#      x y z
#    x 3.479800 0.000000 0.000000 
#    y 0.000000 3.416360 0.000000 
#    z 0.000000 0.000000 3.417960 
# 
# 
# High freq. dielectric constant tensor:
#      x y z
#    x 1.679410 0.000000 0.000000 
#    y 0.000000 1.693750 0.000000 
#    z 0.000000 0.000000 1.669970 
# 
# From -- ./inp_files/23602.got.cif
#   From: 2010.03.12/outbox.cif.g09.slc.cpg/sg69_12_cif.got.tgz:23602.got - 2010.04.10 23:52:46.
