data_PCOD8284589
_publ_section_title
;
Structure prediction by ZEFSAII (Michael W. Deem and Ramdas Pophale) SiO2 
 PCOD8284589
Probable space group: F M M M
;
_chemical_formula_sum "Si O2"
_cell_formula_units_Z 144
_cell_length_a 8.760677
_cell_length_b 29.655559
_cell_length_c 30.653127
_cell_angle_alpha 90.000000
_cell_angle_beta 90.000000
_cell_angle_gamma 90.000000
_cell_volume 7963.767416
_symmetry_space_group_name_H-M "F M M M"
_symmetry_group_IT_number 69
_symmetry_cell_setting 'orthorhombic'
loop_
_space_group_symop_operation_xyz
x,y,z
-x,-y,z
x,-y,-z
-x,y,-z
-x,-y,-z
x,y,-z
-x,y,z
x,-y,z
x,1/2+y,1/2+z
-x,1/2-y,1/2+z
x,1/2-y,1/2-z
-x,1/2+y,1/2-z
-x,1/2-y,1/2-z
x,1/2+y,1/2-z
-x,1/2+y,1/2+z
x,1/2-y,1/2+z
1/2+x,y,1/2+z
1/2-x,-y,1/2+z
1/2+x,-y,1/2-z
1/2-x,y,1/2-z
1/2-x,-y,1/2-z
1/2+x,y,1/2-z
1/2-x,y,1/2+z
1/2+x,-y,1/2+z
1/2+x,1/2+y,z
1/2-x,1/2-y,z
1/2+x,1/2-y,-z
1/2-x,1/2+y,-z
1/2-x,1/2-y,-z
1/2+x,1/2+y,-z
1/2-x,1/2+y,z
1/2+x,1/2-y,z
loop_
_atom_site_type_symbol
_atom_site_label
_atom_site_fract_x
_atom_site_fract_y
_atom_site_fract_z
Si Si1 0.181209 0.201772 0.204403
Si Si2 0.820772 0.643248 0.376936
Si Si3 0.164245 0.947275 0.000000
Si Si4 0.679443 0.797388 0.950321
Si Si5 0.318521 0.450476 0.093292
O O1 0.250000 0.184502 0.250000
O O2 0.250000 0.250000 0.191526
O O3 0.233646 0.166420 0.167681
O O4 0.000000 0.205904 0.208471
O O5 0.738322 0.663750 0.418781
O O6 0.776371 0.589893 0.373438
O O7 0.000000 0.650154 0.383566
O O8 0.251916 0.936335 0.045547
O O9 0.000000 0.921801 0.000000
O O10 0.134038 0.000000 0.000000
O O11 0.500000 0.793007 0.945785
O O12 0.750000 0.750000 0.935367
O O13 0.728087 0.809225 0.000000
O O14 0.500000 0.453868 0.087723
O O15 0.256576 0.500000 0.108963
#
# Coordination Sequence:
#
# PCOD8284589 Si02
#       5
#    32  32  16  32  32
#     4  10  20  34  52  75  99 124 158 199 250 303
#     4  10  20  31  50  78 101 127 165 207 250 296
#     4   7  10  18  34  58  88 121 156 193 234 271
#     4  10  21  35  49  68  98 135 170 201 239 292
#     4   8  14  25  42  68 100 130 163 205 245 281
#
# _framework density 18.081893999999998
#
# number of rings (size 3 to 8) (size 9 to 14) (size 15 to 20)
#    0.000    2.778    0.000    4.000    1.556    4.889 
#    0.000    0.000    0.000    1.333    0.000    1.556 
#    0.000    0.000    0.000    0.000    0.000    0.889 
#
# Total GULP energy -446024.994078 kJ/mol
# GULP energy per Si atom -12389.583169 kJ/mol
# Density = 1.804074 g / cm^3
# Si number density = 18.081894 Si / 1000 Ang^3
#
#
#
# Elastic Constant Matrix: (Units=GPa)
#
#
# Indices 1 2 3 4 5 6 
#
# 1 41.3820 26.1881 27.8488 0.0000 0.0000 0.0000
# 2 26.1881 142.8911 85.6663 0.0000 0.0000 0.0000
# 3 27.8488 85.6663 112.0059 0.0000 0.0000 0.0000
# 4 0.0000 0.0000 0.0000 26.9785 0.0000 0.0000
# 5 0.0000 0.0000 0.0000 0.0000 19.9210 0.0000
# 6 0.0000 0.0000 0.0000 0.0000 0.0000 12.5478
#
#
#
# Elastic Compliance Matrix: (Units=1/GPa)
#
#
# Indices 1 2 3 4 5 6 
#
# 1 0.029283 -0.001850 -0.005866 0.000000 0.000000 0.000000
# 2 -0.001850 0.013042 -0.009515 0.000000 0.000000 0.000000
# 3 -0.005866 -0.009515 0.017664 0.000000 0.000000 0.000000
# 4 0.000000 0.000000 0.000000 0.037067 0.000000 0.000000
# 5 0.000000 0.000000 0.000000 0.000000 0.050198 0.000000
# 6 0.000000 0.000000 0.000000 0.000000 0.000000 0.079695
#
#
# Mechanical properties :
#
#
# Convention : Reuss Voigt Hill
#
# Bulk Modulus (GPa) = 39.17360 63.96506 51.56933
# Shear Modulus (GPa) = 18.52401 22.32785 20.42593
#
# Velocity S-wave (km/s) = 3.20418 3.51781 3.36465
# Velocity P-wave (km/s) = 5.94984 7.20777 6.60880
#
# Compressibility (1/GPa) = 0.02552740
#
# Stress axis : x y z
#
# Youngs Moduli (GPa) = 34.14893 76.67688 56.61283
#
# Poissons Ratio (x) = 0.14186 0.33208
# Poissons Ratio (y) = 0.06318 0.53866
# Poissons Ratio (z) = 0.20031 0.72956
#
# Static dielectric constant tensor:
#      x y z
#    x 3.023720 0.000000 0.000000 
#    y 0.000000 3.503850 0.000000 
#    z 0.000000 0.000000 3.459370 
# 
# 
# High freq. dielectric constant tensor:
#      x y z
#    x 1.668100 0.000000 0.000000 
#    y 0.000000 1.699710 0.000000 
#    z 0.000000 0.000000 1.685580 
# 
# From -- ./inp_files/44511.got.cif
#   From: 2010.03.12/outbox.cif.g09.slc.cpg/sg69_23_cif.got.tgz:44511.got - 2010.04.10 23:52:46.
