data_PCOD8284248
_publ_section_title
;
Structure prediction by ZEFSAII (Michael W. Deem and Ramdas Pophale) SiO2 
 PCOD8284248
Probable space group: F M M M
;
_chemical_formula_sum "Si O2"
_cell_formula_units_Z 192
_cell_length_a 18.090735
_cell_length_b 19.521304
_cell_length_c 31.542153
_cell_angle_alpha 90.000000
_cell_angle_beta 90.000000
_cell_angle_gamma 90.000000
_cell_volume 11139.260763
_symmetry_space_group_name_H-M "F M M M"
_symmetry_group_IT_number 69
_symmetry_cell_setting 'orthorhombic'
loop_
_space_group_symop_operation_xyz
x,y,z
-x,-y,z
x,-y,-z
-x,y,-z
-x,-y,-z
x,y,-z
-x,y,z
x,-y,z
x,1/2+y,1/2+z
-x,1/2-y,1/2+z
x,1/2-y,1/2-z
-x,1/2+y,1/2-z
-x,1/2-y,1/2-z
x,1/2+y,1/2-z
-x,1/2+y,1/2+z
x,1/2-y,1/2+z
1/2+x,y,1/2+z
1/2-x,-y,1/2+z
1/2+x,-y,1/2-z
1/2-x,y,1/2-z
1/2-x,-y,1/2-z
1/2+x,y,1/2-z
1/2-x,y,1/2+z
1/2+x,-y,1/2+z
1/2+x,1/2+y,z
1/2-x,1/2-y,z
1/2+x,1/2-y,-z
1/2-x,1/2+y,-z
1/2-x,1/2-y,-z
1/2+x,1/2+y,-z
1/2-x,1/2+y,z
1/2+x,1/2-y,z
loop_
_atom_site_type_symbol
_atom_site_label
_atom_site_fract_x
_atom_site_fract_y
_atom_site_fract_z
Si Si1 0.630385 0.856347 0.951802
Si Si2 0.774067 0.327419 0.400693
Si Si3 0.720080 0.080749 0.318478
Si Si4 0.000000 0.578868 0.097801
Si Si5 0.357255 0.919429 0.236610
Si Si6 0.416598 0.201477 0.451926
Si Si7 0.000000 0.082315 0.308039
O O1 0.711145 0.859186 0.930733
O O2 0.574639 0.905501 0.927345
O O3 0.593757 0.782395 0.950329
O O4 0.639198 0.881939 0.000000
O O5 0.750000 0.250000 0.388769
O O6 0.785522 0.373531 0.359807
O O7 0.853204 0.333094 0.423838
O O8 0.651870 0.097653 0.286619
O O9 0.791130 0.106813 0.292795
O O10 0.722703 0.000000 0.330505
O O11 0.000000 0.613883 0.144432
O O12 0.000000 0.500000 0.107484
O O13 0.431175 0.886689 0.217776
O O14 0.358161 0.000000 0.231444
O O15 0.407289 0.175100 0.500000
O O16 0.500000 0.183993 0.435507
O O17 0.000000 0.000000 0.307857
#
# Coordination Sequence:
#
# PCOD8284248 Si02
#       7
#    32  32  32  16  32  32  16
#     4  10  19  32  48  70 102 136 171 207 243 296
#     4  10  20  32  51  79 101 130 171 219 254 299
#     4   9  17  32  51  71  97 129 164 205 253 300
#     4  11  21  30  47  77 110 139 164 201 260 318
#     4   8  15  29  49  68  92 129 168 200 239 302
#     4   9  17  33  54  71  93 131 174 212 248 291
#     4   9  16  27  44  68  92 123 166 205 240 295
#
# _framework density 17.236332999999998
#
# number of rings (size 3 to 8) (size 9 to 14) (size 15 to 20)
#    0.000    2.667    0.833    2.750    0.000    4.667 
#    1.500    1.667    0.000    1.500    0.000    4.667 
#    0.000    0.000    0.000    0.000    0.000    0.000 
#
# Total GULP energy -594842.057865 kJ/mol
# GULP energy per Si atom -12392.542872 kJ/mol
# Density = 1.719710 g / cm^3
# Si number density = 17.236333 Si / 1000 Ang^3
#
#
#
# Elastic Constant Matrix: (Units=GPa)
#
#
# Indices 1 2 3 4 5 6 
#
# 1 140.2594 30.8251 87.6535 0.0000 0.0000 0.0000
# 2 30.8251 35.0106 43.0670 0.0000 0.0000 0.0000
# 3 87.6535 43.0670 153.6129 0.0000 0.0000 0.0000
# 4 0.0000 0.0000 0.0000 31.9053 0.0000 0.0000
# 5 0.0000 0.0000 0.0000 0.0000 23.4270 0.0000
# 6 0.0000 0.0000 0.0000 0.0000 0.0000 15.4320
#
#
#
# Elastic Compliance Matrix: (Units=1/GPa)
#
#
# Indices 1 2 3 4 5 6 
#
# 1 0.011294 -0.003078 -0.005582 0.000000 0.000000 0.000000
# 2 -0.003078 0.044438 -0.010702 0.000000 0.000000 0.000000
# 3 -0.005582 -0.010702 0.012695 0.000000 0.000000 0.000000
# 4 0.000000 0.000000 0.000000 0.031343 0.000000 0.000000
# 5 0.000000 0.000000 0.000000 0.000000 0.042686 0.000000
# 6 0.000000 0.000000 0.000000 0.000000 0.000000 0.064800
#
#
# Mechanical properties :
#
#
# Convention : Reuss Voigt Hill
#
# Bulk Modulus (GPa) = 33.66601 72.44157 53.05379
# Shear Modulus (GPa) = 19.54027 25.30867 22.42447
#
# Velocity S-wave (km/s) = 3.37065 3.83604 3.61085
# Velocity P-wave (km/s) = 5.89260 7.85748 6.94488
#
# Compressibility (1/GPa) = 0.02970355
#
# Stress axis : x y z
#
# Youngs Moduli (GPa) = 88.53976 22.50337 78.76853
#
# Poissons Ratio (x) = 0.06926 0.43967
# Poissons Ratio (y) = 0.27252 0.84301
# Poissons Ratio (z) = 0.49421 0.24084
#
# Static dielectric constant tensor:
#      x y z
#    x 3.784990 0.000000 0.000000 
#    y 0.000000 2.772020 0.000000 
#    z 0.000000 0.000000 3.343210 
# 
# 
# High freq. dielectric constant tensor:
#      x y z
#    x 1.676080 0.000000 0.000000 
#    y 0.000000 1.615430 0.000000 
#    z 0.000000 0.000000 1.674600 
# 
# From -- ./inp_files/27772.got.cif
#   From: 2010.03.12/outbox.cif.g09.slc.cpg/sg69_14_cif.got.tgz:27772.got - 2010.04.10 23:52:46.
