data_PCOD8284913
_publ_section_title
;
Structure prediction by ZEFSAII (Michael W. Deem and Ramdas Pophale) SiO2 
 PCOD8284913
Probable space group: F M M M
;
_chemical_formula_sum "Si O2"
_cell_formula_units_Z 160
_cell_length_a 29.871078
_cell_length_b 16.002189
_cell_length_c 16.678243
_cell_angle_alpha 90.000000
_cell_angle_beta 90.000000
_cell_angle_gamma 90.000000
_cell_volume 7972.244114
_symmetry_space_group_name_H-M "F M M M"
_symmetry_group_IT_number 69
_symmetry_cell_setting 'orthorhombic'
loop_
_space_group_symop_operation_xyz
x,y,z
-x,-y,z
x,-y,-z
-x,y,-z
-x,-y,-z
x,y,-z
-x,y,z
x,-y,z
x,1/2+y,1/2+z
-x,1/2-y,1/2+z
x,1/2-y,1/2-z
-x,1/2+y,1/2-z
-x,1/2-y,1/2-z
x,1/2+y,1/2-z
-x,1/2+y,1/2+z
x,1/2-y,1/2+z
1/2+x,y,1/2+z
1/2-x,-y,1/2+z
1/2+x,-y,1/2-z
1/2-x,y,1/2-z
1/2-x,-y,1/2-z
1/2+x,y,1/2-z
1/2-x,y,1/2+z
1/2+x,-y,1/2+z
1/2+x,1/2+y,z
1/2-x,1/2-y,z
1/2+x,1/2-y,-z
1/2-x,1/2+y,-z
1/2-x,1/2-y,-z
1/2+x,1/2+y,-z
1/2-x,1/2+y,z
1/2+x,1/2-y,z
loop_
_atom_site_type_symbol
_atom_site_label
_atom_site_fract_x
_atom_site_fract_y
_atom_site_fract_z
Si Si1 0.549431 0.904123 0.754523
Si Si2 0.261166 0.000000 0.092603
Si Si3 0.415066 0.341528 0.591627
Si Si4 0.377362 0.694696 0.173163
Si Si5 0.142215 0.000000 0.594163
Si Si6 0.772652 0.165850 0.835914
O O1 0.500000 0.891720 0.715868
O O2 0.548028 0.849897 0.838114
O O3 0.587154 0.880299 0.687831
O O4 0.557785 0.000000 0.778153
O O5 0.309263 0.000000 0.137074
O O6 0.235065 0.084175 0.112062
O O7 0.270274 0.000000 0.000000
O O8 0.433015 0.354660 0.500000
O O9 0.391001 0.250793 0.595846
O O10 0.381141 0.414294 0.619927
O O11 0.383905 0.750000 0.250000
O O12 0.326100 0.668247 0.167011
O O13 0.146587 0.000000 0.500000
O O14 0.750000 0.153287 0.750000
O O15 0.750000 0.250000 0.874197
#
# Coordination Sequence:
#
# PCOD8284913 Si02
#       6
#    32  16  32  32  16  32
#     4  10  22  38  60  87 115 149 192 240 291 344
#     4  11  25  37  55  85 120 160 196 240 301 357
#     4  10  20  35  59  86 115 149 186 234 292 347
#     4  10  21  37  59  84 117 155 193 236 287 340
#     4   9  18  33  52  80 114 148 181 225 289 348
#     4  11  22  38  60  87 117 154 202 248 288 340
#
# _framework density 20.069631000000001
#
# number of rings (size 3 to 8) (size 9 to 14) (size 15 to 20)
#    0.000    1.800    3.000    1.500    4.200    5.200 
#    0.000    1.000    0.000    0.000    0.000    1.400 
#    0.000    0.000    0.000    0.000    0.000    0.000 
#
# Total GULP energy -495529.024021 kJ/mol
# GULP energy per Si atom -12388.225601 kJ/mol
# Density = 2.002395 g / cm^3
# Si number density = 20.069631 Si / 1000 Ang^3
#
#
#
# Elastic Constant Matrix: (Units=GPa)
#
#
# Indices 1 2 3 4 5 6 
#
# 1 147.9778 50.8715 23.5163 0.0000 0.0000 0.0000
# 2 50.8715 105.0390 34.8980 0.0000 0.0000 0.0000
# 3 23.5163 34.8980 42.4981 0.0000 0.0000 0.0000
# 4 0.0000 0.0000 0.0000 6.8688 0.0000 0.0000
# 5 0.0000 0.0000 0.0000 0.0000 13.2213 0.0000
# 6 0.0000 0.0000 0.0000 0.0000 0.0000 23.9335
#
#
#
# Elastic Compliance Matrix: (Units=1/GPa)
#
#
# Indices 1 2 3 4 5 6 
#
# 1 0.008202 -0.003389 -0.001756 0.000000 0.000000 0.000000
# 2 -0.003389 0.014492 -0.010025 0.000000 0.000000 0.000000
# 3 -0.001756 -0.010025 0.032734 0.000000 0.000000 0.000000
# 4 0.000000 0.000000 0.000000 0.145586 0.000000 0.000000
# 5 0.000000 0.000000 0.000000 0.000000 0.075635 0.000000
# 6 0.000000 0.000000 0.000000 0.000000 0.000000 0.041782
#
#
# Mechanical properties :
#
#
# Convention : Reuss Voigt Hill
#
# Bulk Modulus (GPa) = 39.85845 57.12073 48.48959
# Shear Modulus (GPa) = 14.00030 21.21999 17.61015
#
# Velocity S-wave (km/s) = 2.64405 3.25517 2.96540
# Velocity P-wave (km/s) = 5.40597 6.53079 5.99482
#
# Compressibility (1/GPa) = 0.02508878
#
# Stress axis : x y z
#
# Youngs Moduli (GPa) = 121.92433 69.00170 30.54890
#
# Poissons Ratio (x) = 0.23384 0.05363
# Poissons Ratio (y) = 0.41320 0.30626
# Poissons Ratio (z) = 0.21405 0.69177
#
# Static dielectric constant tensor:
#      x y z
#    x 6.259610 0.000000 0.000000 
#    y 0.000000 4.235900 0.000000 
#    z 0.000000 0.000000 3.472600 
# 
# 
# High freq. dielectric constant tensor:
#      x y z
#    x 1.787250 0.000000 0.000000 
#    y 0.000000 1.788970 0.000000 
#    z 0.000000 0.000000 1.748300 
# 
# From -- ./inp_files/27485.got.cif
#   From: 2010.03.12/outbox.cif.g09.slc.cpg/sg69_14_cif.got.tgz:27485.got - 2010.04.10 23:52:46.
