data_PCOD8284174
_publ_section_title
;
Structure prediction by ZEFSAII (Michael W. Deem and Ramdas Pophale) SiO2 
 PCOD8284174
Probable space group: F M M M
;
_chemical_formula_sum "Si O2"
_cell_formula_units_Z 232
_cell_length_a 29.227664
_cell_length_b 23.100855
_cell_length_c 20.360870
_cell_angle_alpha 90.000000
_cell_angle_beta 90.000000
_cell_angle_gamma 90.000000
_cell_volume 13747.334221
_symmetry_space_group_name_H-M "F M M M"
_symmetry_group_IT_number 69
_symmetry_cell_setting 'orthorhombic'
loop_
_space_group_symop_operation_xyz
x,y,z
-x,-y,z
x,-y,-z
-x,y,-z
-x,-y,-z
x,y,-z
-x,y,z
x,-y,z
x,1/2+y,1/2+z
-x,1/2-y,1/2+z
x,1/2-y,1/2-z
-x,1/2+y,1/2-z
-x,1/2-y,1/2-z
x,1/2+y,1/2-z
-x,1/2+y,1/2+z
x,1/2-y,1/2+z
1/2+x,y,1/2+z
1/2-x,-y,1/2+z
1/2+x,-y,1/2-z
1/2-x,y,1/2-z
1/2-x,-y,1/2-z
1/2+x,y,1/2-z
1/2-x,y,1/2+z
1/2+x,-y,1/2+z
1/2+x,1/2+y,z
1/2-x,1/2-y,z
1/2+x,1/2-y,-z
1/2-x,1/2+y,-z
1/2-x,1/2-y,-z
1/2+x,1/2+y,-z
1/2-x,1/2+y,z
1/2+x,1/2-y,z
loop_
_atom_site_type_symbol
_atom_site_label
_atom_site_fract_x
_atom_site_fract_y
_atom_site_fract_z
Si Si1 0.448598 0.066719 0.304817
Si Si2 0.235702 0.656533 0.574001
Si Si3 0.361292 0.065742 0.226904
Si Si4 0.095121 0.120885 0.925680
Si Si5 0.850543 0.765406 0.074010
Si Si6 0.183156 0.175822 0.341264
Si Si7 0.180527 0.936697 0.131517
Si Si8 0.750000 0.750000 0.250000
O O1 0.500000 0.076626 0.278547
O O2 0.413589 0.083412 0.246082
O O3 0.442436 0.104465 0.371108
O O4 0.439631 0.000000 0.324595
O O5 0.232975 0.634225 0.500000
O O6 0.200763 0.709417 0.584406
O O7 0.287557 0.670522 0.591936
O O8 0.223342 0.604825 0.623113
O O9 0.339185 0.114841 0.180503
O O10 0.333026 0.066114 0.293204
O O11 0.359506 0.000000 0.195992
O O12 0.110470 0.186878 0.914141
O O13 0.139373 0.080770 0.916627
O O14 0.076064 0.112261 0.000000
O O15 0.857532 0.717634 0.131750
O O16 0.855418 0.740596 0.000000
O O17 0.216069 0.206721 0.288476
O O18 0.196841 0.000000 0.111370
#
# Coordination Sequence:
#
# PCOD8284174 Si02
#       8
#    32  32  32  32  32  32  32   8
#     4   9  18  33  52  73  98 127 160 198 244 299
#     4  10  19  31  45  66  95 126 165 208 240 275
#     4   9  20  35  51  69  95 131 163 202 256 299
#     4   9  17  28  45  70  98 125 159 196 235 284
#     4   9  18  33  49  66  93 131 167 199 242 288
#     4  12  21  32  48  68  97 127 172 212 241 281
#     4   9  17  30  44  62  93 132 165 192 235 290
#     4  12  24  28  44  80  98 128 176 212 240 264
#
# _framework density 16.876000000000001
#
# number of rings (size 3 to 8) (size 9 to 14) (size 15 to 20)
#    0.000    2.345    1.379    3.724    3.862    3.862 
#    0.000    2.414    0.000    2.897    0.000    0.000 
#    0.000    1.655    0.000   13.793    0.000    0.000 
#
# Total GULP energy -718643.423675 kJ/mol
# GULP energy per Si atom -12390.403856 kJ/mol
# Density = 1.683759 g / cm^3
# Si number density = 16.876000 Si / 1000 Ang^3
#
#
#
# Elastic Constant Matrix: (Units=GPa)
#
#
# Indices 1 2 3 4 5 6 
#
# 1 52.3215 28.1138 22.2113 0.0000 0.0000 0.0000
# 2 28.1138 102.7834 48.7488 0.0000 0.0000 0.0000
# 3 22.2113 48.7488 55.4364 0.0000 0.0000 0.0000
# 4 0.0000 0.0000 0.0000 20.7511 0.0000 0.0000
# 5 0.0000 0.0000 0.0000 0.0000 15.3174 0.0000
# 6 0.0000 0.0000 0.0000 0.0000 0.0000 16.2419
#
#
#
# Elastic Compliance Matrix: (Units=1/GPa)
#
#
# Indices 1 2 3 4 5 6 
#
# 1 0.023701 -0.003395 -0.006511 0.000000 0.000000 0.000000
# 2 -0.003395 0.017176 -0.013744 0.000000 0.000000 0.000000
# 3 -0.006511 -0.013744 0.032733 0.000000 0.000000 0.000000
# 4 0.000000 0.000000 0.000000 0.048190 0.000000 0.000000
# 5 0.000000 0.000000 0.000000 0.000000 0.065285 0.000000
# 6 0.000000 0.000000 0.000000 0.000000 0.000000 0.061569
#
#
# Mechanical properties :
#
#
# Convention : Reuss Voigt Hill
#
# Bulk Modulus (GPa) = 38.00671 45.40988 41.70829
# Shear Modulus (GPa) = 16.40827 17.89325 17.15076
#
# Velocity S-wave (km/s) = 3.12153 3.25972 3.19137
# Velocity P-wave (km/s) = 5.96339 6.41359 6.19258
#
# Compressibility (1/GPa) = 0.02631115
#
# Stress axis : x y z
#
# Youngs Moduli (GPa) = 42.19308 58.21937 30.54987
#
# Poissons Ratio (x) = 0.19764 0.19890
# Poissons Ratio (y) = 0.14324 0.41988
# Poissons Ratio (z) = 0.27471 0.80018
#
# Static dielectric constant tensor:
#      x y z
#    x 2.967530 0.000000 0.000000 
#    y 0.000000 3.355300 0.000000 
#    z 0.000000 0.000000 3.070950 
# 
# 
# High freq. dielectric constant tensor:
#      x y z
#    x 1.615580 0.000000 0.000000 
#    y 0.000000 1.651630 0.000000 
#    z 0.000000 0.000000 1.637170 
# 
# From -- ./inp_files/28096.got.cif
#   From: 2010.03.12/outbox.cif.g09.slc.cpg/sg69_15_cif.got.tgz:28096.got - 2010.04.10 23:52:46.
