data_PCOD8284012
_publ_section_title
;
Structure prediction by ZEFSAII (Michael W. Deem and Ramdas Pophale) SiO2 
 PCOD8284012
Probable space group: F M M M
;
_chemical_formula_sum "Si O2"
_cell_formula_units_Z 160
_cell_length_a 16.494396
_cell_length_b 28.734946
_cell_length_c 17.851061
_cell_angle_alpha 90.000000
_cell_angle_beta 90.000000
_cell_angle_gamma 90.000000
_cell_volume 8460.788451
_symmetry_space_group_name_H-M "F M M M"
_symmetry_group_IT_number 69
_symmetry_cell_setting 'orthorhombic'
loop_
_space_group_symop_operation_xyz
x,y,z
-x,-y,z
x,-y,-z
-x,y,-z
-x,-y,-z
x,y,-z
-x,y,z
x,-y,z
x,1/2+y,1/2+z
-x,1/2-y,1/2+z
x,1/2-y,1/2-z
-x,1/2+y,1/2-z
-x,1/2-y,1/2-z
x,1/2+y,1/2-z
-x,1/2+y,1/2+z
x,1/2-y,1/2+z
1/2+x,y,1/2+z
1/2-x,-y,1/2+z
1/2+x,-y,1/2-z
1/2-x,y,1/2-z
1/2-x,-y,1/2-z
1/2+x,y,1/2-z
1/2-x,y,1/2+z
1/2+x,-y,1/2+z
1/2+x,1/2+y,z
1/2-x,1/2-y,z
1/2+x,1/2-y,-z
1/2-x,1/2+y,-z
1/2-x,1/2-y,-z
1/2+x,1/2+y,-z
1/2-x,1/2+y,z
1/2+x,1/2-y,z
loop_
_atom_site_type_symbol
_atom_site_label
_atom_site_fract_x
_atom_site_fract_y
_atom_site_fract_z
Si Si1 0.811533 0.132995 0.911537
Si Si2 0.500000 0.124822 0.086493
Si Si3 0.831867 0.053960 0.202980
Si Si4 0.089234 0.721017 0.411150
Si Si5 0.500000 0.054000 0.214227
Si Si6 0.655311 0.315548 0.587798
O O1 0.828225 0.083948 0.872565
O O2 0.881005 0.169748 0.889852
O O3 0.730497 0.156538 0.877596
O O4 0.806842 0.123158 0.000000
O O5 0.500000 0.078043 0.133795
O O6 0.423944 0.155895 0.107998
O O7 0.500000 0.109802 0.000000
O O8 0.750000 0.064323 0.250000
O O9 0.916374 0.067737 0.243588
O O10 0.834060 0.000000 0.179479
O O11 0.085769 0.726803 0.500000
O O12 0.146417 0.762835 0.379810
O O13 0.000000 0.727044 0.376473
O O14 0.500000 0.000000 0.196506
O O15 0.671456 0.312235 0.500000
#
# Coordination Sequence:
#
# PCOD8284012 Si02
#       6
#    32  16  32  32  16  32
#     4  10  20  32  55  85 109 140 188 233 265 307
#     4  10  18  31  57  84 108 135 178 234 276 314
#     4  10  22  41  60  78 108 148 184 224 281 342
#     4   9  16  28  48  78 115 147 176 216 266 321
#     4  10  22  39  58  79 107 148 186 218 276 345
#     4   9  16  29  49  80 113 142 175 220 275 324
#
# _framework density 18.910767
#
# number of rings (size 3 to 8) (size 9 to 14) (size 15 to 20)
#    0.000    2.400    1.000    1.800    1.400    3.000 
#    0.000    0.000    0.000   18.600    0.000    0.000 
#    0.000    0.000    0.000    0.000    0.000    0.000 
#
# Total GULP energy -495729.446581 kJ/mol
# GULP energy per Si atom -12393.236165 kJ/mol
# Density = 1.886773 g / cm^3
# Si number density = 18.910767 Si / 1000 Ang^3
#
#
#
# Elastic Constant Matrix: (Units=GPa)
#
#
# Indices 1 2 3 4 5 6 
#
# 1 126.1155 45.1392 31.4156 0.0000 0.0000 0.0000
# 2 45.1392 122.6224 62.6490 0.0000 0.0000 0.0000
# 3 31.4156 62.6490 53.1791 0.0000 0.0000 0.0000
# 4 0.0000 0.0000 0.0000 19.5751 0.0000 0.0000
# 5 0.0000 0.0000 0.0000 0.0000 11.0280 0.0000
# 6 0.0000 0.0000 0.0000 0.0000 0.0000 13.2396
#
#
#
# Elastic Compliance Matrix: (Units=1/GPa)
#
#
# Indices 1 2 3 4 5 6 
#
# 1 0.009416 -0.001568 -0.003715 0.000000 0.000000 0.000000
# 2 -0.001568 0.020746 -0.023514 0.000000 0.000000 0.000000
# 3 -0.003715 -0.023514 0.048700 0.000000 0.000000 0.000000
# 4 0.000000 0.000000 0.000000 0.051085 0.000000 0.000000
# 5 0.000000 0.000000 0.000000 0.000000 0.090678 0.000000
# 6 0.000000 0.000000 0.000000 0.000000 0.000000 0.075531
#
#
# Mechanical properties :
#
#
# Convention : Reuss Voigt Hill
#
# Bulk Modulus (GPa) = 47.01943 64.48051 55.74997
# Shear Modulus (GPa) = 13.85658 19.61609 16.73633
#
# Velocity S-wave (km/s) = 2.70984 3.22420 2.97815
# Velocity P-wave (km/s) = 5.89142 6.93051 6.43198
#
# Compressibility (1/GPa) = 0.02126780
#
# Stress axis : x y z
#
# Youngs Moduli (GPa) = 106.20302 48.20281 20.53387
#
# Poissons Ratio (x) = 0.07558 0.07629
# Poissons Ratio (y) = 0.16653 0.48283
# Poissons Ratio (z) = 0.39457 1.13343
#
# Static dielectric constant tensor:
#      x y z
#    x 3.804430 0.000000 0.000000 
#    y 0.000000 3.507690 0.000000 
#    z 0.000000 0.000000 2.943860 
# 
# 
# High freq. dielectric constant tensor:
#      x y z
#    x 1.756860 0.000000 0.000000 
#    y 0.000000 1.744400 0.000000 
#    z 0.000000 0.000000 1.680270 
# 
# From -- ./inp_files/21836.got.cif
#   From: 2010.03.12/outbox.cif.g09.slc.cpg/sg69_11_cif.got.tgz:21836.got - 2010.04.10 23:52:46.
