data_PCOD8284361
_publ_section_title
;
Structure prediction by ZEFSAII (Michael W. Deem and Ramdas Pophale) SiO2 
 PCOD8284361
Probable space group: F M M M
;
_chemical_formula_sum "Si O2"
_cell_formula_units_Z 160
_cell_length_a 28.540146
_cell_length_b 17.347510
_cell_length_c 17.044527
_cell_angle_alpha 90.000000
_cell_angle_beta 90.000000
_cell_angle_gamma 90.000000
_cell_volume 8438.753297
_symmetry_space_group_name_H-M "F M M M"
_symmetry_group_IT_number 69
_symmetry_cell_setting 'orthorhombic'
loop_
_space_group_symop_operation_xyz
x,y,z
-x,-y,z
x,-y,-z
-x,y,-z
-x,-y,-z
x,y,-z
-x,y,z
x,-y,z
x,1/2+y,1/2+z
-x,1/2-y,1/2+z
x,1/2-y,1/2-z
-x,1/2+y,1/2-z
-x,1/2-y,1/2-z
x,1/2+y,1/2-z
-x,1/2+y,1/2+z
x,1/2-y,1/2+z
1/2+x,y,1/2+z
1/2-x,-y,1/2+z
1/2+x,-y,1/2-z
1/2-x,y,1/2-z
1/2-x,-y,1/2-z
1/2+x,y,1/2-z
1/2-x,y,1/2+z
1/2+x,-y,1/2+z
1/2+x,1/2+y,z
1/2-x,1/2-y,z
1/2+x,1/2-y,-z
1/2-x,1/2+y,-z
1/2-x,1/2-y,-z
1/2+x,1/2+y,-z
1/2-x,1/2+y,z
1/2+x,1/2-y,z
loop_
_atom_site_type_symbol
_atom_site_label
_atom_site_fract_x
_atom_site_fract_y
_atom_site_fract_z
Si Si1 0.053968 0.087802 0.773179
Si Si2 0.390415 0.345218 0.089292
Si Si3 0.799353 0.913304 0.148969
Si Si4 0.194613 0.413086 0.833958
Si Si5 0.116281 0.801304 0.677116
O O1 0.080413 0.096870 0.856045
O O2 0.074558 0.143788 0.706672
O O3 0.000000 0.109319 0.785567
O O4 0.060475 0.000000 0.744746
O O5 0.334654 0.358208 0.102058
O O6 0.403050 0.256890 0.111109
O O7 0.404552 0.361294 0.000000
O O8 0.810826 0.912171 0.240557
O O9 0.745755 0.885644 0.136843
O O10 0.805145 0.000000 0.116578
O O11 0.184622 0.500000 0.864481
O O12 0.156554 0.352236 0.864719
O O13 0.136049 0.750000 0.750000
#
# Coordination Sequence:
#
# PCOD8284361 Si02
#       5
#    32  32  32  32  32
#     4  10  21  38  61  85 104 132 182 236 276 314
#     4  11  23  36  51  79 119 153 175 210 273 339
#     4   9  17  30  50  77 105 137 180 225 265 308
#     4   9  16  30  53  76  99 134 185 232 263 300
#     4  10  19  33  53  79 108 142 179 222 269 319
#
# _framework density 18.960146999999999
#
# number of rings (size 3 to 8) (size 9 to 14) (size 15 to 20)
#    0.000    2.200    4.000    2.400    0.000    6.400 
#    0.000    3.000    0.000    3.600    0.000    1.400 
#    0.000    0.000    0.000    0.000    0.000    0.000 
#
# Total GULP energy -495903.093594 kJ/mol
# GULP energy per Si atom -12397.577340 kJ/mol
# Density = 1.891699 g / cm^3
# Si number density = 18.960147 Si / 1000 Ang^3
#
#
#
# Elastic Constant Matrix: (Units=GPa)
#
#
# Indices 1 2 3 4 5 6 
#
# 1 109.6351 47.5675 24.0963 0.0000 0.0000 0.0000
# 2 47.5675 95.8828 17.9834 0.0000 0.0000 0.0000
# 3 24.0963 17.9834 50.9453 0.0000 0.0000 0.0000
# 4 0.0000 0.0000 0.0000 13.4187 0.0000 0.0000
# 5 0.0000 0.0000 0.0000 0.0000 10.5916 0.0000
# 6 0.0000 0.0000 0.0000 0.0000 0.0000 21.8235
#
#
#
# Elastic Compliance Matrix: (Units=1/GPa)
#
#
# Indices 1 2 3 4 5 6 
#
# 1 0.012316 -0.005373 -0.003929 0.000000 0.000000 0.000000
# 2 -0.005373 0.013513 -0.002229 0.000000 0.000000 0.000000
# 3 -0.003929 -0.002229 0.022274 0.000000 0.000000 0.000000
# 4 0.000000 0.000000 0.000000 0.074523 0.000000 0.000000
# 5 0.000000 0.000000 0.000000 0.000000 0.094414 0.000000
# 6 0.000000 0.000000 0.000000 0.000000 0.000000 0.045822
#
#
# Mechanical properties :
#
#
# Convention : Reuss Voigt Hill
#
# Bulk Modulus (GPa) = 39.93278 48.41751 44.17515
# Shear Modulus (GPa) = 16.99122 20.28783 18.63952
#
# Velocity S-wave (km/s) = 2.99683 3.27467 3.13883
# Velocity P-wave (km/s) = 5.75168 6.31584 6.04035
#
# Compressibility (1/GPa) = 0.02504208
#
# Stress axis : x y z
#
# Youngs Moduli (GPa) = 81.19634 74.00292 44.89596
#
# Poissons Ratio (x) = 0.39762 0.17637
# Poissons Ratio (y) = 0.43627 0.10006
# Poissons Ratio (z) = 0.31898 0.16493
#
# Static dielectric constant tensor:
#      x y z
#    x 3.549520 0.000000 0.000000 
#    y 0.000000 3.759980 0.000000 
#    z 0.000000 0.000000 2.993190 
# 
# 
# High freq. dielectric constant tensor:
#      x y z
#    x 1.733660 0.000000 0.000000 
#    y 0.000000 1.747250 0.000000 
#    z 0.000000 0.000000 1.680350 
# 
# From -- ./inp_files/23167.got.cif
#   From: 2010.03.12/outbox.cif.g09.slc.cpg/sg69_12_cif.got.tgz:23167.got - 2010.04.10 23:52:46.
