data_PCOD8284274
_publ_section_title
;
Structure prediction by ZEFSAII (Michael W. Deem and Ramdas Pophale) SiO2 
 PCOD8284274
Probable space group: F M M M
;
_chemical_formula_sum "Si O2"
_cell_formula_units_Z 208
_cell_length_a 28.554774
_cell_length_b 21.948562
_cell_length_c 18.068931
_cell_angle_alpha 90.000000
_cell_angle_beta 90.000000
_cell_angle_gamma 90.000000
_cell_volume 11324.453651
_symmetry_space_group_name_H-M "F M M M"
_symmetry_group_IT_number 69
_symmetry_cell_setting 'orthorhombic'
loop_
_space_group_symop_operation_xyz
x,y,z
-x,-y,z
x,-y,-z
-x,y,-z
-x,-y,-z
x,y,-z
-x,y,z
x,-y,z
x,1/2+y,1/2+z
-x,1/2-y,1/2+z
x,1/2-y,1/2-z
-x,1/2+y,1/2-z
-x,1/2-y,1/2-z
x,1/2+y,1/2-z
-x,1/2+y,1/2+z
x,1/2-y,1/2+z
1/2+x,y,1/2+z
1/2-x,-y,1/2+z
1/2+x,-y,1/2-z
1/2-x,y,1/2-z
1/2-x,-y,1/2-z
1/2+x,y,1/2-z
1/2-x,y,1/2+z
1/2+x,-y,1/2+z
1/2+x,1/2+y,z
1/2-x,1/2-y,z
1/2+x,1/2-y,-z
1/2-x,1/2+y,-z
1/2-x,1/2-y,-z
1/2+x,1/2+y,-z
1/2-x,1/2+y,z
1/2+x,1/2-y,z
loop_
_atom_site_type_symbol
_atom_site_label
_atom_site_fract_x
_atom_site_fract_y
_atom_site_fract_z
Si Si1 0.712789 0.200831 0.587071
Si Si2 0.121096 0.268746 0.669891
Si Si3 0.052820 0.933154 0.677477
Si Si4 0.185248 0.568276 0.586509
Si Si5 0.945321 0.680158 0.084330
Si Si6 0.591830 0.402006 0.829066
Si Si7 0.000000 0.570571 0.419641
O O1 0.716260 0.205146 0.500000
O O2 0.750000 0.250000 0.621388
O O3 0.662837 0.225215 0.612036
O O4 0.717678 0.127771 0.610045
O O5 0.141144 0.250000 0.750000
O O6 0.083094 0.222932 0.638595
O O7 0.094119 0.330695 0.681251
O O8 0.066049 0.888070 0.611097
O O9 0.087325 0.930334 0.747561
O O10 0.000000 0.919923 0.706150
O O11 0.056933 0.000000 0.642156
O O12 0.173048 0.575347 0.500000
O O13 0.208200 0.500000 0.600524
O O14 0.137178 0.569590 0.631883
O O15 0.000000 0.696072 0.091139
O O16 0.928110 0.687022 0.000000
O O17 0.546468 0.412647 0.877103
O O18 0.000000 0.500000 0.432997
O O19 0.000000 0.603830 0.500000
#
# Coordination Sequence:
#
# PCOD8284274 Si02
#       7
#    32  32  32  32  32  32  16
#     4   9  19  36  58  83 109 142 179 221 272 328
#     4  11  22  36  55  80 107 141 181 226 274 328
#     4  10  19  32  51  72  97 138 188 233 275 318
#     4   9  17  30  50  78 110 142 179 219 263 324
#     4  10  22  37  53  75 106 143 183 231 279 326
#     4  11  20  31  48  73 108 145 186 223 267 324
#     4  11  22  32  45  72 111 151 187 224 268 318
#
# _framework density 18.367332000000001
#
# number of rings (size 3 to 8) (size 9 to 14) (size 15 to 20)
#    0.000    1.923    2.308    2.308    1.077    4.000 
#    0.000    1.538    0.000    0.923    0.000    4.308 
#    0.000    0.000    0.000    0.000    0.000    0.000 
#
# Total GULP energy -644317.530683 kJ/mol
# GULP energy per Si atom -12390.721744 kJ/mol
# Density = 1.832553 g / cm^3
# Si number density = 18.367332 Si / 1000 Ang^3
#
#
#
# Elastic Constant Matrix: (Units=GPa)
#
#
# Indices 1 2 3 4 5 6 
#
# 1 43.1959 37.9164 7.7472 0.0000 0.0000 0.0000
# 2 37.9164 146.8514 18.1222 0.0000 0.0000 0.0000
# 3 7.7472 18.1222 33.4149 0.0000 0.0000 0.0000
# 4 0.0000 0.0000 0.0000 24.4549 0.0000 0.0000
# 5 0.0000 0.0000 0.0000 0.0000 19.0842 0.0000
# 6 0.0000 0.0000 0.0000 0.0000 0.0000 50.5554
#
#
#
# Elastic Compliance Matrix: (Units=1/GPa)
#
#
# Indices 1 2 3 4 5 6 
#
# 1 0.030208 -0.007433 -0.002973 0.000000 0.000000 0.000000
# 2 -0.007433 0.009127 -0.003227 0.000000 0.000000 0.000000
# 3 -0.002973 -0.003227 0.032366 0.000000 0.000000 0.000000
# 4 0.000000 0.000000 0.000000 0.040892 0.000000 0.000000
# 5 0.000000 0.000000 0.000000 0.000000 0.052399 0.000000
# 6 0.000000 0.000000 0.000000 0.000000 0.000000 0.019780
#
#
# Mechanical properties :
#
#
# Convention : Reuss Voigt Hill
#
# Bulk Modulus (GPa) = 22.50392 39.00376 30.75384
# Shear Modulus (GPa) = 22.04121 29.46398 25.75259
#
# Velocity S-wave (km/s) = 3.46789 4.00953 3.74851
# Velocity P-wave (km/s) = 5.32107 6.53579 5.95946
#
# Compressibility (1/GPa) = 0.04443670
#
# Stress axis : x y z
#
# Youngs Moduli (GPa) = 33.10408 109.56660 30.89674
#
# Poissons Ratio (x) = 0.81437 0.09184
# Poissons Ratio (y) = 0.24605 0.09969
# Poissons Ratio (z) = 0.09841 0.35353
#
# Static dielectric constant tensor:
#      x y z
#    x 2.449030 0.000000 0.000000 
#    y 0.000000 3.890950 0.000000 
#    z 0.000000 0.000000 3.296010 
# 
# 
# High freq. dielectric constant tensor:
#      x y z
#    x 1.675930 0.000000 0.000000 
#    y 0.000000 1.734590 0.000000 
#    z 0.000000 0.000000 1.710370 
# 
# From -- ./inp_files/27030.got.cif
#   From: 2010.03.12/outbox.cif.g09.slc.cpg/sg69_14_cif.got.tgz:27030.got - 2010.04.10 23:52:46.
