data_PCOD8284912
_publ_section_title
;
Structure prediction by ZEFSAII (Michael W. Deem and Ramdas Pophale) SiO2 
 PCOD8284912
Probable space group: F M M M
;
_chemical_formula_sum "Si O2"
_cell_formula_units_Z 176
_cell_length_a 21.590444
_cell_length_b 25.884471
_cell_length_c 14.310226
_cell_angle_alpha 90.000000
_cell_angle_beta 90.000000
_cell_angle_gamma 90.000000
_cell_volume 7997.373143
_symmetry_space_group_name_H-M "F M M M"
_symmetry_group_IT_number 69
_symmetry_cell_setting 'orthorhombic'
loop_
_space_group_symop_operation_xyz
x,y,z
-x,-y,z
x,-y,-z
-x,y,-z
-x,-y,-z
x,y,-z
-x,y,z
x,-y,z
x,1/2+y,1/2+z
-x,1/2-y,1/2+z
x,1/2-y,1/2-z
-x,1/2+y,1/2-z
-x,1/2-y,1/2-z
x,1/2+y,1/2-z
-x,1/2+y,1/2+z
x,1/2-y,1/2+z
1/2+x,y,1/2+z
1/2-x,-y,1/2+z
1/2+x,-y,1/2-z
1/2-x,y,1/2-z
1/2-x,-y,1/2-z
1/2+x,y,1/2-z
1/2-x,y,1/2+z
1/2+x,-y,1/2+z
1/2+x,1/2+y,z
1/2-x,1/2-y,z
1/2+x,1/2-y,-z
1/2-x,1/2+y,-z
1/2-x,1/2-y,-z
1/2+x,1/2+y,-z
1/2-x,1/2+y,z
1/2+x,1/2-y,z
loop_
_atom_site_type_symbol
_atom_site_label
_atom_site_fract_x
_atom_site_fract_y
_atom_site_fract_z
Si Si1 0.430370 0.294825 0.110158
Si Si2 0.889236 0.101184 0.201482
Si Si3 0.278309 0.940217 0.605732
Si Si4 0.653239 0.387068 0.395211
Si Si5 0.930605 0.500000 0.600922
Si Si6 0.314331 0.729553 0.607744
O O1 0.500000 0.273373 0.132802
O O2 0.423162 0.349788 0.159100
O O3 0.376829 0.256260 0.149846
O O4 0.423190 0.302864 0.000000
O O5 0.816431 0.098509 0.172917
O O6 0.897201 0.102631 0.314497
O O7 0.919176 0.049991 0.162160
O O8 0.298171 0.927440 0.500000
O O9 0.205599 0.930534 0.616997
O O10 0.293193 0.000000 0.631700
O O11 0.623642 0.389803 0.500000
O O12 0.683374 0.331383 0.377139
O O13 0.893646 0.500000 0.500000
O O14 0.000000 0.500000 0.570562
O O15 0.312892 0.744971 0.500000
O O16 0.250000 0.750000 0.654580
#
# Coordination Sequence:
#
# PCOD8284912 Si02
#       6
#    32  32  32  32  16  32
#     4  10  21  38  63  94 125 158 203 264 330 388
#     4  12  22  36  61  89 122 162 203 251 314 382
#     4  10  20  35  58  89 124 160 201 257 318 375
#     4  10  23  39  56  86 126 168 210 254 303 364
#     4  11  24  42  64  89 117 147 190 254 322 385
#     4   9  18  37  63  90 125 168 212 258 313 374
#
# _framework density 22.007225999999999
#
# number of rings (size 3 to 8) (size 9 to 14) (size 15 to 20)
#    0.000    1.727    0.909    3.818    1.273    5.818 
#    0.000    3.636    0.000    4.909    0.000    0.000 
#    0.000    0.000    0.000    0.000    0.000    0.000 
#
# Total GULP energy -545342.932169 kJ/mol
# GULP energy per Si atom -12394.157549 kJ/mol
# Density = 2.195714 g / cm^3
# Si number density = 22.007226 Si / 1000 Ang^3
#
#
#
# Elastic Constant Matrix: (Units=GPa)
#
#
# Indices 1 2 3 4 5 6 
#
# 1 113.8969 32.5518 34.9064 0.0000 0.0000 0.0000
# 2 32.5518 73.1184 32.3512 0.0000 0.0000 0.0000
# 3 34.9064 32.3512 118.6012 0.0000 0.0000 0.0000
# 4 0.0000 0.0000 0.0000 26.7566 0.0000 0.0000
# 5 0.0000 0.0000 0.0000 0.0000 13.2211 0.0000
# 6 0.0000 0.0000 0.0000 0.0000 0.0000 23.1461
#
#
#
# Elastic Compliance Matrix: (Units=1/GPa)
#
#
# Indices 1 2 3 4 5 6 
#
# 1 0.010485 -0.003756 -0.002061 0.000000 0.000000 0.000000
# 2 -0.003756 0.016899 -0.003504 0.000000 0.000000 0.000000
# 3 -0.002061 -0.003504 0.009994 0.000000 0.000000 0.000000
# 4 0.000000 0.000000 0.000000 0.037374 0.000000 0.000000
# 5 0.000000 0.000000 0.000000 0.000000 0.075637 0.000000
# 6 0.000000 0.000000 0.000000 0.000000 0.000000 0.043204
#
#
# Mechanical properties :
#
#
# Convention : Reuss Voigt Hill
#
# Bulk Modulus (GPa) = 53.37510 56.13726 54.75618
# Shear Modulus (GPa) = 22.88531 26.34522 24.61526
#
# Velocity S-wave (km/s) = 3.22825 3.46369 3.34804
# Velocity P-wave (km/s) = 6.18074 6.44672 6.31513
#
# Compressibility (1/GPa) = 0.01873533
#
# Stress axis : x y z
#
# Youngs Moduli (GPa) = 95.37374 59.17538 100.05823
#
# Poissons Ratio (x) = 0.22225 0.20627
# Poissons Ratio (y) = 0.35820 0.35062
# Poissons Ratio (z) = 0.19661 0.20736
#
# Static dielectric constant tensor:
#      x y z
#    x 4.092580 0.000000 0.000000 
#    y 0.000000 3.739850 0.000000 
#    z 0.000000 0.000000 4.047670 
# 
# 
# High freq. dielectric constant tensor:
#      x y z
#    x 1.848790 0.000000 0.000000 
#    y 0.000000 1.862890 0.000000 
#    z 0.000000 0.000000 1.867040 
# 
# From -- ./inp_files/17857.got.cif
#   From: 2010.03.12/outbox.cif.g09.slc.cpg/sg69_9_cif.got.tgz:17857.got - 2010.04.10 23:52:46.
