data_PCOD8284881
_publ_section_title
;
Structure prediction by ZEFSAII (Michael W. Deem and Ramdas Pophale) SiO2 
 PCOD8284881
Probable space group: F M M M
;
_chemical_formula_sum "Si O2"
_cell_formula_units_Z 208
_cell_length_a 18.431300
_cell_length_b 20.460387
_cell_length_c 28.464019
_cell_angle_alpha 90.000000
_cell_angle_beta 90.000000
_cell_angle_gamma 90.000000
_cell_volume 10734.109781
_symmetry_space_group_name_H-M "F M M M"
_symmetry_group_IT_number 69
_symmetry_cell_setting 'orthorhombic'
loop_
_space_group_symop_operation_xyz
x,y,z
-x,-y,z
x,-y,-z
-x,y,-z
-x,-y,-z
x,y,-z
-x,y,z
x,-y,z
x,1/2+y,1/2+z
-x,1/2-y,1/2+z
x,1/2-y,1/2-z
-x,1/2+y,1/2-z
-x,1/2-y,1/2-z
x,1/2+y,1/2-z
-x,1/2+y,1/2+z
x,1/2-y,1/2+z
1/2+x,y,1/2+z
1/2-x,-y,1/2+z
1/2+x,-y,1/2-z
1/2-x,y,1/2-z
1/2-x,-y,1/2-z
1/2+x,y,1/2-z
1/2-x,y,1/2+z
1/2+x,-y,1/2+z
1/2+x,1/2+y,z
1/2-x,1/2-y,z
1/2+x,1/2-y,-z
1/2-x,1/2+y,-z
1/2-x,1/2-y,-z
1/2+x,1/2+y,-z
1/2-x,1/2+y,z
1/2+x,1/2-y,z
loop_
_atom_site_type_symbol
_atom_site_label
_atom_site_fract_x
_atom_site_fract_y
_atom_site_fract_z
Si Si1 0.583159 0.744423 0.446650
Si Si2 0.332112 0.125920 0.445142
Si Si3 0.228553 0.574818 0.877445
Si Si4 0.418246 0.138428 0.867306
Si Si5 0.684880 0.073060 0.714367
Si Si6 0.919212 0.000000 0.055897
Si Si7 0.916944 0.678695 0.761518
O O1 0.602045 0.721356 0.500000
O O2 0.500000 0.767182 0.444119
O O3 0.630776 0.806242 0.431556
O O4 0.598825 0.687488 0.409816
O O5 0.319019 0.120268 0.500000
O O6 0.253601 0.120764 0.420547
O O7 0.380091 0.065492 0.425815
O O8 0.241897 0.500000 0.890362
O O9 0.142511 0.582367 0.868563
O O10 0.279174 0.596715 0.834122
O O11 0.500000 0.109139 0.872892
O O12 0.410330 0.173222 0.817423
O O13 0.750000 0.070092 0.750000
O O14 0.624683 0.123342 0.732312
O O15 0.650427 0.000000 0.709894
O O16 0.000000 0.000000 0.076995
O O17 0.921654 0.000000 0.000000
O O18 0.884401 0.750000 0.750000
O O19 0.000000 0.673495 0.744867
#
# Coordination Sequence:
#
# PCOD8284881 Si02
#       7
#    32  32  32  32  32  16  32
#     4   9  19  37  59  84 117 153 191 236 284 342
#     4  10  20  35  56  84 118 156 190 232 288 342
#     4  11  23  39  59  85 118 152 191 242 291 340
#     4  10  22  40  61  85 111 149 197 240 290 346
#     4  10  21  40  61  84 116 155 195 237 286 345
#     4   9  16  30  54  82 110 149 197 231 271 339
#     4  10  22  40  61  88 119 150 190 244 294 341
#
# _framework density 19.377479999999998
#
# number of rings (size 3 to 8) (size 9 to 14) (size 15 to 20)
#    0.000    2.077    2.308    0.462    2.154    4.000 
#    0.000    3.846    0.000    0.000    0.000    3.231 
#    0.000    0.000    0.000    0.000    0.000    0.000 
#
# Total GULP energy -644651.024755 kJ/mol
# GULP energy per Si atom -12397.135091 kJ/mol
# Density = 1.933338 g / cm^3
# Si number density = 19.377480 Si / 1000 Ang^3
#
#
#
# Elastic Constant Matrix: (Units=GPa)
#
#
# Indices 1 2 3 4 5 6 
#
# 1 101.8741 48.7015 43.4984 0.0000 0.0000 0.0000
# 2 48.7015 85.8368 42.2238 0.0000 0.0000 0.0000
# 3 43.4984 42.2238 75.6415 0.0000 0.0000 0.0000
# 4 0.0000 0.0000 0.0000 26.4713 0.0000 0.0000
# 5 0.0000 0.0000 0.0000 0.0000 30.8701 0.0000
# 6 0.0000 0.0000 0.0000 0.0000 0.0000 34.8289
#
#
#
# Elastic Compliance Matrix: (Units=1/GPa)
#
#
# Indices 1 2 3 4 5 6 
#
# 1 0.014863 -0.005829 -0.005293 0.000000 0.000000 0.000000
# 2 -0.005829 0.018346 -0.006889 0.000000 0.000000 0.000000
# 3 -0.005293 -0.006889 0.020110 0.000000 0.000000 0.000000
# 4 0.000000 0.000000 0.000000 0.037777 0.000000 0.000000
# 5 0.000000 0.000000 0.000000 0.000000 0.032394 0.000000
# 6 0.000000 0.000000 0.000000 0.000000 0.000000 0.028712
#
#
# Mechanical properties :
#
#
# Convention : Reuss Voigt Hill
#
# Bulk Modulus (GPa) = 57.81612 59.13331 58.47471
# Shear Modulus (GPa) = 25.77480 27.02929 26.40205
#
# Velocity S-wave (km/s) = 3.65107 3.73886 3.69523
# Velocity P-wave (km/s) = 6.90473 7.01581 6.96049
#
# Compressibility (1/GPa) = 0.01729621
#
# Stress axis : x y z
#
# Youngs Moduli (GPa) = 67.28257 54.50807 49.72761
#
# Poissons Ratio (x) = 0.31773 0.26322
# Poissons Ratio (y) = 0.39219 0.34257
# Poissons Ratio (z) = 0.35614 0.37550
#
# Static dielectric constant tensor:
#      x y z
#    x 3.600380 0.000000 0.000000 
#    y 0.000000 3.496860 0.000000 
#    z 0.000000 0.000000 4.008010 
# 
# 
# High freq. dielectric constant tensor:
#      x y z
#    x 1.754830 0.000000 0.000000 
#    y 0.000000 1.744180 0.000000 
#    z 0.000000 0.000000 1.758790 
# 
# From -- ./inp_files/42036.got.cif
#   From: 2010.03.12/outbox.cif.g09.slc.cpg/sg69_22_cif.got.tgz:42036.got - 2010.04.10 23:52:46.
