data_PCOD8284363
_publ_section_title
;
Structure prediction by ZEFSAII (Michael W. Deem and Ramdas Pophale) SiO2 
 PCOD8284363
Probable space group: F M M M
;
_chemical_formula_sum "Si O2"
_cell_formula_units_Z 208
_cell_length_a 25.588712
_cell_length_b 27.921351
_cell_length_c 16.577372
_cell_angle_alpha 90.000000
_cell_angle_beta 90.000000
_cell_angle_gamma 90.000000
_cell_volume 11844.058337
_symmetry_space_group_name_H-M "F M M M"
_symmetry_group_IT_number 69
_symmetry_cell_setting 'orthorhombic'
loop_
_space_group_symop_operation_xyz
x,y,z
-x,-y,z
x,-y,-z
-x,y,-z
-x,-y,-z
x,y,-z
-x,y,z
x,-y,z
x,1/2+y,1/2+z
-x,1/2-y,1/2+z
x,1/2-y,1/2-z
-x,1/2+y,1/2-z
-x,1/2-y,1/2-z
x,1/2+y,1/2-z
-x,1/2+y,1/2+z
x,1/2-y,1/2+z
1/2+x,y,1/2+z
1/2-x,-y,1/2+z
1/2+x,-y,1/2-z
1/2-x,y,1/2-z
1/2-x,-y,1/2-z
1/2+x,y,1/2-z
1/2-x,y,1/2+z
1/2+x,-y,1/2+z
1/2+x,1/2+y,z
1/2-x,1/2-y,z
1/2+x,1/2-y,-z
1/2-x,1/2+y,-z
1/2-x,1/2-y,-z
1/2+x,1/2+y,-z
1/2-x,1/2+y,z
1/2+x,1/2-y,z
loop_
_atom_site_type_symbol
_atom_site_label
_atom_site_fract_x
_atom_site_fract_y
_atom_site_fract_z
Si Si1 0.439949 0.946363 0.187561
Si Si2 0.227896 0.801593 0.413584
Si Si3 0.134998 0.800328 0.291112
Si Si4 0.558741 0.556879 0.000000
Si Si5 0.938844 0.854433 0.408511
Si Si6 0.203113 0.867216 0.188310
Si Si7 0.375032 0.444506 0.847763
O O1 0.500000 0.940813 0.214502
O O2 0.425678 0.909132 0.116772
O O3 0.405396 0.935294 0.265071
O O4 0.429094 0.000000 0.154524
O O5 0.206730 0.821270 0.500000
O O6 0.250000 0.750000 0.428530
O O7 0.183693 0.794280 0.348786
O O8 0.273404 0.836960 0.384780
O O9 0.119599 0.750000 0.250000
O O10 0.086570 0.818242 0.344486
O O11 0.153374 0.838728 0.224808
O O12 0.589242 0.575036 0.079214
O O13 0.555021 0.500000 0.000000
O O14 0.500000 0.578572 0.000000
O O15 0.918018 0.846625 0.500000
O O16 0.000000 0.844301 0.404962
O O17 0.250000 0.878790 0.250000
O O18 0.180101 0.916759 0.154075
O O19 0.361479 0.500000 0.860590
#
# Coordination Sequence:
#
# PCOD8284363 Si02
#       7
#    32  32  32  16  32  32  32
#     4   9  17  31  53  79 106 138 181 229 273 321
#     4  10  20  34  55  81 104 130 171 224 272 309
#     4  11  20  36  56  78 105 138 176 223 272 320
#     4   9  18  32  54  82 111 144 184 228 266 315
#     4  10  21  36  55  80 109 142 181 222 274 337
#     4  10  21  34  53  79 105 137 178 225 267 319
#     4  10  19  33  53  79 111 147 182 217 270 330
#
# _framework density 17.561547999999998
#
# number of rings (size 3 to 8) (size 9 to 14) (size 15 to 20)
#    0.000    2.077    3.077    0.923    1.077    2.769 
#    0.000    1.538    0.000    0.000    0.000    0.000 
#    0.000    0.000    0.000    0.000    0.000    0.000 
#
# Total GULP energy -644615.836108 kJ/mol
# GULP energy per Si atom -12396.458387 kJ/mol
# Density = 1.752158 g / cm^3
# Si number density = 17.561548 Si / 1000 Ang^3
#
#
#
# Elastic Constant Matrix: (Units=GPa)
#
#
# Indices 1 2 3 4 5 6 
#
# 1 71.3430 52.7193 36.6114 0.0000 0.0000 0.0000
# 2 52.7193 98.1127 51.1800 0.0000 0.0000 0.0000
# 3 36.6114 51.1800 100.5509 0.0000 0.0000 0.0000
# 4 0.0000 0.0000 0.0000 23.4868 0.0000 0.0000
# 5 0.0000 0.0000 0.0000 0.0000 41.4478 0.0000
# 6 0.0000 0.0000 0.0000 0.0000 0.0000 31.0556
#
#
#
# Elastic Compliance Matrix: (Units=1/GPa)
#
#
# Indices 1 2 3 4 5 6 
#
# 1 0.023871 -0.011291 -0.002945 0.000000 0.000000 0.000000
# 2 -0.011291 0.019217 -0.005670 0.000000 0.000000 0.000000
# 3 -0.002945 -0.005670 0.013904 0.000000 0.000000 0.000000
# 4 0.000000 0.000000 0.000000 0.042577 0.000000 0.000000
# 5 0.000000 0.000000 0.000000 0.000000 0.024127 0.000000
# 6 0.000000 0.000000 0.000000 0.000000 0.000000 0.032200
#
#
# Mechanical properties :
#
#
# Convention : Reuss Voigt Hill
#
# Bulk Modulus (GPa) = 58.20634 61.22533 59.71584
# Shear Modulus (GPa) = 24.82190 27.83112 26.32651
#
# Velocity S-wave (km/s) = 3.76363 3.98524 3.87602
# Velocity P-wave (km/s) = 7.21822 7.49101 7.35588
#
# Compressibility (1/GPa) = 0.01718026
#
# Stress axis : x y z
#
# Youngs Moduli (GPa) = 41.89120 52.03661 71.92352
#
# Poissons Ratio (x) = 0.58753 0.21180
# Poissons Ratio (y) = 0.47298 0.40784
# Poissons Ratio (z) = 0.12336 0.29507
#
# Static dielectric constant tensor:
#      x y z
#    x 3.178280 0.000000 0.000000 
#    y 0.000000 3.726970 0.000000 
#    z 0.000000 0.000000 3.553710 
# 
# 
# High freq. dielectric constant tensor:
#      x y z
#    x 1.670920 0.000000 0.000000 
#    y 0.000000 1.668300 0.000000 
#    z 0.000000 0.000000 1.686600 
# 
# From -- ./inp_files/25197.got.cif
#   From: 2010.03.12/outbox.cif.g09.slc.cpg/sg69_13_cif.got.tgz:25197.got - 2010.04.10 23:52:46.
