data_PCOD8284729
_publ_section_title
;
Structure prediction by ZEFSAII (Michael W. Deem and Ramdas Pophale) SiO2 
 PCOD8284729
Probable space group: F M M M
;
_chemical_formula_sum "Si O2"
_cell_formula_units_Z 144
_cell_length_a 32.104504
_cell_length_b 8.825813
_cell_length_c 26.853345
_cell_angle_alpha 90.000000
_cell_angle_beta 90.000000
_cell_angle_gamma 90.000000
_cell_volume 7608.850964
_symmetry_space_group_name_H-M "F M M M"
_symmetry_group_IT_number 69
_symmetry_cell_setting 'orthorhombic'
loop_
_space_group_symop_operation_xyz
x,y,z
-x,-y,z
x,-y,-z
-x,y,-z
-x,-y,-z
x,y,-z
-x,y,z
x,-y,z
x,1/2+y,1/2+z
-x,1/2-y,1/2+z
x,1/2-y,1/2-z
-x,1/2+y,1/2-z
-x,1/2-y,1/2-z
x,1/2+y,1/2-z
-x,1/2+y,1/2+z
x,1/2-y,1/2+z
1/2+x,y,1/2+z
1/2-x,-y,1/2+z
1/2+x,-y,1/2-z
1/2-x,y,1/2-z
1/2-x,-y,1/2-z
1/2+x,y,1/2-z
1/2-x,y,1/2+z
1/2+x,-y,1/2+z
1/2+x,1/2+y,z
1/2-x,1/2-y,z
1/2+x,1/2-y,-z
1/2-x,1/2+y,-z
1/2-x,1/2-y,-z
1/2+x,1/2+y,-z
1/2-x,1/2+y,z
1/2+x,1/2-y,z
loop_
_atom_site_type_symbol
_atom_site_label
_atom_site_fract_x
_atom_site_fract_y
_atom_site_fract_z
Si Si1 0.839481 0.178676 0.699719
Si Si2 0.706439 0.175864 0.899833
Si Si3 0.918460 0.821453 0.152597
Si Si4 0.870835 0.674006 0.444497
Si Si5 0.000000 0.179602 0.304637
O O1 0.820556 0.250000 0.750000
O O2 0.806635 0.217157 0.656506
O O3 0.883046 0.262009 0.689663
O O4 0.847218 0.000000 0.704745
O O5 0.750000 0.250000 0.913587
O O6 0.671065 0.230695 0.937640
O O7 0.711945 0.000000 0.907432
O O8 0.906061 0.780872 0.095611
O O9 0.960404 0.733238 0.164185
O O10 0.924893 0.000000 0.160856
O O11 0.888617 0.703988 0.500000
O O12 0.858317 0.500000 0.436550
O O13 0.000000 0.250000 0.250000
O O14 0.000000 0.000000 0.299516
#
# Coordination Sequence:
#
# PCOD8284729 Si02
#       5
#    32  32  32  32  16
#     4  10  20  34  52  75 104 140 179 217 264 318
#     4  10  21  35  52  76 106 139 177 222 267 315
#     4  10  20  36  57  81 109 139 175 218 262 310
#     4   9  19  37  60  82 105 137 176 218 265 315
#     4  12  24  38  57  82 113 145 178 215 257 306
#
# _framework density 18.925328
#
# number of rings (size 3 to 8) (size 9 to 14) (size 15 to 20)
#    0.000    2.000    0.000    3.667    0.000    4.889 
#    0.000    2.778    0.000    3.333    0.000    0.000 
#    0.000    0.000    0.000    0.000    0.000    0.000 
#
# Total GULP energy -446504.267069 kJ/mol
# GULP energy per Si atom -12402.896307 kJ/mol
# Density = 1.888225 g / cm^3
# Si number density = 18.925328 Si / 1000 Ang^3
#
#
#
# Elastic Constant Matrix: (Units=GPa)
#
#
# Indices 1 2 3 4 5 6 
#
# 1 107.6179 46.4682 34.4886 0.0000 0.0000 0.0002
# 2 46.4682 94.6441 37.3289 0.0000 -0.0002 0.0003
# 3 34.4886 37.3289 115.4884 0.0000 0.0000 0.0000
# 4 0.0000 0.0000 0.0000 26.1173 -0.0001 0.0000
# 5 0.0000 -0.0002 0.0000 -0.0001 36.2321 0.0001
# 6 0.0002 0.0003 0.0000 0.0000 0.0001 33.5746
#
#
#
# Elastic Compliance Matrix: (Units=1/GPa)
#
#
# Indices 1 2 3 4 5 6 
#
# 1 0.012164 -0.005203 -0.001951 0.000000 0.000000 0.000000
# 2 -0.005203 0.014335 -0.003080 0.000000 0.000000 0.000000
# 3 -0.001951 -0.003080 0.010237 0.000000 0.000000 0.000000
# 4 0.000000 0.000000 0.000000 0.038289 0.000000 0.000000
# 5 0.000000 0.000000 0.000000 0.000000 0.027600 0.000000
# 6 0.000000 0.000000 0.000000 0.000000 0.000000 0.029784
#
#
# Mechanical properties :
#
#
# Convention : Reuss Voigt Hill
#
# Bulk Modulus (GPa) = 61.46623 61.59130 61.52877
# Shear Modulus (GPa) = 31.58588 32.48243 32.03416
#
# Velocity S-wave (km/s) = 4.08974 4.14738 4.11866
# Velocity P-wave (km/s) = 7.40609 7.45314 7.42965
#
# Compressibility (1/GPa) = 0.01626910
#
# Stress axis : x y z
#
# Youngs Moduli (GPa) = 82.21117 69.75930 97.68562
#
# Poissons Ratio (x) = 0.36294 0.19057
# Poissons Ratio (y) = 0.42772 0.30085
# Poissons Ratio (z) = 0.16038 0.21484
#
# Static dielectric constant tensor:
#      x y z
#    x 3.383660 0.000000 0.000000 
#    y 0.000000 3.573370 0.000000 
#    z 0.000000 0.000000 3.584530 
# 
# 
# High freq. dielectric constant tensor:
#      x y z
#    x 1.721980 0.000000 0.000000 
#    y 0.000000 1.748520 0.000000 
#    z 0.000000 0.000000 1.741000 
# 
# From -- ./inp_files/5535.got.cif
#   From: 2010.03.12/outbox.cif.g09.slc.cpg/sg69_3_cif.got.tgz:5535.got - 2010.04.10 23:52:46.
