data_PCOD8284747
_publ_section_title
;
Structure prediction by ZEFSAII (Michael W. Deem and Ramdas Pophale) SiO2 
 PCOD8284747
Probable space group: F M M M
;
_chemical_formula_sum "Si O2"
_cell_formula_units_Z 168
_cell_length_a 23.142095
_cell_length_b 14.341602
_cell_length_c 28.832106
_cell_angle_alpha 90.000000
_cell_angle_beta 90.000000
_cell_angle_gamma 90.000000
_cell_volume 9569.223631
_symmetry_space_group_name_H-M "F M M M"
_symmetry_group_IT_number 69
_symmetry_cell_setting 'orthorhombic'
loop_
_space_group_symop_operation_xyz
x,y,z
-x,-y,z
x,-y,-z
-x,y,-z
-x,-y,-z
x,y,-z
-x,y,z
x,-y,z
x,1/2+y,1/2+z
-x,1/2-y,1/2+z
x,1/2-y,1/2-z
-x,1/2+y,1/2-z
-x,1/2-y,1/2-z
x,1/2+y,1/2-z
-x,1/2+y,1/2+z
x,1/2-y,1/2+z
1/2+x,y,1/2+z
1/2-x,-y,1/2+z
1/2+x,-y,1/2-z
1/2-x,y,1/2-z
1/2-x,-y,1/2-z
1/2+x,y,1/2-z
1/2-x,y,1/2+z
1/2+x,-y,1/2+z
1/2+x,1/2+y,z
1/2-x,1/2-y,z
1/2+x,1/2-y,-z
1/2-x,1/2+y,-z
1/2-x,1/2-y,-z
1/2+x,1/2+y,-z
1/2-x,1/2+y,z
1/2+x,1/2-y,z
loop_
_atom_site_type_symbol
_atom_site_label
_atom_site_fract_x
_atom_site_fract_y
_atom_site_fract_z
Si Si1 0.344543 0.100299 0.447047
Si Si2 0.564315 0.608748 0.360562
Si Si3 0.883553 0.297052 0.053469
Si Si4 0.769557 0.850318 0.599207
Si Si5 0.750000 0.750000 0.250000
Si Si6 0.175787 0.895769 0.691186
O O1 0.327421 0.116097 0.500000
O O2 0.384720 0.186865 0.432450
O O3 0.284361 0.094197 0.420347
O O4 0.376406 0.000000 0.439186
O O5 0.500000 0.633206 0.342404
O O6 0.572199 0.500000 0.369563
O O7 0.572513 0.656295 0.410752
O O8 0.610494 0.640048 0.321026
O O9 0.818969 0.337764 0.060019
O O10 0.902937 0.313543 0.000000
O O11 0.750000 0.750000 0.618123
O O12 0.792672 0.908918 0.642257
O O13 0.792356 0.817913 0.278416
O O14 0.175401 0.000000 0.714751
#
# Coordination Sequence:
#
# PCOD8284747 Si02
#       6
#    32  32  32  32   8  32
#     4   9  16  25  40  65  98 136 173 204 240 289
#     4   9  19  36  55  73  97 132 170 205 244 290
#     4   9  17  27  43  69 100 132 169 210 244 278
#     4   9  15  27  43  65  98 133 164 199 241 294
#     4  12  22  36  54  82 106 124 150 198 252 310
#     4  10  20  34  53  77 103 129 158 196 247 303
#
# _framework density 17.556281999999999
#
# number of rings (size 3 to 8) (size 9 to 14) (size 15 to 20)
#    0.000    2.667    0.952    1.429    0.000    3.810 
#    0.000    1.429    0.000    0.571    0.000    2.667 
#    0.000    0.000    0.000    0.000    0.000    0.000 
#
# Total GULP energy -520365.314422 kJ/mol
# GULP energy per Si atom -12389.650343 kJ/mol
# Density = 1.751632 g / cm^3
# Si number density = 17.556282 Si / 1000 Ang^3
#
#
#
# Elastic Constant Matrix: (Units=GPa)
#
#
# Indices 1 2 3 4 5 6 
#
# 1 100.2909 39.9216 43.3830 0.0000 0.0000 0.0000
# 2 39.9216 92.0533 40.5730 0.0000 0.0000 0.0000
# 3 43.3830 40.5730 65.5467 0.0000 0.0000 0.0000
# 4 0.0000 0.0000 0.0000 17.0721 0.0000 0.0000
# 5 0.0000 0.0000 0.0000 0.0000 16.9398 0.0000
# 6 0.0000 0.0000 0.0000 0.0000 0.0000 17.3141
#
#
#
# Elastic Compliance Matrix: (Units=1/GPa)
#
#
# Indices 1 2 3 4 5 6 
#
# 1 0.014487 -0.002828 -0.007838 0.000000 0.000000 0.000000
# 2 -0.002828 0.015491 -0.007717 0.000000 0.000000 0.000000
# 3 -0.007838 -0.007717 0.025221 0.000000 0.000000 0.000000
# 4 0.000000 0.000000 0.000000 0.058575 0.000000 0.000000
# 5 0.000000 0.000000 0.000000 0.000000 0.059033 0.000000
# 6 0.000000 0.000000 0.000000 0.000000 0.000000 0.057756
#
#
# Mechanical properties :
#
#
# Convention : Reuss Voigt Hill
#
# Bulk Modulus (GPa) = 54.25121 56.18289 55.21705
# Shear Modulus (GPa) = 18.28329 19.19942 18.74135
#
# Velocity S-wave (km/s) = 3.23059 3.31054 3.27081
# Velocity P-wave (km/s) = 6.69955 6.83257 6.76639
#
# Compressibility (1/GPa) = 0.01843277
#
# Stress axis : x y z
#
# Youngs Moduli (GPa) = 69.02609 64.55314 39.64992
#
# Poissons Ratio (x) = 0.18257 0.31078
# Poissons Ratio (y) = 0.19522 0.30598
# Poissons Ratio (z) = 0.54102 0.49816
#
# Static dielectric constant tensor:
#      x y z
#    x 3.215860 0.000000 0.000000 
#    y 0.000000 3.586010 0.000000 
#    z 0.000000 0.000000 2.985780 
# 
# 
# High freq. dielectric constant tensor:
#      x y z
#    x 1.653130 0.000000 0.000000 
#    y 0.000000 1.691450 0.000000 
#    z 0.000000 0.000000 1.650230 
# 
# From -- ./inp_files/42590.got.cif
#   From: 2010.03.12/outbox.cif.g09.slc.cpg/sg69_22_cif.got.tgz:42590.got - 2010.04.10 23:52:46.
