data_PCOD8284155
_publ_section_title
;
Structure prediction by ZEFSAII (Michael W. Deem and Ramdas Pophale) SiO2 
 PCOD8284155
Probable space group: F M M M
;
_chemical_formula_sum "Si O2"
_cell_formula_units_Z 192
_cell_length_a 17.845189
_cell_length_b 20.928568
_cell_length_c 29.367180
_cell_angle_alpha 90.000000
_cell_angle_beta 90.000000
_cell_angle_gamma 90.000000
_cell_volume 10967.885568
_symmetry_space_group_name_H-M "F M M M"
_symmetry_group_IT_number 69
_symmetry_cell_setting 'orthorhombic'
loop_
_space_group_symop_operation_xyz
x,y,z
-x,-y,z
x,-y,-z
-x,y,-z
-x,-y,-z
x,y,-z
-x,y,z
x,-y,z
x,1/2+y,1/2+z
-x,1/2-y,1/2+z
x,1/2-y,1/2-z
-x,1/2+y,1/2-z
-x,1/2-y,1/2-z
x,1/2+y,1/2-z
-x,1/2+y,1/2+z
x,1/2-y,1/2+z
1/2+x,y,1/2+z
1/2-x,-y,1/2+z
1/2+x,-y,1/2-z
1/2-x,y,1/2-z
1/2-x,-y,1/2-z
1/2+x,y,1/2-z
1/2-x,y,1/2+z
1/2+x,-y,1/2+z
1/2+x,1/2+y,z
1/2-x,1/2-y,z
1/2+x,1/2-y,-z
1/2-x,1/2+y,-z
1/2-x,1/2-y,-z
1/2+x,1/2+y,-z
1/2-x,1/2+y,z
1/2+x,1/2-y,z
loop_
_atom_site_type_symbol
_atom_site_label
_atom_site_fract_x
_atom_site_fract_y
_atom_site_fract_z
Si Si1 0.915032 0.285984 0.855888
Si Si2 0.913526 0.571558 0.718204
Si Si3 0.147214 0.694809 0.050438
Si Si4 0.415391 0.139385 0.626024
Si Si5 0.809315 0.657892 0.549572
Si Si6 0.164939 0.684332 0.231987
O O1 0.908129 0.316384 0.906818
O O2 0.899245 0.210399 0.855725
O O3 0.851465 0.316205 0.822500
O O4 0.000000 0.300210 0.838905
O O5 0.882718 0.500000 0.726199
O O6 0.901147 0.589075 0.665749
O O7 0.870492 0.619792 0.750242
O O8 0.000000 0.576037 0.731393
O O9 0.168580 0.768455 0.050363
O O10 0.220810 0.651779 0.059331
O O11 0.112652 0.677815 0.000000
O O12 0.500000 0.135132 0.606980
O O13 0.357825 0.119501 0.586415
O O14 0.827530 0.628643 0.500000
O O15 0.125941 0.750000 0.250000
O O16 0.250000 0.684898 0.250000
#
# Coordination Sequence:
#
# PCOD8284155 Si02
#       6
#    32  32  32  32  32  32
#     4  10  19  30  48  73 102 133 169 212 254 305
#     4  10  21  37  54  71 100 140 174 211 262 314
#     4   8  15  26  42  67  99 132 162 200 256 313
#     4   9  17  28  46  69  96 132 170 209 249 299
#     4   8  14  24  41  64  95 130 164 206 251 300
#     4  11  23  34  53  79 102 136 172 217 264 310
#
# _framework density 17.505652999999999
#
# number of rings (size 3 to 8) (size 9 to 14) (size 15 to 20)
#    0.000    2.667    1.667    1.500    2.333    3.000 
#    0.000    3.333    0.000    0.500    0.000    2.333 
#    0.000    0.667    0.000    3.500    0.000    0.167 
#
# Total GULP energy -594710.083419 kJ/mol
# GULP energy per Si atom -12389.793405 kJ/mol
# Density = 1.746581 g / cm^3
# Si number density = 17.505653 Si / 1000 Ang^3
#
#
#
# Elastic Constant Matrix: (Units=GPa)
#
#
# Indices 1 2 3 4 5 6 
#
# 1 61.5840 31.0653 52.1411 0.0000 0.0000 0.0000
# 2 31.0653 81.6440 42.7721 0.0000 0.0000 0.0000
# 3 52.1411 42.7721 104.6926 0.0000 0.0000 0.0000
# 4 0.0000 0.0000 0.0000 7.0046 0.0000 0.0000
# 5 0.0000 0.0000 0.0000 0.0000 30.1438 0.0000
# 6 0.0000 0.0000 0.0000 0.0000 0.0000 15.7306
#
#
#
# Elastic Compliance Matrix: (Units=1/GPa)
#
#
# Indices 1 2 3 4 5 6 
#
# 1 0.029300 -0.004458 -0.012771 0.000000 0.000000 0.000000
# 2 -0.004458 0.016262 -0.004424 0.000000 0.000000 0.000000
# 3 -0.012771 -0.004424 0.017720 0.000000 0.000000 0.000000
# 4 0.000000 0.000000 0.000000 0.142764 0.000000 0.000000
# 5 0.000000 0.000000 0.000000 0.000000 0.033174 0.000000
# 6 0.000000 0.000000 0.000000 0.000000 0.000000 0.063570
#
#
# Mechanical properties :
#
#
# Convention : Reuss Voigt Hill
#
# Bulk Modulus (GPa) = 50.06016 55.54195 52.80106
# Shear Modulus (GPa) = 14.17418 18.70525 16.43972
#
# Velocity S-wave (km/s) = 2.84860 3.27238 3.06781
# Velocity P-wave (km/s) = 6.28315 6.78784 6.54037
#
# Compressibility (1/GPa) = 0.01997596
#
# Stress axis : x y z
#
# Youngs Moduli (GPa) = 34.13023 61.49311 56.43469
#
# Poissons Ratio (x) = 0.27412 0.72073
# Poissons Ratio (y) = 0.15215 0.24965
# Poissons Ratio (z) = 0.43588 0.27203
#
# Static dielectric constant tensor:
#      x y z
#    x 3.320270 0.000000 0.000000 
#    y 0.000000 2.876400 0.000000 
#    z 0.000000 0.000000 3.559030 
# 
# 
# High freq. dielectric constant tensor:
#      x y z
#    x 1.669190 0.000000 0.000000 
#    y 0.000000 1.616390 0.000000 
#    z 0.000000 0.000000 1.686730 
# 
# From -- ./inp_files/42767.got.cif
#   From: 2010.03.12/outbox.cif.g09.slc.cpg/sg69_22_cif.got.tgz:42767.got - 2010.04.10 23:52:46.
