data_PCOD8284540
_publ_section_title
;
Structure prediction by ZEFSAII (Michael W. Deem and Ramdas Pophale) SiO2 
 PCOD8284540
Probable space group: F M M M
;
_chemical_formula_sum "Si O2"
_cell_formula_units_Z 176
_cell_length_a 10.447039
_cell_length_b 27.116208
_cell_length_c 30.484527
_cell_angle_alpha 90.000000
_cell_angle_beta 90.000000
_cell_angle_gamma 90.000000
_cell_volume 8635.781262
_symmetry_space_group_name_H-M "F M M M"
_symmetry_group_IT_number 69
_symmetry_cell_setting 'orthorhombic'
loop_
_space_group_symop_operation_xyz
x,y,z
-x,-y,z
x,-y,-z
-x,y,-z
-x,-y,-z
x,y,-z
-x,y,z
x,-y,z
x,1/2+y,1/2+z
-x,1/2-y,1/2+z
x,1/2-y,1/2-z
-x,1/2+y,1/2-z
-x,1/2-y,1/2-z
x,1/2+y,1/2-z
-x,1/2+y,1/2+z
x,1/2-y,1/2+z
1/2+x,y,1/2+z
1/2-x,-y,1/2+z
1/2+x,-y,1/2-z
1/2-x,y,1/2-z
1/2-x,-y,1/2-z
1/2+x,y,1/2-z
1/2-x,y,1/2+z
1/2+x,-y,1/2+z
1/2+x,1/2+y,z
1/2-x,1/2-y,z
1/2+x,1/2-y,-z
1/2-x,1/2+y,-z
1/2-x,1/2-y,-z
1/2+x,1/2+y,-z
1/2-x,1/2+y,z
1/2+x,1/2-y,z
loop_
_atom_site_type_symbol
_atom_site_label
_atom_site_fract_x
_atom_site_fract_y
_atom_site_fract_z
Si Si1 0.500000 0.058319 0.450901
Si Si2 0.142506 0.344613 0.088122
Si Si3 0.751502 0.055492 0.599221
Si Si4 0.250000 0.134874 0.250000
Si Si5 0.651837 0.294752 0.676651
Si Si6 0.654578 0.295040 0.500000
Si Si7 0.641471 0.946375 0.691575
O O1 0.500000 0.080903 0.500000
O O2 0.375338 0.075780 0.424712
O O3 0.500000 0.000000 0.453076
O O4 0.141933 0.404267 0.087518
O O5 0.204405 0.320927 0.132044
O O6 0.200699 0.325163 0.042763
O O7 0.000000 0.325357 0.089853
O O8 0.739212 0.057072 0.651465
O O9 0.789528 0.000000 0.583583
O O10 0.333470 0.167608 0.216967
O O11 0.346512 0.098621 0.275099
O O12 0.500000 0.278962 0.674773
O O13 0.750000 0.250000 0.685320
O O14 0.500000 0.283174 0.500000
O O15 0.750000 0.250000 0.500000
O O16 0.500000 0.944058 0.670950
O O17 0.661289 0.000000 0.715011
#
# Coordination Sequence:
#
# PCOD8284540 Si02
#       7
#    16  32  32  16  32  16  32
#     4   9  18  32  54  86 124 157 192 244 290 338
#     4  10  22  42  63  89 122 157 196 249 303 359
#     4  10  19  36  59  86 122 163 199 239 294 356
#     4  12  22  38  62  88 120 158 206 252 308 362
#     4  11  25  44  64  88 121 157 203 259 315 369
#     4  10  22  44  69  91 124 158 201 255 307 358
#     4  10  20  36  57  85 122 162 205 248 295 357
#
# _framework density 20.380323000000001
#
# number of rings (size 3 to 8) (size 9 to 14) (size 15 to 20)
#    0.000    1.727    2.727    1.636    1.273    2.545 
#    3.273    0.000    0.000    1.636    0.000    0.000 
#    0.000    0.000    0.000    0.000    0.000    0.000 
#
# Total GULP energy -545142.025350 kJ/mol
# GULP energy per Si atom -12389.591485 kJ/mol
# Density = 2.033394 g / cm^3
# Si number density = 20.380323 Si / 1000 Ang^3
#
#
#
# Elastic Constant Matrix: (Units=GPa)
#
#
# Indices 1 2 3 4 5 6 
#
# 1 59.2178 40.7473 25.0240 0.0000 0.0000 0.0000
# 2 40.7473 144.3203 58.5160 0.0000 0.0000 0.0000
# 3 25.0240 58.5160 132.3847 0.0000 0.0000 0.0000
# 4 0.0000 0.0000 0.0000 32.3307 0.0000 0.0000
# 5 0.0000 0.0000 0.0000 0.0000 22.0804 0.0000
# 6 0.0000 0.0000 0.0000 0.0000 0.0000 514.2335
#
#
#
# Elastic Compliance Matrix: (Units=1/GPa)
#
#
# Indices 1 2 3 4 5 6 
#
# 1 0.021255 -0.005327 -0.001663 0.000000 0.000000 0.000000
# 2 -0.005327 0.009777 -0.003315 0.000000 0.000000 0.000000
# 3 -0.001663 -0.003315 0.009333 0.000000 0.000000 0.000000
# 4 0.000000 0.000000 0.000000 0.030930 0.000000 0.000000
# 5 0.000000 0.000000 0.000000 0.000000 0.045289 0.000000
# 6 0.000000 0.000000 0.000000 0.000000 0.000000 0.001945
#
#
# Mechanical properties :
#
#
# Convention : Reuss Voigt Hill
#
# Bulk Modulus (GPa) = 50.61779 64.94415 57.78097
# Shear Modulus (GPa) = 34.31153 127.83798 81.07475
#
# Velocity S-wave (km/s) = 4.10757 7.92858 6.31405
# Velocity P-wave (km/s) = 6.88380 10.75880 9.03157
#
# Compressibility (1/GPa) = 0.01975590
#
# Stress axis : x y z
#
# Youngs Moduli (GPa) = 47.04791 102.28153 107.14367
#
# Poissons Ratio (x) = 0.54483 0.17820
# Poissons Ratio (y) = 0.25061 0.35515
# Poissons Ratio (z) = 0.07825 0.33903
#
# Static dielectric constant tensor:
#      x y z
#    x 3.451920 0.000000 0.000000 
#    y 0.000000 3.636270 0.000000 
#    z 0.000000 0.000000 4.112360 
# 
# 
# High freq. dielectric constant tensor:
#      x y z
#    x 1.773250 0.000000 0.000000 
#    y 0.000000 1.794330 0.000000 
#    z 0.000000 0.000000 1.808290 
# 
# From -- ./inp_files/45150.got.cif
#   From: 2010.03.12/outbox.cif.g09.slc.cpg/sg69_23_cif.got.tgz:45150.got - 2010.04.10 23:52:46.
