data_PCOD8284416
_publ_section_title
;
Structure prediction by ZEFSAII (Michael W. Deem and Ramdas Pophale) SiO2 
 PCOD8284416
Probable space group: F M M M
;
_chemical_formula_sum "Si O2"
_cell_formula_units_Z 192
_cell_length_a 17.150909
_cell_length_b 18.640562
_cell_length_c 30.026754
_cell_angle_alpha 90.000000
_cell_angle_beta 90.000000
_cell_angle_gamma 90.000000
_cell_volume 9599.630800
_symmetry_space_group_name_H-M "F M M M"
_symmetry_group_IT_number 69
_symmetry_cell_setting 'orthorhombic'
loop_
_space_group_symop_operation_xyz
x,y,z
-x,-y,z
x,-y,-z
-x,y,-z
-x,-y,-z
x,y,-z
-x,y,z
x,-y,z
x,1/2+y,1/2+z
-x,1/2-y,1/2+z
x,1/2-y,1/2-z
-x,1/2+y,1/2-z
-x,1/2-y,1/2-z
x,1/2+y,1/2-z
-x,1/2+y,1/2+z
x,1/2-y,1/2+z
1/2+x,y,1/2+z
1/2-x,-y,1/2+z
1/2+x,-y,1/2-z
1/2-x,y,1/2-z
1/2-x,-y,1/2-z
1/2+x,y,1/2-z
1/2-x,y,1/2+z
1/2+x,-y,1/2+z
1/2+x,1/2+y,z
1/2-x,1/2-y,z
1/2+x,1/2-y,-z
1/2-x,1/2+y,-z
1/2-x,1/2-y,-z
1/2+x,1/2+y,-z
1/2-x,1/2+y,z
1/2+x,1/2-y,z
loop_
_atom_site_type_symbol
_atom_site_label
_atom_site_fract_x
_atom_site_fract_y
_atom_site_fract_z
Si Si1 0.912709 0.295435 0.406125
Si Si2 0.585794 0.165703 0.744536
Si Si3 0.646080 0.081169 0.172045
Si Si4 0.184989 0.144663 0.500000
Si Si5 0.706638 0.326063 0.169079
Si Si6 0.412608 0.129028 0.082063
Si Si7 0.146095 0.312023 0.500000
O O1 0.847578 0.327946 0.374206
O O2 0.898274 0.210962 0.404478
O O3 0.903411 0.328167 0.455657
O O4 0.000000 0.313940 0.389246
O O5 0.500000 0.139817 0.727802
O O6 0.583739 0.250000 0.750000
O O7 0.602215 0.128998 0.791676
O O8 0.654634 0.148063 0.710522
O O9 0.731183 0.111870 0.161946
O O10 0.598653 0.081251 0.125863
O O11 0.652077 0.000000 0.189689
O O12 0.148161 0.106816 0.456496
O O13 0.166109 0.228481 0.500000
O O14 0.278142 0.136624 0.500000
O O15 0.750000 0.250000 0.177475
O O16 0.500000 0.118142 0.063467
#
# Coordination Sequence:
#
# PCOD8284416 Si02
#       7
#    32  32  32  16  32  32  16
#     4  10  19  33  57  91 123 159 203 250 305 358
#     4  11  23  40  63  89 116 154 201 247 295 353
#     4  12  26  41  61  89 122 160 201 249 309 368
#     4   9  17  29  52  84 118 166 204 244 293 355
#     4  12  22  38  63  87 118 156 200 253 300 355
#     4  10  19  34  55  84 123 162 203 247 297 360
#     4   9  17  27  51  85 131 157 193 256 310 343
#
# _framework density 20.000768999999998
#
# number of rings (size 3 to 8) (size 9 to 14) (size 15 to 20)
#    0.000    1.333    3.333    3.000    2.333    7.333 
#    0.000    0.417    0.000    2.500    0.000    0.000 
#    0.000    2.667    0.000    0.000    0.000    0.000 
#
# Total GULP energy -595195.057320 kJ/mol
# GULP energy per Si atom -12399.897027 kJ/mol
# Density = 1.995525 g / cm^3
# Si number density = 20.000769 Si / 1000 Ang^3
#
#
#
# Elastic Constant Matrix: (Units=GPa)
#
#
# Indices 1 2 3 4 5 6 
#
# 1 110.8293 30.8541 34.4673 0.0000 0.0000 0.0000
# 2 30.8541 73.4115 29.1060 0.0000 0.0000 0.0000
# 3 34.4673 29.1060 114.7246 0.0000 0.0000 0.0000
# 4 0.0000 0.0000 0.0000 12.5280 0.0000 0.0000
# 5 0.0000 0.0000 0.0000 0.0000 16.4986 0.0000
# 6 0.0000 0.0000 0.0000 0.0000 0.0000 -8.7481
#
#
#
# Elastic Compliance Matrix: (Units=1/GPa)
#
#
# Indices 1 2 3 4 5 6 
#
# 1 0.010745 -0.003598 -0.002315 0.000000 0.000000 0.000000
# 2 -0.003598 0.016350 -0.003067 0.000000 0.000000 0.000000
# 3 -0.002315 -0.003067 0.010190 0.000000 0.000000 0.000000
# 4 0.000000 0.000000 0.000000 0.079821 0.000000 0.000000
# 5 0.000000 0.000000 0.000000 0.000000 0.060611 0.000000
# 6 0.000000 0.000000 0.000000 0.000000 0.000000 -0.114311
#
#
# Mechanical properties :
#
#
# Convention : Reuss Voigt Hill
#
# Bulk Modulus (GPa) = 51.74825 54.20225 52.97525
# Shear Modulus (GPa) = 56.94216 17.69157 37.31687
#
# Velocity S-wave (km/s) = 5.34152 2.97736 4.32414
# Velocity P-wave (km/s) = 7.99823 6.24327 7.17461
#
# Compressibility (1/GPa) = 0.01932432
#
# Stress axis : x y z
#
# Youngs Moduli (GPa) = 93.07055 61.16194 98.13309
#
# Poissons Ratio (x) = 0.22005 0.22720
# Poissons Ratio (y) = 0.33486 0.30099
# Poissons Ratio (z) = 0.21548 0.18759
#
# Static dielectric constant tensor:
#      x y z
#    x 3.977110 0.000000 0.000000 
#    y 0.000000 3.324370 0.000000 
#    z 0.000000 0.000000 3.851670 
# 
# 
# High freq. dielectric constant tensor:
#      x y z
#    x 1.801230 0.000000 0.000000 
#    y 0.000000 1.720560 0.000000 
#    z 0.000000 0.000000 1.791370 
# 
# From -- ./inp_files/46401.got.cif
#   From: 2010.03.12/outbox.cif.g09.slc.cpg/sg69_24_cif.got.tgz:46401.got - 2010.04.10 23:52:46.
