data_PCOD8284019
_publ_section_title
;
Structure prediction by ZEFSAII (Michael W. Deem and Ramdas Pophale) SiO2 
 PCOD8284019
Probable space group: F M M M
;
_chemical_formula_sum "Si O2"
_cell_formula_units_Z 240
_cell_length_a 18.840554
_cell_length_b 23.613960
_cell_length_c 30.316041
_cell_angle_alpha 90.000000
_cell_angle_beta 90.000000
_cell_angle_gamma 90.000000
_cell_volume 13487.609325
_symmetry_space_group_name_H-M "F M M M"
_symmetry_group_IT_number 69
_symmetry_cell_setting 'orthorhombic'
loop_
_space_group_symop_operation_xyz
x,y,z
-x,-y,z
x,-y,-z
-x,y,-z
-x,-y,-z
x,y,-z
-x,y,z
x,-y,z
x,1/2+y,1/2+z
-x,1/2-y,1/2+z
x,1/2-y,1/2-z
-x,1/2+y,1/2-z
-x,1/2-y,1/2-z
x,1/2+y,1/2-z
-x,1/2+y,1/2+z
x,1/2-y,1/2+z
1/2+x,y,1/2+z
1/2-x,-y,1/2+z
1/2+x,-y,1/2-z
1/2-x,y,1/2-z
1/2-x,-y,1/2-z
1/2+x,y,1/2-z
1/2-x,y,1/2+z
1/2+x,-y,1/2+z
1/2+x,1/2+y,z
1/2-x,1/2-y,z
1/2+x,1/2-y,-z
1/2-x,1/2+y,-z
1/2-x,1/2-y,-z
1/2+x,1/2+y,-z
1/2-x,1/2+y,z
1/2+x,1/2-y,z
loop_
_atom_site_type_symbol
_atom_site_label
_atom_site_fract_x
_atom_site_fract_y
_atom_site_fract_z
Si Si1 0.920166 0.338223 0.174816
Si Si2 0.699813 0.936577 0.680123
Si Si3 0.500000 0.064736 0.552109
Si Si4 0.631330 0.615191 0.100558
Si Si5 0.846251 0.436658 0.130454
Si Si6 0.826797 0.833991 0.239386
Si Si7 0.255243 0.564580 0.449595
Si Si8 0.917190 0.287586 0.340044
O O1 0.904783 0.389861 0.141625
O O2 0.869271 0.340983 0.216114
O O3 0.910909 0.278898 0.148780
O O4 0.000000 0.344241 0.192414
O O5 0.640220 0.925532 0.642851
O O6 0.776152 0.924454 0.659047
O O7 0.687091 0.896871 0.721587
O O8 0.692063 0.000000 0.697744
O O9 0.500000 0.070314 0.500000
O O10 0.567216 0.096277 0.570809
O O11 0.500000 0.000000 0.567353
O O12 0.699944 0.610831 0.069060
O O13 0.618031 0.678679 0.119103
O O14 0.875350 0.500000 0.140418
O O15 0.827359 0.431154 0.078639
O O16 0.750000 0.805431 0.250000
O O17 0.872294 0.797150 0.204868
O O18 0.273292 0.579144 0.500000
O O19 0.224220 0.500000 0.445076
O O20 0.000000 0.305603 0.333167
#
# Coordination Sequence:
#
# PCOD8284019 Si02
#       8
#    32  32  16  32  32  32  32  32
#     4  11  23  38  55  76 104 142 182 227 276 317
#     4   9  18  33  52  74 108 145 171 209 272 331
#     4  11  20  28  48  82 115 144 179 217 248 301
#     4  10  18  32  50  76 109 145 183 210 254 313
#     4   9  18  35  57  81 106 135 170 215 270 327
#     4  11  21  35  54  83 103 134 185 234 266 307
#     4   9  17  32  56  84 112 138 168 214 272 322
#     4  10  22  39  54  71 106 152 184 218 265 320
#
# _framework density 17.79411
#
# number of rings (size 3 to 8) (size 9 to 14) (size 15 to 20)
#    0.000    2.067    2.000    3.200    0.000    4.267 
#    0.000    0.000    0.000    2.800    0.000    1.867 
#    0.000    0.000    0.000    0.000    0.000    0.000 
#
# Total GULP energy -743839.858526 kJ/mol
# GULP energy per Si atom -12397.330975 kJ/mol
# Density = 1.775361 g / cm^3
# Si number density = 17.794110 Si / 1000 Ang^3
#
#
#
# Elastic Constant Matrix: (Units=GPa)
#
#
# Indices 1 2 3 4 5 6 
#
# 1 76.0684 37.1671 33.7763 0.0000 0.0000 0.0000
# 2 37.1671 109.7747 45.4154 0.0000 0.0000 0.0000
# 3 33.7763 45.4154 90.2196 0.0000 0.0000 0.0000
# 4 0.0000 0.0000 0.0000 17.5792 0.0000 0.0000
# 5 0.0000 0.0000 0.0000 0.0000 24.7572 0.0000
# 6 0.0000 0.0000 0.0000 0.0000 0.0000 26.7695
#
#
#
# Elastic Compliance Matrix: (Units=1/GPa)
#
#
# Indices 1 2 3 4 5 6 
#
# 1 0.017023 -0.003949 -0.004385 0.000000 0.000000 0.000000
# 2 -0.003949 0.012422 -0.004775 0.000000 0.000000 0.000000
# 3 -0.004385 -0.004775 0.015129 0.000000 0.000000 0.000000
# 4 0.000000 0.000000 0.000000 0.056885 0.000000 0.000000
# 5 0.000000 0.000000 0.000000 0.000000 0.040392 0.000000
# 6 0.000000 0.000000 0.000000 0.000000 0.000000 0.037356
#
#
# Mechanical properties :
#
#
# Convention : Reuss Voigt Hill
#
# Bulk Modulus (GPa) = 54.47726 56.53114 55.50420
# Shear Modulus (GPa) = 23.63578 24.46812 24.05195
#
# Velocity S-wave (km/s) = 3.64853 3.71221 3.68051
# Velocity P-wave (km/s) = 6.95922 7.08608 7.02294
#
# Compressibility (1/GPa) = 0.01835628
#
# Stress axis : x y z
#
# Youngs Moduli (GPa) = 58.74492 80.50217 66.09776
#
# Poissons Ratio (x) = 0.31794 0.28983
# Poissons Ratio (y) = 0.23201 0.31559
# Poissons Ratio (z) = 0.25759 0.38436
#
# Static dielectric constant tensor:
#      x y z
#    x 3.271950 0.000000 0.000000 
#    y 0.000000 3.352750 0.000000 
#    z 0.000000 0.000000 3.267790 
# 
# 
# High freq. dielectric constant tensor:
#      x y z
#    x 1.679990 0.000000 0.000000 
#    y 0.000000 1.684580 0.000000 
#    z 0.000000 0.000000 1.680010 
# 
# From -- ./inp_files/46814.got.cif
#   From: 2010.03.12/outbox.cif.g09.slc.cpg/sg69_24_cif.got.tgz:46814.got - 2010.04.10 23:52:46.
