data_PCOD8284427
_publ_section_title
;
Structure prediction by ZEFSAII (Michael W. Deem and Ramdas Pophale) SiO2 
 PCOD8284427
Probable space group: F M M M
;
_chemical_formula_sum "Si O2"
_cell_formula_units_Z 144
_cell_length_a 8.770546
_cell_length_b 34.137717
_cell_length_c 25.503529
_cell_angle_alpha 90.000000
_cell_angle_beta 90.000000
_cell_angle_gamma 90.000000
_cell_volume 7635.920246
_symmetry_space_group_name_H-M "F M M M"
_symmetry_group_IT_number 69
_symmetry_cell_setting 'orthorhombic'
loop_
_space_group_symop_operation_xyz
x,y,z
-x,-y,z
x,-y,-z
-x,y,-z
-x,-y,-z
x,y,-z
-x,y,z
x,-y,z
x,1/2+y,1/2+z
-x,1/2-y,1/2+z
x,1/2-y,1/2-z
-x,1/2+y,1/2-z
-x,1/2-y,1/2-z
x,1/2+y,1/2-z
-x,1/2+y,1/2+z
x,1/2-y,1/2+z
1/2+x,y,1/2+z
1/2-x,-y,1/2+z
1/2+x,-y,1/2-z
1/2-x,y,1/2-z
1/2-x,-y,1/2-z
1/2+x,y,1/2-z
1/2-x,y,1/2+z
1/2+x,-y,1/2+z
1/2+x,1/2+y,z
1/2-x,1/2-y,z
1/2+x,1/2-y,-z
1/2-x,1/2+y,-z
1/2-x,1/2-y,-z
1/2+x,1/2+y,-z
1/2-x,1/2+y,z
1/2+x,1/2-y,z
loop_
_atom_site_type_symbol
_atom_site_label
_atom_site_fract_x
_atom_site_fract_y
_atom_site_fract_z
Si Si1 0.322521 0.541807 0.164652
Si Si2 0.821806 0.348936 0.908105
Si Si3 0.319390 0.207384 0.000000
Si Si4 0.673283 0.425607 0.057352
Si Si5 0.181055 0.873738 0.196400
O O1 0.500000 0.541295 0.177550
O O2 0.250852 0.500000 0.184869
O O3 0.293048 0.542477 0.101990
O O4 0.253748 0.581390 0.190172
O O5 0.764335 0.314631 0.947005
O O6 0.787862 0.389508 0.937183
O O7 0.734819 0.347010 0.852239
O O8 0.000000 0.345394 0.896622
O O9 0.250000 0.250000 0.000000
O O10 0.500000 0.209540 0.000000
O O11 0.500000 0.409684 0.064571
O O12 0.695544 0.444955 0.000000
O O13 0.250000 0.856354 0.250000
O O14 0.000000 0.872983 0.198569
#
# Coordination Sequence:
#
# PCOD8284427 Si02
#       5
#    32  32  16  32  32
#     4   8  15  27  42  65  98 132 171 219 267 313
#     4  10  19  34  53  77 107 138 171 210 252 302
#     4  10  22  36  56  86 115 142 167 197 248 303
#     4   9  16  26  44  69  96 133 176 214 258 308
#     4  10  20  34  53  77 100 135 180 222 266 309
#
# _framework density 18.858239000000001
#
# number of rings (size 3 to 8) (size 9 to 14) (size 15 to 20)
#    0.000    2.667    1.111    2.667    0.000    2.667 
#    0.000    2.222    0.000   16.667    0.000   10.889 
#    0.000    0.000    0.000    0.000    0.000    0.000 
#
# Total GULP energy -446025.071484 kJ/mol
# GULP energy per Si atom -12389.585319 kJ/mol
# Density = 1.881532 g / cm^3
# Si number density = 18.858239 Si / 1000 Ang^3
#
#
#
# Elastic Constant Matrix: (Units=GPa)
#
#
# Indices 1 2 3 4 5 6 
#
# 1 49.4045 21.8277 37.1705 0.0000 0.0000 0.0000
# 2 21.8277 87.6822 36.0741 0.0000 0.0000 0.0000
# 3 37.1705 36.0741 144.0895 0.0000 0.0000 0.0000
# 4 0.0000 0.0000 0.0000 9.0038 0.0000 0.0000
# 5 0.0000 0.0000 0.0000 0.0000 26.9628 0.0000
# 6 0.0000 0.0000 0.0000 0.0000 0.0000 17.3649
#
#
#
# Elastic Compliance Matrix: (Units=1/GPa)
#
#
# Indices 1 2 3 4 5 6 
#
# 1 0.026440 -0.004209 -0.005767 0.000000 0.000000 0.000000
# 2 -0.004209 0.013385 -0.002265 0.000000 0.000000 0.000000
# 3 -0.005767 -0.002265 0.008995 0.000000 0.000000 0.000000
# 4 0.000000 0.000000 0.000000 0.111065 0.000000 0.000000
# 5 0.000000 0.000000 0.000000 0.000000 0.037088 0.000000
# 6 0.000000 0.000000 0.000000 0.000000 0.000000 0.057588
#
#
# Mechanical properties :
#
#
# Convention : Reuss Voigt Hill
#
# Bulk Modulus (GPa) = 41.09020 52.36900 46.72960
# Shear Modulus (GPa) = 17.41227 23.07322 20.24274
#
# Velocity S-wave (km/s) = 3.04192 3.50166 3.27986
# Velocity P-wave (km/s) = 5.84585 6.64673 6.25911
#
# Compressibility (1/GPa) = 0.02433670
#
# Stress axis : x y z
#
# Youngs Moduli (GPa) = 37.82209 74.71274 111.17484
#
# Poissons Ratio (x) = 0.31449 0.64111
# Poissons Ratio (y) = 0.15921 0.25182
# Poissons Ratio (z) = 0.21811 0.16923
#
# Static dielectric constant tensor:
#      x y z
#    x 3.199670 0.000000 0.000000 
#    y 0.000000 12.635850 0.000000 
#    z 0.000000 0.000000 3.681290 
# 
# 
# High freq. dielectric constant tensor:
#      x y z
#    x 1.710410 0.000000 0.000000 
#    y 0.000000 1.691250 0.000000 
#    z 0.000000 0.000000 1.746180 
# 
# From -- ./inp_files/44524.got.cif
#   From: 2010.03.12/outbox.cif.g09.slc.cpg/sg69_23_cif.got.tgz:44524.got - 2010.04.10 23:52:46.
