data_PCOD8284770
_publ_section_title
;
Structure prediction by ZEFSAII (Michael W. Deem and Ramdas Pophale) SiO2 
 PCOD8284770
Probable space group: F M M M
;
_chemical_formula_sum "Si O2"
_cell_formula_units_Z 160
_cell_length_a 29.423827
_cell_length_b 8.844474
_cell_length_c 30.471087
_cell_angle_alpha 90.000000
_cell_angle_beta 90.000000
_cell_angle_gamma 90.000000
_cell_volume 7929.743054
_symmetry_space_group_name_H-M "F M M M"
_symmetry_group_IT_number 69
_symmetry_cell_setting 'orthorhombic'
loop_
_space_group_symop_operation_xyz
x,y,z
-x,-y,z
x,-y,-z
-x,y,-z
-x,-y,-z
x,y,-z
-x,y,z
x,-y,z
x,1/2+y,1/2+z
-x,1/2-y,1/2+z
x,1/2-y,1/2-z
-x,1/2+y,1/2-z
-x,1/2-y,1/2-z
x,1/2+y,1/2-z
-x,1/2+y,1/2+z
x,1/2-y,1/2+z
1/2+x,y,1/2+z
1/2-x,-y,1/2+z
1/2+x,-y,1/2-z
1/2-x,y,1/2-z
1/2-x,-y,1/2-z
1/2+x,y,1/2-z
1/2-x,y,1/2+z
1/2+x,-y,1/2+z
1/2+x,1/2+y,z
1/2-x,1/2-y,z
1/2+x,1/2-y,-z
1/2-x,1/2+y,-z
1/2-x,1/2-y,-z
1/2+x,1/2+y,-z
1/2-x,1/2+y,z
1/2+x,1/2-y,z
loop_
_atom_site_type_symbol
_atom_site_label
_atom_site_fract_x
_atom_site_fract_y
_atom_site_fract_z
Si Si1 0.054426 0.680526 0.500000
Si Si2 0.500000 0.671227 0.295377
Si Si3 0.794680 0.326006 0.886298
Si Si4 0.582446 0.169755 0.332440
Si Si5 0.390775 0.676588 0.419759
Si Si6 0.822352 0.326933 0.295390
O O1 0.061385 0.500000 0.500000
O O2 0.080431 0.756814 0.459608
O O3 0.000000 0.718596 0.500000
O O4 0.500000 0.500000 0.283478
O O5 0.500000 0.750000 0.250000
O O6 0.455783 0.710196 0.322349
O O7 0.784987 0.500000 0.877267
O O8 0.750000 0.250000 0.907623
O O9 0.835707 0.307906 0.921887
O O10 0.802816 0.254336 0.838293
O O11 0.598280 0.214004 0.380173
O O12 0.622943 0.182203 0.297365
O O13 0.562608 0.000000 0.333016
O O14 0.403987 0.500000 0.412848
O O15 0.805704 0.500000 0.295481
O O16 0.805778 0.250000 0.250000
#
# Coordination Sequence:
#
# PCOD8284770 Si02
#       6
#    16  16  32  32  32  32
#     4  11  25  43  66  95 126 159 196 243 293 352
#     4  12  24  36  52  77 110 151 200 250 296 348
#     4  10  21  38  61  88 119 156 199 246 298 356
#     4  10  21  37  57  80 112 153 196 244 298 356
#     4  10  22  41  64  91 122 156 195 243 296 356
#     4  10  20  34  54  80 113 154 199 249 300 349
#
# _framework density 20.177198000000001
#
# number of rings (size 3 to 8) (size 9 to 14) (size 15 to 20)
#    0.000    1.700    0.000    4.200    1.400    7.600 
#    0.000    2.500    0.000    0.000    0.000    0.000 
#    0.000    0.000    0.000    0.000    0.000    0.000 
#
# Total GULP energy -495727.692432 kJ/mol
# GULP energy per Si atom -12393.192311 kJ/mol
# Density = 2.013127 g / cm^3
# Si number density = 20.177198 Si / 1000 Ang^3
#
#
#
# Elastic Constant Matrix: (Units=GPa)
#
#
# Indices 1 2 3 4 5 6 
#
# 1 118.7155 56.0669 32.5370 0.0000 -0.0001 0.0000
# 2 56.0669 151.9437 31.6378 0.0001 -0.0004 -0.0002
# 3 32.5370 31.6378 71.2369 0.0000 -0.0002 0.0000
# 4 0.0000 0.0001 0.0000 34.0167 -0.0001 0.0000
# 5 -0.0001 -0.0004 -0.0002 -0.0001 38.4831 0.0003
# 6 0.0000 -0.0002 0.0000 0.0000 0.0003 34.7947
#
#
#
# Elastic Compliance Matrix: (Units=1/GPa)
#
#
# Indices 1 2 3 4 5 6 
#
# 1 0.010954 -0.003306 -0.003535 0.000000 0.000000 0.000000
# 2 -0.003306 0.008250 -0.002154 0.000000 0.000000 0.000000
# 3 -0.003535 -0.002154 0.016609 0.000000 0.000000 0.000000
# 4 0.000000 0.000000 0.000000 0.029397 0.000000 0.000000
# 5 0.000000 0.000000 0.000000 0.000000 0.025985 0.000000
# 6 0.000000 0.000000 0.000000 0.000000 0.000000 0.028740
#
#
# Mechanical properties :
#
#
# Convention : Reuss Voigt Hill
#
# Bulk Modulus (GPa) = 56.10749 64.70882 60.40816
# Shear Modulus (GPa) = 34.75482 36.23587 35.49534
#
# Velocity S-wave (km/s) = 4.15478 4.24238 4.19881
# Velocity P-wave (km/s) = 7.13330 7.49246 7.31509
#
# Compressibility (1/GPa) = 0.01782293
#
# Stress axis : x y z
#
# Youngs Moduli (GPa) = 91.29438 121.21608 60.20916
#
# Poissons Ratio (x) = 0.40072 0.21283
# Poissons Ratio (y) = 0.30180 0.12969
# Poissons Ratio (z) = 0.32271 0.26109
#
# Static dielectric constant tensor:
#      x y z
#    x 3.920620 0.000000 0.000000 
#    y 0.000000 3.822150 0.000000 
#    z 0.000000 0.000000 3.126340 
# 
# 
# High freq. dielectric constant tensor:
#      x y z
#    x 1.798110 0.000000 0.000000 
#    y 0.000000 1.808790 0.000000 
#    z 0.000000 0.000000 1.767180 
# 
# From -- ./inp_files/5719.got.cif
#   From: 2010.03.12/outbox.cif.g09.slc.cpg/sg69_3_cif.got.tgz:5719.got - 2010.04.10 23:52:46.
