data_PCOD8284601
_publ_section_title
;
Structure prediction by ZEFSAII (Michael W. Deem and Ramdas Pophale) SiO2 
 PCOD8284601
Probable space group: F M M M
;
_chemical_formula_sum "Si O2"
_cell_formula_units_Z 152
_cell_length_a 30.127268
_cell_length_b 13.080932
_cell_length_c 22.950180
_cell_angle_alpha 90.000000
_cell_angle_beta 90.000000
_cell_angle_gamma 90.000000
_cell_volume 9044.499413
_symmetry_space_group_name_H-M "F M M M"
_symmetry_group_IT_number 69
_symmetry_cell_setting 'orthorhombic'
loop_
_space_group_symop_operation_xyz
x,y,z
-x,-y,z
x,-y,-z
-x,y,-z
-x,-y,-z
x,y,-z
-x,y,z
x,-y,z
x,1/2+y,1/2+z
-x,1/2-y,1/2+z
x,1/2-y,1/2-z
-x,1/2+y,1/2-z
-x,1/2-y,1/2-z
x,1/2+y,1/2-z
-x,1/2+y,1/2+z
x,1/2-y,1/2+z
1/2+x,y,1/2+z
1/2-x,-y,1/2+z
1/2+x,-y,1/2-z
1/2-x,y,1/2-z
1/2-x,-y,1/2-z
1/2+x,y,1/2-z
1/2-x,y,1/2+z
1/2+x,-y,1/2+z
1/2+x,1/2+y,z
1/2-x,1/2-y,z
1/2+x,1/2-y,-z
1/2-x,1/2+y,-z
1/2-x,1/2-y,-z
1/2+x,1/2+y,-z
1/2-x,1/2+y,z
1/2+x,1/2-y,z
loop_
_atom_site_type_symbol
_atom_site_label
_atom_site_fract_x
_atom_site_fract_y
_atom_site_fract_z
Si Si1 0.320980 0.879161 0.682778
Si Si2 0.890522 0.250000 0.750000
Si Si3 0.549254 0.253288 0.434278
Si Si4 0.550450 0.613615 0.670572
Si Si5 0.250000 0.250000 0.750000
Si Si6 0.867026 0.618907 0.434249
O O1 0.362245 0.838756 0.719850
O O2 0.277652 0.821331 0.706116
O O3 0.329303 0.853825 0.613939
O O4 0.315357 0.000000 0.692860
O O5 0.921092 0.303505 0.796592
O O6 0.555989 0.289601 0.500000
O O7 0.500000 0.203813 0.424878
O O8 0.553506 0.356585 0.397149
O O9 0.586728 0.171776 0.416872
O O10 0.500000 0.617679 0.693470
O O11 0.570058 0.500000 0.678443
O O12 0.850982 0.649982 0.500000
O O13 0.877688 0.500000 0.431521
#
# Coordination Sequence:
#
# PCOD8284601 Si02
#       6
#    32  16  32  32   8  32
#     4  10  20  35  55  78 100 126 162 202 250 307
#     4  11  19  33  51  72  98 134 169 207 251 293
#     4   9  17  30  48  71 101 136 173 211 248 287
#     4  10  20  32  46  68 100 137 176 214 250 291
#     4  10  22  36  56  78 106 128 156 194 252 312
#     4   9  17  31  52  76 102 133 168 206 247 290
#
# _framework density 16.805793999999999
#
# number of rings (size 3 to 8) (size 9 to 14) (size 15 to 20)
#    0.000    2.316    2.105    1.263    0.000    0.842 
#    0.000    4.737    0.000    0.000    0.000    0.000 
#    0.000    0.000    0.000    0.000    0.000    0.000 
#
# Total GULP energy -470961.868082 kJ/mol
# GULP energy per Si atom -12393.733371 kJ/mol
# Density = 1.676754 g / cm^3
# Si number density = 16.805794 Si / 1000 Ang^3
#
#
#
# Elastic Constant Matrix: (Units=GPa)
#
#
# Indices 1 2 3 4 5 6 
#
# 1 92.2956 56.0283 55.3944 0.0000 0.0000 0.0000
# 2 56.0283 94.0891 50.5152 0.0000 0.0000 0.0000
# 3 55.3944 50.5152 99.8893 0.0000 0.0000 0.0000
# 4 0.0000 0.0000 0.0000 24.5412 0.0000 0.0000
# 5 0.0000 0.0000 0.0000 0.0000 26.3190 0.0000
# 6 0.0000 0.0000 0.0000 0.0000 0.0000 17.8312
#
#
#
# Elastic Compliance Matrix: (Units=1/GPa)
#
#
# Indices 1 2 3 4 5 6 
#
# 1 0.019950 -0.008154 -0.006940 0.000000 0.000000 0.000000
# 2 -0.008154 0.017922 -0.004542 0.000000 0.000000 0.000000
# 3 -0.006940 -0.004542 0.016156 0.000000 0.000000 0.000000
# 4 0.000000 0.000000 0.000000 0.040748 0.000000 0.000000
# 5 0.000000 0.000000 0.000000 0.000000 0.037995 0.000000
# 6 0.000000 0.000000 0.000000 0.000000 0.000000 0.056082
#
#
# Mechanical properties :
#
#
# Convention : Reuss Voigt Hill
#
# Bulk Modulus (GPa) = 67.76150 67.79440 67.77795
# Shear Modulus (GPa) = 21.45533 22.02735 21.74134
#
# Velocity S-wave (km/s) = 3.57692 3.62429 3.60068
# Velocity P-wave (km/s) = 7.58070 7.61193 7.59633
#
# Compressibility (1/GPa) = 0.01475764
#
# Stress axis : x y z
#
# Youngs Moduli (GPa) = 50.12612 55.79738 61.89512
#
# Poissons Ratio (x) = 0.45496 0.42954
# Poissons Ratio (y) = 0.40872 0.28111
# Poissons Ratio (z) = 0.34786 0.25341
#
# Static dielectric constant tensor:
#      x y z
#    x 3.081220 0.000000 0.000000 
#    y 0.000000 3.073370 0.000000 
#    z 0.000000 0.000000 3.398720 
# 
# 
# High freq. dielectric constant tensor:
#      x y z
#    x 1.632370 0.000000 0.000000 
#    y 0.000000 1.643830 0.000000 
#    z 0.000000 0.000000 1.659610 
# 
# From -- ./inp_files/38854.got.cif
#   From: 2010.03.12/outbox.cif.g09.slc.cpg/sg69_20_cif.got.tgz:38854.got - 2010.04.10 23:52:46.
