data_PCOD8284391
_publ_section_title
;
Structure prediction by ZEFSAII (Michael W. Deem and Ramdas Pophale) SiO2 
 PCOD8284391
Probable space group: F M M M
;
_chemical_formula_sum "Si O2"
_cell_formula_units_Z 192
_cell_length_a 14.577776
_cell_length_b 27.154426
_cell_length_c 26.598810
_cell_angle_alpha 90.000000
_cell_angle_beta 90.000000
_cell_angle_gamma 90.000000
_cell_volume 10529.169251
_symmetry_space_group_name_H-M "F M M M"
_symmetry_group_IT_number 69
_symmetry_cell_setting 'orthorhombic'
loop_
_space_group_symop_operation_xyz
x,y,z
-x,-y,z
x,-y,-z
-x,y,-z
-x,-y,-z
x,y,-z
-x,y,z
x,-y,z
x,1/2+y,1/2+z
-x,1/2-y,1/2+z
x,1/2-y,1/2-z
-x,1/2+y,1/2-z
-x,1/2-y,1/2-z
x,1/2+y,1/2-z
-x,1/2+y,1/2+z
x,1/2-y,1/2+z
1/2+x,y,1/2+z
1/2-x,-y,1/2+z
1/2+x,-y,1/2-z
1/2-x,y,1/2-z
1/2-x,-y,1/2-z
1/2+x,y,1/2-z
1/2-x,y,1/2+z
1/2+x,-y,1/2+z
1/2+x,1/2+y,z
1/2-x,1/2-y,z
1/2+x,1/2-y,-z
1/2-x,1/2+y,-z
1/2-x,1/2-y,-z
1/2+x,1/2+y,-z
1/2-x,1/2+y,z
1/2+x,1/2-y,z
loop_
_atom_site_type_symbol
_atom_site_label
_atom_site_fract_x
_atom_site_fract_y
_atom_site_fract_z
Si Si1 0.892049 0.767459 0.406764
Si Si2 0.774105 0.320384 0.442882
Si Si3 0.803924 0.942951 0.301769
Si Si4 0.831706 0.623447 0.648029
Si Si5 0.894165 0.779177 0.799629
Si Si6 0.500000 0.445360 0.837362
Si Si7 0.000000 0.946125 0.280059
O O1 0.841019 0.726906 0.440872
O O2 0.829217 0.814747 0.419501
O O3 0.882206 0.756452 0.347448
O O4 0.000000 0.773606 0.421523
O O5 0.765991 0.338625 0.500000
O O6 0.826377 0.360001 0.409396
O O7 0.750000 0.938422 0.250000
O O8 0.759862 0.906781 0.341563
O O9 0.906245 0.919875 0.296722
O O10 0.803562 0.000000 0.319372
O O11 0.843643 0.669006 0.687761
O O12 0.912641 0.584983 0.646893
O O13 0.855378 0.750000 0.750000
O O14 0.000000 0.792707 0.790274
O O15 0.500000 0.500000 0.862407
O O16 0.500000 0.452597 0.778705
O O17 0.000000 0.000000 0.304970
#
# Coordination Sequence:
#
# PCOD8284391 Si02
#       7
#    32  32  32  32  32  16  16
#     4   9  18  36  58  79 104 145 189 231 274 318
#     4  10  22  37  54  78 105 138 189 242 283 327
#     4  10  19  33  55  82 111 142 180 223 269 330
#     4  11  21  35  55  83 109 147 185 223 281 329
#     4   9  18  33  52  78 118 155 180 213 258 329
#     4  11  20  36  60  85 114 141 181 228 271 331
#     4   9  18  34  54  80 110 141 177 219 265 321
#
# _framework density 18.235057000000001
#
# number of rings (size 3 to 8) (size 9 to 14) (size 15 to 20)
#    0.000    2.167    2.500    1.500    1.167    2.667 
#    1.500    5.833    0.000    2.500    0.000    0.583 
#    0.000    2.000    0.000    0.000    0.000    0.000 
#
# Total GULP energy -594667.901778 kJ/mol
# GULP energy per Si atom -12388.914620 kJ/mol
# Density = 1.819355 g / cm^3
# Si number density = 18.235057 Si / 1000 Ang^3
#
#
#
# Elastic Constant Matrix: (Units=GPa)
#
#
# Indices 1 2 3 4 5 6 
#
# 1 147.6515 45.5438 36.9589 0.0000 0.0000 0.0000
# 2 45.5438 84.5082 43.1410 0.0000 0.0000 0.0000
# 3 36.9589 43.1410 96.7543 0.0000 0.0000 0.0000
# 4 0.0000 0.0000 0.0000 10.9432 0.0000 0.0000
# 5 0.0000 0.0000 0.0000 0.0000 18.1809 0.0000
# 6 0.0000 0.0000 0.0000 0.0000 0.0000 47.1238
#
#
#
# Elastic Compliance Matrix: (Units=1/GPa)
#
#
# Indices 1 2 3 4 5 6 
#
# 1 0.008292 -0.003692 -0.001521 0.000000 0.000000 0.000000
# 2 -0.003692 0.016965 -0.006154 0.000000 0.000000 0.000000
# 3 -0.001521 -0.006154 0.013660 0.000000 0.000000 0.000000
# 4 0.000000 0.000000 0.000000 0.091381 0.000000 0.000000
# 5 0.000000 0.000000 0.000000 0.000000 0.055003 0.000000
# 6 0.000000 0.000000 0.000000 0.000000 0.000000 0.021221
#
#
# Mechanical properties :
#
#
# Convention : Reuss Voigt Hill
#
# Bulk Modulus (GPa) = 61.79470 64.46681 63.13076
# Shear Modulus (GPa) = 21.30824 28.80092 25.05458
#
# Velocity S-wave (km/s) = 3.42209 3.97851 3.71074
# Velocity P-wave (km/s) = 7.04100 7.51896 7.28390
#
# Compressibility (1/GPa) = 0.01618262
#
# Stress axis : x y z
#
# Youngs Moduli (GPa) = 120.59179 58.94629 73.20445
#
# Poissons Ratio (x) = 0.21766 0.11136
# Poissons Ratio (y) = 0.44528 0.45048
# Poissons Ratio (z) = 0.18344 0.36274
#
# Static dielectric constant tensor:
#      x y z
#    x 3.805250 0.000000 0.000000 
#    y 0.000000 3.346600 0.000000 
#    z 0.000000 0.000000 3.130390 
# 
# 
# High freq. dielectric constant tensor:
#      x y z
#    x 1.725210 0.000000 0.000000 
#    y 0.000000 1.685310 0.000000 
#    z 0.000000 0.000000 1.674690 
# 
# From -- ./inp_files/41291.got.cif
#   From: 2010.03.12/outbox.cif.g09.slc.cpg/sg69_21_cif.got.tgz:41291.got - 2010.04.10 23:52:46.
