data_PCOD8284172
_publ_section_title
;
Structure prediction by ZEFSAII (Michael W. Deem and Ramdas Pophale) SiO2 
 PCOD8284172
Probable space group: F M M M
;
_chemical_formula_sum "Si O2"
_cell_formula_units_Z 160
_cell_length_a 27.524363
_cell_length_b 37.355743
_cell_length_c 10.365582
_cell_angle_alpha 90.000000
_cell_angle_beta 90.000000
_cell_angle_gamma 90.000000
_cell_volume 10657.819169
_symmetry_space_group_name_H-M "F M M M"
_symmetry_group_IT_number 69
_symmetry_cell_setting 'orthorhombic'
loop_
_space_group_symop_operation_xyz
x,y,z
-x,-y,z
x,-y,-z
-x,y,-z
-x,-y,-z
x,y,-z
-x,y,z
x,-y,z
x,1/2+y,1/2+z
-x,1/2-y,1/2+z
x,1/2-y,1/2-z
-x,1/2+y,1/2-z
-x,1/2-y,1/2-z
x,1/2+y,1/2-z
-x,1/2+y,1/2+z
x,1/2-y,1/2+z
1/2+x,y,1/2+z
1/2-x,-y,1/2+z
1/2+x,-y,1/2-z
1/2-x,y,1/2-z
1/2-x,-y,1/2-z
1/2+x,y,1/2-z
1/2-x,y,1/2+z
1/2+x,-y,1/2+z
1/2+x,1/2+y,z
1/2-x,1/2-y,z
1/2+x,1/2-y,-z
1/2-x,1/2+y,-z
1/2-x,1/2-y,-z
1/2+x,1/2+y,-z
1/2-x,1/2+y,z
1/2+x,1/2-y,z
loop_
_atom_site_type_symbol
_atom_site_label
_atom_site_fract_x
_atom_site_fract_y
_atom_site_fract_z
Si Si1 0.442041 0.283004 0.500000
Si Si2 0.557805 0.830498 0.765468
Si Si3 0.138150 0.457578 0.239397
Si Si4 0.702236 0.957542 0.000000
Si Si5 0.555972 0.591647 0.652484
Si Si6 0.189036 0.542473 0.500000
Si Si7 0.057936 0.797860 0.000000
O O1 0.500000 0.283054 0.500000
O O2 0.422060 0.303181 0.626749
O O3 0.421919 0.242614 0.500000
O O4 0.500000 0.829761 0.769239
O O5 0.576066 0.870402 0.796349
O O6 0.577745 0.818363 0.626144
O O7 0.130514 0.500000 0.235510
O O8 0.174222 0.444234 0.127024
O O9 0.085721 0.439773 0.221221
O O10 0.160519 0.444261 0.374033
O O11 0.756534 0.941277 0.000000
O O12 0.705108 0.000000 0.000000
O O13 0.562929 0.589808 0.500000
O O14 0.500000 0.586081 0.691247
O O15 0.192756 0.500000 0.500000
O O16 0.000000 0.797360 0.000000
#
# Coordination Sequence:
#
# PCOD8284172 Si02
#       7
#    16  32  32  16  32  16  16
#     4   9  14  23  38  54  75 102 134 174 213 248
#     4   9  16  26  38  54  77 107 141 174 211 251
#     4  10  19  31  47  68  87 110 148 184 216 258
#     4   9  16  29  49  69  87 108 135 171 218 273
#     4  10  19  31  45  59  82 118 156 189 215 246
#     4   9  18  31  47  67  91 108 127 175 234 275
#     4   9  16  23  36  58  77  96 134 182 215 246
#
# _framework density 15.012453000000001
#
# number of rings (size 3 to 8) (size 9 to 14) (size 15 to 20)
#    0.000    2.600    2.000    1.200    0.000    6.000 
#    0.000    2.500    0.000    1.800    0.000    0.000 
#    0.000    0.000    0.000    0.000    0.000   70.000 
#
# Total GULP energy -495951.995712 kJ/mol
# GULP energy per Si atom -12398.799893 kJ/mol
# Density = 1.497828 g / cm^3
# Si number density = 15.012453 Si / 1000 Ang^3
#
#
#
# Elastic Constant Matrix: (Units=GPa)
#
#
# Indices 1 2 3 4 5 6 
#
# 1 63.3379 35.5829 39.8469 0.0007 -0.0004 -0.0006
# 2 35.5829 60.7900 34.1582 0.0003 -0.0006 -0.0002
# 3 39.8469 34.1582 127.6567 0.0018 -0.0014 -0.0019
# 4 0.0007 0.0003 0.0018 21.0508 -0.0014 -0.0011
# 5 -0.0004 -0.0006 -0.0014 -0.0014 15.7834 0.0013
# 6 -0.0006 -0.0002 -0.0019 -0.0011 0.0013 1.4582
#
#
#
# Elastic Compliance Matrix: (Units=1/GPa)
#
#
# Indices 1 2 3 4 5 6 
#
# 1 0.025723 -0.012411 -0.004708 0.000000 0.000000 0.000003
# 2 -0.012411 0.025349 -0.002909 0.000000 0.000000 -0.000006
# 3 -0.004708 -0.002909 0.010082 -0.000001 0.000001 0.000011
# 4 0.000000 0.000000 -0.000001 0.047504 0.000004 0.000036
# 5 0.000000 0.000000 0.000001 0.000004 0.063358 -0.000057
# 6 0.000003 -0.000006 0.000011 0.000036 -0.000057 0.685798
#
#
# Mechanical properties :
#
#
# Convention : Reuss Voigt Hill
#
# Bulk Modulus (GPa) = 47.39958 52.32894 49.86426
# Shear Modulus (GPa) = 5.52546 17.13824 11.33185
#
# Velocity S-wave (km/s) = 1.92057 3.38243 2.75040
# Velocity P-wave (km/s) = 6.04650 7.08429 6.58587
#
# Compressibility (1/GPa) = 0.02109723
#
# Stress axis : x y z
#
# Youngs Moduli (GPa) = 38.87598 39.44873 99.19155
#
# Poissons Ratio (x) = 0.48960 0.46701
# Poissons Ratio (y) = 0.48249 0.28854
# Poissons Ratio (z) = 0.18304 0.11475
#
# Static dielectric constant tensor:
#      x y z
#    x 2.545110 0.000000 0.000000 
#    y 0.000000 2.801440 0.000000 
#    z 0.000000 0.000000 3.140430 
# 
# 
# High freq. dielectric constant tensor:
#      x y z
#    x 1.520740 0.000000 0.000000 
#    y 0.000000 1.557670 0.000000 
#    z 0.000000 0.000000 1.593090 
# 
# From -- ./inp_files/10611.got.cif
#   From: 2010.03.12/outbox.cif.g09.slc.cpg/sg69_6_cif.got.tgz:10611.got - 2010.04.10 23:52:46.
