data_PCOD8284005
_publ_section_title
;
Structure prediction by ZEFSAII (Michael W. Deem and Ramdas Pophale) SiO2 
 PCOD8284005
Probable space group: F M M M
;
_chemical_formula_sum "Si O2"
_cell_formula_units_Z 160
_cell_length_a 17.020373
_cell_length_b 24.978720
_cell_length_c 20.471743
_cell_angle_alpha 90.000000
_cell_angle_beta 90.000000
_cell_angle_gamma 90.000000
_cell_volume 8703.502812
_symmetry_space_group_name_H-M "F M M M"
_symmetry_group_IT_number 69
_symmetry_cell_setting 'orthorhombic'
loop_
_space_group_symop_operation_xyz
x,y,z
-x,-y,z
x,-y,-z
-x,y,-z
-x,-y,-z
x,y,-z
-x,y,z
x,-y,z
x,1/2+y,1/2+z
-x,1/2-y,1/2+z
x,1/2-y,1/2-z
-x,1/2+y,1/2-z
-x,1/2-y,1/2-z
x,1/2+y,1/2-z
-x,1/2+y,1/2+z
x,1/2-y,1/2+z
1/2+x,y,1/2+z
1/2-x,-y,1/2+z
1/2+x,-y,1/2-z
1/2-x,y,1/2-z
1/2-x,-y,1/2-z
1/2+x,y,1/2-z
1/2-x,y,1/2+z
1/2+x,-y,1/2+z
1/2+x,1/2+y,z
1/2-x,1/2-y,z
1/2+x,1/2-y,-z
1/2-x,1/2+y,-z
1/2-x,1/2-y,-z
1/2+x,1/2+y,-z
1/2-x,1/2+y,z
1/2+x,1/2-y,z
loop_
_atom_site_type_symbol
_atom_site_label
_atom_site_fract_x
_atom_site_fract_y
_atom_site_fract_z
Si Si1 0.093556 0.284563 0.810236
Si Si2 0.686769 0.500000 0.073803
Si Si3 0.407947 0.099103 0.622890
Si Si4 0.592098 0.598067 0.275294
Si Si5 0.192910 0.000000 0.311763
Si Si6 0.906469 0.713423 0.427160
O O1 0.127534 0.250000 0.750000
O O2 0.122464 0.345528 0.804161
O O3 0.125156 0.259235 0.878015
O O4 0.000000 0.282820 0.807205
O O5 0.634256 0.447825 0.084478
O O6 0.761010 0.500000 0.120843
O O7 0.718394 0.500000 0.000000
O O8 0.500000 0.093331 0.609921
O O9 0.388029 0.094987 0.699033
O O10 0.375847 0.155606 0.596195
O O11 0.500000 0.590010 0.287735
O O12 0.638450 0.552086 0.312476
O O13 0.250000 0.000000 0.250000
O O14 0.875043 0.725928 0.500000
O O15 0.000000 0.712971 0.425609
#
# Coordination Sequence:
#
# PCOD8284005 Si02
#       6
#    32  16  32  32  16  32
#     4   9  15  27  49  77 108 138 171 214 263 311
#     4  12  25  38  53  76 111 150 182 221 273 327
#     4  10  18  31  54  85 116 144 174 215 271 330
#     4  10  19  34  59  86 109 137 180 230 268 307
#     4  12  23  39  57  77 107 144 186 226 264 319
#     4   9  16  26  44  76 115 145 171 210 262 320
#
# _framework density 18.383403000000001
#
# number of rings (size 3 to 8) (size 9 to 14) (size 15 to 20)
#    0.000    2.000    4.000    1.200    0.000    3.200 
#    0.000    1.000    0.000    6.600    0.000    2.800 
#    0.000    0.000    0.000    0.000    0.000    0.000 
#
# Total GULP energy -496015.940159 kJ/mol
# GULP energy per Si atom -12400.398504 kJ/mol
# Density = 1.834156 g / cm^3
# Si number density = 18.383403 Si / 1000 Ang^3
#
#
#
# Elastic Constant Matrix: (Units=GPa)
#
#
# Indices 1 2 3 4 5 6 
#
# 1 29.1573 37.9441 41.1764 0.0000 0.0000 0.0000
# 2 37.9441 168.2180 78.4230 0.0000 0.0000 0.0000
# 3 41.1764 78.4230 147.9227 0.0000 0.0000 0.0000
# 4 0.0000 0.0000 0.0000 18.0625 0.0000 0.0000
# 5 0.0000 0.0000 0.0000 0.0000 18.6634 0.0000
# 6 0.0000 0.0000 0.0000 0.0000 0.0000 -4.7982
#
#
#
# Elastic Compliance Matrix: (Units=1/GPa)
#
#
# Indices 1 2 3 4 5 6 
#
# 1 0.063918 -0.008133 -0.013481 0.000000 0.000000 0.000000
# 2 -0.008133 0.008931 -0.002471 0.000000 0.000000 0.000000
# 3 -0.013481 -0.002471 0.011823 0.000000 0.000000 0.000000
# 4 0.000000 0.000000 0.000000 0.055363 0.000000 0.000000
# 5 0.000000 0.000000 0.000000 0.000000 0.053581 0.000000
# 6 0.000000 0.000000 0.000000 0.000000 0.000000 -0.208411
#
#
# Mechanical properties :
#
#
# Convention : Reuss Voigt Hill
#
# Bulk Modulus (GPa) = 27.39515 73.37611 50.38563
# Shear Modulus (GPa) = 109.78746 18.90251 64.34498
#
# Velocity S-wave (km/s) = 7.73632 3.21009 5.92264
# Velocity P-wave (km/s) = 9.73321 7.33080 8.61614
#
# Compressibility (1/GPa) = 0.03650282
#
# Stress axis : x y z
#
# Youngs Moduli (GPa) = 15.64494 111.96718 84.58174
#
# Poissons Ratio (x) = 0.91064 1.14023
# Poissons Ratio (y) = 0.12724 0.20900
# Poissons Ratio (z) = 0.21091 0.27667
#
# Static dielectric constant tensor:
#      x y z
#    x 2.935650 0.000000 0.000000 
#    y 0.000000 3.618420 0.000000 
#    z 0.000000 0.000000 3.506640 
# 
# 
# High freq. dielectric constant tensor:
#      x y z
#    x 1.666730 0.000000 0.000000 
#    y 0.000000 1.728830 0.000000 
#    z 0.000000 0.000000 1.709940 
# 
# From -- ./inp_files/23189.got.cif
#   From: 2010.03.12/outbox.cif.g09.slc.cpg/sg69_12_cif.got.tgz:23189.got - 2010.04.10 23:52:46.
