data_PCOD8284235
_publ_section_title
;
Structure prediction by ZEFSAII (Michael W. Deem and Ramdas Pophale) SiO2 
 PCOD8284235
Probable space group: F M M M
;
_chemical_formula_sum "Si O2"
_cell_formula_units_Z 176
_cell_length_a 28.172351
_cell_length_b 19.414981
_cell_length_c 16.119297
_cell_angle_alpha 90.000000
_cell_angle_beta 90.000000
_cell_angle_gamma 90.000000
_cell_volume 8816.701913
_symmetry_space_group_name_H-M "F M M M"
_symmetry_group_IT_number 69
_symmetry_cell_setting 'orthorhombic'
loop_
_space_group_symop_operation_xyz
x,y,z
-x,-y,z
x,-y,-z
-x,y,-z
-x,-y,-z
x,y,-z
-x,y,z
x,-y,z
x,1/2+y,1/2+z
-x,1/2-y,1/2+z
x,1/2-y,1/2-z
-x,1/2+y,1/2-z
-x,1/2-y,1/2-z
x,1/2+y,1/2-z
-x,1/2+y,1/2+z
x,1/2-y,1/2+z
1/2+x,y,1/2+z
1/2-x,-y,1/2+z
1/2+x,-y,1/2-z
1/2-x,y,1/2-z
1/2-x,-y,1/2-z
1/2+x,y,1/2-z
1/2-x,y,1/2+z
1/2+x,-y,1/2+z
1/2+x,1/2+y,z
1/2-x,1/2-y,z
1/2+x,1/2-y,-z
1/2-x,1/2+y,-z
1/2-x,1/2-y,-z
1/2+x,1/2+y,-z
1/2-x,1/2+y,z
1/2+x,1/2-y,z
loop_
_atom_site_type_symbol
_atom_site_label
_atom_site_fract_x
_atom_site_fract_y
_atom_site_fract_z
Si Si1 0.857882 0.500000 0.722482
Si Si2 0.946335 0.638516 0.096925
Si Si3 0.785198 0.644408 0.131239
Si Si4 0.817140 0.356731 0.682577
Si Si5 0.365289 0.740871 0.591456
Si Si6 0.553814 0.500000 0.304157
Si Si7 0.677066 0.500000 0.407342
O O1 0.834642 0.435343 0.676517
O O2 0.915235 0.500000 0.718375
O O3 0.855172 0.500000 0.824588
O O4 0.908331 0.694937 0.128588
O O5 0.934800 0.567260 0.141528
O O6 0.000000 0.664066 0.115826
O O7 0.938734 0.625005 0.000000
O O8 0.803776 0.657824 0.223605
O O9 0.728906 0.658413 0.125282
O O10 0.817016 0.696591 0.078519
O O11 0.790179 0.566997 0.098799
O O12 0.858497 0.305650 0.652509
O O13 0.379366 0.768256 0.500000
O O14 0.500000 0.500000 0.273611
O O15 0.652099 0.500000 0.500000
#
# Coordination Sequence:
#
# PCOD8284235 Si02
#       7
#    16  32  32  32  32  16  16
#     4  10  21  38  56  72 104 144 180 214 256 320
#     4   9  18  33  53  79 110 139 166 203 260 323
#     4  10  20  34  53  75 105 141 176 210 258 323
#     4  10  21  37  53  72 102 145 181 210 258 316
#     4  11  22  34  52  79 107 137 178 223 260 298
#     4  10  19  32  54  82 106 131 167 213 260 307
#     4  10  19  31  52  80 104 131 170 217 264 309
#
# _framework density 19.962114
#
# number of rings (size 3 to 8) (size 9 to 14) (size 15 to 20)
#    0.000    2.000    0.000    4.636    0.000    9.091 
#    0.000    1.364    0.000    4.364    0.000    0.000 
#    0.000    3.636    0.000    0.000    0.000    0.000 
#
# Total GULP energy -545308.143054 kJ/mol
# GULP energy per Si atom -12393.366888 kJ/mol
# Density = 1.991668 g / cm^3
# Si number density = 19.962114 Si / 1000 Ang^3
#
#
#
# Elastic Constant Matrix: (Units=GPa)
#
#
# Indices 1 2 3 4 5 6 
#
# 1 127.0278 64.3606 28.7690 0.0000 0.0000 0.0000
# 2 64.3606 124.5135 36.7450 0.0000 0.0000 0.0000
# 3 28.7690 36.7450 47.3786 0.0000 0.0000 0.0000
# 4 0.0000 0.0000 0.0000 5.6022 0.0000 0.0000
# 5 0.0000 0.0000 0.0000 0.0000 23.2011 0.0000
# 6 0.0000 0.0000 0.0000 0.0000 0.0000 35.5257
#
#
#
# Elastic Compliance Matrix: (Units=1/GPa)
#
#
# Indices 1 2 3 4 5 6 
#
# 1 0.010972 -0.004805 -0.002936 0.000000 0.000000 0.000000
# 2 -0.004805 0.012519 -0.006792 0.000000 0.000000 0.000000
# 3 -0.002936 -0.006792 0.028157 0.000000 0.000000 0.000000
# 4 0.000000 0.000000 0.000000 0.178502 0.000000 0.000000
# 5 0.000000 0.000000 0.000000 0.000000 0.043101 0.000000
# 6 0.000000 0.000000 0.000000 0.000000 0.000000 0.028149
#
#
# Mechanical properties :
#
#
# Convention : Reuss Voigt Hill
#
# Bulk Modulus (GPa) = 44.28159 62.07434 53.17796
# Shear Modulus (GPa) = 14.79327 24.13548 19.46437
#
# Velocity S-wave (km/s) = 2.72521 3.48093 3.12599
# Velocity P-wave (km/s) = 5.66863 6.87891 6.30289
#
# Compressibility (1/GPa) = 0.02258275
#
# Stress axis : x y z
#
# Youngs Moduli (GPa) = 91.14439 79.87734 35.51561
#
# Poissons Ratio (x) = 0.38380 0.10426
# Poissons Ratio (y) = 0.43793 0.24122
# Poissons Ratio (z) = 0.26757 0.54251
#
# Static dielectric constant tensor:
#      x y z
#    x 3.814370 0.000000 0.000000 
#    y 0.000000 3.588090 0.000000 
#    z 0.000000 0.000000 3.381560 
# 
# 
# High freq. dielectric constant tensor:
#      x y z
#    x 1.776000 0.000000 0.000000 
#    y 0.000000 1.780330 0.000000 
#    z 0.000000 0.000000 1.748440 
# 
# From -- ./inp_files/26801.got.cif
#   From: 2010.03.12/outbox.cif.g09.slc.cpg/sg69_14_cif.got.tgz:26801.got - 2010.04.10 23:52:46.
