data_PCOD8284917
_publ_section_title
;
Structure prediction by ZEFSAII (Michael W. Deem and Ramdas Pophale) SiO2 
 PCOD8284917
Probable space group: F M M M
;
_chemical_formula_sum "Si O2"
_cell_formula_units_Z 160
_cell_length_a 21.575573
_cell_length_b 18.652250
_cell_length_c 19.947720
_cell_angle_alpha 90.000000
_cell_angle_beta 90.000000
_cell_angle_gamma 90.000000
_cell_volume 8027.620434
_symmetry_space_group_name_H-M "F M M M"
_symmetry_group_IT_number 69
_symmetry_cell_setting 'orthorhombic'
loop_
_space_group_symop_operation_xyz
x,y,z
-x,-y,z
x,-y,-z
-x,y,-z
-x,-y,-z
x,y,-z
-x,y,z
x,-y,z
x,1/2+y,1/2+z
-x,1/2-y,1/2+z
x,1/2-y,1/2-z
-x,1/2+y,1/2-z
-x,1/2-y,1/2-z
x,1/2+y,1/2-z
-x,1/2+y,1/2+z
x,1/2-y,1/2+z
1/2+x,y,1/2+z
1/2-x,-y,1/2+z
1/2+x,-y,1/2-z
1/2-x,y,1/2-z
1/2-x,-y,1/2-z
1/2+x,y,1/2-z
1/2-x,y,1/2+z
1/2+x,-y,1/2+z
1/2+x,1/2+y,z
1/2-x,1/2-y,z
1/2+x,1/2-y,-z
1/2-x,1/2+y,-z
1/2-x,1/2-y,-z
1/2+x,1/2+y,-z
1/2-x,1/2+y,z
1/2+x,1/2-y,z
loop_
_atom_site_type_symbol
_atom_site_label
_atom_site_fract_x
_atom_site_fract_y
_atom_site_fract_z
Si Si1 0.072039 0.290107 0.819426
Si Si2 0.500000 0.920736 0.420709
Si Si3 0.386611 0.675495 0.078833
Si Si4 0.637640 0.082572 0.132763
Si Si5 0.931388 0.915284 0.500000
Si Si6 0.230776 0.919141 0.076838
O O1 0.080025 0.250000 0.750000
O O2 0.106627 0.247796 0.879101
O O3 0.107829 0.366245 0.810620
O O4 0.000000 0.302073 0.837227
O O5 0.500000 0.927548 0.500000
O O6 0.439657 0.878644 0.396055
O O7 0.500000 0.000000 0.388295
O O8 0.321266 0.638400 0.095192
O O9 0.392986 0.693338 0.000000
O O10 0.605170 0.110049 0.065066
O O11 0.711266 0.093772 0.125859
O O12 0.622183 0.000000 0.149899
O O13 0.000000 0.880638 0.500000
O O14 0.935816 0.000000 0.500000
O O15 0.204664 0.000000 0.086723
O O16 0.252940 0.909915 0.000000
#
# Coordination Sequence:
#
# PCOD8284917 Si02
#       6
#    32  16  32  32  16  32
#     4  11  25  43  60  81 122 160 196 252 312 361
#     4   9  16  30  53  84 115 145 193 250 288 330
#     4  10  20  35  59  89 117 154 200 242 300 359
#     4  10  20  37  60  88 119 155 200 242 295 361
#     4   9  16  28  52  87 116 141 187 244 289 335
#     4   9  17  33  58  91 128 158 191 245 301 353
#
# _framework density 19.931187000000001
#
# number of rings (size 3 to 8) (size 9 to 14) (size 15 to 20)
#    0.000    2.200    2.000    1.200    1.400    4.400 
#    0.000    6.000    0.000    2.400    0.000    0.000 
#    0.000    0.000    0.000    0.000    0.000    0.000 
#
# Total GULP energy -495980.061513 kJ/mol
# GULP energy per Si atom -12399.501538 kJ/mol
# Density = 1.988582 g / cm^3
# Si number density = 19.931187 Si / 1000 Ang^3
#
#
#
# Elastic Constant Matrix: (Units=GPa)
#
#
# Indices 1 2 3 4 5 6 
#
# 1 119.6528 66.0521 35.1959 0.0000 0.0000 0.0000
# 2 66.0521 129.8618 42.1543 0.0000 0.0000 0.0000
# 3 35.1959 42.1543 48.9979 0.0000 0.0000 0.0000
# 4 0.0000 0.0000 0.0000 24.6382 0.0000 0.0000
# 5 0.0000 0.0000 0.0000 0.0000 20.0501 0.0000
# 6 0.0000 0.0000 0.0000 0.0000 0.0000 35.0647
#
#
#
# Elastic Compliance Matrix: (Units=1/GPa)
#
#
# Indices 1 2 3 4 5 6 
#
# 1 0.012392 -0.004736 -0.004827 0.000000 0.000000 0.000000
# 2 -0.004736 0.012494 -0.007347 0.000000 0.000000 0.000000
# 3 -0.004827 -0.007347 0.030197 0.000000 0.000000 0.000000
# 4 0.000000 0.000000 0.000000 0.040587 0.000000 0.000000
# 5 0.000000 0.000000 0.000000 0.000000 0.049875 0.000000
# 6 0.000000 0.000000 0.000000 0.000000 0.000000 0.028519
#
#
# Mechanical properties :
#
#
# Convention : Reuss Voigt Hill
#
# Bulk Modulus (GPa) = 47.02930 65.03523 56.03226
# Shear Modulus (GPa) = 23.25883 26.29128 24.77505
#
# Velocity S-wave (km/s) = 3.41978 3.63589 3.52949
# Velocity P-wave (km/s) = 6.26420 7.09415 6.69205
#
# Compressibility (1/GPa) = 0.02126334
#
# Stress axis : x y z
#
# Youngs Moduli (GPa) = 80.69898 80.03568 33.11578
#
# Poissons Ratio (x) = 0.37906 0.15984
# Poissons Ratio (y) = 0.38220 0.24331
# Poissons Ratio (z) = 0.38950 0.58804
#
# Static dielectric constant tensor:
#      x y z
#    x 3.680670 0.000000 0.000000 
#    y 0.000000 3.629610 0.000000 
#    z 0.000000 0.000000 3.237210 
# 
# 
# High freq. dielectric constant tensor:
#      x y z
#    x 1.785140 0.000000 0.000000 
#    y 0.000000 1.782660 0.000000 
#    z 0.000000 0.000000 1.733550 
# 
# From -- ./inp_files/24607.got.cif
#   From: 2010.03.12/outbox.cif.g09.slc.cpg/sg69_13_cif.got.tgz:24607.got - 2010.04.10 23:52:46.
