data_PCOD8284067
_publ_section_title
;
Structure prediction by ZEFSAII (Michael W. Deem and Ramdas Pophale) SiO2 
 PCOD8284067
Probable space group: F M M M
;
_chemical_formula_sum "Si O2"
_cell_formula_units_Z 192
_cell_length_a 18.624427
_cell_length_b 17.627006
_cell_length_c 29.481477
_cell_angle_alpha 90.000000
_cell_angle_beta 90.000000
_cell_angle_gamma 90.000000
_cell_volume 9678.559182
_symmetry_space_group_name_H-M "F M M M"
_symmetry_group_IT_number 69
_symmetry_cell_setting 'orthorhombic'
loop_
_space_group_symop_operation_xyz
x,y,z
-x,-y,z
x,-y,-z
-x,y,-z
-x,-y,-z
x,y,-z
-x,y,z
x,-y,z
x,1/2+y,1/2+z
-x,1/2-y,1/2+z
x,1/2-y,1/2-z
-x,1/2+y,1/2-z
-x,1/2-y,1/2-z
x,1/2+y,1/2-z
-x,1/2+y,1/2+z
x,1/2-y,1/2+z
1/2+x,y,1/2+z
1/2-x,-y,1/2+z
1/2+x,-y,1/2-z
1/2-x,y,1/2-z
1/2-x,-y,1/2-z
1/2+x,y,1/2-z
1/2-x,y,1/2+z
1/2+x,-y,1/2+z
1/2+x,1/2+y,z
1/2-x,1/2-y,z
1/2+x,1/2-y,-z
1/2-x,1/2+y,-z
1/2-x,1/2-y,-z
1/2+x,1/2+y,-z
1/2-x,1/2+y,z
1/2+x,1/2-y,z
loop_
_atom_site_type_symbol
_atom_site_label
_atom_site_fract_x
_atom_site_fract_y
_atom_site_fract_z
Si Si1 0.670331 0.219238 0.676152
Si Si2 0.919103 0.861479 0.316137
Si Si3 0.792188 0.680202 0.419178
Si Si4 0.082318 0.085825 0.218477
Si Si5 0.158817 0.587781 0.096204
Si Si6 0.355077 0.583093 0.500000
Si Si7 0.183647 0.915145 0.000000
O O1 0.750000 0.250000 0.689016
O O2 0.618244 0.282598 0.695502
O O3 0.659299 0.213277 0.621555
O O4 0.644511 0.139564 0.697707
O O5 0.909664 0.915666 0.272935
O O6 0.891433 0.903346 0.360913
O O7 0.000000 0.840865 0.326327
O O8 0.750000 0.750000 0.443658
O O9 0.734667 0.626864 0.393304
O O10 0.839791 0.632613 0.455244
O O11 0.000000 0.110921 0.205626
O O12 0.096379 0.000000 0.201164
O O13 0.174501 0.500000 0.086457
O O14 0.124331 0.622391 0.048498
O O15 0.390543 0.500000 0.500000
O O16 0.268816 0.579689 0.500000
O O17 0.149177 0.000000 0.000000
#
# Coordination Sequence:
#
# PCOD8284067 Si02
#       7
#    32  32  32  32  32  16  16
#     4  11  22  40  58  88 119 148 188 241 298 348
#     4  11  22  39  59  81 113 153 192 232 285 350
#     4  10  18  33  52  81 116 149 187 230 281 341
#     4  10  23  42  63  85 110 152 204 246 290 349
#     4  10  18  33  54  80 112 147 185 229 278 334
#     4   7  14  27  48  74 104 140 178 218 268 326
#     4   9  17  29  51  81 112 150 189 229 279 334
#
# _framework density 19.837664
#
# number of rings (size 3 to 8) (size 9 to 14) (size 15 to 20)
#    0.000    2.000    3.333    3.250    0.000    5.000 
#    0.000    1.250    0.000    1.500    0.000    1.750 
#    0.000    4.000    0.000    0.000    0.000    0.000 
#
# Total GULP energy -594643.674048 kJ/mol
# GULP energy per Si atom -12388.409876 kJ/mol
# Density = 1.979251 g / cm^3
# Si number density = 19.837664 Si / 1000 Ang^3
#
#
#
# Elastic Constant Matrix: (Units=GPa)
#
#
# Indices 1 2 3 4 5 6 
#
# 1 56.4047 18.5847 9.6143 0.0000 0.0000 0.0000
# 2 18.5847 94.8567 9.7359 0.0000 0.0000 0.0000
# 3 9.6143 9.7359 75.4194 0.0000 0.0000 0.0000
# 4 0.0000 0.0000 0.0000 35.0165 0.0000 0.0000
# 5 0.0000 0.0000 0.0000 0.0000 10.9525 0.0000
# 6 0.0000 0.0000 0.0000 0.0000 0.0000 25.0706
#
#
#
# Elastic Compliance Matrix: (Units=1/GPa)
#
#
# Indices 1 2 3 4 5 6 
#
# 1 0.019244 -0.003566 -0.001993 0.000000 0.000000 0.000000
# 2 -0.003566 0.011344 -0.001010 0.000000 0.000000 0.000000
# 3 -0.001993 -0.001010 0.013644 0.000000 0.000000 0.000000
# 4 0.000000 0.000000 0.000000 0.028558 0.000000 0.000000
# 5 0.000000 0.000000 0.000000 0.000000 0.091304 0.000000
# 6 0.000000 0.000000 0.000000 0.000000 0.000000 0.039887
#
#
# Mechanical properties :
#
#
# Convention : Reuss Voigt Hill
#
# Bulk Modulus (GPa) = 32.15980 33.61672 32.88826
# Shear Modulus (GPa) = 21.97970 26.79097 24.38533
#
# Velocity S-wave (km/s) = 3.33224 3.67892 3.50986
# Velocity P-wave (km/s) = 5.57241 5.91850 5.74806
#
# Compressibility (1/GPa) = 0.03109472
#
# Stress axis : x y z
#
# Youngs Moduli (GPa) = 51.96539 88.14859 73.29445
#
# Poissons Ratio (x) = 0.31431 0.14606
# Poissons Ratio (y) = 0.18529 0.07402
# Poissons Ratio (z) = 0.10356 0.08902
#
# Static dielectric constant tensor:
#      x y z
#    x 3.198680 0.000000 0.000000 
#    y 0.000000 3.812970 0.000000 
#    z 0.000000 0.000000 3.867120 
# 
# 
# High freq. dielectric constant tensor:
#      x y z
#    x 1.716750 0.000000 0.000000 
#    y 0.000000 1.783160 0.000000 
#    z 0.000000 0.000000 1.784900 
# 
# From -- ./inp_files/46445.got.cif
#   From: 2010.03.12/outbox.cif.g09.slc.cpg/sg69_24_cif.got.tgz:46445.got - 2010.04.10 23:52:46.
