data_PCOD8284090
_publ_section_title
;
Structure prediction by ZEFSAII (Michael W. Deem and Ramdas Pophale) SiO2 
 PCOD8284090
Probable space group: F M M M
;
_chemical_formula_sum "Si O2"
_cell_formula_units_Z 176
_cell_length_a 26.884152
_cell_length_b 18.217942
_cell_length_c 17.814012
_cell_angle_alpha 90.000000
_cell_angle_beta 90.000000
_cell_angle_gamma 90.000000
_cell_volume 8724.838521
_symmetry_space_group_name_H-M "F M M M"
_symmetry_group_IT_number 69
_symmetry_cell_setting 'orthorhombic'
loop_
_space_group_symop_operation_xyz
x,y,z
-x,-y,z
x,-y,-z
-x,y,-z
-x,-y,-z
x,y,-z
-x,y,z
x,-y,z
x,1/2+y,1/2+z
-x,1/2-y,1/2+z
x,1/2-y,1/2-z
-x,1/2+y,1/2-z
-x,1/2-y,1/2-z
x,1/2+y,1/2-z
-x,1/2+y,1/2+z
x,1/2-y,1/2+z
1/2+x,y,1/2+z
1/2-x,-y,1/2+z
1/2+x,-y,1/2-z
1/2-x,y,1/2-z
1/2-x,-y,1/2-z
1/2+x,y,1/2-z
1/2-x,y,1/2+z
1/2+x,-y,1/2+z
1/2+x,1/2+y,z
1/2-x,1/2-y,z
1/2+x,1/2-y,-z
1/2-x,1/2+y,-z
1/2-x,1/2-y,-z
1/2+x,1/2+y,-z
1/2-x,1/2+y,z
1/2+x,1/2-y,z
loop_
_atom_site_type_symbol
_atom_site_label
_atom_site_fract_x
_atom_site_fract_y
_atom_site_fract_z
Si Si1 0.824369 0.680548 0.086812
Si Si2 0.000000 0.915831 0.419051
Si Si3 0.756673 0.084744 0.836390
Si Si4 0.943608 0.172884 0.158929
Si Si5 0.078944 0.839812 0.673722
Si Si6 0.656688 0.349284 0.915310
O O1 0.774142 0.638877 0.109385
O O2 0.865068 0.651581 0.145354
O O3 0.820813 0.767953 0.097416
O O4 0.837684 0.662395 0.000000
O O5 0.951199 0.898676 0.372554
O O6 0.000000 0.874057 0.500000
O O7 0.000000 0.000000 0.436395
O O8 0.750000 0.107717 0.750000
O O9 0.814252 0.096060 0.859550
O O10 0.740977 0.000000 0.848738
O O11 0.925118 0.141612 0.238612
O O12 0.944567 0.260565 0.158534
O O13 0.902807 0.145838 0.099027
O O14 0.000000 0.145411 0.140105
O O15 0.665662 0.375338 0.000000
#
# Coordination Sequence:
#
# PCOD8284090 Si02
#       6
#    32  16  32  32  32  32
#     4  10  21  36  59  89 118 151 190 235 288 349
#     4  11  22  33  48  74 115 160 190 221 275 336
#     4  11  24  41  60  84 114 153 197 238 289 349
#     4  10  18  34  61  86 110 147 194 243 291 332
#     4  10  18  35  55  82 114 148 191 237 279 334
#     4  10  22  38  59  90 121 149 189 242 295 345
#
# _framework density 20.172293
#
# number of rings (size 3 to 8) (size 9 to 14) (size 15 to 20)
#    0.000    1.727    1.818    3.273    0.000    7.636 
#    0.000    0.909    0.000    0.000    0.000    1.273 
#    0.000    0.000    0.000    0.000    0.000    0.000 
#
# Total GULP energy -545555.279919 kJ/mol
# GULP energy per Si atom -12398.983635 kJ/mol
# Density = 2.012638 g / cm^3
# Si number density = 20.172293 Si / 1000 Ang^3
#
#
#
# Elastic Constant Matrix: (Units=GPa)
#
#
# Indices 1 2 3 4 5 6 
#
# 1 118.0594 25.0584 45.1840 0.0000 0.0000 0.0000
# 2 25.0584 41.8366 38.4059 0.0000 0.0000 0.0000
# 3 45.1840 38.4059 117.0099 0.0000 0.0000 0.0000
# 4 0.0000 0.0000 0.0000 22.6845 0.0000 0.0000
# 5 0.0000 0.0000 0.0000 0.0000 40.7929 0.0000
# 6 0.0000 0.0000 0.0000 0.0000 0.0000 18.5079
#
#
#
# Elastic Compliance Matrix: (Units=1/GPa)
#
#
# Indices 1 2 3 4 5 6 
#
# 1 0.010306 -0.003606 -0.002796 0.000000 0.000000 0.000000
# 2 -0.003606 0.035472 -0.010251 0.000000 0.000000 0.000000
# 3 -0.002796 -0.010251 0.012991 0.000000 0.000000 0.000000
# 4 0.000000 0.000000 0.000000 0.044083 0.000000 0.000000
# 5 0.000000 0.000000 0.000000 0.000000 0.024514 0.000000
# 6 0.000000 0.000000 0.000000 0.000000 0.000000 0.054031
#
#
# Mechanical properties :
#
#
# Convention : Reuss Voigt Hill
#
# Bulk Modulus (GPa) = 39.27188 54.91138 47.09163
# Shear Modulus (GPa) = 22.40246 27.61422 25.00834
#
# Velocity S-wave (km/s) = 3.33612 3.70390 3.52481
# Velocity P-wave (km/s) = 5.86089 6.75072 6.32148
#
# Compressibility (1/GPa) = 0.02546351
#
# Stress axis : x y z
#
# Youngs Moduli (GPa) = 97.03267 28.19097 76.97923
#
# Poissons Ratio (x) = 0.10166 0.21524
# Poissons Ratio (y) = 0.34990 0.78908
# Poissons Ratio (z) = 0.27131 0.28897
#
# Static dielectric constant tensor:
#      x y z
#    x 3.647710 0.000000 0.000000 
#    y 0.000000 3.295350 0.000000 
#    z 0.000000 0.000000 3.765860 
# 
# 
# High freq. dielectric constant tensor:
#      x y z
#    x 1.795640 0.000000 0.000000 
#    y 0.000000 1.750910 0.000000 
#    z 0.000000 0.000000 1.797610 
# 
# From -- ./inp_files/26730.got.cif
#   From: 2010.03.12/outbox.cif.g09.slc.cpg/sg69_14_cif.got.tgz:26730.got - 2010.04.10 23:52:46.
