data_PCOD8284135
_publ_section_title
;
Structure prediction by ZEFSAII (Michael W. Deem and Ramdas Pophale) SiO2 
 PCOD8284135
Probable space group: F M M M
;
_chemical_formula_sum "Si O2"
_cell_formula_units_Z 144
_cell_length_a 29.913323
_cell_length_b 8.945733
_cell_length_c 26.266848
_cell_angle_alpha 90.000000
_cell_angle_beta 90.000000
_cell_angle_gamma 90.000000
_cell_volume 7028.919236
_symmetry_space_group_name_H-M "F M M M"
_symmetry_group_IT_number 69
_symmetry_cell_setting 'orthorhombic'
loop_
_space_group_symop_operation_xyz
x,y,z
-x,-y,z
x,-y,-z
-x,y,-z
-x,-y,-z
x,y,-z
-x,y,z
x,-y,z
x,1/2+y,1/2+z
-x,1/2-y,1/2+z
x,1/2-y,1/2-z
-x,1/2+y,1/2-z
-x,1/2-y,1/2-z
x,1/2+y,1/2-z
-x,1/2+y,1/2+z
x,1/2-y,1/2+z
1/2+x,y,1/2+z
1/2-x,-y,1/2+z
1/2+x,-y,1/2-z
1/2-x,y,1/2-z
1/2-x,-y,1/2-z
1/2+x,y,1/2-z
1/2-x,y,1/2+z
1/2+x,-y,1/2+z
1/2+x,1/2+y,z
1/2-x,1/2-y,z
1/2+x,1/2-y,-z
1/2-x,1/2+y,-z
1/2-x,1/2-y,-z
1/2+x,1/2+y,-z
1/2-x,1/2+y,z
1/2+x,1/2-y,z
loop_
_atom_site_type_symbol
_atom_site_label
_atom_site_fract_x
_atom_site_fract_y
_atom_site_fract_z
Si Si1 0.801958 0.665894 0.798087
Si Si2 0.106475 0.322490 0.595853
Si Si3 0.949743 0.822263 0.000000
Si Si4 0.293053 0.825346 0.598782
Si Si5 0.593724 0.665441 0.299459
O O1 0.781111 0.500000 0.806705
O O2 0.780845 0.750000 0.750000
O O3 0.789478 0.779117 0.842738
O O4 0.854226 0.646700 0.790278
O O5 0.105515 0.500000 0.602767
O O6 0.075434 0.264070 0.550222
O O7 0.157361 0.271360 0.581189
O O8 0.086465 0.253875 0.647714
O O9 0.000000 0.758215 0.000000
O O10 0.949818 0.000000 0.000000
O O11 0.250000 0.750000 0.569835
O O12 0.288027 0.000000 0.590655
O O13 0.571750 0.500000 0.303563
O O14 0.572695 0.750000 0.250000
#
# Coordination Sequence:
#
# PCOD8284135 Si02
#       5
#    32  32  16  32  32
#     4   9  16  26  40  61  92 132 178 222 261 300
#     4   9  18  33  54  80 109 140 177 222 267 313
#     4   9  18  36  64  91 109 131 169 217 270 327
#     4  10  19  30  44  65  97 136 176 215 255 301
#     4   9  16  27  47  75 108 145 181 218 263 315
#
# _framework density 20.486789999999999
#
# number of rings (size 3 to 8) (size 9 to 14) (size 15 to 20)
#    0.000    2.778    0.000    2.000    0.000    6.667 
#    0.000    3.333    0.000    2.000    0.000    0.000 
#    0.000    0.000    0.000    0.000    0.000    0.000 
#
# Total GULP energy -445980.375235 kJ/mol
# GULP energy per Si atom -12388.343757 kJ/mol
# Density = 2.044016 g / cm^3
# Si number density = 20.486790 Si / 1000 Ang^3
#
#
#
# Elastic Constant Matrix: (Units=GPa)
#
#
# Indices 1 2 3 4 5 6 
#
# 1 105.5565 24.3644 63.2731 0.0000 0.0000 -0.0001
# 2 24.3644 71.2115 39.5809 0.0000 0.0000 -0.0001
# 3 63.2731 39.5809 132.1099 0.0000 0.0000 0.0000
# 4 0.0000 0.0000 0.0000 15.1533 0.0000 0.0000
# 5 0.0000 0.0000 0.0000 0.0000 3.4171 0.0000
# 6 -0.0001 -0.0001 0.0000 0.0000 0.0000 11.3214
#
#
#
# Elastic Compliance Matrix: (Units=1/GPa)
#
#
# Indices 1 2 3 4 5 6 
#
# 1 0.013376 -0.001219 -0.006041 0.000000 0.000000 0.000000
# 2 -0.001219 0.016959 -0.004497 0.000000 0.000000 0.000000
# 3 -0.006041 -0.004497 0.011810 0.000000 0.000000 0.000000
# 4 0.000000 0.000000 0.000000 0.065992 0.000000 0.000000
# 5 0.000000 0.000000 0.000000 0.000000 0.292643 -0.000001
# 6 0.000000 0.000000 0.000000 0.000000 -0.000001 0.088329
#
#
# Mechanical properties :
#
#
# Convention : Reuss Voigt Hill
#
# Bulk Modulus (GPa) = 53.67372 62.59054 58.13213
# Shear Modulus (GPa) = 9.63697 18.08899 13.86298
#
# Velocity S-wave (km/s) = 2.17122 2.97469 2.60413
# Velocity P-wave (km/s) = 5.70453 6.51278 6.12201
#
# Compressibility (1/GPa) = 0.01863109
#
# Stress axis : x y z
#
# Youngs Moduli (GPa) = 74.75956 58.96423 84.67121
#
# Poissons Ratio (x) = 0.07186 0.51153
# Poissons Ratio (y) = 0.09111 0.38081
# Poissons Ratio (z) = 0.45165 0.26519
#
# Static dielectric constant tensor:
#      x y z
#    x 3.860610 0.000000 0.000000 
#    y 0.000000 3.794330 0.000000 
#    z 0.000000 0.000000 3.532720 
# 
# 
# High freq. dielectric constant tensor:
#      x y z
#    x 1.783600 0.000000 0.000000 
#    y 0.000000 1.792590 0.000000 
#    z 0.000000 0.000000 1.778180 
# 
# From -- ./inp_files/5572.got.cif
#   From: 2010.03.12/outbox.cif.g09.slc.cpg/sg69_3_cif.got.tgz:5572.got - 2010.04.10 23:52:46.
