data_PCOD8284534
_publ_section_title
;
Structure prediction by ZEFSAII (Michael W. Deem and Ramdas Pophale) SiO2 
 PCOD8284534
Probable space group: F M M M
;
_chemical_formula_sum "Si O2"
_cell_formula_units_Z 168
_cell_length_a 14.167119
_cell_length_b 23.858993
_cell_length_c 26.192389
_cell_angle_alpha 90.000000
_cell_angle_beta 90.000000
_cell_angle_gamma 90.000000
_cell_volume 8853.373040
_symmetry_space_group_name_H-M "F M M M"
_symmetry_group_IT_number 69
_symmetry_cell_setting 'orthorhombic'
loop_
_space_group_symop_operation_xyz
x,y,z
-x,-y,z
x,-y,-z
-x,y,-z
-x,-y,-z
x,y,-z
-x,y,z
x,-y,z
x,1/2+y,1/2+z
-x,1/2-y,1/2+z
x,1/2-y,1/2-z
-x,1/2+y,1/2-z
-x,1/2-y,1/2-z
x,1/2+y,1/2-z
-x,1/2+y,1/2+z
x,1/2-y,1/2+z
1/2+x,y,1/2+z
1/2-x,-y,1/2+z
1/2+x,-y,1/2-z
1/2-x,y,1/2-z
1/2-x,-y,1/2-z
1/2+x,y,1/2-z
1/2-x,y,1/2+z
1/2+x,-y,1/2+z
1/2+x,1/2+y,z
1/2-x,1/2-y,z
1/2+x,1/2-y,-z
1/2-x,1/2+y,-z
1/2-x,1/2-y,-z
1/2+x,1/2+y,-z
1/2-x,1/2+y,z
1/2+x,1/2-y,z
loop_
_atom_site_type_symbol
_atom_site_label
_atom_site_fract_x
_atom_site_fract_y
_atom_site_fract_z
Si Si1 0.888442 0.211383 0.055386
Si Si2 0.249710 0.816474 0.691112
Si Si3 0.609000 0.619999 0.130175
Si Si4 0.252388 0.000000 0.000000
Si Si5 0.390113 0.325138 0.396734
Si Si6 0.109947 0.394837 0.000000
Si Si7 0.389419 0.500000 0.093513
O O1 0.856892 0.151595 0.078449
O O2 0.854734 0.262105 0.091235
O O3 0.000000 0.216005 0.049320
O O4 0.840232 0.215863 0.000000
O O5 0.250000 0.833342 0.750000
O O6 0.250000 0.750000 0.684629
O O7 0.345687 0.847644 0.676903
O O8 0.167744 0.843302 0.654313
O O9 0.500000 0.629921 0.138180
O O10 0.633377 0.554349 0.127676
O O11 0.320877 0.052838 0.000000
O O12 0.181927 0.000000 0.047179
O O13 0.500000 0.328564 0.382212
O O14 0.368968 0.360672 0.447906
O O15 0.000000 0.413578 0.000000
O O16 0.500000 0.500000 0.075395
#
# Coordination Sequence:
#
# PCOD8284534 Si02
#       7
#    32  32  32   8  32  16  16
#     4   9  16  29  52  80 111 145 182 226 275 335
#     4  11  23  37  55  85 119 150 193 241 295 359
#     4  10  21  39  58  80 112 152 195 239 288 341
#     4  12  22  36  54  84 126 158 194 230 288 342
#     4  10  19  36  57  83 116 151 190 236 289 345
#     4  10  21  37  61  87 118 156 197 239 287 348
#     4  10  23  39  58  81 114 155 199 243 282 341
#
# _framework density 18.975818
#
# number of rings (size 3 to 8) (size 9 to 14) (size 15 to 20)
#    0.000    1.905    2.857    1.429    1.333    0.762 
#    1.714    3.810    0.000    0.000    0.000    2.667 
#    0.000    0.000    0.000    0.000    0.000    0.000 
#
# Total GULP energy -520379.094935 kJ/mol
# GULP energy per Si atom -12389.978451 kJ/mol
# Density = 1.893263 g / cm^3
# Si number density = 18.975818 Si / 1000 Ang^3
#
#
#
# Elastic Constant Matrix: (Units=GPa)
#
#
# Indices 1 2 3 4 5 6 
#
# 1 62.0943 48.3515 59.3044 0.0000 0.0000 0.0000
# 2 48.3515 130.9618 50.0491 0.0000 0.0000 0.0000
# 3 59.3044 50.0491 158.9191 0.0000 0.0000 0.0000
# 4 0.0000 0.0000 0.0000 21.0761 0.0000 0.0000
# 5 0.0000 0.0000 0.0000 0.0000 30.1027 0.0000
# 6 0.0000 0.0000 0.0000 0.0000 0.0000 25.2327
#
#
#
# Elastic Compliance Matrix: (Units=1/GPa)
#
#
# Indices 1 2 3 4 5 6 
#
# 1 0.030941 -0.007970 -0.009036 0.000000 0.000000 0.000000
# 2 -0.007970 0.010734 -0.000406 0.000000 0.000000 0.000000
# 3 -0.009036 -0.000406 0.009793 0.000000 0.000000 0.000000
# 4 0.000000 0.000000 0.000000 0.047447 0.000000 0.000000
# 5 0.000000 0.000000 0.000000 0.000000 0.033220 0.000000
# 6 0.000000 0.000000 0.000000 0.000000 0.000000 0.039631
#
#
# Mechanical properties :
#
#
# Convention : Reuss Voigt Hill
#
# Bulk Modulus (GPa) = 60.08893 74.15391 67.12142
# Shear Modulus (GPa) = 23.56961 28.23365 25.90163
#
# Velocity S-wave (km/s) = 3.52815 3.86148 3.69857
# Velocity P-wave (km/s) = 6.95212 7.68403 7.32722
#
# Compressibility (1/GPa) = 0.01664200
#
# Stress axis : x y z
#
# Youngs Moduli (GPa) = 32.31950 93.16498 102.11872
#
# Poissons Ratio (x) = 0.74254 0.92278
# Poissons Ratio (y) = 0.25759 0.04147
# Poissons Ratio (z) = 0.29205 0.03784
#
# Static dielectric constant tensor:
#      x y z
#    x 3.582870 0.000000 0.000000 
#    y 0.000000 3.528900 0.000000 
#    z 0.000000 0.000000 3.486080 
# 
# 
# High freq. dielectric constant tensor:
#      x y z
#    x 1.746660 0.000000 0.000000 
#    y 0.000000 1.726670 0.000000 
#    z 0.000000 0.000000 1.724580 
# 
# From -- ./inp_files/41017.got.cif
#   From: 2010.03.12/outbox.cif.g09.slc.cpg/sg69_21_cif.got.tgz:41017.got - 2010.04.10 23:52:46.
