data_PCOD8284201
_publ_section_title
;
Structure prediction by ZEFSAII (Michael W. Deem and Ramdas Pophale) SiO2 
 PCOD8284201
Probable space group: F M M M
;
_chemical_formula_sum "Si O2"
_cell_formula_units_Z 208
_cell_length_a 27.976317
_cell_length_b 15.423336
_cell_length_c 27.212376
_cell_angle_alpha 90.000000
_cell_angle_beta 90.000000
_cell_angle_gamma 90.000000
_cell_volume 11741.817427
_symmetry_space_group_name_H-M "F M M M"
_symmetry_group_IT_number 69
_symmetry_cell_setting 'orthorhombic'
loop_
_space_group_symop_operation_xyz
x,y,z
-x,-y,z
x,-y,-z
-x,y,-z
-x,-y,-z
x,y,-z
-x,y,z
x,-y,z
x,1/2+y,1/2+z
-x,1/2-y,1/2+z
x,1/2-y,1/2-z
-x,1/2+y,1/2-z
-x,1/2-y,1/2-z
x,1/2+y,1/2-z
-x,1/2+y,1/2+z
x,1/2-y,1/2+z
1/2+x,y,1/2+z
1/2-x,-y,1/2+z
1/2+x,-y,1/2-z
1/2-x,y,1/2-z
1/2-x,-y,1/2-z
1/2+x,y,1/2-z
1/2-x,y,1/2+z
1/2+x,-y,1/2+z
1/2+x,1/2+y,z
1/2-x,1/2-y,z
1/2+x,1/2-y,-z
1/2-x,1/2+y,-z
1/2-x,1/2-y,-z
1/2+x,1/2+y,-z
1/2-x,1/2+y,z
1/2+x,1/2-y,z
loop_
_atom_site_type_symbol
_atom_site_label
_atom_site_fract_x
_atom_site_fract_y
_atom_site_fract_z
Si Si1 0.584683 0.097596 0.623247
Si Si2 0.054290 0.901952 0.373213
Si Si3 0.444293 0.758438 0.305634
Si Si4 0.162325 0.846354 0.056115
Si Si5 0.363521 0.348520 0.555871
Si Si6 0.737090 0.098288 0.943231
Si Si7 0.500000 0.397446 0.054578
O O1 0.585586 0.163912 0.668902
O O2 0.634886 0.092390 0.594468
O O3 0.546167 0.134201 0.584275
O O4 0.572242 0.000000 0.641717
O O5 0.066289 0.834332 0.330176
O O6 0.090664 0.887752 0.417595
O O7 0.000000 0.887211 0.392372
O O8 0.060099 0.000000 0.352704
O O9 0.500000 0.783682 0.307843
O O10 0.426165 0.750000 0.250000
O O11 0.136397 0.754597 0.059009
O O12 0.218007 0.842174 0.073388
O O13 0.159833 0.883238 0.000000
O O14 0.367199 0.381613 0.500000
O O15 0.313889 0.380212 0.582059
O O16 0.752219 0.000000 0.932528
O O17 0.727508 0.117635 0.000000
O O18 0.500000 0.500000 0.049419
O O19 0.500000 0.355237 0.000000
#
# Coordination Sequence:
#
# PCOD8284201 Si02
#       7
#    32  32  32  32  32  32  16
#     4  11  20  32  51  77 107 139 176 212 259 321
#     4  10  21  37  55  77 105 137 178 222 265 315
#     4  10  21  38  57  76 101 132 172 225 277 319
#     4  10  19  31  48  75 110 146 179 215 258 309
#     4  10  19  32  51  75 107 147 185 218 257 307
#     4   9  17  29  46  71 104 142 183 221 257 301
#     4   9  18  30  45  70 107 145 174 201 240 302
#
# _framework density 17.714464
#
# number of rings (size 3 to 8) (size 9 to 14) (size 15 to 20)
#    0.000    2.077    2.308    1.846    0.000    5.231 
#    0.000    2.308    0.000    0.000    0.000    2.154 
#    0.000    3.692    0.000    0.000    0.000    0.000 
#
# Total GULP energy -644608.500671 kJ/mol
# GULP energy per Si atom -12396.317321 kJ/mol
# Density = 1.767415 g / cm^3
# Si number density = 17.714464 Si / 1000 Ang^3
#
#
#
# Elastic Constant Matrix: (Units=GPa)
#
#
# Indices 1 2 3 4 5 6 
#
# 1 106.7563 38.6436 49.8430 0.0000 0.0000 0.0000
# 2 38.6436 89.3492 41.9946 0.0000 0.0000 0.0000
# 3 49.8430 41.9946 94.3441 0.0000 0.0000 0.0000
# 4 0.0000 0.0000 0.0000 17.8469 0.0000 0.0000
# 5 0.0000 0.0000 0.0000 0.0000 7.6126 0.0000
# 6 0.0000 0.0000 0.0000 0.0000 0.0000 27.6235
#
#
#
# Elastic Compliance Matrix: (Units=1/GPa)
#
#
# Indices 1 2 3 4 5 6 
#
# 1 0.013056 -0.003041 -0.005544 0.000000 0.000000 0.000000
# 2 -0.003041 0.014861 -0.005008 0.000000 0.000000 0.000000
# 3 -0.005544 -0.005008 0.015758 0.000000 0.000000 0.000000
# 4 0.000000 0.000000 0.000000 0.056032 0.000000 0.000000
# 5 0.000000 0.000000 0.000000 0.000000 0.131361 0.000000
# 6 0.000000 0.000000 0.000000 0.000000 0.000000 0.036201
#
#
# Mechanical properties :
#
#
# Convention : Reuss Voigt Hill
#
# Bulk Modulus (GPa) = 60.64951 61.26801 60.95876
# Shear Modulus (GPa) = 16.66922 21.28115 18.97519
#
# Velocity S-wave (km/s) = 3.07089 3.46980 3.27642
# Velocity P-wave (km/s) = 6.84729 7.12139 6.98569
#
# Compressibility (1/GPa) = 0.01648818
#
# Stress axis : x y z
#
# Youngs Moduli (GPa) = 76.59041 67.28875 63.46016
#
# Poissons Ratio (x) = 0.20463 0.35184
# Poissons Ratio (y) = 0.23292 0.31784
# Poissons Ratio (z) = 0.42463 0.33701
#
# Static dielectric constant tensor:
#      x y z
#    x 3.401840 0.000000 0.000000 
#    y 0.000000 3.287910 0.000000 
#    z 0.000000 0.000000 2.968270 
# 
# 
# High freq. dielectric constant tensor:
#      x y z
#    x 1.688120 0.000000 0.000000 
#    y 0.000000 1.694230 0.000000 
#    z 0.000000 0.000000 1.631120 
# 
# From -- ./inp_files/38504.got.cif
#   From: 2010.03.12/outbox.cif.g09.slc.cpg/sg69_20_cif.got.tgz:38504.got - 2010.04.10 23:52:46.
