data_PCOD8284716
_publ_section_title
;
Structure prediction by ZEFSAII (Michael W. Deem and Ramdas Pophale) SiO2 
 PCOD8284716
Probable space group: F M M M
;
_chemical_formula_sum "Si O2"
_cell_formula_units_Z 160
_cell_length_a 16.200600
_cell_length_b 28.141727
_cell_length_c 17.863802
_cell_angle_alpha 90.000000
_cell_angle_beta 90.000000
_cell_angle_gamma 90.000000
_cell_volume 8144.337104
_symmetry_space_group_name_H-M "F M M M"
_symmetry_group_IT_number 69
_symmetry_cell_setting 'orthorhombic'
loop_
_space_group_symop_operation_xyz
x,y,z
-x,-y,z
x,-y,-z
-x,y,-z
-x,-y,-z
x,y,-z
-x,y,z
x,-y,z
x,1/2+y,1/2+z
-x,1/2-y,1/2+z
x,1/2-y,1/2-z
-x,1/2+y,1/2-z
-x,1/2-y,1/2-z
x,1/2+y,1/2-z
-x,1/2+y,1/2+z
x,1/2-y,1/2+z
1/2+x,y,1/2+z
1/2-x,-y,1/2+z
1/2+x,-y,1/2-z
1/2-x,y,1/2-z
1/2-x,-y,1/2-z
1/2+x,y,1/2-z
1/2-x,y,1/2+z
1/2+x,-y,1/2+z
1/2+x,1/2+y,z
1/2-x,1/2-y,z
1/2+x,1/2-y,-z
1/2-x,1/2+y,-z
1/2-x,1/2-y,-z
1/2+x,1/2+y,-z
1/2-x,1/2+y,z
1/2+x,1/2-y,z
loop_
_atom_site_type_symbol
_atom_site_label
_atom_site_fract_x
_atom_site_fract_y
_atom_site_fract_z
Si Si1 0.656467 0.150691 0.720896
Si Si2 0.597377 0.294109 0.086116
Si Si3 0.905323 0.193459 0.362464
Si Si4 0.655251 0.551197 0.270243
Si Si5 0.902674 0.093167 0.415870
O O1 0.750000 0.149797 0.750000
O O2 0.647157 0.167424 0.635577
O O3 0.606909 0.187853 0.773104
O O4 0.617009 0.097357 0.728140
O O5 0.500000 0.297801 0.103700
O O6 0.634611 0.242145 0.106871
O O7 0.616148 0.305610 0.000000
O O8 0.868451 0.146940 0.403700
O O9 0.000000 0.197223 0.384078
O O10 0.613854 0.500000 0.248201
O O11 0.750000 0.547908 0.250000
O O12 0.644544 0.558115 0.359637
O O13 0.883013 0.076604 0.500000
O O14 0.000000 0.091213 0.398478
#
# Coordination Sequence:
#
# PCOD8284716 Si02
#       5
#    32  32  32  32  32
#     4  10  20  34  51  74 101 130 167 209 252 294
#     4  10  20  34  53  75 101 136 174 206 237 283
#     4   9  17  31  51  74 102 137 170 196 234 295
#     4   9  19  36  53  69  95 133 172 204 242 300
#     4   9  17  30  51  80 108 127 151 199 257 302
#
# _framework density 19.645551999999999
#
# number of rings (size 3 to 8) (size 9 to 14) (size 15 to 20)
#    0.000    2.600    0.000    1.800    0.000    7.200 
#    0.000   12.000    0.000    1.800    0.000    1.400 
#    0.000    0.000    0.000    0.000    0.000    0.000 
#
# Total GULP energy -495685.355690 kJ/mol
# GULP energy per Si atom -12392.133892 kJ/mol
# Density = 1.960084 g / cm^3
# Si number density = 19.645552 Si / 1000 Ang^3
#
#
#
# Elastic Constant Matrix: (Units=GPa)
#
#
# Indices 1 2 3 4 5 6 
#
# 1 34.0325 26.8896 34.6594 0.0000 0.0000 0.0000
# 2 26.8896 147.0753 72.3895 0.0000 0.0000 0.0000
# 3 34.6594 72.3895 137.3665 0.0000 0.0000 0.0000
# 4 0.0000 0.0000 0.0000 11.6855 0.0000 0.0000
# 5 0.0000 0.0000 0.0000 0.0000 30.0971 0.0000
# 6 0.0000 0.0000 0.0000 0.0000 0.0000 23.2562
#
#
#
# Elastic Compliance Matrix: (Units=1/GPa)
#
#
# Indices 1 2 3 4 5 6 
#
# 1 0.040643 -0.003218 -0.008559 0.000000 0.000000 0.000000
# 2 -0.003218 0.009435 -0.004160 0.000000 0.000000 0.000000
# 3 -0.008559 -0.004160 0.011632 0.000000 0.000000 0.000000
# 4 0.000000 0.000000 0.000000 0.085576 0.000000 0.000000
# 5 0.000000 0.000000 0.000000 0.000000 0.033226 0.000000
# 6 0.000000 0.000000 0.000000 0.000000 0.000000 0.042999
#
#
# Mechanical properties :
#
#
# Convention : Reuss Voigt Hill
#
# Bulk Modulus (GPa) = 33.51718 65.15014 49.33366
# Shear Modulus (GPa) = 18.84443 25.31014 22.07728
#
# Velocity S-wave (km/s) = 3.10049 3.59324 3.35592
# Velocity P-wave (km/s) = 5.46949 7.10281 6.33898
#
# Compressibility (1/GPa) = 0.02983544
#
# Stress axis : x y z
#
# Youngs Moduli (GPa) = 24.60456 105.98575 85.97209
#
# Poissons Ratio (x) = 0.34107 0.73583
# Poissons Ratio (y) = 0.07918 0.35766
# Poissons Ratio (z) = 0.21059 0.44093
#
# Static dielectric constant tensor:
#      x y z
#    x 3.251250 0.000000 0.000000 
#    y 0.000000 4.140740 0.000000 
#    z 0.000000 0.000000 3.521950 
# 
# 
# High freq. dielectric constant tensor:
#      x y z
#    x 1.732320 0.000000 0.000000 
#    y 0.000000 1.770280 0.000000 
#    z 0.000000 0.000000 1.755900 
# 
# From -- ./inp_files/23103.got.cif
#   From: 2010.03.12/outbox.cif.g09.slc.cpg/sg69_12_cif.got.tgz:23103.got - 2010.04.10 23:52:46.
