data_PCOD8284488
_publ_section_title
;
Structure prediction by ZEFSAII (Michael W. Deem and Ramdas Pophale) SiO2 
 PCOD8284488
Probable space group: F M M M
;
_chemical_formula_sum "Si O2"
_cell_formula_units_Z 192
_cell_length_a 17.021758
_cell_length_b 28.179714
_cell_length_c 20.725925
_cell_angle_alpha 90.000000
_cell_angle_beta 90.000000
_cell_angle_gamma 90.000000
_cell_volume 9941.568635
_symmetry_space_group_name_H-M "F M M M"
_symmetry_group_IT_number 69
_symmetry_cell_setting 'orthorhombic'
loop_
_space_group_symop_operation_xyz
x,y,z
-x,-y,z
x,-y,-z
-x,y,-z
-x,-y,-z
x,y,-z
-x,y,z
x,-y,z
x,1/2+y,1/2+z
-x,1/2-y,1/2+z
x,1/2-y,1/2-z
-x,1/2+y,1/2-z
-x,1/2-y,1/2-z
x,1/2+y,1/2-z
-x,1/2+y,1/2+z
x,1/2-y,1/2+z
1/2+x,y,1/2+z
1/2-x,-y,1/2+z
1/2+x,-y,1/2-z
1/2-x,y,1/2-z
1/2-x,-y,1/2-z
1/2+x,y,1/2-z
1/2-x,y,1/2+z
1/2+x,-y,1/2+z
1/2+x,1/2+y,z
1/2-x,1/2-y,z
1/2+x,1/2-y,-z
1/2-x,1/2+y,-z
1/2-x,1/2-y,-z
1/2+x,1/2+y,-z
1/2-x,1/2+y,z
1/2+x,1/2-y,z
loop_
_atom_site_type_symbol
_atom_site_label
_atom_site_fract_x
_atom_site_fract_y
_atom_site_fract_z
Si Si1 0.413047 0.000000 0.834073
Si Si2 0.090419 0.324598 0.427540
Si Si3 0.588855 0.413816 0.239112
Si Si4 0.089857 0.243345 0.673166
Si Si5 0.810340 0.840580 0.304851
Si Si6 0.770005 0.000000 0.571825
Si Si7 0.805389 0.406468 0.621540
O O1 0.400934 0.954080 0.791345
O O2 0.348808 0.000000 0.888161
O O3 0.500000 0.000000 0.865280
O O4 0.102899 0.303174 0.500000
O O5 0.115703 0.288407 0.370386
O O6 0.142305 0.371841 0.422249
O O7 0.000000 0.338973 0.417452
O O8 0.500000 0.408360 0.214572
O O9 0.615410 0.364055 0.269083
O O10 0.644280 0.427355 0.180124
O O11 0.098258 0.250000 0.750000
O O12 0.152171 0.202466 0.654046
O O13 0.000000 0.229719 0.655325
O O14 0.750000 0.822124 0.250000
O O15 0.770469 0.877891 0.353056
O O16 0.719546 0.047459 0.582024
O O17 0.800822 0.000000 0.500000
#
# Coordination Sequence:
#
# PCOD8284488 Si02
#       7
#    16  32  32  32  32  16  32
#     4  10  21  38  61  86 115 153 198 245 295 355
#     4  10  22  41  61  83 117 160 201 241 296 365
#     4  10  19  34  59  90 120 151 189 242 304 357
#     4  10  20  36  59  85 116 154 198 245 295 353
#     4  10  20  32  55  89 121 151 185 242 297 352
#     4  12  25  42  60  81 119 163 201 241 299 356
#     4  11  22  37  60  88 119 152 193 246 294 361
#
# _framework density 19.312847000000001
#
# number of rings (size 3 to 8) (size 9 to 14) (size 15 to 20)
#    0.000    1.667    1.667    4.000    0.000    4.500 
#    0.000    3.750    0.000    3.000    0.000    0.000 
#    0.000    0.000    0.000    0.000    0.000    0.000 
#
# Total GULP energy -595156.479068 kJ/mol
# GULP energy per Si atom -12399.093314 kJ/mol
# Density = 1.926889 g / cm^3
# Si number density = 19.312847 Si / 1000 Ang^3
#
#
#
# Elastic Constant Matrix: (Units=GPa)
#
#
# Indices 1 2 3 4 5 6 
#
# 1 106.9073 64.1205 42.1460 0.0000 0.0000 0.0000
# 2 64.1205 116.1349 47.4967 0.0000 0.0000 0.0000
# 3 42.1460 47.4967 104.4515 0.0000 0.0000 0.0000
# 4 0.0000 0.0000 0.0000 -48.1776 0.0000 0.0000
# 5 0.0000 0.0000 0.0000 0.0000 21.8174 0.0000
# 6 0.0000 0.0000 0.0000 0.0000 0.0000 35.7422
#
#
#
# Elastic Compliance Matrix: (Units=1/GPa)
#
#
# Indices 1 2 3 4 5 6 
#
# 1 0.014594 -0.006940 -0.002733 0.000000 0.000000 0.000000
# 2 -0.006940 0.013878 -0.003510 0.000000 0.000000 0.000000
# 3 -0.002733 -0.003510 0.012273 0.000000 0.000000 0.000000
# 4 0.000000 0.000000 0.000000 -0.020757 0.000000 0.000000
# 5 0.000000 0.000000 0.000000 0.000000 0.045835 0.000000
# 6 0.000000 0.000000 0.000000 0.000000 0.000000 0.027978
#
#
# Mechanical properties :
#
#
# Convention : Reuss Voigt Hill
#
# Bulk Modulus (GPa) = 69.54940 70.55778 70.05359
# Shear Modulus (GPa) = 40.01291 13.45844 26.73567
#
# Velocity S-wave (km/s) = 4.55667 2.64268 3.72472
# Velocity P-wave (km/s) = 7.98589 6.77681 7.40607
#
# Compressibility (1/GPa) = 0.01437827
#
# Stress axis : x y z
#
# Youngs Moduli (GPa) = 68.52349 72.05665 81.48090
#
# Poissons Ratio (x) = 0.50005 0.22267
# Poissons Ratio (y) = 0.47553 0.28604
# Poissons Ratio (z) = 0.18726 0.25295
#
# Static dielectric constant tensor:
#      x y z
#    x 3.702350 0.000000 0.000000 
#    y 0.000000 3.926520 0.000000 
#    z 0.000000 0.000000 3.382230 
# 
# 
# High freq. dielectric constant tensor:
#      x y z
#    x 1.765450 0.000000 0.000000 
#    y 0.000000 1.754060 0.000000 
#    z 0.000000 0.000000 1.732040 
# 
# From -- ./inp_files/23742.got.cif
#   From: 2010.03.12/outbox.cif.g09.slc.cpg/sg69_12_cif.got.tgz:23742.got - 2010.04.10 23:52:46.
