data_PCOD8284015
_publ_section_title
;
Structure prediction by ZEFSAII (Michael W. Deem and Ramdas Pophale) SiO2 
 PCOD8284015
Probable space group: F M M M
;
_chemical_formula_sum "Si O2"
_cell_formula_units_Z 88
_cell_length_a 12.828097
_cell_length_b 20.065903
_cell_length_c 19.679075
_cell_angle_alpha 90.000000
_cell_angle_beta 90.000000
_cell_angle_gamma 90.000000
_cell_volume 5065.538548
_symmetry_space_group_name_H-M "F M M M"
_symmetry_group_IT_number 69
_symmetry_cell_setting 'orthorhombic'
loop_
_space_group_symop_operation_xyz
x,y,z
-x,-y,z
x,-y,-z
-x,y,-z
-x,-y,-z
x,y,-z
-x,y,z
x,-y,z
x,1/2+y,1/2+z
-x,1/2-y,1/2+z
x,1/2-y,1/2-z
-x,1/2+y,1/2-z
-x,1/2-y,1/2-z
x,1/2+y,1/2-z
-x,1/2+y,1/2+z
x,1/2-y,1/2+z
1/2+x,y,1/2+z
1/2-x,-y,1/2+z
1/2+x,-y,1/2-z
1/2-x,y,1/2-z
1/2-x,-y,1/2-z
1/2+x,y,1/2-z
1/2-x,y,1/2+z
1/2+x,-y,1/2+z
1/2+x,1/2+y,z
1/2-x,1/2-y,z
1/2+x,1/2-y,-z
1/2-x,1/2+y,-z
1/2-x,1/2-y,-z
1/2+x,1/2+y,-z
1/2-x,1/2+y,z
1/2+x,1/2-y,z
loop_
_atom_site_type_symbol
_atom_site_label
_atom_site_fract_x
_atom_site_fract_y
_atom_site_fract_z
Si Si1 0.114658 0.423946 0.810175
Si Si2 0.000000 0.577998 0.580121
Si Si3 0.825556 0.369461 0.329065
Si Si4 0.250000 0.750000 0.750000
O O1 0.118323 0.500000 0.832989
O O2 0.135100 0.419594 0.729386
O O3 0.205548 0.384898 0.850492
O O4 0.000000 0.393956 0.827380
O O5 0.100884 0.618505 0.606633
O O6 0.000000 0.500000 0.602320
O O7 0.000000 0.584005 0.500000
O O8 0.826008 0.294663 0.297805
#
# Coordination Sequence:
#
# PCOD8284015 Si02
#       4
#    32  16  32   8
#     4   9  15  25  47  75 102 129 158 209 267 299
#     4  11  22  35  54  76 102 137 170 207 250 298
#     4  10  18  32  47  76 105 130 166 206 251 303
#     4   8  20  34  52  80  98 136 162 212 256 298
#
# _framework density 17.372288999999999
#
# number of rings (size 3 to 8) (size 9 to 14) (size 15 to 20)
#    0.000    2.727    1.818    4.364    0.000    0.727 
#    3.273    0.909    0.000    1.091    0.000    5.091 
#    0.000    0.000    0.000    0.000    0.000    0.000 
#
# Total GULP energy -272570.840673 kJ/mol
# GULP energy per Si atom -12389.583667 kJ/mol
# Density = 1.733275 g / cm^3
# Si number density = 17.372289 Si / 1000 Ang^3
#
#
#
# Elastic Constant Matrix: (Units=GPa)
#
#
# Indices 1 2 3 4 5 6 
#
# 1 178.7436 50.1258 42.7339 0.0000 0.0000 0.0000
# 2 50.1258 100.3035 34.0733 0.0000 0.0000 0.0000
# 3 42.7339 34.0733 63.6227 0.0000 0.0000 0.0000
# 4 0.0000 0.0000 0.0000 11.2023 0.0000 0.0000
# 5 0.0000 0.0000 0.0000 0.0000 21.5877 0.0000
# 6 0.0000 0.0000 0.0000 0.0000 0.0000 16.5072
#
#
#
# Elastic Compliance Matrix: (Units=1/GPa)
#
#
# Indices 1 2 3 4 5 6 
#
# 1 0.007092 -0.002354 -0.003503 0.000000 0.000000 0.000000
# 2 -0.002354 0.012968 -0.005364 0.000000 0.000000 0.000000
# 3 -0.003503 -0.005364 0.020943 0.000000 0.000000 0.000000
# 4 0.000000 0.000000 0.000000 0.089267 0.000000 0.000000
# 5 0.000000 0.000000 0.000000 0.000000 0.046323 0.000000
# 6 0.000000 0.000000 0.000000 0.000000 0.000000 0.060580
#
#
# Mechanical properties :
#
#
# Convention : Reuss Voigt Hill
#
# Bulk Modulus (GPa) = 53.87472 66.28176 60.07824
# Shear Modulus (GPa) = 18.81094 24.24190 21.52642
#
# Velocity S-wave (km/s) = 3.29418 3.73961 3.52394
# Velocity P-wave (km/s) = 6.74893 7.54207 7.15649
#
# Compressibility (1/GPa) = 0.01856158
#
# Stress axis : x y z
#
# Youngs Moduli (GPa) = 140.99772 77.11012 47.74847
#
# Poissons Ratio (x) = 0.18155 0.16726
# Poissons Ratio (y) = 0.33196 0.25612
# Poissons Ratio (z) = 0.49389 0.41361
#
# Static dielectric constant tensor:
#      x y z
#    x 3.779360 0.000000 0.000000 
#    y 0.000000 3.160160 0.000000 
#    z 0.000000 0.000000 2.684200 
# 
# 
# High freq. dielectric constant tensor:
#      x y z
#    x 1.690360 0.000000 0.000000 
#    y 0.000000 1.664990 0.000000 
#    z 0.000000 0.000000 1.602170 
# 
# From -- ./inp_files/21326.got.cif
#   From: 2010.03.12/outbox.cif.g09.slc.cpg/sg69_11_cif.got.tgz:21326.got - 2010.04.10 23:52:46.
