data_PCOD8284592
_publ_section_title
;
Structure prediction by ZEFSAII (Michael W. Deem and Ramdas Pophale) SiO2 
 PCOD8284592
Probable space group: F M M M
;
_chemical_formula_sum "Si O2"
_cell_formula_units_Z 144
_cell_length_a 35.834272
_cell_length_b 8.986110
_cell_length_c 29.848319
_cell_angle_alpha 90.000000
_cell_angle_beta 90.000000
_cell_angle_gamma 90.000000
_cell_volume 9611.478392
_symmetry_space_group_name_H-M "F M M M"
_symmetry_group_IT_number 69
_symmetry_cell_setting 'orthorhombic'
loop_
_space_group_symop_operation_xyz
x,y,z
-x,-y,z
x,-y,-z
-x,y,-z
-x,-y,-z
x,y,-z
-x,y,z
x,-y,z
x,1/2+y,1/2+z
-x,1/2-y,1/2+z
x,1/2-y,1/2-z
-x,1/2+y,1/2-z
-x,1/2-y,1/2-z
x,1/2+y,1/2-z
-x,1/2+y,1/2+z
x,1/2-y,1/2+z
1/2+x,y,1/2+z
1/2-x,-y,1/2+z
1/2+x,-y,1/2-z
1/2-x,y,1/2-z
1/2-x,-y,1/2-z
1/2+x,y,1/2-z
1/2-x,y,1/2+z
1/2+x,-y,1/2+z
1/2+x,1/2+y,z
1/2-x,1/2-y,z
1/2+x,1/2-y,-z
1/2-x,1/2+y,-z
1/2-x,1/2-y,-z
1/2+x,1/2+y,-z
1/2-x,1/2+y,z
1/2+x,1/2-y,z
loop_
_atom_site_type_symbol
_atom_site_label
_atom_site_fract_x
_atom_site_fract_y
_atom_site_fract_z
Si Si1 0.000000 0.331879 0.946551
Si Si2 0.210041 0.826446 0.109414
Si Si3 0.073450 0.832147 0.053327
Si Si4 0.210140 0.827489 0.208451
Si Si5 0.147822 0.170551 0.446942
O O1 0.963434 0.248561 0.927833
O O2 0.000000 0.500000 0.928285
O O3 0.000000 0.331061 0.000000
O O4 0.250000 0.750000 0.104684
O O5 0.192163 0.803420 0.159271
O O6 0.182678 0.755569 0.073570
O O7 0.215157 0.000000 0.098804
O O8 0.109683 0.744611 0.070736
O O9 0.074663 0.000000 0.072026
O O10 0.072455 0.832358 0.000000
O O11 0.187377 0.750000 0.250000
O O12 0.250000 0.750000 0.206463
O O13 0.214619 0.000000 0.219529
O O14 0.151035 0.184833 0.500000
O O15 0.148061 0.000000 0.431317
#
# Coordination Sequence:
#
# PCOD8284592 Si02
#       5
#    16  32  32  32  32
#     4   9  15  23  37  57  79 101 128 163 200 241
#     4  10  20  32  45  61  80 105 138 173 208 246
#     4   9  16  26  40  57  77 102 132 166 204 244
#     4   9  16  26  42  62  81 100 124 157 200 248
#     4  10  20  32  44  58  78 107 142 177 211 244
#
# _framework density 14.982085
#
# number of rings (size 3 to 8) (size 9 to 14) (size 15 to 20)
#    0.000    2.556    0.000    3.667    0.000    8.444 
#    0.000    0.000    0.000    0.000    0.000    0.000 
#    0.000    0.000    0.000    1.000    0.000   13.667 
#
# Total GULP energy -446184.896673 kJ/mol
# GULP energy per Si atom -12394.024908 kJ/mol
# Density = 1.494799 g / cm^3
# Si number density = 14.982085 Si / 1000 Ang^3
#
#
#
# Elastic Constant Matrix: (Units=GPa)
#
#
# Indices 1 2 3 4 5 6 
#
# 1 100.1841 59.3912 26.1722 -0.0001 -0.0001 0.0004
# 2 59.3912 143.9269 31.0445 -0.0003 -0.0001 -0.0002
# 3 26.1722 31.0445 26.8555 0.0000 0.0000 0.0000
# 4 -0.0001 -0.0003 0.0000 19.8451 0.0000 0.0000
# 5 -0.0001 -0.0001 0.0000 0.0000 0.0461 0.0000
# 6 0.0004 -0.0002 0.0000 0.0000 0.0000 28.1803
#
#
#
# Elastic Compliance Matrix: (Units=1/GPa)
#
#
# Indices 1 2 3 4 5 6 
#
# 1 0.014966 -0.004036 -0.009919 0.000000 0.000018 0.000000
# 2 -0.004036 0.010344 -0.008024 0.000000 0.000014 0.000000
# 3 -0.009919 -0.008024 0.056179 0.000000 -0.000045 0.000000
# 4 0.000000 0.000000 0.000000 0.050390 -0.000005 0.000000
# 5 0.000018 0.000014 -0.000045 -0.000005 21.706710 -0.000006
# 6 0.000000 0.000000 0.000000 0.000000 -0.000006 0.035486
#
#
# Mechanical properties :
#
#
# Convention : Reuss Voigt Hill
#
# Bulk Modulus (GPa) = 26.64556 56.02025 41.33290
# Shear Modulus (GPa) = 0.22799 19.90488 10.06643
#
# Velocity S-wave (km/s) = 0.39052 3.64892 2.59491
# Velocity P-wave (km/s) = 4.24581 7.43139 6.05196
#
# Compressibility (1/GPa) = 0.03752971
#
# Stress axis : x y z
#
# Youngs Moduli (GPa) = 66.82005 96.67194 17.80012
#
# Poissons Ratio (x) = 0.39017 0.17656
# Poissons Ratio (y) = 0.26968 0.14284
# Poissons Ratio (z) = 0.66281 0.77574
#
# Static dielectric constant tensor:
#      x y z
#    x 2.781110 0.000000 0.000000 
#    y 0.000000 3.166030 0.000000 
#    z 0.000000 0.000000 3.075580 
# 
# 
# High freq. dielectric constant tensor:
#      x y z
#    x 1.549280 0.000000 0.000000 
#    y 0.000000 1.600760 0.000000 
#    z 0.000000 0.000000 1.531530 
# 
# From -- ./inp_files/44508.got.cif
#   From: 2010.03.12/outbox.cif.g09.slc.cpg/sg69_23_cif.got.tgz:44508.got - 2010.04.10 23:52:46.
