data_PCOD8284024
_publ_section_title
;
Structure prediction by ZEFSAII (Michael W. Deem and Ramdas Pophale) SiO2 
 PCOD8284024
Probable space group: F M M M
;
_chemical_formula_sum "Si O2"
_cell_formula_units_Z 144
_cell_length_a 8.614350
_cell_length_b 28.634869
_cell_length_c 31.311166
_cell_angle_alpha 90.000000
_cell_angle_beta 90.000000
_cell_angle_gamma 90.000000
_cell_volume 7723.549858
_symmetry_space_group_name_H-M "F M M M"
_symmetry_group_IT_number 69
_symmetry_cell_setting 'orthorhombic'
loop_
_space_group_symop_operation_xyz
x,y,z
-x,-y,z
x,-y,-z
-x,y,-z
-x,-y,-z
x,y,-z
-x,y,z
x,-y,z
x,1/2+y,1/2+z
-x,1/2-y,1/2+z
x,1/2-y,1/2-z
-x,1/2+y,1/2-z
-x,1/2-y,1/2-z
x,1/2+y,1/2-z
-x,1/2+y,1/2+z
x,1/2-y,1/2+z
1/2+x,y,1/2+z
1/2-x,-y,1/2+z
1/2+x,-y,1/2-z
1/2-x,y,1/2-z
1/2-x,-y,1/2-z
1/2+x,y,1/2-z
1/2-x,y,1/2+z
1/2+x,-y,1/2+z
1/2+x,1/2+y,z
1/2-x,1/2-y,z
1/2+x,1/2-y,-z
1/2-x,1/2+y,-z
1/2-x,1/2-y,-z
1/2+x,1/2+y,-z
1/2-x,1/2+y,z
1/2+x,1/2-y,z
loop_
_atom_site_type_symbol
_atom_site_label
_atom_site_fract_x
_atom_site_fract_y
_atom_site_fract_z
Si Si1 0.684092 0.947582 0.452844
Si Si2 0.315110 0.887054 0.374420
Si Si3 0.184580 0.301829 0.500000
Si Si4 0.816427 0.052815 0.205437
Si Si5 0.183155 0.301249 0.912689
O O1 0.731330 0.928159 0.500000
O O2 0.500000 0.949073 0.448931
O O3 0.750803 0.915266 0.415358
O O4 0.749861 0.000000 0.447024
O O5 0.500000 0.882038 0.375224
O O6 0.256566 0.913691 0.332213
O O7 0.236951 0.835767 0.374792
O O8 0.250000 0.250000 0.500000
O O9 0.248231 0.324559 0.543624
O O10 0.000000 0.303733 0.500000
O O11 0.750000 0.072037 0.250000
O O12 0.000000 0.053532 0.207529
O O13 0.756690 0.000000 0.196839
O O14 0.250000 0.250000 0.903558
O O15 0.000000 0.297248 0.915900
#
# Coordination Sequence:
#
# PCOD8284024 Si02
#       5
#    32  32  16  32  32
#     4   8  14  25  43  70 102 134 170 208 246 298
#     4  10  19  31  51  78 105 137 176 219 264 313
#     4  10  18  32  52  72  97 132 175 220 264 305
#     4   9  18  33  54  80 110 141 176 219 264 315
#     4  11  22  36  52  74 104 139 178 222 268 315
#
# _framework density 18.644276999999999
#
# number of rings (size 3 to 8) (size 9 to 14) (size 15 to 20)
#    0.000    2.444    0.000    5.667    1.556    3.556 
#    0.000    0.000    0.000    2.667    0.000    6.222 
#    0.000    0.000    0.000    0.000    0.000    0.000 
#
# Total GULP energy -446269.194491 kJ/mol
# GULP energy per Si atom -12396.366514 kJ/mol
# Density = 1.860184 g / cm^3
# Si number density = 18.644277 Si / 1000 Ang^3
#
#
#
# Elastic Constant Matrix: (Units=GPa)
#
#
# Indices 1 2 3 4 5 6 
#
# 1 76.8686 32.7476 36.5500 0.0000 0.0000 0.0000
# 2 32.7476 104.0168 82.7380 0.0000 0.0000 0.0000
# 3 36.5500 82.7380 146.2429 0.0000 0.0000 0.0000
# 4 0.0000 0.0000 0.0000 28.7832 0.0000 0.0000
# 5 0.0000 0.0000 0.0000 0.0000 25.7539 0.0000
# 6 0.0000 0.0000 0.0000 0.0000 0.0000 20.9135
#
#
#
# Elastic Compliance Matrix: (Units=1/GPa)
#
#
# Indices 1 2 3 4 5 6 
#
# 1 0.015340 -0.003236 -0.002003 0.000000 0.000000 0.000000
# 2 -0.003236 0.018163 -0.009467 0.000000 0.000000 0.000000
# 3 -0.002003 -0.009467 0.012695 0.000000 0.000000 0.000000
# 4 0.000000 0.000000 0.000000 0.034742 0.000000 0.000000
# 5 0.000000 0.000000 0.000000 0.000000 0.038829 0.000000
# 6 0.000000 0.000000 0.000000 0.000000 0.000000 0.047816
#
#
# Mechanical properties :
#
#
# Convention : Reuss Voigt Hill
#
# Bulk Modulus (GPa) = 59.57610 70.13329 64.85470
# Shear Modulus (GPa) = 24.67996 26.76297 25.72147
#
# Velocity S-wave (km/s) = 3.64226 3.79285 3.71831
# Velocity P-wave (km/s) = 7.05064 7.54182 7.30036
#
# Compressibility (1/GPa) = 0.01678525
#
# Stress axis : x y z
#
# Youngs Moduli (GPa) = 65.18750 55.05654 78.77369
#
# Poissons Ratio (x) = 0.17819 0.15778
# Poissons Ratio (y) = 0.21097 0.74576
# Poissons Ratio (z) = 0.13057 0.52122
#
# Static dielectric constant tensor:
#      x y z
#    x 3.075730 0.000000 0.000000 
#    y 0.000000 3.521300 0.000000 
#    z 0.000000 0.000000 3.688590 
# 
# 
# High freq. dielectric constant tensor:
#      x y z
#    x 1.697670 0.000000 0.000000 
#    y 0.000000 1.722110 0.000000 
#    z 0.000000 0.000000 1.710060 
# 
# From -- ./inp_files/44537.got.cif
#   From: 2010.03.12/outbox.cif.g09.slc.cpg/sg69_23_cif.got.tgz:44537.got - 2010.04.10 23:52:46.
