data_PCOD8284073
_publ_section_title
;
Structure prediction by ZEFSAII (Michael W. Deem and Ramdas Pophale) SiO2 
 PCOD8284073
Probable space group: F M M M
;
_chemical_formula_sum "Si O2"
_cell_formula_units_Z 192
_cell_length_a 15.588167
_cell_length_b 23.950370
_cell_length_c 27.241070
_cell_angle_alpha 90.000000
_cell_angle_beta 90.000000
_cell_angle_gamma 90.000000
_cell_volume 10170.245561
_symmetry_space_group_name_H-M "F M M M"
_symmetry_group_IT_number 69
_symmetry_cell_setting 'orthorhombic'
loop_
_space_group_symop_operation_xyz
x,y,z
-x,-y,z
x,-y,-z
-x,y,-z
-x,-y,-z
x,y,-z
-x,y,z
x,-y,z
x,1/2+y,1/2+z
-x,1/2-y,1/2+z
x,1/2-y,1/2-z
-x,1/2+y,1/2-z
-x,1/2-y,1/2-z
x,1/2+y,1/2-z
-x,1/2+y,1/2+z
x,1/2-y,1/2+z
1/2+x,y,1/2+z
1/2-x,-y,1/2+z
1/2+x,-y,1/2-z
1/2-x,y,1/2-z
1/2-x,-y,1/2-z
1/2+x,y,1/2-z
1/2-x,y,1/2+z
1/2+x,-y,1/2+z
1/2+x,1/2+y,z
1/2-x,1/2-y,z
1/2+x,1/2-y,-z
1/2-x,1/2+y,-z
1/2-x,1/2-y,-z
1/2+x,1/2+y,-z
1/2-x,1/2+y,z
1/2+x,1/2-y,z
loop_
_atom_site_type_symbol
_atom_site_label
_atom_site_fract_x
_atom_site_fract_y
_atom_site_fract_z
Si Si1 0.594206 0.500000 0.657507
Si Si2 0.900015 0.614227 0.799345
Si Si3 0.761380 0.315300 0.148770
Si Si4 0.095945 0.437922 0.408285
Si Si5 0.252034 0.116160 0.054324
Si Si6 0.848056 0.000000 0.445804
Si Si7 0.904373 0.374236 0.686416
O O1 0.500000 0.500000 0.681272
O O2 0.638439 0.557426 0.675950
O O3 0.584312 0.500000 0.598411
O O4 0.840722 0.666172 0.816428
O O5 0.889822 0.605276 0.741546
O O6 0.000000 0.625337 0.814179
O O7 0.750000 0.250000 0.143351
O O8 0.784044 0.340541 0.095194
O O9 0.670255 0.332110 0.171467
O O10 0.130996 0.500000 0.417766
O O11 0.150419 0.392994 0.438749
O O12 0.101326 0.427228 0.349746
O O13 0.000000 0.431544 0.428031
O O14 0.292715 0.055463 0.061210
O O15 0.271119 0.140596 0.000000
O O16 0.892168 0.000000 0.500000
O O17 0.000000 0.346362 0.681647
#
# Coordination Sequence:
#
# PCOD8284073 Si02
#       7
#    16  32  32  32  32  16  32
#     4  10  20  35  56  83 114 145 181 225 282 340
#     4  10  21  37  57  84 116 149 184 227 276 330
#     4  11  23  39  58  79 106 145 193 236 274 325
#     4   9  17  29  48  77 111 142 173 210 257 322
#     4  10  20  35  54  78 107 139 177 225 281 335
#     4  10  18  33  56  79 108 137 176 226 281 336
#     4   9  20  36  54  81 113 146 181 220 269 322
#
# _framework density 18.878599999999999
#
# number of rings (size 3 to 8) (size 9 to 14) (size 15 to 20)
#    0.000    2.167    2.500    0.500    1.167    2.833 
#    0.000    3.333    0.000    0.500    0.000    2.333 
#    0.000    0.000    0.000    0.000    0.000    0.000 
#
# Total GULP energy -594789.017465 kJ/mol
# GULP energy per Si atom -12391.437864 kJ/mol
# Density = 1.883563 g / cm^3
# Si number density = 18.878600 Si / 1000 Ang^3
#
#
#
# Elastic Constant Matrix: (Units=GPa)
#
#
# Indices 1 2 3 4 5 6 
#
# 1 69.9247 19.4782 18.7611 0.0000 0.0000 0.0000
# 2 19.4782 85.5721 14.7846 0.0000 0.0000 0.0000
# 3 18.7611 14.7846 94.1955 0.0000 0.0000 0.0000
# 4 0.0000 0.0000 0.0000 11.3299 0.0000 0.0000
# 5 0.0000 0.0000 0.0000 0.0000 23.0564 0.0000
# 6 0.0000 0.0000 0.0000 0.0000 0.0000 18.2201
#
#
#
# Elastic Compliance Matrix: (Units=1/GPa)
#
#
# Indices 1 2 3 4 5 6 
#
# 1 0.015897 -0.003157 -0.002671 0.000000 0.000000 0.000000
# 2 -0.003157 0.012639 -0.001355 0.000000 0.000000 0.000000
# 3 -0.002671 -0.001355 0.011361 0.000000 0.000000 0.000000
# 4 0.000000 0.000000 0.000000 0.088262 0.000000 0.000000
# 5 0.000000 0.000000 0.000000 0.000000 0.043372 0.000000
# 6 0.000000 0.000000 0.000000 0.000000 0.000000 0.054885
#
#
# Mechanical properties :
#
#
# Convention : Reuss Voigt Hill
#
# Bulk Modulus (GPa) = 39.16781 39.52666 39.34724
# Shear Modulus (GPa) = 20.05686 23.63249 21.84467
#
# Velocity S-wave (km/s) = 3.26300 3.54194 3.40533
# Velocity P-wave (km/s) = 5.91511 6.14083 6.02903
#
# Compressibility (1/GPa) = 0.02553117
#
# Stress axis : x y z
#
# Youngs Moduli (GPa) = 62.90451 79.12152 88.02182
#
# Poissons Ratio (x) = 0.24980 0.23508
# Poissons Ratio (y) = 0.19860 0.11926
# Poissons Ratio (z) = 0.16800 0.10720
#
# Static dielectric constant tensor:
#      x y z
#    x 3.534570 0.000000 0.000000 
#    y 0.000000 3.183080 0.000000 
#    z 0.000000 0.000000 3.576980 
# 
# 
# High freq. dielectric constant tensor:
#      x y z
#    x 1.732370 0.000000 0.000000 
#    y 0.000000 1.702820 0.000000 
#    z 0.000000 0.000000 1.742490 
# 
# From -- ./inp_files/36125.got.cif
#   From: 2010.03.12/outbox.cif.g09.slc.cpg/sg69_19_cif.got.tgz:36125.got - 2010.04.10 23:52:46.
