data_PCOD8284166
_publ_section_title
;
Structure prediction by ZEFSAII (Michael W. Deem and Ramdas Pophale) SiO2 
 PCOD8284166
Probable space group: F M M M
;
_chemical_formula_sum "Si O2"
_cell_formula_units_Z 160
_cell_length_a 18.467140
_cell_length_b 25.873888
_cell_length_c 18.018973
_cell_angle_alpha 90.000000
_cell_angle_beta 90.000000
_cell_angle_gamma 90.000000
_cell_volume 8609.766433
_symmetry_space_group_name_H-M "F M M M"
_symmetry_group_IT_number 69
_symmetry_cell_setting 'orthorhombic'
loop_
_space_group_symop_operation_xyz
x,y,z
-x,-y,z
x,-y,-z
-x,y,-z
-x,-y,-z
x,y,-z
-x,y,z
x,-y,z
x,1/2+y,1/2+z
-x,1/2-y,1/2+z
x,1/2-y,1/2-z
-x,1/2+y,1/2-z
-x,1/2-y,1/2-z
x,1/2+y,1/2-z
-x,1/2+y,1/2+z
x,1/2-y,1/2+z
1/2+x,y,1/2+z
1/2-x,-y,1/2+z
1/2+x,-y,1/2-z
1/2-x,y,1/2-z
1/2-x,-y,1/2-z
1/2+x,y,1/2-z
1/2-x,y,1/2+z
1/2+x,-y,1/2+z
1/2+x,1/2+y,z
1/2-x,1/2-y,z
1/2+x,1/2-y,-z
1/2-x,1/2+y,-z
1/2-x,1/2-y,-z
1/2+x,1/2+y,-z
1/2-x,1/2+y,z
1/2+x,1/2-y,z
loop_
_atom_site_type_symbol
_atom_site_label
_atom_site_fract_x
_atom_site_fract_y
_atom_site_fract_z
Si Si1 0.356430 0.598590 0.581828
Si Si2 0.414738 0.500000 0.666648
Si Si3 0.159766 0.805165 0.331363
Si Si4 0.814452 0.907487 0.917203
Si Si5 0.178776 0.000000 0.803323
Si Si6 0.331784 0.308564 0.835176
O O1 0.390933 0.594646 0.500000
O O2 0.382189 0.550351 0.628805
O O3 0.381417 0.652473 0.618817
O O4 0.270642 0.599950 0.576794
O O5 0.500000 0.500000 0.659221
O O6 0.392096 0.500000 0.752316
O O7 0.245634 0.810627 0.332356
O O8 0.140220 0.747837 0.362417
O O9 0.134702 0.815575 0.246900
O O10 0.855450 0.855010 0.890071
O O11 0.827678 0.950787 0.855979
O O12 0.843994 0.921894 0.000000
O O13 0.250000 0.000000 0.750000
#
# Coordination Sequence:
#
# PCOD8284166 Si02
#       6
#    32  16  32  32  16  32
#     4  10  19  31  48  73 107 143 175 214 266 321
#     4  12  25  38  53  76 103 142 190 227 265 317
#     4   8  14  25  42  68 100 144 177 208 257 316
#     4  10  19  30  50  80 109 135 172 218 273 329
#     4  12  21  35  57  75 101 140 178 224 272 317
#     4   8  14  24  42  68 106 138 172 214 262 309
#
# _framework density 18.583548
#
# number of rings (size 3 to 8) (size 9 to 14) (size 15 to 20)
#    0.000    2.400    2.000    3.000    2.800    3.200 
#    0.000    4.000    0.000    1.200    0.000   11.200 
#    0.000    0.000    0.000    0.000    0.000    0.000 
#
# Total GULP energy -495598.733084 kJ/mol
# GULP energy per Si atom -12389.968327 kJ/mol
# Density = 1.854125 g / cm^3
# Si number density = 18.583548 Si / 1000 Ang^3
#
#
#
# Elastic Constant Matrix: (Units=GPa)
#
#
# Indices 1 2 3 4 5 6 
#
# 1 11.4503 14.0648 11.3896 0.0000 0.0000 0.0000
# 2 14.0648 181.8438 96.6252 0.0000 0.0000 0.0000
# 3 11.3896 96.6252 149.6455 0.0000 0.0000 0.0000
# 4 0.0000 0.0000 0.0000 7.7835 0.0000 0.0000
# 5 0.0000 0.0000 0.0000 0.0000 0.7343 0.0000
# 6 0.0000 0.0000 0.0000 0.0000 0.0000 -3.6840
#
#
#
# Elastic Compliance Matrix: (Units=1/GPa)
#
#
# Indices 1 2 3 4 5 6 
#
# 1 0.097977 -0.005504 -0.003903 0.000000 0.000000 0.000000
# 2 -0.005504 0.008681 -0.005186 0.000000 0.000000 0.000000
# 3 -0.003903 -0.005186 0.010328 0.000000 0.000000 0.000000
# 4 0.000000 0.000000 0.000000 0.128477 0.000000 0.000000
# 5 0.000000 0.000000 0.000000 0.000000 1.361808 0.000000
# 6 0.000000 0.000000 0.000000 0.000000 0.000000 -0.271448
#
#
# Mechanical properties :
#
#
# Convention : Reuss Voigt Hill
#
# Bulk Modulus (GPa) = 11.38964 65.23319 38.31142
# Shear Modulus (GPa) = 3.58609 15.69078 9.63844
#
# Velocity S-wave (km/s) = 1.39065 2.90890 2.27987
# Velocity P-wave (km/s) = 2.95309 6.81624 5.25271
#
# Compressibility (1/GPa) = 0.08779908
#
# Stress axis : x y z
#
# Youngs Moduli (GPa) = 10.20649 115.19861 96.82255
#
# Poissons Ratio (x) = 0.63407 0.37791
# Poissons Ratio (y) = 0.05618 0.50213
# Poissons Ratio (z) = 0.03984 0.59743
#
# Static dielectric constant tensor:
#      x y z
#    x 2.714490 0.000000 0.000000 
#    y 0.000000 3.846720 0.000000 
#    z 0.000000 0.000000 3.478630 
# 
# 
# High freq. dielectric constant tensor:
#      x y z
#    x 1.632070 0.000000 0.000000 
#    y 0.000000 1.744450 0.000000 
#    z 0.000000 0.000000 1.731420 
# 
# From -- ./inp_files/23226.got.cif
#   From: 2010.03.12/outbox.cif.g09.slc.cpg/sg69_12_cif.got.tgz:23226.got - 2010.04.10 23:52:46.
