data_PCOD8284036
_publ_section_title
;
Structure prediction by ZEFSAII (Michael W. Deem and Ramdas Pophale) SiO2 
 PCOD8284036
Probable space group: F M M M
;
_chemical_formula_sum "Si O2"
_cell_formula_units_Z 160
_cell_length_a 22.727055
_cell_length_b 23.196498
_cell_length_c 18.279326
_cell_angle_alpha 90.000000
_cell_angle_beta 90.000000
_cell_angle_gamma 90.000000
_cell_volume 9636.642885
_symmetry_space_group_name_H-M "F M M M"
_symmetry_group_IT_number 69
_symmetry_cell_setting 'orthorhombic'
loop_
_space_group_symop_operation_xyz
x,y,z
-x,-y,z
x,-y,-z
-x,y,-z
-x,-y,-z
x,y,-z
-x,y,z
x,-y,z
x,1/2+y,1/2+z
-x,1/2-y,1/2+z
x,1/2-y,1/2-z
-x,1/2+y,1/2-z
-x,1/2-y,1/2-z
x,1/2+y,1/2-z
-x,1/2+y,1/2+z
x,1/2-y,1/2+z
1/2+x,y,1/2+z
1/2-x,-y,1/2+z
1/2+x,-y,1/2-z
1/2-x,y,1/2-z
1/2-x,-y,1/2-z
1/2+x,y,1/2-z
1/2-x,y,1/2+z
1/2+x,-y,1/2+z
1/2+x,1/2+y,z
1/2-x,1/2-y,z
1/2+x,1/2-y,-z
1/2-x,1/2+y,-z
1/2-x,1/2-y,-z
1/2+x,1/2+y,-z
1/2-x,1/2+y,z
1/2+x,1/2-y,z
loop_
_atom_site_type_symbol
_atom_site_label
_atom_site_fract_x
_atom_site_fract_y
_atom_site_fract_z
Si Si1 0.304977 0.342687 0.659545
Si Si2 0.000000 0.564282 0.168728
Si Si3 0.626164 0.065492 0.768457
Si Si4 0.500000 0.681349 0.586177
Si Si5 0.673001 0.339309 0.819424
Si Si6 0.382761 0.256354 0.415054
O O1 0.337504 0.405144 0.663814
O O2 0.316149 0.311517 0.738559
O O3 0.235988 0.349380 0.641850
O O4 0.331212 0.303115 0.595646
O O5 0.943336 0.570866 0.219827
O O6 0.000000 0.500000 0.131668
O O7 0.000000 0.614591 0.109075
O O8 0.641758 0.098452 0.692607
O O9 0.647324 0.000000 0.762245
O O10 0.500000 0.680961 0.500000
O O11 0.442936 0.715431 0.615479
O O12 0.630547 0.300834 0.868991
O O13 0.387291 0.239697 0.500000
#
# Coordination Sequence:
#
# PCOD8284036 Si02
#       6
#    32  16  32  16  32  32
#     4   9  18  32  51  72 100 133 166 205 250 298
#     4  10  18  32  53  77 102 128 166 213 252 295
#     4   9  18  32  52  77 100 127 167 211 250 293
#     4  10  20  34  49  69 102 140 168 201 251 302
#     4   9  19  32  50  74 100 132 167 204 251 299
#     4  11  21  33  49  73 104 134 169 207 247 299
#
# _framework density 16.603293000000001
#
# number of rings (size 3 to 8) (size 9 to 14) (size 15 to 20)
#    1.200    1.200    2.000    1.200    0.000    5.800 
#    0.000    2.000    0.000    1.200    0.000    2.800 
#    0.000    4.800    0.000    0.000    0.000    0.000 
#
# Total GULP energy -495610.778084 kJ/mol
# GULP energy per Si atom -12390.269452 kJ/mol
# Density = 1.656550 g / cm^3
# Si number density = 16.603293 Si / 1000 Ang^3
#
#
#
# Elastic Constant Matrix: (Units=GPa)
#
#
# Indices 1 2 3 4 5 6 
#
# 1 105.8286 44.4168 13.3889 0.0000 0.0000 0.0000
# 2 44.4168 126.9461 27.0344 0.0000 0.0000 0.0000
# 3 13.3889 27.0344 34.6636 0.0000 0.0000 0.0000
# 4 0.0000 0.0000 0.0000 9.8723 0.0000 0.0000
# 5 0.0000 0.0000 0.0000 0.0000 22.7622 0.0000
# 6 0.0000 0.0000 0.0000 0.0000 0.0000 21.7778
#
#
#
# Elastic Compliance Matrix: (Units=1/GPa)
#
#
# Indices 1 2 3 4 5 6 
#
# 1 0.011142 -0.003576 -0.001515 0.000000 0.000000 0.000000
# 2 -0.003576 0.010594 -0.006881 0.000000 0.000000 0.000000
# 3 -0.001515 -0.006881 0.034800 0.000000 0.000000 0.000000
# 4 0.000000 0.000000 0.000000 0.101293 0.000000 0.000000
# 5 0.000000 0.000000 0.000000 0.000000 0.043932 0.000000
# 6 0.000000 0.000000 0.000000 0.000000 0.000000 0.045918
#
#
# Mechanical properties :
#
#
# Convention : Reuss Voigt Hill
#
# Bulk Modulus (GPa) = 30.68169 48.56874 39.62521
# Shear Modulus (GPa) = 17.69991 23.05568 20.37779
#
# Velocity S-wave (km/s) = 3.26858 3.73046 3.50713
# Velocity P-wave (km/s) = 5.72400 6.91890 6.34962
#
# Compressibility (1/GPa) = 0.03259273
#
# Stress axis : x y z
#
# Youngs Moduli (GPa) = 89.75350 94.39436 28.73530
#
# Poissons Ratio (x) = 0.33753 0.04353
# Poissons Ratio (y) = 0.32093 0.19773
# Poissons Ratio (z) = 0.13595 0.64954
#
# Static dielectric constant tensor:
#      x y z
#    x 3.327450 0.000000 0.000000 
#    y 0.000000 3.095890 0.000000 
#    z 0.000000 0.000000 2.706460 
# 
# 
# High freq. dielectric constant tensor:
#      x y z
#    x 1.655740 0.000000 0.000000 
#    y 0.000000 1.634840 0.000000 
#    z 0.000000 0.000000 1.595220 
# 
# From -- ./inp_files/26878.got.cif
#   From: 2010.03.12/outbox.cif.g09.slc.cpg/sg69_14_cif.got.tgz:26878.got - 2010.04.10 23:52:46.
