data_PCOD8284118
_publ_section_title
;
Structure prediction by ZEFSAII (Michael W. Deem and Ramdas Pophale) SiO2 
 PCOD8284118
Probable space group: F M M M
;
_chemical_formula_sum "Si O2"
_cell_formula_units_Z 160
_cell_length_a 14.961480
_cell_length_b 16.383003
_cell_length_c 28.752011
_cell_angle_alpha 90.000000
_cell_angle_beta 90.000000
_cell_angle_gamma 90.000000
_cell_volume 7047.519611
_symmetry_space_group_name_H-M "F M M M"
_symmetry_group_IT_number 69
_symmetry_cell_setting 'orthorhombic'
loop_
_space_group_symop_operation_xyz
x,y,z
-x,-y,z
x,-y,-z
-x,y,-z
-x,-y,-z
x,y,-z
-x,y,z
x,-y,z
x,1/2+y,1/2+z
-x,1/2-y,1/2+z
x,1/2-y,1/2-z
-x,1/2+y,1/2-z
-x,1/2-y,1/2-z
x,1/2+y,1/2-z
-x,1/2+y,1/2+z
x,1/2-y,1/2+z
1/2+x,y,1/2+z
1/2-x,-y,1/2+z
1/2+x,-y,1/2-z
1/2-x,y,1/2-z
1/2-x,-y,1/2-z
1/2+x,y,1/2-z
1/2-x,y,1/2+z
1/2+x,-y,1/2+z
1/2+x,1/2+y,z
1/2-x,1/2-y,z
1/2+x,1/2-y,-z
1/2-x,1/2+y,-z
1/2-x,1/2-y,-z
1/2+x,1/2+y,-z
1/2-x,1/2+y,z
1/2+x,1/2-y,z
loop_
_atom_site_type_symbol
_atom_site_label
_atom_site_fract_x
_atom_site_fract_y
_atom_site_fract_z
Si Si1 0.106053 0.636191 0.551348
Si Si2 0.106296 0.408330 0.140488
Si Si3 0.351586 0.664194 0.265506
Si Si4 0.846529 0.000000 0.774519
Si Si5 0.893300 0.500000 0.378586
Si Si6 0.106373 0.181538 0.551076
O O1 0.138957 0.607251 0.500000
O O2 0.140649 0.578078 0.592350
O O3 0.142108 0.727209 0.561173
O O4 0.000000 0.634287 0.551586
O O5 0.141283 0.500000 0.150103
O O6 0.142773 0.345835 0.179068
O O7 0.143822 0.379155 0.090438
O O8 0.000000 0.405711 0.140870
O O9 0.398600 0.750000 0.250000
O O10 0.250000 0.668379 0.250000
O O11 0.397323 0.583451 0.241866
O O12 0.750000 0.000000 0.750000
O O13 0.840238 0.000000 0.830152
O O14 0.000000 0.500000 0.369755
O O15 0.139575 0.152078 0.500000
O O16 0.000000 0.182582 0.551943
#
# Coordination Sequence:
#
# PCOD8284118 Si02
#       6
#    32  32  32  16  16  32
#     4   8  14  26  44  71 109 144 172 208 256 311
#     4  10  20  33  53  82 112 141 177 225 274 317
#     4  10  22  40  59  76 100 141 191 228 277 329
#     4  10  22  39  53  74 108 138 179 228 272 327
#     4  10  19  28  48  79 107 140 181 218 256 313
#     4   8  15  28  46  72 109 145 173 208 260 319
#
# _framework density 22.703022000000001
#
# number of rings (size 3 to 8) (size 9 to 14) (size 15 to 20)
#    0.000    2.800    1.000    1.500    2.800    2.800 
#    0.000    2.000    0.000    0.000    0.000   14.000 
#    0.000    0.000    0.000    0.000    0.000    0.600 
#
# Total GULP energy -495673.764384 kJ/mol
# GULP energy per Si atom -12391.844110 kJ/mol
# Density = 2.265135 g / cm^3
# Si number density = 22.703022 Si / 1000 Ang^3
#
#
#
# Elastic Constant Matrix: (Units=GPa)
#
#
# Indices 1 2 3 4 5 6 
#
# 1 23.5779 9.4102 18.1382 0.0000 0.0000 0.0000
# 2 9.4102 185.3282 99.5564 0.0000 0.0000 0.0000
# 3 18.1382 99.5564 221.3055 0.0000 0.0000 0.0000
# 4 0.0000 0.0000 0.0000 50.4875 0.0000 0.0000
# 5 0.0000 0.0000 0.0000 0.0000 -541.0263 0.0000
# 6 0.0000 0.0000 0.0000 0.0000 0.0000 3.2760
#
#
#
# Elastic Compliance Matrix: (Units=1/GPa)
#
#
# Indices 1 2 3 4 5 6 
#
# 1 0.045290 -0.000403 -0.003531 0.000000 0.000000 0.000000
# 2 -0.000403 0.007119 -0.003169 0.000000 0.000000 0.000000
# 3 -0.003531 -0.003169 0.006234 0.000000 0.000000 0.000000
# 4 0.000000 0.000000 0.000000 0.019807 0.000000 0.000000
# 5 0.000000 0.000000 0.000000 0.000000 -0.001848 0.000000
# 6 0.000000 0.000000 0.000000 0.000000 0.000000 0.305246
#
#
# Mechanical properties :
#
#
# Convention : Reuss Voigt Hill
#
# Bulk Modulus (GPa) = 22.50425 76.04681 49.27553
# Shear Modulus (GPa) = 12.16944 -77.24545 -32.53801
#
# Velocity S-wave (km/s) = 2.31774 -5.83936 -3.78987
# Velocity P-wave (km/s) = 4.13479 3.44894 1.61266
#
# Compressibility (1/GPa) = 0.04443604
#
# Stress axis : x y z
#
# Youngs Moduli (GPa) = 22.08015 140.47098 160.41485
#
# Poissons Ratio (x) = 0.05661 0.56637
# Poissons Ratio (y) = 0.00890 0.50843
# Poissons Ratio (z) = 0.07796 0.44522
#
# Static dielectric constant tensor:
#      x y z
#    x 3.397060 0.000000 0.000000 
#    y 0.000000 5.585730 0.000000 
#    z 0.000000 0.000000 4.357770 
# 
# 
# High freq. dielectric constant tensor:
#      x y z
#    x 1.846480 0.000000 0.000000 
#    y 0.000000 1.902790 0.000000 
#    z 0.000000 0.000000 1.904870 
# 
# From -- ./inp_files/41772.got.cif
#   From: 2010.03.12/outbox.cif.g09.slc.cpg/sg69_21_cif.got.tgz:41772.got - 2010.04.10 23:52:46.
