data_PCOD8284486
_publ_section_title
;
Structure prediction by ZEFSAII (Michael W. Deem and Ramdas Pophale) SiO2 
 PCOD8284486
Probable space group: F M M M
;
_chemical_formula_sum "Si O2"
_cell_formula_units_Z 144
_cell_length_a 20.816572
_cell_length_b 17.893664
_cell_length_c 19.375747
_cell_angle_alpha 90.000000
_cell_angle_beta 90.000000
_cell_angle_gamma 90.000000
_cell_volume 7217.170180
_symmetry_space_group_name_H-M "F M M M"
_symmetry_group_IT_number 69
_symmetry_cell_setting 'orthorhombic'
loop_
_space_group_symop_operation_xyz
x,y,z
-x,-y,z
x,-y,-z
-x,y,-z
-x,-y,-z
x,y,-z
-x,y,z
x,-y,z
x,1/2+y,1/2+z
-x,1/2-y,1/2+z
x,1/2-y,1/2-z
-x,1/2+y,1/2-z
-x,1/2-y,1/2-z
x,1/2+y,1/2-z
-x,1/2+y,1/2+z
x,1/2-y,1/2+z
1/2+x,y,1/2+z
1/2-x,-y,1/2+z
1/2+x,-y,1/2-z
1/2-x,y,1/2-z
1/2-x,-y,1/2-z
1/2+x,y,1/2-z
1/2-x,y,1/2+z
1/2+x,-y,1/2+z
1/2+x,1/2+y,z
1/2-x,1/2-y,z
1/2+x,1/2-y,-z
1/2-x,1/2+y,-z
1/2-x,1/2-y,-z
1/2+x,1/2+y,-z
1/2-x,1/2+y,z
1/2+x,1/2-y,z
loop_
_atom_site_type_symbol
_atom_site_label
_atom_site_fract_x
_atom_site_fract_y
_atom_site_fract_z
Si Si1 0.692247 0.912379 0.199516
Si Si2 0.394560 0.807704 0.578193
Si Si3 0.500000 0.417557 0.917761
Si Si4 0.073275 0.690902 0.189765
Si Si5 0.253083 0.666342 0.922240
O O1 0.750000 0.884224 0.250000
O O2 0.623330 0.873435 0.213235
O O3 0.713868 0.893355 0.121892
O O4 0.681267 0.000000 0.208042
O O5 0.413669 0.785622 0.500000
O O6 0.440206 0.870655 0.610340
O O7 0.398750 0.730901 0.621133
O O8 0.327947 0.852437 0.579250
O O9 0.500000 0.500000 0.884317
O O10 0.500000 0.424065 0.000000
O O11 0.071090 0.750000 0.250000
O O12 0.000000 0.660338 0.176843
O O13 0.250000 0.750000 0.891235
O O14 0.224519 0.664763 0.000000
#
# Coordination Sequence:
#
# PCOD8284486 Si02
#       5
#    32  32  16  32  32
#     4  11  25  42  62  89 122 161 200 245 306 367
#     4  10  19  34  59  88 117 155 201 243 290 355
#     4   9  18  32  51  80 119 155 187 234 292 342
#     4  11  23  39  63  89 116 154 202 249 300 353
#     4  10  20  35  61  93 119 153 202 250 295 348
#
# _framework density 19.952418999999999
#
# number of rings (size 3 to 8) (size 9 to 14) (size 15 to 20)
#    0.000    1.667    3.333    1.333    0.000    1.778 
#    0.000    3.333    0.000    0.000    0.000    3.111 
#    0.000    0.000    0.000    0.000    0.000    0.000 
#
# Total GULP energy -446214.886389 kJ/mol
# GULP energy per Si atom -12394.857955 kJ/mol
# Density = 1.990701 g / cm^3
# Si number density = 19.952419 Si / 1000 Ang^3
#
#
#
# Elastic Constant Matrix: (Units=GPa)
#
#
# Indices 1 2 3 4 5 6 
#
# 1 122.9115 43.8198 20.7987 0.0000 0.0000 0.0000
# 2 43.8198 89.6473 22.0292 0.0000 0.0000 0.0000
# 3 20.7987 22.0292 68.9836 0.0000 0.0000 0.0000
# 4 0.0000 0.0000 0.0000 24.2345 0.0000 0.0000
# 5 0.0000 0.0000 0.0000 0.0000 24.4574 0.0000
# 6 0.0000 0.0000 0.0000 0.0000 0.0000 31.1707
#
#
#
# Elastic Compliance Matrix: (Units=1/GPa)
#
#
# Indices 1 2 3 4 5 6 
#
# 1 0.010009 -0.004504 -0.001579 0.000000 0.000000 0.000000
# 2 -0.004504 0.014132 -0.003155 0.000000 0.000000 0.000000
# 3 -0.001579 -0.003155 0.015980 0.000000 0.000000 0.000000
# 4 0.000000 0.000000 0.000000 0.041263 0.000000 0.000000
# 5 0.000000 0.000000 0.000000 0.000000 0.040887 0.000000
# 6 0.000000 0.000000 0.000000 0.000000 0.000000 0.032081
#
#
# Mechanical properties :
#
#
# Convention : Reuss Voigt Hill
#
# Bulk Modulus (GPa) = 46.20270 50.53752 48.37011
# Shear Modulus (GPa) = 27.77093 28.96552 28.36822
#
# Velocity S-wave (km/s) = 3.73481 3.81429 3.77476
# Velocity P-wave (km/s) = 6.46569 6.69197 6.57980
#
# Compressibility (1/GPa) = 0.02164376
#
# Stress axis : x y z
#
# Youngs Moduli (GPa) = 99.90950 70.76246 62.57897
#
# Poissons Ratio (x) = 0.31874 0.09883
# Poissons Ratio (y) = 0.45003 0.19742
# Poissons Ratio (z) = 0.15779 0.22324
#
# Static dielectric constant tensor:
#      x y z
#    x 4.004500 0.000000 0.000000 
#    y 0.000000 3.472060 0.000000 
#    z 0.000000 0.000000 3.672770 
# 
# 
# High freq. dielectric constant tensor:
#      x y z
#    x 1.795870 0.000000 0.000000 
#    y 0.000000 1.750380 0.000000 
#    z 0.000000 0.000000 1.773390 
# 
# From -- ./inp_files/22870.got.cif
#   From: 2010.03.12/outbox.cif.g09.slc.cpg/sg69_12_cif.got.tgz:22870.got - 2010.04.10 23:52:46.
