data_PCOD8284865
_publ_section_title
;
Structure prediction by ZEFSAII (Michael W. Deem and Ramdas Pophale) SiO2 
 PCOD8284865
Probable space group: F M M M
;
_chemical_formula_sum "Si O2"
_cell_formula_units_Z 128
_cell_length_a 16.763723
_cell_length_b 16.903110
_cell_length_c 23.309854
_cell_angle_alpha 90.000000
_cell_angle_beta 90.000000
_cell_angle_gamma 90.000000
_cell_volume 6605.058175
_symmetry_space_group_name_H-M "F M M M"
_symmetry_group_IT_number 69
_symmetry_cell_setting 'orthorhombic'
loop_
_space_group_symop_operation_xyz
x,y,z
-x,-y,z
x,-y,-z
-x,y,-z
-x,-y,-z
x,y,-z
-x,y,z
x,-y,z
x,1/2+y,1/2+z
-x,1/2-y,1/2+z
x,1/2-y,1/2-z
-x,1/2+y,1/2-z
-x,1/2-y,1/2-z
x,1/2+y,1/2-z
-x,1/2+y,1/2+z
x,1/2-y,1/2+z
1/2+x,y,1/2+z
1/2-x,-y,1/2+z
1/2+x,-y,1/2-z
1/2-x,y,1/2-z
1/2-x,-y,1/2-z
1/2+x,y,1/2-z
1/2-x,y,1/2+z
1/2+x,-y,1/2+z
1/2+x,1/2+y,z
1/2-x,1/2-y,z
1/2+x,1/2-y,-z
1/2-x,1/2+y,-z
1/2-x,1/2-y,-z
1/2+x,1/2+y,-z
1/2-x,1/2+y,z
1/2+x,1/2-y,z
loop_
_atom_site_type_symbol
_atom_site_label
_atom_site_fract_x
_atom_site_fract_y
_atom_site_fract_z
Si Si1 0.675190 0.302983 0.155822
Si Si2 0.409506 0.848149 0.872212
Si Si3 0.239062 0.591617 0.066008
Si Si4 0.908319 0.590753 0.747024
O O1 0.750000 0.250000 0.175235
O O2 0.603745 0.245762 0.135820
O O3 0.697768 0.359152 0.102946
O O4 0.648832 0.354414 0.209821
O O5 0.500000 0.863020 0.892043
O O6 0.351673 0.883521 0.920382
O O7 0.390010 0.893553 0.813337
O O8 0.251911 0.500000 0.079746
O O9 0.256093 0.611105 0.000000
O O10 0.888835 0.500000 0.732821
O O11 0.000000 0.611154 0.732789
#
# Coordination Sequence:
#
# PCOD8284865 Si02
#       4
#    32  32  32  32
#     4  10  21  35  55  80 109 142 176 217 265 316
#     4  10  21  36  55  81 111 140 174 218 265 315
#     4  10  22  39  57  77 104 140 181 223 264 310
#     4  10  20  35  56  81 110 142 176 216 262 314
#
# _framework density 19.379087999999999
#
# number of rings (size 3 to 8) (size 9 to 14) (size 15 to 20)
#    0.000    2.000    0.000    3.000    0.000   15.500 
#    0.000    7.500    0.000    2.250    0.000    8.750 
#    0.000    0.000    0.000    0.000    0.000    0.000 
#
# Total GULP energy -396927.484852 kJ/mol
# GULP energy per Si atom -12403.983902 kJ/mol
# Density = 1.933498 g / cm^3
# Si number density = 19.379088 Si / 1000 Ang^3
#
#
#
# Elastic Constant Matrix: (Units=GPa)
#
#
# Indices 1 2 3 4 5 6 
#
# 1 51.4164 29.4640 23.4666 0.0000 0.0000 0.0000
# 2 29.4640 111.4932 39.2866 0.0000 0.0000 0.0000
# 3 23.4666 39.2866 44.2918 0.0000 0.0000 0.0000
# 4 0.0000 0.0000 0.0000 19.2268 0.0000 0.0000
# 5 0.0000 0.0000 0.0000 0.0000 22.7317 0.0000
# 6 0.0000 0.0000 0.0000 0.0000 0.0000 26.6353
#
#
#
# Elastic Compliance Matrix: (Units=1/GPa)
#
#
# Indices 1 2 3 4 5 6 
#
# 1 0.026311 -0.002969 -0.011306 0.000000 0.000000 0.000000
# 2 -0.002969 0.013382 -0.010297 0.000000 0.000000 0.000000
# 3 -0.011306 -0.010297 0.037701 0.000000 0.000000 0.000000
# 4 0.000000 0.000000 0.000000 0.052011 0.000000 0.000000
# 5 0.000000 0.000000 0.000000 0.000000 0.043991 0.000000
# 6 0.000000 0.000000 0.000000 0.000000 0.000000 0.037544
#
#
# Mechanical properties :
#
#
# Convention : Reuss Voigt Hill
#
# Bulk Modulus (GPa) = 35.39894 43.51511 39.45703
# Shear Modulus (GPa) = 18.55281 21.38436 19.96859
#
# Velocity S-wave (km/s) = 3.09748 3.32546 3.21350
# Velocity P-wave (km/s) = 5.57663 6.10314 5.84582
#
# Compressibility (1/GPa) = 0.02824943
#
# Stress axis : x y z
#
# Youngs Moduli (GPa) = 38.00729 74.72720 26.52449
#
# Poissons Ratio (x) = 0.22187 0.29990
# Poissons Ratio (y) = 0.11285 0.27312
# Poissons Ratio (z) = 0.42973 0.76944
#
# Static dielectric constant tensor:
#      x y z
#    x 3.541520 0.000000 0.000000 
#    y 0.000000 3.796730 0.000000 
#    z 0.000000 0.000000 3.329520 
# 
# 
# High freq. dielectric constant tensor:
#      x y z
#    x 1.750970 0.000000 0.000000 
#    y 0.000000 1.773880 0.000000 
#    z 0.000000 0.000000 1.742630 
# 
# From -- ./inp_files/22738.got.cif
#   From: 2010.03.12/outbox.cif.g09.slc.cpg/sg69_12_cif.got.tgz:22738.got - 2010.04.10 23:52:46.
