data_PCOD8284694
_publ_section_title
;
Structure prediction by ZEFSAII (Michael W. Deem and Ramdas Pophale) SiO2 
 PCOD8284694
Probable space group: F M M M
;
_chemical_formula_sum "Si O2"
_cell_formula_units_Z 176
_cell_length_a 17.331300
_cell_length_b 20.783811
_cell_length_c 25.372907
_cell_angle_alpha 90.000000
_cell_angle_beta 90.000000
_cell_angle_gamma 90.000000
_cell_volume 9139.586593
_symmetry_space_group_name_H-M "F M M M"
_symmetry_group_IT_number 69
_symmetry_cell_setting 'orthorhombic'
loop_
_space_group_symop_operation_xyz
x,y,z
-x,-y,z
x,-y,-z
-x,y,-z
-x,-y,-z
x,y,-z
-x,y,z
x,-y,z
x,1/2+y,1/2+z
-x,1/2-y,1/2+z
x,1/2-y,1/2-z
-x,1/2+y,1/2-z
-x,1/2-y,1/2-z
x,1/2+y,1/2-z
-x,1/2+y,1/2+z
x,1/2-y,1/2+z
1/2+x,y,1/2+z
1/2-x,-y,1/2+z
1/2+x,-y,1/2-z
1/2-x,y,1/2-z
1/2-x,-y,1/2-z
1/2+x,y,1/2-z
1/2-x,y,1/2+z
1/2+x,-y,1/2+z
1/2+x,1/2+y,z
1/2-x,1/2-y,z
1/2+x,1/2-y,-z
1/2-x,1/2+y,-z
1/2-x,1/2-y,-z
1/2+x,1/2+y,-z
1/2-x,1/2+y,z
1/2+x,1/2-y,z
loop_
_atom_site_type_symbol
_atom_site_label
_atom_site_fract_x
_atom_site_fract_y
_atom_site_fract_z
Si Si1 0.305526 0.571600 0.798845
Si Si2 0.411290 0.304382 0.208680
Si Si3 0.302903 0.895069 0.104830
Si Si4 0.375553 0.250178 0.000000
Si Si5 0.584073 0.717188 0.387225
Si Si6 0.240969 0.646925 0.500000
Si Si7 0.909001 0.000000 0.438496
O O1 0.344405 0.500000 0.802522
O O2 0.250000 0.574016 0.750000
O O3 0.367760 0.627528 0.789360
O O4 0.252940 0.580680 0.850074
O O5 0.500000 0.318937 0.222672
O O6 0.379659 0.250000 0.250000
O O7 0.400184 0.278609 0.149495
O O8 0.342189 0.828123 0.121706
O O9 0.249848 0.894333 0.052827
O O10 0.376236 0.938981 0.092107
O O11 0.425173 0.239505 0.947629
O O12 0.305770 0.200877 0.000000
O O13 0.343903 0.322714 0.000000
O O14 0.500000 0.686669 0.371754
O O15 0.885014 0.000000 0.500000
O O16 0.000000 0.000000 0.432518
#
# Coordination Sequence:
#
# PCOD8284694 Si02
#       7
#    32  32  32  16  32  16  16
#     4  11  24  40  61  86 119 153 195 246 295 356
#     4  10  22  41  63  87 114 150 197 245 299 359
#     4  11  20  36  55  82 117 153 203 245 292 356
#     4   9  17  30  46  78 112 142 182 236 294 349
#     4  10  20  33  54  82 113 149 190 241 295 349
#     4   9  18  29  51  76 105 146 192 236 291 342
#     4  11  22  36  55  82 121 169 206 242 300 364
#
# _framework density 19.256889000000001
#
# number of rings (size 3 to 8) (size 9 to 14) (size 15 to 20)
#    0.000    1.727    1.818    3.000    0.000    4.364 
#    0.000    0.909    0.000    0.000    0.000    0.000 
#    0.000    8.000    0.000    0.000    0.000    0.000 
#
# Total GULP energy -545329.737203 kJ/mol
# GULP energy per Si atom -12393.857664 kJ/mol
# Density = 1.921306 g / cm^3
# Si number density = 19.256889 Si / 1000 Ang^3
#
#
#
# Elastic Constant Matrix: (Units=GPa)
#
#
# Indices 1 2 3 4 5 6 
#
# 1 69.9958 55.8940 27.0860 0.0000 0.0000 0.0000
# 2 55.8940 131.3208 51.7689 0.0000 0.0000 0.0000
# 3 27.0860 51.7689 122.9838 0.0000 0.0000 0.0000
# 4 0.0000 0.0000 0.0000 28.7421 0.0000 0.0000
# 5 0.0000 0.0000 0.0000 0.0000 25.3123 0.0000
# 6 0.0000 0.0000 0.0000 0.0000 0.0000 37.0555
#
#
#
# Elastic Compliance Matrix: (Units=1/GPa)
#
#
# Indices 1 2 3 4 5 6 
#
# 1 0.021760 -0.008839 -0.001072 0.000000 0.000000 0.000000
# 2 -0.008839 0.012721 -0.003408 0.000000 0.000000 0.000000
# 3 -0.001072 -0.003408 0.009802 0.000000 0.000000 0.000000
# 4 0.000000 0.000000 0.000000 0.034792 0.000000 0.000000
# 5 0.000000 0.000000 0.000000 0.000000 0.039507 0.000000
# 6 0.000000 0.000000 0.000000 0.000000 0.000000 0.026987
#
#
# Mechanical properties :
#
#
# Convention : Reuss Voigt Hill
#
# Bulk Modulus (GPa) = 56.67433 65.97758 61.32596
# Shear Modulus (GPa) = 28.07638 30.85874 29.46756
#
# Velocity S-wave (km/s) = 3.82251 4.00744 3.91607
# Velocity P-wave (km/s) = 6.99833 7.46652 7.23621
#
# Compressibility (1/GPa) = 0.01764467
#
# Stress axis : x y z
#
# Youngs Moduli (GPa) = 45.95685 78.61299 102.02327
#
# Poissons Ratio (x) = 0.69486 0.10933
# Poissons Ratio (y) = 0.40621 0.34768
# Poissons Ratio (z) = 0.04925 0.26790
#
# Static dielectric constant tensor:
#      x y z
#    x 3.346370 0.000000 0.000000 
#    y 0.000000 3.768610 0.000000 
#    z 0.000000 0.000000 4.282940 
# 
# 
# High freq. dielectric constant tensor:
#      x y z
#    x 1.735850 0.000000 0.000000 
#    y 0.000000 1.739480 0.000000 
#    z 0.000000 0.000000 1.767770 
# 
# From -- ./inp_files/23310.got.cif
#   From: 2010.03.12/outbox.cif.g09.slc.cpg/sg69_12_cif.got.tgz:23310.got - 2010.04.10 23:52:46.
