data_PCOD8284768
_publ_section_title
;
Structure prediction by ZEFSAII (Michael W. Deem and Ramdas Pophale) SiO2 
 PCOD8284768
Probable space group: F M M M
;
_chemical_formula_sum "Si O2"
_cell_formula_units_Z 160
_cell_length_a 31.990499
_cell_length_b 9.098055
_cell_length_c 30.619295
_cell_angle_alpha 90.000000
_cell_angle_beta 90.000000
_cell_angle_gamma 90.000000
_cell_volume 8911.786208
_symmetry_space_group_name_H-M "F M M M"
_symmetry_group_IT_number 69
_symmetry_cell_setting 'orthorhombic'
loop_
_space_group_symop_operation_xyz
x,y,z
-x,-y,z
x,-y,-z
-x,y,-z
-x,-y,-z
x,y,-z
-x,y,z
x,-y,z
x,1/2+y,1/2+z
-x,1/2-y,1/2+z
x,1/2-y,1/2-z
-x,1/2+y,1/2-z
-x,1/2-y,1/2-z
x,1/2+y,1/2-z
-x,1/2+y,1/2+z
x,1/2-y,1/2+z
1/2+x,y,1/2+z
1/2-x,-y,1/2+z
1/2+x,-y,1/2-z
1/2-x,y,1/2-z
1/2-x,-y,1/2-z
1/2+x,y,1/2-z
1/2-x,y,1/2+z
1/2+x,-y,1/2+z
1/2+x,1/2+y,z
1/2-x,1/2-y,z
1/2+x,1/2-y,-z
1/2-x,1/2+y,-z
1/2-x,1/2-y,-z
1/2+x,1/2+y,-z
1/2-x,1/2+y,z
1/2+x,1/2-y,z
loop_
_atom_site_type_symbol
_atom_site_label
_atom_site_fract_x
_atom_site_fract_y
_atom_site_fract_z
Si Si1 0.451674 0.171143 0.704654
Si Si2 0.880953 0.826708 0.660087
Si Si3 0.310495 0.836640 0.290583
Si Si4 0.323745 0.837177 0.081192
Si Si5 0.250000 0.750000 0.860952
Si Si6 0.294760 0.827022 0.500000
O O1 0.500000 0.193305 0.692731
O O2 0.440363 0.250000 0.750000
O O3 0.425793 0.248305 0.665567
O O4 0.439968 0.000000 0.708456
O O5 0.850799 0.757378 0.696227
O O6 0.862861 0.793130 0.611776
O O7 0.884688 0.000000 0.668088
O O8 0.289777 0.750000 0.250000
O O9 0.277545 0.854670 0.330006
O O10 0.324188 0.000000 0.276483
O O11 0.280874 0.844808 0.108937
O O12 0.321003 0.718852 0.042599
O O13 0.330396 0.000000 0.061426
O O14 0.250000 0.750000 0.500000
O O15 0.287755 0.000000 0.500000
#
# Coordination Sequence:
#
# PCOD8284768 Si02
#       6
#    32  32  32  32  16  16
#     4  10  20  34  54  80 110 144 180 218 260 308
#     4  10  21  36  54  76 103 135 172 216 262 309
#     4  11  22  34  48  67  95 134 176 218 259 303
#     4  10  21  37  55  76 102 132 170 214 262 314
#     4  10  21  33  52  70  94 128 174 215 259 302
#     4  12  24  36  56  80 105 136 171 214 266 317
#
# _framework density 17.953752000000001
#
# number of rings (size 3 to 8) (size 9 to 14) (size 15 to 20)
#    0.000    1.600    1.000    4.200    0.000    8.400 
#    0.000    0.000    0.000    0.000    0.000    0.700 
#    0.000    5.600    0.000    0.000    0.000    0.000 
#
# Total GULP energy -495997.869136 kJ/mol
# GULP energy per Si atom -12399.946728 kJ/mol
# Density = 1.791289 g / cm^3
# Si number density = 17.953752 Si / 1000 Ang^3
#
#
#
# Elastic Constant Matrix: (Units=GPa)
#
#
# Indices 1 2 3 4 5 6 
#
# 1 93.9670 52.2268 45.9151 0.0001 -0.0001 -0.0004
# 2 52.2268 155.9205 63.6575 0.0003 -0.0001 -0.0013
# 3 45.9151 63.6575 102.4369 0.0000 0.0000 0.0000
# 4 0.0001 0.0003 0.0000 28.4477 0.0000 -0.0001
# 5 -0.0001 -0.0001 0.0000 0.0000 21.6648 0.0001
# 6 -0.0004 -0.0013 0.0000 -0.0001 0.0001 23.1927
#
#
#
# Elastic Compliance Matrix: (Units=1/GPa)
#
#
# Indices 1 2 3 4 5 6 
#
# 1 0.014585 -0.002970 -0.004692 0.000000 0.000000 0.000000
# 2 -0.002970 0.009199 -0.004385 0.000000 0.000000 0.000000
# 3 -0.004692 -0.004385 0.014590 0.000000 0.000000 0.000000
# 4 0.000000 0.000000 0.000000 0.035152 0.000000 0.000000
# 5 0.000000 0.000000 0.000000 0.000000 0.046158 0.000000
# 6 0.000000 0.000000 0.000000 0.000000 0.000000 0.043117
#
#
# Mechanical properties :
#
#
# Convention : Reuss Voigt Hill
#
# Bulk Modulus (GPa) = 70.02694 75.10256 72.56475
# Shear Modulus (GPa) = 26.08852 27.36272 26.72562
#
# Velocity S-wave (km/s) = 3.81608 3.90817 3.86240
# Velocity P-wave (km/s) = 7.64888 7.89221 7.77150
#
# Compressibility (1/GPa) = 0.01428022
#
# Stress axis : x y z
#
# Youngs Moduli (GPa) = 68.56206 108.71200 68.53901
#
# Poissons Ratio (x) = 0.32286 0.32158
# Poissons Ratio (y) = 0.20362 0.30055
# Poissons Ratio (z) = 0.32169 0.47672
#
# Static dielectric constant tensor:
#      x y z
#    x 3.237700 0.000000 0.000000 
#    y 0.000000 3.317170 0.000000 
#    z 0.000000 0.000000 3.272740 
# 
# 
# High freq. dielectric constant tensor:
#      x y z
#    x 1.674080 0.000000 0.000000 
#    y 0.000000 1.708900 0.000000 
#    z 0.000000 0.000000 1.678280 
# 
# From -- ./inp_files/47513.got.cif
#   From: 2010.03.12/outbox.cif.g09.slc.cpg/sg69_24_cif.got.tgz:47513.got - 2010.04.10 23:52:46.
