data_PCOD8284480
_publ_section_title
;
Structure prediction by ZEFSAII (Michael W. Deem and Ramdas Pophale) SiO2 
 PCOD8284480
Probable space group: F M M M
;
_chemical_formula_sum "Si O2"
_cell_formula_units_Z 144
_cell_length_a 26.415868
_cell_length_b 17.387510
_cell_length_c 16.723803
_cell_angle_alpha 90.000000
_cell_angle_beta 90.000000
_cell_angle_gamma 90.000000
_cell_volume 7681.345887
_symmetry_space_group_name_H-M "F M M M"
_symmetry_group_IT_number 69
_symmetry_cell_setting 'orthorhombic'
loop_
_space_group_symop_operation_xyz
x,y,z
-x,-y,z
x,-y,-z
-x,y,-z
-x,-y,-z
x,y,-z
-x,y,z
x,-y,z
x,1/2+y,1/2+z
-x,1/2-y,1/2+z
x,1/2-y,1/2-z
-x,1/2+y,1/2-z
-x,1/2-y,1/2-z
x,1/2+y,1/2-z
-x,1/2+y,1/2+z
x,1/2-y,1/2+z
1/2+x,y,1/2+z
1/2-x,-y,1/2+z
1/2+x,-y,1/2-z
1/2-x,y,1/2-z
1/2-x,-y,1/2-z
1/2+x,y,1/2-z
1/2-x,y,1/2+z
1/2+x,-y,1/2+z
1/2+x,1/2+y,z
1/2-x,1/2-y,z
1/2+x,1/2-y,-z
1/2-x,1/2+y,-z
1/2-x,1/2-y,-z
1/2+x,1/2+y,-z
1/2-x,1/2+y,z
1/2+x,1/2-y,z
loop_
_atom_site_type_symbol
_atom_site_label
_atom_site_fract_x
_atom_site_fract_y
_atom_site_fract_z
Si Si1 0.440488 0.585939 0.000000
Si Si2 0.195421 0.267175 0.157154
Si Si3 0.593934 0.687662 0.854558
Si Si4 0.442124 0.849268 0.184122
Si Si5 0.855164 0.913110 0.407358
O O1 0.423081 0.628665 0.079109
O O2 0.417275 0.500000 0.000000
O O3 0.500000 0.581617 0.000000
O O4 0.199101 0.250000 0.250000
O O5 0.250000 0.250000 0.116532
O O6 0.151497 0.211602 0.123615
O O7 0.181716 0.356032 0.140822
O O8 0.558811 0.763582 0.853286
O O9 0.588176 0.647807 0.768079
O O10 0.500000 0.876399 0.194640
O O11 0.412832 0.906460 0.124615
O O12 0.854675 0.889982 0.500000
O O13 0.835773 0.000000 0.394495
#
# Coordination Sequence:
#
# PCOD8284480 Si02
#       5
#    16  32  32  32  32
#     4  11  24  38  55  84 123 161 192 235 296 348
#     4  10  20  40  66  88 108 146 198 244 291 347
#     4  10  19  38  57  84 116 148 194 245 285 341
#     4  10  19  34  59  85 111 153 199 236 278 338
#     4  10  22  39  56  84 124 154 185 237 291 340
#
# _framework density 18.746714999999998
#
# number of rings (size 3 to 8) (size 9 to 14) (size 15 to 20)
#    0.000    1.889    4.444    2.667    6.222    2.222 
#    0.000    4.444    0.000    0.000    0.000    0.000 
#    0.000    0.000    0.000    0.000    0.000    0.000 
#
# Total GULP energy -446290.391078 kJ/mol
# GULP energy per Si atom -12396.955308 kJ/mol
# Density = 1.870405 g / cm^3
# Si number density = 18.746715 Si / 1000 Ang^3
#
#
#
# Elastic Constant Matrix: (Units=GPa)
#
#
# Indices 1 2 3 4 5 6 
#
# 1 139.0804 44.2773 27.8163 0.0000 0.0000 0.0000
# 2 44.2773 113.0017 76.1060 0.0000 0.0000 0.0000
# 3 27.8163 76.1060 99.2514 0.0000 0.0000 0.0000
# 4 0.0000 0.0000 0.0000 26.0193 0.0000 0.0000
# 5 0.0000 0.0000 0.0000 0.0000 9.0913 0.0000
# 6 0.0000 0.0000 0.0000 0.0000 0.0000 13.0320
#
#
#
# Elastic Compliance Matrix: (Units=1/GPa)
#
#
# Indices 1 2 3 4 5 6 
#
# 1 0.008220 -0.003452 0.000343 0.000000 0.000000 0.000000
# 2 -0.003452 0.019750 -0.014177 0.000000 0.000000 0.000000
# 3 0.000343 -0.014177 0.020850 0.000000 0.000000 0.000000
# 4 0.000000 0.000000 0.000000 0.038433 0.000000 0.000000
# 5 0.000000 0.000000 0.000000 0.000000 0.109995 0.000000
# 6 0.000000 0.000000 0.000000 0.000000 0.000000 0.076734
#
#
# Mechanical properties :
#
#
# Convention : Reuss Voigt Hill
#
# Bulk Modulus (GPa) = 70.18027 71.97032 71.07529
# Shear Modulus (GPa) = 15.95893 23.17078 19.56485
#
# Velocity S-wave (km/s) = 2.92086 3.51948 3.23405
# Velocity P-wave (km/s) = 6.99232 7.41552 7.20702
#
# Compressibility (1/GPa) = 0.01424902
#
# Stress axis : x y z
#
# Youngs Moduli (GPa) = 121.64755 50.63252 47.96149
#
# Poissons Ratio (x) = 0.17479 -0.01646
# Poissons Ratio (y) = 0.41995 0.67995
# Poissons Ratio (z) = -0.04176 0.71781
#
# Static dielectric constant tensor:
#      x y z
#    x 3.958770 0.000000 0.000000 
#    y 0.000000 3.384710 0.000000 
#    z 0.000000 0.000000 3.395170 
# 
# 
# High freq. dielectric constant tensor:
#      x y z
#    x 1.725470 0.000000 0.000000 
#    y 0.000000 1.713830 0.000000 
#    z 0.000000 0.000000 1.728000 
# 
# From -- ./inp_files/26598.got.cif
#   From: 2010.03.12/outbox.cif.g09.slc.cpg/sg69_14_cif.got.tgz:26598.got - 2010.04.10 23:52:46.
