data_PCOD8284705
_publ_section_title
;
Structure prediction by ZEFSAII (Michael W. Deem and Ramdas Pophale) SiO2 
 PCOD8284705
Probable space group: F M M M
;
_chemical_formula_sum "Si O2"
_cell_formula_units_Z 176
_cell_length_a 27.533049
_cell_length_b 14.888593
_cell_length_c 24.096332
_cell_angle_alpha 90.000000
_cell_angle_beta 90.000000
_cell_angle_gamma 90.000000
_cell_volume 9877.769873
_symmetry_space_group_name_H-M "F M M M"
_symmetry_group_IT_number 69
_symmetry_cell_setting 'orthorhombic'
loop_
_space_group_symop_operation_xyz
x,y,z
-x,-y,z
x,-y,-z
-x,y,-z
-x,-y,-z
x,y,-z
-x,y,z
x,-y,z
x,1/2+y,1/2+z
-x,1/2-y,1/2+z
x,1/2-y,1/2-z
-x,1/2+y,1/2-z
-x,1/2-y,1/2-z
x,1/2+y,1/2-z
-x,1/2+y,1/2+z
x,1/2-y,1/2+z
1/2+x,y,1/2+z
1/2-x,-y,1/2+z
1/2+x,-y,1/2-z
1/2-x,y,1/2-z
1/2-x,-y,1/2-z
1/2+x,y,1/2-z
1/2-x,y,1/2+z
1/2+x,-y,1/2+z
1/2+x,1/2+y,z
1/2-x,1/2-y,z
1/2+x,1/2-y,-z
1/2-x,1/2+y,-z
1/2-x,1/2-y,-z
1/2+x,1/2+y,-z
1/2-x,1/2+y,z
1/2+x,1/2-y,z
loop_
_atom_site_type_symbol
_atom_site_label
_atom_site_fract_x
_atom_site_fract_y
_atom_site_fract_z
Si Si1 0.154030 0.500000 0.667423
Si Si2 0.692803 0.354313 0.751144
Si Si3 0.554915 0.329677 0.289402
Si Si4 0.282381 0.169147 0.935968
Si Si5 0.361187 0.102244 0.143172
Si Si6 0.784546 0.000000 0.937636
Si Si7 0.053137 0.500000 0.287890
O O1 0.172952 0.591746 0.695733
O O2 0.170085 0.500000 0.603574
O O3 0.095296 0.500000 0.666214
O O4 0.676437 0.250000 0.750000
O O5 0.750000 0.363373 0.750000
O O6 0.672042 0.403556 0.697452
O O7 0.500000 0.311171 0.310279
O O8 0.573886 0.250000 0.250000
O O9 0.589052 0.343651 0.343212
O O10 0.558979 0.416756 0.252244
O O11 0.250000 0.250000 0.911085
O O12 0.333349 0.158441 0.904209
O O13 0.250082 0.082832 0.926522
O O14 0.295325 0.187317 0.000000
O O15 0.372249 0.000000 0.123372
O O16 0.805795 0.000000 0.000000
O O17 0.000000 0.500000 0.317265
#
# Coordination Sequence:
#
# PCOD8284705 Si02
#       7
#    16  32  32  32  32  16  16
#     4  12  21  36  54  75 108 145 182 224 277 343
#     4  11  23  32  46  77 113 141 169 215 276 335
#     4  10  20  35  54  80 114 149 186 227 281 348
#     4  10  23  40  56  78 109 150 194 234 279 336
#     4  12  21  34  55  80 109 147 188 233 284 336
#     4  10  22  38  56  79 107 146 196 236 274 333
#     4  10  20  34  50  75 108 141 183 231 276 334
#
# _framework density 17.817786999999999
#
# number of rings (size 3 to 8) (size 9 to 14) (size 15 to 20)
#    0.000    1.273    4.545    1.909    5.091    0.000 
#    0.000    0.000    0.000    0.818    0.000    1.273 
#    0.000    8.727    0.000    0.000    0.000    0.727 
#
# Total GULP energy -545565.060092 kJ/mol
# GULP energy per Si atom -12399.205911 kJ/mol
# Density = 1.777723 g / cm^3
# Si number density = 17.817787 Si / 1000 Ang^3
#
#
#
# Elastic Constant Matrix: (Units=GPa)
#
#
# Indices 1 2 3 4 5 6 
#
# 1 143.1584 37.6499 55.4306 0.0000 0.0000 0.0000
# 2 37.6499 129.3999 26.1451 0.0000 0.0000 0.0000
# 3 55.4306 26.1451 83.6360 0.0000 0.0000 0.0000
# 4 0.0000 0.0000 0.0000 25.3366 0.0000 0.0000
# 5 0.0000 0.0000 0.0000 0.0000 28.7193 0.0000
# 6 0.0000 0.0000 0.0000 0.0000 0.0000 34.5201
#
#
#
# Elastic Compliance Matrix: (Units=1/GPa)
#
#
# Indices 1 2 3 4 5 6 
#
# 1 0.009707 -0.001627 -0.005925 0.000000 0.000000 0.000000
# 2 -0.001627 0.008522 -0.001585 0.000000 0.000000 0.000000
# 3 -0.005925 -0.001585 0.016379 0.000000 0.000000 0.000000
# 4 0.000000 0.000000 0.000000 0.039469 0.000000 0.000000
# 5 0.000000 0.000000 0.000000 0.000000 0.034820 0.000000
# 6 0.000000 0.000000 0.000000 0.000000 0.000000 0.028969
#
#
# Mechanical properties :
#
#
# Convention : Reuss Voigt Hill
#
# Bulk Modulus (GPa) = 61.22661 66.07171 63.64916
# Shear Modulus (GPa) = 30.94351 33.51312 32.22832
#
# Velocity S-wave (km/s) = 4.17185 4.34162 4.25758
# Velocity P-wave (km/s) = 7.59230 7.89273 7.74397
#
# Compressibility (1/GPa) = 0.01633277
#
# Stress axis : x y z
#
# Youngs Moduli (GPa) = 103.01458 117.34616 61.05378
#
# Poissons Ratio (x) = 0.19096 0.36174
# Poissons Ratio (y) = 0.16764 0.09680
# Poissons Ratio (z) = 0.61036 0.18605
#
# Static dielectric constant tensor:
#      x y z
#    x 3.594270 0.000000 0.000000 
#    y 0.000000 3.544140 0.000000 
#    z 0.000000 0.000000 3.114310 
# 
# 
# High freq. dielectric constant tensor:
#      x y z
#    x 1.689570 0.000000 0.000000 
#    y 0.000000 1.712370 0.000000 
#    z 0.000000 0.000000 1.650880 
# 
# From -- ./inp_files/36196.got.cif
#   From: 2010.03.12/outbox.cif.g09.slc.cpg/sg69_19_cif.got.tgz:36196.got - 2010.04.10 23:52:46.
