data_PCOD8284075
_publ_section_title
;
Structure prediction by ZEFSAII (Michael W. Deem and Ramdas Pophale) SiO2 
 PCOD8284075
Probable space group: F M M M
;
_chemical_formula_sum "Si O2"
_cell_formula_units_Z 240
_cell_length_a 22.749767
_cell_length_b 18.386187
_cell_length_c 29.089614
_cell_angle_alpha 90.000000
_cell_angle_beta 90.000000
_cell_angle_gamma 90.000000
_cell_volume 12167.646513
_symmetry_space_group_name_H-M "F M M M"
_symmetry_group_IT_number 69
_symmetry_cell_setting 'orthorhombic'
loop_
_space_group_symop_operation_xyz
x,y,z
-x,-y,z
x,-y,-z
-x,y,-z
-x,-y,-z
x,y,-z
-x,y,z
x,-y,z
x,1/2+y,1/2+z
-x,1/2-y,1/2+z
x,1/2-y,1/2-z
-x,1/2+y,1/2-z
-x,1/2-y,1/2-z
x,1/2+y,1/2-z
-x,1/2+y,1/2+z
x,1/2-y,1/2+z
1/2+x,y,1/2+z
1/2-x,-y,1/2+z
1/2+x,-y,1/2-z
1/2-x,y,1/2-z
1/2-x,-y,1/2-z
1/2+x,y,1/2-z
1/2-x,y,1/2+z
1/2+x,-y,1/2+z
1/2+x,1/2+y,z
1/2-x,1/2-y,z
1/2+x,1/2-y,-z
1/2-x,1/2+y,-z
1/2-x,1/2-y,-z
1/2+x,1/2+y,-z
1/2-x,1/2+y,z
1/2+x,1/2-y,z
loop_
_atom_site_type_symbol
_atom_site_label
_atom_site_fract_x
_atom_site_fract_y
_atom_site_fract_z
Si Si1 0.337552 0.415480 0.553296
Si Si2 0.278256 0.917251 0.797627
Si Si3 0.397699 0.657539 0.893167
Si Si4 0.433073 0.676558 0.397010
Si Si5 0.722122 0.916720 0.392491
Si Si6 0.500000 0.917708 0.554209
Si Si7 0.432002 0.825069 0.703954
Si Si8 0.604756 0.165423 0.199973
O O1 0.326053 0.399697 0.500000
O O2 0.349051 0.500000 0.563228
O O3 0.395694 0.373432 0.569059
O O4 0.280317 0.388791 0.581267
O O5 0.250000 0.891893 0.750000
O O6 0.230332 0.910013 0.837723
O O7 0.330591 0.863484 0.809554
O O8 0.301841 0.000000 0.794331
O O9 0.403915 0.743992 0.896610
O O10 0.332131 0.633900 0.907115
O O11 0.441690 0.621099 0.928480
O O12 0.413048 0.629475 0.841176
O O13 0.500000 0.679505 0.415079
O O14 0.433291 0.644200 0.344981
O O15 0.708423 0.000000 0.406569
O O16 0.500000 0.913288 0.500000
O O17 0.500000 0.000000 0.572211
O O18 0.500000 0.802520 0.699749
O O19 0.420902 0.868422 0.752013
O O20 0.393206 0.752278 0.704947
#
# Coordination Sequence:
#
# PCOD8284075 Si02
#       8
#    32  32  32  32  32  16  32  32
#     4  10  23  44  66  89 119 161 210 253 303 366
#     4  10  20  35  54  81 119 158 199 250 302 355
#     4  11  21  40  62  91 125 161 200 252 310 362
#     4  11  22  39  62  93 128 161 198 256 313 355
#     4  10  21  39  62  86 119 161 202 253 305 359
#     4  11  24  42  64  89 119 161 209 252 301 371
#     4  10  19  35  57  83 119 161 198 244 295 356
#     4  10  18  33  57  84 115 160 201 240 292 361
#
# _framework density 19.724439
#
# number of rings (size 3 to 8) (size 9 to 14) (size 15 to 20)
#    0.000    1.667    2.667    3.600    0.000    2.133 
#    0.000    8.667    0.000    2.800    0.000    0.000 
#    0.000    0.000    0.000    0.000    0.000    0.000 
#
# Total GULP energy -743964.004117 kJ/mol
# GULP energy per Si atom -12399.400069 kJ/mol
# Density = 1.967955 g / cm^3
# Si number density = 19.724439 Si / 1000 Ang^3
#
#
#
# Elastic Constant Matrix: (Units=GPa)
#
#
# Indices 1 2 3 4 5 6 
#
# 1 146.0439 56.6333 33.2356 0.0000 0.0000 0.0000
# 2 56.6333 60.3973 29.6700 0.0000 0.0000 0.0000
# 3 33.2356 29.6700 101.8987 0.0000 0.0000 0.0000
# 4 0.0000 0.0000 0.0000 23.9144 0.0000 0.0000
# 5 0.0000 0.0000 0.0000 0.0000 25.4483 0.0000
# 6 0.0000 0.0000 0.0000 0.0000 0.0000 22.3980
#
#
#
# Elastic Compliance Matrix: (Units=1/GPa)
#
#
# Indices 1 2 3 4 5 6 
#
# 1 0.010799 -0.009797 -0.000670 0.000000 0.000000 0.000000
# 2 -0.009797 0.028208 -0.005018 0.000000 0.000000 0.000000
# 3 -0.000670 -0.005018 0.011493 0.000000 0.000000 0.000000
# 4 0.000000 0.000000 0.000000 0.041816 0.000000 0.000000
# 5 0.000000 0.000000 0.000000 0.000000 0.039295 0.000000
# 6 0.000000 0.000000 0.000000 0.000000 0.000000 0.044647
#
#
# Mechanical properties :
#
#
# Convention : Reuss Voigt Hill
#
# Bulk Modulus (GPa) = 51.19987 60.82417 56.01202
# Shear Modulus (GPa) = 23.39316 26.93887 25.16602
#
# Velocity S-wave (km/s) = 3.44757 3.69963 3.57582
# Velocity P-wave (km/s) = 6.47005 7.01096 6.74593
#
# Compressibility (1/GPa) = 0.01953130
#
# Stress axis : x y z
#
# Youngs Moduli (GPa) = 92.60427 35.45044 87.00794
#
# Poissons Ratio (x) = 0.34730 0.05826
# Poissons Ratio (y) = 0.90722 0.43662
# Poissons Ratio (z) = 0.06201 0.17790
#
# Static dielectric constant tensor:
#      x y z
#    x 3.506980 0.000000 0.000000 
#    y 0.000000 3.371320 0.000000 
#    z 0.000000 0.000000 3.921330 
# 
# 
# High freq. dielectric constant tensor:
#      x y z
#    x 1.768310 0.000000 0.000000 
#    y 0.000000 1.741600 0.000000 
#    z 0.000000 0.000000 1.782320 
# 
# From -- ./inp_files/42838.got.cif
#   From: 2010.03.12/outbox.cif.g09.slc.cpg/sg69_22_cif.got.tgz:42838.got - 2010.04.10 23:52:46.
