data_PCOD8284463
_publ_section_title
;
Structure prediction by ZEFSAII (Michael W. Deem and Ramdas Pophale) SiO2 
 PCOD8284463
Probable space group: F M M M
;
_chemical_formula_sum "Si O2"
_cell_formula_units_Z 192
_cell_length_a 17.905340
_cell_length_b 16.997164
_cell_length_c 33.890739
_cell_angle_alpha 90.000000
_cell_angle_beta 90.000000
_cell_angle_gamma 90.000000
_cell_volume 10314.307523
_symmetry_space_group_name_H-M "F M M M"
_symmetry_group_IT_number 69
_symmetry_cell_setting 'orthorhombic'
loop_
_space_group_symop_operation_xyz
x,y,z
-x,-y,z
x,-y,-z
-x,y,-z
-x,-y,-z
x,y,-z
-x,y,z
x,-y,z
x,1/2+y,1/2+z
-x,1/2-y,1/2+z
x,1/2-y,1/2-z
-x,1/2+y,1/2-z
-x,1/2-y,1/2-z
x,1/2+y,1/2-z
-x,1/2+y,1/2+z
x,1/2-y,1/2+z
1/2+x,y,1/2+z
1/2-x,-y,1/2+z
1/2+x,-y,1/2-z
1/2-x,y,1/2-z
1/2-x,-y,1/2-z
1/2+x,y,1/2-z
1/2-x,y,1/2+z
1/2+x,-y,1/2+z
1/2+x,1/2+y,z
1/2-x,1/2-y,z
1/2+x,1/2-y,-z
1/2-x,1/2+y,-z
1/2-x,1/2-y,-z
1/2+x,1/2+y,-z
1/2-x,1/2+y,z
1/2+x,1/2-y,z
loop_
_atom_site_type_symbol
_atom_site_label
_atom_site_fract_x
_atom_site_fract_y
_atom_site_fract_z
Si Si1 0.186013 0.586599 0.576082
Si Si2 0.349165 0.907292 0.164269
Si Si3 0.085777 0.737113 0.795702
Si Si4 0.585448 0.830611 0.000000
Si Si5 0.798082 0.675651 0.349673
Si Si6 0.321538 0.809320 0.500000
Si Si7 0.139719 0.915149 0.422905
O O1 0.147256 0.500000 0.574091
O O2 0.157331 0.636140 0.613828
O O3 0.172606 0.635017 0.537062
O O4 0.272990 0.573563 0.580944
O O5 0.396091 0.854114 0.194566
O O6 0.260948 0.886480 0.168876
O O7 0.383237 0.884588 0.120694
O O8 0.360233 0.000000 0.173255
O O9 0.101288 0.750000 0.750000
O O10 0.140154 0.797236 0.818408
O O11 0.000000 0.755878 0.806626
O O12 0.621371 0.860460 0.959523
O O13 0.500000 0.852657 0.000000
O O14 0.601285 0.738568 0.000000
O O15 0.750000 0.750000 0.365426
O O16 0.250000 0.750000 0.500000
O O17 0.101993 0.000000 0.431280
#
# Coordination Sequence:
#
# PCOD8284463 Si02
#       7
#    32  32  32  16  32  16  32
#     4  10  19  34  57  81 106 142 188 237 278 319
#     4   9  19  36  61  87 112 144 186 236 285 336
#     4  10  22  39  58  83 117 153 186 225 279 345
#     4  12  25  34  47  78 117 150 182 225 275 327
#     4   9  18  33  58  86 115 141 183 232 280 334
#     4  12  21  33  55  77 107 146 196 236 274 323
#     4   9  18  34  54  81 112 142 175 216 274 336
#
# _framework density 18.614919
#
# number of rings (size 3 to 8) (size 9 to 14) (size 15 to 20)
#    0.000    2.167    1.667    2.500    4.667    6.000 
#    0.000    4.167    0.000    6.000    0.000    0.000 
#    0.000    0.000    0.000    0.000    0.000    0.000 
#
# Total GULP energy -594772.662594 kJ/mol
# GULP energy per Si atom -12391.097137 kJ/mol
# Density = 1.857255 g / cm^3
# Si number density = 18.614919 Si / 1000 Ang^3
#
#
#
# Elastic Constant Matrix: (Units=GPa)
#
#
# Indices 1 2 3 4 5 6 
#
# 1 56.7625 31.4953 47.4169 0.0000 0.0000 0.0000
# 2 31.4953 129.7320 81.8654 0.0000 0.0000 0.0000
# 3 47.4169 81.8654 143.6971 0.0000 0.0000 0.0000
# 4 0.0000 0.0000 0.0000 39.2700 0.0000 0.0000
# 5 0.0000 0.0000 0.0000 0.0000 1.9586 0.0000
# 6 0.0000 0.0000 0.0000 0.0000 0.0000 21.7420
#
#
#
# Elastic Compliance Matrix: (Units=1/GPa)
#
#
# Indices 1 2 3 4 5 6 
#
# 1 0.024465 -0.001319 -0.007321 0.000000 0.000000 0.000000
# 2 -0.001319 0.012106 -0.006461 0.000000 0.000000 0.000000
# 3 -0.007321 -0.006461 0.013056 0.000000 0.000000 0.000000
# 4 0.000000 0.000000 0.000000 0.025465 0.000000 0.000000
# 5 0.000000 0.000000 0.000000 0.000000 0.510569 0.000000
# 6 0.000000 0.000000 0.000000 0.000000 0.000000 0.045994
#
#
# Mechanical properties :
#
#
# Convention : Reuss Voigt Hill
#
# Bulk Modulus (GPa) = 51.48575 72.41630 61.95102
# Shear Modulus (GPa) = 7.48130 23.88839 15.68484
#
# Velocity S-wave (km/s) = 2.00691 3.58619 2.90590
# Velocity P-wave (km/s) = 5.75227 7.49229 6.67919
#
# Compressibility (1/GPa) = 0.01942285
#
# Stress axis : x y z
#
# Youngs Moduli (GPa) = 40.87428 82.60413 76.59265
#
# Poissons Ratio (x) = 0.10900 0.56076
# Poissons Ratio (y) = 0.05393 0.49490
# Poissons Ratio (z) = 0.29925 0.53374
#
# Static dielectric constant tensor:
#      x y z
#    x 3.190680 0.000000 0.000000 
#    y 0.000000 3.756480 0.000000 
#    z 0.000000 0.000000 3.312400 
# 
# 
# High freq. dielectric constant tensor:
#      x y z
#    x 1.684050 0.000000 0.000000 
#    y 0.000000 1.732810 0.000000 
#    z 0.000000 0.000000 1.724720 
# 
# From -- ./inp_files/46420.got.cif
#   From: 2010.03.12/outbox.cif.g09.slc.cpg/sg69_24_cif.got.tgz:46420.got - 2010.04.10 23:52:46.
