data_PCOD8284455
_publ_section_title
;
Structure prediction by ZEFSAII (Michael W. Deem and Ramdas Pophale) SiO2 
 PCOD8284455
Probable space group: F M M M
;
_chemical_formula_sum "Si O2"
_cell_formula_units_Z 160
_cell_length_a 17.524847
_cell_length_b 25.065217
_cell_length_c 20.407928
_cell_angle_alpha 90.000000
_cell_angle_beta 90.000000
_cell_angle_gamma 90.000000
_cell_volume 8964.469982
_symmetry_space_group_name_H-M "F M M M"
_symmetry_group_IT_number 69
_symmetry_cell_setting 'orthorhombic'
loop_
_space_group_symop_operation_xyz
x,y,z
-x,-y,z
x,-y,-z
-x,y,-z
-x,-y,-z
x,y,-z
-x,y,z
x,-y,z
x,1/2+y,1/2+z
-x,1/2-y,1/2+z
x,1/2-y,1/2-z
-x,1/2+y,1/2-z
-x,1/2-y,1/2-z
x,1/2+y,1/2-z
-x,1/2+y,1/2+z
x,1/2-y,1/2+z
1/2+x,y,1/2+z
1/2-x,-y,1/2+z
1/2+x,-y,1/2-z
1/2-x,y,1/2-z
1/2-x,-y,1/2-z
1/2+x,y,1/2-z
1/2-x,y,1/2+z
1/2+x,-y,1/2+z
1/2+x,1/2+y,z
1/2-x,1/2-y,z
1/2+x,1/2-y,-z
1/2-x,1/2+y,-z
1/2-x,1/2-y,-z
1/2+x,1/2+y,-z
1/2-x,1/2+y,z
1/2+x,1/2-y,z
loop_
_atom_site_type_symbol
_atom_site_label
_atom_site_fract_x
_atom_site_fract_y
_atom_site_fract_z
Si Si1 0.409909 0.399938 0.872861
Si Si2 0.698923 0.000000 0.815107
Si Si3 0.590654 0.787758 0.572984
Si Si4 0.161870 0.392725 0.232744
Si Si5 0.177574 0.000000 0.925133
Si Si6 0.410073 0.713317 0.311462
O O1 0.500000 0.405077 0.880017
O O2 0.378491 0.345283 0.904412
O O3 0.388495 0.400802 0.796993
O O4 0.372623 0.448167 0.911670
O O5 0.750000 0.000000 0.750000
O O6 0.649542 0.054378 0.812232
O O7 0.747558 0.000000 0.880890
O O8 0.620903 0.774661 0.500000
O O9 0.500000 0.789520 0.574901
O O10 0.619492 0.742333 0.622735
O O11 0.250000 0.383662 0.250000
O O12 0.132904 0.342670 0.191357
O O13 0.204656 0.000000 0.000000
O O14 0.500000 0.702596 0.312334
O O15 0.387597 0.750000 0.250000
#
# Coordination Sequence:
#
# PCOD8284455 Si02
#       6
#    32  16  32  32  16  32
#     4  11  20  34  57  86 114 145 183 229 279 334
#     4  10  20  40  56  73 109 153 184 222 270 330
#     4   9  18  33  52  77 113 146 170 214 281 335
#     4  11  20  36  59  78 109 147 190 226 271 321
#     4  12  23  37  56  84 116 151 186 226 281 341
#     4  10  19  34  56  82 108 138 184 230 270 320
#
# _framework density 17.848239
#
# number of rings (size 3 to 8) (size 9 to 14) (size 15 to 20)
#    0.000    1.600    6.000    1.500    0.000    2.000 
#    0.000    2.500    0.000    1.200    0.000    0.000 
#    0.000    6.400    0.000    0.000    0.000    0.000 
#
# Total GULP energy -496007.435523 kJ/mol
# GULP energy per Si atom -12400.185888 kJ/mol
# Density = 1.780762 g / cm^3
# Si number density = 17.848239 Si / 1000 Ang^3
#
#
#
# Elastic Constant Matrix: (Units=GPa)
#
#
# Indices 1 2 3 4 5 6 
#
# 1 23.2968 45.2004 34.4310 0.0000 0.0000 0.0000
# 2 45.2004 189.6663 82.4064 0.0000 0.0000 0.0000
# 3 34.4310 82.4064 151.2836 0.0000 0.0000 0.0000
# 4 0.0000 0.0000 0.0000 23.2518 0.0000 0.0000
# 5 0.0000 0.0000 0.0000 0.0000 18.5614 0.0000
# 6 0.0000 0.0000 0.0000 0.0000 0.0000 25.4084
#
#
#
# Elastic Compliance Matrix: (Units=1/GPa)
#
#
# Indices 1 2 3 4 5 6 
#
# 1 0.094073 -0.017183 -0.012050 0.000000 0.000000 0.000000
# 2 -0.017183 0.010046 -0.001561 0.000000 0.000000 0.000000
# 3 -0.012050 -0.001561 0.010203 0.000000 0.000000 0.000000
# 4 0.000000 0.000000 0.000000 0.043007 0.000000 0.000000
# 5 0.000000 0.000000 0.000000 0.000000 0.053875 0.000000
# 6 0.000000 0.000000 0.000000 0.000000 0.000000 0.039357
#
#
# Mechanical properties :
#
#
# Convention : Reuss Voigt Hill
#
# Bulk Modulus (GPa) = 18.96384 76.48025 47.72205
# Shear Modulus (GPa) = 15.16398 26.92492 21.04445
#
# Velocity S-wave (km/s) = 2.91796 3.88822 3.43749
# Velocity P-wave (km/s) = 4.69050 7.94361 6.52310
#
# Compressibility (1/GPa) = 0.05273193
#
# Stress axis : x y z
#
# Youngs Moduli (GPa) = 10.63006 99.54372 98.00931
#
# Poissons Ratio (x) = 1.71050 1.18104
# Poissons Ratio (y) = 0.18266 0.15302
# Poissons Ratio (z) = 0.12809 0.15542
#
# Static dielectric constant tensor:
#      x y z
#    x 3.042980 0.000000 0.000000 
#    y 0.000000 3.758620 0.000000 
#    z 0.000000 0.000000 3.408830 
# 
# 
# High freq. dielectric constant tensor:
#      x y z
#    x 1.657920 0.000000 0.000000 
#    y 0.000000 1.710240 0.000000 
#    z 0.000000 0.000000 1.685480 
# 
# From -- ./inp_files/31026.got.cif
#   From: 2010.03.12/outbox.cif.g09.slc.cpg/sg69_16_cif.got.tgz:31026.got - 2010.04.10 23:52:46.
