data_PCOD8284151
_publ_section_title
;
Structure prediction by ZEFSAII (Michael W. Deem and Ramdas Pophale) SiO2 
 PCOD8284151
Probable space group: F M M M
;
_chemical_formula_sum "Si O2"
_cell_formula_units_Z 240
_cell_length_a 28.344355
_cell_length_b 28.211781
_cell_length_c 17.232379
_cell_angle_alpha 90.000000
_cell_angle_beta 90.000000
_cell_angle_gamma 90.000000
_cell_volume 13779.781153
_symmetry_space_group_name_H-M "F M M M"
_symmetry_group_IT_number 69
_symmetry_cell_setting 'orthorhombic'
loop_
_space_group_symop_operation_xyz
x,y,z
-x,-y,z
x,-y,-z
-x,y,-z
-x,-y,-z
x,y,-z
-x,y,z
x,-y,z
x,1/2+y,1/2+z
-x,1/2-y,1/2+z
x,1/2-y,1/2-z
-x,1/2+y,1/2-z
-x,1/2-y,1/2-z
x,1/2+y,1/2-z
-x,1/2+y,1/2+z
x,1/2-y,1/2+z
1/2+x,y,1/2+z
1/2-x,-y,1/2+z
1/2+x,-y,1/2-z
1/2-x,y,1/2-z
1/2-x,-y,1/2-z
1/2+x,y,1/2-z
1/2-x,y,1/2+z
1/2+x,-y,1/2+z
1/2+x,1/2+y,z
1/2-x,1/2-y,z
1/2+x,1/2-y,-z
1/2-x,1/2+y,-z
1/2-x,1/2-y,-z
1/2+x,1/2+y,-z
1/2-x,1/2+y,z
1/2+x,1/2-y,z
loop_
_atom_site_type_symbol
_atom_site_label
_atom_site_fract_x
_atom_site_fract_y
_atom_site_fract_z
Si Si1 0.806323 0.612767 0.165526
Si Si2 0.201271 0.622500 0.342139
Si Si3 0.617686 0.554899 0.860788
Si Si4 0.861722 0.693250 0.090414
Si Si5 0.797684 0.726200 0.591919
Si Si6 0.552270 0.943926 0.500000
Si Si7 0.105278 0.554249 0.182975
Si Si8 0.053649 0.132842 0.591473
O O1 0.808620 0.633198 0.252377
O O2 0.752764 0.598943 0.144273
O O3 0.822651 0.653412 0.107021
O O4 0.840978 0.567553 0.159017
O O5 0.164552 0.585121 0.376768
O O6 0.196286 0.672259 0.384622
O O7 0.630916 0.500000 0.873955
O O8 0.578957 0.572916 0.922290
O O9 0.597291 0.562880 0.774610
O O10 0.842713 0.743323 0.124395
O O11 0.912738 0.675771 0.122728
O O12 0.867255 0.699192 0.000000
O O13 0.796002 0.729570 0.500000
O O14 0.750000 0.750000 0.626383
O O15 0.500000 0.921093 0.500000
O O16 0.548212 0.000000 0.500000
O O17 0.096772 0.500000 0.160214
O O18 0.067191 0.584880 0.136239
O O19 0.061005 0.123736 0.500000
O O20 0.000000 0.146773 0.610701
#
# Coordination Sequence:
#
# PCOD8284151 Si02
#       8
#    32  32  32  32  32  16  32  32
#     4   9  18  31  45  70  99 133 168 194 245 295
#     4  10  19  30  48  73 102 129 164 206 242 292
#     4   9  19  34  51  74  99 130 168 205 251 302
#     4   9  17  32  48  66  97 129 163 202 241 290
#     4  10  19  30  47  73  98 127 164 203 245 289
#     4   9  18  34  54  72  91 120 164 214 260 301
#     4   9  18  32  49  71 104 136 168 208 248 295
#     4   9  18  32  52  75  99 132 168 205 248 293
#
# _framework density 17.416822
#
# number of rings (size 3 to 8) (size 9 to 14) (size 15 to 20)
#    0.000    2.733    1.333    0.000    0.933    2.133 
#    0.000    4.667    0.000    0.800    0.000    8.400 
#    0.000    0.000    0.000    0.000    0.000    0.000 
#
# Total GULP energy -743684.299930 kJ/mol
# GULP energy per Si atom -12394.738332 kJ/mol
# Density = 1.737718 g / cm^3
# Si number density = 17.416822 Si / 1000 Ang^3
#
#
#
# Elastic Constant Matrix: (Units=GPa)
#
#
# Indices 1 2 3 4 5 6 
#
# 1 144.7715 58.8655 37.6509 0.0000 0.0000 0.0000
# 2 58.8655 84.3063 28.1074 0.0000 0.0000 0.0000
# 3 37.6509 28.1074 28.1580 0.0000 0.0000 0.0000
# 4 0.0000 0.0000 0.0000 23.2456 0.0000 0.0000
# 5 0.0000 0.0000 0.0000 0.0000 23.2546 0.0000
# 6 0.0000 0.0000 0.0000 0.0000 0.0000 20.7806
#
#
#
# Elastic Compliance Matrix: (Units=1/GPa)
#
#
# Indices 1 2 3 4 5 6 
#
# 1 0.011577 -0.004380 -0.011108 0.000000 0.000000 0.000000
# 2 -0.004380 0.019435 -0.013543 0.000000 0.000000 0.000000
# 3 -0.011108 -0.013543 0.063885 0.000000 0.000000 0.000000
# 4 0.000000 0.000000 0.000000 0.043019 0.000000 0.000000
# 5 0.000000 0.000000 0.000000 0.000000 0.043002 0.000000
# 6 0.000000 0.000000 0.000000 0.000000 0.000000 0.048122
#
#
# Mechanical properties :
#
#
# Convention : Reuss Voigt Hill
#
# Bulk Modulus (GPa) = 27.14805 56.27594 41.71200
# Shear Modulus (GPa) = 16.70103 22.29695 19.49899
#
# Velocity S-wave (km/s) = 3.09997 3.58186 3.34960
# Velocity P-wave (km/s) = 5.33237 7.03475 6.24187
#
# Compressibility (1/GPa) = 0.03683506
#
# Stress axis : x y z
#
# Youngs Moduli (GPa) = 86.37510 51.45281 15.65301
#
# Poissons Ratio (x) = 0.22538 0.17387
# Poissons Ratio (y) = 0.37836 0.21199
# Poissons Ratio (z) = 0.95945 0.69684
#
# Static dielectric constant tensor:
#      x y z
#    x 3.475950 0.000000 0.000000 
#    y 0.000000 3.177890 0.000000 
#    z 0.000000 0.000000 3.197870 
# 
# 
# High freq. dielectric constant tensor:
#      x y z
#    x 1.672240 0.000000 0.000000 
#    y 0.000000 1.655440 0.000000 
#    z 0.000000 0.000000 1.665660 
# 
# From -- ./inp_files/19976.got.cif
#   From: 2010.03.12/outbox.cif.g09.slc.cpg/sg69_10_cif.got.tgz:19976.got - 2010.04.10 23:52:46.
