data_PCOD8284462
_publ_section_title
;
Structure prediction by ZEFSAII (Michael W. Deem and Ramdas Pophale) SiO2 
 PCOD8284462
Probable space group: F M M M
;
_chemical_formula_sum "Si O2"
_cell_formula_units_Z 144
_cell_length_a 16.438211
_cell_length_b 16.015225
_cell_length_c 27.341370
_cell_angle_alpha 90.000000
_cell_angle_beta 90.000000
_cell_angle_gamma 90.000000
_cell_volume 7197.934118
_symmetry_space_group_name_H-M "F M M M"
_symmetry_group_IT_number 69
_symmetry_cell_setting 'orthorhombic'
loop_
_space_group_symop_operation_xyz
x,y,z
-x,-y,z
x,-y,-z
-x,y,-z
-x,-y,-z
x,y,-z
-x,y,z
x,-y,z
x,1/2+y,1/2+z
-x,1/2-y,1/2+z
x,1/2-y,1/2-z
-x,1/2+y,1/2-z
-x,1/2-y,1/2-z
x,1/2+y,1/2-z
-x,1/2+y,1/2+z
x,1/2-y,1/2+z
1/2+x,y,1/2+z
1/2-x,-y,1/2+z
1/2+x,-y,1/2-z
1/2-x,y,1/2-z
1/2-x,-y,1/2-z
1/2+x,y,1/2-z
1/2-x,y,1/2+z
1/2+x,-y,1/2+z
1/2+x,1/2+y,z
1/2-x,1/2-y,z
1/2+x,1/2-y,-z
1/2-x,1/2+y,-z
1/2-x,1/2-y,-z
1/2+x,1/2+y,-z
1/2-x,1/2+y,z
1/2+x,1/2-y,z
loop_
_atom_site_type_symbol
_atom_site_label
_atom_site_fract_x
_atom_site_fract_y
_atom_site_fract_z
Si Si1 0.646948 0.092080 0.161622
Si Si2 0.804436 0.674543 0.648601
Si Si3 0.596623 0.596149 0.500000
Si Si4 0.909149 0.213147 0.587858
Si Si5 0.908633 0.346952 0.739460
O O1 0.738065 0.102405 0.138754
O O2 0.585700 0.159138 0.137725
O O3 0.644889 0.104705 0.220139
O O4 0.616473 0.000000 0.148002
O O5 0.750000 0.750000 0.671717
O O6 0.849627 0.707663 0.598758
O O7 0.869848 0.638487 0.686311
O O8 0.631496 0.500000 0.500000
O O9 0.500000 0.590019 0.500000
O O10 0.626430 0.650649 0.453460
O O11 0.000000 0.245306 0.574643
O O12 0.909883 0.250000 0.750000
O O13 0.000000 0.383729 0.738881
#
# Coordination Sequence:
#
# PCOD8284462 Si02
#       5
#    32  32  16  32  32
#     4  11  23  35  51  77 109 144 179 221 272 317
#     4  10  20  33  51  73 104 142 178 215 261 319
#     4   9  18  32  53  84 117 139 165 221 282 321
#     4  10  19  34  57  80 104 138 177 217 265 322
#     4  11  20  32  51  74 101 138 182 223 260 310
#
# _framework density 20.005739999999999
#
# number of rings (size 3 to 8) (size 9 to 14) (size 15 to 20)
#    0.000    1.667    4.444    2.667    0.000    4.444 
#    0.000    5.000    0.000    2.000    0.000    0.000 
#    0.000    2.667    0.000    0.000    0.000    7.111 
#
# Total GULP energy -446090.399568 kJ/mol
# GULP energy per Si atom -12391.399988 kJ/mol
# Density = 1.996021 g / cm^3
# Si number density = 20.005740 Si / 1000 Ang^3
#
#
#
# Elastic Constant Matrix: (Units=GPa)
#
#
# Indices 1 2 3 4 5 6 
#
# 1 96.6882 17.7841 23.3171 0.0000 0.0000 0.0000
# 2 17.7841 43.7237 14.8645 0.0000 0.0000 0.0000
# 3 23.3171 14.8645 89.6627 0.0000 0.0000 0.0000
# 4 0.0000 0.0000 0.0000 22.7846 0.0000 0.0000
# 5 0.0000 0.0000 0.0000 0.0000 19.3891 0.0000
# 6 0.0000 0.0000 0.0000 0.0000 0.0000 16.4715
#
#
#
# Elastic Compliance Matrix: (Units=1/GPa)
#
#
# Indices 1 2 3 4 5 6 
#
# 1 0.011637 -0.003926 -0.002376 0.000000 0.000000 0.000000
# 2 -0.003926 0.025561 -0.003217 0.000000 0.000000 0.000000
# 3 -0.002376 -0.003217 0.012304 0.000000 0.000000 0.000000
# 4 0.000000 0.000000 0.000000 0.043889 0.000000 0.000000
# 5 0.000000 0.000000 0.000000 0.000000 0.051575 0.000000
# 6 0.000000 0.000000 0.000000 0.000000 0.000000 0.060711
#
#
# Mechanical properties :
#
#
# Convention : Reuss Voigt Hill
#
# Bulk Modulus (GPa) = 32.82283 38.00067 35.41175
# Shear Modulus (GPa) = 21.28840 23.33631 22.31236
#
# Velocity S-wave (km/s) = 3.26562 3.41908 3.34323
# Velocity P-wave (km/s) = 5.53727 5.88413 5.71333
#
# Compressibility (1/GPa) = 0.03046660
#
# Stress axis : x y z
#
# Youngs Moduli (GPa) = 85.92925 39.12171 81.27471
#
# Poissons Ratio (x) = 0.15358 0.19307
# Poissons Ratio (y) = 0.33734 0.26144
# Poissons Ratio (z) = 0.20413 0.12584
#
# Static dielectric constant tensor:
#      x y z
#    x 3.766620 0.000000 0.000000 
#    y 0.000000 3.491480 0.000000 
#    z 0.000000 0.000000 3.574100 
# 
# 
# High freq. dielectric constant tensor:
#      x y z
#    x 1.776170 0.000000 0.000000 
#    y 0.000000 1.748290 0.000000 
#    z 0.000000 0.000000 1.756080 
# 
# From -- ./inp_files/22888.got.cif
#   From: 2010.03.12/outbox.cif.g09.slc.cpg/sg69_12_cif.got.tgz:22888.got - 2010.04.10 23:52:46.
