data_PCOD8284809
_publ_section_title
;
Structure prediction by ZEFSAII (Michael W. Deem and Ramdas Pophale) SiO2 
 PCOD8284809
Probable space group: F M M M
;
_chemical_formula_sum "Si O2"
_cell_formula_units_Z 136
_cell_length_a 17.486806
_cell_length_b 22.326892
_cell_length_c 17.503428
_cell_angle_alpha 90.000000
_cell_angle_beta 90.000000
_cell_angle_gamma 90.000000
_cell_volume 6833.793888
_symmetry_space_group_name_H-M "F M M M"
_symmetry_group_IT_number 69
_symmetry_cell_setting 'orthorhombic'
loop_
_space_group_symop_operation_xyz
x,y,z
-x,-y,z
x,-y,-z
-x,y,-z
-x,-y,-z
x,y,-z
-x,y,z
x,-y,z
x,1/2+y,1/2+z
-x,1/2-y,1/2+z
x,1/2-y,1/2-z
-x,1/2+y,1/2-z
-x,1/2-y,1/2-z
x,1/2+y,1/2-z
-x,1/2+y,1/2+z
x,1/2-y,1/2+z
1/2+x,y,1/2+z
1/2-x,-y,1/2+z
1/2+x,-y,1/2-z
1/2-x,y,1/2-z
1/2-x,-y,1/2-z
1/2+x,y,1/2-z
1/2-x,y,1/2+z
1/2+x,-y,1/2+z
1/2+x,1/2+y,z
1/2-x,1/2-y,z
1/2+x,1/2-y,-z
1/2-x,1/2+y,-z
1/2-x,1/2-y,-z
1/2+x,1/2+y,-z
1/2-x,1/2+y,z
1/2+x,1/2-y,z
loop_
_atom_site_type_symbol
_atom_site_label
_atom_site_fract_x
_atom_site_fract_y
_atom_site_fract_z
Si Si1 0.910390 0.631910 0.830126
Si Si2 0.588375 0.751158 0.083202
Si Si3 0.776976 0.570118 0.087598
Si Si4 0.750000 0.250000 0.750000
Si Si5 0.155029 0.651316 0.670148
O O1 0.883113 0.698630 0.855994
O O2 0.860220 0.584774 0.877722
O O3 0.892542 0.623750 0.740443
O O4 0.000000 0.619205 0.844875
O O5 0.500000 0.763209 0.073429
O O6 0.598616 0.681968 0.108885
O O7 0.628169 0.760769 0.000000
O O8 0.762896 0.500000 0.094197
O O9 0.708527 0.600672 0.134416
O O10 0.774700 0.591752 0.000000
O O11 0.796270 0.291911 0.693851
#
# Coordination Sequence:
#
# PCOD8284809 Si02
#       5
#    32  32  32   8  32
#     4  11  22  37  60  89 122 155 192 242 300 358
#     4  10  20  34  57  90 124 157 191 235 298 361
#     4  11  25  43  62  84 114 159 209 249 288 341
#     4  12  20  32  58  92 116 144 188 234 296 356
#     4  12  20  38  59  89 122 152 195 244 296 349
#
# _framework density 19.901098999999999
#
# number of rings (size 3 to 8) (size 9 to 14) (size 15 to 20)
#    0.000    0.941    4.706    2.118    0.000    5.647 
#    0.000    4.706    0.000    2.118    0.000    8.235 
#    0.000    0.000    0.000    0.000    0.000    0.000 
#
# Total GULP energy -421491.629380 kJ/mol
# GULP energy per Si atom -12396.812629 kJ/mol
# Density = 1.985580 g / cm^3
# Si number density = 19.901099 Si / 1000 Ang^3
#
#
#
# Elastic Constant Matrix: (Units=GPa)
#
#
# Indices 1 2 3 4 5 6 
#
# 1 67.5310 31.5893 44.2076 0.0000 0.0000 0.0000
# 2 31.5893 82.1287 45.1844 0.0000 0.0000 0.0000
# 3 44.2076 45.1844 145.7927 0.0000 0.0000 0.0000
# 4 0.0000 0.0000 0.0000 34.2290 0.0000 0.0000
# 5 0.0000 0.0000 0.0000 0.0000 30.8927 0.0000
# 6 0.0000 0.0000 0.0000 0.0000 0.0000 24.9777
#
#
#
# Elastic Compliance Matrix: (Units=1/GPa)
#
#
# Indices 1 2 3 4 5 6 
#
# 1 0.020231 -0.005312 -0.004488 0.000000 0.000000 0.000000
# 2 -0.005312 0.016074 -0.003371 0.000000 0.000000 0.000000
# 3 -0.004488 -0.003371 0.009265 0.000000 0.000000 0.000000
# 4 0.000000 0.000000 0.000000 0.029215 0.000000 0.000000
# 5 0.000000 0.000000 0.000000 0.000000 0.032370 0.000000
# 6 0.000000 0.000000 0.000000 0.000000 0.000000 0.040036
#
#
# Mechanical properties :
#
#
# Convention : Reuss Voigt Hill
#
# Bulk Modulus (GPa) = 52.01013 59.71278 55.86145
# Shear Modulus (GPa) = 27.78678 29.65128 28.71903
#
# Velocity S-wave (km/s) = 3.74069 3.86415 3.80292
# Velocity P-wave (km/s) = 6.69687 7.06957 6.88574
#
# Compressibility (1/GPa) = 0.01922702
#
# Stress axis : x y z
#
# Youngs Moduli (GPa) = 49.42915 62.21302 107.93732
#
# Poissons Ratio (x) = 0.33049 0.48443
# Poissons Ratio (y) = 0.26258 0.36384
# Poissons Ratio (z) = 0.22184 0.20971
#
# Static dielectric constant tensor:
#      x y z
#    x 3.713890 0.000000 0.000000 
#    y 0.000000 3.548200 0.000000 
#    z 0.000000 0.000000 4.079330 
# 
# 
# High freq. dielectric constant tensor:
#      x y z
#    x 1.774420 0.000000 0.000000 
#    y 0.000000 1.756850 0.000000 
#    z 0.000000 0.000000 1.793440 
# 
# From -- ./inp_files/22594.got.cif
#   From: 2010.03.12/outbox.cif.g09.slc.cpg/sg69_12_cif.got.tgz:22594.got - 2010.04.10 23:52:46.
