data_PCOD8284664
_publ_section_title
;
Structure prediction by ZEFSAII (Michael W. Deem and Ramdas Pophale) SiO2 
 PCOD8284664
Probable space group: F M M M
;
_chemical_formula_sum "Si O2"
_cell_formula_units_Z 192
_cell_length_a 23.608845
_cell_length_b 16.471319
_cell_length_c 27.571122
_cell_angle_alpha 90.000000
_cell_angle_beta 90.000000
_cell_angle_gamma 90.000000
_cell_volume 10721.549601
_symmetry_space_group_name_H-M "F M M M"
_symmetry_group_IT_number 69
_symmetry_cell_setting 'orthorhombic'
loop_
_space_group_symop_operation_xyz
x,y,z
-x,-y,z
x,-y,-z
-x,y,-z
-x,-y,-z
x,y,-z
-x,y,z
x,-y,z
x,1/2+y,1/2+z
-x,1/2-y,1/2+z
x,1/2-y,1/2-z
-x,1/2+y,1/2-z
-x,1/2-y,1/2-z
x,1/2+y,1/2-z
-x,1/2+y,1/2+z
x,1/2-y,1/2+z
1/2+x,y,1/2+z
1/2-x,-y,1/2+z
1/2+x,-y,1/2-z
1/2-x,y,1/2-z
1/2-x,-y,1/2-z
1/2+x,y,1/2-z
1/2-x,y,1/2+z
1/2+x,-y,1/2+z
1/2+x,1/2+y,z
1/2-x,1/2-y,z
1/2+x,1/2-y,-z
1/2-x,1/2+y,-z
1/2-x,1/2-y,-z
1/2+x,1/2+y,-z
1/2-x,1/2+y,z
1/2+x,1/2-y,z
loop_
_atom_site_type_symbol
_atom_site_label
_atom_site_fract_x
_atom_site_fract_y
_atom_site_fract_z
Si Si1 0.385262 0.836138 0.227575
Si Si2 0.299802 0.808931 0.618663
Si Si3 0.779384 0.593428 0.054759
Si Si4 0.500000 0.590942 0.723992
Si Si5 0.796184 0.591043 0.714328
Si Si6 0.120813 0.832523 0.386765
Si Si7 0.000000 0.406857 0.109713
O O1 0.366133 0.750000 0.250000
O O2 0.449059 0.854146 0.242240
O O3 0.352326 0.908820 0.253468
O O4 0.374173 0.843438 0.170635
O O5 0.250000 0.750000 0.636327
O O6 0.276321 0.858672 0.572686
O O7 0.310785 0.865808 0.664185
O O8 0.357419 0.760245 0.602802
O O9 0.763205 0.500000 0.057161
O O10 0.835103 0.607486 0.087315
O O11 0.792911 0.621580 0.000000
O O12 0.500000 0.500000 0.746421
O O13 0.500000 0.582451 0.666561
O O14 0.776747 0.500000 0.701696
O O15 0.750000 0.633672 0.750000
O O16 0.056868 0.855191 0.405458
O O17 0.000000 0.500000 0.087452
#
# Coordination Sequence:
#
# PCOD8284664 Si02
#       7
#    32  32  32  16  32  32  16
#     4  11  20  33  52  74 105 143 180 220 261 308
#     4  10  20  33  51  74 105 138 173 220 265 318
#     4  10  21  37  58  82 107 137 177 225 276 327
#     4   9  19  33  49  72 101 137 184 224 258 303
#     4  11  22  32  47  72 104 141 178 216 264 318
#     4  10  20  34  55  79 108 144 180 222 268 323
#     4   9  18  33  54  79 109 143 181 222 268 321
#
# _framework density 17.907858999999998
#
# number of rings (size 3 to 8) (size 9 to 14) (size 15 to 20)
#    0.000    1.833    1.667    3.750    0.000    6.333 
#    0.000    0.417    0.000    1.500    0.000    1.750 
#    0.000    1.333    0.000    0.000    0.000    0.167 
#
# Total GULP energy -594729.737642 kJ/mol
# GULP energy per Si atom -12390.202868 kJ/mol
# Density = 1.786710 g / cm^3
# Si number density = 17.907859 Si / 1000 Ang^3
#
#
#
# Elastic Constant Matrix: (Units=GPa)
#
#
# Indices 1 2 3 4 5 6 
#
# 1 121.2691 46.7566 41.7115 0.0000 0.0000 0.0000
# 2 46.7566 90.6137 36.4227 0.0000 0.0000 0.0000
# 3 41.7115 36.4227 84.6387 0.0000 0.0000 0.0000
# 4 0.0000 0.0000 0.0000 24.4079 0.0000 0.0000
# 5 0.0000 0.0000 0.0000 0.0000 13.1568 0.0000
# 6 0.0000 0.0000 0.0000 0.0000 0.0000 118.9033
#
#
#
# Elastic Compliance Matrix: (Units=1/GPa)
#
#
# Indices 1 2 3 4 5 6 
#
# 1 0.011156 -0.004288 -0.003652 0.000000 0.000000 0.000000
# 2 -0.004288 0.014992 -0.004338 0.000000 0.000000 0.000000
# 3 -0.003652 -0.004338 0.015482 0.000000 0.000000 0.000000
# 4 0.000000 0.000000 0.000000 0.040970 0.000000 0.000000
# 5 0.000000 0.000000 0.000000 0.000000 0.076006 0.000000
# 6 0.000000 0.000000 0.000000 0.000000 0.000000 0.008410
#
#
# Mechanical properties :
#
#
# Convention : Reuss Voigt Hill
#
# Bulk Modulus (GPa) = 58.57557 60.70033 59.63795
# Shear Modulus (GPa) = 25.34654 42.73564 34.04109
#
# Velocity S-wave (km/s) = 3.76624 4.89040 4.36466
# Velocity P-wave (km/s) = 7.18980 8.11526 7.66651
#
# Compressibility (1/GPa) = 0.01707196
#
# Stress axis : x y z
#
# Youngs Moduli (GPa) = 89.63957 66.70028 64.59181
#
# Poissons Ratio (x) = 0.28603 0.23591
# Poissons Ratio (y) = 0.38440 0.28022
# Poissons Ratio (z) = 0.32740 0.28937
#
# Static dielectric constant tensor:
#      x y z
#    x 3.593380 0.000000 0.000000 
#    y 0.000000 3.423840 0.000000 
#    z 0.000000 0.000000 3.150840 
# 
# 
# High freq. dielectric constant tensor:
#      x y z
#    x 1.688820 0.000000 0.000000 
#    y 0.000000 1.697210 0.000000 
#    z 0.000000 0.000000 1.672210 
# 
# From -- ./inp_files/43196.got.cif
#   From: 2010.03.12/outbox.cif.g09.slc.cpg/sg69_22_cif.got.tgz:43196.got - 2010.04.10 23:52:46.
