data_PCOD8284338
_publ_section_title
;
Structure prediction by ZEFSAII (Michael W. Deem and Ramdas Pophale) SiO2 
 PCOD8284338
Probable space group: F M M M
;
_chemical_formula_sum "Si O2"
_cell_formula_units_Z 176
_cell_length_a 15.070872
_cell_length_b 22.003795
_cell_length_c 24.213442
_cell_angle_alpha 90.000000
_cell_angle_beta 90.000000
_cell_angle_gamma 90.000000
_cell_volume 8029.573934
_symmetry_space_group_name_H-M "F M M M"
_symmetry_group_IT_number 69
_symmetry_cell_setting 'orthorhombic'
loop_
_space_group_symop_operation_xyz
x,y,z
-x,-y,z
x,-y,-z
-x,y,-z
-x,-y,-z
x,y,-z
-x,y,z
x,-y,z
x,1/2+y,1/2+z
-x,1/2-y,1/2+z
x,1/2-y,1/2-z
-x,1/2+y,1/2-z
-x,1/2-y,1/2-z
x,1/2+y,1/2-z
-x,1/2+y,1/2+z
x,1/2-y,1/2+z
1/2+x,y,1/2+z
1/2-x,-y,1/2+z
1/2+x,-y,1/2-z
1/2-x,y,1/2-z
1/2-x,-y,1/2-z
1/2+x,y,1/2-z
1/2-x,y,1/2+z
1/2+x,-y,1/2+z
1/2+x,1/2+y,z
1/2-x,1/2-y,z
1/2+x,1/2-y,-z
1/2-x,1/2+y,-z
1/2-x,1/2-y,-z
1/2+x,1/2+y,-z
1/2-x,1/2+y,z
1/2+x,1/2-y,z
loop_
_atom_site_type_symbol
_atom_site_label
_atom_site_fract_x
_atom_site_fract_y
_atom_site_fract_z
Si Si1 0.898227 0.428416 0.620195
Si Si2 0.750000 0.250000 0.091410
Si Si3 0.401685 0.119947 0.153246
Si Si4 0.351131 0.630280 0.765126
Si Si5 0.400423 0.740711 0.170181
Si Si6 0.266468 0.620190 0.439211
O O1 0.889440 0.500000 0.614492
O O2 0.866766 0.409139 0.680712
O O3 0.834374 0.397987 0.574712
O O4 0.000000 0.407221 0.609910
O O5 0.672120 0.283448 0.126650
O O6 0.716259 0.193030 0.055651
O O7 0.500000 0.112968 0.128112
O O8 0.395154 0.090767 0.214545
O O9 0.376218 0.188186 0.173517
O O10 0.333668 0.093836 0.107681
O O11 0.250000 0.638940 0.750000
O O12 0.391797 0.698980 0.774588
O O13 0.500000 0.733614 0.146774
O O14 0.289464 0.593511 0.500000
#
# Coordination Sequence:
#
# PCOD8284338 Si02
#       6
#    32  16  32  32  32  32
#     4  11  25  45  68  94 125 165 214 266 322 382
#     4  10  19  36  59  90 124 163 205 248 316 384
#     4  10  21  36  57  92 130 169 208 246 307 383
#     4  12  20  36  61  92 127 165 203 256 322 383
#     4  10  19  32  55  88 129 166 199 245 304 375
#     4  11  23  41  62  89 124 165 211 264 314 368
#
# _framework density 21.918970000000002
#
# number of rings (size 3 to 8) (size 9 to 14) (size 15 to 20)
#    0.000    1.273    3.636    3.545    0.000    3.636 
#    0.000    0.909    0.000    3.818    0.000    1.273 
#    0.000    0.000    0.000    0.000    0.000    0.000 
#
# Total GULP energy -545095.144492 kJ/mol
# GULP energy per Si atom -12388.526011 kJ/mol
# Density = 2.186908 g / cm^3
# Si number density = 21.918970 Si / 1000 Ang^3
#
#
#
# Elastic Constant Matrix: (Units=GPa)
#
#
# Indices 1 2 3 4 5 6 
#
# 1 163.6596 14.9297 58.5640 0.0000 0.0000 0.0000
# 2 14.9297 40.2951 6.5599 0.0000 0.0000 0.0000
# 3 58.5640 6.5599 157.7215 0.0000 0.0000 0.0000
# 4 0.0000 0.0000 0.0000 5.0382 0.0000 0.0000
# 5 0.0000 0.0000 0.0000 0.0000 14.8350 0.0000
# 6 0.0000 0.0000 0.0000 0.0000 0.0000 22.9463
#
#
#
# Elastic Compliance Matrix: (Units=1/GPa)
#
#
# Indices 1 2 3 4 5 6 
#
# 1 0.007246 -0.002262 -0.002596 0.000000 0.000000 0.000000
# 2 -0.002262 0.025692 -0.000229 0.000000 0.000000 0.000000
# 3 -0.002596 -0.000229 0.007314 0.000000 0.000000 0.000000
# 4 0.000000 0.000000 0.000000 0.198482 0.000000 0.000000
# 5 0.000000 0.000000 0.000000 0.000000 0.067408 0.000000
# 6 0.000000 0.000000 0.000000 0.000000 0.000000 0.043580
#
#
# Mechanical properties :
#
#
# Convention : Reuss Voigt Hill
#
# Bulk Modulus (GPa) = 33.24706 57.97595 45.61150
# Shear Modulus (GPa) = 13.51638 27.33874 20.42756
#
# Velocity S-wave (km/s) = 2.48594 3.53549 3.05611
# Velocity P-wave (km/s) = 4.84159 6.57068 5.77126
#
# Compressibility (1/GPa) = 0.03007784
#
# Stress axis : x y z
#
# Youngs Moduli (GPa) = 138.01376 38.92226 136.72687
#
# Poissons Ratio (x) = 0.08804 0.35499
# Poissons Ratio (y) = 0.31218 0.03127
# Poissons Ratio (z) = 0.35833 0.00890
#
# Static dielectric constant tensor:
#      x y z
#    x 4.045380 0.000000 0.000000 
#    y 0.000000 3.632830 0.000000 
#    z 0.000000 0.000000 3.948730 
# 
# 
# High freq. dielectric constant tensor:
#      x y z
#    x 1.870590 0.000000 0.000000 
#    y 0.000000 1.829390 0.000000 
#    z 0.000000 0.000000 1.851130 
# 
# From -- ./inp_files/35927.got.cif
#   From: 2010.03.12/outbox.cif.g09.slc.cpg/sg69_18_cif.got.tgz:35927.got - 2010.04.10 23:52:46.
