data_PCOD8284906
_publ_section_title
;
Structure prediction by ZEFSAII (Michael W. Deem and Ramdas Pophale) SiO2 
 PCOD8284906
Probable space group: F M M M
;
_chemical_formula_sum "Si O2"
_cell_formula_units_Z 208
_cell_length_a 18.625568
_cell_length_b 23.613626
_cell_length_c 25.017748
_cell_angle_alpha 90.000000
_cell_angle_beta 90.000000
_cell_angle_gamma 90.000000
_cell_volume 11003.235795
_symmetry_space_group_name_H-M "F M M M"
_symmetry_group_IT_number 69
_symmetry_cell_setting 'orthorhombic'
loop_
_space_group_symop_operation_xyz
x,y,z
-x,-y,z
x,-y,-z
-x,y,-z
-x,-y,-z
x,y,-z
-x,y,z
x,-y,z
x,1/2+y,1/2+z
-x,1/2-y,1/2+z
x,1/2-y,1/2-z
-x,1/2+y,1/2-z
-x,1/2-y,1/2-z
x,1/2+y,1/2-z
-x,1/2+y,1/2+z
x,1/2-y,1/2+z
1/2+x,y,1/2+z
1/2-x,-y,1/2+z
1/2+x,-y,1/2-z
1/2-x,y,1/2-z
1/2-x,-y,1/2-z
1/2+x,y,1/2-z
1/2-x,y,1/2+z
1/2+x,-y,1/2+z
1/2+x,1/2+y,z
1/2-x,1/2-y,z
1/2+x,1/2-y,-z
1/2-x,1/2+y,-z
1/2-x,1/2-y,-z
1/2+x,1/2+y,-z
1/2-x,1/2+y,z
1/2+x,1/2-y,z
loop_
_atom_site_type_symbol
_atom_site_label
_atom_site_fract_x
_atom_site_fract_y
_atom_site_fract_z
Si Si1 0.584402 0.617973 0.061406
Si Si2 0.665454 0.111753 0.750982
Si Si3 0.584597 0.000000 0.605640
Si Si4 0.667722 0.813436 0.851753
Si Si5 0.914645 0.500000 0.728945
Si Si6 0.916329 0.377708 0.062716
Si Si7 0.165797 0.683917 0.648264
Si Si8 0.415027 0.500000 0.558686
O O1 0.500000 0.620571 0.072893
O O2 0.615730 0.556147 0.077321
O O3 0.621997 0.666319 0.095939
O O4 0.602491 0.630056 0.000000
O O5 0.750000 0.097833 0.750000
O O6 0.643454 0.149763 0.801289
O O7 0.619564 0.054807 0.756511
O O8 0.641837 0.145301 0.697928
O O9 0.607762 0.000000 0.667086
O O10 0.500000 0.000000 0.598615
O O11 0.625984 0.830281 0.905217
O O12 0.750757 0.823321 0.864207
O O13 0.649080 0.748829 0.837587
O O14 0.000000 0.500000 0.737540
O O15 0.892590 0.440312 0.086038
O O16 0.000000 0.367410 0.072310
O O17 0.897786 0.372857 0.000000
O O18 0.500000 0.500000 0.552251
O O19 0.380167 0.500000 0.500000
#
# Coordination Sequence:
#
# PCOD8284906 Si02
#       8
#    32  32  16  32  16  32  32  16
#     4  10  20  35  58  85 111 145 187 226 272 333
#     4  10  21  39  60  82 109 145 186 227 273 330
#     4   9  17  33  56  81 112 145 175 216 274 331
#     4  10  22  37  57  80 105 147 189 228 275 327
#     4  11  21  35  60  89 117 145 175 222 282 333
#     4   9  18  34  55  79 109 144 182 225 275 330
#     4  10  21  39  57  77 109 145 187 232 275 321
#     4   7  12  27  51  73  97 135 173 207 257 316
#
# _framework density 18.90353
#
# number of rings (size 3 to 8) (size 9 to 14) (size 15 to 20)
#    0.000    2.385    1.538    1.846    0.000    5.846 
#    0.000    5.385    0.000    4.615    0.000    0.000 
#    0.000    0.000    0.000    0.000    0.000    0.000 
#
# Total GULP energy -644713.528115 kJ/mol
# GULP energy per Si atom -12398.337079 kJ/mol
# Density = 1.886050 g / cm^3
# Si number density = 18.903530 Si / 1000 Ang^3
#
#
#
# Elastic Constant Matrix: (Units=GPa)
#
#
# Indices 1 2 3 4 5 6 
#
# 1 49.9693 54.5928 49.5274 0.0000 0.0000 0.0000
# 2 54.5928 138.4784 66.7533 0.0000 0.0000 0.0000
# 3 49.5274 66.7533 108.9289 0.0000 0.0000 0.0000
# 4 0.0000 0.0000 0.0000 31.4339 0.0000 0.0000
# 5 0.0000 0.0000 0.0000 0.0000 29.8654 0.0000
# 6 0.0000 0.0000 0.0000 0.0000 0.0000 30.6553
#
#
#
# Elastic Compliance Matrix: (Units=1/GPa)
#
#
# Indices 1 2 3 4 5 6 
#
# 1 0.046669 -0.011595 -0.014114 0.000000 0.000000 0.000000
# 2 -0.011595 0.013130 -0.002774 0.000000 0.000000 0.000000
# 3 -0.014114 -0.002774 0.017298 0.000000 0.000000 0.000000
# 4 0.000000 0.000000 0.000000 0.031813 0.000000 0.000000
# 5 0.000000 0.000000 0.000000 0.000000 0.033484 0.000000
# 6 0.000000 0.000000 0.000000 0.000000 0.000000 0.032621
#
#
# Mechanical properties :
#
#
# Convention : Reuss Voigt Hill
#
# Bulk Modulus (GPa) = 49.67562 71.01374 60.34468
# Shear Modulus (GPa) = 20.94772 26.82446 23.88609
#
# Velocity S-wave (km/s) = 3.33248 3.77107 3.55854
# Velocity P-wave (km/s) = 6.41426 7.52391 6.99114
#
# Compressibility (1/GPa) = 0.02013060
#
# Stress axis : x y z
#
# Youngs Moduli (GPa) = 21.42745 76.16296 57.81178
#
# Poissons Ratio (x) = 0.88311 0.81594
# Poissons Ratio (y) = 0.24845 0.16038
# Poissons Ratio (z) = 0.30242 0.21129
#
# Static dielectric constant tensor:
#      x y z
#    x 3.184060 0.000000 0.000000 
#    y 0.000000 3.661410 0.000000 
#    z 0.000000 0.000000 3.392370 
# 
# 
# High freq. dielectric constant tensor:
#      x y z
#    x 1.708970 0.000000 0.000000 
#    y 0.000000 1.748270 0.000000 
#    z 0.000000 0.000000 1.732550 
# 
# From -- ./inp_files/42166.got.cif
#   From: 2010.03.12/outbox.cif.g09.slc.cpg/sg69_22_cif.got.tgz:42166.got - 2010.04.10 23:52:46.
