data_PCOD8284195
_publ_section_title
;
Structure prediction by ZEFSAII (Michael W. Deem and Ramdas Pophale) SiO2 
 PCOD8284195
Probable space group: F M M M
;
_chemical_formula_sum "Si O2"
_cell_formula_units_Z 136
_cell_length_a 28.433784
_cell_length_b 20.013036
_cell_length_c 14.044227
_cell_angle_alpha 90.000000
_cell_angle_beta 90.000000
_cell_angle_gamma 90.000000
_cell_volume 7991.816012
_symmetry_space_group_name_H-M "F M M M"
_symmetry_group_IT_number 69
_symmetry_cell_setting 'orthorhombic'
loop_
_space_group_symop_operation_xyz
x,y,z
-x,-y,z
x,-y,-z
-x,y,-z
-x,-y,-z
x,y,-z
-x,y,z
x,-y,z
x,1/2+y,1/2+z
-x,1/2-y,1/2+z
x,1/2-y,1/2-z
-x,1/2+y,1/2-z
-x,1/2-y,1/2-z
x,1/2+y,1/2-z
-x,1/2+y,1/2+z
x,1/2-y,1/2+z
1/2+x,y,1/2+z
1/2-x,-y,1/2+z
1/2+x,-y,1/2-z
1/2-x,y,1/2-z
1/2-x,-y,1/2-z
1/2+x,y,1/2-z
1/2-x,y,1/2+z
1/2+x,-y,1/2+z
1/2+x,1/2+y,z
1/2-x,1/2-y,z
1/2+x,1/2-y,-z
1/2-x,1/2+y,-z
1/2-x,1/2-y,-z
1/2+x,1/2+y,-z
1/2-x,1/2+y,z
1/2+x,1/2-y,z
loop_
_atom_site_type_symbol
_atom_site_label
_atom_site_fract_x
_atom_site_fract_y
_atom_site_fract_z
Si Si1 0.000000 0.245501 0.500000
Si Si2 0.434782 0.375726 0.500000
Si Si3 0.822499 0.920332 0.000000
Si Si4 0.831085 0.921188 0.500000
Si Si5 0.252596 0.420660 0.354496
Si Si6 0.000000 0.135156 0.136396
Si Si7 0.926594 0.921675 0.000000
Si Si8 0.500000 0.423838 0.659988
O O1 0.952997 0.200568 0.500000
O O2 0.000000 0.288752 0.597478
O O3 0.378631 0.378215 0.500000
O O4 0.453982 0.411900 0.595190
O O5 0.793751 0.894351 0.908449
O O6 0.874622 0.889010 0.000000
O O7 0.824755 0.000000 0.000000
O O8 0.800834 0.900254 0.407343
O O9 0.843020 0.000000 0.500000
O O10 0.250829 0.500000 0.350409
O O11 0.250000 0.388414 0.250000
O O12 0.046596 0.100122 0.095327
O O13 0.000000 0.127476 0.250519
O O14 0.922009 0.000000 0.000000
O O15 0.500000 0.500000 0.697890
#
# Coordination Sequence:
#
# PCOD8284195 Si02
#       8
#     8  16  16  16  32  16  16  16
#     4   8  20  38  50  66  92 128 174 204 240 278
#     4  10  20  32  48  67  99 136 164 198 230 283
#     4   8  14  23  35  55  84 115 142 175 228 291
#     4   9  16  27  43  66  95 126 160 192 231 281
#     4   8  14  24  38  58  88 121 149 182 227 283
#     4  10  19  32  49  67  91 124 162 207 240 282
#     4   9  16  27  43  66  94 119 149 192 246 294
#     4  10  19  31  48  72  99 124 154 199 256 297
#
# _framework density 17.017409000000001
#
# number of rings (size 3 to 8) (size 9 to 14) (size 15 to 20)
#    0.000    3.294    0.000    4.235    0.000    3.765 
#    0.000    4.706    0.000    0.000    0.000   13.176 
#    0.000    7.529    0.000    0.000    0.000    0.000 
#
# Total GULP energy -421337.896295 kJ/mol
# GULP energy per Si atom -12392.291068 kJ/mol
# Density = 1.697868 g / cm^3
# Si number density = 17.017409 Si / 1000 Ang^3
#
#
#
# Elastic Constant Matrix: (Units=GPa)
#
#
# Indices 1 2 3 4 5 6 
#
# 1 175.8756 27.7502 67.5444 0.0000 0.0000 0.0000
# 2 27.7502 62.9404 24.2074 0.0000 0.0000 0.0000
# 3 67.5444 24.2074 151.4143 0.0000 0.0000 0.0000
# 4 0.0000 0.0000 0.0000 15.7904 0.0000 0.0000
# 5 0.0000 0.0000 0.0000 0.0000 15.7793 0.0000
# 6 0.0000 0.0000 0.0000 0.0000 0.0000 -2.5317
#
#
#
# Elastic Compliance Matrix: (Units=1/GPa)
#
#
# Indices 1 2 3 4 5 6 
#
# 1 0.007098 -0.002037 -0.002841 0.000000 0.000000 0.000000
# 2 -0.002037 0.017514 -0.001891 0.000000 0.000000 0.000000
# 3 -0.002841 -0.001891 0.008174 0.000000 0.000000 0.000000
# 4 0.000000 0.000000 0.000000 0.063329 0.000000 0.000000
# 5 0.000000 0.000000 0.000000 0.000000 0.063374 0.000000
# 6 0.000000 0.000000 0.000000 0.000000 0.000000 -0.394991
#
#
# Mechanical properties :
#
#
# Convention : Reuss Voigt Hill
#
# Bulk Modulus (GPa) = 51.95442 69.91494 60.93468
# Shear Modulus (GPa) = -23.19676 23.85615 0.32970
#
# Velocity S-wave (km/s) = -3.69605 3.74821 0.44064
# Velocity P-wave (km/s) = 3.51881 7.73988 6.01198
#
# Compressibility (1/GPa) = 0.01924764
#
# Stress axis : x y z
#
# Youngs Moduli (GPa) = 140.88003 57.09856 122.33887
#
# Poissons Ratio (x) = 0.11631 0.34754
# Poissons Ratio (y) = 0.28697 0.23138
# Poissons Ratio (z) = 0.40021 0.10799
#
# Static dielectric constant tensor:
#      x y z
#    x 3.318920 0.000000 0.000000 
#    y 0.000000 2.747390 0.000000 
#    z 0.000000 0.000000 3.511150 
# 
# 
# High freq. dielectric constant tensor:
#      x y z
#    x 1.658750 0.000000 0.000000 
#    y 0.000000 1.606130 0.000000 
#    z 0.000000 0.000000 1.659050 
# 
# From -- ./inp_files/18764.got.cif
#   From: 2010.03.12/outbox.cif.g09.slc.cpg/sg69_10_cif.got.tgz:18764.got - 2010.04.10 23:52:46.
