data_PCOD8284185
_publ_section_title
;
Structure prediction by ZEFSAII (Michael W. Deem and Ramdas Pophale) SiO2 
 PCOD8284185
Probable space group: F M M M
;
_chemical_formula_sum "Si O2"
_cell_formula_units_Z 192
_cell_length_a 29.092911
_cell_length_b 26.200616
_cell_length_c 14.441904
_cell_angle_alpha 90.000000
_cell_angle_beta 90.000000
_cell_angle_gamma 90.000000
_cell_volume 11008.372944
_symmetry_space_group_name_H-M "F M M M"
_symmetry_group_IT_number 69
_symmetry_cell_setting 'orthorhombic'
loop_
_space_group_symop_operation_xyz
x,y,z
-x,-y,z
x,-y,-z
-x,y,-z
-x,-y,-z
x,y,-z
-x,y,z
x,-y,z
x,1/2+y,1/2+z
-x,1/2-y,1/2+z
x,1/2-y,1/2-z
-x,1/2+y,1/2-z
-x,1/2-y,1/2-z
x,1/2+y,1/2-z
-x,1/2+y,1/2+z
x,1/2-y,1/2+z
1/2+x,y,1/2+z
1/2-x,-y,1/2+z
1/2+x,-y,1/2-z
1/2-x,y,1/2-z
1/2-x,-y,1/2-z
1/2+x,y,1/2-z
1/2-x,y,1/2+z
1/2+x,-y,1/2+z
1/2+x,1/2+y,z
1/2-x,1/2-y,z
1/2+x,1/2-y,-z
1/2-x,1/2+y,-z
1/2-x,1/2-y,-z
1/2+x,1/2+y,-z
1/2-x,1/2+y,z
1/2+x,1/2-y,z
loop_
_atom_site_type_symbol
_atom_site_label
_atom_site_fract_x
_atom_site_fract_y
_atom_site_fract_z
Si Si1 0.131363 0.500000 0.608207
Si Si2 0.311244 0.397128 0.891429
Si Si3 0.051059 0.591458 0.894677
Si Si4 0.804060 0.809200 0.752786
Si Si5 0.782746 0.555479 0.891144
Si Si6 0.355041 0.134339 0.105506
Si Si7 0.051836 0.500000 0.755623
O O1 0.118134 0.500000 0.500000
O O2 0.158973 0.447831 0.631632
O O3 0.085014 0.500000 0.667771
O O4 0.325537 0.345622 0.834572
O O5 0.259632 0.409893 0.857259
O O6 0.314522 0.383588 0.000000
O O7 0.090130 0.633820 0.876185
O O8 0.060194 0.547893 0.821118
O O9 0.000000 0.615392 0.881902
O O10 0.056551 0.570064 0.000000
O O11 0.816251 0.750000 0.750000
O O12 0.750000 0.818005 0.750000
O O13 0.829904 0.821408 0.658565
O O14 0.781431 0.500000 0.842948
O O15 0.831384 0.580731 0.863830
O O16 0.777238 0.548441 0.000000
O O17 0.343496 0.145532 0.000000
O O18 0.000000 0.500000 0.716202
#
# Coordination Sequence:
#
# PCOD8284185 Si02
#       7
#    16  32  32  32  32  32  16
#     4  10  20  34  55  78 103 138 180 222 260 304
#     4  10  19  35  53  72 102 138 174 216 260 302
#     4   9  18  32  51  75 103 135 169 210 260 315
#     4  11  23  36  50  73 104 138 179 217 254 314
#     4   9  16  28  46  70 101 133 165 204 248 295
#     4  10  20  34  52  74 102 133 172 215 258 306
#     4  10  19  31  47  72 109 144 173 206 253 311
#
# _framework density 17.441269999999999
#
# number of rings (size 3 to 8) (size 9 to 14) (size 15 to 20)
#    0.000    2.167    2.500    1.250    1.167    1.833 
#    1.500    2.917    0.000    0.500    0.000    0.000 
#    0.000    2.667    0.000    0.000    0.000    0.000 
#
# Total GULP energy -594635.265502 kJ/mol
# GULP energy per Si atom -12388.234698 kJ/mol
# Density = 1.740157 g / cm^3
# Si number density = 17.441270 Si / 1000 Ang^3
#
#
#
# Elastic Constant Matrix: (Units=GPa)
#
#
# Indices 1 2 3 4 5 6 
#
# 1 125.0629 47.3892 54.9135 0.0000 0.0000 0.0000
# 2 47.3892 128.2067 56.2743 0.0000 0.0000 0.0000
# 3 54.9135 56.2743 70.1351 0.0000 0.0000 0.0000
# 4 0.0000 0.0000 0.0000 21.5787 0.0000 0.0000
# 5 0.0000 0.0000 0.0000 0.0000 27.4306 0.0000
# 6 0.0000 0.0000 0.0000 0.0000 0.0000 15.9929
#
#
#
# Elastic Compliance Matrix: (Units=1/GPa)
#
#
# Indices 1 2 3 4 5 6 
#
# 1 0.012205 -0.000489 -0.009164 0.000000 0.000000 0.000000
# 2 -0.000489 0.012060 -0.009294 0.000000 0.000000 0.000000
# 3 -0.009164 -0.009294 0.028890 0.000000 0.000000 0.000000
# 4 0.000000 0.000000 0.000000 0.046342 0.000000 0.000000
# 5 0.000000 0.000000 0.000000 0.000000 0.036456 0.000000
# 6 0.000000 0.000000 0.000000 0.000000 0.000000 0.062528
#
#
# Mechanical properties :
#
#
# Convention : Reuss Voigt Hill
#
# Bulk Modulus (GPa) = 65.52154 71.17322 68.34738
# Shear Modulus (GPa) = 20.70733 23.98895 22.34814
#
# Velocity S-wave (km/s) = 3.44940 3.71268 3.58346
# Velocity P-wave (km/s) = 7.31526 7.69900 7.50958
#
# Compressibility (1/GPa) = 0.01526216
#
# Stress axis : x y z
#
# Youngs Moduli (GPa) = 81.93405 82.91894 34.61415
#
# Poissons Ratio (x) = 0.04056 0.31719
# Poissons Ratio (y) = 0.04007 0.32169
# Poissons Ratio (z) = 0.75081 0.77062
#
# Static dielectric constant tensor:
#      x y z
#    x 3.317860 0.000000 0.000000 
#    y 0.000000 3.117710 0.000000 
#    z 0.000000 0.000000 3.263680 
# 
# 
# High freq. dielectric constant tensor:
#      x y z
#    x 1.665560 0.000000 0.000000 
#    y 0.000000 1.648020 0.000000 
#    z 0.000000 0.000000 1.676780 
# 
# From -- ./inp_files/19815.got.cif
#   From: 2010.03.12/outbox.cif.g09.slc.cpg/sg69_10_cif.got.tgz:19815.got - 2010.04.10 23:52:46.
