data_PCOD8284386
_publ_section_title
;
Structure prediction by ZEFSAII (Michael W. Deem and Ramdas Pophale) SiO2 
 PCOD8284386
Probable space group: F M M M
;
_chemical_formula_sum "Si O2"
_cell_formula_units_Z 144
_cell_length_a 18.082334
_cell_length_b 14.310282
_cell_length_c 27.302101
_cell_angle_alpha 90.000000
_cell_angle_beta 90.000000
_cell_angle_gamma 90.000000
_cell_volume 7064.781718
_symmetry_space_group_name_H-M "F M M M"
_symmetry_group_IT_number 69
_symmetry_cell_setting 'orthorhombic'
loop_
_space_group_symop_operation_xyz
x,y,z
-x,-y,z
x,-y,-z
-x,y,-z
-x,-y,-z
x,y,-z
-x,y,z
x,-y,z
x,1/2+y,1/2+z
-x,1/2-y,1/2+z
x,1/2-y,1/2-z
-x,1/2+y,1/2-z
-x,1/2-y,1/2-z
x,1/2+y,1/2-z
-x,1/2+y,1/2+z
x,1/2-y,1/2+z
1/2+x,y,1/2+z
1/2-x,-y,1/2+z
1/2+x,-y,1/2-z
1/2-x,y,1/2-z
1/2-x,-y,1/2-z
1/2+x,y,1/2-z
1/2-x,y,1/2+z
1/2+x,-y,1/2+z
1/2+x,1/2+y,z
1/2-x,1/2-y,z
1/2+x,1/2-y,-z
1/2-x,1/2+y,-z
1/2-x,1/2-y,-z
1/2+x,1/2+y,-z
1/2-x,1/2+y,z
1/2+x,1/2-y,z
loop_
_atom_site_type_symbol
_atom_site_label
_atom_site_fract_x
_atom_site_fract_y
_atom_site_fract_z
Si Si1 0.500000 0.610999 0.054827
Si Si2 0.085032 0.736168 0.695290
Si Si3 0.782548 0.889118 0.554635
Si Si4 0.582736 0.607083 0.618957
Si Si5 0.858232 0.110952 0.115160
O O1 0.500000 0.500000 0.052385
O O2 0.427776 0.646681 0.083270
O O3 0.500000 0.652575 0.000000
O O4 0.115822 0.750000 0.750000
O O5 0.092726 0.835405 0.668578
O O6 0.135201 0.658298 0.668405
O O7 0.000000 0.701371 0.696395
O O8 0.776333 0.846738 0.500000
O O9 0.860040 0.856542 0.578086
O O10 0.714995 0.851903 0.587781
O O11 0.777931 0.000000 0.551646
O O12 0.500000 0.619326 0.597313
O O13 0.599173 0.500000 0.632941
O O14 0.857490 0.000000 0.122079
#
# Coordination Sequence:
#
# PCOD8284386 Si02
#       5
#    16  32  32  32  32
#     4   9  16  28  49  76 109 145 172 201 254 324
#     4  10  21  37  57  80 108 143 187 233 273 322
#     4   9  18  34  57  83 112 146 180 221 275 330
#     4   9  19  37  58  78 105 143 187 232 272 318
#     4  10  19  33  54  83 115 143 176 219 272 334
#
# _framework density 20.382795999999999
#
# number of rings (size 3 to 8) (size 9 to 14) (size 15 to 20)
#    0.000    2.556    1.111    0.667    0.000    4.889 
#    0.000   10.000    0.000    4.000    0.000    0.000 
#    0.000    0.000    0.000    0.000    0.000    0.000 
#
# Total GULP energy -446449.084977 kJ/mol
# GULP energy per Si atom -12401.363472 kJ/mol
# Density = 2.033640 g / cm^3
# Si number density = 20.382796 Si / 1000 Ang^3
#
#
#
# Elastic Constant Matrix: (Units=GPa)
#
#
# Indices 1 2 3 4 5 6 
#
# 1 147.3904 39.0500 89.5599 0.0000 0.0000 0.0000
# 2 39.0500 43.6953 42.4333 0.0000 0.0000 0.0000
# 3 89.5599 42.4333 191.0995 0.0000 0.0000 0.0000
# 4 0.0000 0.0000 0.0000 25.5115 0.0000 0.0000
# 5 0.0000 0.0000 0.0000 0.0000 31.4383 0.0000
# 6 0.0000 0.0000 0.0000 0.0000 0.0000 19.7097
#
#
#
# Elastic Compliance Matrix: (Units=1/GPa)
#
#
# Indices 1 2 3 4 5 6 
#
# 1 0.010559 -0.005904 -0.003638 0.000000 0.000000 0.000000
# 2 -0.005904 0.032479 -0.004445 0.000000 0.000000 0.000000
# 3 -0.003638 -0.004445 0.007925 0.000000 0.000000 0.000000
# 4 0.000000 0.000000 0.000000 0.039198 0.000000 0.000000
# 5 0.000000 0.000000 0.000000 0.000000 0.031808 0.000000
# 6 0.000000 0.000000 0.000000 0.000000 0.000000 0.050737
#
#
# Mechanical properties :
#
#
# Convention : Reuss Voigt Hill
#
# Bulk Modulus (GPa) = 43.49836 80.47464 61.98650
# Shear Modulus (GPa) = 23.99899 29.40802 26.70350
#
# Velocity S-wave (km/s) = 3.43507 3.80252 3.62346
# Velocity P-wave (km/s) = 6.09262 7.67113 6.92699
#
# Compressibility (1/GPa) = 0.02298937
#
# Stress axis : x y z
#
# Youngs Moduli (GPa) = 94.70258 30.78942 126.18818
#
# Poissons Ratio (x) = 0.18179 0.45904
# Poissons Ratio (y) = 0.55914 0.56088
# Poissons Ratio (z) = 0.34450 0.13685
#
# Static dielectric constant tensor:
#      x y z
#    x 3.827430 0.000000 0.000000 
#    y 0.000000 3.495370 0.000000 
#    z 0.000000 0.000000 3.684740 
# 
# 
# High freq. dielectric constant tensor:
#      x y z
#    x 1.796470 0.000000 0.000000 
#    y 0.000000 1.791150 0.000000 
#    z 0.000000 0.000000 1.784180 
# 
# From -- ./inp_files/15558.got.cif
#   From: 2010.03.12/outbox.cif.g09.slc.cpg/sg69_8_cif.got.tgz:15558.got - 2010.04.10 23:52:46.
