data_PCOD8284915
_publ_section_title
;
Structure prediction by ZEFSAII (Michael W. Deem and Ramdas Pophale) SiO2 
 PCOD8284915
Probable space group: F M M M
;
_chemical_formula_sum "Si O2"
_cell_formula_units_Z 144
_cell_length_a 13.811102
_cell_length_b 30.283595
_cell_length_c 17.665940
_cell_angle_alpha 90.000000
_cell_angle_beta 90.000000
_cell_angle_gamma 90.000000
_cell_volume 7388.776216
_symmetry_space_group_name_H-M "F M M M"
_symmetry_group_IT_number 69
_symmetry_cell_setting 'orthorhombic'
loop_
_space_group_symop_operation_xyz
x,y,z
-x,-y,z
x,-y,-z
-x,y,-z
-x,-y,-z
x,y,-z
-x,y,z
x,-y,z
x,1/2+y,1/2+z
-x,1/2-y,1/2+z
x,1/2-y,1/2-z
-x,1/2+y,1/2-z
-x,1/2-y,1/2-z
x,1/2+y,1/2-z
-x,1/2+y,1/2+z
x,1/2-y,1/2+z
1/2+x,y,1/2+z
1/2-x,-y,1/2+z
1/2+x,-y,1/2-z
1/2-x,y,1/2-z
1/2-x,-y,1/2-z
1/2+x,y,1/2-z
1/2-x,y,1/2+z
1/2+x,-y,1/2+z
1/2+x,1/2+y,z
1/2-x,1/2-y,z
1/2+x,1/2-y,-z
1/2-x,1/2+y,-z
1/2-x,1/2-y,-z
1/2+x,1/2+y,-z
1/2-x,1/2+y,z
1/2+x,1/2-y,z
loop_
_atom_site_type_symbol
_atom_site_label
_atom_site_fract_x
_atom_site_fract_y
_atom_site_fract_z
Si Si1 0.211637 0.050623 0.332751
Si Si2 0.000000 0.208558 0.695356
Si Si3 0.180873 0.790198 0.413489
Si Si4 0.500000 0.449723 0.288015
Si Si5 0.000000 0.631193 0.686394
Si Si6 0.685389 0.373022 0.086261
O O1 0.250000 0.063956 0.250000
O O2 0.266722 0.080157 0.393646
O O3 0.095900 0.059039 0.338155
O O4 0.237032 0.000000 0.351142
O O5 0.000000 0.250000 0.750000
O O6 0.092099 0.210821 0.642406
O O7 0.000000 0.163194 0.741677
O O8 0.144817 0.785432 0.500000
O O9 0.250000 0.750000 0.391445
O O10 0.234862 0.835992 0.400524
O O11 0.500000 0.500000 0.257393
O O12 0.500000 0.419305 0.214003
O O13 0.905753 0.639898 0.636784
O O14 0.649969 0.374943 0.000000
#
# Coordination Sequence:
#
# PCOD8284915 Si02
#       6
#    32  16  32  16  16  32
#     4  10  20  37  61  87 120 158 199 249 302 357
#     4  12  25  38  63  96 118 153 205 250 298 356
#     4  10  23  43  63  86 123 163 198 246 304 359
#     4  10  20  35  59  89 115 152 200 242 302 356
#     4  12  23  37  60  88 122 156 196 258 296 355
#     4  11  24  40  60  87 120 162 202 246 306 363
#
# _framework density 19.489018999999999
#
# number of rings (size 3 to 8) (size 9 to 14) (size 15 to 20)
#    0.000    1.333    2.222    3.333    0.000    2.667 
#    0.000    6.111    0.000    4.000    0.000    0.000 
#    0.000    0.000    0.000    0.000    0.000    0.000 
#
# Total GULP energy -446570.826664 kJ/mol
# GULP energy per Si atom -12404.745185 kJ/mol
# Density = 1.944466 g / cm^3
# Si number density = 19.489019 Si / 1000 Ang^3
#
#
#
# Elastic Constant Matrix: (Units=GPa)
#
#
# Indices 1 2 3 4 5 6 
#
# 1 141.5009 46.1833 85.6228 0.0000 0.0000 0.0000
# 2 46.1833 109.5681 63.1426 0.0000 0.0000 0.0000
# 3 85.6228 63.1426 124.7290 0.0000 0.0000 0.0000
# 4 0.0000 0.0000 0.0000 36.5525 0.0000 0.0000
# 5 0.0000 0.0000 0.0000 0.0000 44.4294 0.0000
# 6 0.0000 0.0000 0.0000 0.0000 0.0000 20.3128
#
#
#
# Elastic Compliance Matrix: (Units=1/GPa)
#
#
# Indices 1 2 3 4 5 6 
#
# 1 0.012104 -0.000443 -0.008085 0.000000 0.000000 0.000000
# 2 -0.000443 0.012902 -0.006228 0.000000 0.000000 0.000000
# 3 -0.008085 -0.006228 0.016720 0.000000 0.000000 0.000000
# 4 0.000000 0.000000 0.000000 0.027358 0.000000 0.000000
# 5 0.000000 0.000000 0.000000 0.000000 0.022508 0.000000
# 6 0.000000 0.000000 0.000000 0.000000 0.000000 0.049230
#
#
# Mechanical properties :
#
#
# Convention : Reuss Voigt Hill
#
# Bulk Modulus (GPa) = 81.86166 85.07728 83.46947
# Shear Modulus (GPa) = 28.66907 32.31554 30.49231
#
# Velocity S-wave (km/s) = 3.83957 4.07645 3.95978
# Velocity P-wave (km/s) = 7.85822 8.11821 7.98927
#
# Compressibility (1/GPa) = 0.01221573
#
# Stress axis : x y z
#
# Youngs Moduli (GPa) = 82.61953 77.50550 59.80829
#
# Poissons Ratio (x) = 0.03430 0.48354
# Poissons Ratio (y) = 0.03657 0.37247
# Poissons Ratio (z) = 0.66796 0.48269
#
# Static dielectric constant tensor:
#      x y z
#    x 3.723890 0.000000 0.000000 
#    y 0.000000 3.707630 0.000000 
#    z 0.000000 0.000000 3.484990 
# 
# 
# High freq. dielectric constant tensor:
#      x y z
#    x 1.774150 0.000000 0.000000 
#    y 0.000000 1.776000 0.000000 
#    z 0.000000 0.000000 1.748160 
# 
# From -- ./inp_files/21817.got.cif
#   From: 2010.03.12/outbox.cif.g09.slc.cpg/sg69_11_cif.got.tgz:21817.got - 2010.04.10 23:52:46.
