data_PCOD8284439
_publ_section_title
;
Structure prediction by ZEFSAII (Michael W. Deem and Ramdas Pophale) SiO2 
 PCOD8284439
Probable space group: F M M M
;
_chemical_formula_sum "Si O2"
_cell_formula_units_Z 208
_cell_length_a 22.703766
_cell_length_b 27.023287
_cell_length_c 17.600765
_cell_angle_alpha 90.000000
_cell_angle_beta 90.000000
_cell_angle_gamma 90.000000
_cell_volume 10798.604120
_symmetry_space_group_name_H-M "F M M M"
_symmetry_group_IT_number 69
_symmetry_cell_setting 'orthorhombic'
loop_
_space_group_symop_operation_xyz
x,y,z
-x,-y,z
x,-y,-z
-x,y,-z
-x,-y,-z
x,y,-z
-x,y,z
x,-y,z
x,1/2+y,1/2+z
-x,1/2-y,1/2+z
x,1/2-y,1/2-z
-x,1/2+y,1/2-z
-x,1/2-y,1/2-z
x,1/2+y,1/2-z
-x,1/2+y,1/2+z
x,1/2-y,1/2+z
1/2+x,y,1/2+z
1/2-x,-y,1/2+z
1/2+x,-y,1/2-z
1/2-x,y,1/2-z
1/2-x,-y,1/2-z
1/2+x,y,1/2-z
1/2-x,y,1/2+z
1/2+x,-y,1/2+z
1/2+x,1/2+y,z
1/2-x,1/2-y,z
1/2+x,1/2-y,-z
1/2-x,1/2+y,-z
1/2-x,1/2-y,-z
1/2+x,1/2+y,-z
1/2-x,1/2+y,z
1/2+x,1/2-y,z
loop_
_atom_site_type_symbol
_atom_site_label
_atom_site_fract_x
_atom_site_fract_y
_atom_site_fract_z
Si Si1 0.378366 0.349477 0.911811
Si Si2 0.569202 0.909263 0.178651
Si Si3 0.372012 0.673940 0.413031
Si Si4 0.570329 0.000000 0.915878
Si Si5 0.242110 0.696044 0.412569
Si Si6 0.567859 0.239476 0.663481
Si Si7 0.930564 0.557318 0.346449
O O1 0.312359 0.336590 0.880986
O O2 0.423426 0.317960 0.859407
O O3 0.393481 0.407757 0.903003
O O4 0.386407 0.335802 0.000000
O O5 0.500000 0.904504 0.170078
O O6 0.596209 0.858147 0.150955
O O7 0.586875 0.923450 0.263349
O O8 0.595343 0.951721 0.124882
O O9 0.390628 0.661028 0.500000
O O10 0.302405 0.665762 0.402297
O O11 0.390977 0.730152 0.394942
O O12 0.500000 0.000000 0.913119
O O13 0.595840 0.000000 0.000000
O O14 0.228117 0.706270 0.500000
O O15 0.250000 0.750000 0.372221
O O16 0.500000 0.254594 0.652343
O O17 0.587349 0.250000 0.750000
O O18 0.911571 0.500000 0.356938
O O19 0.000000 0.562672 0.361973
#
# Coordination Sequence:
#
# PCOD8284439 Si02
#       7
#    32  32  32  16  32  32  32
#     4  11  22  38  62  85 110 148 195 244 285 335
#     4  10  19  34  54  81 117 152 182 222 284 345
#     4  11  21  34  57  84 112 148 190 236 279 335
#     4   9  16  28  50  78 106 141 187 227 262 323
#     4   9  18  37  59  80 110 149 189 231 283 336
#     4  11  23  37  52  80 121 155 181 221 286 352
#     4  10  21  39  61  84 115 155 192 236 299 352
#
# _framework density 19.261748999999998
#
# number of rings (size 3 to 8) (size 9 to 14) (size 15 to 20)
#    0.000    1.769    2.308    2.769    0.000    6.462 
#    0.000    4.615    1.692    0.923    0.000    0.000 
#    0.000    0.000    0.000    0.000    0.000    0.000 
#
# Total GULP energy -644720.270983 kJ/mol
# GULP energy per Si atom -12398.466750 kJ/mol
# Density = 1.921791 g / cm^3
# Si number density = 19.261749 Si / 1000 Ang^3
#
#
#
# Elastic Constant Matrix: (Units=GPa)
#
#
# Indices 1 2 3 4 5 6 
#
# 1 66.5483 27.6110 37.0855 0.0000 0.0000 0.0000
# 2 27.6110 110.9636 32.3466 0.0000 0.0000 0.0000
# 3 37.0855 32.3466 76.4989 0.0000 0.0000 0.0000
# 4 0.0000 0.0000 0.0000 35.1998 0.0000 0.0000
# 5 0.0000 0.0000 0.0000 0.0000 18.6336 0.0000
# 6 0.0000 0.0000 0.0000 0.0000 0.0000 21.0430
#
#
#
# Elastic Compliance Matrix: (Units=1/GPa)
#
#
# Indices 1 2 3 4 5 6 
#
# 1 0.021228 -0.002603 -0.009190 0.000000 0.000000 0.000000
# 2 -0.002603 0.010598 -0.003219 0.000000 0.000000 0.000000
# 3 -0.009190 -0.003219 0.018889 0.000000 0.000000 0.000000
# 4 0.000000 0.000000 0.000000 0.028409 0.000000 0.000000
# 5 0.000000 0.000000 0.000000 0.000000 0.053667 0.000000
# 6 0.000000 0.000000 0.000000 0.000000 0.000000 0.047522
#
#
# Mechanical properties :
#
#
# Convention : Reuss Voigt Hill
#
# Bulk Modulus (GPa) = 48.33411 49.78857 49.06134
# Shear Modulus (GPa) = 23.01654 25.43979 24.22817
#
# Velocity S-wave (km/s) = 3.46053 3.63814 3.55045
# Velocity P-wave (km/s) = 6.41209 6.59944 6.50644
#
# Compressibility (1/GPa) = 0.02068932
#
# Stress axis : x y z
#
# Youngs Moduli (GPa) = 47.10692 94.35598 52.94163
#
# Poissons Ratio (x) = 0.24562 0.48656
# Poissons Ratio (y) = 0.12263 0.17044
# Poissons Ratio (z) = 0.43293 0.30376
#
# Static dielectric constant tensor:
#      x y z
#    x 3.349240 0.000000 0.000000 
#    y 0.000000 3.567730 0.000000 
#    z 0.000000 0.000000 3.419540 
# 
# 
# High freq. dielectric constant tensor:
#      x y z
#    x 1.727330 0.000000 0.000000 
#    y 0.000000 1.750500 0.000000 
#    z 0.000000 0.000000 1.744400 
# 
# From -- ./inp_files/26132.got.cif
#   From: 2010.03.12/outbox.cif.g09.slc.cpg/sg69_14_cif.got.tgz:26132.got - 2010.04.10 23:52:46.
