data_PCOD8284535
_publ_section_title
;
Structure prediction by ZEFSAII (Michael W. Deem and Ramdas Pophale) SiO2 
 PCOD8284535
Probable space group: F M M M
;
_chemical_formula_sum "Si O2"
_cell_formula_units_Z 160
_cell_length_a 27.591760
_cell_length_b 16.944657
_cell_length_c 17.222171
_cell_angle_alpha 90.000000
_cell_angle_beta 90.000000
_cell_angle_gamma 90.000000
_cell_volume 8051.931711
_symmetry_space_group_name_H-M "F M M M"
_symmetry_group_IT_number 69
_symmetry_cell_setting 'orthorhombic'
loop_
_space_group_symop_operation_xyz
x,y,z
-x,-y,z
x,-y,-z
-x,y,-z
-x,-y,-z
x,y,-z
-x,y,z
x,-y,z
x,1/2+y,1/2+z
-x,1/2-y,1/2+z
x,1/2-y,1/2-z
-x,1/2+y,1/2-z
-x,1/2-y,1/2-z
x,1/2+y,1/2-z
-x,1/2+y,1/2+z
x,1/2-y,1/2+z
1/2+x,y,1/2+z
1/2-x,-y,1/2+z
1/2+x,-y,1/2-z
1/2-x,y,1/2-z
1/2-x,-y,1/2-z
1/2+x,y,1/2-z
1/2-x,y,1/2+z
1/2+x,-y,1/2+z
1/2+x,1/2+y,z
1/2-x,1/2-y,z
1/2+x,1/2-y,-z
1/2-x,1/2+y,-z
1/2-x,1/2-y,-z
1/2+x,1/2+y,-z
1/2-x,1/2+y,z
1/2+x,1/2-y,z
loop_
_atom_site_type_symbol
_atom_site_label
_atom_site_fract_x
_atom_site_fract_y
_atom_site_fract_z
Si Si1 0.410986 0.911399 0.091100
Si Si2 0.053420 0.750737 0.658399
Si Si3 0.677798 0.644919 0.323375
Si Si4 0.651576 0.322136 0.154653
Si Si5 0.733641 0.091097 0.414238
O O1 0.441583 0.841599 0.131139
O O2 0.355747 0.906785 0.119896
O O3 0.431162 0.000000 0.110355
O O4 0.412675 0.896275 0.000000
O O5 0.059693 0.750000 0.750000
O O6 0.095093 0.690358 0.628478
O O7 0.000000 0.720344 0.633047
O O8 0.660097 0.629724 0.235126
O O9 0.674834 0.736697 0.339868
O O10 0.732748 0.620928 0.343418
O O11 0.680594 0.368838 0.089028
O O12 0.755603 0.109705 0.500000
O O13 0.724726 0.000000 0.402530
#
# Coordination Sequence:
#
# PCOD8284535 Si02
#       5
#    32  32  32  32  32
#     4  10  20  34  57  91 126 154 187 241 306 361
#     4  10  20  40  62  82 112 153 199 243 286 348
#     4  10  19  36  57  85 114 152 191 231 285 352
#     4  10  20  37  57  86 109 147 195 245 284 341
#     4  11  24  37  52  80 118 155 191 235 287 347
#
# _framework density 19.871008
#
# number of rings (size 3 to 8) (size 9 to 14) (size 15 to 20)
#    0.000    1.800    4.000    2.400    0.000   11.200 
#    0.000    1.000    0.000    0.600    0.000    1.400 
#    0.000    0.000    0.000    0.000    0.000    0.000 
#
# Total GULP energy -495676.979191 kJ/mol
# GULP energy per Si atom -12391.924480 kJ/mol
# Density = 1.982578 g / cm^3
# Si number density = 19.871008 Si / 1000 Ang^3
#
#
#
# Elastic Constant Matrix: (Units=GPa)
#
#
# Indices 1 2 3 4 5 6 
#
# 1 136.9046 30.6401 15.9329 0.0000 0.0000 0.0000
# 2 30.6401 56.2405 48.3497 0.0000 0.0000 0.0000
# 3 15.9329 48.3497 73.2011 0.0000 0.0000 0.0000
# 4 0.0000 0.0000 0.0000 32.3556 0.0000 0.0000
# 5 0.0000 0.0000 0.0000 0.0000 -9.8460 0.0000
# 6 0.0000 0.0000 0.0000 0.0000 0.0000 -11.1210
#
#
#
# Elastic Compliance Matrix: (Units=1/GPa)
#
#
# Indices 1 2 3 4 5 6 
#
# 1 0.008563 -0.007087 0.002817 0.000000 0.000000 0.000000
# 2 -0.007087 0.047009 -0.029507 0.000000 0.000000 0.000000
# 3 0.002817 -0.029507 0.032537 0.000000 0.000000 0.000000
# 4 0.000000 0.000000 0.000000 0.030907 0.000000 0.000000
# 5 0.000000 0.000000 0.000000 0.000000 -0.101564 0.000000
# 6 0.000000 0.000000 0.000000 0.000000 0.000000 -0.089920
#
#
# Mechanical properties :
#
#
# Convention : Reuss Voigt Hill
#
# Bulk Modulus (GPa) = 48.64921 50.68797 49.66859
# Shear Modulus (GPa) = 2580.77638 13.70593 1297.24116
#
# Velocity S-wave (km/s) = 36.07747 2.62915 25.57828
# Velocity P-wave (km/s) = 41.95213 5.89749 29.95632
#
# Compressibility (1/GPa) = 0.02055532
#
# Stress axis : x y z
#
# Youngs Moduli (GPa) = 116.78736 21.27258 30.73385
#
# Poissons Ratio (x) = 0.15076 -0.08658
# Poissons Ratio (y) = 0.82765 0.90687
# Poissons Ratio (z) = -0.32901 0.62769
#
# Static dielectric constant tensor:
#      x y z
#    x 3.820790 0.000000 0.000000 
#    y 0.000000 3.699820 0.000000 
#    z 0.000000 0.000000 4.104990 
# 
# 
# High freq. dielectric constant tensor:
#      x y z
#    x 1.771710 0.000000 0.000000 
#    y 0.000000 1.762940 0.000000 
#    z 0.000000 0.000000 1.768610 
# 
# From -- ./inp_files/27595.got.cif
#   From: 2010.03.12/outbox.cif.g09.slc.cpg/sg69_14_cif.got.tgz:27595.got - 2010.04.10 23:52:46.
