data_PCOD8284025
_publ_section_title
;
Structure prediction by ZEFSAII (Michael W. Deem and Ramdas Pophale) SiO2 
 PCOD8284025
Probable space group: F M M M
;
_chemical_formula_sum "Si O2"
_cell_formula_units_Z 144
_cell_length_a 28.617866
_cell_length_b 8.572141
_cell_length_c 30.992001
_cell_angle_alpha 90.000000
_cell_angle_beta 90.000000
_cell_angle_gamma 90.000000
_cell_volume 7602.845571
_symmetry_space_group_name_H-M "F M M M"
_symmetry_group_IT_number 69
_symmetry_cell_setting 'orthorhombic'
loop_
_space_group_symop_operation_xyz
x,y,z
-x,-y,z
x,-y,-z
-x,y,-z
-x,-y,-z
x,y,-z
-x,y,z
x,-y,z
x,1/2+y,1/2+z
-x,1/2-y,1/2+z
x,1/2-y,1/2-z
-x,1/2+y,1/2-z
-x,1/2-y,1/2-z
x,1/2+y,1/2-z
-x,1/2+y,1/2+z
x,1/2-y,1/2+z
1/2+x,y,1/2+z
1/2-x,-y,1/2+z
1/2+x,-y,1/2-z
1/2-x,y,1/2-z
1/2-x,-y,1/2-z
1/2+x,y,1/2-z
1/2-x,y,1/2+z
1/2+x,-y,1/2+z
1/2+x,1/2+y,z
1/2-x,1/2-y,z
1/2+x,1/2-y,-z
1/2-x,1/2+y,-z
1/2-x,1/2-y,-z
1/2+x,1/2+y,-z
1/2-x,1/2+y,z
1/2+x,1/2-y,z
loop_
_atom_site_type_symbol
_atom_site_label
_atom_site_fract_x
_atom_site_fract_y
_atom_site_fract_z
Si Si1 0.553832 0.317420 0.796527
Si Si2 0.801293 0.183460 0.088311
Si Si3 0.801930 0.315013 0.000000
Si Si4 0.052465 0.185086 0.547589
Si Si5 0.612738 0.815683 0.126731
O O1 0.500000 0.282230 0.808150
O O2 0.564661 0.500000 0.797520
O O3 0.566399 0.250000 0.750000
O O4 0.586387 0.228145 0.829871
O O5 0.750000 0.250000 0.097766
O O6 0.836132 0.235310 0.126558
O O7 0.796924 0.000000 0.084745
O O8 0.824682 0.251821 0.044141
O O9 0.750000 0.250000 0.000000
O O10 0.803950 0.500000 0.000000
O O11 0.072032 0.233085 0.500000
O O12 0.084144 0.253624 0.585826
O O13 0.000000 0.251212 0.553206
O O14 0.051307 0.000000 0.551307
O O15 0.618990 0.000000 0.124068
#
# Coordination Sequence:
#
# PCOD8284025 Si02
#       5
#    32  32  16  32  32
#     4  10  21  38  60  86 116 148 185 233 286 338
#     4  11  22  37  54  77 109 147 190 239 288 335
#     4  10  18  32  52  74 101 138 185 234 284 332
#     4   8  15  28  46  72 107 145 184 223 262 315
#     4  11  21  33  55  84 112 148 189 232 282 339
#
# _framework density 18.940276999999998
#
# number of rings (size 3 to 8) (size 9 to 14) (size 15 to 20)
#    0.000    2.000    0.000    7.000    1.556    2.222 
#    0.000    0.000    0.000    0.667    0.000    9.333 
#    0.000    0.000    0.000    0.000    0.000    0.000 
#
# Total GULP energy -446354.444454 kJ/mol
# GULP energy per Si atom -12398.734568 kJ/mol
# Density = 1.889717 g / cm^3
# Si number density = 18.940277 Si / 1000 Ang^3
#
#
#
# Elastic Constant Matrix: (Units=GPa)
#
#
# Indices 1 2 3 4 5 6 
#
# 1 94.7075 39.9392 62.7111 0.0000 0.0003 0.0001
# 2 39.9392 114.5949 34.7588 0.0000 0.0006 -0.0004
# 3 62.7111 34.7588 101.8920 0.0000 0.0001 0.0000
# 4 0.0000 0.0000 0.0000 29.3121 0.0000 0.0000
# 5 0.0003 0.0006 0.0001 0.0000 55.3424 -0.0004
# 6 0.0001 -0.0004 0.0000 0.0000 -0.0004 25.5458
#
#
#
# Elastic Compliance Matrix: (Units=1/GPa)
#
#
# Indices 1 2 3 4 5 6 
#
# 1 0.018953 -0.003421 -0.010498 0.000000 0.000000 0.000000
# 2 -0.003421 0.010351 -0.001425 0.000000 0.000000 0.000000
# 3 -0.010498 -0.001425 0.016761 0.000000 0.000000 0.000000
# 4 0.000000 0.000000 0.000000 0.034116 0.000000 0.000000
# 5 0.000000 0.000000 0.000000 0.000000 0.018069 0.000000
# 6 0.000000 0.000000 0.000000 0.000000 0.000000 0.039145
#
#
# Mechanical properties :
#
#
# Convention : Reuss Voigt Hill
#
# Bulk Modulus (GPa) = 65.03379 65.11250 65.07314
# Shear Modulus (GPa) = 28.86670 33.62575 31.24622
#
# Velocity S-wave (km/s) = 3.90820 4.21807 4.06609
# Velocity P-wave (km/s) = 7.40109 7.62727 7.51503
#
# Compressibility (1/GPa) = 0.01537662
#
# Stress axis : x y z
#
# Youngs Moduli (GPa) = 52.76293 96.60738 59.66053
#
# Poissons Ratio (x) = 0.33053 0.62629
# Poissons Ratio (y) = 0.18052 0.08504
# Poissons Ratio (z) = 0.55388 0.13771
#
# Static dielectric constant tensor:
#      x y z
#    x 3.536940 0.000000 0.000000 
#    y 0.000000 3.309270 0.000000 
#    z 0.000000 0.000000 3.586900 
# 
# 
# High freq. dielectric constant tensor:
#      x y z
#    x 1.735190 0.000000 0.000000 
#    y 0.000000 1.729700 0.000000 
#    z 0.000000 0.000000 1.721740 
# 
# From -- ./inp_files/47399.got.cif
#   From: 2010.03.12/outbox.cif.g09.slc.cpg/sg69_24_cif.got.tgz:47399.got - 2010.04.10 23:52:46.
