data_PCOD8284668
_publ_section_title
;
Structure prediction by ZEFSAII (Michael W. Deem and Ramdas Pophale) SiO2 
 PCOD8284668
Probable space group: F M M M
;
_chemical_formula_sum "Si O2"
_cell_formula_units_Z 112
_cell_length_a 24.216576
_cell_length_b 8.904060
_cell_length_c 25.663785
_cell_angle_alpha 90.000000
_cell_angle_beta 90.000000
_cell_angle_gamma 90.000000
_cell_volume 5533.775344
_symmetry_space_group_name_H-M "F M M M"
_symmetry_group_IT_number 69
_symmetry_cell_setting 'orthorhombic'
loop_
_space_group_symop_operation_xyz
x,y,z
-x,-y,z
x,-y,-z
-x,y,-z
-x,-y,-z
x,y,-z
-x,y,z
x,-y,z
x,1/2+y,1/2+z
-x,1/2-y,1/2+z
x,1/2-y,1/2-z
-x,1/2+y,1/2-z
-x,1/2-y,1/2-z
x,1/2+y,1/2-z
-x,1/2+y,1/2+z
x,1/2-y,1/2+z
1/2+x,y,1/2+z
1/2-x,-y,1/2+z
1/2+x,-y,1/2-z
1/2-x,y,1/2-z
1/2-x,-y,1/2-z
1/2+x,y,1/2-z
1/2-x,y,1/2+z
1/2+x,-y,1/2+z
1/2+x,1/2+y,z
1/2-x,1/2-y,z
1/2+x,1/2-y,-z
1/2-x,1/2+y,-z
1/2-x,1/2-y,-z
1/2+x,1/2+y,-z
1/2-x,1/2+y,z
1/2+x,1/2-y,z
loop_
_atom_site_type_symbol
_atom_site_label
_atom_site_fract_x
_atom_site_fract_y
_atom_site_fract_z
Si Si1 0.700480 0.162404 0.558494
Si Si2 0.607709 0.824598 0.103082
Si Si3 0.691439 0.678074 0.304263
Si Si4 0.500000 0.178361 0.561028
O O1 0.719298 0.130977 0.500000
O O2 0.750000 0.250000 0.588205
O O3 0.646345 0.265749 0.556639
O O4 0.690467 0.000000 0.586014
O O5 0.641979 0.782779 0.155406
O O6 0.550853 0.737127 0.095506
O O7 0.595682 0.000000 0.098456
O O8 0.699020 0.500000 0.298802
O O9 0.671934 0.750000 0.250000
O O10 0.750000 0.750000 0.321391
O O11 0.500000 0.235088 0.500000
O O12 0.500000 0.000000 0.561003
#
# Coordination Sequence:
#
# PCOD8284668 Si02
#       4
#    32  32  32  16
#     4  10  20  33  51  78 111 146 185 230 283 344
#     4  11  23  38  58  84 113 149 193 239 289 345
#     4  10  21  37  60  90 121 153 190 234 288 348
#     4  11  25  43  62  85 114 153 200 245 290 343
#
# _framework density 20.239346999999999
#
# number of rings (size 3 to 8) (size 9 to 14) (size 15 to 20)
#    0.000    1.571    0.000    5.571    0.000   13.143 
#    0.000    0.714    0.000    0.000    0.000    0.000 
#    0.000    0.000    0.000    0.000    0.000    0.000 
#
# Total GULP energy -346906.797782 kJ/mol
# GULP energy per Si atom -12389.528492 kJ/mol
# Density = 2.019328 g / cm^3
# Si number density = 20.239347 Si / 1000 Ang^3
#
#
#
# Elastic Constant Matrix: (Units=GPa)
#
#
# Indices 1 2 3 4 5 6 
#
# 1 176.1169 65.1326 51.6427 0.0000 0.0000 0.0000
# 2 65.1326 125.5066 59.0241 0.0000 0.0000 0.0000
# 3 51.6427 59.0241 100.6234 0.0000 0.0000 0.0000
# 4 0.0000 0.0000 0.0000 29.7312 0.0000 0.0000
# 5 0.0000 0.0000 0.0000 0.0000 31.3996 0.0000
# 6 0.0000 0.0000 0.0000 0.0000 0.0000 40.9711
#
#
#
# Elastic Compliance Matrix: (Units=1/GPa)
#
#
# Indices 1 2 3 4 5 6 
#
# 1 0.007339 -0.002813 -0.002116 0.000000 0.000000 0.000000
# 2 -0.002813 0.012082 -0.005643 0.000000 0.000000 0.000000
# 3 -0.002116 -0.005643 0.014334 0.000000 0.000000 0.000000
# 4 0.000000 0.000000 0.000000 0.033635 0.000000 0.000000
# 5 0.000000 0.000000 0.000000 0.000000 0.031848 0.000000
# 6 0.000000 0.000000 0.000000 0.000000 0.000000 0.024407
#
#
# Mechanical properties :
#
#
# Convention : Reuss Voigt Hill
#
# Bulk Modulus (GPa) = 79.30479 83.76064 81.53271
# Shear Modulus (GPa) = 33.55861 35.51688 34.53775
#
# Velocity S-wave (km/s) = 4.07638 4.19363 4.13542
# Velocity P-wave (km/s) = 7.83737 8.05752 7.94821
#
# Compressibility (1/GPa) = 0.01260958
#
# Stress axis : x y z
#
# Youngs Moduli (GPa) = 136.25681 82.77095 69.76290
#
# Poissons Ratio (x) = 0.23287 0.14764
# Poissons Ratio (y) = 0.38334 0.39367
# Poissons Ratio (z) = 0.28836 0.46707
#
# Static dielectric constant tensor:
#      x y z
#    x 3.718350 0.000000 0.000000 
#    y 0.000000 4.159080 0.000000 
#    z 0.000000 0.000000 3.663460 
# 
# 
# High freq. dielectric constant tensor:
#      x y z
#    x 1.781210 0.000000 0.000000 
#    y 0.000000 1.813140 0.000000 
#    z 0.000000 0.000000 1.783940 
# 
# From -- ./inp_files/4469.got.cif
#   From: 2010.03.12/outbox.cif.g09.slc.cpg/sg69_3_cif.got.tgz:4469.got - 2010.04.10 23:52:46.
