data_PCOD8284421
_publ_section_title
;
Structure prediction by ZEFSAII (Michael W. Deem and Ramdas Pophale) SiO2 
 PCOD8284421
Probable space group: F M M M
;
_chemical_formula_sum "Si O2"
_cell_formula_units_Z 176
_cell_length_a 25.293848
_cell_length_b 25.559188
_cell_length_c 14.915718
_cell_angle_alpha 90.000000
_cell_angle_beta 90.000000
_cell_angle_gamma 90.000000
_cell_volume 9642.865756
_symmetry_space_group_name_H-M "F M M M"
_symmetry_group_IT_number 69
_symmetry_cell_setting 'orthorhombic'
loop_
_space_group_symop_operation_xyz
x,y,z
-x,-y,z
x,-y,-z
-x,y,-z
-x,-y,-z
x,y,-z
-x,y,z
x,-y,z
x,1/2+y,1/2+z
-x,1/2-y,1/2+z
x,1/2-y,1/2-z
-x,1/2+y,1/2-z
-x,1/2-y,1/2-z
x,1/2+y,1/2-z
-x,1/2+y,1/2+z
x,1/2-y,1/2+z
1/2+x,y,1/2+z
1/2-x,-y,1/2+z
1/2+x,-y,1/2-z
1/2-x,y,1/2-z
1/2-x,-y,1/2-z
1/2+x,y,1/2-z
1/2-x,y,1/2+z
1/2+x,-y,1/2+z
1/2+x,1/2+y,z
1/2-x,1/2-y,z
1/2+x,1/2-y,-z
1/2-x,1/2+y,-z
1/2-x,1/2-y,-z
1/2+x,1/2+y,-z
1/2-x,1/2+y,z
1/2+x,1/2-y,z
loop_
_atom_site_type_symbol
_atom_site_label
_atom_site_fract_x
_atom_site_fract_y
_atom_site_fract_z
Si Si1 0.714527 0.939686 0.335487
Si Si2 0.605677 0.291840 0.681529
Si Si3 0.000000 0.620646 0.396477
Si Si4 0.248068 0.884123 0.000000
Si Si5 0.147875 0.178813 0.000000
Si Si6 0.500000 0.744149 0.894676
Si Si7 0.608364 0.872210 0.331090
Si Si8 0.667416 0.794670 0.000000
O O1 0.750000 0.929524 0.250000
O O2 0.754642 0.919340 0.412206
O O3 0.658708 0.910044 0.329798
O O4 0.700827 0.000000 0.351250
O O5 0.633745 0.250000 0.750000
O O6 0.549276 0.269902 0.654309
O O7 0.602140 0.346369 0.734167
O O8 0.636691 0.305983 0.591363
O O9 0.053576 0.596749 0.352050
O O10 0.000000 0.605585 0.500000
O O11 0.000000 0.682607 0.377713
O O12 0.186929 0.869251 0.000000
O O13 0.281900 0.831484 0.000000
O O14 0.112589 0.172907 0.090220
O O15 0.180457 0.232923 0.000000
O O16 0.500000 0.757784 0.000000
#
# Coordination Sequence:
#
# PCOD8284421 Si02
#       8
#    32  32  16  16  16  16  32  16
#     4  10  22  43  65  83 106 144 199 252 297 352
#     4  12  21  32  52  77 116 155 192 223 270 328
#     4  11  19  31  54  84 119 155 192 227 276 346
#     4  10  22  36  58  81 110 140 181 237 300 332
#     4  10  19  34  51  76 114 152 188 218 267 346
#     4  11  20  34  50  78 115 165 195 217 260 333
#     4  11  21  35  57  85 115 154 191 236 287 338
#     4  12  21  34  49  79 114 148 187 233 271 342
#
# _framework density 18.251836000000001
#
# number of rings (size 3 to 8) (size 9 to 14) (size 15 to 20)
#    0.000    1.091    5.455    2.455    0.000    0.000 
#    0.000    0.455    0.000    0.545    0.000    0.000 
#    0.000    0.727    0.000    0.000    0.000    0.000 
#
# Total GULP energy -545319.700576 kJ/mol
# GULP energy per Si atom -12393.629559 kJ/mol
# Density = 1.821029 g / cm^3
# Si number density = 18.251836 Si / 1000 Ang^3
#
#
#
# Elastic Constant Matrix: (Units=GPa)
#
#
# Indices 1 2 3 4 5 6 
#
# 1 81.5266 30.2245 7.3928 0.0000 0.0000 0.0000
# 2 30.2245 63.1544 28.5954 0.0000 0.0000 0.0000
# 3 7.3928 28.5954 89.4409 0.0000 0.0000 0.0000
# 4 0.0000 0.0000 0.0000 21.1389 0.0000 0.0000
# 5 0.0000 0.0000 0.0000 0.0000 11.3766 0.0000
# 6 0.0000 0.0000 0.0000 0.0000 0.0000 54.4391
#
#
#
# Elastic Compliance Matrix: (Units=1/GPa)
#
#
# Indices 1 2 3 4 5 6 
#
# 1 0.015028 -0.007752 0.001236 0.000000 0.000000 0.000000
# 2 -0.007752 0.022513 -0.006557 0.000000 0.000000 0.000000
# 3 0.001236 -0.006557 0.013175 0.000000 0.000000 0.000000
# 4 0.000000 0.000000 0.000000 0.047306 0.000000 0.000000
# 5 0.000000 0.000000 0.000000 0.000000 0.087900 0.000000
# 6 0.000000 0.000000 0.000000 0.000000 0.000000 0.018369
#
#
# Mechanical properties :
#
#
# Convention : Reuss Voigt Hill
#
# Bulk Modulus (GPa) = 40.69936 40.72748 40.71342
# Shear Modulus (GPa) = 20.95336 28.58488 24.76912
#
# Velocity S-wave (km/s) = 3.39191 3.96174 3.68785
# Velocity P-wave (km/s) = 6.13900 6.57950 6.36306
#
# Compressibility (1/GPa) = 0.02457041
#
# Stress axis : x y z
#
# Youngs Moduli (GPa) = 66.54407 44.41893 75.90292
#
# Poissons Ratio (x) = 0.34432 -0.09383
# Poissons Ratio (y) = 0.51583 0.49769
# Poissons Ratio (z) = -0.08226 0.29125
#
# Static dielectric constant tensor:
#      x y z
#    x 3.402370 0.000000 0.000000 
#    y 0.000000 3.090640 0.000000 
#    z 0.000000 0.000000 3.839230 
# 
# 
# High freq. dielectric constant tensor:
#      x y z
#    x 1.708550 0.000000 0.000000 
#    y 0.000000 1.671920 0.000000 
#    z 0.000000 0.000000 1.730800 
# 
# From -- ./inp_files/18199.got.cif
#   From: 2010.03.12/outbox.cif.g09.slc.cpg/sg69_10_cif.got.tgz:18199.got - 2010.04.10 23:52:46.
