data_PCOD8284725
_publ_section_title
;
Structure prediction by ZEFSAII (Michael W. Deem and Ramdas Pophale) SiO2 
 PCOD8284725
Probable space group: F M M M
;
_chemical_formula_sum "Si O2"
_cell_formula_units_Z 160
_cell_length_a 9.269346
_cell_length_b 29.254854
_cell_length_c 31.424874
_cell_angle_alpha 90.000000
_cell_angle_beta 90.000000
_cell_angle_gamma 90.000000
_cell_volume 8521.588793
_symmetry_space_group_name_H-M "F M M M"
_symmetry_group_IT_number 69
_symmetry_cell_setting 'orthorhombic'
loop_
_space_group_symop_operation_xyz
x,y,z
-x,-y,z
x,-y,-z
-x,y,-z
-x,-y,-z
x,y,-z
-x,y,z
x,-y,z
x,1/2+y,1/2+z
-x,1/2-y,1/2+z
x,1/2-y,1/2-z
-x,1/2+y,1/2-z
-x,1/2-y,1/2-z
x,1/2+y,1/2-z
-x,1/2+y,1/2+z
x,1/2-y,1/2+z
1/2+x,y,1/2+z
1/2-x,-y,1/2+z
1/2+x,-y,1/2-z
1/2-x,y,1/2-z
1/2-x,-y,1/2-z
1/2+x,y,1/2-z
1/2-x,y,1/2+z
1/2+x,-y,1/2+z
1/2+x,1/2+y,z
1/2-x,1/2-y,z
1/2+x,1/2-y,-z
1/2-x,1/2+y,-z
1/2-x,1/2-y,-z
1/2+x,1/2+y,-z
1/2-x,1/2+y,z
1/2+x,1/2-y,z
loop_
_atom_site_type_symbol
_atom_site_label
_atom_site_fract_x
_atom_site_fract_y
_atom_site_fract_z
Si Si1 0.171645 0.950416 0.919612
Si Si2 0.828519 0.643904 0.453198
Si Si3 0.671144 0.950358 0.323835
Si Si4 0.829876 0.202553 0.126158
Si Si5 0.669385 0.144459 0.290867
O O1 0.232216 0.907752 0.946703
O O2 0.230860 0.945397 0.871669
O O3 0.000000 0.948600 0.919171
O O4 0.221698 0.000000 0.938362
O O5 0.777713 0.661004 0.500000
O O6 0.770686 0.677521 0.416437
O O7 0.000000 0.642656 0.450321
O O8 0.500000 0.947523 0.325716
O O9 0.727506 0.907751 0.296148
O O10 0.720264 0.000000 0.304939
O O11 0.750000 0.250000 0.130813
O O12 0.789499 0.172262 0.166966
O O13 0.000000 0.211082 0.123340
O O14 0.500000 0.146690 0.282238
O O15 0.750000 0.165834 0.250000
#
# Coordination Sequence:
#
# PCOD8284725 Si02
#       5
#    32  32  32  32  32
#     4   8  12  20  38  65  97 131 162 191 230 283
#     4   9  16  27  45  70 100 131 162 197 240 290
#     4   8  13  24  44  68  96 130 162 192 232 284
#     4  10  21  37  54  72  97 129 163 204 252 294
#     4  10  20  34  52  74 100 129 163 201 244 292
#
# _framework density 18.775842000000001
#
# number of rings (size 3 to 8) (size 9 to 14) (size 15 to 20)
#    0.000    3.000    2.000    1.200    0.000    2.400 
#    0.000    4.000    0.000    0.000    0.000    0.000 
#    0.000    0.800    0.000    1.800    0.000    2.000 
#
# Total GULP energy -495575.034016 kJ/mol
# GULP energy per Si atom -12389.375850 kJ/mol
# Density = 1.873311 g / cm^3
# Si number density = 18.775842 Si / 1000 Ang^3
#
#
#
# Elastic Constant Matrix: (Units=GPa)
#
#
# Indices 1 2 3 4 5 6 
#
# 1 14.4595 31.6733 30.2295 0.0000 0.0000 0.0000
# 2 31.6733 142.5719 70.2986 0.0000 0.0000 0.0000
# 3 30.2295 70.2986 143.5801 0.0000 0.0000 0.0000
# 4 0.0000 0.0000 0.0000 9.3666 0.0000 0.0000
# 5 0.0000 0.0000 0.0000 0.0000 15.6405 0.0000
# 6 0.0000 0.0000 0.0000 0.0000 0.0000 18.1558
#
#
#
# Elastic Compliance Matrix: (Units=1/GPa)
#
#
# Indices 1 2 3 4 5 6 
#
# 1 0.183061 -0.028559 -0.024559 0.000000 0.000000 0.000000
# 2 -0.028559 0.013702 -0.000696 0.000000 0.000000 0.000000
# 3 -0.024559 -0.000696 0.012476 0.000000 0.000000 0.000000
# 4 0.000000 0.000000 0.000000 0.106763 0.000000 0.000000
# 5 0.000000 0.000000 0.000000 0.000000 0.063936 0.000000
# 6 0.000000 0.000000 0.000000 0.000000 0.000000 0.055079
#
#
# Mechanical properties :
#
#
# Convention : Reuss Voigt Hill
#
# Bulk Modulus (GPa) = 9.84142 62.77935 36.31038
# Shear Modulus (GPa) = 8.67282 19.85992 14.26637
#
# Velocity S-wave (km/s) = 2.15155 3.25582 2.75948
# Velocity P-wave (km/s) = 3.38011 6.90236 5.43451
#
# Compressibility (1/GPa) = 0.10161140
#
# Stress axis : x y z
#
# Youngs Moduli (GPa) = 5.46267 72.98448 80.15364
#
# Poissons Ratio (x) = 2.08435 1.96850
# Poissons Ratio (y) = 0.15601 0.05576
# Poissons Ratio (z) = 0.13416 0.05077
#
# Static dielectric constant tensor:
#      x y z
#    x 2.693980 0.000000 0.000000 
#    y 0.000000 3.749210 0.000000 
#    z 0.000000 0.000000 3.554240 
# 
# 
# High freq. dielectric constant tensor:
#      x y z
#    x 1.647160 0.000000 0.000000 
#    y 0.000000 1.740820 0.000000 
#    z 0.000000 0.000000 1.731790 
# 
# From -- ./inp_files/11472.got.cif
#   From: 2010.03.12/outbox.cif.g09.slc.cpg/sg69_6_cif.got.tgz:11472.got - 2010.04.10 23:52:46.
