data_PCOD8284192
_publ_section_title
;
Structure prediction by ZEFSAII (Michael W. Deem and Ramdas Pophale) SiO2 
 PCOD8284192
Probable space group: F M M M
;
_chemical_formula_sum "Si O2"
_cell_formula_units_Z 208
_cell_length_a 24.949555
_cell_length_b 24.689108
_cell_length_c 18.603762
_cell_angle_alpha 90.000000
_cell_angle_beta 90.000000
_cell_angle_gamma 90.000000
_cell_volume 11459.587323
_symmetry_space_group_name_H-M "F M M M"
_symmetry_group_IT_number 69
_symmetry_cell_setting 'orthorhombic'
loop_
_space_group_symop_operation_xyz
x,y,z
-x,-y,z
x,-y,-z
-x,y,-z
-x,-y,-z
x,y,-z
-x,y,z
x,-y,z
x,1/2+y,1/2+z
-x,1/2-y,1/2+z
x,1/2-y,1/2-z
-x,1/2+y,1/2-z
-x,1/2-y,1/2-z
x,1/2+y,1/2-z
-x,1/2+y,1/2+z
x,1/2-y,1/2+z
1/2+x,y,1/2+z
1/2-x,-y,1/2+z
1/2+x,-y,1/2-z
1/2-x,y,1/2-z
1/2-x,-y,1/2-z
1/2+x,y,1/2-z
1/2-x,y,1/2+z
1/2+x,-y,1/2+z
1/2+x,1/2+y,z
1/2-x,1/2-y,z
1/2+x,1/2-y,-z
1/2-x,1/2+y,-z
1/2-x,1/2-y,-z
1/2+x,1/2+y,-z
1/2-x,1/2+y,z
1/2+x,1/2-y,z
loop_
_atom_site_type_symbol
_atom_site_label
_atom_site_fract_x
_atom_site_fract_y
_atom_site_fract_z
Si Si1 0.062887 0.500000 0.577593
Si Si2 0.439308 0.588284 0.812333
Si Si3 0.939871 0.621341 0.082083
Si Si4 0.399547 0.295339 0.197667
Si Si5 0.365096 0.060450 0.182784
Si Si6 0.303817 0.662594 0.705594
Si Si7 0.359363 0.782018 0.916005
O O1 0.091808 0.500000 0.500000
O O2 0.079586 0.556008 0.616742
O O3 0.000000 0.500000 0.567124
O O4 0.500000 0.572319 0.792489
O O5 0.437121 0.653546 0.820215
O O6 0.400104 0.565273 0.753305
O O7 0.904729 0.574661 0.117770
O O8 0.909898 0.678131 0.092662
O O9 0.000000 0.625787 0.115753
O O10 0.944619 0.604937 0.000000
O O11 0.427800 0.250000 0.250000
O O12 0.349687 0.315774 0.243264
O O13 0.379591 0.273389 0.120423
O O14 0.313078 0.099301 0.187483
O O15 0.342921 0.000000 0.172278
O O16 0.250000 0.672502 0.750000
O O17 0.307905 0.695121 0.629273
O O18 0.343603 0.773515 0.000000
#
# Coordination Sequence:
#
# PCOD8284192 Si02
#       7
#    16  32  32  32  32  32  32
#     4   9  18  32  48  66  90 127 173 213 251 292
#     4  10  19  31  48  71 101 135 170 211 253 295
#     4   9  18  31  47  72 109 145 169 197 244 297
#     4   9  19  32  48  74 103 131 167 207 253 311
#     4  10  19  31  50  74  97 126 172 214 249 299
#     4   9  19  36  53  70  97 130 161 209 267 312
#     4   9  18  33  52  75 102 133 169 205 247 304
#
# _framework density 18.150741
#
# number of rings (size 3 to 8) (size 9 to 14) (size 15 to 20)
#    0.000    2.692    0.769    1.385    0.000    5.846 
#    0.000    2.308    0.000    0.923    0.000    0.000 
#    0.000    0.000    0.000    0.000    0.000    0.000 
#
# Total GULP energy -644317.040527 kJ/mol
# GULP energy per Si atom -12390.712318 kJ/mol
# Density = 1.810943 g / cm^3
# Si number density = 18.150741 Si / 1000 Ang^3
#
#
#
# Elastic Constant Matrix: (Units=GPa)
#
#
# Indices 1 2 3 4 5 6 
#
# 1 37.2302 -3.9275 16.7996 0.0000 0.0000 0.0000
# 2 -3.9275 106.2130 36.7936 0.0000 0.0000 0.0000
# 3 16.7996 36.7936 109.5692 0.0000 0.0000 0.0000
# 4 0.0000 0.0000 0.0000 24.4621 0.0000 0.0000
# 5 0.0000 0.0000 0.0000 0.0000 24.5609 0.0000
# 6 0.0000 0.0000 0.0000 0.0000 0.0000 53.4608
#
#
#
# Elastic Compliance Matrix: (Units=1/GPa)
#
#
# Indices 1 2 3 4 5 6 
#
# 1 0.029692 0.003027 -0.005569 0.000000 0.000000 0.000000
# 2 0.003027 0.010963 -0.004146 0.000000 0.000000 0.000000
# 3 -0.005569 -0.004146 0.011373 0.000000 0.000000 0.000000
# 4 0.000000 0.000000 0.000000 0.040879 0.000000 0.000000
# 5 0.000000 0.000000 0.000000 0.000000 0.040715 0.000000
# 6 0.000000 0.000000 0.000000 0.000000 0.000000 0.018705
#
#
# Mechanical properties :
#
#
# Convention : Reuss Voigt Hill
#
# Bulk Modulus (GPa) = 25.87126 39.14931 32.51029
# Shear Modulus (GPa) = 27.99756 34.05323 31.02539
#
# Velocity S-wave (km/s) = 3.93173 4.33614 4.13888
# Velocity P-wave (km/s) = 5.90727 6.83266 6.38675
#
# Compressibility (1/GPa) = 0.03865292
#
# Stress axis : x y z
#
# Youngs Moduli (GPa) = 33.67888 91.21549 87.93063
#
# Poissons Ratio (x) = -0.27612 0.48969
# Poissons Ratio (y) = -0.10195 0.36452
# Poissons Ratio (z) = 0.18756 0.37814
#
# Static dielectric constant tensor:
#      x y z
#    x 3.078520 0.000000 0.000000 
#    y 0.000000 3.731990 0.000000 
#    z 0.000000 0.000000 3.693810 
# 
# 
# High freq. dielectric constant tensor:
#      x y z
#    x 1.665880 0.000000 0.000000 
#    y 0.000000 1.709010 0.000000 
#    z 0.000000 0.000000 1.706700 
# 
# From -- ./inp_files/26986.got.cif
#   From: 2010.03.12/outbox.cif.g09.slc.cpg/sg69_14_cif.got.tgz:26986.got - 2010.04.10 23:52:46.
