data_PCOD8284719
_publ_section_title
;
Structure prediction by ZEFSAII (Michael W. Deem and Ramdas Pophale) SiO2 
 PCOD8284719
Probable space group: F M M M
;
_chemical_formula_sum "Si O2"
_cell_formula_units_Z 176
_cell_length_a 29.812284
_cell_length_b 10.864853
_cell_length_c 28.933364
_cell_angle_alpha 90.000000
_cell_angle_beta 90.000000
_cell_angle_gamma 90.000000
_cell_volume 9371.692609
_symmetry_space_group_name_H-M "F M M M"
_symmetry_group_IT_number 69
_symmetry_cell_setting 'orthorhombic'
loop_
_space_group_symop_operation_xyz
x,y,z
-x,-y,z
x,-y,-z
-x,y,-z
-x,-y,-z
x,y,-z
-x,y,z
x,-y,z
x,1/2+y,1/2+z
-x,1/2-y,1/2+z
x,1/2-y,1/2-z
-x,1/2+y,1/2-z
-x,1/2-y,1/2-z
x,1/2+y,1/2-z
-x,1/2+y,1/2+z
x,1/2-y,1/2+z
1/2+x,y,1/2+z
1/2-x,-y,1/2+z
1/2+x,-y,1/2-z
1/2-x,y,1/2-z
1/2-x,-y,1/2-z
1/2+x,y,1/2-z
1/2-x,y,1/2+z
1/2+x,-y,1/2+z
1/2+x,1/2+y,z
1/2-x,1/2-y,z
1/2+x,1/2-y,-z
1/2-x,1/2+y,-z
1/2-x,1/2-y,-z
1/2+x,1/2+y,-z
1/2-x,1/2+y,z
1/2+x,1/2-y,z
loop_
_atom_site_type_symbol
_atom_site_label
_atom_site_fract_x
_atom_site_fract_y
_atom_site_fract_z
Si Si1 0.928655 0.000000 0.554666
Si Si2 0.948397 0.642204 0.286690
Si Si3 0.283580 0.136773 0.500000
Si Si4 0.800401 0.748538 0.409075
Si Si5 0.114832 0.359969 0.371853
Si Si6 0.950473 0.266426 0.446383
Si Si7 0.829538 0.500000 0.945834
O O1 0.952818 0.875365 0.571398
O O2 0.928372 0.000000 0.500000
O O3 0.878993 0.000000 0.576334
O O4 0.939332 0.500000 0.269135
O O5 0.938185 0.750000 0.250000
O O6 0.916302 0.677099 0.329035
O O7 0.000000 0.651656 0.303113
O O8 0.250000 0.250000 0.500000
O O9 0.310322 0.152960 0.451688
O O10 0.261331 0.000000 0.500000
O O11 0.750000 0.750000 0.387507
O O12 0.839088 0.720232 0.371461
O O13 0.802304 0.884054 0.429111
O O14 0.130020 0.500000 0.367909
O O15 0.086522 0.341709 0.418569
O O16 0.936119 0.272927 0.500000
O O17 0.000000 0.324026 0.439038
O O18 0.835101 0.500000 0.000000
#
# Coordination Sequence:
#
# PCOD8284719 Si02
#       7
#    16  32  16  32  32  32  16
#     4   9  17  32  49  68 100 145 192 233 282 319
#     4   9  19  40  68  93 119 147 180 230 291 351
#     4  10  22  34  52  76 105 150 205 251 293 338
#     4  11  24  35  55  77 113 152 203 247 295 339
#     4  11  23  38  56  83 116 151 188 234 288 347
#     4  10  20  34  51  75 110 153 192 229 272 335
#     4  11  20  35  52  75 106 154 202 261 298 325
#
# _framework density 18.779959000000002
#
# number of rings (size 3 to 8) (size 9 to 14) (size 15 to 20)
#    0.000    1.818    2.727    1.364    7.636    2.545 
#    3.273    0.909    0.000    0.545    0.000    2.545 
#    0.000    0.000    0.000    0.000    0.000    0.000 
#
# Total GULP energy -545190.656132 kJ/mol
# GULP energy per Si atom -12390.696730 kJ/mol
# Density = 1.873721 g / cm^3
# Si number density = 18.779959 Si / 1000 Ang^3
#
#
#
# Elastic Constant Matrix: (Units=GPa)
#
#
# Indices 1 2 3 4 5 6 
#
# 1 132.3695 37.6629 50.3006 0.0000 0.0000 0.0000
# 2 37.6629 111.1073 40.3183 0.0000 0.0000 0.0000
# 3 50.3006 40.3183 71.9566 0.0000 0.0000 0.0000
# 4 0.0000 0.0000 0.0000 22.0725 0.0000 0.0000
# 5 0.0000 0.0000 0.0000 0.0000 21.9003 0.0000
# 6 0.0000 0.0000 0.0000 0.0000 0.0000 31.8275
#
#
#
# Elastic Compliance Matrix: (Units=1/GPa)
#
#
# Indices 1 2 3 4 5 6 
#
# 1 0.010396 -0.001113 -0.006643 0.000000 0.000000 0.000000
# 2 -0.001113 0.011417 -0.005619 0.000000 0.000000 0.000000
# 3 -0.006643 -0.005619 0.021689 0.000000 0.000000 0.000000
# 4 0.000000 0.000000 0.000000 0.045305 0.000000 0.000000
# 5 0.000000 0.000000 0.000000 0.000000 0.045661 0.000000
# 6 0.000000 0.000000 0.000000 0.000000 0.000000 0.031419
#
#
# Mechanical properties :
#
#
# Convention : Reuss Voigt Hill
#
# Bulk Modulus (GPa) = 59.69666 63.55521 61.62594
# Shear Modulus (GPa) = 25.22423 27.63686 26.43054
#
# Velocity S-wave (km/s) = 3.66887 3.84032 3.75558
# Velocity P-wave (km/s) = 7.05719 7.31981 7.18970
#
# Compressibility (1/GPa) = 0.01675135
#
# Stress axis : x y z
#
# Youngs Moduli (GPa) = 96.19228 87.59218 46.10533
#
# Poissons Ratio (x) = 0.09751 0.30629
# Poissons Ratio (y) = 0.10708 0.25905
# Poissons Ratio (z) = 0.63904 0.49215
#
# Static dielectric constant tensor:
#      x y z
#    x 3.585640 0.000000 0.000000 
#    y 0.000000 3.648130 0.000000 
#    z 0.000000 0.000000 3.200560 
# 
# 
# High freq. dielectric constant tensor:
#      x y z
#    x 1.738580 0.000000 0.000000 
#    y 0.000000 1.742870 0.000000 
#    z 0.000000 0.000000 1.667360 
# 
# From -- ./inp_files/43911.got.cif
#   From: 2010.03.12/outbox.cif.g09.slc.cpg/sg69_22_cif.got.tgz:43911.got - 2010.04.10 23:52:46.
