data_PCOD8284959
_publ_section_title
;
Structure prediction by ZEFSAII (Michael W. Deem and Ramdas Pophale) SiO2 
 PCOD8284959
Probable space group: F M M M
;
_chemical_formula_sum "Si O2"
_cell_formula_units_Z 144
_cell_length_a 27.035637
_cell_length_b 31.767496
_cell_length_c 8.887588
_cell_angle_alpha 90.000000
_cell_angle_beta 90.000000
_cell_angle_gamma 90.000000
_cell_volume 7633.144861
_symmetry_space_group_name_H-M "F M M M"
_symmetry_group_IT_number 69
_symmetry_cell_setting 'orthorhombic'
loop_
_space_group_symop_operation_xyz
x,y,z
-x,-y,z
x,-y,-z
-x,y,-z
-x,-y,-z
x,y,-z
-x,y,z
x,-y,z
x,1/2+y,1/2+z
-x,1/2-y,1/2+z
x,1/2-y,1/2-z
-x,1/2+y,1/2-z
-x,1/2-y,1/2-z
x,1/2+y,1/2-z
-x,1/2+y,1/2+z
x,1/2-y,1/2+z
1/2+x,y,1/2+z
1/2-x,-y,1/2+z
1/2+x,-y,1/2-z
1/2-x,y,1/2-z
1/2-x,-y,1/2-z
1/2+x,y,1/2-z
1/2-x,y,1/2+z
1/2+x,-y,1/2+z
1/2+x,1/2+y,z
1/2-x,1/2-y,z
1/2+x,1/2-y,-z
1/2-x,1/2+y,-z
1/2-x,1/2-y,-z
1/2+x,1/2+y,-z
1/2-x,1/2+y,z
1/2+x,1/2-y,z
loop_
_atom_site_type_symbol
_atom_site_label
_atom_site_fract_x
_atom_site_fract_y
_atom_site_fract_z
Si Si1 0.854067 0.792422 0.176081
Si Si2 0.556226 0.332261 0.325711
Si Si3 0.057621 0.500000 0.323005
Si Si4 0.697464 0.121905 0.678250
Si Si5 0.106693 0.580490 0.175932
O O1 0.832722 0.750000 0.250000
O O2 0.909933 0.800745 0.230578
O O3 0.818968 0.830967 0.224833
O O4 0.854677 0.786010 0.000000
O O5 0.563788 0.321309 0.500000
O O6 0.500000 0.325371 0.273868
O O7 0.570494 0.380424 0.293440
O O8 0.067232 0.500000 0.500000
O O9 0.082004 0.540623 0.250996
O O10 0.000000 0.500000 0.283175
O O11 0.699540 0.116443 0.500000
O O12 0.750000 0.112078 0.750000
O O13 0.659456 0.088341 0.746472
O O14 0.114982 0.572434 0.000000
#
# Coordination Sequence:
#
# PCOD8284959 Si02
#       5
#    32  32  16  32  32
#     4  10  21  35  52  76 106 139 178 224 270 320
#     4   9  18  33  53  76 104 140 180 221 267 320
#     4  11  23  37  56  85 120 153 183 219 263 313
#     4  10  21  38  59  82 108 141 180 222 273 327
#     4  10  20  36  58  83 111 143 182 226 270 319
#
# _framework density 18.865095
#
# number of rings (size 3 to 8) (size 9 to 14) (size 15 to 20)
#    0.000    2.111    0.000    3.000    0.000    6.667 
#    0.000    2.778    0.000    0.000    0.000    0.000 
#    0.000    0.000    0.000    0.000    0.000    0.000 
#
# Total GULP energy -446553.305889 kJ/mol
# GULP energy per Si atom -12404.258497 kJ/mol
# Density = 1.882216 g / cm^3
# Si number density = 18.865095 Si / 1000 Ang^3
#
#
#
# Elastic Constant Matrix: (Units=GPa)
#
#
# Indices 1 2 3 4 5 6 
#
# 1 112.8503 31.8718 50.3875 -0.0149 0.0156 0.0120
# 2 31.8718 95.6811 49.1806 -0.0168 0.0173 0.0163
# 3 50.3875 49.1806 91.0779 -0.0388 0.0365 0.0412
# 4 -0.0149 -0.0168 -0.0388 33.5747 0.0074 0.0127
# 5 0.0156 0.0173 0.0365 0.0074 33.9165 -0.0139
# 6 0.0120 0.0163 0.0412 0.0127 -0.0139 17.1266
#
#
#
# Elastic Compliance Matrix: (Units=1/GPa)
#
#
# Indices 1 2 3 4 5 6 
#
# 1 0.011812 -0.000797 -0.006105 -0.000002 0.000002 0.000007
# 2 -0.000797 0.014520 -0.007400 -0.000002 0.000001 0.000005
# 3 -0.006105 -0.007400 0.018353 0.000015 -0.000013 -0.000033
# 4 -0.000002 -0.000002 0.000015 0.029784 -0.000007 -0.000022
# 5 0.000002 0.000001 -0.000013 -0.000007 0.029484 0.000024
# 6 0.000007 0.000005 -0.000033 -0.000022 0.000024 0.058389
#
#
# Mechanical properties :
#
#
# Convention : Reuss Voigt Hill
#
# Bulk Modulus (GPa) = 62.17945 62.49878 62.33912
# Shear Modulus (GPa) = 25.47044 28.13488 26.80266
#
# Velocity S-wave (km/s) = 3.67841 3.86602 3.77338
# Velocity P-wave (km/s) = 7.14650 7.28899 7.21810
#
# Compressibility (1/GPa) = 0.01608248
#
# Stress axis : x y z
#
# Youngs Moduli (GPa) = 84.65962 68.86846 54.48781
#
# Poissons Ratio (x) = 0.05488 0.33262
# Poissons Ratio (y) = 0.06746 0.40321
# Poissons Ratio (z) = 0.51681 0.50962
#
# Static dielectric constant tensor:
#      x y z
#    x 3.478040 0.000070 0.000100 
#    y 0.000070 3.429460 -0.000090 
#    z 0.000100 -0.000090 3.534640 
# 
# 
# High freq. dielectric constant tensor:
#      x y z
#    x 1.733680 0.000010 0.000010 
#    y 0.000010 1.729410 -0.000010 
#    z 0.000010 -0.000010 1.744490 
# 
# From -- ./inp_files/5562.got.cif
#   From: 2010.03.12/outbox.cif.g09.slc.cpg/sg69_3_cif.got.tgz:5562.got - 2010.04.10 23:52:46.
