data_PCOD8284290
_publ_section_title
;
Structure prediction by ZEFSAII (Michael W. Deem and Ramdas Pophale) SiO2 
 PCOD8284290
Probable space group: F M M M
;
_chemical_formula_sum "Si O2"
_cell_formula_units_Z 96
_cell_length_a 17.876228
_cell_length_b 22.707421
_cell_length_c 12.931969
_cell_angle_alpha 90.000000
_cell_angle_beta 90.000000
_cell_angle_gamma 90.000000
_cell_volume 5249.384106
_symmetry_space_group_name_H-M "F M M M"
_symmetry_group_IT_number 69
_symmetry_cell_setting 'orthorhombic'
loop_
_space_group_symop_operation_xyz
x,y,z
-x,-y,z
x,-y,-z
-x,y,-z
-x,-y,-z
x,y,-z
-x,y,z
x,-y,z
x,1/2+y,1/2+z
-x,1/2-y,1/2+z
x,1/2-y,1/2-z
-x,1/2+y,1/2-z
-x,1/2-y,1/2-z
x,1/2+y,1/2-z
-x,1/2+y,1/2+z
x,1/2-y,1/2+z
1/2+x,y,1/2+z
1/2-x,-y,1/2+z
1/2+x,-y,1/2-z
1/2-x,y,1/2-z
1/2-x,-y,1/2-z
1/2+x,y,1/2-z
1/2-x,y,1/2+z
1/2+x,-y,1/2+z
1/2+x,1/2+y,z
1/2-x,1/2-y,z
1/2+x,1/2-y,-z
1/2-x,1/2+y,-z
1/2-x,1/2-y,-z
1/2+x,1/2+y,-z
1/2-x,1/2+y,z
1/2+x,1/2-y,z
loop_
_atom_site_type_symbol
_atom_site_label
_atom_site_fract_x
_atom_site_fract_y
_atom_site_fract_z
Si Si1 0.088957 0.565771 0.208503
Si Si2 0.838072 0.245125 0.000000
Si Si3 0.915239 0.350372 0.386937
Si Si4 0.588391 0.128584 0.000000
O O1 0.122174 0.500000 0.219742
O O2 0.120438 0.606249 0.301707
O O3 0.115378 0.592337 0.099720
O O4 0.000000 0.563214 0.214601
O O5 0.750000 0.250000 0.000000
O O6 0.866479 0.209777 0.897262
O O7 0.872536 0.309103 0.000000
O O8 0.915077 0.382356 0.500000
O O9 0.000000 0.332817 0.355392
O O10 0.500000 0.138356 0.000000
#
# Coordination Sequence:
#
# PCOD8284290 Si02
#       4
#    32  16  32  16
#     4   9  17  30  52  80 104 130 165 206 251 301
#     4  10  20  35  52  72 100 135 171 212 253 302
#     4   8  16  32  52  77 102 126 164 209 253 296
#     4  10  19  32  52  76 105 134 164 206 252 302
#
# _framework density 18.287859999999998
#
# number of rings (size 3 to 8) (size 9 to 14) (size 15 to 20)
#    1.000    2.000    0.000    1.500    0.000    4.000 
#    0.000   11.667    0.000    6.000    0.000    0.000 
#    0.000    0.000    0.000    0.000    0.000    0.000 
#
# Total GULP energy -297379.071669 kJ/mol
# GULP energy per Si atom -12390.794653 kJ/mol
# Density = 1.824624 g / cm^3
# Si number density = 18.287860 Si / 1000 Ang^3
#
#
#
# Elastic Constant Matrix: (Units=GPa)
#
#
# Indices 1 2 3 4 5 6 
#
# 1 54.0443 51.3878 36.0917 0.0000 0.0000 0.0000
# 2 51.3878 164.4625 63.2569 0.0000 0.0000 0.0000
# 3 36.0917 63.2569 105.6963 0.0000 0.0000 0.0000
# 4 0.0000 0.0000 0.0000 29.4917 0.0000 0.0000
# 5 0.0000 0.0000 0.0000 0.0000 4.4260 0.0000
# 6 0.0000 0.0000 0.0000 0.0000 0.0000 -0.0982
#
#
#
# Elastic Compliance Matrix: (Units=1/GPa)
#
#
# Indices 1 2 3 4 5 6 
#
# 1 0.028809 -0.006778 -0.005781 0.000000 0.000000 0.000000
# 2 -0.006778 0.009493 -0.003367 0.000000 0.000000 0.000000
# 3 -0.005781 -0.003367 0.013450 0.000000 0.000000 0.000000
# 4 0.000000 0.000000 0.000000 0.033908 0.000000 0.000000
# 5 0.000000 0.000000 0.000000 0.000000 0.225938 0.000000
# 6 0.000000 0.000000 0.000000 0.000000 0.000000-10.183072
#
#
# Mechanical properties :
#
#
# Convention : Reuss Voigt Hill
#
# Bulk Modulus (GPa) = 50.25007 69.51956 59.88481
# Shear Modulus (GPa) = -0.50849 18.32835 8.90993
#
# Velocity S-wave (km/s) = -0.52788 3.16921 2.20967
# Velocity P-wave (km/s) = 5.21204 7.17554 6.27112
#
# Compressibility (1/GPa) = 0.01990047
#
# Stress axis : x y z
#
# Youngs Moduli (GPa) = 34.71171 105.33659 74.34909
#
# Poissons Ratio (x) = 0.71399 0.42978
# Poissons Ratio (y) = 0.23528 0.25034
# Poissons Ratio (z) = 0.20066 0.35467
#
# Static dielectric constant tensor:
#      x y z
#    x 2.597950 0.000000 0.000000 
#    y 0.000000 3.423200 0.000000 
#    z 0.000000 0.000000 3.510370 
# 
# 
# High freq. dielectric constant tensor:
#      x y z
#    x 1.656980 0.000000 0.000000 
#    y 0.000000 1.708950 0.000000 
#    z 0.000000 0.000000 1.709260 
# 
# From -- ./inp_files/9032.got.cif
#   From: 2010.03.12/outbox.cif.g09.slc.cpg/sg69_5_cif.got.tgz:9032.got - 2010.04.10 23:52:46.
