data_PCOD8284415
_publ_section_title
;
Structure prediction by ZEFSAII (Michael W. Deem and Ramdas Pophale) SiO2 
 PCOD8284415
Probable space group: F M M M
;
_chemical_formula_sum "Si O2"
_cell_formula_units_Z 160
_cell_length_a 19.273460
_cell_length_b 21.364077
_cell_length_c 18.220831
_cell_angle_alpha 90.000000
_cell_angle_beta 90.000000
_cell_angle_gamma 90.000000
_cell_volume 7502.603606
_symmetry_space_group_name_H-M "F M M M"
_symmetry_group_IT_number 69
_symmetry_cell_setting 'orthorhombic'
loop_
_space_group_symop_operation_xyz
x,y,z
-x,-y,z
x,-y,-z
-x,y,-z
-x,-y,-z
x,y,-z
-x,y,z
x,-y,z
x,1/2+y,1/2+z
-x,1/2-y,1/2+z
x,1/2-y,1/2-z
-x,1/2+y,1/2-z
-x,1/2-y,1/2-z
x,1/2+y,1/2-z
-x,1/2+y,1/2+z
x,1/2-y,1/2+z
1/2+x,y,1/2+z
1/2-x,-y,1/2+z
1/2+x,-y,1/2-z
1/2-x,y,1/2-z
1/2-x,-y,1/2-z
1/2+x,y,1/2-z
1/2-x,y,1/2+z
1/2+x,-y,1/2+z
1/2+x,1/2+y,z
1/2-x,1/2-y,z
1/2+x,1/2-y,-z
1/2-x,1/2+y,-z
1/2-x,1/2-y,-z
1/2+x,1/2+y,-z
1/2-x,1/2+y,z
1/2+x,1/2-y,z
loop_
_atom_site_type_symbol
_atom_site_label
_atom_site_fract_x
_atom_site_fract_y
_atom_site_fract_z
Si Si1 0.423523 0.888801 0.682028
Si Si2 0.076657 0.069041 0.660126
Si Si3 0.724558 0.069420 0.333021
Si Si4 0.421389 0.250849 0.334784
Si Si5 0.173880 0.152220 0.415821
O O1 0.500000 0.919509 0.665158
O O2 0.417220 0.883018 0.771228
O O3 0.358783 0.930143 0.656099
O O4 0.419904 0.821913 0.641996
O O5 0.122450 0.093458 0.593060
O O6 0.000000 0.065438 0.628572
O O7 0.101984 0.000000 0.685952
O O8 0.750000 0.079992 0.250000
O O9 0.754913 0.128190 0.378698
O O10 0.748677 0.000000 0.359800
O O11 0.500000 0.277949 0.348780
O O12 0.401693 0.250000 0.250000
O O13 0.361800 0.286967 0.379524
O O14 0.188499 0.167995 0.500000
#
# Coordination Sequence:
#
# PCOD8284415 Si02
#       5
#    32  32  32  32  32
#     4  10  20  37  64  93 119 157 221 286 325 364
#     4  10  19  33  57  90 127 167 206 248 311 388
#     4  11  22  39  63  92 129 175 222 269 322 385
#     4  10  19  37  64  91 126 175 223 264 312 378
#     4  12  25  39  59  93 135 174 209 257 332 405
#
# _framework density 21.325931000000001
#
# number of rings (size 3 to 8) (size 9 to 14) (size 15 to 20)
#    0.000    1.400    4.000    1.800    0.000    5.200 
#    0.000    5.000    0.000    1.800    0.000    1.400 
#    0.000    0.000    0.000    0.000    0.000    0.000 
#
# Total GULP energy -495553.581360 kJ/mol
# GULP energy per Si atom -12388.839534 kJ/mol
# Density = 2.127739 g / cm^3
# Si number density = 21.325931 Si / 1000 Ang^3
#
#
#
# Elastic Constant Matrix: (Units=GPa)
#
#
# Indices 1 2 3 4 5 6 
#
# 1 147.3514 35.0178 32.1092 0.0000 0.0000 0.0000
# 2 35.0178 87.9074 33.3383 0.0000 0.0000 0.0000
# 3 32.1092 33.3383 87.7064 0.0000 0.0000 0.0000
# 4 0.0000 0.0000 0.0000 18.0819 0.0000 0.0000
# 5 0.0000 0.0000 0.0000 0.0000 19.0142 0.0000
# 6 0.0000 0.0000 0.0000 0.0000 0.0000 32.6763
#
#
#
# Elastic Compliance Matrix: (Units=1/GPa)
#
#
# Indices 1 2 3 4 5 6 
#
# 1 0.007771 -0.002356 -0.001949 0.000000 0.000000 0.000000
# 2 -0.002356 0.014006 -0.004461 0.000000 0.000000 0.000000
# 3 -0.001949 -0.004461 0.013811 0.000000 0.000000 0.000000
# 4 0.000000 0.000000 0.000000 0.055304 0.000000 0.000000
# 5 0.000000 0.000000 0.000000 0.000000 0.052592 0.000000
# 6 0.000000 0.000000 0.000000 0.000000 0.000000 0.030603
#
#
# Mechanical properties :
#
#
# Convention : Reuss Voigt Hill
#
# Bulk Modulus (GPa) = 55.38767 58.21063 56.79915
# Shear Modulus (GPa) = 25.29849 28.78780 27.04315
#
# Velocity S-wave (km/s) = 3.44798 3.67808 3.56488
# Velocity P-wave (km/s) = 6.47146 6.73741 6.60577
#
# Compressibility (1/GPa) = 0.01805456
#
# Stress axis : x y z
#
# Youngs Moduli (GPa) = 128.67903 71.39712 72.40545
#
# Poissons Ratio (x) = 0.16824 0.14114
# Poissons Ratio (y) = 0.30322 0.32302
# Poissons Ratio (z) = 0.25084 0.31852
#
# Static dielectric constant tensor:
#      x y z
#    x 4.063180 0.000000 0.000000 
#    y 0.000000 4.011360 0.000000 
#    z 0.000000 0.000000 3.226830 
# 
# 
# High freq. dielectric constant tensor:
#      x y z
#    x 1.851820 0.000000 0.000000 
#    y 0.000000 1.846290 0.000000 
#    z 0.000000 0.000000 1.766460 
# 
# From -- ./inp_files/24566.got.cif
#   From: 2010.03.12/outbox.cif.g09.slc.cpg/sg69_13_cif.got.tgz:24566.got - 2010.04.10 23:52:46.
