data_PCOD8284720
_publ_section_title
;
Structure prediction by ZEFSAII (Michael W. Deem and Ramdas Pophale) SiO2 
 PCOD8284720
Probable space group: F M M M
;
_chemical_formula_sum "Si O2"
_cell_formula_units_Z 176
_cell_length_a 26.371535
_cell_length_b 25.179975
_cell_length_c 13.686302
_cell_angle_alpha 90.000000
_cell_angle_beta 90.000000
_cell_angle_gamma 90.000000
_cell_volume 9088.177965
_symmetry_space_group_name_H-M "F M M M"
_symmetry_group_IT_number 69
_symmetry_cell_setting 'orthorhombic'
loop_
_space_group_symop_operation_xyz
x,y,z
-x,-y,z
x,-y,-z
-x,y,-z
-x,-y,-z
x,y,-z
-x,y,z
x,-y,z
x,1/2+y,1/2+z
-x,1/2-y,1/2+z
x,1/2-y,1/2-z
-x,1/2+y,1/2-z
-x,1/2-y,1/2-z
x,1/2+y,1/2-z
-x,1/2+y,1/2+z
x,1/2-y,1/2+z
1/2+x,y,1/2+z
1/2-x,-y,1/2+z
1/2+x,-y,1/2-z
1/2-x,y,1/2-z
1/2-x,-y,1/2-z
1/2+x,y,1/2-z
1/2-x,y,1/2+z
1/2+x,-y,1/2+z
1/2+x,1/2+y,z
1/2-x,1/2-y,z
1/2+x,1/2-y,-z
1/2-x,1/2+y,-z
1/2-x,1/2-y,-z
1/2+x,1/2+y,-z
1/2-x,1/2+y,z
1/2+x,1/2-y,z
loop_
_atom_site_type_symbol
_atom_site_label
_atom_site_fract_x
_atom_site_fract_y
_atom_site_fract_z
Si Si1 0.251949 0.660299 0.610866
Si Si2 0.000000 0.063402 0.383820
Si Si3 0.186371 0.941153 0.610538
Si Si4 0.401664 0.114873 0.790945
Si Si5 0.139684 0.831905 0.885545
Si Si6 0.852718 0.288351 0.113604
O O1 0.242495 0.677677 0.500000
O O2 0.267377 0.599051 0.623505
O O3 0.196623 0.663339 0.659852
O O4 0.295615 0.699177 0.655631
O O5 0.046379 0.089257 0.325713
O O6 0.000000 0.077599 0.500000
O O7 0.000000 0.000000 0.370360
O O8 0.164714 0.937159 0.500000
O O9 0.141127 0.927932 0.683767
O O10 0.206954 0.000000 0.633274
O O11 0.398017 0.129093 0.674625
O O12 0.393488 0.170919 0.844480
O O13 0.126522 0.770301 0.864380
O O14 0.134892 0.846626 0.000000
O O15 0.848695 0.300277 0.000000
#
# Coordination Sequence:
#
# PCOD8284720 Si02
#       6
#    32  16  32  32  32  32
#     4   8  15  29  50  77 112 154 193 223 255 305
#     4  11  24  44  70  91 103 121 160 226 302 357
#     4   9  17  31  52  78 107 136 171 225 287 331
#     4  11  21  35  56  83 108 134 175 226 280 334
#     4  10  20  34  51  76 116 160 192 215 248 306
#     4   9  17  31  53  82 115 150 186 226 268 309
#
# _framework density 19.365818000000001
#
# number of rings (size 3 to 8) (size 9 to 14) (size 15 to 20)
#    0.000    2.455    0.000    4.364    0.000    6.545 
#    0.000    8.636    0.000    7.091    0.000    0.000 
#    0.000    0.000    0.000    0.000    0.000    0.000 
#
# Total GULP energy -545149.068862 kJ/mol
# GULP energy per Si atom -12389.751565 kJ/mol
# Density = 1.932174 g / cm^3
# Si number density = 19.365818 Si / 1000 Ang^3
#
#
#
# Elastic Constant Matrix: (Units=GPa)
#
#
# Indices 1 2 3 4 5 6 
#
# 1 86.4226 31.2572 42.6753 0.0000 0.0000 0.0000
# 2 31.2572 82.5777 52.6112 0.0000 0.0000 0.0000
# 3 42.6753 52.6112 99.5783 -0.0001 0.0000 0.0000
# 4 0.0000 0.0000 -0.0001 30.5835 0.0000 0.0000
# 5 0.0000 0.0000 0.0000 0.0000 45.1350 0.0000
# 6 0.0000 0.0000 0.0000 0.0000 0.0000 17.8108
#
#
#
# Elastic Compliance Matrix: (Units=1/GPa)
#
#
# Indices 1 2 3 4 5 6 
#
# 1 0.014982 -0.002382 -0.005162 0.000000 0.000000 0.000000
# 2 -0.002382 0.018633 -0.008824 0.000000 0.000000 0.000000
# 3 -0.005162 -0.008824 0.016917 0.000000 0.000000 0.000000
# 4 0.000000 0.000000 0.000000 0.032697 0.000000 0.000000
# 5 0.000000 0.000000 0.000000 0.000000 0.022156 0.000000
# 6 0.000000 0.000000 0.000000 0.000000 0.000000 0.056146
#
#
# Mechanical properties :
#
#
# Convention : Reuss Voigt Hill
#
# Bulk Modulus (GPa) = 56.19358 57.96292 57.07825
# Shear Modulus (GPa) = 24.97531 28.17486 26.57509
#
# Velocity S-wave (km/s) = 3.59508 3.81842 3.70843
# Velocity P-wave (km/s) = 6.80534 7.03107 6.91913
#
# Compressibility (1/GPa) = 0.01779563
#
# Stress axis : x y z
#
# Youngs Moduli (GPa) = 66.74877 53.66754 59.11374
#
# Poissons Ratio (x) = 0.12784 0.30514
# Poissons Ratio (y) = 0.15900 0.52161
# Poissons Ratio (z) = 0.34455 0.47355
#
# Static dielectric constant tensor:
#      x y z
#    x 3.252000 0.000000 0.000000 
#    y 0.000000 3.701790 0.000000 
#    z 0.000000 0.000000 3.653130 
# 
# 
# High freq. dielectric constant tensor:
#      x y z
#    x 1.709180 0.000000 0.000000 
#    y 0.000000 1.758410 0.000000 
#    z 0.000000 0.000000 1.756620 
# 
# From -- ./inp_files/18090.got.cif
#   From: 2010.03.12/outbox.cif.g09.slc.cpg/sg69_10_cif.got.tgz:18090.got - 2010.04.10 23:52:46.
