data_PCOD8284966
_publ_section_title
;
Structure prediction by ZEFSAII (Michael W. Deem and Ramdas Pophale) SiO2 
 PCOD8284966
Probable space group: F M M M
;
_chemical_formula_sum "Si O2"
_cell_formula_units_Z 144
_cell_length_a 18.059139
_cell_length_b 22.918611
_cell_length_c 17.265961
_cell_angle_alpha 90.000000
_cell_angle_beta 90.000000
_cell_angle_gamma 90.000000
_cell_volume 7146.215189
_symmetry_space_group_name_H-M "F M M M"
_symmetry_group_IT_number 69
_symmetry_cell_setting 'orthorhombic'
loop_
_space_group_symop_operation_xyz
x,y,z
-x,-y,z
x,-y,-z
-x,y,-z
-x,-y,-z
x,y,-z
-x,y,z
x,-y,z
x,1/2+y,1/2+z
-x,1/2-y,1/2+z
x,1/2-y,1/2-z
-x,1/2+y,1/2-z
-x,1/2-y,1/2-z
x,1/2+y,1/2-z
-x,1/2+y,1/2+z
x,1/2-y,1/2+z
1/2+x,y,1/2+z
1/2-x,-y,1/2+z
1/2+x,-y,1/2-z
1/2-x,y,1/2-z
1/2-x,-y,1/2-z
1/2+x,y,1/2-z
1/2-x,y,1/2+z
1/2+x,-y,1/2+z
1/2+x,1/2+y,z
1/2-x,1/2-y,z
1/2+x,1/2-y,-z
1/2-x,1/2+y,-z
1/2-x,1/2-y,-z
1/2+x,1/2+y,-z
1/2-x,1/2+y,z
1/2+x,1/2-y,z
loop_
_atom_site_type_symbol
_atom_site_label
_atom_site_fract_x
_atom_site_fract_y
_atom_site_fract_z
Si Si1 0.916115 0.062657 0.500000
Si Si2 0.855875 0.859589 0.368454
Si Si3 0.915679 0.240717 0.912761
Si Si4 0.723111 0.564059 0.163006
Si Si5 0.585651 0.631727 0.195353
O O1 0.902792 0.098704 0.577381
O O2 0.000000 0.045958 0.500000
O O3 0.872577 0.000000 0.500000
O O4 0.858384 0.793571 0.399534
O O5 0.772083 0.884365 0.374816
O O6 0.890837 0.859259 0.283553
O O7 0.898488 0.191006 0.850774
O O8 0.000000 0.263602 0.901358
O O9 0.905146 0.216275 0.000000
O O10 0.732363 0.500000 0.123013
O O11 0.750000 0.558073 0.250000
O O12 0.636590 0.581368 0.158043
O O13 0.500000 0.612767 0.188812
#
# Coordination Sequence:
#
# PCOD8284966 Si02
#       5
#    16  32  32  32  32
#     4  11  22  34  54  89 127 159 194 237 293 363
#     4  11  20  36  59  86 121 158 192 239 299 361
#     4  10  20  36  58  86 122 156 192 247 301 348
#     4   9  20  38  57  81 116 153 194 245 294 342
#     4  10  21  37  61  88 115 156 206 245 290 355
#
# _framework density 20.150528000000001
#
# number of rings (size 3 to 8) (size 9 to 14) (size 15 to 20)
#    0.000    1.889    1.111    3.333    0.000    4.000 
#    2.000    4.444    0.000    0.000    0.000    3.111 
#    0.000    0.000    0.000    0.000    0.000    0.000 
#
# Total GULP energy -446195.185619 kJ/mol
# GULP energy per Si atom -12394.310712 kJ/mol
# Density = 2.010466 g / cm^3
# Si number density = 20.150528 Si / 1000 Ang^3
#
#
#
# Elastic Constant Matrix: (Units=GPa)
#
#
# Indices 1 2 3 4 5 6 
#
# 1 126.5666 64.4223 32.7293 0.0000 0.0000 0.0000
# 2 64.4223 133.9619 58.0572 0.0000 0.0000 0.0000
# 3 32.7293 58.0572 113.3034 0.0000 0.0000 0.0000
# 4 0.0000 0.0000 0.0000 -216.2318 0.0000 0.0000
# 5 0.0000 0.0000 0.0000 0.0000 21.4293 0.0000
# 6 0.0000 0.0000 0.0000 0.0000 0.0000 -11.6529
#
#
#
# Elastic Compliance Matrix: (Units=1/GPa)
#
#
# Indices 1 2 3 4 5 6 
#
# 1 0.010491 -0.004797 -0.000572 0.000000 0.000000 0.000000
# 2 -0.004797 0.011789 -0.004655 0.000000 0.000000 0.000000
# 3 -0.000572 -0.004655 0.011377 0.000000 0.000000 0.000000
# 4 0.000000 0.000000 0.000000 -0.004625 0.000000 0.000000
# 5 0.000000 0.000000 0.000000 0.000000 0.046665 0.000000
# 6 0.000000 0.000000 0.000000 0.000000 0.000000 -0.085815
#
#
# Mechanical properties :
#
#
# Convention : Reuss Voigt Hill
#
# Bulk Modulus (GPa) = 73.48959 76.02772 74.75866
# Shear Modulus (GPa) = 345.64181 -26.71622 159.46280
#
# Velocity S-wave (km/s) = 13.11115 -3.64515 8.90548
# Velocity P-wave (km/s) = 16.30192 4.48282 11.95509
#
# Compressibility (1/GPa) = 0.01360737
#
# Stress axis : x y z
#
# Youngs Moduli (GPa) = 95.32345 84.82427 87.90022
#
# Poissons Ratio (x) = 0.40689 0.05032
# Poissons Ratio (y) = 0.45725 0.40919
# Poissons Ratio (z) = 0.05457 0.39487
#
# Static dielectric constant tensor:
#      x y z
#    x 3.739730 0.000000 0.000000 
#    y 0.000000 3.771150 0.000000 
#    z 0.000000 0.000000 3.726110 
# 
# 
# High freq. dielectric constant tensor:
#      x y z
#    x 1.779560 0.000000 0.000000 
#    y 0.000000 1.789400 0.000000 
#    z 0.000000 0.000000 1.780640 
# 
# From -- ./inp_files/22843.got.cif
#   From: 2010.03.12/outbox.cif.g09.slc.cpg/sg69_12_cif.got.tgz:22843.got - 2010.04.10 23:52:46.
