data_PCOD8284889
_publ_section_title
;
Structure prediction by ZEFSAII (Michael W. Deem and Ramdas Pophale) SiO2 
 PCOD8284889
Probable space group: F M M M
;
_chemical_formula_sum "Si O2"
_cell_formula_units_Z 192
_cell_length_a 27.904077
_cell_length_b 14.514517
_cell_length_c 23.951400
_cell_angle_alpha 90.000000
_cell_angle_beta 90.000000
_cell_angle_gamma 90.000000
_cell_volume 9700.657110
_symmetry_space_group_name_H-M "F M M M"
_symmetry_group_IT_number 69
_symmetry_cell_setting 'orthorhombic'
loop_
_space_group_symop_operation_xyz
x,y,z
-x,-y,z
x,-y,-z
-x,y,-z
-x,-y,-z
x,y,-z
-x,y,z
x,-y,z
x,1/2+y,1/2+z
-x,1/2-y,1/2+z
x,1/2-y,1/2-z
-x,1/2+y,1/2-z
-x,1/2-y,1/2-z
x,1/2+y,1/2-z
-x,1/2+y,1/2+z
x,1/2-y,1/2+z
1/2+x,y,1/2+z
1/2-x,-y,1/2+z
1/2+x,-y,1/2-z
1/2-x,y,1/2-z
1/2-x,-y,1/2-z
1/2+x,y,1/2-z
1/2-x,y,1/2+z
1/2+x,-y,1/2+z
1/2+x,1/2+y,z
1/2-x,1/2-y,z
1/2+x,1/2-y,-z
1/2-x,1/2+y,-z
1/2-x,1/2-y,-z
1/2+x,1/2+y,-z
1/2-x,1/2+y,z
1/2+x,1/2-y,z
loop_
_atom_site_type_symbol
_atom_site_label
_atom_site_fract_x
_atom_site_fract_y
_atom_site_fract_z
Si Si1 0.946138 0.160534 0.935912
Si Si2 0.189093 0.500000 0.165155
Si Si3 0.377847 0.500000 0.562943
Si Si4 0.053596 0.853991 0.609566
Si Si5 0.051302 0.143461 0.261331
Si Si6 0.198529 0.500000 0.661611
Si Si7 0.844310 0.361015 0.744790
Si Si8 0.625703 0.000000 0.564912
O O1 0.935170 0.246250 0.896158
O O2 0.000000 0.121902 0.925395
O O3 0.906748 0.086631 0.919384
O O4 0.940836 0.191342 0.000000
O O5 0.167029 0.500000 0.103870
O O6 0.245202 0.500000 0.154329
O O7 0.173348 0.407474 0.197760
O O8 0.358024 0.500000 0.500000
O O9 0.409812 0.590040 0.572042
O O10 0.058915 0.880627 0.673920
O O11 0.000000 0.875298 0.587953
O O12 0.045997 0.250000 0.250000
O O13 0.100082 0.109496 0.231899
O O14 0.000000 0.097921 0.241440
O O15 0.185332 0.594086 0.694425
O O16 0.173878 0.500000 0.601130
O O17 0.837557 0.250000 0.750000
O O18 0.640584 0.000000 0.500000
#
# Coordination Sequence:
#
# PCOD8284889 Si02
#       8
#    32  16  16  32  32  16  32  16
#     4   9  18  34  56  82 113 150 191 234 276 328
#     4  11  24  44  59  87 114 143 199 256 296 344
#     4  12  24  38  57  84 118 160 203 241 288 348
#     4  10  20  35  57  84 121 161 195 233 277 338
#     4   9  18  32  55  88 124 154 182 220 280 349
#     4  11  26  40  62  88 111 144 201 246 297 354
#     4  10  21  41  67  89 116 150 188 238 292 347
#     4  10  22  38  58  85 117 149 190 239 293 350
#
# _framework density 19.792473999999999
#
# number of rings (size 3 to 8) (size 9 to 14) (size 15 to 20)
#    0.000    2.000    1.667    2.000    4.667    4.000 
#    0.000    2.500    0.000    0.000    0.000    5.833 
#    0.000    0.000    0.000    0.000    0.000    0.000 
#
# Total GULP energy -594886.018041 kJ/mol
# GULP energy per Si atom -12393.458709 kJ/mol
# Density = 1.974743 g / cm^3
# Si number density = 19.792474 Si / 1000 Ang^3
#
#
#
# Elastic Constant Matrix: (Units=GPa)
#
#
# Indices 1 2 3 4 5 6 
#
# 1 174.4821 54.6313 52.3714 0.0000 0.0000 0.0000
# 2 54.6313 102.1655 34.4122 0.0000 0.0000 0.0000
# 3 52.3714 34.4122 89.6007 0.0000 0.0000 0.0000
# 4 0.0000 0.0000 0.0000 15.0629 0.0000 0.0000
# 5 0.0000 0.0000 0.0000 0.0000 41.1106 0.0000
# 6 0.0000 0.0000 0.0000 0.0000 0.0000 21.8116
#
#
#
# Elastic Compliance Matrix: (Units=1/GPa)
#
#
# Indices 1 2 3 4 5 6 
#
# 1 0.007664 -0.002974 -0.003337 0.000000 0.000000 0.000000
# 2 -0.002974 0.012397 -0.003023 0.000000 0.000000 0.000000
# 3 -0.003337 -0.003023 0.014272 0.000000 0.000000 0.000000
# 4 0.000000 0.000000 0.000000 0.066388 0.000000 0.000000
# 5 0.000000 0.000000 0.000000 0.000000 0.024325 0.000000
# 6 0.000000 0.000000 0.000000 0.000000 0.000000 0.045847
#
#
# Mechanical properties :
#
#
# Convention : Reuss Voigt Hill
#
# Bulk Modulus (GPa) = 63.83874 72.11980 67.97927
# Shear Modulus (GPa) = 25.66954 30.58590 28.12772
#
# Velocity S-wave (km/s) = 3.60520 3.93533 3.77388
# Velocity P-wave (km/s) = 7.04656 7.56083 7.30822
#
# Compressibility (1/GPa) = 0.01566447
#
# Stress axis : x y z
#
# Youngs Moduli (GPa) = 130.47639 80.66764 70.06603
#
# Poissons Ratio (x) = 0.23992 0.23384
# Poissons Ratio (y) = 0.38806 0.21179
# Poissons Ratio (z) = 0.43546 0.24383
#
# Static dielectric constant tensor:
#      x y z
#    x 3.772340 0.000000 0.000000 
#    y 0.000000 3.556720 0.000000 
#    z 0.000000 0.000000 3.513210 
# 
# 
# High freq. dielectric constant tensor:
#      x y z
#    x 1.767610 0.000000 0.000000 
#    y 0.000000 1.770190 0.000000 
#    z 0.000000 0.000000 1.760320 
# 
# From -- ./inp_files/38424.got.cif
#   From: 2010.03.12/outbox.cif.g09.slc.cpg/sg69_20_cif.got.tgz:38424.got - 2010.04.10 23:52:46.
