data_PCOD8284961
_publ_section_title
;
Structure prediction by ZEFSAII (Michael W. Deem and Ramdas Pophale) SiO2 
 PCOD8284961
Probable space group: F M M M
;
_chemical_formula_sum "Si O2"
_cell_formula_units_Z 112
_cell_length_a 18.545019
_cell_length_b 20.570871
_cell_length_c 14.608163
_cell_angle_alpha 90.000000
_cell_angle_beta 90.000000
_cell_angle_gamma 90.000000
_cell_volume 5572.827106
_symmetry_space_group_name_H-M "F M M M"
_symmetry_group_IT_number 69
_symmetry_cell_setting 'orthorhombic'
loop_
_space_group_symop_operation_xyz
x,y,z
-x,-y,z
x,-y,-z
-x,y,-z
-x,-y,-z
x,y,-z
-x,y,z
x,-y,z
x,1/2+y,1/2+z
-x,1/2-y,1/2+z
x,1/2-y,1/2-z
-x,1/2+y,1/2-z
-x,1/2-y,1/2-z
x,1/2+y,1/2-z
-x,1/2+y,1/2+z
x,1/2-y,1/2+z
1/2+x,y,1/2+z
1/2-x,-y,1/2+z
1/2+x,-y,1/2-z
1/2-x,y,1/2-z
1/2-x,-y,1/2-z
1/2+x,y,1/2-z
1/2-x,y,1/2+z
1/2+x,-y,1/2+z
1/2+x,1/2+y,z
1/2-x,1/2-y,z
1/2+x,1/2-y,-z
1/2-x,1/2+y,-z
1/2-x,1/2-y,-z
1/2+x,1/2+y,-z
1/2-x,1/2+y,z
1/2+x,1/2-y,z
loop_
_atom_site_type_symbol
_atom_site_label
_atom_site_fract_x
_atom_site_fract_y
_atom_site_fract_z
Si Si1 0.811151 0.571286 0.000000
Si Si2 0.581712 0.425574 0.828900
Si Si3 0.418940 0.260738 0.500000
Si Si4 0.838133 0.371212 0.500000
Si Si5 0.582021 0.874706 0.135450
O O1 0.861538 0.577058 0.911139
O O2 0.775297 0.500000 0.000000
O O3 0.748558 0.625517 0.000000
O O4 0.500000 0.416338 0.863786
O O5 0.595115 0.500000 0.797984
O O6 0.634564 0.407793 0.910320
O O7 0.596915 0.376854 0.744027
O O8 0.500000 0.231694 0.500000
O O9 0.361272 0.203534 0.500000
O O10 0.406838 0.303100 0.407935
O O11 0.500000 0.898164 0.115642
#
# Coordination Sequence:
#
# PCOD8284961 Si02
#       5
#    16  32  16  16  32
#     4  11  22  36  57  84 117 153 186 234 291 339
#     4  10  20  36  58  83 113 150 193 239 282 330
#     4   9  19  38  61  85 114 148 190 239 285 332
#     4  12  24  35  52  83 123 160 188 217 273 351
#     4   9  20  38  61  86 108 141 194 247 289 328
#
# _framework density 20.097518999999998
#
# number of rings (size 3 to 8) (size 9 to 14) (size 15 to 20)
#    0.000    2.000    0.000    4.714    0.000    8.000 
#    0.000    7.143    0.000    6.857    0.000    0.000 
#    0.000    0.000    0.000    0.000    0.000    0.000 
#
# Total GULP energy -347172.320100 kJ/mol
# GULP energy per Si atom -12399.011432 kJ/mol
# Density = 2.005178 g / cm^3
# Si number density = 20.097519 Si / 1000 Ang^3
#
#
#
# Elastic Constant Matrix: (Units=GPa)
#
#
# Indices 1 2 3 4 5 6 
#
# 1 119.2092 49.1017 62.5904 0.0000 0.0000 0.0000
# 2 49.1017 107.7211 39.2200 0.0000 0.0000 0.0000
# 3 62.5904 39.2200 134.5084 0.0000 0.0000 0.0000
# 4 0.0000 0.0000 0.0000 83.9052 0.0000 0.0000
# 5 0.0000 0.0000 0.0000 0.0000 -32.2730 0.0000
# 6 0.0000 0.0000 0.0000 0.0000 0.0000 31.7162
#
#
#
# Elastic Compliance Matrix: (Units=1/GPa)
#
#
# Indices 1 2 3 4 5 6 
#
# 1 0.012469 -0.003995 -0.004637 0.000000 0.000000 0.000000
# 2 -0.003995 0.011666 -0.001542 0.000000 0.000000 0.000000
# 3 -0.004637 -0.001542 0.010042 0.000000 0.000000 0.000000
# 4 0.000000 0.000000 0.000000 0.011918 0.000000 0.000000
# 5 0.000000 0.000000 0.000000 0.000000 -0.030986 0.000000
# 6 0.000000 0.000000 0.000000 0.000000 0.000000 0.031530
#
#
# Mechanical properties :
#
#
# Convention : Reuss Voigt Hill
#
# Bulk Modulus (GPa) = 72.32173 73.69588 73.00880
# Shear Modulus (GPa) = 69.83423 30.70481 50.26952
#
# Velocity S-wave (km/s) = 5.90111 3.91294 5.00671
# Velocity P-wave (km/s) = 9.08264 7.56066 8.35637
#
# Compressibility (1/GPa) = 0.01382710
#
# Stress axis : x y z
#
# Youngs Moduli (GPa) = 80.19878 85.71942 99.58132
#
# Poissons Ratio (x) = 0.34248 0.46178
# Poissons Ratio (y) = 0.32042 0.15360
# Poissons Ratio (z) = 0.37190 0.13222
#
# Static dielectric constant tensor:
#      x y z
#    x 3.575340 0.000000 0.000000 
#    y 0.000000 3.466660 0.000000 
#    z 0.000000 0.000000 3.695840 
# 
# 
# High freq. dielectric constant tensor:
#      x y z
#    x 1.779080 0.000000 0.000000 
#    y 0.000000 1.773360 0.000000 
#    z 0.000000 0.000000 1.786040 
# 
# From -- ./inp_files/14097.got.cif
#   From: 2010.03.12/outbox.cif.g09.slc.cpg/sg69_8_cif.got.tgz:14097.got - 2010.04.10 23:52:46.
