data_PCOD8284132
_publ_section_title
;
Structure prediction by ZEFSAII (Michael W. Deem and Ramdas Pophale) SiO2 
 PCOD8284132
Probable space group: F M M M
;
_chemical_formula_sum "Si O2"
_cell_formula_units_Z 208
_cell_length_a 27.085330
_cell_length_b 26.630367
_cell_length_c 17.565466
_cell_angle_alpha 90.000000
_cell_angle_beta 90.000000
_cell_angle_gamma 90.000000
_cell_volume 12669.834989
_symmetry_space_group_name_H-M "F M M M"
_symmetry_group_IT_number 69
_symmetry_cell_setting 'orthorhombic'
loop_
_space_group_symop_operation_xyz
x,y,z
-x,-y,z
x,-y,-z
-x,y,-z
-x,-y,-z
x,y,-z
-x,y,z
x,-y,z
x,1/2+y,1/2+z
-x,1/2-y,1/2+z
x,1/2-y,1/2-z
-x,1/2+y,1/2-z
-x,1/2-y,1/2-z
x,1/2+y,1/2-z
-x,1/2+y,1/2+z
x,1/2-y,1/2+z
1/2+x,y,1/2+z
1/2-x,-y,1/2+z
1/2+x,-y,1/2-z
1/2-x,y,1/2-z
1/2-x,-y,1/2-z
1/2+x,y,1/2-z
1/2-x,y,1/2+z
1/2+x,-y,1/2+z
1/2+x,1/2+y,z
1/2-x,1/2-y,z
1/2+x,1/2-y,-z
1/2-x,1/2+y,-z
1/2-x,1/2-y,-z
1/2+x,1/2+y,-z
1/2-x,1/2+y,z
1/2+x,1/2-y,z
loop_
_atom_site_type_symbol
_atom_site_label
_atom_site_fract_x
_atom_site_fract_y
_atom_site_fract_z
Si Si1 0.500000 0.559440 0.088411
Si Si2 0.443194 0.139193 0.915540
Si Si3 0.617549 0.057935 0.158530
Si Si4 0.058074 0.194046 0.264842
Si Si5 0.591914 0.098672 0.682986
Si Si6 0.772772 0.941425 0.326383
Si Si7 0.677474 0.058145 0.587080
O O1 0.500000 0.500000 0.096277
O O2 0.548272 0.581280 0.128230
O O3 0.500000 0.575755 0.000000
O O4 0.500000 0.124069 0.906072
O O5 0.412616 0.088268 0.904496
O O6 0.428725 0.180505 0.852283
O O7 0.432577 0.161135 0.000000
O O8 0.592683 0.064627 0.241348
O O9 0.673166 0.080949 0.157050
O O10 0.616144 0.000000 0.134704
O O11 0.077761 0.250000 0.250000
O O12 0.085414 0.156714 0.206592
O O13 0.000000 0.189888 0.248983
O O14 0.643475 0.093276 0.638838
O O15 0.750000 0.916871 0.250000
O O16 0.735097 0.931172 0.395596
O O17 0.781190 0.000000 0.311288
O O18 0.667179 0.071329 0.500000
O O19 0.664786 0.000000 0.604988
#
# Coordination Sequence:
#
# PCOD8284132 Si02
#       7
#    16  32  32  32  32  32  32
#     4  11  22  32  43  66 107 145 166 193 236 292
#     4   9  19  34  49  71 101 129 158 195 247 300
#     4  10  19  29  48  72  97 133 170 204 236 282
#     4   9  18  35  56  72  92 124 165 211 251 289
#     4  11  19  32  48  71  96 129 169 202 241 297
#     4   9  16  29  45  65  94 130 172 206 237 278
#     4  10  19  30  46  69 102 138 165 198 244 291
#
# _framework density 16.416945999999999
#
# number of rings (size 3 to 8) (size 9 to 14) (size 15 to 20)
#    0.000    2.231    2.308    1.846    1.077    2.462 
#    0.000    3.846    0.000    0.000    0.000    8.615 
#    0.000    6.154    0.000    0.000    0.000    0.000 
#
# Total GULP energy -644749.408059 kJ/mol
# GULP energy per Si atom -12399.027078 kJ/mol
# Density = 1.637958 g / cm^3
# Si number density = 16.416946 Si / 1000 Ang^3
#
#
#
# Elastic Constant Matrix: (Units=GPa)
#
#
# Indices 1 2 3 4 5 6 
#
# 1 76.5261 38.5856 42.4624 0.0000 0.0000 0.0000
# 2 38.5856 92.7090 47.7384 0.0000 0.0000 0.0000
# 3 42.4624 47.7384 106.3409 0.0000 0.0000 0.0000
# 4 0.0000 0.0000 0.0000 16.0134 0.0000 0.0000
# 5 0.0000 0.0000 0.0000 0.0000 28.0769 0.0000
# 6 0.0000 0.0000 0.0000 0.0000 0.0000 8.6080
#
#
#
# Elastic Compliance Matrix: (Units=1/GPa)
#
#
# Indices 1 2 3 4 5 6 
#
# 1 0.018442 -0.005051 -0.005096 0.000000 0.000000 0.000000
# 2 -0.005051 0.015413 -0.004902 0.000000 0.000000 0.000000
# 3 -0.005096 -0.004902 0.013639 0.000000 0.000000 0.000000
# 4 0.000000 0.000000 0.000000 0.062448 0.000000 0.000000
# 5 0.000000 0.000000 0.000000 0.000000 0.035617 0.000000
# 6 0.000000 0.000000 0.000000 0.000000 0.000000 0.116172
#
#
# Mechanical properties :
#
#
# Convention : Reuss Voigt Hill
#
# Bulk Modulus (GPa) = 57.48842 59.23875 58.36359
# Shear Modulus (GPa) = 16.79945 20.32563 18.56254
#
# Velocity S-wave (km/s) = 3.20237 3.52246 3.36623
# Velocity P-wave (km/s) = 6.98336 7.25988 7.12297
#
# Compressibility (1/GPa) = 0.01739481
#
# Stress axis : x y z
#
# Youngs Moduli (GPa) = 54.22314 64.87987 73.31694
#
# Poissons Ratio (x) = 0.32774 0.37365
# Poissons Ratio (y) = 0.27390 0.35941
# Poissons Ratio (z) = 0.27634 0.31805
#
# Static dielectric constant tensor:
#      x y z
#    x 3.214540 0.000000 0.000000 
#    y 0.000000 2.809660 0.000000 
#    z 0.000000 0.000000 3.214330 
# 
# 
# High freq. dielectric constant tensor:
#      x y z
#    x 1.635450 0.000000 0.000000 
#    y 0.000000 1.584680 0.000000 
#    z 0.000000 0.000000 1.640610 
# 
# From -- ./inp_files/27061.got.cif
#   From: 2010.03.12/outbox.cif.g09.slc.cpg/sg69_14_cif.got.tgz:27061.got - 2010.04.10 23:52:46.
