data_PCOD8284992
_publ_section_title
;
Structure prediction by ZEFSAII (Michael W. Deem and Ramdas Pophale) SiO2 
 PCOD8284992
Probable space group: F M M M
;
_chemical_formula_sum "Si O2"
_cell_formula_units_Z 144
_cell_length_a 14.488848
_cell_length_b 27.326987
_cell_length_c 17.887389
_cell_angle_alpha 90.000000
_cell_angle_beta 90.000000
_cell_angle_gamma 90.000000
_cell_volume 7082.271285
_symmetry_space_group_name_H-M "F M M M"
_symmetry_group_IT_number 69
_symmetry_cell_setting 'orthorhombic'
loop_
_space_group_symop_operation_xyz
x,y,z
-x,-y,z
x,-y,-z
-x,y,-z
-x,-y,-z
x,y,-z
-x,y,z
x,-y,z
x,1/2+y,1/2+z
-x,1/2-y,1/2+z
x,1/2-y,1/2-z
-x,1/2+y,1/2-z
-x,1/2-y,1/2-z
x,1/2+y,1/2-z
-x,1/2+y,1/2+z
x,1/2-y,1/2+z
1/2+x,y,1/2+z
1/2-x,-y,1/2+z
1/2+x,-y,1/2-z
1/2-x,y,1/2-z
1/2-x,-y,1/2-z
1/2+x,y,1/2-z
1/2-x,y,1/2+z
1/2+x,-y,1/2+z
1/2+x,1/2+y,z
1/2-x,1/2-y,z
1/2+x,1/2-y,-z
1/2-x,1/2+y,-z
1/2-x,1/2-y,-z
1/2+x,1/2+y,-z
1/2-x,1/2+y,z
1/2+x,1/2-y,z
loop_
_atom_site_type_symbol
_atom_site_label
_atom_site_fract_x
_atom_site_fract_y
_atom_site_fract_z
Si Si1 0.105875 0.443950 0.215466
Si Si2 0.000000 0.447808 0.414812
Si Si3 0.849175 0.882069 0.150439
Si Si4 0.000000 0.197393 0.646203
Si Si5 0.500000 0.194574 0.676478
Si Si6 0.850717 0.875577 0.411892
O O1 0.141139 0.500000 0.216795
O O2 0.166466 0.408731 0.269126
O O3 0.112235 0.423829 0.130859
O O4 0.000000 0.439881 0.243818
O O5 0.094460 0.420068 0.398908
O O6 0.000000 0.500000 0.370666
O O7 0.000000 0.460122 0.500000
O O8 0.906151 0.832326 0.154754
O O9 0.754860 0.867175 0.110706
O O10 0.000000 0.196251 0.734838
O O11 0.000000 0.255178 0.628938
O O12 0.909034 0.171985 0.612418
O O13 0.861373 0.884621 0.500000
#
# Coordination Sequence:
#
# PCOD8284992 Si02
#       6
#    32  16  32  16  16  32
#     4  11  22  40  67  95 127 170 220 265 309 370
#     4  10  20  36  59  90 131 167 200 255 319 371
#     4  11  21  40  65  98 123 164 212 267 314 377
#     4  11  23  44  65  94 122 165 207 264 316 377
#     4  10  22  42  72  93 118 153 216 269 320 373
#     4  12  25  42  63  93 136 174 210 259 321 385
#
# _framework density 20.332460000000001
#
# number of rings (size 3 to 8) (size 9 to 14) (size 15 to 20)
#    0.000    1.000    5.556    2.333    0.000    4.000 
#    0.000   11.111    0.000    0.000    0.000    0.000 
#    0.000    0.000    0.000    0.000    0.000    0.000 
#
# Total GULP energy -446314.193059 kJ/mol
# GULP energy per Si atom -12397.616474 kJ/mol
# Density = 2.028618 g / cm^3
# Si number density = 20.332460 Si / 1000 Ang^3
#
#
#
# Elastic Constant Matrix: (Units=GPa)
#
#
# Indices 1 2 3 4 5 6 
#
# 1 137.6686 63.3105 35.3045 0.0000 0.0000 0.0000
# 2 63.3105 169.3709 50.3464 0.0000 0.0000 0.0000
# 3 35.3045 50.3464 117.1276 0.0000 0.0000 0.0000
# 4 0.0000 0.0000 0.0000 24.3225 0.0000 0.0000
# 5 0.0000 0.0000 0.0000 0.0000 31.0457 0.0000
# 6 0.0000 0.0000 0.0000 0.0000 0.0000 12.3886
#
#
#
# Elastic Compliance Matrix: (Units=1/GPa)
#
#
# Indices 1 2 3 4 5 6 
#
# 1 0.008981 -0.002926 -0.001449 0.000000 0.000000 0.000000
# 2 -0.002926 0.007723 -0.002437 0.000000 0.000000 0.000000
# 3 -0.001449 -0.002437 0.010022 0.000000 0.000000 0.000000
# 4 0.000000 0.000000 0.000000 0.041114 0.000000 0.000000
# 5 0.000000 0.000000 0.000000 0.000000 0.032211 0.000000
# 6 0.000000 0.000000 0.000000 0.000000 0.000000 0.080719
#
#
# Mechanical properties :
#
#
# Convention : Reuss Voigt Hill
#
# Bulk Modulus (GPa) = 76.33594 80.23221 78.28407
# Shear Modulus (GPa) = 25.15562 31.89841 28.52701
#
# Velocity S-wave (km/s) = 3.52122 3.96516 3.74977
# Velocity P-wave (km/s) = 7.35917 7.77876 7.57187
#
# Compressibility (1/GPa) = 0.01309999
#
# Stress axis : x y z
#
# Youngs Moduli (GPa) = 111.34324 129.48974 99.77806
#
# Poissons Ratio (x) = 0.37894 0.14460
# Poissons Ratio (y) = 0.32583 0.24320
# Poissons Ratio (z) = 0.16136 0.31562
#
# Static dielectric constant tensor:
#      x y z
#    x 3.694740 0.000000 0.000000 
#    y 0.000000 3.976620 0.000000 
#    z 0.000000 0.000000 3.704850 
# 
# 
# High freq. dielectric constant tensor:
#      x y z
#    x 1.801590 0.000000 0.000000 
#    y 0.000000 1.792930 0.000000 
#    z 0.000000 0.000000 1.796430 
# 
# From -- ./inp_files/21787.got.cif
#   From: 2010.03.12/outbox.cif.g09.slc.cpg/sg69_11_cif.got.tgz:21787.got - 2010.04.10 23:52:46.
