data_PCOD8284120
_publ_section_title
;
Structure prediction by ZEFSAII (Michael W. Deem and Ramdas Pophale) SiO2 
 PCOD8284120
Probable space group: F M M M
;
_chemical_formula_sum "Si O2"
_cell_formula_units_Z 160
_cell_length_a 26.346098
_cell_length_b 23.208728
_cell_length_c 17.219778
_cell_angle_alpha 90.000000
_cell_angle_beta 90.000000
_cell_angle_gamma 90.000000
_cell_volume 10529.195509
_symmetry_space_group_name_H-M "F M M M"
_symmetry_group_IT_number 69
_symmetry_cell_setting 'orthorhombic'
loop_
_space_group_symop_operation_xyz
x,y,z
-x,-y,z
x,-y,-z
-x,y,-z
-x,-y,-z
x,y,-z
-x,y,z
x,-y,z
x,1/2+y,1/2+z
-x,1/2-y,1/2+z
x,1/2-y,1/2-z
-x,1/2+y,1/2-z
-x,1/2-y,1/2-z
x,1/2+y,1/2-z
-x,1/2+y,1/2+z
x,1/2-y,1/2+z
1/2+x,y,1/2+z
1/2-x,-y,1/2+z
1/2+x,-y,1/2-z
1/2-x,y,1/2-z
1/2-x,-y,1/2-z
1/2+x,y,1/2-z
1/2-x,y,1/2+z
1/2+x,-y,1/2+z
1/2+x,1/2+y,z
1/2-x,1/2-y,z
1/2+x,1/2-y,-z
1/2-x,1/2+y,-z
1/2-x,1/2-y,-z
1/2+x,1/2+y,-z
1/2-x,1/2+y,z
1/2+x,1/2-y,z
loop_
_atom_site_type_symbol
_atom_site_label
_atom_site_fract_x
_atom_site_fract_y
_atom_site_fract_z
Si Si1 0.753873 0.933277 0.411422
Si Si2 0.651768 0.629127 0.354554
Si Si3 0.942533 0.565168 0.091367
Si Si4 0.810539 0.251103 0.586635
Si Si5 0.700919 0.347129 0.201493
O O1 0.740687 0.917038 0.500000
O O2 0.812361 0.918217 0.394891
O O3 0.716887 0.898513 0.355185
O O4 0.745026 0.000000 0.394817
O O5 0.593812 0.611292 0.367541
O O6 0.664469 0.690641 0.391884
O O7 0.659622 0.629699 0.261939
O O8 0.930121 0.500000 0.118654
O O9 0.000000 0.581274 0.114587
O O10 0.934887 0.570035 0.000000
O O11 0.829126 0.268381 0.500000
O O12 0.750000 0.250000 0.587804
O O13 0.826557 0.297611 0.651263
O O14 0.750000 0.323867 0.250000
#
# Coordination Sequence:
#
# PCOD8284120 Si02
#       5
#    32  32  32  32  32
#     4  10  19  29  41  60  90 125 156 184 217 268
#     4  11  20  28  46  69  91 118 152 192 234 276
#     4   9  18  33  51  70  93 120 153 194 237 281
#     4  11  19  29  45  63  88 124 163 191 220 269
#     4  10  20  29  42  61  92 123 152 187 224 265
#
# _framework density 15.195843
#
# number of rings (size 3 to 8) (size 9 to 14) (size 15 to 20)
#    0.000    1.800    4.000    4.200    0.000    6.000 
#    0.000    0.000    0.000    2.400    0.000    0.000 
#    0.000    2.400    0.000   11.000    0.000    0.000 
#
# Total GULP energy -495956.659547 kJ/mol
# GULP energy per Si atom -12398.916489 kJ/mol
# Density = 1.516126 g / cm^3
# Si number density = 15.195843 Si / 1000 Ang^3
#
#
#
# Elastic Constant Matrix: (Units=GPa)
#
#
# Indices 1 2 3 4 5 6 
#
# 1 86.9132 49.7204 40.7923 0.0000 0.0000 0.0000
# 2 49.7204 83.1368 61.1205 0.0000 0.0000 0.0000
# 3 40.7923 61.1205 115.2837 0.0000 0.0000 0.0000
# 4 0.0000 0.0000 0.0000 15.8967 0.0000 0.0000
# 5 0.0000 0.0000 0.0000 0.0000 18.6834 0.0000
# 6 0.0000 0.0000 0.0000 0.0000 0.0000 24.5130
#
#
#
# Elastic Compliance Matrix: (Units=1/GPa)
#
#
# Indices 1 2 3 4 5 6 
#
# 1 0.017568 -0.009728 -0.001059 0.000000 0.000000 0.000000
# 2 -0.009728 0.025098 -0.009864 0.000000 0.000000 0.000000
# 3 -0.001059 -0.009864 0.014279 0.000000 0.000000 0.000000
# 4 0.000000 0.000000 0.000000 0.062906 0.000000 0.000000
# 5 0.000000 0.000000 0.000000 0.000000 0.053523 0.000000
# 6 0.000000 0.000000 0.000000 0.000000 0.000000 0.040795
#
#
# Mechanical properties :
#
#
# Convention : Reuss Voigt Hill
#
# Bulk Modulus (GPa) = 63.92790 65.40002 64.66396
# Shear Modulus (GPa) = 19.18019 20.73199 19.95609
#
# Velocity S-wave (km/s) = 3.55660 3.69768 3.62782
# Velocity P-wave (km/s) = 7.68287 7.83339 7.75849
#
# Compressibility (1/GPa) = 0.01564262
#
# Stress axis : x y z
#
# Youngs Moduli (GPa) = 56.92221 39.84308 70.03485
#
# Poissons Ratio (x) = 0.38761 0.07414
# Poissons Ratio (y) = 0.55376 0.69084
# Poissons Ratio (z) = 0.06025 0.39302
#
# Static dielectric constant tensor:
#      x y z
#    x 2.616960 0.000000 0.000000 
#    y 0.000000 3.109170 0.000000 
#    z 0.000000 0.000000 3.231020 
# 
# 
# High freq. dielectric constant tensor:
#      x y z
#    x 1.530180 0.000000 0.000000 
#    y 0.000000 1.588280 0.000000 
#    z 0.000000 0.000000 1.594250 
# 
# From -- ./inp_files/17739.got.cif
#   From: 2010.03.12/outbox.cif.g09.slc.cpg/sg69_9_cif.got.tgz:17739.got - 2010.04.10 23:52:46.
