data_PCOD8284784
_publ_section_title
;
Structure prediction by ZEFSAII (Michael W. Deem and Ramdas Pophale) SiO2 
 PCOD8284784
Probable space group: F M M M
;
_chemical_formula_sum "Si O2"
_cell_formula_units_Z 192
_cell_length_a 16.737478
_cell_length_b 29.161324
_cell_length_c 20.772537
_cell_angle_alpha 90.000000
_cell_angle_beta 90.000000
_cell_angle_gamma 90.000000
_cell_volume 10138.805659
_symmetry_space_group_name_H-M "F M M M"
_symmetry_group_IT_number 69
_symmetry_cell_setting 'orthorhombic'
loop_
_space_group_symop_operation_xyz
x,y,z
-x,-y,z
x,-y,-z
-x,y,-z
-x,-y,-z
x,y,-z
-x,y,z
x,-y,z
x,1/2+y,1/2+z
-x,1/2-y,1/2+z
x,1/2-y,1/2-z
-x,1/2+y,1/2-z
-x,1/2-y,1/2-z
x,1/2+y,1/2-z
-x,1/2+y,1/2+z
x,1/2-y,1/2+z
1/2+x,y,1/2+z
1/2-x,-y,1/2+z
1/2+x,-y,1/2-z
1/2-x,y,1/2-z
1/2-x,-y,1/2-z
1/2+x,y,1/2-z
1/2-x,y,1/2+z
1/2+x,-y,1/2+z
1/2+x,1/2+y,z
1/2-x,1/2-y,z
1/2+x,1/2-y,-z
1/2-x,1/2+y,-z
1/2-x,1/2-y,-z
1/2+x,1/2+y,-z
1/2-x,1/2+y,z
1/2+x,1/2-y,z
loop_
_atom_site_type_symbol
_atom_site_label
_atom_site_fract_x
_atom_site_fract_y
_atom_site_fract_z
Si Si1 0.094255 0.275916 0.429237
Si Si2 0.162260 0.727360 0.811895
Si Si3 0.794312 0.051972 0.927069
Si Si4 0.092526 0.635660 0.228722
Si Si5 0.187235 0.552211 0.193438
Si Si6 0.907417 0.371465 0.620888
O O1 0.125678 0.261835 0.500000
O O2 0.120249 0.237510 0.379067
O O3 0.129618 0.325668 0.411016
O O4 0.000000 0.279253 0.427798
O O5 0.117092 0.750000 0.750000
O O6 0.250000 0.750000 0.813933
O O7 0.154344 0.672604 0.802171
O O8 0.723135 0.061044 0.877178
O O9 0.867828 0.084442 0.910612
O O10 0.825641 0.000000 0.919262
O O11 0.763635 0.060923 0.000000
O O12 0.111811 0.585965 0.198973
O O13 0.109580 0.632759 0.304007
O O14 0.000000 0.648298 0.214096
O O15 0.156833 0.500000 0.200799
O O16 0.250000 0.563753 0.250000
O O17 0.000000 0.376482 0.605313
#
# Coordination Sequence:
#
# PCOD8284784 Si02
#       6
#    32  32  32  32  32  32
#     4  10  21  38  58  80 114 155 191 234 291 354
#     4  11  24  37  59  87 114 155 196 246 288 344
#     4  10  21  36  56  84 119 157 195 241 296 353
#     4  11  23  38  62  90 119 154 199 248 297 351
#     4  10  21  38  61  86 118 155 196 248 295 343
#     4  10  20  34  55  83 117 156 194 237 293 358
#
# _framework density 18.937142000000001
#
# number of rings (size 3 to 8) (size 9 to 14) (size 15 to 20)
#    0.000    1.667    3.333    1.000    4.667    2.667 
#    0.000    3.333    0.000    1.500    0.000    2.333 
#    0.000    0.000    0.000    0.000    0.000    0.000 
#
# Total GULP energy -595077.050293 kJ/mol
# GULP energy per Si atom -12397.438548 kJ/mol
# Density = 1.889404 g / cm^3
# Si number density = 18.937142 Si / 1000 Ang^3
#
#
#
# Elastic Constant Matrix: (Units=GPa)
#
#
# Indices 1 2 3 4 5 6 
#
# 1 48.2218 39.0524 39.3066 0.0000 0.0000 0.0000
# 2 39.0524 106.6639 54.6788 0.0000 0.0000 0.0000
# 3 39.3066 54.6788 155.2969 0.0000 0.0000 0.0000
# 4 0.0000 0.0000 0.0000 30.5252 0.0000 0.0000
# 5 0.0000 0.0000 0.0000 0.0000 24.5906 0.0000
# 6 0.0000 0.0000 0.0000 0.0000 0.0000 28.7654
#
#
#
# Elastic Compliance Matrix: (Units=1/GPa)
#
#
# Indices 1 2 3 4 5 6 
#
# 1 0.032257 -0.009304 -0.004889 0.000000 0.000000 0.000000
# 2 -0.009304 0.014124 -0.002618 0.000000 0.000000 0.000000
# 3 -0.004889 -0.002618 0.008598 0.000000 0.000000 0.000000
# 4 0.000000 0.000000 0.000000 0.032760 0.000000 0.000000
# 5 0.000000 0.000000 0.000000 0.000000 0.040666 0.000000
# 6 0.000000 0.000000 0.000000 0.000000 0.000000 0.034764
#
#
# Mechanical properties :
#
#
# Convention : Reuss Voigt Hill
#
# Bulk Modulus (GPa) = 46.82084 64.02870 55.42477
# Shear Modulus (GPa) = 24.52061 28.58588 26.55325
#
# Velocity S-wave (km/s) = 3.60230 3.88946 3.74863
# Velocity P-wave (km/s) = 6.48691 7.35222 6.93308
#
# Compressibility (1/GPa) = 0.02135801
#
# Stress axis : x y z
#
# Youngs Moduli (GPa) = 31.00072 70.80258 116.30136
#
# Poissons Ratio (x) = 0.65876 0.56855
# Poissons Ratio (y) = 0.28844 0.30447
# Poissons Ratio (z) = 0.15155 0.18536
#
# Static dielectric constant tensor:
#      x y z
#    x 3.187100 0.000000 0.000000 
#    y 0.000000 3.560480 0.000000 
#    z 0.000000 0.000000 3.875280 
# 
# 
# High freq. dielectric constant tensor:
#      x y z
#    x 1.704530 0.000000 0.000000 
#    y 0.000000 1.743730 0.000000 
#    z 0.000000 0.000000 1.746710 
# 
# From -- ./inp_files/32029.got.cif
#   From: 2010.03.12/outbox.cif.g09.slc.cpg/sg69_17_cif.got.tgz:32029.got - 2010.04.10 23:52:46.
