data_PCOD8284140
_publ_section_title
;
Structure prediction by ZEFSAII (Michael W. Deem and Ramdas Pophale) SiO2 
 PCOD8284140
Probable space group: F M M M
;
_chemical_formula_sum "Si O2"
_cell_formula_units_Z 160
_cell_length_a 14.695785
_cell_length_b 23.254983
_cell_length_c 27.309817
_cell_angle_alpha 90.000000
_cell_angle_beta 90.000000
_cell_angle_gamma 90.000000
_cell_volume 9333.136250
_symmetry_space_group_name_H-M "F M M M"
_symmetry_group_IT_number 69
_symmetry_cell_setting 'orthorhombic'
loop_
_space_group_symop_operation_xyz
x,y,z
-x,-y,z
x,-y,-z
-x,y,-z
-x,-y,-z
x,y,-z
-x,y,z
x,-y,z
x,1/2+y,1/2+z
-x,1/2-y,1/2+z
x,1/2-y,1/2-z
-x,1/2+y,1/2-z
-x,1/2-y,1/2-z
x,1/2+y,1/2-z
-x,1/2+y,1/2+z
x,1/2-y,1/2+z
1/2+x,y,1/2+z
1/2-x,-y,1/2+z
1/2+x,-y,1/2-z
1/2-x,y,1/2-z
1/2-x,-y,1/2-z
1/2+x,y,1/2-z
1/2-x,y,1/2+z
1/2+x,-y,1/2+z
1/2+x,1/2+y,z
1/2-x,1/2-y,z
1/2+x,1/2-y,-z
1/2-x,1/2+y,-z
1/2-x,1/2-y,-z
1/2+x,1/2+y,-z
1/2-x,1/2+y,z
1/2+x,1/2-y,z
loop_
_atom_site_type_symbol
_atom_site_label
_atom_site_fract_x
_atom_site_fract_y
_atom_site_fract_z
Si Si1 0.398473 0.931692 0.554728
Si Si2 0.356915 0.756189 0.695558
Si Si3 0.601413 0.864575 0.176336
Si Si4 0.897135 0.379773 0.710220
Si Si5 0.233577 0.933392 0.861035
O O1 0.373086 0.910489 0.500000
O O2 0.500000 0.909306 0.568962
O O3 0.322878 0.908636 0.592545
O O4 0.399355 0.000000 0.556751
O O5 0.396990 0.750000 0.750000
O O6 0.250000 0.750000 0.694179
O O7 0.397904 0.703846 0.663354
O O8 0.386290 0.820146 0.679091
O O9 0.500000 0.888868 0.166652
O O10 0.630880 0.872078 0.233075
O O11 0.672196 0.898496 0.142430
O O12 0.828973 0.426184 0.687123
O O13 0.000000 0.402633 0.705527
O O14 0.258766 0.000000 0.867047
#
# Coordination Sequence:
#
# PCOD8284140 Si02
#       5
#    32  32  32  32  32
#     4   8  15  30  51  71  89 111 145 194 245 281
#     4   9  15  28  48  65  85 117 160 205 238 258
#     4  10  20  32  45  64  94 131 165 192 220 261
#     4  10  19  30  46  68  93 123 159 198 235 268
#     4  11  21  31  45  67  96 126 155 186 227 282
#
# _framework density 17.143218999999998
#
# number of rings (size 3 to 8) (size 9 to 14) (size 15 to 20)
#    0.000    2.400    2.000    2.400    0.000    5.600 
#    0.000    2.000    0.000    0.600    0.000    5.600 
#    0.000    3.200    0.000    0.000    0.000    0.000 
#
# Total GULP energy -495731.566261 kJ/mol
# GULP energy per Si atom -12393.289157 kJ/mol
# Density = 1.710420 g / cm^3
# Si number density = 17.143219 Si / 1000 Ang^3
#
#
#
# Elastic Constant Matrix: (Units=GPa)
#
#
# Indices 1 2 3 4 5 6 
#
# 1 118.6534 30.4661 47.8538 0.0000 0.0000 0.0000
# 2 30.4661 57.1552 21.8029 0.0000 0.0000 0.0000
# 3 47.8538 21.8029 65.6580 0.0000 0.0000 0.0000
# 4 0.0000 0.0000 0.0000 8.0939 0.0000 0.0000
# 5 0.0000 0.0000 0.0000 0.0000 19.6326 0.0000
# 6 0.0000 0.0000 0.0000 0.0000 0.0000 23.1359
#
#
#
# Elastic Compliance Matrix: (Units=1/GPa)
#
#
# Indices 1 2 3 4 5 6 
#
# 1 0.012575 -0.003672 -0.007946 0.000000 0.000000 0.000000
# 2 -0.003672 0.021106 -0.004332 0.000000 0.000000 0.000000
# 3 -0.007946 -0.004332 0.022460 0.000000 0.000000 0.000000
# 4 0.000000 0.000000 0.000000 0.123550 0.000000 0.000000
# 5 0.000000 0.000000 0.000000 0.000000 0.050936 0.000000
# 6 0.000000 0.000000 0.000000 0.000000 0.000000 0.043223
#
#
# Mechanical properties :
#
#
# Convention : Reuss Voigt Hill
#
# Bulk Modulus (GPa) = 41.25218 49.07915 45.16567
# Shear Modulus (GPa) = 15.93210 19.59540 17.76375
#
# Velocity S-wave (km/s) = 3.05184 3.38456 3.22249
# Velocity P-wave (km/s) = 6.04432 6.63059 6.34423
#
# Compressibility (1/GPa) = 0.02424114
#
# Stress axis : x y z
#
# Youngs Moduli (GPa) = 79.51988 47.37932 44.52273
#
# Poissons Ratio (x) = 0.17398 0.35378
# Poissons Ratio (y) = 0.29200 0.19289
# Poissons Ratio (z) = 0.63187 0.20527
#
# Static dielectric constant tensor:
#      x y z
#    x 3.260010 0.000000 0.000000 
#    y 0.000000 3.130590 0.000000 
#    z 0.000000 0.000000 2.975410 
# 
# 
# High freq. dielectric constant tensor:
#      x y z
#    x 1.673850 0.000000 0.000000 
#    y 0.000000 1.644900 0.000000 
#    z 0.000000 0.000000 1.603200 
# 
# From -- ./inp_files/18002.got.cif
#   From: 2010.03.12/outbox.cif.g09.slc.cpg/sg69_10_cif.got.tgz:18002.got - 2010.04.10 23:52:46.
