data_PCOD8284428
_publ_section_title
;
Structure prediction by ZEFSAII (Michael W. Deem and Ramdas Pophale) SiO2 
 PCOD8284428
Probable space group: F M M M
;
_chemical_formula_sum "Si O2"
_cell_formula_units_Z 96
_cell_length_a 18.212155
_cell_length_b 15.500705
_cell_length_c 19.032930
_cell_angle_alpha 90.000000
_cell_angle_beta 90.000000
_cell_angle_gamma 90.000000
_cell_volume 5373.019779
_symmetry_space_group_name_H-M "F M M M"
_symmetry_group_IT_number 69
_symmetry_cell_setting 'orthorhombic'
loop_
_space_group_symop_operation_xyz
x,y,z
-x,-y,z
x,-y,-z
-x,y,-z
-x,-y,-z
x,y,-z
-x,y,z
x,-y,z
x,1/2+y,1/2+z
-x,1/2-y,1/2+z
x,1/2-y,1/2-z
-x,1/2+y,1/2-z
-x,1/2-y,1/2-z
x,1/2+y,1/2-z
-x,1/2+y,1/2+z
x,1/2-y,1/2+z
1/2+x,y,1/2+z
1/2-x,-y,1/2+z
1/2+x,-y,1/2-z
1/2-x,y,1/2-z
1/2-x,-y,1/2-z
1/2+x,y,1/2-z
1/2-x,y,1/2+z
1/2+x,-y,1/2+z
1/2+x,1/2+y,z
1/2-x,1/2-y,z
1/2+x,1/2-y,-z
1/2-x,1/2+y,-z
1/2-x,1/2-y,-z
1/2+x,1/2+y,-z
1/2-x,1/2+y,z
1/2+x,1/2-y,z
loop_
_atom_site_type_symbol
_atom_site_label
_atom_site_fract_x
_atom_site_fract_y
_atom_site_fract_z
Si Si1 0.086014 0.165928 0.792096
Si Si2 0.697336 0.000000 0.921137
Si Si3 0.162416 0.095842 0.078600
Si Si4 0.914646 0.500000 0.797735
O O1 0.112002 0.250000 0.750000
O O2 0.128696 0.162710 0.865985
O O3 0.000000 0.169234 0.808680
O O4 0.107914 0.083184 0.746674
O O5 0.749404 0.915383 0.909982
O O6 0.628924 0.000000 0.869957
O O7 0.665367 0.000000 0.000000
O O8 0.125724 0.000000 0.086768
O O9 0.146846 0.131409 0.000000
O O10 0.000000 0.500000 0.817291
#
# Coordination Sequence:
#
# PCOD8284428 Si02
#       4
#    32  16  32  16
#     4  10  20  33  50  78 111 139 174 217 259 314
#     4   8  17  34  54  76 102 132 175 228 264 308
#     4   8  16  32  55  77 102 135 170 218 273 306
#     4  10  19  34  54  72 102 144 175 212 268 322
#
# _framework density 17.867049000000002
#
# number of rings (size 3 to 8) (size 9 to 14) (size 15 to 20)
#    1.000    2.000    1.667    0.000    0.000    3.667 
#    0.000    6.667    0.000   10.000    0.000    0.000 
#    0.000    0.000    0.000    0.000    0.000    0.000 
#
# Total GULP energy -297415.044084 kJ/mol
# GULP energy per Si atom -12392.293504 kJ/mol
# Density = 1.782638 g / cm^3
# Si number density = 17.867049 Si / 1000 Ang^3
#
#
#
# Elastic Constant Matrix: (Units=GPa)
#
#
# Indices 1 2 3 4 5 6 
#
# 1 53.4006 28.6786 71.0626 0.0000 0.0000 0.0000
# 2 28.6786 98.6529 63.2237 0.0000 0.0000 0.0000
# 3 71.0626 63.2237 174.2627 0.0000 0.0000 0.0000
# 4 0.0000 0.0000 0.0000 31.8539 0.0000 0.0000
# 5 0.0000 0.0000 0.0000 0.0000 32.5935 0.0000
# 6 0.0000 0.0000 0.0000 0.0000 0.0000 10.8755
#
#
#
# Elastic Compliance Matrix: (Units=1/GPa)
#
#
# Indices 1 2 3 4 5 6 
#
# 1 0.041133 -0.001574 -0.016203 0.000000 0.000000 0.000000
# 2 -0.001574 0.013268 -0.004172 0.000000 0.000000 0.000000
# 3 -0.016203 -0.004172 0.013859 0.000000 0.000000 0.000000
# 4 0.000000 0.000000 0.000000 0.031393 0.000000 0.000000
# 5 0.000000 0.000000 0.000000 0.000000 0.030681 0.000000
# 6 0.000000 0.000000 0.000000 0.000000 0.000000 0.091950
#
#
# Mechanical properties :
#
#
# Convention : Reuss Voigt Hill
#
# Bulk Modulus (GPa) = 41.04467 72.47177 56.75822
# Shear Modulus (GPa) = 18.22802 25.95465 22.09134
#
# Velocity S-wave (km/s) = 3.19753 3.81551 3.52010
# Velocity P-wave (km/s) = 6.05429 7.74987 6.95395
#
# Compressibility (1/GPa) = 0.02436370
#
# Stress axis : x y z
#
# Youngs Moduli (GPa) = 24.31116 75.37138 72.15313
#
# Poissons Ratio (x) = 0.11861 1.16909
# Poissons Ratio (y) = 0.03826 0.30101
# Poissons Ratio (z) = 0.39391 0.31444
#
# Static dielectric constant tensor:
#      x y z
#    x 3.007640 0.000000 0.000000 
#    y 0.000000 3.091690 0.000000 
#    z 0.000000 0.000000 3.205740 
# 
# 
# High freq. dielectric constant tensor:
#      x y z
#    x 1.671080 0.000000 0.000000 
#    y 0.000000 1.661430 0.000000 
#    z 0.000000 0.000000 1.700500 
# 
# From -- ./inp_files/22212.got.cif
#   From: 2010.03.12/outbox.cif.g09.slc.cpg/sg69_12_cif.got.tgz:22212.got - 2010.04.10 23:52:46.
