data_PCOD8284827
_publ_section_title
;
Structure prediction by ZEFSAII (Michael W. Deem and Ramdas Pophale) SiO2 
 PCOD8284827
Probable space group: F M M M
;
_chemical_formula_sum "Si O2"
_cell_formula_units_Z 160
_cell_length_a 9.526538
_cell_length_b 28.924895
_cell_length_c 32.464150
_cell_angle_alpha 90.000000
_cell_angle_beta 90.000000
_cell_angle_gamma 90.000000
_cell_volume 8945.630004
_symmetry_space_group_name_H-M "F M M M"
_symmetry_group_IT_number 69
_symmetry_cell_setting 'orthorhombic'
loop_
_space_group_symop_operation_xyz
x,y,z
-x,-y,z
x,-y,-z
-x,y,-z
-x,-y,-z
x,y,-z
-x,y,z
x,-y,z
x,1/2+y,1/2+z
-x,1/2-y,1/2+z
x,1/2-y,1/2-z
-x,1/2+y,1/2-z
-x,1/2-y,1/2-z
x,1/2+y,1/2-z
-x,1/2+y,1/2+z
x,1/2-y,1/2+z
1/2+x,y,1/2+z
1/2-x,-y,1/2+z
1/2+x,-y,1/2-z
1/2-x,y,1/2-z
1/2-x,-y,1/2-z
1/2+x,y,1/2-z
1/2-x,y,1/2+z
1/2+x,-y,1/2+z
1/2+x,1/2+y,z
1/2-x,1/2-y,z
1/2+x,1/2-y,-z
1/2-x,1/2+y,-z
1/2-x,1/2-y,-z
1/2+x,1/2+y,-z
1/2-x,1/2+y,z
1/2+x,1/2-y,z
loop_
_atom_site_type_symbol
_atom_site_label
_atom_site_fract_x
_atom_site_fract_y
_atom_site_fract_z
Si Si1 0.842558 0.550097 0.423911
Si Si2 0.166439 0.067686 0.500000
Si Si3 0.840351 0.052281 0.710630
Si Si4 0.159071 0.388659 0.131321
Si Si5 0.337754 0.206865 0.089056
Si Si6 0.165197 0.326442 0.000000
O O1 0.848518 0.500000 0.401803
O O2 0.736267 0.543786 0.461275
O O3 0.781240 0.587772 0.393884
O O4 0.000000 0.565046 0.437657
O O5 0.211232 0.120822 0.500000
O O6 0.000000 0.059492 0.500000
O O7 0.750000 0.065782 0.750000
O O8 0.816870 0.093446 0.677666
O O9 0.000000 0.052461 0.725300
O O10 0.802117 0.000000 0.694239
O O11 0.180005 0.334118 0.122797
O O12 0.000000 0.402407 0.116889
O O13 0.500000 0.220842 0.085654
O O14 0.250000 0.250000 0.106372
O O15 0.277849 0.195222 0.042914
O O16 0.000000 0.322634 0.000000
#
# Coordination Sequence:
#
# PCOD8284827 Si02
#       6
#    32  16  32  32  32  16
#     4  11  23  35  48  73 108 140 174 220 269 312
#     4  11  20  35  54  70  96 140 186 222 259 311
#     4   9  18  33  55  83 111 139 172 210 256 311
#     4  10  20  36  57  78 104 139 180 219 257 317
#     4  10  20  35  54  77 104 134 175 225 271 315
#     4   9  17  33  53  73  98 131 175 223 265 305
#
# _framework density 17.885829000000001
#
# number of rings (size 3 to 8) (size 9 to 14) (size 15 to 20)
#    0.000    2.000    2.000    2.100    0.000    5.200 
#    0.000    2.000    0.000    0.600    0.000    4.200 
#    0.000    0.000    0.000    0.000    0.000    0.000 
#
# Total GULP energy -495596.128371 kJ/mol
# GULP energy per Si atom -12389.903209 kJ/mol
# Density = 1.784512 g / cm^3
# Si number density = 17.885829 Si / 1000 Ang^3
#
#
#
# Elastic Constant Matrix: (Units=GPa)
#
#
# Indices 1 2 3 4 5 6 
#
# 1 103.0031 54.2120 45.9155 0.0000 0.0000 0.0000
# 2 54.2120 121.6913 50.9649 0.0000 0.0000 0.0000
# 3 45.9155 50.9649 93.0067 0.0000 0.0000 0.0000
# 4 0.0000 0.0000 0.0000 16.3391 0.0000 0.0000
# 5 0.0000 0.0000 0.0000 0.0000 14.8476 0.0000
# 6 0.0000 0.0000 0.0000 0.0000 0.0000 28.7638
#
#
#
# Elastic Compliance Matrix: (Units=1/GPa)
#
#
# Indices 1 2 3 4 5 6 
#
# 1 0.014019 -0.004343 -0.004541 0.000000 0.000000 0.000000
# 2 -0.004343 0.012011 -0.004437 0.000000 0.000000 0.000000
# 3 -0.004541 -0.004437 0.015425 0.000000 0.000000 0.000000
# 4 0.000000 0.000000 0.000000 0.061203 0.000000 0.000000
# 5 0.000000 0.000000 0.000000 0.000000 0.067351 0.000000
# 6 0.000000 0.000000 0.000000 0.000000 0.000000 0.034766
#
#
# Mechanical properties :
#
#
# Convention : Reuss Voigt Hill
#
# Bulk Modulus (GPa) = 67.51422 68.87622 68.19522
# Shear Modulus (GPa) = 21.15469 23.09734 22.12602
#
# Velocity S-wave (km/s) = 3.44286 3.59747 3.52102
# Velocity P-wave (km/s) = 7.32350 7.47316 7.39871
#
# Compressibility (1/GPa) = 0.01481169
#
# Stress axis : x y z
#
# Youngs Moduli (GPa) = 71.33420 83.25807 64.82977
#
# Poissons Ratio (x) = 0.36163 0.29436
# Poissons Ratio (y) = 0.30984 0.28767
# Poissons Ratio (z) = 0.32390 0.36944
#
# Static dielectric constant tensor:
#      x y z
#    x 3.304440 0.000000 0.000000 
#    y 0.000000 3.311170 0.000000 
#    z 0.000000 0.000000 3.343390 
# 
# 
# High freq. dielectric constant tensor:
#      x y z
#    x 1.694250 0.000000 0.000000 
#    y 0.000000 1.688920 0.000000 
#    z 0.000000 0.000000 1.663980 
# 
# From -- ./inp_files/44596.got.cif
#   From: 2010.03.12/outbox.cif.g09.slc.cpg/sg69_23_cif.got.tgz:44596.got - 2010.04.10 23:52:46.
