data_PCOD8284246
_publ_section_title
;
Structure prediction by ZEFSAII (Michael W. Deem and Ramdas Pophale) SiO2 
 PCOD8284246
Probable space group: F M M M
;
_chemical_formula_sum "Si O2"
_cell_formula_units_Z 176
_cell_length_a 22.641509
_cell_length_b 32.681823
_cell_length_c 14.432845
_cell_angle_alpha 90.000000
_cell_angle_beta 90.000000
_cell_angle_gamma 90.000000
_cell_volume 10679.811546
_symmetry_space_group_name_H-M "F M M M"
_symmetry_group_IT_number 69
_symmetry_cell_setting 'orthorhombic'
loop_
_space_group_symop_operation_xyz
x,y,z
-x,-y,z
x,-y,-z
-x,y,-z
-x,-y,-z
x,y,-z
-x,y,z
x,-y,z
x,1/2+y,1/2+z
-x,1/2-y,1/2+z
x,1/2-y,1/2-z
-x,1/2+y,1/2-z
-x,1/2-y,1/2-z
x,1/2+y,1/2-z
-x,1/2+y,1/2+z
x,1/2-y,1/2+z
1/2+x,y,1/2+z
1/2-x,-y,1/2+z
1/2+x,-y,1/2-z
1/2-x,y,1/2-z
1/2-x,-y,1/2-z
1/2+x,y,1/2-z
1/2-x,y,1/2+z
1/2+x,-y,1/2+z
1/2+x,1/2+y,z
1/2-x,1/2-y,z
1/2+x,1/2-y,-z
1/2-x,1/2+y,-z
1/2-x,1/2-y,-z
1/2+x,1/2+y,-z
1/2-x,1/2+y,z
1/2+x,1/2-y,z
loop_
_atom_site_type_symbol
_atom_site_label
_atom_site_fract_x
_atom_site_fract_y
_atom_site_fract_z
Si Si1 0.934788 0.263016 0.895670
Si Si2 0.432541 0.500000 0.608955
Si Si3 0.137585 0.316883 0.398440
Si Si4 0.622847 0.664990 0.700096
Si Si5 0.232387 0.705418 0.104097
Si Si6 0.931866 0.088307 0.609909
O O1 0.884036 0.229535 0.879519
O O2 0.925459 0.301420 0.828477
O O3 0.000000 0.244481 0.875365
O O4 0.931467 0.279938 0.000000
O O5 0.500000 0.500000 0.638578
O O6 0.426125 0.500000 0.500000
O O7 0.406810 0.543625 0.645060
O O8 0.112634 0.331546 0.500000
O O9 0.116592 0.343419 0.310664
O O10 0.207946 0.320542 0.401241
O O11 0.687256 0.682382 0.672177
O O12 0.611123 0.621864 0.652605
O O13 0.250000 0.750000 0.143491
O O14 0.204642 0.709485 0.000000
O O15 0.927826 0.091324 0.500000
O O16 0.000000 0.094852 0.641169
#
# Coordination Sequence:
#
# PCOD8284246 Si02
#       6
#    32  16  32  32  32  32
#     4  10  20  32  44  61  87 117 151 192 235 275
#     4   7  12  26  46  68 100 131 141 161 225 297
#     4  10  22  35  43  57  86 125 161 195 230 266
#     4  12  20  28  48  70  88 116 158 195 230 268
#     4  10  19  32  48  65  88 117 154 197 238 274
#     4   9  17  29  47  74 103 124 145 180 230 286
#
# _framework density 16.479690999999999
#
# number of rings (size 3 to 8) (size 9 to 14) (size 15 to 20)
#    0.000    2.091    1.818    4.364    0.000    4.364 
#    0.000    0.000    0.000    0.000    0.000    3.182 
#    0.000    5.091    0.000    0.000    0.000    0.000 
#
# Total GULP energy -545117.598452 kJ/mol
# GULP energy per Si atom -12389.036328 kJ/mol
# Density = 1.644218 g / cm^3
# Si number density = 16.479691 Si / 1000 Ang^3
#
#
#
# Elastic Constant Matrix: (Units=GPa)
#
#
# Indices 1 2 3 4 5 6 
#
# 1 71.8664 33.7436 22.6362 0.0000 0.0000 0.0000
# 2 33.7436 96.3105 36.2860 0.0000 0.0000 0.0000
# 3 22.6362 36.2860 96.8676 0.0000 0.0000 0.0000
# 4 0.0000 0.0000 0.0000 8.9869 0.0000 0.0000
# 5 0.0000 0.0000 0.0000 0.0000 10.1780 0.0000
# 6 0.0000 0.0000 0.0000 0.0000 0.0000 16.7414
#
#
#
# Elastic Compliance Matrix: (Units=1/GPa)
#
#
# Indices 1 2 3 4 5 6 
#
# 1 0.016989 -0.005189 -0.002026 0.000000 0.000000 0.000000
# 2 -0.005189 0.013674 -0.003910 0.000000 0.000000 0.000000
# 3 -0.002026 -0.003910 0.012261 0.000000 0.000000 0.000000
# 4 0.000000 0.000000 0.000000 0.111274 0.000000 0.000000
# 5 0.000000 0.000000 0.000000 0.000000 0.098251 0.000000
# 6 0.000000 0.000000 0.000000 0.000000 0.000000 0.059732
#
#
# Mechanical properties :
#
#
# Convention : Reuss Voigt Hill
#
# Bulk Modulus (GPa) = 48.36783 50.04180 49.20481
# Shear Modulus (GPa) = 14.64886 18.67317 16.66102
#
# Velocity S-wave (km/s) = 2.98468 3.36981 3.18308
# Velocity P-wave (km/s) = 6.42584 6.75074 6.59029
#
# Compressibility (1/GPa) = 0.02067490
#
# Stress axis : x y z
#
# Youngs Moduli (GPa) = 58.86043 73.13092 81.55656
#
# Poissons Ratio (x) = 0.37947 0.16526
# Poissons Ratio (y) = 0.30543 0.31886
# Poissons Ratio (z) = 0.11927 0.28592
#
# Static dielectric constant tensor:
#      x y z
#    x 3.055030 0.000000 0.000000 
#    y 0.000000 3.002100 0.000000 
#    z 0.000000 0.000000 3.218830 
# 
# 
# High freq. dielectric constant tensor:
#      x y z
#    x 1.627140 0.000000 0.000000 
#    y 0.000000 1.586640 0.000000 
#    z 0.000000 0.000000 1.630290 
# 
# From -- ./inp_files/18231.got.cif
#   From: 2010.03.12/outbox.cif.g09.slc.cpg/sg69_10_cif.got.tgz:18231.got - 2010.04.10 23:52:46.
