data_PCOD8284123
_publ_section_title
;
Structure prediction by ZEFSAII (Michael W. Deem and Ramdas Pophale) SiO2 
 PCOD8284123
Probable space group: F M M M
;
_chemical_formula_sum "Si O2"
_cell_formula_units_Z 160
_cell_length_a 23.765360
_cell_length_b 23.161461
_cell_length_c 19.532111
_cell_angle_alpha 90.000000
_cell_angle_beta 90.000000
_cell_angle_gamma 90.000000
_cell_volume 10751.264140
_symmetry_space_group_name_H-M "F M M M"
_symmetry_group_IT_number 69
_symmetry_cell_setting 'orthorhombic'
loop_
_space_group_symop_operation_xyz
x,y,z
-x,-y,z
x,-y,-z
-x,y,-z
-x,-y,-z
x,y,-z
-x,y,z
x,-y,z
x,1/2+y,1/2+z
-x,1/2-y,1/2+z
x,1/2-y,1/2-z
-x,1/2+y,1/2-z
-x,1/2-y,1/2-z
x,1/2+y,1/2-z
-x,1/2+y,1/2+z
x,1/2-y,1/2+z
1/2+x,y,1/2+z
1/2-x,-y,1/2+z
1/2+x,-y,1/2-z
1/2-x,y,1/2-z
1/2-x,-y,1/2-z
1/2+x,y,1/2-z
1/2-x,y,1/2+z
1/2+x,-y,1/2+z
1/2+x,1/2+y,z
1/2-x,1/2-y,z
1/2+x,1/2-y,-z
1/2-x,1/2+y,-z
1/2-x,1/2-y,-z
1/2+x,1/2+y,-z
1/2-x,1/2+y,z
1/2+x,1/2-y,z
loop_
_atom_site_type_symbol
_atom_site_label
_atom_site_fract_x
_atom_site_fract_y
_atom_site_fract_z
Si Si1 0.726423 0.564585 0.077022
Si Si2 0.436034 0.687177 0.920423
Si Si3 0.344484 0.744519 0.171076
Si Si4 0.902082 0.437512 0.580893
Si Si5 0.742805 0.839955 0.171826
O O1 0.750502 0.500000 0.080882
O O2 0.662542 0.566698 0.103054
O O3 0.763911 0.603672 0.125904
O O4 0.730430 0.588723 0.000000
O O5 0.500000 0.708134 0.912138
O O6 0.398124 0.731436 0.876601
O O7 0.432567 0.620666 0.892203
O O8 0.416898 0.689760 0.000000
O O9 0.363837 0.750000 0.250000
O O10 0.313986 0.804938 0.154870
O O11 0.298852 0.695579 0.154350
O O12 0.908147 0.439674 0.500000
O O13 0.926157 0.500000 0.609087
O O14 0.750000 0.858737 0.250000
#
# Coordination Sequence:
#
# PCOD8284123 Si02
#       5
#    32  32  32  32  32
#     4   9  16  26  42  64  88 112 139 171 207 250
#     4  10  19  29  43  64  87 111 145 181 206 243
#     4   9  18  31  44  60  85 113 143 176 213 251
#     4   8  14  25  40  59  85 113 137 164 201 244
#     4   9  17  29  45  63  84 112 143 176 209 250
#
# _framework density 14.881970000000001
#
# number of rings (size 3 to 8) (size 9 to 14) (size 15 to 20)
#    0.000    3.000    2.000    2.400    0.000    2.000 
#    0.000    4.000    0.000    0.000    0.000    0.000 
#    0.000    0.800    0.000    4.400    0.000    0.000 
#
# Total GULP energy -495538.613257 kJ/mol
# GULP energy per Si atom -12388.465331 kJ/mol
# Density = 1.484810 g / cm^3
# Si number density = 14.881970 Si / 1000 Ang^3
#
#
#
# Elastic Constant Matrix: (Units=GPa)
#
#
# Indices 1 2 3 4 5 6 
#
# 1 67.8792 39.4559 41.7106 0.0000 0.0000 0.0000
# 2 39.4559 74.2484 49.7155 0.0000 0.0000 0.0000
# 3 41.7106 49.7155 62.3960 0.0000 0.0000 0.0000
# 4 0.0000 0.0000 0.0000 24.3512 0.0000 0.0000
# 5 0.0000 0.0000 0.0000 0.0000 20.0756 0.0000
# 6 0.0000 0.0000 0.0000 0.0000 0.0000 14.9069
#
#
#
# Elastic Compliance Matrix: (Units=1/GPa)
#
#
# Indices 1 2 3 4 5 6 
#
# 1 0.025721 -0.004620 -0.013513 0.000000 0.000000 0.000000
# 2 -0.004620 0.029701 -0.020577 0.000000 0.000000 0.000000
# 3 -0.013513 -0.020577 0.041454 0.000000 0.000000 0.000000
# 4 0.000000 0.000000 0.000000 0.041066 0.000000 0.000000
# 5 0.000000 0.000000 0.000000 0.000000 0.049812 0.000000
# 6 0.000000 0.000000 0.000000 0.000000 0.000000 0.067083
#
#
# Mechanical properties :
#
#
# Convention : Reuss Voigt Hill
#
# Bulk Modulus (GPa) = 51.39375 51.80974 51.60174
# Shear Modulus (GPa) = 14.76048 16.77618 15.76833
#
# Velocity S-wave (km/s) = 3.15276 3.36115 3.25862
# Velocity P-wave (km/s) = 6.91827 7.06770 6.99338
#
# Compressibility (1/GPa) = 0.01945762
#
# Stress axis : x y z
#
# Youngs Moduli (GPa) = 38.87876 33.66848 24.12286
#
# Poissons Ratio (x) = 0.15556 0.32596
# Poissons Ratio (y) = 0.17964 0.49637
# Poissons Ratio (z) = 0.52535 0.69278
#
# Static dielectric constant tensor:
#      x y z
#    x 2.649780 0.000000 0.000000 
#    y 0.000000 2.940070 0.000000 
#    z 0.000000 0.000000 2.665540 
# 
# 
# High freq. dielectric constant tensor:
#      x y z
#    x 1.542460 0.000000 0.000000 
#    y 0.000000 1.568440 0.000000 
#    z 0.000000 0.000000 1.543460 
# 
# From -- ./inp_files/17708.got.cif
#   From: 2010.03.12/outbox.cif.g09.slc.cpg/sg69_9_cif.got.tgz:17708.got - 2010.04.10 23:52:46.
