data_PCOD8284672
_publ_section_title
;
Structure prediction by ZEFSAII (Michael W. Deem and Ramdas Pophale) SiO2 
 PCOD8284672
Probable space group: F M M M
;
_chemical_formula_sum "Si O2"
_cell_formula_units_Z 160
_cell_length_a 26.452050
_cell_length_b 16.640619
_cell_length_c 18.918777
_cell_angle_alpha 90.000000
_cell_angle_beta 90.000000
_cell_angle_gamma 90.000000
_cell_volume 8327.638613
_symmetry_space_group_name_H-M "F M M M"
_symmetry_group_IT_number 69
_symmetry_cell_setting 'orthorhombic'
loop_
_space_group_symop_operation_xyz
x,y,z
-x,-y,z
x,-y,-z
-x,y,-z
-x,-y,-z
x,y,-z
-x,y,z
x,-y,z
x,1/2+y,1/2+z
-x,1/2-y,1/2+z
x,1/2-y,1/2-z
-x,1/2+y,1/2-z
-x,1/2-y,1/2-z
x,1/2+y,1/2-z
-x,1/2+y,1/2+z
x,1/2-y,1/2+z
1/2+x,y,1/2+z
1/2-x,-y,1/2+z
1/2+x,-y,1/2-z
1/2-x,y,1/2-z
1/2-x,-y,1/2-z
1/2+x,y,1/2-z
1/2-x,y,1/2+z
1/2+x,-y,1/2+z
1/2+x,1/2+y,z
1/2-x,1/2-y,z
1/2+x,1/2-y,-z
1/2-x,1/2+y,-z
1/2-x,1/2-y,-z
1/2+x,1/2+y,-z
1/2-x,1/2+y,z
1/2+x,1/2-y,z
loop_
_atom_site_type_symbol
_atom_site_label
_atom_site_fract_x
_atom_site_fract_y
_atom_site_fract_z
Si Si1 0.903798 0.095294 0.836098
Si Si2 0.500000 0.403984 0.080555
Si Si3 0.231235 0.840465 0.325598
Si Si4 0.440282 0.000000 0.082895
Si Si5 0.374629 0.089246 0.815895
Si Si6 0.190014 0.093440 0.922393
O O1 0.903765 0.121723 0.753828
O O2 0.853698 0.131303 0.873232
O O3 0.951758 0.131171 0.877601
O O4 0.905856 0.000000 0.842122
O O5 0.500000 0.500000 0.080192
O O6 0.500000 0.371692 0.000000
O O7 0.250000 0.873871 0.250000
O O8 0.250000 0.750000 0.335512
O O9 0.170698 0.849407 0.333942
O O10 0.255569 0.892905 0.387565
O O11 0.414910 0.920512 0.119408
O O12 0.500000 0.000000 0.097550
O O13 0.427968 0.000000 0.000000
O O14 0.351466 0.000000 0.799120
O O15 0.180043 0.000000 0.930881
O O16 0.188498 0.134033 0.000000
#
# Coordination Sequence:
#
# PCOD8284672 Si02
#       6
#    32  16  32  16  32  32
#     4   9  16  27  46  73 103 136 174 217 268 337
#     4   9  16  24  40  70 109 138 168 220 282 340
#     4  11  22  36  53  77 110 152 192 232 280 337
#     4   9  20  36  57  88 118 140 181 243 292 330
#     4   9  19  32  56  81 108 145 189 233 281 334
#     4  10  20  33  52  76 107 141 179 225 283 342
#
# _framework density 19.21313
#
# number of rings (size 3 to 8) (size 9 to 14) (size 15 to 20)
#    0.600    1.800    2.000    1.200    1.400    4.400 
#    0.000    0.000    0.000    0.000    2.600    2.800 
#    0.000    0.000    0.000    0.000    0.000    0.000 
#
# Total GULP energy -495726.096681 kJ/mol
# GULP energy per Si atom -12393.152417 kJ/mol
# Density = 1.916940 g / cm^3
# Si number density = 19.213130 Si / 1000 Ang^3
#
#
#
# Elastic Constant Matrix: (Units=GPa)
#
#
# Indices 1 2 3 4 5 6 
#
# 1 153.2451 20.5106 88.9653 0.0000 0.0000 0.0000
# 2 20.5106 26.1156 15.2601 0.0000 0.0000 0.0000
# 3 88.9653 15.2601 182.2921 0.0000 0.0000 0.0000
# 4 0.0000 0.0000 0.0000 9.8715 0.0000 0.0000
# 5 0.0000 0.0000 0.0000 0.0000 32.5110 0.0000
# 6 0.0000 0.0000 0.0000 0.0000 0.0000 16.2958
#
#
#
# Elastic Compliance Matrix: (Units=1/GPa)
#
#
# Indices 1 2 3 4 5 6 
#
# 1 0.009713 -0.005108 -0.004313 0.000000 0.000000 0.000000
# 2 -0.005108 0.042947 -0.001102 0.000000 0.000000 0.000000
# 3 -0.004313 -0.001102 0.007683 0.000000 0.000000 0.000000
# 4 0.000000 0.000000 0.000000 0.101301 0.000000 0.000000
# 5 0.000000 0.000000 0.000000 0.000000 0.030759 0.000000
# 6 0.000000 0.000000 0.000000 0.000000 0.000000 0.061366
#
#
# Mechanical properties :
#
#
# Convention : Reuss Voigt Hill
#
# Bulk Modulus (GPa) = 25.44746 67.90276 46.67511
# Shear Modulus (GPa) = 17.36632 27.53011 22.44822
#
# Velocity S-wave (km/s) = 3.00972 3.78945 3.42186
# Velocity P-wave (km/s) = 5.03502 7.38682 6.32126
#
# Compressibility (1/GPa) = 0.03929665
#
# Stress axis : x y z
#
# Youngs Moduli (GPa) = 102.95651 23.28439 130.16290
#
# Poissons Ratio (x) = 0.11894 0.56134
# Poissons Ratio (y) = 0.52593 0.14347
# Poissons Ratio (z) = 0.44401 0.02566
#
# Static dielectric constant tensor:
#      x y z
#    x 3.526400 0.000000 0.000000 
#    y 0.000000 2.843070 0.000000 
#    z 0.000000 0.000000 3.720710 
# 
# 
# High freq. dielectric constant tensor:
#      x y z
#    x 1.748220 0.000000 0.000000 
#    y 0.000000 1.678440 0.000000 
#    z 0.000000 0.000000 1.760120 
# 
# From -- ./inp_files/26872.got.cif
#   From: 2010.03.12/outbox.cif.g09.slc.cpg/sg69_14_cif.got.tgz:26872.got - 2010.04.10 23:52:46.
