data_PCOD8284187
_publ_section_title
;
Structure prediction by ZEFSAII (Michael W. Deem and Ramdas Pophale) SiO2 
 PCOD8284187
Probable space group: F M M M
;
_chemical_formula_sum "Si O2"
_cell_formula_units_Z 208
_cell_length_a 24.516230
_cell_length_b 26.451120
_cell_length_c 18.854877
_cell_angle_alpha 90.000000
_cell_angle_beta 90.000000
_cell_angle_gamma 90.000000
_cell_volume 12227.043476
_symmetry_space_group_name_H-M "F M M M"
_symmetry_group_IT_number 69
_symmetry_cell_setting 'orthorhombic'
loop_
_space_group_symop_operation_xyz
x,y,z
-x,-y,z
x,-y,-z
-x,y,-z
-x,-y,-z
x,y,-z
-x,y,z
x,-y,z
x,1/2+y,1/2+z
-x,1/2-y,1/2+z
x,1/2-y,1/2-z
-x,1/2+y,1/2-z
-x,1/2-y,1/2-z
x,1/2+y,1/2-z
-x,1/2+y,1/2+z
x,1/2-y,1/2+z
1/2+x,y,1/2+z
1/2-x,-y,1/2+z
1/2+x,-y,1/2-z
1/2-x,y,1/2-z
1/2-x,-y,1/2-z
1/2+x,y,1/2-z
1/2-x,y,1/2+z
1/2+x,-y,1/2+z
1/2+x,1/2+y,z
1/2-x,1/2-y,z
1/2+x,1/2-y,-z
1/2-x,1/2+y,-z
1/2-x,1/2-y,-z
1/2+x,1/2+y,-z
1/2-x,1/2+y,z
1/2+x,1/2-y,z
loop_
_atom_site_type_symbol
_atom_site_label
_atom_site_fract_x
_atom_site_fract_y
_atom_site_fract_z
Si Si1 0.748500 0.689863 0.669297
Si Si2 0.064160 0.055866 0.291876
Si Si3 0.064515 0.102606 0.853336
Si Si4 0.646672 0.818776 0.416382
Si Si5 0.851761 0.797574 0.580150
Si Si6 0.562854 0.880833 0.920847
Si Si7 0.561080 0.500000 0.083082
O O1 0.750000 0.669342 0.750000
O O2 0.750000 0.750000 0.667326
O O3 0.798145 0.665430 0.624845
O O4 0.691916 0.675163 0.631427
O O5 0.078036 0.095697 0.229727
O O6 0.086933 0.078305 0.365707
O O7 0.000000 0.049071 0.297272
O O8 0.090037 0.000000 0.278472
O O9 0.095850 0.150400 0.885007
O O10 0.088460 0.051687 0.890080
O O11 0.000000 0.110400 0.868236
O O12 0.653289 0.829634 0.500000
O O13 0.634973 0.760156 0.399848
O O14 0.828437 0.800029 0.500000
O O15 0.907988 0.827227 0.588244
O O16 0.500000 0.869553 0.904690
O O17 0.571568 0.902851 0.000000
O O18 0.500000 0.500000 0.115414
O O19 0.561297 0.500000 0.000000
#
# Coordination Sequence:
#
# PCOD8284187 Si02
#       7
#    32  32  32  32  32  32  16
#     4   9  18  32  50  71  94 124 167 211 244 281
#     4   9  17  31  49  69  97 131 166 205 246 288
#     4  10  19  31  47  73 104 135 167 201 246 293
#     4  10  20  32  49  74 101 131 169 207 240 286
#     4   9  18  33  51  71 101 135 162 197 247 295
#     4   9  18  31  49  75 102 129 162 198 244 302
#     4   9  16  28  46  66  94 131 169 203 236 283
#
# _framework density 17.011471
#
# number of rings (size 3 to 8) (size 9 to 14) (size 15 to 20)
#    0.000    2.692    0.769    0.923    2.154    3.692 
#    0.000    3.077    0.000    2.769    2.000    1.615 
#    0.000    0.000    0.000    0.000    0.000    0.000 
#
# Total GULP energy -644548.167569 kJ/mol
# GULP energy per Si atom -12395.157069 kJ/mol
# Density = 1.697275 g / cm^3
# Si number density = 17.011471 Si / 1000 Ang^3
#
#
#
# Elastic Constant Matrix: (Units=GPa)
#
#
# Indices 1 2 3 4 5 6 
#
# 1 68.7442 38.7126 47.5198 0.0000 0.0000 0.0000
# 2 38.7126 72.0182 50.5485 0.0000 0.0000 0.0000
# 3 47.5198 50.5485 125.5781 0.0000 0.0000 0.0000
# 4 0.0000 0.0000 0.0000 26.4969 0.0000 0.0000
# 5 0.0000 0.0000 0.0000 0.0000 25.1976 0.0000
# 6 0.0000 0.0000 0.0000 0.0000 0.0000 6.5205
#
#
#
# Elastic Compliance Matrix: (Units=1/GPa)
#
#
# Indices 1 2 3 4 5 6 
#
# 1 0.023074 -0.008746 -0.005211 0.000000 0.000000 0.000000
# 2 -0.008746 0.022668 -0.005815 0.000000 0.000000 0.000000
# 3 -0.005211 -0.005815 0.012276 0.000000 0.000000 0.000000
# 4 0.000000 0.000000 0.000000 0.037740 0.000000 0.000000
# 5 0.000000 0.000000 0.000000 0.000000 0.039686 0.000000
# 6 0.000000 0.000000 0.000000 0.000000 0.000000 0.153362
#
#
# Mechanical properties :
#
#
# Convention : Reuss Voigt Hill
#
# Bulk Modulus (GPa) = 54.12922 59.98914 57.05918
# Shear Modulus (GPa) = 14.94735 20.28032 17.61383
#
# Velocity S-wave (km/s) = 2.96744 3.45651 3.22127
# Velocity P-wave (km/s) = 6.60525 7.16034 6.88838
#
# Compressibility (1/GPa) = 0.01847431
#
# Stress axis : x y z
#
# Youngs Moduli (GPa) = 43.33928 44.11518 81.46117
#
# Poissons Ratio (x) = 0.38581 0.42449
# Poissons Ratio (y) = 0.37902 0.47370
# Poissons Ratio (z) = 0.22584 0.25653
#
# Static dielectric constant tensor:
#      x y z
#    x 2.948540 0.000000 0.000000 
#    y 0.000000 3.088190 0.000000 
#    z 0.000000 0.000000 3.479350 
# 
# 
# High freq. dielectric constant tensor:
#      x y z
#    x 1.622620 0.000000 0.000000 
#    y 0.000000 1.635430 0.000000 
#    z 0.000000 0.000000 1.676330 
# 
# From -- ./inp_files/26997.got.cif
#   From: 2010.03.12/outbox.cif.g09.slc.cpg/sg69_14_cif.got.tgz:26997.got - 2010.04.10 23:52:46.
