data_PCOD8284492
_publ_section_title
;
Structure prediction by ZEFSAII (Michael W. Deem and Ramdas Pophale) SiO2 
 PCOD8284492
Probable space group: F M M M
;
_chemical_formula_sum "Si O2"
_cell_formula_units_Z 128
_cell_length_a 23.649868
_cell_length_b 28.500591
_cell_length_c 9.551123
_cell_angle_alpha 90.000000
_cell_angle_beta 90.000000
_cell_angle_gamma 90.000000
_cell_volume 6437.793245
_symmetry_space_group_name_H-M "F M M M"
_symmetry_group_IT_number 69
_symmetry_cell_setting 'orthorhombic'
loop_
_space_group_symop_operation_xyz
x,y,z
-x,-y,z
x,-y,-z
-x,y,-z
-x,-y,-z
x,y,-z
-x,y,z
x,-y,z
x,1/2+y,1/2+z
-x,1/2-y,1/2+z
x,1/2-y,1/2-z
-x,1/2+y,1/2-z
-x,1/2-y,1/2-z
x,1/2+y,1/2-z
-x,1/2+y,1/2+z
x,1/2-y,1/2+z
1/2+x,y,1/2+z
1/2-x,-y,1/2+z
1/2+x,-y,1/2-z
1/2-x,y,1/2-z
1/2-x,-y,1/2-z
1/2+x,y,1/2-z
1/2-x,y,1/2+z
1/2+x,-y,1/2+z
1/2+x,1/2+y,z
1/2-x,1/2-y,z
1/2+x,1/2-y,-z
1/2-x,1/2+y,-z
1/2-x,1/2-y,-z
1/2+x,1/2+y,-z
1/2-x,1/2+y,z
1/2+x,1/2-y,z
loop_
_atom_site_type_symbol
_atom_site_label
_atom_site_fract_x
_atom_site_fract_y
_atom_site_fract_z
Si Si1 0.000000 0.652854 0.156786
Si Si2 0.376607 0.553076 0.846104
Si Si3 0.000000 0.948431 0.752835
Si Si4 0.193128 0.878695 0.337600
Si Si5 0.889724 0.203587 0.661977
O O1 0.000000 0.596295 0.150391
O O2 0.056648 0.674716 0.225980
O O3 0.000000 0.670943 0.000000
O O4 0.355961 0.500000 0.821054
O O5 0.444544 0.555598 0.847966
O O6 0.350884 0.583558 0.721698
O O7 0.356349 0.570552 0.000000
O O8 0.000000 0.000000 0.675100
O O9 0.204756 0.890646 0.500000
O O10 0.250000 0.881170 0.250000
O O11 0.166456 0.827352 0.321043
O O12 0.898985 0.216886 0.500000
O O13 0.880291 0.250000 0.750000
#
# Coordination Sequence:
#
# PCOD8284492 Si02
#       5
#    16  32  16  32  32
#     4  10  19  37  59  89 128 157 194 243 294 358
#     4  10  21  38  61  91 126 161 199 243 293 355
#     4  10  19  34  60  94 129 160 194 238 293 355
#     4  11  24  42  63  87 118 157 203 254 302 355
#     4  10  22  40  62  88 120 155 196 247 300 359
#
# _framework density 19.882587999999998
#
# number of rings (size 3 to 8) (size 9 to 14) (size 15 to 20)
#    0.000    1.750    2.500    1.500    0.000    5.250 
#    0.000    5.000    0.000    0.000    0.000    0.000 
#    0.000    0.000    0.000    0.000    0.000    0.000 
#
# Total GULP energy -396650.167086 kJ/mol
# GULP energy per Si atom -12395.317721 kJ/mol
# Density = 1.983733 g / cm^3
# Si number density = 19.882588 Si / 1000 Ang^3
#
#
#
# Elastic Constant Matrix: (Units=GPa)
#
#
# Indices 1 2 3 4 5 6 
#
# 1 108.2184 43.7497 56.6168 -0.0005 0.0005 0.0004
# 2 43.7497 128.8368 69.2101 -0.0008 0.0010 0.0004
# 3 56.6168 69.2101 119.6932 -0.0009 -0.0003 0.0005
# 4 -0.0005 -0.0008 -0.0009 34.0065 0.0004 0.0003
# 5 0.0005 0.0010 -0.0003 0.0004 19.0723 -0.0003
# 6 0.0004 0.0004 0.0005 0.0003 -0.0003 18.5447
#
#
#
# Elastic Compliance Matrix: (Units=1/GPa)
#
#
# Indices 1 2 3 4 5 6 
#
# 1 0.012489 -0.001548 -0.005012 0.000000 0.000000 0.000000
# 2 -0.001548 0.011451 -0.005889 0.000000 -0.000001 0.000000
# 3 -0.005012 -0.005889 0.014131 0.000000 0.000001 0.000000
# 4 0.000000 0.000000 0.000000 0.029406 -0.000001 0.000000
# 5 0.000000 -0.000001 0.000001 -0.000001 0.052432 0.000001
# 6 0.000000 0.000000 0.000000 0.000000 0.000001 0.053924
#
#
# Mechanical properties :
#
#
# Convention : Reuss Voigt Hill
#
# Bulk Modulus (GPa) = 75.92058 77.32239 76.62148
# Shear Modulus (GPa) = 24.61579 26.80281 25.70930
#
# Velocity S-wave (km/s) = 3.52242 3.67557 3.59981
# Velocity P-wave (km/s) = 7.40342 7.54897 7.47655
#
# Compressibility (1/GPa) = 0.01317166
#
# Stress axis : x y z
#
# Youngs Moduli (GPa) = 80.07237 87.32831 70.76842
#
# Poissons Ratio (x) = 0.13522 0.35469
# Poissons Ratio (y) = 0.12399 0.41675
# Poissons Ratio (z) = 0.40132 0.51427
#
# Static dielectric constant tensor:
#      x y z
#    x 3.695200 0.000000 0.000000 
#    y 0.000000 3.597910 0.000000 
#    z 0.000000 0.000000 3.422690 
# 
# 
# High freq. dielectric constant tensor:
#      x y z
#    x 1.780130 0.000000 0.000000 
#    y 0.000000 1.778390 0.000000 
#    z 0.000000 0.000000 1.760970 
# 
# From -- ./inp_files/4857.got.cif
#   From: 2010.03.12/outbox.cif.g09.slc.cpg/sg69_3_cif.got.tgz:4857.got - 2010.04.10 23:52:46.
