data_PCOD8284631
_publ_section_title
;
Structure prediction by ZEFSAII (Michael W. Deem and Ramdas Pophale) SiO2 
 PCOD8284631
Probable space group: F M M M
;
_chemical_formula_sum "Si O2"
_cell_formula_units_Z 160
_cell_length_a 16.891742
_cell_length_b 21.914818
_cell_length_c 23.042858
_cell_angle_alpha 90.000000
_cell_angle_beta 90.000000
_cell_angle_gamma 90.000000
_cell_volume 8529.992538
_symmetry_space_group_name_H-M "F M M M"
_symmetry_group_IT_number 69
_symmetry_cell_setting 'orthorhombic'
loop_
_space_group_symop_operation_xyz
x,y,z
-x,-y,z
x,-y,-z
-x,y,-z
-x,-y,-z
x,y,-z
-x,y,z
x,-y,z
x,1/2+y,1/2+z
-x,1/2-y,1/2+z
x,1/2-y,1/2-z
-x,1/2+y,1/2-z
-x,1/2-y,1/2-z
x,1/2+y,1/2-z
-x,1/2+y,1/2+z
x,1/2-y,1/2+z
1/2+x,y,1/2+z
1/2-x,-y,1/2+z
1/2+x,-y,1/2-z
1/2-x,y,1/2-z
1/2-x,-y,1/2-z
1/2+x,y,1/2-z
1/2-x,y,1/2+z
1/2+x,-y,1/2+z
1/2+x,1/2+y,z
1/2-x,1/2-y,z
1/2+x,1/2-y,-z
1/2-x,1/2+y,-z
1/2-x,1/2-y,-z
1/2+x,1/2+y,-z
1/2-x,1/2+y,z
1/2+x,1/2-y,z
loop_
_atom_site_type_symbol
_atom_site_label
_atom_site_fract_x
_atom_site_fract_y
_atom_site_fract_z
Si Si1 0.592119 0.706493 0.933166
Si Si2 0.245349 0.500000 0.321006
Si Si3 0.685955 0.623715 0.862344
Si Si4 0.590258 0.365264 0.248172
Si Si5 0.088062 0.000000 0.297340
Si Si6 0.680324 0.207190 0.155382
O O1 0.500000 0.704045 0.919050
O O2 0.630610 0.640399 0.917349
O O3 0.632964 0.758897 0.895198
O O4 0.608431 0.721362 0.000000
O O5 0.250000 0.500000 0.250000
O O6 0.195056 0.553196 0.349590
O O7 0.337801 0.500000 0.342306
O O8 0.643109 0.654018 0.806428
O O9 0.773522 0.650124 0.872746
O O10 0.500000 0.348502 0.234925
O O11 0.598051 0.438089 0.259781
O O12 0.619061 0.320911 0.299167
O O13 0.000000 0.000000 0.327016
O O14 0.750000 0.250000 0.182454
#
# Coordination Sequence:
#
# PCOD8284631 Si02
#       6
#    32  16  32  32  16  32
#     4  10  23  43  60  77 106 146 194 244 289 332
#     4  12  18  36  57  83 120 148 178 216 272 339
#     4  11  21  34  57  85 114 151 185 230 281 340
#     4  11  20  33  52  84 120 148 183 222 278 344
#     4  10  20  32  54  82 117 153 178 215 265 336
#     4  10  21  34  55  81 108 146 187 231 280 333
#
# _framework density 18.757344
#
# number of rings (size 3 to 8) (size 9 to 14) (size 15 to 20)
#    0.000    1.400    4.000    1.800    0.000    9.200 
#    0.000    7.000    0.000    1.200    0.000    0.700 
#    0.000    6.400    0.000    0.000    0.000    0.000 
#
# Total GULP energy -495538.098624 kJ/mol
# GULP energy per Si atom -12388.452466 kJ/mol
# Density = 1.871465 g / cm^3
# Si number density = 18.757344 Si / 1000 Ang^3
#
#
#
# Elastic Constant Matrix: (Units=GPa)
#
#
# Indices 1 2 3 4 5 6 
#
# 1 136.5545 42.4834 52.7086 0.0000 0.0000 0.0000
# 2 42.4834 96.3365 36.0034 0.0000 0.0000 0.0000
# 3 52.7086 36.0034 69.8654 0.0000 0.0000 0.0000
# 4 0.0000 0.0000 0.0000 17.7643 0.0000 0.0000
# 5 0.0000 0.0000 0.0000 0.0000 28.2887 0.0000
# 6 0.0000 0.0000 0.0000 0.0000 0.0000 33.7676
#
#
#
# Elastic Compliance Matrix: (Units=1/GPa)
#
#
# Indices 1 2 3 4 5 6 
#
# 1 0.010664 -0.002101 -0.006963 0.000000 0.000000 0.000000
# 2 -0.002101 0.013270 -0.005254 0.000000 0.000000 0.000000
# 3 -0.006963 -0.005254 0.022274 0.000000 0.000000 0.000000
# 4 0.000000 0.000000 0.000000 0.056293 0.000000 0.000000
# 5 0.000000 0.000000 0.000000 0.000000 0.035350 0.000000
# 6 0.000000 0.000000 0.000000 0.000000 0.000000 0.029614
#
#
# Mechanical properties :
#
#
# Convention : Reuss Voigt Hill
#
# Bulk Modulus (GPa) = 56.90363 62.79412 59.84887
# Shear Modulus (GPa) = 24.75780 27.40153 26.07966
#
# Velocity S-wave (km/s) = 3.63698 3.82624 3.73281
# Velocity P-wave (km/s) = 6.93105 7.28491 7.11018
#
# Compressibility (1/GPa) = 0.01757357
#
# Stress axis : x y z
#
# Youngs Moduli (GPa) = 93.77164 75.35771 44.89616
#
# Poissons Ratio (x) = 0.15829 0.31261
# Poissons Ratio (y) = 0.19697 0.23587
# Poissons Ratio (z) = 0.65292 0.39590
#
# Static dielectric constant tensor:
#      x y z
#    x 3.908160 0.000000 0.000000 
#    y 0.000000 3.627440 0.000000 
#    z 0.000000 0.000000 3.073950 
# 
# 
# High freq. dielectric constant tensor:
#      x y z
#    x 1.758490 0.000000 0.000000 
#    y 0.000000 1.739290 0.000000 
#    z 0.000000 0.000000 1.676620 
# 
# From -- ./inp_files/24662.got.cif
#   From: 2010.03.12/outbox.cif.g09.slc.cpg/sg69_13_cif.got.tgz:24662.got - 2010.04.10 23:52:46.
