data_PCOD8284550
_publ_section_title
;
Structure prediction by ZEFSAII (Michael W. Deem and Ramdas Pophale) SiO2 
 PCOD8284550
Probable space group: F M M M
;
_chemical_formula_sum "Si O2"
_cell_formula_units_Z 168
_cell_length_a 14.146980
_cell_length_b 22.507853
_cell_length_c 24.375987
_cell_angle_alpha 90.000000
_cell_angle_beta 90.000000
_cell_angle_gamma 90.000000
_cell_volume 7761.756593
_symmetry_space_group_name_H-M "F M M M"
_symmetry_group_IT_number 69
_symmetry_cell_setting 'orthorhombic'
loop_
_space_group_symop_operation_xyz
x,y,z
-x,-y,z
x,-y,-z
-x,y,-z
-x,-y,-z
x,y,-z
-x,y,z
x,-y,z
x,1/2+y,1/2+z
-x,1/2-y,1/2+z
x,1/2-y,1/2-z
-x,1/2+y,1/2-z
-x,1/2-y,1/2-z
x,1/2+y,1/2-z
-x,1/2+y,1/2+z
x,1/2-y,1/2+z
1/2+x,y,1/2+z
1/2-x,-y,1/2+z
1/2+x,-y,1/2-z
1/2-x,y,1/2-z
1/2-x,-y,1/2-z
1/2+x,y,1/2-z
1/2-x,y,1/2+z
1/2+x,-y,1/2+z
1/2+x,1/2+y,z
1/2-x,1/2-y,z
1/2+x,1/2-y,-z
1/2-x,1/2+y,-z
1/2-x,1/2-y,-z
1/2+x,1/2+y,-z
1/2-x,1/2+y,z
1/2+x,1/2-y,z
loop_
_atom_site_type_symbol
_atom_site_label
_atom_site_fract_x
_atom_site_fract_y
_atom_site_fract_z
Si Si1 0.891064 0.398281 0.681710
Si Si2 0.858034 0.236890 0.810033
Si Si3 0.112703 0.933504 0.701753
Si Si4 0.386723 0.000000 0.399536
Si Si5 0.394546 0.156522 0.884526
Si Si6 0.255330 0.000000 0.000000
Si Si7 0.113246 0.615258 0.000000
O O1 0.874508 0.329340 0.668414
O O2 0.842426 0.415897 0.739459
O O3 0.855439 0.440929 0.633537
O O4 0.000000 0.412327 0.688976
O O5 0.906486 0.250000 0.750000
O O6 0.750000 0.250000 0.803001
O O7 0.897619 0.277901 0.858700
O O8 0.159524 0.888879 0.656892
O O9 0.000000 0.925910 0.703448
O O10 0.142162 0.000000 0.685587
O O11 0.500000 0.000000 0.414477
O O12 0.317830 0.000000 0.450527
O O13 0.500000 0.131841 0.889343
O O14 0.354107 0.153856 0.946518
O O15 0.326533 0.944676 0.000000
O O16 0.000000 0.602004 0.000000
#
# Coordination Sequence:
#
# PCOD8284550 Si02
#       7
#    32  32  32  16  32   8  16
#     4  10  19  36  62  93 127 161 205 261 318 383
#     4  11  23  36  57  91 135 168 206 259 321 387
#     4   9  16  29  55  89 121 157 199 253 321 378
#     4  10  23  43  68 100 132 163 212 269 320 387
#     4  10  21  39  61  85 122 165 217 267 309 374
#     4  12  26  44  72  90 126 176 212 260 322 384
#     4  10  25  45  65  93 124 166 223 271 309 368
#
# _framework density 21.644586
#
# number of rings (size 3 to 8) (size 9 to 14) (size 15 to 20)
#    0.000    1.905    2.857    0.857    4.000    0.762 
#    0.000    1.429    0.000    5.714    0.000    0.000 
#    0.000    0.000    0.000    0.000    0.000    0.000 
#
# Total GULP energy -520450.652974 kJ/mol
# GULP energy per Si atom -12391.682214 kJ/mol
# Density = 2.159532 g / cm^3
# Si number density = 21.644586 Si / 1000 Ang^3
#
#
#
# Elastic Constant Matrix: (Units=GPa)
#
#
# Indices 1 2 3 4 5 6 
#
# 1 45.7557 8.9220 30.2555 0.0000 0.0000 0.0000
# 2 8.9220 183.0451 99.6667 0.0000 0.0000 0.0000
# 3 30.2555 99.6667 207.7794 0.0000 0.0000 0.0000
# 4 0.0000 0.0000 0.0000 38.1733 0.0000 0.0000
# 5 0.0000 0.0000 0.0000 0.0000 8.8307 0.0000
# 6 0.0000 0.0000 0.0000 0.0000 0.0000 21.1952
#
#
#
# Elastic Compliance Matrix: (Units=1/GPa)
#
#
# Indices 1 2 3 4 5 6 
#
# 1 0.024320 0.001005 -0.004024 0.000000 0.000000 0.000000
# 2 0.001005 0.007436 -0.003713 0.000000 0.000000 0.000000
# 3 -0.004024 -0.003713 0.007180 0.000000 0.000000 0.000000
# 4 0.000000 0.000000 0.000000 0.026196 0.000000 0.000000
# 5 0.000000 0.000000 0.000000 0.000000 0.113242 0.000000
# 6 0.000000 0.000000 0.000000 0.000000 0.000000 0.047180
#
#
# Mechanical properties :
#
#
# Convention : Reuss Voigt Hill
#
# Bulk Modulus (GPa) = 39.25772 79.36318 59.31045
# Shear Modulus (GPa) = 20.20139 33.48891 26.84515
#
# Velocity S-wave (km/s) = 3.05835 3.93774 3.52557
# Velocity P-wave (km/s) = 5.53608 7.57763 6.63584
#
# Compressibility (1/GPa) = 0.02547270
#
# Stress axis : x y z
#
# Youngs Moduli (GPa) = 41.11895 134.48156 139.27898
#
# Poissons Ratio (x) = -0.13521 0.56040
# Poissons Ratio (y) = -0.04134 0.51718
# Poissons Ratio (z) = 0.16544 0.49936
#
# Static dielectric constant tensor:
#      x y z
#    x 3.720220 0.000000 0.000000 
#    y 0.000000 3.704770 0.000000 
#    z 0.000000 0.000000 4.290530 
# 
# 
# High freq. dielectric constant tensor:
#      x y z
#    x 1.842590 0.000000 0.000000 
#    y 0.000000 1.849930 0.000000 
#    z 0.000000 0.000000 1.844070 
# 
# From -- ./inp_files/41014.got.cif
#   From: 2010.03.12/outbox.cif.g09.slc.cpg/sg69_21_cif.got.tgz:41014.got - 2010.04.10 23:52:46.
