data_PCOD8284573
_publ_section_title
;
Structure prediction by ZEFSAII (Michael W. Deem and Ramdas Pophale) SiO2 
 PCOD8284573
Probable space group: F M M M
;
_chemical_formula_sum "Si O2"
_cell_formula_units_Z 160
_cell_length_a 24.665115
_cell_length_b 21.028250
_cell_length_c 17.311833
_cell_angle_alpha 90.000000
_cell_angle_beta 90.000000
_cell_angle_gamma 90.000000
_cell_volume 8979.028091
_symmetry_space_group_name_H-M "F M M M"
_symmetry_group_IT_number 69
_symmetry_cell_setting 'orthorhombic'
loop_
_space_group_symop_operation_xyz
x,y,z
-x,-y,z
x,-y,-z
-x,y,-z
-x,-y,-z
x,y,-z
-x,y,z
x,-y,z
x,1/2+y,1/2+z
-x,1/2-y,1/2+z
x,1/2-y,1/2-z
-x,1/2+y,1/2-z
-x,1/2-y,1/2-z
x,1/2+y,1/2-z
-x,1/2+y,1/2+z
x,1/2-y,1/2+z
1/2+x,y,1/2+z
1/2-x,-y,1/2+z
1/2+x,-y,1/2-z
1/2-x,y,1/2-z
1/2-x,-y,1/2-z
1/2+x,y,1/2-z
1/2-x,y,1/2+z
1/2+x,-y,1/2+z
1/2+x,1/2+y,z
1/2-x,1/2-y,z
1/2+x,1/2-y,-z
1/2-x,1/2+y,-z
1/2-x,1/2-y,-z
1/2+x,1/2+y,-z
1/2-x,1/2+y,z
1/2+x,1/2-y,z
loop_
_atom_site_type_symbol
_atom_site_label
_atom_site_fract_x
_atom_site_fract_y
_atom_site_fract_z
Si Si1 0.938381 0.346288 0.912122
Si Si2 0.838980 0.260893 0.085656
Si Si3 0.221630 0.892897 0.586150
Si Si4 0.698966 0.847945 0.304006
Si Si5 0.630450 0.929484 0.809283
O O1 0.900142 0.285159 0.900074
O O2 0.922630 0.401206 0.851208
O O3 0.000000 0.325222 0.896756
O O4 0.930736 0.372138 0.000000
O O5 0.797615 0.319551 0.088991
O O6 0.825503 0.213964 0.155216
O O7 0.834303 0.228916 0.000000
O O8 0.230021 0.918104 0.500000
O O9 0.278860 0.896701 0.630917
O O10 0.177667 0.937087 0.627209
O O11 0.750000 0.828923 0.250000
O O12 0.650596 0.882703 0.258541
O O13 0.616950 0.000000 0.777117
#
# Coordination Sequence:
#
# PCOD8284573 Si02
#       5
#    32  32  32  32  32
#     4   9  19  35  54  75  95 117 150 194 243 291
#     4   9  17  31  50  72  97 122 154 197 240 284
#     4   9  18  30  47  71  95 124 163 199 231 276
#     4  10  20  30  46  69 100 135 162 187 227 279
#     4  10  21  34  46  66  98 130 162 200 235 269
#
# _framework density 17.819299999999998
#
# number of rings (size 3 to 8) (size 9 to 14) (size 15 to 20)
#    0.000    2.600    0.000    3.000    0.000   18.400 
#    0.000    3.000    0.000    1.800    0.000    0.000 
#    0.000    0.000    0.000   12.200    0.000    0.000 
#
# Total GULP energy -495782.012600 kJ/mol
# GULP energy per Si atom -12394.550315 kJ/mol
# Density = 1.777874 g / cm^3
# Si number density = 17.819300 Si / 1000 Ang^3
#
#
#
# Elastic Constant Matrix: (Units=GPa)
#
#
# Indices 1 2 3 4 5 6 
#
# 1 87.1921 21.6758 37.7125 0.0000 0.0000 0.0000
# 2 21.6758 73.8012 37.0122 0.0000 0.0000 0.0000
# 3 37.7125 37.0122 94.3093 0.0000 0.0000 0.0000
# 4 0.0000 0.0000 0.0000 7.8173 0.0000 0.0000
# 5 0.0000 0.0000 0.0000 0.0000 27.2472 0.0000
# 6 0.0000 0.0000 0.0000 0.0000 0.0000 6.9427
#
#
#
# Elastic Compliance Matrix: (Units=1/GPa)
#
#
# Indices 1 2 3 4 5 6 
#
# 1 0.014022 -0.001626 -0.004969 0.000000 0.000000 0.000000
# 2 -0.001626 0.017059 -0.006045 0.000000 0.000000 0.000000
# 3 -0.004969 -0.006045 0.014963 0.000000 0.000000 0.000000
# 4 0.000000 0.000000 0.000000 0.127921 0.000000 0.000000
# 5 0.000000 0.000000 0.000000 0.000000 0.036701 0.000000
# 6 0.000000 0.000000 0.000000 0.000000 0.000000 0.144037
#
#
# Mechanical properties :
#
#
# Convention : Reuss Voigt Hill
#
# Bulk Modulus (GPa) = 48.15994 49.78930 48.97462
# Shear Modulus (GPa) = 12.92309 18.99491 15.95900
#
# Velocity S-wave (km/s) = 2.69593 3.26847 2.99591
# Velocity P-wave (km/s) = 6.06434 6.49967 6.28578
#
# Compressibility (1/GPa) = 0.02076415
#
# Stress axis : x y z
#
# Youngs Moduli (GPa) = 71.31413 58.62008 66.83322
#
# Poissons Ratio (x) = 0.09534 0.33210
# Poissons Ratio (y) = 0.11599 0.40397
# Poissons Ratio (z) = 0.35436 0.35433
#
# Static dielectric constant tensor:
#      x y z
#    x 3.216900 0.000000 0.000000 
#    y 0.000000 2.933130 0.000000 
#    z 0.000000 0.000000 3.637990 
# 
# 
# High freq. dielectric constant tensor:
#      x y z
#    x 1.665700 0.000000 0.000000 
#    y 0.000000 1.658830 0.000000 
#    z 0.000000 0.000000 1.700140 
# 
# From -- ./inp_files/27607.got.cif
#   From: 2010.03.12/outbox.cif.g09.slc.cpg/sg69_14_cif.got.tgz:27607.got - 2010.04.10 23:52:46.
