data_PCOD8284230
_publ_section_title
;
Structure prediction by ZEFSAII (Michael W. Deem and Ramdas Pophale) SiO2 
 PCOD8284230
Probable space group: F M M M
;
_chemical_formula_sum "Si O2"
_cell_formula_units_Z 240
_cell_length_a 30.046714
_cell_length_b 21.883316
_cell_length_c 18.762708
_cell_angle_alpha 90.000000
_cell_angle_beta 90.000000
_cell_angle_gamma 90.000000
_cell_volume 12336.888359
_symmetry_space_group_name_H-M "F M M M"
_symmetry_group_IT_number 69
_symmetry_cell_setting 'orthorhombic'
loop_
_space_group_symop_operation_xyz
x,y,z
-x,-y,z
x,-y,-z
-x,y,-z
-x,-y,-z
x,y,-z
-x,y,z
x,-y,z
x,1/2+y,1/2+z
-x,1/2-y,1/2+z
x,1/2-y,1/2-z
-x,1/2+y,1/2-z
-x,1/2-y,1/2-z
x,1/2+y,1/2-z
-x,1/2+y,1/2+z
x,1/2-y,1/2+z
1/2+x,y,1/2+z
1/2-x,-y,1/2+z
1/2+x,-y,1/2-z
1/2-x,y,1/2-z
1/2-x,-y,1/2-z
1/2+x,y,1/2-z
1/2-x,y,1/2+z
1/2+x,-y,1/2+z
1/2+x,1/2+y,z
1/2-x,1/2-y,z
1/2+x,1/2-y,-z
1/2-x,1/2+y,-z
1/2-x,1/2-y,-z
1/2+x,1/2+y,-z
1/2-x,1/2+y,z
1/2+x,1/2-y,z
loop_
_atom_site_type_symbol
_atom_site_label
_atom_site_fract_x
_atom_site_fract_y
_atom_site_fract_z
Si Si1 0.585239 0.683541 0.918701
Si Si2 0.196877 0.142696 0.326814
Si Si3 0.384531 0.068902 0.667218
Si Si4 0.397216 0.100186 0.171211
Si Si5 0.049798 0.779112 0.676947
Si Si6 0.947915 0.500000 0.915612
Si Si7 0.319624 0.239731 0.581150
Si Si8 0.293981 0.129151 0.667881
O O1 0.589851 0.617504 0.881778
O O2 0.547803 0.725078 0.881736
O O3 0.628475 0.725805 0.910224
O O4 0.572257 0.671045 0.000000
O O5 0.155205 0.100222 0.349352
O O6 0.196666 0.204236 0.371741
O O7 0.243059 0.104147 0.335760
O O8 0.193840 0.161179 0.243378
O O9 0.401964 0.077658 0.747743
O O10 0.331036 0.076561 0.657164
O O11 0.396388 0.000000 0.642976
O O12 0.416083 0.167571 0.158384
O O13 0.424312 0.058745 0.117051
O O14 0.067079 0.750000 0.750000
O O15 0.000000 0.806088 0.684631
O O16 0.000000 0.500000 0.895567
O O17 0.941023 0.500000 0.000000
O O18 0.306729 0.254041 0.500000
O O19 0.294423 0.179110 0.605813
#
# Coordination Sequence:
#
# PCOD8284230 Si02
#       8
#    32  32  32  32  32  16  32  32
#     4  10  21  37  59  89 122 157 196 244 300 355
#     4  10  19  33  54  82 115 150 191 239 290 352
#     4  10  20  38  62  86 118 160 206 248 289 347
#     4  11  21  39  65  88 114 155 198 241 299 356
#     4  11  22  37  62  94 121 147 186 241 303 364
#     4  11  26  46  64  87 119 153 199 250 294 356
#     4  10  19  31  51  78 114 155 193 233 285 350
#     4   9  20  33  50  84 114 152 193 242 288 333
#
# _framework density 19.453852000000001
#
# number of rings (size 3 to 8) (size 9 to 14) (size 15 to 20)
#    0.000    1.800    3.333    1.200    0.000    3.733 
#    1.200    1.333    0.000    0.000    0.000    0.933 
#    0.000    0.000    0.000    0.000    0.000    0.000 
#
# Total GULP energy -743743.916496 kJ/mol
# GULP energy per Si atom -12395.731942 kJ/mol
# Density = 1.940957 g / cm^3
# Si number density = 19.453852 Si / 1000 Ang^3
#
#
#
# Elastic Constant Matrix: (Units=GPa)
#
#
# Indices 1 2 3 4 5 6 
#
# 1 95.9079 36.8181 34.1913 0.0000 0.0000 0.0000
# 2 36.8181 112.0098 47.3337 0.0000 0.0000 0.0000
# 3 34.1913 47.3337 97.6777 0.0000 0.0000 0.0000
# 4 0.0000 0.0000 0.0000 21.4216 0.0000 0.0000
# 5 0.0000 0.0000 0.0000 0.0000 17.9852 0.0000
# 6 0.0000 0.0000 0.0000 0.0000 0.0000 16.1596
#
#
#
# Elastic Compliance Matrix: (Units=1/GPa)
#
#
# Indices 1 2 3 4 5 6 
#
# 1 0.012605 -0.002865 -0.003024 0.000000 0.000000 0.000000
# 2 -0.002865 0.011878 -0.004753 0.000000 0.000000 0.000000
# 3 -0.003024 -0.004753 0.013599 0.000000 0.000000 0.000000
# 4 0.000000 0.000000 0.000000 0.046682 0.000000 0.000000
# 5 0.000000 0.000000 0.000000 0.000000 0.055601 0.000000
# 6 0.000000 0.000000 0.000000 0.000000 0.000000 0.061883
#
#
# Mechanical properties :
#
#
# Convention : Reuss Voigt Hill
#
# Bulk Modulus (GPa) = 59.53056 60.25350 59.89203
# Shear Modulus (GPa) = 21.82151 23.59676 22.70914
#
# Velocity S-wave (km/s) = 3.35282 3.48654 3.42033
# Velocity P-wave (km/s) = 6.75691 6.87370 6.81556
#
# Compressibility (1/GPa) = 0.01679809
#
# Stress axis : x y z
#
# Youngs Moduli (GPa) = 79.33615 84.18742 73.53261
#
# Poissons Ratio (x) = 0.24124 0.22233
# Poissons Ratio (y) = 0.22734 0.34950
# Poissons Ratio (z) = 0.23988 0.40015
#
# Static dielectric constant tensor:
#      x y z
#    x 3.670510 0.000000 0.000000 
#    y 0.000000 3.364130 0.000000 
#    z 0.000000 0.000000 3.543110 
# 
# 
# High freq. dielectric constant tensor:
#      x y z
#    x 1.763390 0.000000 0.000000 
#    y 0.000000 1.734420 0.000000 
#    z 0.000000 0.000000 1.753990 
# 
# From -- ./inp_files/34089.got.cif
#   From: 2010.03.12/outbox.cif.g09.slc.cpg/sg69_18_cif.got.tgz:34089.got - 2010.04.10 23:52:46.
