data_PCOD8284378
_publ_section_title
;
Structure prediction by ZEFSAII (Michael W. Deem and Ramdas Pophale) SiO2 
 PCOD8284378
Probable space group: F M M M
;
_chemical_formula_sum "Si O2"
_cell_formula_units_Z 200
_cell_length_a 22.247712
_cell_length_b 27.646365
_cell_length_c 18.276597
_cell_angle_alpha 90.000000
_cell_angle_beta 90.000000
_cell_angle_gamma 90.000000
_cell_volume 11241.356660
_symmetry_space_group_name_H-M "F M M M"
_symmetry_group_IT_number 69
_symmetry_cell_setting 'orthorhombic'
loop_
_space_group_symop_operation_xyz
x,y,z
-x,-y,z
x,-y,-z
-x,y,-z
-x,-y,-z
x,y,-z
-x,y,z
x,-y,z
x,1/2+y,1/2+z
-x,1/2-y,1/2+z
x,1/2-y,1/2-z
-x,1/2+y,1/2-z
-x,1/2-y,1/2-z
x,1/2+y,1/2-z
-x,1/2+y,1/2+z
x,1/2-y,1/2+z
1/2+x,y,1/2+z
1/2-x,-y,1/2+z
1/2+x,-y,1/2-z
1/2-x,y,1/2-z
1/2-x,-y,1/2-z
1/2+x,y,1/2-z
1/2-x,y,1/2+z
1/2+x,-y,1/2+z
1/2+x,1/2+y,z
1/2-x,1/2-y,z
1/2+x,1/2-y,-z
1/2-x,1/2+y,-z
1/2-x,1/2-y,-z
1/2+x,1/2+y,-z
1/2-x,1/2+y,z
1/2+x,1/2-y,z
loop_
_atom_site_type_symbol
_atom_site_label
_atom_site_fract_x
_atom_site_fract_y
_atom_site_fract_z
Si Si1 0.652448 0.301351 0.658630
Si Si2 0.182214 0.053201 0.914641
Si Si3 0.753092 0.642532 0.083975
Si Si4 0.363229 0.797310 0.584693
Si Si5 0.567387 0.446960 0.177773
Si Si6 0.430855 0.343315 0.780777
Si Si7 0.250000 0.250000 0.750000
O O1 0.680252 0.346534 0.614504
O O2 0.629906 0.259345 0.604092
O O3 0.599056 0.316303 0.712473
O O4 0.708902 0.285114 0.704583
O O5 0.225401 0.093907 0.878627
O O6 0.114225 0.058158 0.887636
O O7 0.208681 0.000000 0.896364
O O8 0.177733 0.062933 0.000000
O O9 0.706297 0.686949 0.095068
O O10 0.763647 0.631530 0.000000
O O11 0.383520 0.805593 0.500000
O O12 0.403654 0.828353 0.640456
O O13 0.500000 0.443555 0.144651
O O14 0.575845 0.500000 0.216974
O O15 0.577068 0.401287 0.231998
O O16 0.500000 0.327672 0.780668
#
# Coordination Sequence:
#
# PCOD8284378 Si02
#       7
#    32  32  32  32  32  32   8
#     4  12  21  36  54  77 105 143 184 218 257 310
#     4   9  17  30  49  76 109 140 171 215 269 320
#     4  10  19  33  54  79 105 136 175 220 264 311
#     4  11  21  35  54  79 107 138 177 222 263 311
#     4   9  18  33  51  72 101 139 180 218 257 312
#     4  11  23  38  55  77 107 143 178 219 268 316
#     4  12  20  32  52  76  98 136 174 210 248 300
#
# _framework density 17.791446000000001
#
# number of rings (size 3 to 8) (size 9 to 14) (size 15 to 20)
#    0.000    1.600    4.800    0.480    0.000    3.200 
#    0.000    4.000    0.000    3.360    0.000    0.000 
#    0.000    0.000    0.000   20.000    0.000    0.000 
#
# Total GULP energy -619537.498554 kJ/mol
# GULP energy per Si atom -12390.749971 kJ/mol
# Density = 1.775095 g / cm^3
# Si number density = 17.791446 Si / 1000 Ang^3
#
#
#
# Elastic Constant Matrix: (Units=GPa)
#
#
# Indices 1 2 3 4 5 6 
#
# 1 72.6716 33.9455 39.5894 0.0000 0.0000 0.0000
# 2 33.9455 120.2009 39.2873 0.0000 0.0000 0.0000
# 3 39.5894 39.2873 68.4166 0.0000 0.0000 0.0000
# 4 0.0000 0.0000 0.0000 21.4879 0.0000 0.0000
# 5 0.0000 0.0000 0.0000 0.0000 15.5341 0.0000
# 6 0.0000 0.0000 0.0000 0.0000 0.0000 16.2654
#
#
#
# Elastic Compliance Matrix: (Units=1/GPa)
#
#
# Indices 1 2 3 4 5 6 
#
# 1 0.020629 -0.002369 -0.010577 0.000000 0.000000 0.000000
# 2 -0.002369 0.010514 -0.004667 0.000000 0.000000 0.000000
# 3 -0.010577 -0.004667 0.023416 0.000000 0.000000 0.000000
# 4 0.000000 0.000000 0.000000 0.046538 0.000000 0.000000
# 5 0.000000 0.000000 0.000000 0.000000 0.064374 0.000000
# 6 0.000000 0.000000 0.000000 0.000000 0.000000 0.061480
#
#
# Mechanical properties :
#
#
# Convention : Reuss Voigt Hill
#
# Bulk Modulus (GPa) = 51.72067 54.10375 52.91221
# Shear Modulus (GPa) = 18.61365 20.55529 19.58447
#
# Velocity S-wave (km/s) = 3.23803 3.40273 3.32140
# Velocity P-wave (km/s) = 6.56608 6.77599 6.67186
#
# Compressibility (1/GPa) = 0.01933463
#
# Stress axis : x y z
#
# Youngs Moduli (GPa) = 48.47571 95.11463 42.70530
#
# Poissons Ratio (x) = 0.22530 0.45168
# Poissons Ratio (y) = 0.11483 0.19929
# Poissons Ratio (z) = 0.51271 0.44386
#
# Static dielectric constant tensor:
#      x y z
#    x 3.111840 0.000000 0.000000 
#    y 0.000000 3.816330 0.000000 
#    z 0.000000 0.000000 17.927560 
# 
# 
# High freq. dielectric constant tensor:
#      x y z
#    x 1.672370 0.000000 0.000000 
#    y 0.000000 1.704690 0.000000 
#    z 0.000000 0.000000 1.658630 
# 
# From -- ./inp_files/25201.got.cif
#   From: 2010.03.12/outbox.cif.g09.slc.cpg/sg69_13_cif.got.tgz:25201.got - 2010.04.10 23:52:46.
