data_PCOD8284137
_publ_section_title
;
Structure prediction by ZEFSAII (Michael W. Deem and Ramdas Pophale) SiO2 
 PCOD8284137
Probable space group: F M M M
;
_chemical_formula_sum "Si O2"
_cell_formula_units_Z 176
_cell_length_a 14.663384
_cell_length_b 23.264773
_cell_length_c 33.006764
_cell_angle_alpha 90.000000
_cell_angle_beta 90.000000
_cell_angle_gamma 90.000000
_cell_volume 11259.937379
_symmetry_space_group_name_H-M "F M M M"
_symmetry_group_IT_number 69
_symmetry_cell_setting 'orthorhombic'
loop_
_space_group_symop_operation_xyz
x,y,z
-x,-y,z
x,-y,-z
-x,y,-z
-x,-y,-z
x,y,-z
-x,y,z
x,-y,z
x,1/2+y,1/2+z
-x,1/2-y,1/2+z
x,1/2-y,1/2-z
-x,1/2+y,1/2-z
-x,1/2-y,1/2-z
x,1/2+y,1/2-z
-x,1/2+y,1/2+z
x,1/2-y,1/2+z
1/2+x,y,1/2+z
1/2-x,-y,1/2+z
1/2+x,-y,1/2-z
1/2-x,y,1/2-z
1/2-x,-y,1/2-z
1/2+x,y,1/2-z
1/2-x,y,1/2+z
1/2+x,-y,1/2+z
1/2+x,1/2+y,z
1/2-x,1/2-y,z
1/2+x,1/2-y,-z
1/2-x,1/2+y,-z
1/2-x,1/2-y,-z
1/2+x,1/2+y,-z
1/2-x,1/2+y,z
1/2+x,1/2-y,z
loop_
_atom_site_type_symbol
_atom_site_label
_atom_site_fract_x
_atom_site_fract_y
_atom_site_fract_z
Si Si1 0.898394 0.364369 0.811258
Si Si2 0.733141 0.066494 0.341717
Si Si3 0.896970 0.879770 0.782582
Si Si4 0.357120 0.756270 0.705013
Si Si5 0.607717 0.437384 0.000000
Si Si6 0.397442 0.931226 0.587065
O O1 0.827255 0.398156 0.839322
O O2 0.868821 0.371887 0.764310
O O3 0.897940 0.295921 0.821850
O O4 0.000000 0.388725 0.819282
O O5 0.671300 0.073783 0.301637
O O6 0.675144 0.090256 0.379854
O O7 0.758830 0.000000 0.346511
O O8 0.886243 0.820302 0.808518
O O9 0.000000 0.902733 0.786367
O O10 0.397710 0.750000 0.750000
O O11 0.250000 0.750000 0.704126
O O12 0.633588 0.406061 0.957375
O O13 0.655285 0.500000 0.000000
O O14 0.500000 0.445735 0.000000
O O15 0.500000 0.909768 0.598418
O O16 0.398339 0.000000 0.585072
#
# Coordination Sequence:
#
# PCOD8284137 Si02
#       6
#    32  32  32  32  16  32
#     4  10  20  32  44  58  79 111 150 186 213 240
#     4  11  21  30  40  58  87 119 145 169 200 247
#     4  10  19  30  45  62  80 106 141 183 226 256
#     4   9  15  28  48  63  75  96 134 187 234 258
#     4   7  10  20  40  62  81 102 129 163 207 255
#     4   8  14  25  41  61  84 108 134 167 208 251
#
# _framework density 15.630637
#
# number of rings (size 3 to 8) (size 9 to 14) (size 15 to 20)
#    0.000    2.636    1.818    2.727    0.000    5.091 
#    0.000    1.818    0.000    0.000    0.000    0.636 
#    0.000    6.545    0.000    3.818    0.000    0.545 
#
# Total GULP energy -545115.094205 kJ/mol
# GULP energy per Si atom -12388.979414 kJ/mol
# Density = 1.559506 g / cm^3
# Si number density = 15.630637 Si / 1000 Ang^3
#
#
#
# Elastic Constant Matrix: (Units=GPa)
#
#
# Indices 1 2 3 4 5 6 
#
# 1 94.4024 23.6179 42.6599 0.0000 0.0000 0.0000
# 2 23.6179 46.7017 19.6402 0.0000 0.0000 0.0000
# 3 42.6599 19.6402 74.2492 0.0000 0.0000 0.0000
# 4 0.0000 0.0000 0.0000 5.1000 0.0000 0.0000
# 5 0.0000 0.0000 0.0000 0.0000 14.6060 0.0000
# 6 0.0000 0.0000 0.0000 0.0000 0.0000 19.1481
#
#
#
# Elastic Compliance Matrix: (Units=1/GPa)
#
#
# Indices 1 2 3 4 5 6 
#
# 1 0.015100 -0.004487 -0.007489 0.000000 0.000000 0.000000
# 2 -0.004487 0.025426 -0.004148 0.000000 0.000000 0.000000
# 3 -0.007489 -0.004148 0.018868 0.000000 0.000000 0.000000
# 4 0.000000 0.000000 0.000000 0.196079 0.000000 0.000000
# 5 0.000000 0.000000 0.000000 0.000000 0.068465 0.000000
# 6 0.000000 0.000000 0.000000 0.000000 0.000000 0.052224
#
#
# Mechanical properties :
#
#
# Convention : Reuss Voigt Hill
#
# Bulk Modulus (GPa) = 36.83642 43.02106 39.92874
# Shear Modulus (GPa) = 11.97728 16.39984 14.18856
#
# Velocity S-wave (km/s) = 2.77116 3.24267 3.01614
# Velocity P-wave (km/s) = 5.81868 6.45005 6.14248
#
# Compressibility (1/GPa) = 0.02714705
#
# Stress axis : x y z
#
# Youngs Moduli (GPa) = 66.22713 39.33007 53.00009
#
# Poissons Ratio (x) = 0.17647 0.39690
# Poissons Ratio (y) = 0.29715 0.21983
# Poissons Ratio (z) = 0.49595 0.16313
#
# Static dielectric constant tensor:
#      x y z
#    x 2.929180 0.000000 0.000000 
#    y 0.000000 2.845470 0.000000 
#    z 0.000000 0.000000 2.996750 
# 
# 
# High freq. dielectric constant tensor:
#      x y z
#    x 1.598890 0.000000 0.000000 
#    y 0.000000 1.573640 0.000000 
#    z 0.000000 0.000000 1.554350 
# 
# From -- ./inp_files/45844.got.cif
#   From: 2010.03.12/outbox.cif.g09.slc.cpg/sg69_23_cif.got.tgz:45844.got - 2010.04.10 23:52:46.
