data_PCOD8284565
_publ_section_title
;
Structure prediction by ZEFSAII (Michael W. Deem and Ramdas Pophale) SiO2 
 PCOD8284565
Probable space group: F M M M
;
_chemical_formula_sum "Si O2"
_cell_formula_units_Z 240
_cell_length_a 32.602823
_cell_length_b 18.923983
_cell_length_c 19.575676
_cell_angle_alpha 90.000000
_cell_angle_beta 90.000000
_cell_angle_gamma 90.000000
_cell_volume 12077.707950
_symmetry_space_group_name_H-M "F M M M"
_symmetry_group_IT_number 69
_symmetry_cell_setting 'orthorhombic'
loop_
_space_group_symop_operation_xyz
x,y,z
-x,-y,z
x,-y,-z
-x,y,-z
-x,-y,-z
x,y,-z
-x,y,z
x,-y,z
x,1/2+y,1/2+z
-x,1/2-y,1/2+z
x,1/2-y,1/2-z
-x,1/2+y,1/2-z
-x,1/2-y,1/2-z
x,1/2+y,1/2-z
-x,1/2+y,1/2+z
x,1/2-y,1/2+z
1/2+x,y,1/2+z
1/2-x,-y,1/2+z
1/2+x,-y,1/2-z
1/2-x,y,1/2-z
1/2-x,-y,1/2-z
1/2+x,y,1/2-z
1/2-x,y,1/2+z
1/2+x,-y,1/2+z
1/2+x,1/2+y,z
1/2-x,1/2-y,z
1/2+x,1/2-y,-z
1/2-x,1/2+y,-z
1/2-x,1/2-y,-z
1/2+x,1/2+y,-z
1/2-x,1/2+y,z
1/2+x,1/2-y,z
loop_
_atom_site_type_symbol
_atom_site_label
_atom_site_fract_x
_atom_site_fract_y
_atom_site_fract_z
Si Si1 0.328566 0.826706 0.670932
Si Si2 0.254366 0.166549 0.421963
Si Si3 0.044838 0.577620 0.256943
Si Si4 0.953592 0.197474 0.423142
Si Si5 0.179731 0.659847 0.173073
Si Si6 0.419717 0.337800 0.871114
Si Si7 0.100357 0.580840 0.129069
Si Si8 0.047539 0.416204 0.500000
O O1 0.297368 0.855342 0.613134
O O2 0.329399 0.742384 0.668134
O O3 0.315570 0.856890 0.745804
O O4 0.373474 0.853908 0.651801
O O5 0.251470 0.135649 0.500000
O O6 0.250000 0.250000 0.426373
O O7 0.219670 0.137519 0.370403
O O8 0.048684 0.500000 0.291232
O O9 0.049152 0.637514 0.313102
O O10 0.080024 0.587072 0.202413
O O11 0.000000 0.586091 0.222494
O O12 0.955450 0.225877 0.500000
O O13 0.928312 0.254673 0.379660
O O14 0.928649 0.123977 0.422682
O O15 0.000000 0.187562 0.395023
O O16 0.144822 0.614924 0.135774
O O17 0.428814 0.384250 0.936467
O O18 0.103712 0.500000 0.103344
O O19 0.051602 0.500000 0.500000
O O20 0.000000 0.392409 0.500000
#
# Coordination Sequence:
#
# PCOD8284565 Si02
#       8
#    32  32  32  32  32  32  32  16
#     4  10  20  34  60  91 125 153 194 246 306 367
#     4   9  19  34  59  91 121 152 192 242 301 365
#     4  10  21  37  58  86 121 160 203 249 298 359
#     4  11  24  40  58  84 119 159 208 263 313 361
#     4  10  19  38  57  88 123 155 193 247 306 368
#     4  12  21  36  61  90 123 161 201 248 305 360
#     4  11  23  40  60  84 116 159 210 258 308 363
#     4  11  24  40  58  86 126 173 211 239 293 368
#
# _framework density 19.871320000000001
#
# number of rings (size 3 to 8) (size 9 to 14) (size 15 to 20)
#    0.000    1.533    3.333    2.400    0.933    4.800 
#    0.000    2.000    0.000    3.200    0.000    0.000 
#    0.000    0.000    0.000    0.000    0.000    0.000 
#
# Total GULP energy -743822.989933 kJ/mol
# GULP energy per Si atom -12397.049832 kJ/mol
# Density = 1.982609 g / cm^3
# Si number density = 19.871320 Si / 1000 Ang^3
#
#
#
# Elastic Constant Matrix: (Units=GPa)
#
#
# Indices 1 2 3 4 5 6 
#
# 1 141.1551 31.6724 59.9629 0.0000 0.0000 0.0000
# 2 31.6724 69.2694 24.2876 0.0000 0.0000 0.0000
# 3 59.9629 24.2876 108.2023 0.0000 0.0000 0.0000
# 4 0.0000 0.0000 0.0000 24.6169 0.0000 0.0000
# 5 0.0000 0.0000 0.0000 0.0000 30.0873 0.0000
# 6 0.0000 0.0000 0.0000 0.0000 0.0000 24.5768
#
#
#
# Elastic Compliance Matrix: (Units=1/GPa)
#
#
# Indices 1 2 3 4 5 6 
#
# 1 0.009734 -0.002778 -0.004771 0.000000 0.000000 0.000000
# 2 -0.002778 0.016462 -0.002156 0.000000 0.000000 0.000000
# 3 -0.004771 -0.002156 0.012370 0.000000 0.000000 0.000000
# 4 0.000000 0.000000 0.000000 0.040622 0.000000 0.000000
# 5 0.000000 0.000000 0.000000 0.000000 0.033237 0.000000
# 6 0.000000 0.000000 0.000000 0.000000 0.000000 0.040689
#
#
# Mechanical properties :
#
#
# Convention : Reuss Voigt Hill
#
# Bulk Modulus (GPa) = 52.19986 61.16362 56.68174
# Shear Modulus (GPa) = 27.94700 29.36978 28.65839
#
# Velocity S-wave (km/s) = 3.75427 3.84865 3.80175
# Velocity P-wave (km/s) = 6.71704 7.11309 6.91790
#
# Compressibility (1/GPa) = 0.01915714
#
# Stress axis : x y z
#
# Youngs Moduli (GPa) = 102.72743 60.74420 80.84205
#
# Poissons Ratio (x) = 0.16875 0.38570
# Poissons Ratio (y) = 0.28539 0.17427
# Poissons Ratio (z) = 0.49011 0.13094
#
# Static dielectric constant tensor:
#      x y z
#    x 3.667530 0.000000 0.000000 
#    y 0.000000 3.436700 0.000000 
#    z 0.000000 0.000000 3.582790 
# 
# 
# High freq. dielectric constant tensor:
#      x y z
#    x 1.784810 0.000000 0.000000 
#    y 0.000000 1.748820 0.000000 
#    z 0.000000 0.000000 1.776970 
# 
# From -- ./inp_files/33576.got.cif
#   From: 2010.03.12/outbox.cif.g09.slc.cpg/sg69_17_cif.got.tgz:33576.got - 2010.04.10 23:52:46.
