data_PCOD8284875
_publ_section_title
;
Structure prediction by ZEFSAII (Michael W. Deem and Ramdas Pophale) SiO2 
 PCOD8284875
Probable space group: F M M M
;
_chemical_formula_sum "Si O2"
_cell_formula_units_Z 144
_cell_length_a 17.118661
_cell_length_b 28.771143
_cell_length_c 13.382598
_cell_angle_alpha 90.000000
_cell_angle_beta 90.000000
_cell_angle_gamma 90.000000
_cell_volume 6591.243251
_symmetry_space_group_name_H-M "F M M M"
_symmetry_group_IT_number 69
_symmetry_cell_setting 'orthorhombic'
loop_
_space_group_symop_operation_xyz
x,y,z
-x,-y,z
x,-y,-z
-x,y,-z
-x,-y,-z
x,y,-z
-x,y,z
x,-y,z
x,1/2+y,1/2+z
-x,1/2-y,1/2+z
x,1/2-y,1/2-z
-x,1/2+y,1/2-z
-x,1/2-y,1/2-z
x,1/2+y,1/2-z
-x,1/2+y,1/2+z
x,1/2-y,1/2+z
1/2+x,y,1/2+z
1/2-x,-y,1/2+z
1/2+x,-y,1/2-z
1/2-x,y,1/2-z
1/2-x,-y,1/2-z
1/2+x,y,1/2-z
1/2-x,y,1/2+z
1/2+x,-y,1/2+z
1/2+x,1/2+y,z
1/2-x,1/2-y,z
1/2+x,1/2-y,-z
1/2-x,1/2+y,-z
1/2-x,1/2-y,-z
1/2+x,1/2+y,-z
1/2-x,1/2+y,z
1/2+x,1/2-y,z
loop_
_atom_site_type_symbol
_atom_site_label
_atom_site_fract_x
_atom_site_fract_y
_atom_site_fract_z
Si Si1 0.640651 0.669985 0.382200
Si Si2 0.587713 0.588399 0.735857
Si Si3 0.407348 0.000000 0.887638
Si Si4 0.088799 0.730264 0.381439
Si Si5 0.684892 0.141955 0.382617
O O1 0.628631 0.671689 0.500000
O O2 0.580819 0.633197 0.336171
O O3 0.624122 0.721591 0.337819
O O4 0.726104 0.651278 0.351979
O O5 0.500000 0.577977 0.776454
O O6 0.621494 0.545331 0.672174
O O7 0.647691 0.597235 0.827488
O O8 0.500000 0.000000 0.895990
O O9 0.371265 0.000000 0.000000
O O10 0.095569 0.731310 0.500000
O O11 0.137291 0.686422 0.341713
O O12 0.000000 0.724750 0.345592
O O13 0.675469 0.133937 0.500000
#
# Coordination Sequence:
#
# PCOD8284875 Si02
#       5
#    32  32  16  32  32
#     4  10  20  35  56  83 115 151 192 239 289 338
#     4  11  22  37  60  86 110 142 188 238 289 345
#     4   9  20  40  64  89 115 141 177 236 302 348
#     4   9  17  31  53  81 114 154 199 242 281 325
#     4  10  21  37  55  80 120 162 193 228 280 341
#
# _framework density 21.847168
#
# number of rings (size 3 to 8) (size 9 to 14) (size 15 to 20)
#    0.000    2.111    0.000    3.333    0.000    7.111 
#    0.000    7.222    0.000    4.667    0.000    0.000 
#    0.000    0.000    0.000    0.000    0.000    0.222 
#
# Total GULP energy -446432.810043 kJ/mol
# GULP energy per Si atom -12400.911390 kJ/mol
# Density = 2.179744 g / cm^3
# Si number density = 21.847168 Si / 1000 Ang^3
#
#
#
# Elastic Constant Matrix: (Units=GPa)
#
#
# Indices 1 2 3 4 5 6 
#
# 1 91.4184 23.0824 15.7051 0.0000 0.0000 0.0000
# 2 23.0824 130.6611 36.8439 0.0000 0.0000 0.0000
# 3 15.7051 36.8439 26.6203 0.0000 0.0000 0.0000
# 4 0.0000 0.0000 0.0000 30.6372 0.0000 0.0000
# 5 0.0000 0.0000 0.0000 0.0000 25.6045 0.0000
# 6 0.0000 0.0000 0.0000 0.0000 0.0000 22.8160
#
#
#
# Elastic Compliance Matrix: (Units=1/GPa)
#
#
# Indices 1 2 3 4 5 6 
#
# 1 0.012176 -0.000206 -0.006899 0.000000 0.000000 0.000000
# 2 -0.000206 0.012556 -0.017256 0.000000 0.000000 0.000000
# 3 -0.006899 -0.017256 0.065519 0.000000 0.000000 0.000000
# 4 0.000000 0.000000 0.000000 0.032640 0.000000 0.000000
# 5 0.000000 0.000000 0.000000 0.000000 0.039056 0.000000
# 6 0.000000 0.000000 0.000000 0.000000 0.000000 0.043829
#
#
# Mechanical properties :
#
#
# Convention : Reuss Voigt Hill
#
# Bulk Modulus (GPa) = 24.07946 44.44029 34.25987
# Shear Modulus (GPa) = 18.63309 27.34944 22.99127
#
# Velocity S-wave (km/s) = 2.92358 3.54199 3.24754
# Velocity P-wave (km/s) = 4.73732 6.09206 5.45689
#
# Compressibility (1/GPa) = 0.04152918
#
# Stress axis : x y z
#
# Youngs Moduli (GPa) = 82.13019 79.64503 15.26269
#
# Poissons Ratio (x) = 0.01638 0.10529
# Poissons Ratio (y) = 0.01689 0.26338
# Poissons Ratio (z) = 0.56659 1.37439
#
# Static dielectric constant tensor:
#      x y z
#    x 3.789790 0.000000 0.000000 
#    y 0.000000 3.929760 0.000000 
#    z 0.000000 0.000000 3.943930 
# 
# 
# High freq. dielectric constant tensor:
#      x y z
#    x 1.849950 0.000000 0.000000 
#    y 0.000000 1.842570 0.000000 
#    z 0.000000 0.000000 1.877620 
# 
# From -- ./inp_files/15571.got.cif
#   From: 2010.03.12/outbox.cif.g09.slc.cpg/sg69_8_cif.got.tgz:15571.got - 2010.04.10 23:52:46.
