data_PCOD8284491
_publ_section_title
;
Structure prediction by ZEFSAII (Michael W. Deem and Ramdas Pophale) SiO2 
 PCOD8284491
Probable space group: F M M M
;
_chemical_formula_sum "Si O2"
_cell_formula_units_Z 144
_cell_length_a 30.077177
_cell_length_b 13.973612
_cell_length_c 17.710982
_cell_angle_alpha 90.000000
_cell_angle_beta 90.000000
_cell_angle_gamma 90.000000
_cell_volume 7443.691975
_symmetry_space_group_name_H-M "F M M M"
_symmetry_group_IT_number 69
_symmetry_cell_setting 'orthorhombic'
loop_
_space_group_symop_operation_xyz
x,y,z
-x,-y,z
x,-y,-z
-x,y,-z
-x,-y,-z
x,y,-z
-x,y,z
x,-y,z
x,1/2+y,1/2+z
-x,1/2-y,1/2+z
x,1/2-y,1/2-z
-x,1/2+y,1/2-z
-x,1/2-y,1/2-z
x,1/2+y,1/2-z
-x,1/2+y,1/2+z
x,1/2-y,1/2+z
1/2+x,y,1/2+z
1/2-x,-y,1/2+z
1/2+x,-y,1/2-z
1/2-x,y,1/2-z
1/2-x,-y,1/2-z
1/2+x,y,1/2-z
1/2-x,y,1/2+z
1/2+x,-y,1/2+z
1/2+x,1/2+y,z
1/2-x,1/2-y,z
1/2+x,1/2-y,-z
1/2-x,1/2+y,-z
1/2-x,1/2-y,-z
1/2+x,1/2+y,-z
1/2-x,1/2+y,z
1/2+x,1/2-y,z
loop_
_atom_site_type_symbol
_atom_site_label
_atom_site_fract_x
_atom_site_fract_y
_atom_site_fract_z
Si Si1 0.292553 0.315943 0.914811
Si Si2 0.628971 0.000000 0.783571
Si Si3 0.713548 0.000000 0.315450
Si Si4 0.628469 0.708069 0.333638
Si Si5 0.551149 0.305385 0.087866
Si Si6 0.948760 0.000000 0.171489
O O1 0.250000 0.250000 0.912233
O O2 0.279994 0.407212 0.865884
O O3 0.334304 0.258395 0.883223
O O4 0.303882 0.347877 0.000000
O O5 0.636095 0.906055 0.834603
O O6 0.663937 0.000000 0.715927
O O7 0.579908 0.000000 0.747604
O O8 0.750000 0.000000 0.250000
O O9 0.630327 0.750000 0.250000
O O10 0.580301 0.726190 0.369843
O O11 0.500000 0.278605 0.102411
O O12 0.563137 0.408886 0.120842
O O13 0.562702 0.306697 0.000000
O O14 0.000000 0.000000 0.196660
#
# Coordination Sequence:
#
# PCOD8284491 Si02
#       6
#    32  16  16  32  32  16
#     4  11  25  43  64  93 126 165 207 252 306 368
#     4  12  24  38  57  96 119 157 205 247 311 362
#     4  12  23  39  68  94 124 162 203 257 310 363
#     4  12  23  40  63  88 124 161 204 254 310 366
#     4  10  21  38  61  89 122 161 203 253 313 372
#     4  10  19  34  60  90 123 154 197 259 312 368
#
# _framework density 19.345237999999998
#
# number of rings (size 3 to 8) (size 9 to 14) (size 15 to 20)
#    0.000    0.889    4.444    2.667    0.000    2.667 
#    0.000    6.667    0.000    1.333    0.000    0.000 
#    0.000    0.000    0.000    0.000    0.000    0.000 
#
# Total GULP energy -446601.083139 kJ/mol
# GULP energy per Si atom -12405.585643 kJ/mol
# Density = 1.930121 g / cm^3
# Si number density = 19.345238 Si / 1000 Ang^3
#
#
#
# Elastic Constant Matrix: (Units=GPa)
#
#
# Indices 1 2 3 4 5 6 
#
# 1 95.5543 38.3145 60.5089 0.0000 0.0000 0.0000
# 2 38.3145 146.1526 68.5274 0.0000 0.0000 0.0000
# 3 60.5089 68.5274 126.7337 0.0000 0.0000 0.0000
# 4 0.0000 0.0000 0.0000 22.6658 0.0000 0.0000
# 5 0.0000 0.0000 0.0000 0.0000 35.9775 0.0000
# 6 0.0000 0.0000 0.0000 0.0000 0.0000 20.8800
#
#
#
# Elastic Compliance Matrix: (Units=1/GPa)
#
#
# Indices 1 2 3 4 5 6 
#
# 1 0.015065 -0.000773 -0.006775 0.000000 0.000000 0.000000
# 2 -0.000773 0.009206 -0.004609 0.000000 0.000000 0.000000
# 3 -0.006775 -0.004609 0.013617 0.000000 0.000000 0.000000
# 4 0.000000 0.000000 0.000000 0.044119 0.000000 0.000000
# 5 0.000000 0.000000 0.000000 0.000000 0.027795 0.000000
# 6 0.000000 0.000000 0.000000 0.000000 0.000000 0.047893
#
#
# Mechanical properties :
#
#
# Convention : Reuss Voigt Hill
#
# Bulk Modulus (GPa) = 73.66367 78.12689 75.89528
# Shear Modulus (GPa) = 26.80476 29.31063 28.05770
#
# Velocity S-wave (km/s) = 3.72640 3.89670 3.81250
# Velocity P-wave (km/s) = 7.52834 7.79223 7.66142
#
# Compressibility (1/GPa) = 0.01357521
#
# Stress axis : x y z
#
# Youngs Moduli (GPa) = 66.37730 108.62874 73.43566
#
# Poissons Ratio (x) = 0.08394 0.49753
# Poissons Ratio (y) = 0.05129 0.33844
# Poissons Ratio (z) = 0.44971 0.50064
#
# Static dielectric constant tensor:
#      x y z
#    x 3.734170 0.000000 0.000000 
#    y 0.000000 3.677660 0.000000 
#    z 0.000000 0.000000 3.650810 
# 
# 
# High freq. dielectric constant tensor:
#      x y z
#    x 1.770400 0.000000 0.000000 
#    y 0.000000 1.757640 0.000000 
#    z 0.000000 0.000000 1.754420 
# 
# From -- ./inp_files/27437.got.cif
#   From: 2010.03.12/outbox.cif.g09.slc.cpg/sg69_14_cif.got.tgz:27437.got - 2010.04.10 23:52:46.
