data_PCOD8284408
_publ_section_title
;
Structure prediction by ZEFSAII (Michael W. Deem and Ramdas Pophale) SiO2 
 PCOD8284408
Probable space group: F M M M
;
_chemical_formula_sum "Si O2"
_cell_formula_units_Z 192
_cell_length_a 20.655512
_cell_length_b 18.125090
_cell_length_c 27.048825
_cell_angle_alpha 90.000000
_cell_angle_beta 90.000000
_cell_angle_gamma 90.000000
_cell_volume 10126.620629
_symmetry_space_group_name_H-M "F M M M"
_symmetry_group_IT_number 69
_symmetry_cell_setting 'orthorhombic'
loop_
_space_group_symop_operation_xyz
x,y,z
-x,-y,z
x,-y,-z
-x,y,-z
-x,-y,-z
x,y,-z
-x,y,z
x,-y,z
x,1/2+y,1/2+z
-x,1/2-y,1/2+z
x,1/2-y,1/2-z
-x,1/2+y,1/2-z
-x,1/2-y,1/2-z
x,1/2+y,1/2-z
-x,1/2+y,1/2+z
x,1/2-y,1/2+z
1/2+x,y,1/2+z
1/2-x,-y,1/2+z
1/2+x,-y,1/2-z
1/2-x,y,1/2-z
1/2-x,-y,1/2-z
1/2+x,y,1/2-z
1/2-x,y,1/2+z
1/2+x,-y,1/2+z
1/2+x,1/2+y,z
1/2-x,1/2-y,z
1/2+x,1/2-y,-z
1/2-x,1/2+y,-z
1/2-x,1/2-y,-z
1/2+x,1/2+y,-z
1/2-x,1/2+y,z
1/2+x,1/2-y,z
loop_
_atom_site_type_symbol
_atom_site_label
_atom_site_fract_x
_atom_site_fract_y
_atom_site_fract_z
Si Si1 0.574441 0.583743 0.193838
Si Si2 0.878487 0.341632 0.603330
Si Si3 0.882978 0.828838 0.608614
Si Si4 0.500000 0.912688 0.058025
Si Si5 0.925860 0.181605 0.716977
Si Si6 0.254203 0.837325 0.055694
Si Si7 0.000000 0.086735 0.054377
O O1 0.500000 0.590937 0.175836
O O2 0.598996 0.500000 0.188823
O O3 0.619417 0.638808 0.161663
O O4 0.579789 0.607370 0.250939
O O5 0.891483 0.255911 0.592332
O O6 0.810660 0.369015 0.580653
O O7 0.934995 0.388673 0.580141
O O8 0.883450 0.831658 0.668122
O O9 0.815071 0.861511 0.589091
O O10 0.937729 0.878230 0.583964
O O11 0.500000 0.000000 0.066986
O O12 0.500000 0.893256 0.000000
O O13 0.900226 0.250000 0.750000
O O14 0.000000 0.197745 0.700628
O O15 0.250000 0.750000 0.054035
O O16 0.261571 0.869030 0.000000
O O17 0.000000 0.000000 0.053544
O O18 0.000000 0.121391 0.000000
#
# Coordination Sequence:
#
# PCOD8284408 Si02
#       7
#    32  32  32  16  32  32  16
#     4  10  20  34  56  86 123 158 186 230 295 359
#     4  11  20  35  60  88 118 153 193 243 294 356
#     4  11  21  38  64  86 113 156 200 249 304 349
#     4  11  25  41  57  84 118 151 204 265 304 344
#     4  10  19  33  56  89 121 150 194 249 294 355
#     4   9  20  37  58  86 119 152 196 247 295 353
#     4  11  23  35  52  85 124 155 191 236 287 356
#
# _framework density 18.959928999999999
#
# number of rings (size 3 to 8) (size 9 to 14) (size 15 to 20)
#    0.000    1.667    3.333    2.000    0.000    3.333 
#    0.000    2.500    0.000    5.000    0.000    0.000 
#    0.000    0.000    0.000    0.000    0.000    0.000 
#
# Total GULP energy -595217.963531 kJ/mol
# GULP energy per Si atom -12400.374240 kJ/mol
# Density = 1.891678 g / cm^3
# Si number density = 18.959929 Si / 1000 Ang^3
#
#
#
# Elastic Constant Matrix: (Units=GPa)
#
#
# Indices 1 2 3 4 5 6 
#
# 1 138.8680 33.6222 75.1911 0.0000 0.0000 0.0000
# 2 33.6222 71.7846 30.4992 0.0000 0.0000 0.0000
# 3 75.1911 30.4992 145.8463 0.0000 0.0000 0.0000
# 4 0.0000 0.0000 0.0000 26.4286 0.0000 0.0000
# 5 0.0000 0.0000 0.0000 0.0000 29.9523 0.0000
# 6 0.0000 0.0000 0.0000 0.0000 0.0000 42.7074
#
#
#
# Elastic Compliance Matrix: (Units=1/GPa)
#
#
# Indices 1 2 3 4 5 6 
#
# 1 0.010504 -0.002874 -0.004814 0.000000 0.000000 0.000000
# 2 -0.002874 0.016076 -0.001880 0.000000 0.000000 0.000000
# 3 -0.004814 -0.001880 0.009732 0.000000 0.000000 0.000000
# 4 0.000000 0.000000 0.000000 0.037838 0.000000 0.000000
# 5 0.000000 0.000000 0.000000 0.000000 0.033386 0.000000
# 6 0.000000 0.000000 0.000000 0.000000 0.000000 0.023415
#
#
# Mechanical properties :
#
#
# Convention : Reuss Voigt Hill
#
# Bulk Modulus (GPa) = 58.22671 70.56931 64.39801
# Shear Modulus (GPa) = 32.09012 34.29675 33.19344
#
# Velocity S-wave (km/s) = 4.11849 4.25774 4.18869
# Velocity P-wave (km/s) = 7.30705 7.84042 7.57843
#
# Compressibility (1/GPa) = 0.01717425
#
# Stress axis : x y z
#
# Youngs Moduli (GPa) = 95.20530 62.20639 102.75860
#
# Poissons Ratio (x) = 0.17880 0.49469
# Poissons Ratio (y) = 0.27365 0.19317
# Poissons Ratio (z) = 0.45833 0.11694
#
# Static dielectric constant tensor:
#      x y z
#    x 3.601850 0.000000 0.000000 
#    y 0.000000 3.322100 0.000000 
#    z 0.000000 0.000000 3.747120 
# 
# 
# High freq. dielectric constant tensor:
#      x y z
#    x 1.717470 0.000000 0.000000 
#    y 0.000000 1.722910 0.000000 
#    z 0.000000 0.000000 1.752440 
# 
# From -- ./inp_files/46407.got.cif
#   From: 2010.03.12/outbox.cif.g09.slc.cpg/sg69_24_cif.got.tgz:46407.got - 2010.04.10 23:52:46.
