data_PCOD8284856
_publ_section_title
;
Structure prediction by ZEFSAII (Michael W. Deem and Ramdas Pophale) SiO2 
 PCOD8284856
Probable space group: F M M M
;
_chemical_formula_sum "Si O2"
_cell_formula_units_Z 176
_cell_length_a 13.541907
_cell_length_b 23.868858
_cell_length_c 28.249563
_cell_angle_alpha 90.000000
_cell_angle_beta 90.000000
_cell_angle_gamma 90.000000
_cell_volume 9131.102159
_symmetry_space_group_name_H-M "F M M M"
_symmetry_group_IT_number 69
_symmetry_cell_setting 'orthorhombic'
loop_
_space_group_symop_operation_xyz
x,y,z
-x,-y,z
x,-y,-z
-x,y,-z
-x,-y,-z
x,y,-z
-x,y,z
x,-y,z
x,1/2+y,1/2+z
-x,1/2-y,1/2+z
x,1/2-y,1/2-z
-x,1/2+y,1/2-z
-x,1/2-y,1/2-z
x,1/2+y,1/2-z
-x,1/2+y,1/2+z
x,1/2-y,1/2+z
1/2+x,y,1/2+z
1/2-x,-y,1/2+z
1/2+x,-y,1/2-z
1/2-x,y,1/2-z
1/2-x,-y,1/2-z
1/2+x,y,1/2-z
1/2-x,y,1/2+z
1/2+x,-y,1/2+z
1/2+x,1/2+y,z
1/2-x,1/2-y,z
1/2+x,1/2-y,-z
1/2-x,1/2+y,-z
1/2-x,1/2-y,-z
1/2+x,1/2+y,-z
1/2-x,1/2+y,z
1/2+x,1/2-y,z
loop_
_atom_site_type_symbol
_atom_site_label
_atom_site_fract_x
_atom_site_fract_y
_atom_site_fract_z
Si Si1 0.615871 0.770259 0.946362
Si Si2 0.252354 0.435192 0.914570
Si Si3 0.612033 0.136208 0.870647
Si Si4 0.753974 0.315372 0.197796
Si Si5 0.610325 0.564835 0.500000
Si Si6 0.117613 0.161970 0.110821
O O1 0.500000 0.761773 0.948576
O O2 0.641513 0.824861 0.915538
O O3 0.658424 0.714176 0.920793
O O4 0.658450 0.776581 0.000000
O O5 0.285272 0.500000 0.914702
O O6 0.183436 0.418593 0.869822
O O7 0.349924 0.396111 0.915220
O O8 0.176473 0.418608 0.955855
O O9 0.500000 0.116564 0.871056
O O10 0.637843 0.170190 0.823289
O O11 0.750000 0.343589 0.250000
O O12 0.750000 0.250000 0.203888
O O13 0.666208 0.336120 0.163027
O O14 0.587530 0.500000 0.500000
O O15 0.500000 0.595018 0.500000
O O16 0.000000 0.162673 0.116398
#
# Coordination Sequence:
#
# PCOD8284856 Si02
#       6
#    32  32  32  32  16  32
#     4   9  18  32  52  80 112 147 184 220 269 329
#     4  10  22  36  53  80 111 149 194 235 275 323
#     4  10  20  35  56  82 112 144 184 229 278 337
#     4  10  20  35  55  83 116 144 176 226 287 344
#     4   9  18  34  53  76 109 147 191 237 278 319
#     4  10  21  38  58  81 114 152 191 232 277 336
#
# _framework density 19.274781000000001
#
# number of rings (size 3 to 8) (size 9 to 14) (size 15 to 20)
#    0.000    2.273    1.818    0.545    2.545    2.182 
#    0.000    5.455    0.000   10.364    0.000   10.182 
#    0.000    0.000    0.000    0.000    0.000    0.000 
#
# Total GULP energy -545086.555271 kJ/mol
# GULP energy per Si atom -12388.330802 kJ/mol
# Density = 1.923091 g / cm^3
# Si number density = 19.274781 Si / 1000 Ang^3
#
#
#
# Elastic Constant Matrix: (Units=GPa)
#
#
# Indices 1 2 3 4 5 6 
#
# 1 64.9192 13.4975 17.3382 0.0000 0.0000 0.0000
# 2 13.4975 86.9664 23.8882 0.0000 0.0000 0.0000
# 3 17.3382 23.8882 124.5952 0.0000 0.0000 0.0000
# 4 0.0000 0.0000 0.0000 4.7031 0.0000 0.0000
# 5 0.0000 0.0000 0.0000 0.0000 -102.7284 0.0000
# 6 0.0000 0.0000 0.0000 0.0000 0.0000 24.4399
#
#
#
# Elastic Compliance Matrix: (Units=1/GPa)
#
#
# Indices 1 2 3 4 5 6 
#
# 1 0.016326 -0.002016 -0.001885 0.000000 0.000000 0.000000
# 2 -0.002016 0.012387 -0.002094 0.000000 0.000000 0.000000
# 3 -0.001885 -0.002094 0.008690 0.000000 0.000000 0.000000
# 4 0.000000 0.000000 0.000000 0.212625 0.000000 0.000000
# 5 0.000000 0.000000 0.000000 0.000000 -0.009734 0.000000
# 6 0.000000 0.000000 0.000000 0.000000 0.000000 0.040917
#
#
# Mechanical properties :
#
#
# Convention : Reuss Voigt Hill
#
# Bulk Modulus (GPa) = 39.35204 42.88098 41.11651
# Shear Modulus (GPa) = 16.57425 0.06671 8.32048
#
# Velocity S-wave (km/s) = 2.93557 0.18624 2.07994
# Velocity P-wave (km/s) = 5.65250 4.72670 5.21021
#
# Compressibility (1/GPa) = 0.02541164
#
# Stress axis : x y z
#
# Youngs Moduli (GPa) = 61.25028 80.73060 115.07612
#
# Poissons Ratio (x) = 0.16276 0.21696
# Poissons Ratio (y) = 0.12348 0.24101
# Poissons Ratio (z) = 0.11548 0.16908
#
# Static dielectric constant tensor:
#      x y z
#    x 3.504960 0.000000 0.000000 
#    y 0.000000 3.436870 0.000000 
#    z 0.000000 0.000000 3.815970 
# 
# 
# High freq. dielectric constant tensor:
#      x y z
#    x 1.754590 0.000000 0.000000 
#    y 0.000000 1.738760 0.000000 
#    z 0.000000 0.000000 1.734830 
# 
# From -- ./inp_files/38351.got.cif
#   From: 2010.03.12/outbox.cif.g09.slc.cpg/sg69_20_cif.got.tgz:38351.got - 2010.04.10 23:52:46.
