data_PCOD8284252
_publ_section_title
;
Structure prediction by ZEFSAII (Michael W. Deem and Ramdas Pophale) SiO2 
 PCOD8284252
Probable space group: F M M M
;
_chemical_formula_sum "Si O2"
_cell_formula_units_Z 112
_cell_length_a 36.328134
_cell_length_b 19.953127
_cell_length_c 9.036951
_cell_angle_alpha 90.000000
_cell_angle_beta 90.000000
_cell_angle_gamma 90.000000
_cell_volume 6550.523139
_symmetry_space_group_name_H-M "F M M M"
_symmetry_group_IT_number 69
_symmetry_cell_setting 'orthorhombic'
loop_
_space_group_symop_operation_xyz
x,y,z
-x,-y,z
x,-y,-z
-x,y,-z
-x,-y,-z
x,y,-z
-x,y,z
x,-y,z
x,1/2+y,1/2+z
-x,1/2-y,1/2+z
x,1/2-y,1/2-z
-x,1/2+y,1/2-z
-x,1/2-y,1/2-z
x,1/2+y,1/2-z
-x,1/2+y,1/2+z
x,1/2-y,1/2+z
1/2+x,y,1/2+z
1/2-x,-y,1/2+z
1/2+x,-y,1/2-z
1/2-x,y,1/2-z
1/2-x,-y,1/2-z
1/2+x,y,1/2-z
1/2-x,y,1/2+z
1/2+x,-y,1/2+z
1/2+x,1/2+y,z
1/2-x,1/2-y,z
1/2+x,1/2-y,-z
1/2-x,1/2+y,-z
1/2-x,1/2-y,-z
1/2+x,1/2+y,-z
1/2-x,1/2+y,z
1/2+x,1/2-y,z
loop_
_atom_site_type_symbol
_atom_site_label
_atom_site_fract_x
_atom_site_fract_y
_atom_site_fract_z
Si Si1 0.070285 0.920367 0.163908
Si Si2 0.849279 0.074485 0.175958
Si Si3 0.788317 0.820130 0.177896
Si Si4 0.000000 0.919932 0.664845
O O1 0.110326 0.901543 0.233174
O O2 0.036885 0.890719 0.259935
O O3 0.067504 0.000000 0.155992
O O4 0.066174 0.889754 0.000000
O O5 0.818346 0.125848 0.229604
O O6 0.839810 0.000000 0.237213
O O7 0.851113 0.071683 0.000000
O O8 0.800383 0.750000 0.250000
O O9 0.750000 0.843605 0.250000
O O10 0.784823 0.813969 0.000000
O O11 0.000000 0.892289 0.500000
O O12 0.000000 0.000000 0.670756
#
# Coordination Sequence:
#
# PCOD8284252 Si02
#       4
#    32  32  32  16
#     4   8  13  23  39  57  78 108 145 178 208 248
#     4   8  15  28  46  67  89 114 147 186 222 256
#     4  10  19  32  49  67  89 116 147 182 219 262
#     4   9  15  21  31  53  86 117 140 167 209 255
#
# _framework density 17.097871999999999
#
# number of rings (size 3 to 8) (size 9 to 14) (size 15 to 20)
#    0.000    3.286    0.000    3.857    0.000    2.286 
#    0.000    2.857    0.000    6.000    0.000    1.000 
#    0.000    0.000    0.000    0.000    0.000    0.000 
#
# Total GULP energy -346946.501610 kJ/mol
# GULP energy per Si atom -12390.946486 kJ/mol
# Density = 1.705896 g / cm^3
# Si number density = 17.097872 Si / 1000 Ang^3
#
#
#
# Elastic Constant Matrix: (Units=GPa)
#
#
# Indices 1 2 3 4 5 6 
#
# 1 185.0339 79.5821 57.9406 0.0000 0.0000 0.0000
# 2 79.5821 58.6052 28.2993 -0.0001 -0.0001 -0.0001
# 3 57.9406 28.2993 77.3794 -0.0003 -0.0002 -0.0002
# 4 0.0000 -0.0001 -0.0003 12.0709 -0.0001 -0.0001
# 5 0.0000 -0.0001 -0.0002 -0.0001 17.5998 0.0000
# 6 0.0000 -0.0001 -0.0002 -0.0001 0.0000 2.6627
#
#
#
# Elastic Compliance Matrix: (Units=1/GPa)
#
#
# Indices 1 2 3 4 5 6 
#
# 1 0.014086 -0.017045 -0.004314 0.000000 0.000000 -0.000001
# 2 -0.017045 0.041349 -0.002359 0.000000 0.000000 0.000001
# 3 -0.004314 -0.002359 0.017016 0.000000 0.000000 0.000001
# 4 0.000000 0.000000 0.000000 0.082844 0.000000 0.000003
# 5 0.000000 0.000000 0.000000 0.000000 0.056819 0.000001
# 6 -0.000001 0.000001 0.000001 0.000003 0.000001 0.375560
#
#
# Mechanical properties :
#
#
# Convention : Reuss Voigt Hill
#
# Bulk Modulus (GPa) = 39.97551 72.51804 56.24677
# Shear Modulus (GPa) = 7.77063 16.81311 12.29187
#
# Velocity S-wave (km/s) = 2.13417 3.13924 2.68416
# Velocity P-wave (km/s) = 5.43176 7.45958 6.52493
#
# Compressibility (1/GPa) = 0.02501532
#
# Stress axis : x y z
#
# Youngs Moduli (GPa) = 70.99115 24.18458 58.76772
#
# Poissons Ratio (x) = 0.41223 0.25351
# Poissons Ratio (y) = 1.21006 0.13863
# Poissons Ratio (z) = 0.30624 0.05705
#
# Static dielectric constant tensor:
#      x y z
#    x 3.603530 0.000000 0.000000 
#    y 0.000000 2.855900 0.000000 
#    z 0.000000 0.000000 3.093340 
# 
# 
# High freq. dielectric constant tensor:
#      x y z
#    x 1.679490 0.000000 0.000000 
#    y 0.000000 1.604250 0.000000 
#    z 0.000000 0.000000 1.639780 
# 
# From -- ./inp_files/3992.got.cif
#   From: 2010.03.12/outbox.cif.g09.slc.cpg/sg69_2_cif.got.tgz:3992.got - 2010.04.10 23:52:46.
