data_PCOD8284265
_publ_section_title
;
Structure prediction by ZEFSAII (Michael W. Deem and Ramdas Pophale) SiO2 
 PCOD8284265
Probable space group: F M M M
;
_chemical_formula_sum "Si O2"
_cell_formula_units_Z 192
_cell_length_a 16.827853
_cell_length_b 24.933159
_cell_length_c 26.384040
_cell_angle_alpha 90.000000
_cell_angle_beta 90.000000
_cell_angle_gamma 90.000000
_cell_volume 11069.992149
_symmetry_space_group_name_H-M "F M M M"
_symmetry_group_IT_number 69
_symmetry_cell_setting 'orthorhombic'
loop_
_space_group_symop_operation_xyz
x,y,z
-x,-y,z
x,-y,-z
-x,y,-z
-x,-y,-z
x,y,-z
-x,y,z
x,-y,z
x,1/2+y,1/2+z
-x,1/2-y,1/2+z
x,1/2-y,1/2-z
-x,1/2+y,1/2-z
-x,1/2-y,1/2-z
x,1/2+y,1/2-z
-x,1/2+y,1/2+z
x,1/2-y,1/2+z
1/2+x,y,1/2+z
1/2-x,-y,1/2+z
1/2+x,-y,1/2-z
1/2-x,y,1/2-z
1/2-x,-y,1/2-z
1/2+x,y,1/2-z
1/2-x,y,1/2+z
1/2+x,-y,1/2+z
1/2+x,1/2+y,z
1/2-x,1/2-y,z
1/2+x,1/2-y,-z
1/2-x,1/2+y,-z
1/2-x,1/2-y,-z
1/2+x,1/2+y,-z
1/2-x,1/2+y,z
1/2+x,1/2-y,z
loop_
_atom_site_type_symbol
_atom_site_label
_atom_site_fract_x
_atom_site_fract_y
_atom_site_fract_z
Si Si1 0.500000 0.936195 0.943719
Si Si2 0.672833 0.437610 0.897905
Si Si3 0.407642 0.359968 0.819256
Si Si4 0.907360 0.362217 0.798342
Si Si5 0.352398 0.438341 0.621314
Si Si6 0.160220 0.751211 0.310191
Si Si7 0.089611 0.063648 0.000000
O O1 0.579441 0.915419 0.915819
O O2 0.500000 0.000000 0.946395
O O3 0.500000 0.911552 0.000000
O O4 0.651235 0.500000 0.888060
O O5 0.641568 0.403322 0.850766
O O6 0.766999 0.429856 0.904431
O O7 0.633548 0.415529 0.949567
O O8 0.500000 0.370261 0.829205
O O9 0.384249 0.366127 0.760512
O O10 0.385758 0.299101 0.835020
O O11 0.856313 0.408073 0.825299
O O12 0.884164 0.305999 0.825061
O O13 0.000000 0.372451 0.806391
O O14 0.368528 0.500000 0.633677
O O15 0.158559 0.750000 0.250000
O O16 0.250000 0.750000 0.331035
O O17 0.000000 0.086129 0.000000
O O18 0.090787 0.000000 0.000000
#
# Coordination Sequence:
#
# PCOD8284265 Si02
#       7
#    16  32  32  32  32  32  16
#     4   9  18  32  52  74  99 130 166 209 249 296
#     4  10  21  34  51  76 102 133 172 214 256 300
#     4  10  20  33  50  74 103 136 174 210 250 301
#     4  10  19  32  50  73 104 138 169 205 250 303
#     4  10  20  33  50  76 105 133 168 204 253 307
#     4   9  17  30  49  72  97 128 170 213 249 291
#     4   9  18  34  54  73  98 129 169 216 255 295
#
# _framework density 17.344186000000001
#
# number of rings (size 3 to 8) (size 9 to 14) (size 15 to 20)
#    0.000    2.333    0.833    2.000    1.167    5.667 
#    0.000    3.333    0.000    0.000    2.167    1.750 
#    0.000    0.000    0.000    0.000    0.000    0.000 
#
# Total GULP energy -595190.058444 kJ/mol
# GULP energy per Si atom -12399.792884 kJ/mol
# Density = 1.730471 g / cm^3
# Si number density = 17.344186 Si / 1000 Ang^3
#
#
#
# Elastic Constant Matrix: (Units=GPa)
#
#
# Indices 1 2 3 4 5 6 
#
# 1 107.9604 41.9821 48.0992 0.0000 0.0000 0.0000
# 2 41.9821 80.0488 49.0187 0.0000 0.0000 0.0000
# 3 48.0992 49.0187 84.8975 0.0000 0.0000 0.0000
# 4 0.0000 0.0000 0.0000 5.4786 0.0000 0.0000
# 5 0.0000 0.0000 0.0000 0.0000 27.8885 0.0000
# 6 0.0000 0.0000 0.0000 0.0000 0.0000 29.9342
#
#
#
# Elastic Compliance Matrix: (Units=1/GPa)
#
#
# Indices 1 2 3 4 5 6 
#
# 1 0.013020 -0.003575 -0.005312 0.000000 0.000000 0.000000
# 2 -0.003575 0.020307 -0.009699 0.000000 0.000000 0.000000
# 3 -0.005312 -0.009699 0.020389 0.000000 0.000000 0.000000
# 4 0.000000 0.000000 0.000000 0.182529 0.000000 0.000000
# 5 0.000000 0.000000 0.000000 0.000000 0.035857 0.000000
# 6 0.000000 0.000000 0.000000 0.000000 0.000000 0.033407
#
#
# Mechanical properties :
#
#
# Convention : Reuss Voigt Hill
#
# Bulk Modulus (GPa) = 60.45237 61.23408 60.84322
# Shear Modulus (GPa) = 14.35977 21.58070 17.97024
#
# Velocity S-wave (km/s) = 2.88050 3.53124 3.22234
# Velocity P-wave (km/s) = 6.78183 7.21166 7.00005
#
# Compressibility (1/GPa) = 0.01654195
#
# Stress axis : x y z
#
# Youngs Moduli (GPa) = 76.80709 49.24409 49.04674
#
# Poissons Ratio (x) = 0.17607 0.26053
# Poissons Ratio (y) = 0.27462 0.47572
# Poissons Ratio (z) = 0.40800 0.47763
#
# Static dielectric constant tensor:
#      x y z
#    x 3.398750 0.000000 0.000000 
#    y 0.000000 3.188830 0.000000 
#    z 0.000000 0.000000 3.095410 
# 
# 
# High freq. dielectric constant tensor:
#      x y z
#    x 1.688370 0.000000 0.000000 
#    y 0.000000 1.652790 0.000000 
#    z 0.000000 0.000000 1.644160 
# 
# From -- ./inp_files/36116.got.cif
#   From: 2010.03.12/outbox.cif.g09.slc.cpg/sg69_19_cif.got.tgz:36116.got - 2010.04.10 23:52:46.
