data_PCOD8284863
_publ_section_title
;
Structure prediction by ZEFSAII (Michael W. Deem and Ramdas Pophale) SiO2 
 PCOD8284863
Probable space group: F M M M
;
_chemical_formula_sum "Si O2"
_cell_formula_units_Z 176
_cell_length_a 23.725442
_cell_length_b 16.139074
_cell_length_c 26.564885
_cell_angle_alpha 90.000000
_cell_angle_beta 90.000000
_cell_angle_gamma 90.000000
_cell_volume 10171.871498
_symmetry_space_group_name_H-M "F M M M"
_symmetry_group_IT_number 69
_symmetry_cell_setting 'orthorhombic'
loop_
_space_group_symop_operation_xyz
x,y,z
-x,-y,z
x,-y,-z
-x,y,-z
-x,-y,-z
x,y,-z
-x,y,z
x,-y,z
x,1/2+y,1/2+z
-x,1/2-y,1/2+z
x,1/2-y,1/2-z
-x,1/2+y,1/2-z
-x,1/2-y,1/2-z
x,1/2+y,1/2-z
-x,1/2+y,1/2+z
x,1/2-y,1/2+z
1/2+x,y,1/2+z
1/2-x,-y,1/2+z
1/2+x,-y,1/2-z
1/2-x,y,1/2-z
1/2-x,-y,1/2-z
1/2+x,y,1/2-z
1/2-x,y,1/2+z
1/2+x,-y,1/2+z
1/2+x,1/2+y,z
1/2-x,1/2-y,z
1/2+x,1/2-y,-z
1/2-x,1/2+y,-z
1/2-x,1/2-y,-z
1/2+x,1/2+y,-z
1/2-x,1/2+y,z
1/2+x,1/2-y,z
loop_
_atom_site_type_symbol
_atom_site_label
_atom_site_fract_x
_atom_site_fract_y
_atom_site_fract_z
Si Si1 0.000000 0.291173 0.058050
Si Si2 0.305626 0.405126 0.776603
Si Si3 0.393847 0.323094 0.711711
Si Si4 0.000000 0.599838 0.154837
Si Si5 0.393647 0.175060 0.441883
Si Si6 0.686575 0.776561 0.640799
Si Si7 0.937376 0.000000 0.059920
O O1 0.946502 0.233875 0.068704
O O2 0.000000 0.368048 0.096964
O O3 0.000000 0.324002 0.000000
O O4 0.294812 0.500000 0.788203
O O5 0.250000 0.365942 0.750000
O O6 0.360963 0.393557 0.742561
O O7 0.315017 0.362583 0.829834
O O8 0.413436 0.250000 0.750000
O O9 0.446250 0.365296 0.684408
O O10 0.349767 0.290827 0.670608
O O11 0.000000 0.500000 0.154090
O O12 0.377926 0.172372 0.500000
O O13 0.339671 0.210922 0.413962
O O14 0.406222 0.082691 0.421155
O O15 0.750000 0.750000 0.632112
O O16 0.000000 0.000000 0.083064
O O17 0.941534 0.000000 0.000000
#
# Coordination Sequence:
#
# PCOD8284863 Si02
#       7
#    16  32  32  16  32  32  16
#     4  10  20  37  58  83 107 146 193 231 271 333
#     4  10  20  35  56  81 109 142 181 228 272 323
#     4  10  21  37  58  81 114 143 185 227 277 333
#     4  12  23  38  59  84 112 151 187 232 287 321
#     4  10  20  35  57  82 115 146 180 225 282 339
#     4  11  21  35  56  82 109 144 193 224 265 324
#     4   9  16  30  56  86 109 136 172 223 278 339
#
# _framework density 17.302617999999999
#
# number of rings (size 3 to 8) (size 9 to 14) (size 15 to 20)
#    0.000    1.727    4.545    0.818    1.273    0.545 
#    0.000    0.000    0.000    0.000    0.000    0.000 
#    0.000    0.000    0.000    0.000    0.000    0.000 
#
# Total GULP energy -545545.442766 kJ/mol
# GULP energy per Si atom -12398.760063 kJ/mol
# Density = 1.726324 g / cm^3
# Si number density = 17.302618 Si / 1000 Ang^3
#
#
#
# Elastic Constant Matrix: (Units=GPa)
#
#
# Indices 1 2 3 4 5 6 
#
# 1 136.6494 55.4651 67.9792 0.0000 0.0000 0.0000
# 2 55.4651 98.0008 47.4594 0.0000 0.0000 0.0000
# 3 67.9792 47.4594 95.0966 0.0000 0.0000 0.0000
# 4 0.0000 0.0000 0.0000 4.2369 0.0000 0.0000
# 5 0.0000 0.0000 0.0000 0.0000 49.3279 0.0000
# 6 0.0000 0.0000 0.0000 0.0000 0.0000 20.9789
#
#
#
# Elastic Compliance Matrix: (Units=1/GPa)
#
#
# Indices 1 2 3 4 5 6 
#
# 1 0.012223 -0.003543 -0.006970 0.000000 0.000000 0.000000
# 2 -0.003543 0.014483 -0.004695 0.000000 0.000000 0.000000
# 3 -0.006970 -0.004695 0.017841 0.000000 0.000000 0.000000
# 4 0.000000 0.000000 0.000000 0.236023 0.000000 0.000000
# 5 0.000000 0.000000 0.000000 0.000000 0.020272 0.000000
# 6 0.000000 0.000000 0.000000 0.000000 0.000000 0.047667
#
#
# Mechanical properties :
#
#
# Convention : Reuss Voigt Hill
#
# Bulk Modulus (GPa) = 70.76281 74.61715 72.68998
# Shear Modulus (GPa) = 13.03318 25.49827 19.26572
#
# Velocity S-wave (km/s) = 2.74752 3.84300 3.34047
# Velocity P-wave (km/s) = 7.14500 7.93158 7.54854
#
# Compressibility (1/GPa) = 0.01413172
#
# Stress axis : x y z
#
# Youngs Moduli (GPa) = 81.81213 69.04684 56.05015
#
# Poissons Ratio (x) = 0.24461 0.39065
# Poissons Ratio (y) = 0.28983 0.26318
# Poissons Ratio (z) = 0.57020 0.32421
#
# Static dielectric constant tensor:
#      x y z
#    x 3.243650 0.000000 0.000000 
#    y 0.000000 3.181960 0.000000 
#    z 0.000000 0.000000 3.158130 
# 
# 
# High freq. dielectric constant tensor:
#      x y z
#    x 1.672980 0.000000 0.000000 
#    y 0.000000 1.665970 0.000000 
#    z 0.000000 0.000000 1.661780 
# 
# From -- ./inp_files/43182.got.cif
#   From: 2010.03.12/outbox.cif.g09.slc.cpg/sg69_22_cif.got.tgz:43182.got - 2010.04.10 23:52:46.
