data_PCOD8284782
_publ_section_title
;
Structure prediction by ZEFSAII (Michael W. Deem and Ramdas Pophale) SiO2 
 PCOD8284782
Probable space group: F M M M
;
_chemical_formula_sum "Si O2"
_cell_formula_units_Z 128
_cell_length_a 14.865844
_cell_length_b 25.630408
_cell_length_c 18.237548
_cell_angle_alpha 90.000000
_cell_angle_beta 90.000000
_cell_angle_gamma 90.000000
_cell_volume 6948.827626
_symmetry_space_group_name_H-M "F M M M"
_symmetry_group_IT_number 69
_symmetry_cell_setting 'orthorhombic'
loop_
_space_group_symop_operation_xyz
x,y,z
-x,-y,z
x,-y,-z
-x,y,-z
-x,-y,-z
x,y,-z
-x,y,z
x,-y,z
x,1/2+y,1/2+z
-x,1/2-y,1/2+z
x,1/2-y,1/2-z
-x,1/2+y,1/2-z
-x,1/2-y,1/2-z
x,1/2+y,1/2-z
-x,1/2+y,1/2+z
x,1/2-y,1/2+z
1/2+x,y,1/2+z
1/2-x,-y,1/2+z
1/2+x,-y,1/2-z
1/2-x,y,1/2-z
1/2-x,-y,1/2-z
1/2+x,y,1/2-z
1/2-x,y,1/2+z
1/2+x,-y,1/2+z
1/2+x,1/2+y,z
1/2-x,1/2-y,z
1/2+x,1/2-y,-z
1/2-x,1/2+y,-z
1/2-x,1/2-y,-z
1/2+x,1/2+y,-z
1/2-x,1/2+y,z
1/2+x,1/2-y,z
loop_
_atom_site_type_symbol
_atom_site_label
_atom_site_fract_x
_atom_site_fract_y
_atom_site_fract_z
Si Si1 0.606150 0.000000 0.083636
Si Si2 0.000000 0.684484 0.842309
Si Si3 0.142072 0.118419 0.167040
Si Si4 0.345694 0.893008 0.838046
Si Si5 0.500000 0.298351 0.830096
Si Si6 0.500000 0.060301 0.420092
O O1 0.640598 0.051265 0.124691
O O2 0.500000 0.000000 0.085153
O O3 0.642050 0.000000 0.000000
O O4 0.913231 0.651417 0.868453
O O5 0.000000 0.700185 0.757516
O O6 0.000000 0.743332 0.874494
O O7 0.245102 0.125480 0.143262
O O8 0.135977 0.101734 0.251837
O O9 0.091127 0.171961 0.146862
O O10 0.091457 0.073353 0.123005
O O11 0.500000 0.088180 0.500000
O O12 0.500000 0.000000 0.432516
#
# Coordination Sequence:
#
# PCOD8284782 Si02
#       6
#    16  16  32  32  16  16
#     4  11  24  37  52  77 109 146 181 222 272 323
#     4   9  16  31  54  78 112 145 177 221 276 323
#     4   9  20  34  54  83 109 140 184 226 269 321
#     4  10  20  34  55  82 110 146 183 223 272 323
#     4   8  16  32  52  81 112 141 176 226 274 317
#     4  10  22  36  52  76 107 146 184 223 268 319
#
# _framework density 18.420373999999999
#
# number of rings (size 3 to 8) (size 9 to 14) (size 15 to 20)
#    0.000    2.500    1.250    0.750    3.500    3.000 
#    0.000    5.000    0.000    6.000    0.000    8.750 
#    0.000    0.000    0.000    0.000    0.000    0.000 
#
# Total GULP energy -396558.771497 kJ/mol
# GULP energy per Si atom -12392.461609 kJ/mol
# Density = 1.837845 g / cm^3
# Si number density = 18.420374 Si / 1000 Ang^3
#
#
#
# Elastic Constant Matrix: (Units=GPa)
#
#
# Indices 1 2 3 4 5 6 
#
# 1 172.8151 76.8084 47.9639 0.0000 0.0000 0.0000
# 2 76.8084 166.7612 43.2341 0.0000 0.0000 0.0000
# 3 47.9639 43.2341 55.1395 0.0000 0.0000 0.0000
# 4 0.0000 0.0000 0.0000 0.8428 0.0000 0.0000
# 5 0.0000 0.0000 0.0000 0.0000 23.7238 0.0000
# 6 0.0000 0.0000 0.0000 0.0000 0.0000 20.2506
#
#
#
# Elastic Compliance Matrix: (Units=1/GPa)
#
#
# Indices 1 2 3 4 5 6 
#
# 1 0.008366 -0.002468 -0.005342 0.000000 0.000000 0.000000
# 2 -0.002468 0.008255 -0.004325 0.000000 0.000000 0.000000
# 3 -0.005342 -0.004325 0.026174 0.000000 0.000000 0.000000
# 4 0.000000 0.000000 0.000000 1.186512 0.000000 0.000000
# 5 0.000000 0.000000 0.000000 0.000000 0.042152 0.000000
# 6 0.000000 0.000000 0.000000 0.000000 0.000000 0.049381
#
#
# Mechanical properties :
#
#
# Convention : Reuss Voigt Hill
#
# Bulk Modulus (GPa) = 53.98514 81.19207 67.58861
# Shear Modulus (GPa) = 3.70018 24.07741 13.88879
#
# Velocity S-wave (km/s) = 1.41884 3.61932 2.74887
# Velocity P-wave (km/s) = 5.66172 7.85105 6.84449
#
# Compressibility (1/GPa) = 0.01852361
#
# Stress axis : x y z
#
# Youngs Moduli (GPa) = 119.52690 121.13996 38.20567
#
# Poissons Ratio (x) = 0.29903 0.20410
# Poissons Ratio (y) = 0.29505 0.16525
# Poissons Ratio (z) = 0.63852 0.52397
#
# Static dielectric constant tensor:
#      x y z
#    x 3.787930 0.000000 0.000000 
#    y 0.000000 3.690100 0.000000 
#    z 0.000000 0.000000 3.256970 
# 
# 
# High freq. dielectric constant tensor:
#      x y z
#    x 1.725010 0.000000 0.000000 
#    y 0.000000 1.715470 0.000000 
#    z 0.000000 0.000000 1.684870 
# 
# From -- ./inp_files/21639.got.cif
#   From: 2010.03.12/outbox.cif.g09.slc.cpg/sg69_11_cif.got.tgz:21639.got - 2010.04.10 23:52:46.
