data_PCOD8284611
_publ_section_title
;
Structure prediction by ZEFSAII (Michael W. Deem and Ramdas Pophale) SiO2 
 PCOD8284611
Probable space group: F M M M
;
_chemical_formula_sum "Si O2"
_cell_formula_units_Z 208
_cell_length_a 27.383046
_cell_length_b 17.515504
_cell_length_c 24.183841
_cell_angle_alpha 90.000000
_cell_angle_beta 90.000000
_cell_angle_gamma 90.000000
_cell_volume 11599.243706
_symmetry_space_group_name_H-M "F M M M"
_symmetry_group_IT_number 69
_symmetry_cell_setting 'orthorhombic'
loop_
_space_group_symop_operation_xyz
x,y,z
-x,-y,z
x,-y,-z
-x,y,-z
-x,-y,-z
x,y,-z
-x,y,z
x,-y,z
x,1/2+y,1/2+z
-x,1/2-y,1/2+z
x,1/2-y,1/2-z
-x,1/2+y,1/2-z
-x,1/2-y,1/2-z
x,1/2+y,1/2-z
-x,1/2+y,1/2+z
x,1/2-y,1/2+z
1/2+x,y,1/2+z
1/2-x,-y,1/2+z
1/2+x,-y,1/2-z
1/2-x,y,1/2-z
1/2-x,-y,1/2-z
1/2+x,y,1/2-z
1/2-x,y,1/2+z
1/2+x,-y,1/2+z
1/2+x,1/2+y,z
1/2-x,1/2-y,z
1/2+x,1/2-y,-z
1/2-x,1/2+y,-z
1/2-x,1/2-y,-z
1/2+x,1/2+y,-z
1/2-x,1/2+y,z
1/2+x,1/2-y,z
loop_
_atom_site_type_symbol
_atom_site_label
_atom_site_fract_x
_atom_site_fract_y
_atom_site_fract_z
Si Si1 0.053753 0.340003 0.244085
Si Si2 0.829650 0.912548 0.436169
Si Si3 0.232373 0.669755 0.435568
Si Si4 0.412437 0.336285 0.372125
Si Si5 0.941860 0.838230 0.865409
Si Si6 0.362853 0.087419 0.435484
Si Si7 0.500000 0.409809 0.437379
O O1 0.049093 0.250000 0.250000
O O2 0.088085 0.362833 0.192489
O O3 0.072437 0.368988 0.303833
O O4 0.000000 0.373658 0.230991
O O5 0.843674 0.897331 0.500000
O O6 0.772910 0.895066 0.425706
O O7 0.860051 0.855310 0.397698
O O8 0.840175 0.000000 0.419993
O O9 0.223417 0.683750 0.500000
O O10 0.250000 0.750000 0.408292
O O11 0.181124 0.639526 0.410376
O O12 0.423430 0.247112 0.376365
O O13 0.452067 0.382193 0.406517
O O14 0.914445 0.893389 0.907525
O O15 0.000000 0.842266 0.874752
O O16 0.369506 0.102931 0.500000
O O17 0.349169 0.000000 0.423898
O O18 0.500000 0.500000 0.438105
O O19 0.500000 0.377623 0.500000
#
# Coordination Sequence:
#
# PCOD8284611 Si02
#       7
#    32  32  32  32  32  32  16
#     4   8  15  31  53  72  95 128 175 223 264 297
#     4  10  20  32  48  74 110 144 171 205 253 308
#     4   9  17  32  54  78 100 129 174 217 250 303
#     4  11  18  33  52  74 101 139 177 211 252 305
#     4  10  20  35  55  78  99 132 178 225 260 302
#     4  10  21  36  53  75 107 140 166 205 268 321
#     4  11  22  32  43  68 109 145 169 202 251 302
#
# _framework density 17.932203000000001
#
# number of rings (size 3 to 8) (size 9 to 14) (size 15 to 20)
#    0.000    2.231    1.538    3.231    0.000    6.154 
#    0.000    2.308    0.000    0.923    0.000    6.462 
#    0.000    0.000    0.000    0.000    0.000    0.000 
#
# Total GULP energy -644576.487400 kJ/mol
# GULP energy per Si atom -12395.701681 kJ/mol
# Density = 1.789139 g / cm^3
# Si number density = 17.932203 Si / 1000 Ang^3
#
#
#
# Elastic Constant Matrix: (Units=GPa)
#
#
# Indices 1 2 3 4 5 6 
#
# 1 96.2710 38.1586 50.7251 0.0000 0.0000 0.0000
# 2 38.1586 53.8736 51.1634 0.0000 0.0000 0.0000
# 3 50.7251 51.1634 85.8079 0.0000 0.0000 0.0000
# 4 0.0000 0.0000 0.0000 15.3670 0.0000 0.0000
# 5 0.0000 0.0000 0.0000 0.0000 5.5905 0.0000
# 6 0.0000 0.0000 0.0000 0.0000 0.0000 28.6207
#
#
#
# Elastic Compliance Matrix: (Units=1/GPa)
#
#
# Indices 1 2 3 4 5 6 
#
# 1 0.015722 -0.005324 -0.006119 0.000000 0.000000 0.000000
# 2 -0.005324 0.044598 -0.023445 0.000000 0.000000 0.000000
# 3 -0.006119 -0.023445 0.029250 0.000000 0.000000 0.000000
# 4 0.000000 0.000000 0.000000 0.065075 0.000000 0.000000
# 5 0.000000 0.000000 0.000000 0.000000 0.178876 0.000000
# 6 0.000000 0.000000 0.000000 0.000000 0.000000 0.034940
#
#
# Mechanical properties :
#
#
# Convention : Reuss Voigt Hill
#
# Bulk Modulus (GPa) = 50.51988 57.33854 53.92921
# Shear Modulus (GPa) = 11.24012 16.30932 13.77472
#
# Velocity S-wave (km/s) = 2.50634 3.01906 2.77457
# Velocity P-wave (km/s) = 6.05058 6.64813 6.35638
#
# Compressibility (1/GPa) = 0.01979419
#
# Stress axis : x y z
#
# Youngs Moduli (GPa) = 63.60503 22.42234 34.18770
#
# Poissons Ratio (x) = 0.11939 0.20921
# Poissons Ratio (y) = 0.33866 0.80151
# Poissons Ratio (z) = 0.38922 0.52568
#
# Static dielectric constant tensor:
#      x y z
#    x 3.274150 0.000000 0.000000 
#    y 0.000000 3.256290 0.000000 
#    z 0.000000 0.000000 3.433020 
# 
# 
# High freq. dielectric constant tensor:
#      x y z
#    x 1.688900 0.000000 0.000000 
#    y 0.000000 1.688930 0.000000 
#    z 0.000000 0.000000 1.673460 
# 
# From -- ./inp_files/38501.got.cif
#   From: 2010.03.12/outbox.cif.g09.slc.cpg/sg69_20_cif.got.tgz:38501.got - 2010.04.10 23:52:46.
