data_PCOD8284977
_publ_section_title
;
Structure prediction by ZEFSAII (Michael W. Deem and Ramdas Pophale) SiO2 
 PCOD8284977
Probable space group: F M M M
;
_chemical_formula_sum "Si O2"
_cell_formula_units_Z 208
_cell_length_a 26.490664
_cell_length_b 16.687209
_cell_length_c 24.254207
_cell_angle_alpha 90.000000
_cell_angle_beta 90.000000
_cell_angle_gamma 90.000000
_cell_volume 10721.699459
_symmetry_space_group_name_H-M "F M M M"
_symmetry_group_IT_number 69
_symmetry_cell_setting 'orthorhombic'
loop_
_space_group_symop_operation_xyz
x,y,z
-x,-y,z
x,-y,-z
-x,y,-z
-x,-y,-z
x,y,-z
-x,y,z
x,-y,z
x,1/2+y,1/2+z
-x,1/2-y,1/2+z
x,1/2-y,1/2-z
-x,1/2+y,1/2-z
-x,1/2-y,1/2-z
x,1/2+y,1/2-z
-x,1/2+y,1/2+z
x,1/2-y,1/2+z
1/2+x,y,1/2+z
1/2-x,-y,1/2+z
1/2+x,-y,1/2-z
1/2-x,y,1/2-z
1/2-x,-y,1/2-z
1/2+x,y,1/2-z
1/2-x,y,1/2+z
1/2+x,-y,1/2+z
1/2+x,1/2+y,z
1/2-x,1/2-y,z
1/2+x,1/2-y,-z
1/2-x,1/2+y,-z
1/2-x,1/2-y,-z
1/2+x,1/2+y,-z
1/2-x,1/2+y,z
1/2+x,1/2-y,z
loop_
_atom_site_type_symbol
_atom_site_label
_atom_site_fract_x
_atom_site_fract_y
_atom_site_fract_z
Si Si1 0.556647 0.500000 0.064821
Si Si2 0.850333 0.765146 0.437028
Si Si3 0.155236 0.408840 0.256479
Si Si4 0.185438 0.092033 0.366900
Si Si5 0.283386 0.324640 0.851316
Si Si6 0.443775 0.830478 0.720949
Si Si7 0.442902 0.328712 0.906236
O O1 0.500000 0.500000 0.088782
O O2 0.581969 0.417825 0.086393
O O3 0.558379 0.500000 0.000000
O O4 0.830936 0.768999 0.500000
O O5 0.845300 0.852990 0.409864
O O6 0.817905 0.700343 0.402992
O O7 0.908662 0.736901 0.436977
O O8 0.171527 0.500000 0.267594
O O9 0.169727 0.383052 0.194913
O O10 0.183143 0.352339 0.300013
O O11 0.094920 0.400968 0.263918
O O12 0.245714 0.105605 0.372278
O O13 0.172242 0.000000 0.380049
O O14 0.250000 0.250000 0.830916
O O15 0.500000 0.856622 0.740258
O O16 0.425117 0.750000 0.750000
O O17 0.443705 0.808078 0.657346
O O18 0.500000 0.325934 0.931246
#
# Coordination Sequence:
#
# PCOD8284977 Si02
#       7
#    16  32  32  32  32  32  32
#     4   9  18  32  52  80 114 149 186 224 269 336
#     4  11  23  39  60  87 117 151 197 243 288 346
#     4  11  22  37  61  90 118 148 191 238 289 349
#     4  10  23  41  60  83 113 152 198 246 294 340
#     4  10  22  37  60  87 115 150 188 241 294 351
#     4  10  21  35  55  84 119 155 190 226 276 345
#     4  10  20  36  59  85 118 157 191 229 282 346
#
# _framework density 19.399909999999998
#
# number of rings (size 3 to 8) (size 9 to 14) (size 15 to 20)
#    0.000    1.769    1.538    2.308    3.231    7.385 
#    1.385    0.000    0.000    1.385    0.000    1.077 
#    0.000    0.000    0.000    0.000    0.000    0.000 
#
# Total GULP energy -644788.975232 kJ/mol
# GULP energy per Si atom -12399.787985 kJ/mol
# Density = 1.935575 g / cm^3
# Si number density = 19.399910 Si / 1000 Ang^3
#
#
#
# Elastic Constant Matrix: (Units=GPa)
#
#
# Indices 1 2 3 4 5 6 
#
# 1 104.7211 49.1616 37.1679 0.0000 0.0000 0.0000
# 2 49.1616 104.7929 63.4130 0.0000 0.0000 0.0000
# 3 37.1679 63.4130 128.7826 0.0000 0.0000 0.0000
# 4 0.0000 0.0000 0.0000 21.9771 0.0000 0.0000
# 5 0.0000 0.0000 0.0000 0.0000 10.8221 0.0000
# 6 0.0000 0.0000 0.0000 0.0000 0.0000 32.1508
#
#
#
# Elastic Compliance Matrix: (Units=1/GPa)
#
#
# Indices 1 2 3 4 5 6 
#
# 1 0.012338 -0.005176 -0.001012 0.000000 0.000000 0.000000
# 2 -0.005176 0.015764 -0.006268 0.000000 0.000000 0.000000
# 3 -0.001012 -0.006268 0.011144 0.000000 0.000000 0.000000
# 4 0.000000 0.000000 0.000000 0.045502 0.000000 0.000000
# 5 0.000000 0.000000 0.000000 0.000000 0.092403 0.000000
# 6 0.000000 0.000000 0.000000 0.000000 0.000000 0.031103
#
#
# Mechanical properties :
#
#
# Convention : Reuss Voigt Hill
#
# Bulk Modulus (GPa) = 69.76939 70.86462 70.31701
# Shear Modulus (GPa) = 21.01325 25.56028 23.28677
#
# Velocity S-wave (km/s) = 3.29471 3.63374 3.46837
# Velocity P-wave (km/s) = 7.10742 7.36295 7.23631
#
# Compressibility (1/GPa) = 0.01433293
#
# Stress axis : x y z
#
# Youngs Moduli (GPa) = 81.04915 63.43620 89.73557
#
# Poissons Ratio (x) = 0.32832 0.09085
# Poissons Ratio (y) = 0.41947 0.56251
# Poissons Ratio (z) = 0.08206 0.39765
#
# Static dielectric constant tensor:
#      x y z
#    x 3.771750 0.000000 0.000000 
#    y 0.000000 3.527750 0.000000 
#    z 0.000000 0.000000 3.444850 
# 
# 
# High freq. dielectric constant tensor:
#      x y z
#    x 1.754550 0.000000 0.000000 
#    y 0.000000 1.750300 0.000000 
#    z 0.000000 0.000000 1.750740 
# 
# From -- ./inp_files/38523.got.cif
#   From: 2010.03.12/outbox.cif.g09.slc.cpg/sg69_20_cif.got.tgz:38523.got - 2010.04.10 23:52:46.
