data_PCOD8284639
_publ_section_title
;
Structure prediction by ZEFSAII (Michael W. Deem and Ramdas Pophale) SiO2 
 PCOD8284639
Probable space group: F M M M
;
_chemical_formula_sum "Si O2"
_cell_formula_units_Z 144
_cell_length_a 28.175419
_cell_length_b 36.048523
_cell_length_c 8.767027
_cell_angle_alpha 90.000000
_cell_angle_beta 90.000000
_cell_angle_gamma 90.000000
_cell_volume 8904.513620
_symmetry_space_group_name_H-M "F M M M"
_symmetry_group_IT_number 69
_symmetry_cell_setting 'orthorhombic'
loop_
_space_group_symop_operation_xyz
x,y,z
-x,-y,z
x,-y,-z
-x,y,-z
-x,-y,-z
x,y,-z
-x,y,z
x,-y,z
x,1/2+y,1/2+z
-x,1/2-y,1/2+z
x,1/2-y,1/2-z
-x,1/2+y,1/2-z
-x,1/2-y,1/2-z
x,1/2+y,1/2-z
-x,1/2+y,1/2+z
x,1/2-y,1/2+z
1/2+x,y,1/2+z
1/2-x,-y,1/2+z
1/2+x,-y,1/2-z
1/2-x,y,1/2-z
1/2-x,-y,1/2-z
1/2+x,y,1/2-z
1/2-x,y,1/2+z
1/2+x,-y,1/2+z
1/2+x,1/2+y,z
1/2-x,1/2-y,z
1/2+x,1/2-y,-z
1/2-x,1/2+y,-z
1/2-x,1/2-y,-z
1/2+x,1/2+y,-z
1/2-x,1/2+y,z
1/2+x,1/2-y,z
loop_
_atom_site_type_symbol
_atom_site_label
_atom_site_fract_x
_atom_site_fract_y
_atom_site_fract_z
Si Si1 0.943819 0.000000 0.173217
Si Si2 0.106739 0.931016 0.320446
Si Si3 0.555653 0.137175 0.676878
Si Si4 0.056361 0.213058 0.671442
Si Si5 0.700363 0.542942 0.178405
O O1 0.925761 0.036576 0.254920
O O2 0.000000 0.000000 0.177616
O O3 0.924534 0.000000 0.000000
O O4 0.109588 0.935505 0.500000
O O5 0.083918 0.891979 0.277966
O O6 0.159435 0.932368 0.252378
O O7 0.568103 0.131608 0.500000
O O8 0.500000 0.131535 0.707183
O O9 0.572441 0.177849 0.729092
O O10 0.076676 0.209627 0.500000
O O11 0.077447 0.250000 0.750000
O O12 0.000000 0.215631 0.666588
O O13 0.689622 0.500000 0.216095
O O14 0.750000 0.555536 0.250000
O O15 0.702355 0.550452 0.000000
#
# Coordination Sequence:
#
# PCOD8284639 Si02
#       5
#    16  32  32  32  32
#     4  11  23  37  50  65  90 127 167 203 239 281
#     4  12  23  34  50  71  96 125 161 201 243 289
#     4  10  20  33  48  67  95 131 167 203 243 285
#     4   9  16  27  44  66  92 123 160 199 239 284
#     4  10  20  35  55  74  95 120 153 197 246 294
#
# _framework density 16.171572999999999
#
# number of rings (size 3 to 8) (size 9 to 14) (size 15 to 20)
#    0.000    1.667    1.111    5.000    0.000    8.444 
#    0.000    0.000    0.000    0.000    0.000    0.000 
#    0.000    0.889    0.000    8.889    0.000    5.778 
#
# Total GULP energy -446542.827821 kJ/mol
# GULP energy per Si atom -12403.967439 kJ/mol
# Density = 1.613477 g / cm^3
# Si number density = 16.171573 Si / 1000 Ang^3
#
#
#
# Elastic Constant Matrix: (Units=GPa)
#
#
# Indices 1 2 3 4 5 6 
#
# 1 65.7251 37.6910 41.5349 0.0172 -0.0483 -0.0199
# 2 37.6910 100.5868 34.7160 0.0156 -0.0167 0.0058
# 3 41.5349 34.7160 112.0341 0.0084 -0.0539 -0.0078
# 4 0.0172 0.0156 0.0084 29.8914 -0.0222 0.0110
# 5 -0.0483 -0.0167 -0.0539 -0.0222 25.2691 0.0288
# 6 -0.0199 0.0058 -0.0078 0.0110 0.0288 1.6690
#
#
#
# Elastic Compliance Matrix: (Units=1/GPa)
#
#
# Indices 1 2 3 4 5 6 
#
# 1 0.023005 -0.006357 -0.006559 -0.000008 0.000025 0.000265
# 2 -0.006357 0.012889 -0.001637 -0.000003 -0.000007 -0.000128
# 3 -0.006559 -0.001637 0.011865 0.000001 0.000012 -0.000017
# 4 -0.000008 -0.000003 0.000001 0.033455 0.000030 -0.000221
# 5 0.000025 -0.000007 0.000012 0.000030 0.039575 -0.000683
# 6 0.000265 -0.000128 -0.000017 -0.000221 -0.000683 0.599165
#
#
# Mechanical properties :
#
#
# Convention : Reuss Voigt Hill
#
# Bulk Modulus (GPa) = 53.61072 56.24774 54.92923
# Shear Modulus (GPa) = 6.62009 22.32619 14.47314
#
# Velocity S-wave (km/s) = 2.02547 3.71965 2.99486
# Velocity P-wave (km/s) = 6.22039 7.30103 6.78227
#
# Compressibility (1/GPa) = 0.01865299
#
# Stress axis : x y z
#
# Youngs Moduli (GPa) = 43.46836 77.58797 84.28247
#
# Poissons Ratio (x) = 0.49319 0.55282
# Poissons Ratio (y) = 0.27631 0.13799
# Poissons Ratio (z) = 0.28511 0.12703
#
# Static dielectric constant tensor:
#      x y z
#    x 2.856560 0.000500 0.000100 
#    y 0.000500 2.951150 -0.000450 
#    z 0.000100 -0.000450 3.283560 
# 
# 
# High freq. dielectric constant tensor:
#      x y z
#    x 1.586560 0.000000 0.000010 
#    y 0.000000 1.615280 0.000000 
#    z 0.000010 0.000000 1.646100 
# 
# From -- ./inp_files/5598.got.cif
#   From: 2010.03.12/outbox.cif.g09.slc.cpg/sg69_3_cif.got.tgz:5598.got - 2010.04.10 23:52:46.
