data_PCOD8284925
_publ_section_title
;
Structure prediction by ZEFSAII (Michael W. Deem and Ramdas Pophale) SiO2 
 PCOD8284925
Probable space group: F M M M
;
_chemical_formula_sum "Si O2"
_cell_formula_units_Z 144
_cell_length_a 32.363058
_cell_length_b 8.676410
_cell_length_c 27.186215
_cell_angle_alpha 90.000000
_cell_angle_beta 90.000000
_cell_angle_gamma 90.000000
_cell_volume 7633.757592
_symmetry_space_group_name_H-M "F M M M"
_symmetry_group_IT_number 69
_symmetry_cell_setting 'orthorhombic'
loop_
_space_group_symop_operation_xyz
x,y,z
-x,-y,z
x,-y,-z
-x,y,-z
-x,-y,-z
x,y,-z
-x,y,z
x,-y,z
x,1/2+y,1/2+z
-x,1/2-y,1/2+z
x,1/2-y,1/2-z
-x,1/2+y,1/2-z
-x,1/2-y,1/2-z
x,1/2+y,1/2-z
-x,1/2+y,1/2+z
x,1/2-y,1/2+z
1/2+x,y,1/2+z
1/2-x,-y,1/2+z
1/2+x,-y,1/2-z
1/2-x,y,1/2-z
1/2-x,-y,1/2-z
1/2+x,y,1/2-z
1/2-x,y,1/2+z
1/2+x,-y,1/2+z
1/2+x,1/2+y,z
1/2-x,1/2-y,z
1/2+x,1/2-y,-z
1/2-x,1/2+y,-z
1/2-x,1/2-y,-z
1/2+x,1/2+y,-z
1/2-x,1/2+y,z
1/2+x,1/2-y,z
loop_
_atom_site_type_symbol
_atom_site_label
_atom_site_fract_x
_atom_site_fract_y
_atom_site_fract_z
Si Si1 0.872242 0.682257 0.198451
Si Si2 0.293419 0.318212 0.148209
Si Si3 0.000000 0.815652 0.443951
Si Si4 0.416509 0.681423 0.398185
Si Si5 0.832158 0.681228 0.055833
O O1 0.867798 0.500000 0.201646
O O2 0.887630 0.750000 0.250000
O O3 0.827977 0.750584 0.184195
O O4 0.906309 0.731416 0.157771
O O5 0.292801 0.500000 0.153239
O O6 0.250000 0.250000 0.165922
O O7 0.301207 0.271338 0.091510
O O8 0.959634 0.745632 0.416562
O O9 0.000000 0.757588 0.500000
O O10 0.000000 0.000000 0.442232
O O11 0.420900 0.500000 0.401773
O O12 0.379155 0.735053 0.433596
O O13 0.827588 0.500000 0.066734
O O14 0.820557 0.722675 0.000000
#
# Coordination Sequence:
#
# PCOD8284925 Si02
#       5
#    32  32  16  32  32
#     4  10  20  36  55  75 100 132 170 211 258 306
#     4  11  22  36  53  75 102 131 167 211 258 307
#     4   9  14  22  43  76 109 139 171 207 248 293
#     4   8  15  27  45  72 105 136 169 211 253 296
#     4   9  17  31  50  72 102 140 177 213 255 302
#
# _framework density 18.863579999999999
#
# number of rings (size 3 to 8) (size 9 to 14) (size 15 to 20)
#    0.000    2.556    0.000    4.667    0.000    4.000 
#    0.000    2.778    0.000    0.000    0.000   18.667 
#    0.000   29.333    0.000    0.000    0.000    0.000 
#
# Total GULP energy -446348.648942 kJ/mol
# GULP energy per Si atom -12398.573582 kJ/mol
# Density = 1.882065 g / cm^3
# Si number density = 18.863580 Si / 1000 Ang^3
#
#
#
# Elastic Constant Matrix: (Units=GPa)
#
#
# Indices 1 2 3 4 5 6 
#
# 1 114.6689 26.7301 42.0003 -0.0001 0.0000 0.0004
# 2 26.7301 71.5526 35.2973 -0.0001 0.0000 0.0004
# 3 42.0003 35.2973 122.8030 0.0000 0.0000 0.0000
# 4 -0.0001 -0.0001 0.0000 28.9520 0.0000 0.0000
# 5 0.0000 0.0000 0.0000 0.0000 14.3550 0.0000
# 6 0.0004 0.0004 0.0000 0.0000 0.0000 13.3975
#
#
#
# Elastic Compliance Matrix: (Units=1/GPa)
#
#
# Indices 1 2 3 4 5 6 
#
# 1 0.010330 -0.002466 -0.002824 0.000000 0.000000 0.000000
# 2 -0.002466 0.016873 -0.004007 0.000000 0.000000 0.000000
# 3 -0.002824 -0.004007 0.010261 0.000000 0.000000 0.000000
# 4 0.000000 0.000000 0.000000 0.034540 0.000000 0.000000
# 5 0.000000 0.000000 0.000000 0.000000 0.069662 0.000000
# 6 0.000000 0.000000 0.000000 0.000000 0.000000 0.074641
#
#
# Mechanical properties :
#
#
# Convention : Reuss Voigt Hill
#
# Bulk Modulus (GPa) = 52.99198 57.45331 55.22264
# Shear Modulus (GPa) = 20.73052 25.00737 22.86895
#
# Velocity S-wave (km/s) = 3.31867 3.64496 3.48563
# Velocity P-wave (km/s) = 6.54507 6.94534 6.74817
#
# Compressibility (1/GPa) = 0.01887078
#
# Stress axis : x y z
#
# Youngs Moduli (GPa) = 96.80539 59.26509 97.45950
#
# Poissons Ratio (x) = 0.14613 0.27525
# Poissons Ratio (y) = 0.23870 0.39048
# Poissons Ratio (z) = 0.27340 0.23745
#
# Static dielectric constant tensor:
#      x y z
#    x 3.632420 0.000000 0.000000 
#    y 0.000000 3.132070 0.000000 
#    z 0.000000 0.000000 3.609280 
# 
# 
# High freq. dielectric constant tensor:
#      x y z
#    x 1.727980 0.000000 0.000000 
#    y 0.000000 1.701780 0.000000 
#    z 0.000000 0.000000 1.737300 
# 
# From -- ./inp_files/5561.got.cif
#   From: 2010.03.12/outbox.cif.g09.slc.cpg/sg69_3_cif.got.tgz:5561.got - 2010.04.10 23:52:46.
