data_PCOD8284604
_publ_section_title
;
Structure prediction by ZEFSAII (Michael W. Deem and Ramdas Pophale) SiO2 
 PCOD8284604
Probable space group: F M M M
;
_chemical_formula_sum "Si O2"
_cell_formula_units_Z 160
_cell_length_a 14.420338
_cell_length_b 19.034675
_cell_length_c 31.871323
_cell_angle_alpha 90.000000
_cell_angle_beta 90.000000
_cell_angle_gamma 90.000000
_cell_volume 8748.246218
_symmetry_space_group_name_H-M "F M M M"
_symmetry_group_IT_number 69
_symmetry_cell_setting 'orthorhombic'
loop_
_space_group_symop_operation_xyz
x,y,z
-x,-y,z
x,-y,-z
-x,y,-z
-x,-y,-z
x,y,-z
-x,y,z
x,-y,z
x,1/2+y,1/2+z
-x,1/2-y,1/2+z
x,1/2-y,1/2-z
-x,1/2+y,1/2-z
-x,1/2-y,1/2-z
x,1/2+y,1/2-z
-x,1/2+y,1/2+z
x,1/2-y,1/2+z
1/2+x,y,1/2+z
1/2-x,-y,1/2+z
1/2+x,-y,1/2-z
1/2-x,y,1/2-z
1/2-x,-y,1/2-z
1/2+x,y,1/2-z
1/2-x,y,1/2+z
1/2+x,-y,1/2+z
1/2+x,1/2+y,z
1/2-x,1/2-y,z
1/2+x,1/2-y,-z
1/2-x,1/2+y,-z
1/2-x,1/2-y,-z
1/2+x,1/2+y,-z
1/2-x,1/2+y,z
1/2+x,1/2-y,z
loop_
_atom_site_type_symbol
_atom_site_label
_atom_site_fract_x
_atom_site_fract_y
_atom_site_fract_z
Si Si1 0.395565 0.916489 0.730275
Si Si2 0.655106 0.920778 0.902256
Si Si3 0.288655 0.083530 0.812088
Si Si4 0.500000 0.176310 0.549596
Si Si5 0.500000 0.838018 0.050084
Si Si6 0.341783 0.922265 0.452350
O O1 0.500000 0.886055 0.721528
O O2 0.359151 0.891121 0.775864
O O3 0.317841 0.890132 0.696591
O O4 0.400597 0.000000 0.729569
O O5 0.670450 0.887883 0.855940
O O6 0.589793 0.872220 0.929780
O O7 0.752612 0.921422 0.924234
O O8 0.613952 0.000000 0.899811
O O9 0.284876 0.000000 0.813803
O O10 0.500000 0.166896 0.500000
O O11 0.500000 0.256734 0.563169
O O12 0.410115 0.135989 0.567134
O O13 0.500000 0.848905 0.000000
O O14 0.313795 0.903463 0.500000
O O15 0.387862 0.000000 0.450496
#
# Coordination Sequence:
#
# PCOD8284604 Si02
#       6
#    32  32  32  16  16  32
#     4   8  13  23  41  62  92 130 163 202 254 310
#     4  10  20  32  47  71 104 139 173 213 254 299
#     4   8  15  26  39  64  97 131 168 201 249 306
#     4   9  19  35  53  73  96 127 170 212 255 307
#     4  11  23  35  49  71 100 139 180 216 253 297
#     4   9  17  32  54  76  99 129 163 204 257 310
#
# _framework density 18.289380999999999
#
# number of rings (size 3 to 8) (size 9 to 14) (size 15 to 20)
#    0.000    3.000    0.000    2.400    1.400    3.600 
#    1.800    3.000    0.000    0.000    0.000    0.000 
#    0.000   19.200    0.000    0.400    0.000    0.000 
#
# Total GULP energy -495631.578779 kJ/mol
# GULP energy per Si atom -12390.789469 kJ/mol
# Density = 1.824775 g / cm^3
# Si number density = 18.289381 Si / 1000 Ang^3
#
#
#
# Elastic Constant Matrix: (Units=GPa)
#
#
# Indices 1 2 3 4 5 6 
#
# 1 103.9406 39.8923 37.6862 0.0000 0.0000 0.0000
# 2 39.8923 73.5331 35.0180 0.0000 0.0000 0.0000
# 3 37.6862 35.0180 99.6968 0.0000 0.0000 0.0000
# 4 0.0000 0.0000 0.0000 3.6066 0.0000 0.0000
# 5 0.0000 0.0000 0.0000 0.0000 33.3736 0.0000
# 6 0.0000 0.0000 0.0000 0.0000 0.0000 0.6810
#
#
#
# Elastic Compliance Matrix: (Units=1/GPa)
#
#
# Indices 1 2 3 4 5 6 
#
# 1 0.012805 -0.005574 -0.002883 0.000000 0.000000 0.000000
# 2 -0.005574 0.018758 -0.004481 0.000000 0.000000 0.000000
# 3 -0.002883 -0.004481 0.012694 0.000000 0.000000 0.000000
# 4 0.000000 0.000000 0.000000 0.277266 0.000000 0.000000
# 5 0.000000 0.000000 0.000000 0.000000 0.029964 0.000000
# 6 0.000000 0.000000 0.000000 0.000000 0.000000 1.468464
#
#
# Mechanical properties :
#
#
# Convention : Reuss Voigt Hill
#
# Bulk Modulus (GPa) = 54.40532 55.81816 55.11174
# Shear Modulus (GPa) = 2.69985 18.50385 10.60185
#
# Velocity S-wave (km/s) = 1.21630 3.18422 2.41025
# Velocity P-wave (km/s) = 5.63773 6.64113 6.15990
#
# Compressibility (1/GPa) = 0.01838055
#
# Stress axis : x y z
#
# Youngs Moduli (GPa) = 78.09173 53.31195 78.77658
#
# Poissons Ratio (x) = 0.29718 0.22708
# Poissons Ratio (y) = 0.43531 0.35303
# Poissons Ratio (z) = 0.22511 0.23891
#
# Static dielectric constant tensor:
#      x y z
#    x 3.377520 0.000000 0.000000 
#    y 0.000000 3.089100 0.000000 
#    z 0.000000 0.000000 3.529250 
# 
# 
# High freq. dielectric constant tensor:
#      x y z
#    x 1.719670 0.000000 0.000000 
#    y 0.000000 1.653190 0.000000 
#    z 0.000000 0.000000 1.703750 
# 
# From -- ./inp_files/45687.got.cif
#   From: 2010.03.12/outbox.cif.g09.slc.cpg/sg69_23_cif.got.tgz:45687.got - 2010.04.10 23:52:46.
