data_PCOD8284796
_publ_section_title
;
Structure prediction by ZEFSAII (Michael W. Deem and Ramdas Pophale) SiO2 
 PCOD8284796
Probable space group: F M M M
;
_chemical_formula_sum "Si O2"
_cell_formula_units_Z 128
_cell_length_a 9.230933
_cell_length_b 27.287933
_cell_length_c 26.437663
_cell_angle_alpha 90.000000
_cell_angle_beta 90.000000
_cell_angle_gamma 90.000000
_cell_volume 6659.464394
_symmetry_space_group_name_H-M "F M M M"
_symmetry_group_IT_number 69
_symmetry_cell_setting 'orthorhombic'
loop_
_space_group_symop_operation_xyz
x,y,z
-x,-y,z
x,-y,-z
-x,y,-z
-x,-y,-z
x,y,-z
-x,y,z
x,-y,z
x,1/2+y,1/2+z
-x,1/2-y,1/2+z
x,1/2-y,1/2-z
-x,1/2+y,1/2-z
-x,1/2-y,1/2-z
x,1/2+y,1/2-z
-x,1/2+y,1/2+z
x,1/2-y,1/2+z
1/2+x,y,1/2+z
1/2-x,-y,1/2+z
1/2+x,-y,1/2-z
1/2-x,y,1/2-z
1/2-x,-y,1/2-z
1/2+x,y,1/2-z
1/2-x,y,1/2+z
1/2+x,-y,1/2+z
1/2+x,1/2+y,z
1/2-x,1/2-y,z
1/2+x,1/2-y,-z
1/2-x,1/2+y,-z
1/2-x,1/2-y,-z
1/2+x,1/2+y,-z
1/2-x,1/2+y,z
1/2+x,1/2-y,z
loop_
_atom_site_type_symbol
_atom_site_label
_atom_site_fract_x
_atom_site_fract_y
_atom_site_fract_z
Si Si1 0.829889 0.800299 0.402437
Si Si2 0.500000 0.057920 0.782767
Si Si3 0.792003 0.400046 0.138233
Si Si4 0.824193 0.803182 0.000000
Si Si5 0.500000 0.558036 0.441774
Si Si6 0.500000 0.058318 0.333146
O O1 0.750000 0.750000 0.385925
O O2 0.814012 0.841029 0.358615
O O3 0.743111 0.826369 0.449193
O O4 0.000000 0.789770 0.414724
O O5 0.358432 0.077818 0.810639
O O6 0.500000 0.075342 0.725050
O O7 0.500000 0.000000 0.786437
O O8 0.861270 0.420508 0.086765
O O9 0.629198 0.417285 0.136495
O O10 0.750000 0.750000 0.000000
O O11 0.000000 0.803111 0.000000
O O12 0.500000 0.500000 0.437479
O O13 0.500000 0.575440 0.500000
O O14 0.500000 0.000000 0.338294
#
# Coordination Sequence:
#
# PCOD8284796 Si02
#       6
#    32  16  32  16  16  16
#     4  11  22  37  59  84 119 161 205 253 295 349
#     4  10  20  41  66  91 116 151 196 251 314 369
#     4  11  22  37  62  90 120 157 199 246 302 365
#     4  10  20  34  56  84 115 152 201 254 297 340
#     4  10  21  39  60  84 120 166 204 234 286 371
#     4  11  23  38  64  95 122 146 192 263 314 355
#
# _framework density 19.220765
#
# number of rings (size 3 to 8) (size 9 to 14) (size 15 to 20)
#    0.000    1.375    2.500    7.125    5.250    2.000 
#    0.000    0.625    0.000    6.750    0.000    0.000 
#    0.000    0.000    0.000    0.000    0.000    0.000 
#
# Total GULP energy -396599.700244 kJ/mol
# GULP energy per Si atom -12393.740633 kJ/mol
# Density = 1.917702 g / cm^3
# Si number density = 19.220765 Si / 1000 Ang^3
#
#
#
# Elastic Constant Matrix: (Units=GPa)
#
#
# Indices 1 2 3 4 5 6 
#
# 1 192.1013 47.5739 52.0708 0.0000 0.0000 0.0000
# 2 47.5739 110.4553 46.9676 0.0000 0.0000 0.0000
# 3 52.0708 46.9676 102.4648 0.0000 0.0000 0.0000
# 4 0.0000 0.0000 0.0000 15.4966 0.0000 0.0000
# 5 0.0000 0.0000 0.0000 0.0000 285.8872 0.0000
# 6 0.0000 0.0000 0.0000 0.0000 0.0000 34.9710
#
#
#
# Elastic Compliance Matrix: (Units=1/GPa)
#
#
# Indices 1 2 3 4 5 6 
#
# 1 0.006277 -0.001673 -0.002423 0.000000 0.000000 0.000000
# 2 -0.001673 0.011691 -0.004509 0.000000 0.000000 0.000000
# 3 -0.002423 -0.004509 0.013057 0.000000 0.000000 0.000000
# 4 0.000000 0.000000 0.000000 0.064530 0.000000 0.000000
# 5 0.000000 0.000000 0.000000 0.000000 0.003498 0.000000
# 6 0.000000 0.000000 0.000000 0.000000 0.000000 0.028595
#
#
# Mechanical properties :
#
#
# Convention : Reuss Voigt Hill
#
# Bulk Modulus (GPa) = 72.38012 77.58290 74.98151
# Shear Modulus (GPa) = 33.45300 84.49822 58.97561
#
# Velocity S-wave (km/s) = 4.17641 6.63757 5.54526
# Velocity P-wave (km/s) = 7.80996 9.95966 8.94959
#
# Compressibility (1/GPa) = 0.01381595
#
# Stress axis : x y z
#
# Youngs Moduli (GPa) = 159.32036 85.53371 76.58531
#
# Poissons Ratio (x) = 0.14312 0.18554
# Poissons Ratio (y) = 0.26658 0.34530
# Poissons Ratio (z) = 0.38599 0.38565
#
# Static dielectric constant tensor:
#      x y z
#    x 3.650030 0.000000 0.000000 
#    y 0.000000 3.537900 0.000000 
#    z 0.000000 0.000000 3.973570 
# 
# 
# High freq. dielectric constant tensor:
#      x y z
#    x 1.763060 0.000000 0.000000 
#    y 0.000000 1.748570 0.000000 
#    z 0.000000 0.000000 1.731370 
# 
# From -- ./inp_files/39705.got.cif
#   From: 2010.03.12/outbox.cif.g09.slc.cpg/sg69_20_cif.got.tgz:39705.got - 2010.04.10 23:52:46.
