data_PCOD8284724
_publ_section_title
;
Structure prediction by ZEFSAII (Michael W. Deem and Ramdas Pophale) SiO2 
 PCOD8284724
Probable space group: F M M M
;
_chemical_formula_sum "Si O2"
_cell_formula_units_Z 208
_cell_length_a 17.036389
_cell_length_b 21.983331
_cell_length_c 29.636906
_cell_angle_alpha 90.000000
_cell_angle_beta 90.000000
_cell_angle_gamma 90.000000
_cell_volume 11099.512630
_symmetry_space_group_name_H-M "F M M M"
_symmetry_group_IT_number 69
_symmetry_cell_setting 'orthorhombic'
loop_
_space_group_symop_operation_xyz
x,y,z
-x,-y,z
x,-y,-z
-x,y,-z
-x,-y,-z
x,y,-z
-x,y,z
x,-y,z
x,1/2+y,1/2+z
-x,1/2-y,1/2+z
x,1/2-y,1/2-z
-x,1/2+y,1/2-z
-x,1/2-y,1/2-z
x,1/2+y,1/2-z
-x,1/2+y,1/2+z
x,1/2-y,1/2+z
1/2+x,y,1/2+z
1/2-x,-y,1/2+z
1/2+x,-y,1/2-z
1/2-x,y,1/2-z
1/2-x,-y,1/2-z
1/2+x,y,1/2-z
1/2-x,y,1/2+z
1/2+x,-y,1/2+z
1/2+x,1/2+y,z
1/2-x,1/2-y,z
1/2+x,1/2-y,-z
1/2-x,1/2+y,-z
1/2-x,1/2-y,-z
1/2+x,1/2+y,-z
1/2-x,1/2+y,z
1/2+x,1/2-y,z
loop_
_atom_site_type_symbol
_atom_site_label
_atom_site_fract_x
_atom_site_fract_y
_atom_site_fract_z
Si Si1 0.193234 0.933864 0.949013
Si Si2 0.591415 0.300020 0.283867
Si Si3 0.344653 0.096718 0.899557
Si Si4 0.000000 0.931671 0.446977
Si Si5 0.091979 0.679477 0.447253
Si Si6 0.334069 0.270919 0.623641
Si Si7 0.592159 0.932695 0.804550
O O1 0.273742 0.939888 0.921446
O O2 0.131332 0.883976 0.931851
O O3 0.151693 0.000000 0.945526
O O4 0.217511 0.918337 0.000000
O O5 0.500000 0.299498 0.274330
O O6 0.631257 0.250000 0.250000
O O7 0.606652 0.277364 0.334557
O O8 0.619999 0.371433 0.276779
O O9 0.422329 0.100598 0.929588
O O10 0.314540 0.164844 0.897712
O O11 0.362170 0.066571 0.851507
O O12 0.000000 0.928412 0.500000
O O13 0.000000 0.000000 0.428397
O O14 0.108078 0.694654 0.500000
O O15 0.128634 0.730743 0.415704
O O16 0.000000 0.674050 0.437753
O O17 0.250000 0.250000 0.642175
O O18 0.500000 0.925730 0.814719
O O19 0.608378 0.000000 0.781280
#
# Coordination Sequence:
#
# PCOD8284724 Si02
#       7
#    32  32  32  16  32  32  32
#     4  10  20  34  52  73 100 139 187 237 283 327
#     4   9  19  35  57  85 113 144 182 224 274 332
#     4  11  20  32  49  76 110 147 185 224 271 330
#     4  11  22  32  46  74 113 152 185 223 276 335
#     4  10  22  38  55  77 106 143 187 237 286 330
#     4  11  22  37  56  81 109 146 187 227 278 334
#     4   9  16  28  50  78 109 144 179 216 263 327
#
# _framework density 18.739560999999998
#
# number of rings (size 3 to 8) (size 9 to 14) (size 15 to 20)
#    0.000    1.923    2.308    2.308    2.154    3.385 
#    0.000    1.538    0.000    0.923    0.000    4.308 
#    0.000    0.000    0.000    0.000    0.000    0.000 
#
# Total GULP energy -644300.750171 kJ/mol
# GULP energy per Si atom -12390.399042 kJ/mol
# Density = 1.869691 g / cm^3
# Si number density = 18.739561 Si / 1000 Ang^3
#
#
#
# Elastic Constant Matrix: (Units=GPa)
#
#
# Indices 1 2 3 4 5 6 
#
# 1 49.7608 22.3736 8.6567 0.0000 0.0000 0.0000
# 2 22.3736 154.6019 45.1283 0.0000 0.0000 0.0000
# 3 8.6567 45.1283 52.5055 0.0000 0.0000 0.0000
# 4 0.0000 0.0000 0.0000 26.5012 0.0000 0.0000
# 5 0.0000 0.0000 0.0000 0.0000 18.3727 0.0000
# 6 0.0000 0.0000 0.0000 0.0000 0.0000 22.6885
#
#
#
# Elastic Compliance Matrix: (Units=1/GPa)
#
#
# Indices 1 2 3 4 5 6 
#
# 1 0.021548 -0.002778 -0.001165 0.000000 0.000000 0.000000
# 2 -0.002778 0.008993 -0.007271 0.000000 0.000000 0.000000
# 3 -0.001165 -0.007271 0.025487 0.000000 0.000000 0.000000
# 4 0.000000 0.000000 0.000000 0.037734 0.000000 0.000000
# 5 0.000000 0.000000 0.000000 0.000000 0.054429 0.000000
# 6 0.000000 0.000000 0.000000 0.000000 0.000000 0.044075
#
#
# Mechanical properties :
#
#
# Convention : Reuss Voigt Hill
#
# Bulk Modulus (GPa) = 29.76235 45.46505 37.61370
# Shear Modulus (GPa) = 22.13425 25.55977 23.84701
#
# Velocity S-wave (km/s) = 3.44052 3.69717 3.57115
# Velocity P-wave (km/s) = 5.63023 6.52224 6.09258
#
# Compressibility (1/GPa) = 0.03359950
#
# Stress axis : x y z
#
# Youngs Moduli (GPa) = 46.40807 111.20044 39.23539
#
# Poissons Ratio (x) = 0.30896 0.04569
# Poissons Ratio (y) = 0.12894 0.28529
# Poissons Ratio (z) = 0.05405 0.80856
#
# Static dielectric constant tensor:
#      x y z
#    x 3.269650 0.000000 0.000000 
#    y 0.000000 3.928570 0.000000 
#    z 0.000000 0.000000 3.226500 
# 
# 
# High freq. dielectric constant tensor:
#      x y z
#    x 1.716140 0.000000 0.000000 
#    y 0.000000 1.751960 0.000000 
#    z 0.000000 0.000000 1.697450 
# 
# From -- ./inp_files/46498.got.cif
#   From: 2010.03.12/outbox.cif.g09.slc.cpg/sg69_24_cif.got.tgz:46498.got - 2010.04.10 23:52:46.
