data_PCOD8284316
_publ_section_title
;
Structure prediction by ZEFSAII (Michael W. Deem and Ramdas Pophale) SiO2 
 PCOD8284316
Probable space group: F M M M
;
_chemical_formula_sum "Si O2"
_cell_formula_units_Z 208
_cell_length_a 18.416447
_cell_length_b 31.636192
_cell_length_c 18.871867
_cell_angle_alpha 90.000000
_cell_angle_beta 90.000000
_cell_angle_gamma 90.000000
_cell_volume 10995.245162
_symmetry_space_group_name_H-M "F M M M"
_symmetry_group_IT_number 69
_symmetry_cell_setting 'orthorhombic'
loop_
_space_group_symop_operation_xyz
x,y,z
-x,-y,z
x,-y,-z
-x,y,-z
-x,-y,-z
x,y,-z
-x,y,z
x,-y,z
x,1/2+y,1/2+z
-x,1/2-y,1/2+z
x,1/2-y,1/2-z
-x,1/2+y,1/2-z
-x,1/2-y,1/2-z
x,1/2+y,1/2-z
-x,1/2+y,1/2+z
x,1/2-y,1/2+z
1/2+x,y,1/2+z
1/2-x,-y,1/2+z
1/2+x,-y,1/2-z
1/2-x,y,1/2-z
1/2-x,-y,1/2-z
1/2+x,y,1/2-z
1/2-x,y,1/2+z
1/2+x,-y,1/2+z
1/2+x,1/2+y,z
1/2-x,1/2-y,z
1/2+x,1/2-y,-z
1/2-x,1/2+y,-z
1/2-x,1/2-y,-z
1/2+x,1/2+y,-z
1/2-x,1/2+y,z
1/2+x,1/2-y,z
loop_
_atom_site_type_symbol
_atom_site_label
_atom_site_fract_x
_atom_site_fract_y
_atom_site_fract_z
Si Si1 0.586341 0.453201 0.000000
Si Si2 0.418108 0.906424 0.638882
Si Si3 0.710615 0.547125 0.822760
Si Si4 0.081875 0.667236 0.918847
Si Si5 0.780185 0.115380 0.580889
Si Si6 0.854814 0.173574 0.083406
Si Si7 0.583798 0.748715 0.167530
O O1 0.614357 0.428459 0.931886
O O2 0.618621 0.500000 0.000000
O O3 0.500000 0.453239 0.000000
O O4 0.500000 0.918872 0.658665
O O5 0.363636 0.926611 0.696061
O O6 0.412312 0.856683 0.624241
O O7 0.694605 0.500000 0.854021
O O8 0.750000 0.541214 0.750000
O O9 0.761819 0.574128 0.874292
O O10 0.138629 0.630483 0.899220
O O11 0.095385 0.705318 0.865152
O O12 0.000000 0.649439 0.909285
O O13 0.094152 0.682728 0.000000
O O14 0.775561 0.101096 0.500000
O O15 0.725561 0.154764 0.594978
O O16 0.862972 0.218056 0.123301
O O17 0.874074 0.178372 0.000000
O O18 0.500000 0.734128 0.159318
O O19 0.606679 0.750000 0.250000
#
# Coordination Sequence:
#
# PCOD8284316 Si02
#       7
#    16  32  32  32  32  32  32
#     4   9  16  26  44  76 112 137 165 209 255 310
#     4  10  19  32  53  82 112 144 180 214 259 321
#     4  10  22  38  54  76 110 146 178 213 261 323
#     4   9  18  35  57  76  97 132 180 228 272 312
#     4   9  20  37  57  81 104 133 177 223 270 324
#     4  10  19  33  53  78 112 144 172 214 266 325
#     4  10  21  34  49  74 107 142 180 219 260 308
#
# _framework density 18.917268
#
# number of rings (size 3 to 8) (size 9 to 14) (size 15 to 20)
#    0.000    2.385    0.769    1.385    1.077    5.846 
#    0.000    5.385    0.000    1.385    0.000    2.154 
#    0.000    0.000    0.000    0.000    0.000    0.000 
#
# Total GULP energy -644604.420402 kJ/mol
# GULP energy per Si atom -12396.238854 kJ/mol
# Density = 1.887421 g / cm^3
# Si number density = 18.917268 Si / 1000 Ang^3
#
#
#
# Elastic Constant Matrix: (Units=GPa)
#
#
# Indices 1 2 3 4 5 6 
#
# 1 103.4155 48.6241 38.3007 0.0000 0.0000 0.0000
# 2 48.6241 92.1894 40.4266 0.0000 0.0000 0.0000
# 3 38.3007 40.4266 71.1936 0.0000 0.0000 0.0000
# 4 0.0000 0.0000 0.0000 27.1963 0.0000 0.0000
# 5 0.0000 0.0000 0.0000 0.0000 22.6007 0.0000
# 6 0.0000 0.0000 0.0000 0.0000 0.0000 20.1493
#
#
#
# Elastic Compliance Matrix: (Units=1/GPa)
#
#
# Indices 1 2 3 4 5 6 
#
# 1 0.013816 -0.005363 -0.004387 0.000000 0.000000 0.000000
# 2 -0.005363 0.016526 -0.006499 0.000000 0.000000 0.000000
# 3 -0.004387 -0.006499 0.020097 0.000000 0.000000 0.000000
# 4 0.000000 0.000000 0.000000 0.036770 0.000000 0.000000
# 5 0.000000 0.000000 0.000000 0.000000 0.044246 0.000000
# 6 0.000000 0.000000 0.000000 0.000000 0.000000 0.049630
#
#
# Mechanical properties :
#
#
# Convention : Reuss Voigt Hill
#
# Bulk Modulus (GPa) = 55.74092 57.94459 56.84275
# Shear Modulus (GPa) = 22.77247 23.28574 23.02910
#
# Velocity S-wave (km/s) = 3.47334 3.51226 3.49285
# Velocity P-wave (km/s) = 6.75389 6.86622 6.81029
#
# Compressibility (1/GPa) = 0.01794014
#
# Stress axis : x y z
#
# Youngs Moduli (GPa) = 72.37787 60.51140 49.75926
#
# Poissons Ratio (x) = 0.32454 0.21832
# Poissons Ratio (y) = 0.38819 0.32337
# Poissons Ratio (z) = 0.31755 0.39324
#
# Static dielectric constant tensor:
#      x y z
#    x 3.495450 0.000000 0.000000 
#    y 0.000000 3.405380 0.000000 
#    z 0.000000 0.000000 3.408680 
# 
# 
# High freq. dielectric constant tensor:
#      x y z
#    x 1.734580 0.000000 0.000000 
#    y 0.000000 1.728320 0.000000 
#    z 0.000000 0.000000 1.722890 
# 
# From -- ./inp_files/25209.got.cif
#   From: 2010.03.12/outbox.cif.g09.slc.cpg/sg69_13_cif.got.tgz:25209.got - 2010.04.10 23:52:46.
