data_PCOD8284263
_publ_section_title
;
Structure prediction by ZEFSAII (Michael W. Deem and Ramdas Pophale) SiO2 
 PCOD8284263
Probable space group: F M M M
;
_chemical_formula_sum "Si O2"
_cell_formula_units_Z 192
_cell_length_a 15.396562
_cell_length_b 28.899502
_cell_length_c 23.119632
_cell_angle_alpha 90.000000
_cell_angle_beta 90.000000
_cell_angle_gamma 90.000000
_cell_volume 10287.149023
_symmetry_space_group_name_H-M "F M M M"
_symmetry_group_IT_number 69
_symmetry_cell_setting 'orthorhombic'
loop_
_space_group_symop_operation_xyz
x,y,z
-x,-y,z
x,-y,-z
-x,y,-z
-x,-y,-z
x,y,-z
-x,y,z
x,-y,z
x,1/2+y,1/2+z
-x,1/2-y,1/2+z
x,1/2-y,1/2-z
-x,1/2+y,1/2-z
-x,1/2-y,1/2-z
x,1/2+y,1/2-z
-x,1/2+y,1/2+z
x,1/2-y,1/2+z
1/2+x,y,1/2+z
1/2-x,-y,1/2+z
1/2+x,-y,1/2-z
1/2-x,y,1/2-z
1/2-x,-y,1/2-z
1/2+x,y,1/2-z
1/2-x,y,1/2+z
1/2+x,-y,1/2+z
1/2+x,1/2+y,z
1/2-x,1/2-y,z
1/2+x,1/2-y,-z
1/2-x,1/2+y,-z
1/2-x,1/2-y,-z
1/2+x,1/2+y,-z
1/2-x,1/2+y,z
1/2+x,1/2-y,z
loop_
_atom_site_type_symbol
_atom_site_label
_atom_site_fract_x
_atom_site_fract_y
_atom_site_fract_z
Si Si1 0.242297 0.900098 0.568948
Si Si2 0.902153 0.819080 0.234222
Si Si3 0.402682 0.172631 0.934149
Si Si4 0.260373 0.500000 0.565384
Si Si5 0.399507 0.898891 0.651402
Si Si6 0.346331 0.264192 0.337743
Si Si7 0.595582 0.000000 0.370204
O O1 0.258551 0.900846 0.500000
O O2 0.166742 0.865112 0.587213
O O3 0.333354 0.886244 0.599254
O O4 0.207623 0.950830 0.591689
O O5 0.873289 0.868344 0.207366
O O6 0.899110 0.780007 0.184607
O O7 0.841845 0.804410 0.288299
O O8 0.000000 0.822244 0.258133
O O9 0.500000 0.152134 0.927963
O O10 0.393648 0.218101 0.895164
O O11 0.383864 0.187294 0.000000
O O12 0.289140 0.500000 0.500000
O O13 0.156083 0.500000 0.573322
O O14 0.500000 0.887653 0.633367
O O15 0.389669 0.953417 0.668029
O O16 0.250000 0.250000 0.354679
O O17 0.500000 0.000000 0.396978
#
# Coordination Sequence:
#
# PCOD8284263 Si02
#       7
#    32  32  32  16  32  32  16
#     4   9  17  30  48  71 100 134 172 213 255 301
#     4  10  19  32  50  73 101 131 166 204 242 289
#     4  10  21  37  55  74  99 132 167 205 254 308
#     4   8  14  25  43  67  95 128 168 214 256 293
#     4   9  17  29  48  75 106 139 171 206 251 302
#     4  11  21  34  53  75  97 125 164 208 250 294
#     4   8  14  25  42  68 102 137 170 202 246 303
#
# _framework density 18.664062999999999
#
# number of rings (size 3 to 8) (size 9 to 14) (size 15 to 20)
#    0.000    2.500    0.000    4.000    0.000    0.833 
#    0.000    4.583    0.000    4.500    0.000    8.167 
#    0.000    0.000    0.000    0.000    0.000    0.000 
#
# Total GULP energy -594718.780208 kJ/mol
# GULP energy per Si atom -12389.974588 kJ/mol
# Density = 1.862158 g / cm^3
# Si number density = 18.664063 Si / 1000 Ang^3
#
#
#
# Elastic Constant Matrix: (Units=GPa)
#
#
# Indices 1 2 3 4 5 6 
#
# 1 82.2710 37.1890 29.3966 0.0000 0.0000 0.0000
# 2 37.1890 86.8149 44.0878 0.0000 0.0000 0.0000
# 3 29.3966 44.0878 60.1925 0.0000 0.0000 0.0000
# 4 0.0000 0.0000 0.0000 25.8916 0.0000 0.0000
# 5 0.0000 0.0000 0.0000 0.0000 19.3207 0.0000
# 6 0.0000 0.0000 0.0000 0.0000 0.0000 28.1385
#
#
#
# Elastic Compliance Matrix: (Units=1/GPa)
#
#
# Indices 1 2 3 4 5 6 
#
# 1 0.015768 -0.004528 -0.004384 0.000000 0.000000 0.000000
# 2 -0.004528 0.019641 -0.012175 0.000000 0.000000 0.000000
# 3 -0.004384 -0.012175 0.027672 0.000000 0.000000 0.000000
# 4 0.000000 0.000000 0.000000 0.038623 0.000000 0.000000
# 5 0.000000 0.000000 0.000000 0.000000 0.051758 0.000000
# 6 0.000000 0.000000 0.000000 0.000000 0.000000 0.035539
#
#
# Mechanical properties :
#
#
# Convention : Reuss Voigt Hill
#
# Bulk Modulus (GPa) = 47.83045 50.06948 48.94997
# Shear Modulus (GPa) = 20.99571 22.57716 21.78644
#
# Velocity S-wave (km/s) = 3.35763 3.48179 3.42027
# Velocity P-wave (km/s) = 6.38077 6.56115 6.47159
#
# Compressibility (1/GPa) = 0.02090718
#
# Stress axis : x y z
#
# Youngs Moduli (GPa) = 63.41794 50.91308 36.13781
#
# Poissons Ratio (x) = 0.23055 0.15843
# Poissons Ratio (y) = 0.28717 0.43997
# Poissons Ratio (z) = 0.27804 0.61985
#
# Static dielectric constant tensor:
#      x y z
#    x 3.398240 0.000000 0.000000 
#    y 0.000000 3.762640 0.000000 
#    z 0.000000 0.000000 3.157840 
# 
# 
# High freq. dielectric constant tensor:
#      x y z
#    x 1.723030 0.000000 0.000000 
#    y 0.000000 1.730550 0.000000 
#    z 0.000000 0.000000 1.692580 
# 
# From -- ./inp_files/41276.got.cif
#   From: 2010.03.12/outbox.cif.g09.slc.cpg/sg69_21_cif.got.tgz:41276.got - 2010.04.10 23:52:46.
