data_PCOD8284191
_publ_section_title
;
Structure prediction by ZEFSAII (Michael W. Deem and Ramdas Pophale) SiO2 
 PCOD8284191
Probable space group: F M M M
;
_chemical_formula_sum "Si O2"
_cell_formula_units_Z 192
_cell_length_a 34.604675
_cell_length_b 18.039348
_cell_length_c 16.548852
_cell_angle_alpha 90.000000
_cell_angle_beta 90.000000
_cell_angle_gamma 90.000000
_cell_volume 10330.550938
_symmetry_space_group_name_H-M "F M M M"
_symmetry_group_IT_number 69
_symmetry_cell_setting 'orthorhombic'
loop_
_space_group_symop_operation_xyz
x,y,z
-x,-y,z
x,-y,-z
-x,y,-z
-x,-y,-z
x,y,-z
-x,y,z
x,-y,z
x,1/2+y,1/2+z
-x,1/2-y,1/2+z
x,1/2-y,1/2-z
-x,1/2+y,1/2-z
-x,1/2-y,1/2-z
x,1/2+y,1/2-z
-x,1/2+y,1/2+z
x,1/2-y,1/2+z
1/2+x,y,1/2+z
1/2-x,-y,1/2+z
1/2+x,-y,1/2-z
1/2-x,y,1/2-z
1/2-x,-y,1/2-z
1/2+x,y,1/2-z
1/2-x,y,1/2+z
1/2+x,-y,1/2+z
1/2+x,1/2+y,z
1/2-x,1/2-y,z
1/2+x,1/2-y,-z
1/2-x,1/2+y,-z
1/2-x,1/2-y,-z
1/2+x,1/2+y,-z
1/2-x,1/2+y,z
1/2+x,1/2-y,z
loop_
_atom_site_type_symbol
_atom_site_label
_atom_site_fract_x
_atom_site_fract_y
_atom_site_fract_z
Si Si1 0.895521 0.584683 0.000000
Si Si2 0.418577 0.772095 0.662222
Si Si3 0.799264 0.586999 0.589628
Si Si4 0.271935 0.325713 0.406350
Si Si5 0.355487 0.350417 0.349980
Si Si6 0.374025 0.914146 0.684116
Si Si7 0.545066 0.287111 0.500000
O O1 0.868380 0.601536 0.925230
O O2 0.909344 0.500000 0.000000
O O3 0.934121 0.633809 0.000000
O O4 0.438121 0.750000 0.750000
O O5 0.378669 0.726532 0.656708
O O6 0.409521 0.860221 0.659823
O O7 0.444716 0.756366 0.583269
O O8 0.802966 0.621875 0.500000
O O9 0.799681 0.500000 0.587413
O O10 0.758030 0.611992 0.625517
O O11 0.836194 0.615413 0.638001
O O12 0.283365 0.336207 0.500000
O O13 0.250000 0.250000 0.390200
O O14 0.310396 0.330258 0.353069
O O15 0.364486 0.405917 0.277554
O O16 0.384707 0.000000 0.664131
O O17 0.500000 0.302489 0.500000
#
# Coordination Sequence:
#
# PCOD8284191 Si02
#       7
#    16  32  32  32  32  32  16
#     4  10  20  35  57  84 115 143 174 222 275 334
#     4   9  20  37  58  83 114 142 179 225 270 324
#     4   9  19  32  44  65  97 135 179 226 276 321
#     4  10  19  31  48  70  99 141 190 236 280 324
#     4  10  19  34  52  79 106 144 187 232 278 327
#     4  10  20  34  53  77 105 142 188 234 279 324
#     4  10  22  39  63  91 114 146 181 209 263 341
#
# _framework density 18.585650000000001
#
# number of rings (size 3 to 8) (size 9 to 14) (size 15 to 20)
#    0.000    2.333    0.833    1.500    1.167    2.500 
#    0.000    2.500    0.000    1.000    0.000    0.000 
#    0.000    0.000    0.000    0.000    0.000    0.000 
#
# Total GULP energy -594983.119855 kJ/mol
# GULP energy per Si atom -12395.481664 kJ/mol
# Density = 1.854335 g / cm^3
# Si number density = 18.585650 Si / 1000 Ang^3
#
#
#
# Elastic Constant Matrix: (Units=GPa)
#
#
# Indices 1 2 3 4 5 6 
#
# 1 88.9986 29.8245 35.2946 0.0000 0.0000 0.0000
# 2 29.8245 83.4752 27.7559 0.0000 0.0000 0.0000
# 3 35.2946 27.7559 100.6882 0.0000 0.0000 0.0000
# 4 0.0000 0.0000 0.0000 22.5424 0.0000 0.0000
# 5 0.0000 0.0000 0.0000 0.0000 32.2646 0.0000
# 6 0.0000 0.0000 0.0000 0.0000 0.0000 12.5611
#
#
#
# Elastic Compliance Matrix: (Units=1/GPa)
#
#
# Indices 1 2 3 4 5 6 
#
# 1 0.014025 -0.003717 -0.003892 0.000000 0.000000 0.000000
# 2 -0.003717 0.014174 -0.002604 0.000000 0.000000 0.000000
# 3 -0.003892 -0.002604 0.012014 0.000000 0.000000 0.000000
# 4 0.000000 0.000000 0.000000 0.044361 0.000000 0.000000
# 5 0.000000 0.000000 0.000000 0.000000 0.030994 0.000000
# 6 0.000000 0.000000 0.000000 0.000000 0.000000 0.079611
#
#
# Mechanical properties :
#
#
# Convention : Reuss Voigt Hill
#
# Bulk Modulus (GPa) = 50.53899 50.99023 50.76461
# Shear Modulus (GPa) = 22.50238 25.49275 23.99756
#
# Velocity S-wave (km/s) = 3.48334 3.70758 3.59721
# Velocity P-wave (km/s) = 6.59013 6.76927 6.68030
#
# Compressibility (1/GPa) = 0.01978670
#
# Stress axis : x y z
#
# Youngs Moduli (GPa) = 71.30095 70.55401 83.23849
#
# Poissons Ratio (x) = 0.26225 0.32393
# Poissons Ratio (y) = 0.26502 0.21677
# Poissons Ratio (z) = 0.27748 0.18374
#
# Static dielectric constant tensor:
#      x y z
#    x 3.314940 0.000000 0.000000 
#    y 0.000000 3.390570 0.000000 
#    z 0.000000 0.000000 3.929870 
# 
# 
# High freq. dielectric constant tensor:
#      x y z
#    x 1.690270 0.000000 0.000000 
#    y 0.000000 1.722790 0.000000 
#    z 0.000000 0.000000 1.730440 
# 
# From -- ./inp_files/27795.got.cif
#   From: 2010.03.12/outbox.cif.g09.slc.cpg/sg69_14_cif.got.tgz:27795.got - 2010.04.10 23:52:46.
