data_PCOD8284305
_publ_section_title
;
Structure prediction by ZEFSAII (Michael W. Deem and Ramdas Pophale) SiO2 
 PCOD8284305
Probable space group: F M M M
;
_chemical_formula_sum "Si O2"
_cell_formula_units_Z 192
_cell_length_a 28.983049
_cell_length_b 20.595428
_cell_length_c 18.265949
_cell_angle_alpha 90.000000
_cell_angle_beta 90.000000
_cell_angle_gamma 90.000000
_cell_volume 10903.279205
_symmetry_space_group_name_H-M "F M M M"
_symmetry_group_IT_number 69
_symmetry_cell_setting 'orthorhombic'
loop_
_space_group_symop_operation_xyz
x,y,z
-x,-y,z
x,-y,-z
-x,y,-z
-x,-y,-z
x,y,-z
-x,y,z
x,-y,z
x,1/2+y,1/2+z
-x,1/2-y,1/2+z
x,1/2-y,1/2-z
-x,1/2+y,1/2-z
-x,1/2-y,1/2-z
x,1/2+y,1/2-z
-x,1/2+y,1/2+z
x,1/2-y,1/2+z
1/2+x,y,1/2+z
1/2-x,-y,1/2+z
1/2+x,-y,1/2-z
1/2-x,y,1/2-z
1/2-x,-y,1/2-z
1/2+x,y,1/2-z
1/2-x,y,1/2+z
1/2+x,-y,1/2+z
1/2+x,1/2+y,z
1/2-x,1/2-y,z
1/2+x,1/2-y,-z
1/2-x,1/2+y,-z
1/2-x,1/2-y,-z
1/2+x,1/2+y,-z
1/2-x,1/2+y,z
1/2+x,1/2-y,z
loop_
_atom_site_type_symbol
_atom_site_label
_atom_site_fract_x
_atom_site_fract_y
_atom_site_fract_z
Si Si1 0.552373 0.140783 0.582439
Si Si2 0.865053 0.282603 0.637084
Si Si3 0.052606 0.925987 0.230114
Si Si4 0.229909 0.184158 0.082810
Si Si5 0.276502 0.573085 0.325396
Si Si6 0.865710 0.849348 0.709366
O O1 0.561775 0.113838 0.500000
O O2 0.500000 0.166842 0.588374
O O3 0.585878 0.200312 0.601423
O O4 0.561469 0.085150 0.643074
O O5 0.825337 0.309169 0.583768
O O6 0.866001 0.204789 0.645755
O O7 0.853643 0.316202 0.714020
O O8 0.084145 0.882227 0.282665
O O9 0.000000 0.908996 0.250229
O O10 0.064665 0.000000 0.246519
O O11 0.250000 0.250000 0.120552
O O12 0.248290 0.119865 0.121348
O O13 0.247466 0.179480 0.000000
O O14 0.278156 0.500000 0.358365
O O15 0.250000 0.572556 0.250000
O O16 0.328521 0.596829 0.312468
#
# Coordination Sequence:
#
# PCOD8284305 Si02
#       6
#    32  32  32  32  32  32
#     4   9  18  32  49  72 104 138 172 214 262 314
#     4  10  19  32  53  76 101 134 174 221 264 314
#     4   9  18  32  50  74 105 138 173 215 262 315
#     4  11  22  36  55  78 106 141 179 222 266 314
#     4  11  22  36  56  80 107 140 178 222 267 317
#     4  10  19  32  53  77 100 134 175 218 267 314
#
# _framework density 17.609380999999999
#
# number of rings (size 3 to 8) (size 9 to 14) (size 15 to 20)
#    0.000    2.000    3.333    1.000    0.000    1.667 
#    0.000    5.000    0.000    2.000    0.000    0.000 
#    0.000    0.000    0.000   11.000    0.000    0.333 
#
# Total GULP energy -595063.936938 kJ/mol
# GULP energy per Si atom -12397.165353 kJ/mol
# Density = 1.756930 g / cm^3
# Si number density = 17.609381 Si / 1000 Ang^3
#
#
#
# Elastic Constant Matrix: (Units=GPa)
#
#
# Indices 1 2 3 4 5 6 
#
# 1 112.8586 60.3337 28.9945 0.0000 0.0000 0.0000
# 2 60.3337 136.4790 36.4906 0.0000 0.0000 0.0000
# 3 28.9945 36.4906 51.4444 0.0000 0.0000 0.0000
# 4 0.0000 0.0000 0.0000 -0.0617 0.0000 0.0000
# 5 0.0000 0.0000 0.0000 0.0000 18.6073 0.0000
# 6 0.0000 0.0000 0.0000 0.0000 0.0000 -28.1116
#
#
#
# Elastic Compliance Matrix: (Units=1/GPa)
#
#
# Indices 1 2 3 4 5 6 
#
# 1 0.012163 -0.004373 -0.003753 0.000000 0.000000 0.000000
# 2 -0.004373 0.010615 -0.005064 0.000000 0.000000 0.000000
# 3 -0.003753 -0.005064 0.025146 0.000000 0.000000 0.000000
# 4 0.000000 0.000000 0.000000-16.210898 0.000000 0.000000
# 5 0.000000 0.000000 0.000000 0.000000 0.053742 0.000000
# 6 0.000000 0.000000 0.000000 0.000000 0.000000 -0.035573
#
#
# Mechanical properties :
#
#
# Convention : Reuss Voigt Hill
#
# Bulk Modulus (GPa) = 46.42085 61.37995 53.90040
# Shear Modulus (GPa) = -0.31034 9.75102 4.72034
#
# Velocity S-wave (km/s) = -0.42026 2.35572 1.63902
# Velocity P-wave (km/s) = 5.11695 6.50625 5.85297
#
# Compressibility (1/GPa) = 0.02154205
#
# Stress axis : x y z
#
# Youngs Moduli (GPa) = 82.21771 94.21038 39.76812
#
# Poissons Ratio (x) = 0.41202 0.14925
# Poissons Ratio (y) = 0.35957 0.20139
# Poissons Ratio (z) = 0.30856 0.47710
#
# Static dielectric constant tensor:
#      x y z
#    x 3.346610 0.000000 0.000000 
#    y 0.000000 3.369690 0.000000 
#    z 0.000000 0.000000 3.100060 
# 
# 
# High freq. dielectric constant tensor:
#      x y z
#    x 1.692690 0.000000 0.000000 
#    y 0.000000 1.675340 0.000000 
#    z 0.000000 0.000000 1.658450 
# 
# From -- ./inp_files/32153.got.cif
#   From: 2010.03.12/outbox.cif.g09.slc.cpg/sg69_17_cif.got.tgz:32153.got - 2010.04.10 23:52:46.
