data_PCOD8284335
_publ_section_title
;
Structure prediction by ZEFSAII (Michael W. Deem and Ramdas Pophale) SiO2 
 PCOD8284335
Probable space group: F M M M
;
_chemical_formula_sum "Si O2"
_cell_formula_units_Z 176
_cell_length_a 14.532287
_cell_length_b 24.160717
_cell_length_c 24.488904
_cell_angle_alpha 90.000000
_cell_angle_beta 90.000000
_cell_angle_gamma 90.000000
_cell_volume 8598.310681
_symmetry_space_group_name_H-M "F M M M"
_symmetry_group_IT_number 69
_symmetry_cell_setting 'orthorhombic'
loop_
_space_group_symop_operation_xyz
x,y,z
-x,-y,z
x,-y,-z
-x,y,-z
-x,-y,-z
x,y,-z
-x,y,z
x,-y,z
x,1/2+y,1/2+z
-x,1/2-y,1/2+z
x,1/2-y,1/2-z
-x,1/2+y,1/2-z
-x,1/2-y,1/2-z
x,1/2+y,1/2-z
-x,1/2+y,1/2+z
x,1/2-y,1/2+z
1/2+x,y,1/2+z
1/2-x,-y,1/2+z
1/2+x,-y,1/2-z
1/2-x,y,1/2-z
1/2-x,-y,1/2-z
1/2+x,y,1/2-z
1/2-x,y,1/2+z
1/2+x,-y,1/2+z
1/2+x,1/2+y,z
1/2-x,1/2-y,z
1/2+x,1/2-y,-z
1/2-x,1/2+y,-z
1/2-x,1/2-y,-z
1/2+x,1/2+y,-z
1/2-x,1/2+y,z
1/2+x,1/2-y,z
loop_
_atom_site_type_symbol
_atom_site_label
_atom_site_fract_x
_atom_site_fract_y
_atom_site_fract_z
Si Si1 0.394595 0.327379 0.222823
Si Si2 0.609499 0.720410 0.665920
Si Si3 0.743129 0.563005 0.418867
Si Si4 0.393362 0.658202 0.560459
Si Si5 0.397736 0.064937 0.500000
Si Si6 0.185864 0.560545 0.698238
O O1 0.500000 0.311337 0.228119
O O2 0.353487 0.318996 0.284203
O O3 0.353010 0.282699 0.179370
O O4 0.386710 0.389837 0.201488
O O5 0.500000 0.719292 0.661604
O O6 0.647745 0.698964 0.607413
O O7 0.721893 0.500000 0.436804
O O8 0.659097 0.599987 0.438820
O O9 0.839426 0.582834 0.446483
O O10 0.750493 0.568373 0.354138
O O11 0.380519 0.685243 0.500000
O O12 0.500000 0.644900 0.571712
O O13 0.500000 0.093316 0.500000
O O14 0.413478 0.000000 0.500000
O O15 0.135977 0.500000 0.695991
O O16 0.250000 0.564095 0.750000
#
# Coordination Sequence:
#
# PCOD8284335 Si02
#       6
#    32  32  32  32  16  32
#     4   9  17  33  57  79 105 144 189 232 271 329
#     4   8  16  32  54  81 111 145 184 227 278 333
#     4  10  20  35  53  77 114 151 190 237 281 339
#     4  10  19  32  55  84 113 146 183 228 286 344
#     4   9  18  34  55  75 100 147 204 246 280 323
#     4  10  21  35  52  79 114 146 178 229 292 341
#
# _framework density 20.469138000000001
#
# number of rings (size 3 to 8) (size 9 to 14) (size 15 to 20)
#    0.000    2.636    0.909    2.182    0.000    1.455 
#    0.000    9.091    2.000    7.636    0.000    0.000 
#    0.000    0.000    0.000    0.000    0.000    0.000 
#
# Total GULP energy -545196.860351 kJ/mol
# GULP energy per Si atom -12390.837735 kJ/mol
# Density = 2.042255 g / cm^3
# Si number density = 20.469138 Si / 1000 Ang^3
#
#
#
# Elastic Constant Matrix: (Units=GPa)
#
#
# Indices 1 2 3 4 5 6 
#
# 1 49.1422 30.5664 37.5637 0.0000 0.0000 0.0000
# 2 30.5664 137.8618 60.5356 0.0000 0.0000 0.0000
# 3 37.5637 60.5356 167.8817 0.0000 0.0000 0.0000
# 4 0.0000 0.0000 0.0000 22.8107 0.0000 0.0000
# 5 0.0000 0.0000 0.0000 0.0000 19.7685 0.0000
# 6 0.0000 0.0000 0.0000 0.0000 0.0000 25.5386
#
#
#
# Elastic Compliance Matrix: (Units=1/GPa)
#
#
# Indices 1 2 3 4 5 6 
#
# 1 0.026150 -0.003836 -0.004468 0.000000 0.000000 0.000000
# 2 -0.003836 0.009181 -0.002452 0.000000 0.000000 0.000000
# 3 -0.004468 -0.002452 0.007840 0.000000 0.000000 0.000000
# 4 0.000000 0.000000 0.000000 0.043839 0.000000 0.000000
# 5 0.000000 0.000000 0.000000 0.000000 0.050585 0.000000
# 6 0.000000 0.000000 0.000000 0.000000 0.000000 0.039156
#
#
# Mechanical properties :
#
#
# Convention : Reuss Voigt Hill
#
# Bulk Modulus (GPa) = 46.16939 68.02412 57.09675
# Shear Modulus (GPa) = 24.33268 28.70490 26.51879
#
# Velocity S-wave (km/s) = 3.45157 3.74886 3.60328
# Velocity P-wave (km/s) = 6.20395 7.21410 6.72801
#
# Compressibility (1/GPa) = 0.02165937
#
# Stress axis : x y z
#
# Youngs Moduli (GPa) = 38.24033 108.92139 127.54301
#
# Poissons Ratio (x) = 0.41784 0.56985
# Poissons Ratio (y) = 0.14670 0.31276
# Poissons Ratio (z) = 0.17086 0.26709
#
# Static dielectric constant tensor:
#      x y z
#    x 3.383690 0.000000 0.000000 
#    y 0.000000 3.772740 0.000000 
#    z 0.000000 0.000000 4.127140 
# 
# 
# High freq. dielectric constant tensor:
#      x y z
#    x 1.772960 0.000000 0.000000 
#    y 0.000000 1.786230 0.000000 
#    z 0.000000 0.000000 1.815750 
# 
# From -- ./inp_files/17925.got.cif
#   From: 2010.03.12/outbox.cif.g09.slc.cpg/sg69_9_cif.got.tgz:17925.got - 2010.04.10 23:52:46.
