data_PCOD8284223
_publ_section_title
;
Structure prediction by ZEFSAII (Michael W. Deem and Ramdas Pophale) SiO2 
 PCOD8284223
Probable space group: F M M M
;
_chemical_formula_sum "Si O2"
_cell_formula_units_Z 144
_cell_length_a 13.971749
_cell_length_b 33.940422
_cell_length_c 14.656758
_cell_angle_alpha 90.000000
_cell_angle_beta 90.000000
_cell_angle_gamma 90.000000
_cell_volume 6950.338078
_symmetry_space_group_name_H-M "F M M M"
_symmetry_group_IT_number 69
_symmetry_cell_setting 'orthorhombic'
loop_
_space_group_symop_operation_xyz
x,y,z
-x,-y,z
x,-y,-z
-x,y,-z
-x,-y,-z
x,y,-z
-x,y,z
x,-y,z
x,1/2+y,1/2+z
-x,1/2-y,1/2+z
x,1/2-y,1/2-z
-x,1/2+y,1/2-z
-x,1/2-y,1/2-z
x,1/2+y,1/2-z
-x,1/2+y,1/2+z
x,1/2-y,1/2+z
1/2+x,y,1/2+z
1/2-x,-y,1/2+z
1/2+x,-y,1/2-z
1/2-x,y,1/2-z
1/2-x,-y,1/2-z
1/2+x,y,1/2-z
1/2-x,y,1/2+z
1/2+x,-y,1/2+z
1/2+x,1/2+y,z
1/2-x,1/2-y,z
1/2+x,1/2-y,-z
1/2-x,1/2+y,-z
1/2-x,1/2-y,-z
1/2+x,1/2+y,-z
1/2-x,1/2+y,z
1/2+x,1/2-y,z
loop_
_atom_site_type_symbol
_atom_site_label
_atom_site_fract_x
_atom_site_fract_y
_atom_site_fract_z
Si Si1 0.761582 0.954985 0.643248
Si Si2 0.394945 0.614648 0.394902
Si Si3 0.393556 0.453699 0.000000
Si Si4 0.791769 0.690531 0.891267
Si Si5 0.394303 0.768769 0.608732
O O1 0.750000 0.950194 0.750000
O O2 0.850075 0.928467 0.613814
O O3 0.665445 0.940764 0.590408
O O4 0.785340 0.000000 0.615998
O O5 0.407300 0.625349 0.500000
O O6 0.500000 0.614384 0.348245
O O7 0.328368 0.648803 0.350513
O O8 0.407820 0.500000 0.000000
O O9 0.500000 0.433877 0.000000
O O10 0.683780 0.699400 0.854888
O O11 0.863007 0.725170 0.858209
O O12 0.788279 0.689672 0.000000
O O13 0.396344 0.769510 0.500000
O O14 0.500000 0.778478 0.648128
#
# Coordination Sequence:
#
# PCOD8284223 Si02
#       5
#    32  32  16  32  32
#     4  10  21  37  57  81 109 141 184 234 276 328
#     4  10  19  31  50  76 108 141 174 217 273 331
#     4   9  18  36  59  79 105 144 184 223 277 340
#     4   8  14  23  37  62  99 136 172 213 259 316
#     4   8  12  20  36  59  91 133 176 216 258 307
#
# _framework density 20.718416000000001
#
# number of rings (size 3 to 8) (size 9 to 14) (size 15 to 20)
#    0.000    3.000    1.111    2.000    0.000    4.000 
#    0.000    4.444    0.000    0.000    0.000    3.111 
#    0.000    8.889    0.000    0.000    0.000    0.000 
#
# Total GULP energy -446121.446073 kJ/mol
# GULP energy per Si atom -12392.262391 kJ/mol
# Density = 2.067126 g / cm^3
# Si number density = 20.718416 Si / 1000 Ang^3
#
#
#
# Elastic Constant Matrix: (Units=GPa)
#
#
# Indices 1 2 3 4 5 6 
#
# 1 224.5506 92.1882 28.2039 0.0000 0.0000 0.0000
# 2 92.1882 117.1331 11.0763 0.0000 0.0000 0.0000
# 3 28.2039 11.0763 47.6719 0.0000 0.0000 0.0000
# 4 0.0000 0.0000 0.0000 9.0116 0.0000 0.0000
# 5 0.0000 0.0000 0.0000 0.0000 6.7837 0.0000
# 6 0.0000 0.0000 0.0000 0.0000 0.0000 29.2216
#
#
#
# Elastic Compliance Matrix: (Units=1/GPa)
#
#
# Indices 1 2 3 4 5 6 
#
# 1 0.006952 -0.005196 -0.002905 0.000000 0.000000 0.000000
# 2 -0.005196 0.012614 0.000144 0.000000 0.000000 0.000000
# 3 -0.002905 0.000144 0.022662 0.000000 0.000000 0.000000
# 4 0.000000 0.000000 0.000000 0.110968 0.000000 0.000000
# 5 0.000000 0.000000 0.000000 0.000000 0.147412 0.000000
# 6 0.000000 0.000000 0.000000 0.000000 0.000000 0.034221
#
#
# Mechanical properties :
#
#
# Convention : Reuss Voigt Hill
#
# Bulk Modulus (GPa) = 38.00686 72.47693 55.24189
# Shear Modulus (GPa) = 13.90762 26.19586 20.05174
#
# Velocity S-wave (km/s) = 2.59370 3.55966 3.11436
# Velocity P-wave (km/s) = 5.23010 7.20783 6.29709
#
# Compressibility (1/GPa) = 0.02631104
#
# Stress axis : x y z
#
# Youngs Moduli (GPa) = 143.85075 79.27991 44.12624
#
# Poissons Ratio (x) = 0.41198 0.12820
# Poissons Ratio (y) = 0.74752 -0.00634
# Poissons Ratio (z) = 0.41794 -0.01139
#
# Static dielectric constant tensor:
#      x y z
#    x 4.253720 0.000000 0.000000 
#    y 0.000000 3.705000 0.000000 
#    z 0.000000 0.000000 3.215410 
# 
# 
# High freq. dielectric constant tensor:
#      x y z
#    x 1.817700 0.000000 0.000000 
#    y 0.000000 1.793450 0.000000 
#    z 0.000000 0.000000 1.776250 
# 
# From -- ./inp_files/21753.got.cif
#   From: 2010.03.12/outbox.cif.g09.slc.cpg/sg69_11_cif.got.tgz:21753.got - 2010.04.10 23:52:46.
