data_PCOD8284261
_publ_section_title
;
Structure prediction by ZEFSAII (Michael W. Deem and Ramdas Pophale) SiO2 
 PCOD8284261
Probable space group: F M M M
;
_chemical_formula_sum "Si O2"
_cell_formula_units_Z 144
_cell_length_a 27.228735
_cell_length_b 32.013875
_cell_length_c 8.953489
_cell_angle_alpha 90.000000
_cell_angle_beta 90.000000
_cell_angle_gamma 90.000000
_cell_volume 7804.732354
_symmetry_space_group_name_H-M "F M M M"
_symmetry_group_IT_number 69
_symmetry_cell_setting 'orthorhombic'
loop_
_space_group_symop_operation_xyz
x,y,z
-x,-y,z
x,-y,-z
-x,y,-z
-x,-y,-z
x,y,-z
-x,y,z
x,-y,z
x,1/2+y,1/2+z
-x,1/2-y,1/2+z
x,1/2-y,1/2-z
-x,1/2+y,1/2-z
-x,1/2-y,1/2-z
x,1/2+y,1/2-z
-x,1/2+y,1/2+z
x,1/2-y,1/2+z
1/2+x,y,1/2+z
1/2-x,-y,1/2+z
1/2+x,-y,1/2-z
1/2-x,y,1/2-z
1/2-x,-y,1/2-z
1/2+x,y,1/2-z
1/2-x,y,1/2+z
1/2+x,-y,1/2+z
1/2+x,1/2+y,z
1/2-x,1/2-y,z
1/2+x,1/2-y,-z
1/2-x,1/2+y,-z
1/2-x,1/2-y,-z
1/2+x,1/2+y,-z
1/2-x,1/2+y,z
1/2+x,1/2-y,z
loop_
_atom_site_type_symbol
_atom_site_label
_atom_site_fract_x
_atom_site_fract_y
_atom_site_fract_z
Si Si1 0.197062 0.000000 0.322849
Si Si2 0.697815 0.332984 0.676190
Si Si3 0.944834 0.876175 0.175438
Si Si4 0.891590 0.291856 0.676556
Si Si5 0.142897 0.917046 0.325782
O O1 0.250000 0.000000 0.250000
O O2 0.167254 0.040425 0.266802
O O3 0.203843 0.000000 0.500000
O O4 0.700638 0.325142 0.500000
O O5 0.750000 0.325800 0.750000
O O6 0.661379 0.299712 0.750027
O O7 0.679816 0.379632 0.714888
O O8 0.928024 0.829519 0.219145
O O9 0.909629 0.910722 0.248004
O O10 0.000000 0.882895 0.235641
O O11 0.942154 0.882531 0.000000
O O12 0.885968 0.286520 0.500000
O O13 0.913911 0.250000 0.750000
O O14 0.132434 0.919312 0.500000
#
# Coordination Sequence:
#
# PCOD8284261 Si02
#       5
#    16  32  32  32  32
#     4  10  20  34  53  80 111 139 170 207 249 296
#     4  10  19  32  50  72  99 133 171 207 249 300
#     4   9  19  36  56  76 100 132 169 209 253 300
#     4  10  20  34  51  73 101 130 164 208 254 300
#     4   9  19  34  52  76 105 135 169 209 250 298
#
# _framework density 18.450344999999999
#
# number of rings (size 3 to 8) (size 9 to 14) (size 15 to 20)
#    0.000    2.444    0.000    2.000    0.000    4.000 
#    0.000    2.778    0.000    3.333    0.000    0.000 
#    0.000    0.000    0.000    0.000    0.000    0.000 
#
# Total GULP energy -446497.078871 kJ/mol
# GULP energy per Si atom -12402.696635 kJ/mol
# Density = 1.840835 g / cm^3
# Si number density = 18.450345 Si / 1000 Ang^3
#
#
#
# Elastic Constant Matrix: (Units=GPa)
#
#
# Indices 1 2 3 4 5 6 
#
# 1 149.6034 50.2168 42.0339 -0.0163 0.0213 0.0012
# 2 50.2168 109.8099 32.0940 -0.0173 0.0108 0.0017
# 3 42.0339 32.0940 55.9191 -0.0335 0.0378 0.0000
# 4 -0.0163 -0.0173 -0.0335 26.6118 0.0181 0.0069
# 5 0.0213 0.0108 0.0378 0.0181 31.8219 0.0019
# 6 0.0012 0.0017 0.0000 0.0069 0.0019 18.8217
#
#
#
# Elastic Compliance Matrix: (Units=1/GPa)
#
#
# Indices 1 2 3 4 5 6 
#
# 1 0.009045 -0.002582 -0.005317 -0.000003 0.000001 0.000000
# 2 -0.002582 0.011679 -0.004762 0.000000 0.000003 -0.000001
# 3 -0.005317 -0.004762 0.024613 0.000025 -0.000024 0.000001
# 4 -0.000003 0.000000 0.000025 0.037577 -0.000021 -0.000014
# 5 0.000001 0.000003 -0.000024 -0.000021 0.031425 -0.000003
# 6 0.000000 -0.000001 0.000001 -0.000014 -0.000003 0.053130
#
#
# Mechanical properties :
#
#
# Convention : Reuss Voigt Hill
#
# Bulk Modulus (GPa) = 49.96393 62.66911 56.31652
# Shear Modulus (GPa) = 25.06716 28.18359 26.62537
#
# Velocity S-wave (km/s) = 3.68996 3.91261 3.80291
# Velocity P-wave (km/s) = 6.73003 7.37912 7.06204
#
# Compressibility (1/GPa) = 0.02001444
#
# Stress axis : x y z
#
# Youngs Moduli (GPa) = 110.55758 85.62094 40.62918
#
# Poissons Ratio (x) = 0.22111 0.21602
# Poissons Ratio (y) = 0.28550 0.19348
# Poissons Ratio (z) = 0.58783 0.40773
#
# Static dielectric constant tensor:
#      x y z
#    x 3.427890 0.000030 0.000050 
#    y 0.000030 3.529690 -0.000040 
#    z 0.000050 -0.000040 3.349240 
# 
# 
# High freq. dielectric constant tensor:
#      x y z
#    x 1.714570 0.000000 0.000000 
#    y 0.000000 1.712770 0.000000 
#    z 0.000000 0.000000 1.716560 
# 
# From -- ./inp_files/5548.got.cif
#   From: 2010.03.12/outbox.cif.g09.slc.cpg/sg69_3_cif.got.tgz:5548.got - 2010.04.10 23:52:46.
