data_PCOD8284083
_publ_section_title
;
Structure prediction by ZEFSAII (Michael W. Deem and Ramdas Pophale) SiO2 
 PCOD8284083
Probable space group: F M M M
;
_chemical_formula_sum "Si O2"
_cell_formula_units_Z 128
_cell_length_a 15.765140
_cell_length_b 30.650023
_cell_length_c 14.274686
_cell_angle_alpha 90.000000
_cell_angle_beta 90.000000
_cell_angle_gamma 90.000000
_cell_volume 6897.555448
_symmetry_space_group_name_H-M "F M M M"
_symmetry_group_IT_number 69
_symmetry_cell_setting 'orthorhombic'
loop_
_space_group_symop_operation_xyz
x,y,z
-x,-y,z
x,-y,-z
-x,y,-z
-x,-y,-z
x,y,-z
-x,y,z
x,-y,z
x,1/2+y,1/2+z
-x,1/2-y,1/2+z
x,1/2-y,1/2-z
-x,1/2+y,1/2-z
-x,1/2-y,1/2-z
x,1/2+y,1/2-z
-x,1/2+y,1/2+z
x,1/2-y,1/2+z
1/2+x,y,1/2+z
1/2-x,-y,1/2+z
1/2+x,-y,1/2-z
1/2-x,y,1/2-z
1/2-x,-y,1/2-z
1/2+x,y,1/2-z
1/2-x,y,1/2+z
1/2+x,-y,1/2+z
1/2+x,1/2+y,z
1/2-x,1/2-y,z
1/2+x,1/2-y,-z
1/2-x,1/2+y,-z
1/2-x,1/2-y,-z
1/2+x,1/2+y,-z
1/2-x,1/2+y,z
1/2+x,1/2-y,z
loop_
_atom_site_type_symbol
_atom_site_label
_atom_site_fract_x
_atom_site_fract_y
_atom_site_fract_z
Si Si1 0.732145 0.667476 0.646019
Si Si2 0.597112 0.200645 0.000000
Si Si3 0.790003 0.930930 0.394014
Si Si4 0.325403 0.285021 0.000000
Si Si5 0.593224 0.500000 0.698344
Si Si6 0.854135 0.000000 0.101519
O O1 0.750000 0.685964 0.750000
O O2 0.646241 0.684653 0.594403
O O3 0.727121 0.615557 0.651664
O O4 0.815712 0.683539 0.589850
O O5 0.591506 0.254186 0.000000
O O6 0.500000 0.183090 0.000000
O O7 0.823866 0.925787 0.500000
O O8 0.859889 0.956310 0.334029
O O9 0.702919 0.957039 0.391624
O O10 0.250000 0.250000 0.000000
O O11 0.500000 0.500000 0.653955
O O12 0.582607 0.500000 0.811161
O O13 0.901626 0.000000 0.000000
#
# Coordination Sequence:
#
# PCOD8284083 Si02
#       6
#    32  16  32  16  16  16
#     4  10  18  34  60  84 107 146 196 230 266 333
#     4  10  22  38  56  86 122 145 171 231 301 342
#     4  10  18  34  55  79 104 140 187 233 263 310
#     4   8  18  34  52  78 108 145 184 223 272 340
#     4  11  22  32  47  79 117 147 175 219 283 334
#     4   9  19  33  53  73 104 147 195 226 256 306
#
# _framework density 18.557299
#
# number of rings (size 3 to 8) (size 9 to 14) (size 15 to 20)
#    0.000    2.500    2.500    4.125    0.000    6.750 
#    0.000    2.500    0.000    1.500    0.000    0.000 
#    0.000    0.000    0.000    0.000    0.000    0.000 
#
# Total GULP energy -396439.548000 kJ/mol
# GULP energy per Si atom -12388.735875 kJ/mol
# Density = 1.851506 g / cm^3
# Si number density = 18.557299 Si / 1000 Ang^3
#
#
#
# Elastic Constant Matrix: (Units=GPa)
#
#
# Indices 1 2 3 4 5 6 
#
# 1 55.2122 22.9010 28.1037 0.0000 0.0000 0.0000
# 2 22.9010 112.7803 25.2647 0.0000 0.0000 0.0000
# 3 28.1037 25.2647 157.4586 0.0000 0.0000 0.0000
# 4 0.0000 0.0000 0.0000 -10.5344 0.0000 0.0000
# 5 0.0000 0.0000 0.0000 0.0000 14.8934 0.0000
# 6 0.0000 0.0000 0.0000 0.0000 0.0000 3.0044
#
#
#
# Elastic Compliance Matrix: (Units=1/GPa)
#
#
# Indices 1 2 3 4 5 6 
#
# 1 0.021238 -0.003593 -0.003214 0.000000 0.000000 0.000000
# 2 -0.003593 0.009805 -0.000932 0.000000 0.000000 0.000000
# 3 -0.003214 -0.000932 0.007074 0.000000 0.000000 0.000000
# 4 0.000000 0.000000 0.000000 -0.094927 0.000000 0.000000
# 5 0.000000 0.000000 0.000000 0.000000 0.067144 0.000000
# 6 0.000000 0.000000 0.000000 0.000000 0.000000 0.332847
#
#
# Mechanical properties :
#
#
# Convention : Reuss Voigt Hill
#
# Bulk Modulus (GPa) = 44.17016 53.10999 48.64007
# Shear Modulus (GPa) = 13.65354 18.08478 15.86916
#
# Velocity S-wave (km/s) = 2.71541 3.12515 2.92746
# Velocity P-wave (km/s) = 5.80388 6.45784 6.13957
#
# Compressibility (1/GPa) = 0.02263972
#
# Stress axis : x y z
#
# Youngs Moduli (GPa) = 47.08509 101.98783 141.36051
#
# Poissons Ratio (x) = 0.36640 0.45436
# Poissons Ratio (y) = 0.16916 0.13175
# Poissons Ratio (z) = 0.15134 0.09506
#
# Static dielectric constant tensor:
#      x y z
#    x 3.114600 0.000000 0.000000 
#    y 0.000000 3.664330 0.000000 
#    z 0.000000 0.000000 3.672520 
# 
# 
# High freq. dielectric constant tensor:
#      x y z
#    x 1.670740 0.000000 0.000000 
#    y 0.000000 1.729570 0.000000 
#    z 0.000000 0.000000 1.735250 
# 
# From -- ./inp_files/15495.got.cif
#   From: 2010.03.12/outbox.cif.g09.slc.cpg/sg69_8_cif.got.tgz:15495.got - 2010.04.10 23:52:46.
