data_PCOD8284369
_publ_section_title
;
Structure prediction by ZEFSAII (Michael W. Deem and Ramdas Pophale) SiO2 
 PCOD8284369
Probable space group: F M M M
;
_chemical_formula_sum "Si O2"
_cell_formula_units_Z 192
_cell_length_a 18.675943
_cell_length_b 27.845587
_cell_length_c 20.378581
_cell_angle_alpha 90.000000
_cell_angle_beta 90.000000
_cell_angle_gamma 90.000000
_cell_volume 10597.730158
_symmetry_space_group_name_H-M "F M M M"
_symmetry_group_IT_number 69
_symmetry_cell_setting 'orthorhombic'
loop_
_space_group_symop_operation_xyz
x,y,z
-x,-y,z
x,-y,-z
-x,y,-z
-x,-y,-z
x,y,-z
-x,y,z
x,-y,z
x,1/2+y,1/2+z
-x,1/2-y,1/2+z
x,1/2-y,1/2-z
-x,1/2+y,1/2-z
-x,1/2-y,1/2-z
x,1/2+y,1/2-z
-x,1/2+y,1/2+z
x,1/2-y,1/2+z
1/2+x,y,1/2+z
1/2-x,-y,1/2+z
1/2+x,-y,1/2-z
1/2-x,y,1/2-z
1/2-x,-y,1/2-z
1/2+x,y,1/2-z
1/2-x,y,1/2+z
1/2+x,-y,1/2+z
1/2+x,1/2+y,z
1/2-x,1/2-y,z
1/2+x,1/2-y,-z
1/2-x,1/2+y,-z
1/2-x,1/2-y,-z
1/2+x,1/2+y,-z
1/2-x,1/2+y,z
1/2+x,1/2-y,z
loop_
_atom_site_type_symbol
_atom_site_label
_atom_site_fract_x
_atom_site_fract_y
_atom_site_fract_z
Si Si1 0.419208 0.609359 0.745052
Si Si2 0.080420 0.444073 0.619744
Si Si3 0.830122 0.701143 0.719756
Si Si4 0.700535 0.555193 0.309309
Si Si5 0.279497 0.596139 0.928804
Si Si6 0.799115 0.296448 0.572268
O O1 0.500000 0.617640 0.720696
O O2 0.415704 0.572855 0.805491
O O3 0.384136 0.659933 0.760816
O O4 0.373668 0.584386 0.687445
O O5 0.102682 0.500000 0.616667
O O6 0.134657 0.411603 0.577559
O O7 0.000000 0.436623 0.591953
O O8 0.860032 0.750000 0.750000
O O9 0.750000 0.691495 0.750000
O O10 0.840717 0.707400 0.640935
O O11 0.682952 0.500000 0.298306
O O12 0.750000 0.575199 0.250000
O O13 0.740910 0.562659 0.376974
O O14 0.258396 0.652282 0.920752
O O15 0.254938 0.578031 0.000000
O O16 0.840317 0.297813 0.500000
O O17 0.750000 0.250000 0.569700
#
# Coordination Sequence:
#
# PCOD8284369 Si02
#       6
#    32  32  32  32  32  32
#     4  11  22  36  56  82 115 151 189 232 286 344
#     4  10  20  34  53  80 118 158 188 219 272 346
#     4  11  20  34  59  86 112 144 186 240 289 333
#     4  11  21  35  57  82 111 148 191 239 280 327
#     4  11  22  36  57  85 116 150 190 238 285 334
#     4  10  19  33  53  81 112 145 182 222 276 343
#
# _framework density 18.117087999999999
#
# number of rings (size 3 to 8) (size 9 to 14) (size 15 to 20)
#    0.000    1.333    5.000    2.500    0.000    3.000 
#    0.000    0.833    0.000    1.000    0.000    1.167 
#    0.000    0.000    0.000    0.000    0.000    0.000 
#
# Total GULP energy -594653.275104 kJ/mol
# GULP energy per Si atom -12388.609898 kJ/mol
# Density = 1.807585 g / cm^3
# Si number density = 18.117088 Si / 1000 Ang^3
#
#
#
# Elastic Constant Matrix: (Units=GPa)
#
#
# Indices 1 2 3 4 5 6 
#
# 1 102.6262 55.0795 39.6029 0.0000 0.0000 0.0000
# 2 55.0795 105.0021 24.2524 0.0000 0.0000 0.0000
# 3 39.6029 24.2524 120.8244 0.0000 0.0000 0.0000
# 4 0.0000 0.0000 0.0000 -14.6107 0.0000 0.0000
# 5 0.0000 0.0000 0.0000 0.0000 8.2534 0.0000
# 6 0.0000 0.0000 0.0000 0.0000 0.0000 22.9070
#
#
#
# Elastic Compliance Matrix: (Units=1/GPa)
#
#
# Indices 1 2 3 4 5 6 
#
# 1 0.014823 -0.006977 -0.003458 0.000000 0.000000 0.000000
# 2 -0.006977 0.013270 -0.000377 0.000000 0.000000 0.000000
# 3 -0.003458 -0.000377 0.009486 0.000000 0.000000 0.000000
# 4 0.000000 0.000000 0.000000 -0.068443 0.000000 0.000000
# 5 0.000000 0.000000 0.000000 0.000000 0.121162 0.000000
# 6 0.000000 0.000000 0.000000 0.000000 0.000000 0.043655
#
#
# Mechanical properties :
#
#
# Convention : Reuss Voigt Hill
#
# Bulk Modulus (GPa) = 62.67491 62.92470 62.79981
# Shear Modulus (GPa) = 31.07613 17.27780 24.17696
#
# Velocity S-wave (km/s) = 4.14610 3.09151 3.65702
# Velocity P-wave (km/s) = 7.58879 6.89572 7.25054
#
# Compressibility (1/GPa) = 0.01595535
#
# Stress axis : x y z
#
# Youngs Moduli (GPa) = 67.46262 75.35579 105.42278
#
# Poissons Ratio (x) = 0.52574 0.36457
# Poissons Ratio (y) = 0.47067 0.03973
# Poissons Ratio (z) = 0.23330 0.02840
#
# Static dielectric constant tensor:
#      x y z
#    x 3.273880 0.000000 0.000000 
#    y 0.000000 3.525990 0.000000 
#    z 0.000000 0.000000 3.721250 
# 
# 
# High freq. dielectric constant tensor:
#      x y z
#    x 1.660980 0.000000 0.000000 
#    y 0.000000 1.726220 0.000000 
#    z 0.000000 0.000000 1.699950 
# 
# From -- ./inp_files/32164.got.cif
#   From: 2010.03.12/outbox.cif.g09.slc.cpg/sg69_17_cif.got.tgz:32164.got - 2010.04.10 23:52:46.
