data_PCOD8284044
_publ_section_title
;
Structure prediction by ZEFSAII (Michael W. Deem and Ramdas Pophale) SiO2 
 PCOD8284044
Probable space group: F M M M
;
_chemical_formula_sum "Si O2"
_cell_formula_units_Z 144
_cell_length_a 20.001437
_cell_length_b 19.756144
_cell_length_c 19.296332
_cell_angle_alpha 90.000000
_cell_angle_beta 90.000000
_cell_angle_gamma 90.000000
_cell_volume 7624.970088
_symmetry_space_group_name_H-M "F M M M"
_symmetry_group_IT_number 69
_symmetry_cell_setting 'orthorhombic'
loop_
_space_group_symop_operation_xyz
x,y,z
-x,-y,z
x,-y,-z
-x,y,-z
-x,-y,-z
x,y,-z
-x,y,z
x,-y,z
x,1/2+y,1/2+z
-x,1/2-y,1/2+z
x,1/2-y,1/2-z
-x,1/2+y,1/2-z
-x,1/2-y,1/2-z
x,1/2+y,1/2-z
-x,1/2+y,1/2+z
x,1/2-y,1/2+z
1/2+x,y,1/2+z
1/2-x,-y,1/2+z
1/2+x,-y,1/2-z
1/2-x,y,1/2-z
1/2-x,-y,1/2-z
1/2+x,y,1/2-z
1/2-x,y,1/2+z
1/2+x,-y,1/2+z
1/2+x,1/2+y,z
1/2-x,1/2-y,z
1/2+x,1/2-y,-z
1/2-x,1/2+y,-z
1/2-x,1/2-y,-z
1/2+x,1/2+y,-z
1/2-x,1/2+y,z
1/2+x,1/2-y,z
loop_
_atom_site_type_symbol
_atom_site_label
_atom_site_fract_x
_atom_site_fract_y
_atom_site_fract_z
Si Si1 0.863368 0.861641 0.578242
Si Si2 0.317042 0.579594 0.709055
Si Si3 0.000000 0.075300 0.582325
Si Si4 0.423328 0.675471 0.222587
Si Si5 0.575735 0.221499 0.575558
O O1 0.847510 0.886898 0.500000
O O2 0.807575 0.890983 0.630691
O O3 0.869220 0.780766 0.580495
O O4 0.933287 0.888918 0.609004
O O5 0.331985 0.500000 0.707367
O O6 0.250000 0.596590 0.750000
O O7 0.378350 0.617464 0.745140
O O8 0.000000 0.077286 0.500000
O O9 0.000000 0.000000 0.612228
O O10 0.500000 0.660663 0.242851
O O11 0.402329 0.750000 0.250000
O O12 0.412884 0.670597 0.139147
O O13 0.584630 0.185316 0.500000
O O14 0.500000 0.252006 0.580190
#
# Coordination Sequence:
#
# PCOD8284044 Si02
#       5
#    32  32  16  32  32
#     4  10  18  32  54  83 115 146 181 227 290 356
#     4  11  25  41  55  78 117 159 196 235 284 341
#     4   9  16  24  42  77 114 142 170 213 278 351
#     4  10  20  36  59  86 113 147 190 233 283 342
#     4   9  16  30  54  84 117 145 176 229 290 342
#
# _framework density 18.885318999999999
#
# number of rings (size 3 to 8) (size 9 to 14) (size 15 to 20)
#    0.000    2.111    3.333    0.667    1.556    2.222 
#    0.000    1.111    0.000    4.667    0.000    3.111 
#    0.000    0.000    0.000    0.000    0.000    0.000 
#
# Total GULP energy -446189.065797 kJ/mol
# GULP energy per Si atom -12394.140717 kJ/mol
# Density = 1.884234 g / cm^3
# Si number density = 18.885319 Si / 1000 Ang^3
#
#
#
# Elastic Constant Matrix: (Units=GPa)
#
#
# Indices 1 2 3 4 5 6 
#
# 1 62.4690 30.3212 52.1139 0.0000 0.0000 0.0000
# 2 30.3212 52.3522 36.4372 0.0000 0.0000 0.0000
# 3 52.1139 36.4372 159.8531 0.0000 0.0000 0.0000
# 4 0.0000 0.0000 0.0000 22.3684 0.0000 0.0000
# 5 0.0000 0.0000 0.0000 0.0000 30.2346 0.0000
# 6 0.0000 0.0000 0.0000 0.0000 0.0000 26.2171
#
#
#
# Elastic Compliance Matrix: (Units=1/GPa)
#
#
# Indices 1 2 3 4 5 6 
#
# 1 0.026485 -0.011089 -0.006107 0.000000 0.000000 0.000000
# 2 -0.011089 0.027346 -0.002618 0.000000 0.000000 0.000000
# 3 -0.006107 -0.002618 0.008843 0.000000 0.000000 0.000000
# 4 0.000000 0.000000 0.000000 0.044706 0.000000 0.000000
# 5 0.000000 0.000000 0.000000 0.000000 0.033075 0.000000
# 6 0.000000 0.000000 0.000000 0.000000 0.000000 0.038143
#
#
# Mechanical properties :
#
#
# Convention : Reuss Voigt Hill
#
# Bulk Modulus (GPa) = 43.39060 56.93543 50.16301
# Shear Modulus (GPa) = 22.13289 26.15081 24.14185
#
# Velocity S-wave (km/s) = 3.42711 3.72521 3.57927
# Velocity P-wave (km/s) = 6.21979 6.97971 6.61068
#
# Compressibility (1/GPa) = 0.02304647
#
# Stress axis : x y z
#
# Youngs Moduli (GPa) = 37.75753 36.56815 113.07898
#
# Poissons Ratio (x) = 0.40551 0.69054
# Poissons Ratio (y) = 0.41870 0.29606
# Poissons Ratio (z) = 0.23057 0.09574
#
# Static dielectric constant tensor:
#      x y z
#    x 3.267290 0.000000 0.000000 
#    y 0.000000 3.148680 0.000000 
#    z 0.000000 0.000000 3.899560 
# 
# 
# High freq. dielectric constant tensor:
#      x y z
#    x 1.697810 0.000000 0.000000 
#    y 0.000000 1.699450 0.000000 
#    z 0.000000 0.000000 1.757490 
# 
# From -- ./inp_files/24458.got.cif
#   From: 2010.03.12/outbox.cif.g09.slc.cpg/sg69_13_cif.got.tgz:24458.got - 2010.04.10 23:52:46.
