data_PCOD8284376
_publ_section_title
;
Structure prediction by ZEFSAII (Michael W. Deem and Ramdas Pophale) SiO2 
 PCOD8284376
Probable space group: F M M M
;
_chemical_formula_sum "Si O2"
_cell_formula_units_Z 128
_cell_length_a 24.431828
_cell_length_b 20.232016
_cell_length_c 14.312285
_cell_angle_alpha 90.000000
_cell_angle_beta 90.000000
_cell_angle_gamma 90.000000
_cell_volume 7074.635969
_symmetry_space_group_name_H-M "F M M M"
_symmetry_group_IT_number 69
_symmetry_cell_setting 'orthorhombic'
loop_
_space_group_symop_operation_xyz
x,y,z
-x,-y,z
x,-y,-z
-x,y,-z
-x,-y,-z
x,y,-z
-x,y,z
x,-y,z
x,1/2+y,1/2+z
-x,1/2-y,1/2+z
x,1/2-y,1/2-z
-x,1/2+y,1/2-z
-x,1/2-y,1/2-z
x,1/2+y,1/2-z
-x,1/2+y,1/2+z
x,1/2-y,1/2+z
1/2+x,y,1/2+z
1/2-x,-y,1/2+z
1/2+x,-y,1/2-z
1/2-x,y,1/2-z
1/2-x,-y,1/2-z
1/2+x,y,1/2-z
1/2-x,y,1/2+z
1/2+x,-y,1/2+z
1/2+x,1/2+y,z
1/2-x,1/2-y,z
1/2+x,1/2-y,-z
1/2-x,1/2+y,-z
1/2-x,1/2-y,-z
1/2+x,1/2+y,-z
1/2-x,1/2+y,z
1/2+x,1/2-y,z
loop_
_atom_site_type_symbol
_atom_site_label
_atom_site_fract_x
_atom_site_fract_y
_atom_site_fract_z
Si Si1 0.500000 0.106833 0.601660
Si Si2 0.606730 0.806715 0.603206
Si Si3 0.500000 0.926251 0.807389
Si Si4 0.310510 0.671634 0.746190
Si Si5 0.400159 0.843448 0.109974
O O1 0.500000 0.068402 0.500000
O O2 0.447835 0.152561 0.605410
O O3 0.500000 0.062673 0.694808
O O4 0.632421 0.801735 0.500000
O O5 0.651673 0.845193 0.664848
O O6 0.589538 0.733141 0.636484
O O7 0.553522 0.887356 0.841350
O O8 0.500000 0.000000 0.851097
O O9 0.303929 0.750000 0.750000
O O10 0.250000 0.638954 0.750000
O O11 0.340247 0.641706 0.654034
O O12 0.399882 0.858146 0.000000
#
# Coordination Sequence:
#
# PCOD8284376 Si02
#       5
#    16  32  16  32  32
#     4  10  19  33  54  79 100 125 161 209 263 309
#     4   9  17  30  52  79 104 130 162 203 256 310
#     4  12  24  36  53  74  99 135 174 210 249 298
#     4   9  17  29  48  76 108 138 164 196 245 304
#     4  10  20  33  50  76 107 137 166 204 251 299
#
# _framework density 18.092803
#
# number of rings (size 3 to 8) (size 9 to 14) (size 15 to 20)
#    0.000    2.250    2.500    1.125    0.000    5.250 
#    0.000    5.000    0.000    0.750    0.000    0.000 
#    0.000    0.000    0.000    0.000    0.000    0.000 
#
# Total GULP energy -396421.460317 kJ/mol
# GULP energy per Si atom -12388.170635 kJ/mol
# Density = 1.805162 g / cm^3
# Si number density = 18.092803 Si / 1000 Ang^3
#
#
#
# Elastic Constant Matrix: (Units=GPa)
#
#
# Indices 1 2 3 4 5 6 
#
# 1 147.7788 30.2041 57.2702 0.0000 0.0000 0.0000
# 2 30.2041 49.6599 25.6656 0.0000 0.0000 0.0000
# 3 57.2702 25.6656 130.3976 0.0000 0.0000 0.0000
# 4 0.0000 0.0000 0.0000 7.7351 0.0000 0.0000
# 5 0.0000 0.0000 0.0000 0.0000 29.8767 0.0000
# 6 0.0000 0.0000 0.0000 0.0000 0.0000 9.1356
#
#
#
# Elastic Compliance Matrix: (Units=1/GPa)
#
#
# Indices 1 2 3 4 5 6 
#
# 1 0.008727 -0.003704 -0.003104 0.000000 0.000000 0.000000
# 2 -0.003704 0.023989 -0.003095 0.000000 0.000000 0.000000
# 3 -0.003104 -0.003095 0.009641 0.000000 0.000000 0.000000
# 4 0.000000 0.000000 0.000000 0.129281 0.000000 0.000000
# 5 0.000000 0.000000 0.000000 0.000000 0.033471 0.000000
# 6 0.000000 0.000000 0.000000 0.000000 0.000000 0.109462
#
#
# Mechanical properties :
#
#
# Convention : Reuss Voigt Hill
#
# Bulk Modulus (GPa) = 44.34159 61.56844 52.95501
# Shear Modulus (GPa) = 14.62442 23.66257 19.14350
#
# Velocity S-wave (km/s) = 2.84615 3.62034 3.25633
# Velocity P-wave (km/s) = 5.94658 7.18184 6.59320
#
# Compressibility (1/GPa) = 0.02255219
#
# Stress axis : x y z
#
# Youngs Moduli (GPa) = 114.59121 41.68539 103.72153
#
# Poissons Ratio (x) = 0.15439 0.32193
# Poissons Ratio (y) = 0.42440 0.32103
# Poissons Ratio (z) = 0.35566 0.12902
#
# Static dielectric constant tensor:
#      x y z
#    x 3.581670 0.000000 0.000000 
#    y 0.000000 2.851340 0.000000 
#    z 0.000000 0.000000 3.922290 
# 
# 
# High freq. dielectric constant tensor:
#      x y z
#    x 1.702580 0.000000 0.000000 
#    y 0.000000 1.644500 0.000000 
#    z 0.000000 0.000000 1.721300 
# 
# From -- ./inp_files/15332.got.cif
#   From: 2010.03.12/outbox.cif.g09.slc.cpg/sg69_8_cif.got.tgz:15332.got - 2010.04.10 23:52:46.
