data_PCOD8284755
_publ_section_title
;
Structure prediction by ZEFSAII (Michael W. Deem and Ramdas Pophale) SiO2 
 PCOD8284755
Probable space group: F M M M
;
_chemical_formula_sum "Si O2"
_cell_formula_units_Z 160
_cell_length_a 29.360603
_cell_length_b 8.819720
_cell_length_c 29.754619
_cell_angle_alpha 90.000000
_cell_angle_beta 90.000000
_cell_angle_gamma 90.000000
_cell_volume 7705.026951
_symmetry_space_group_name_H-M "F M M M"
_symmetry_group_IT_number 69
_symmetry_cell_setting 'orthorhombic'
loop_
_space_group_symop_operation_xyz
x,y,z
-x,-y,z
x,-y,-z
-x,y,-z
-x,-y,-z
x,y,-z
-x,y,z
x,-y,z
x,1/2+y,1/2+z
-x,1/2-y,1/2+z
x,1/2-y,1/2-z
-x,1/2+y,1/2-z
-x,1/2-y,1/2-z
x,1/2+y,1/2-z
-x,1/2+y,1/2+z
x,1/2-y,1/2+z
1/2+x,y,1/2+z
1/2-x,-y,1/2+z
1/2+x,-y,1/2-z
1/2-x,y,1/2-z
1/2-x,-y,1/2-z
1/2+x,y,1/2-z
1/2-x,y,1/2+z
1/2+x,-y,1/2+z
1/2+x,1/2+y,z
1/2-x,1/2-y,z
1/2+x,1/2-y,-z
1/2-x,1/2+y,-z
1/2-x,1/2-y,-z
1/2+x,1/2+y,-z
1/2-x,1/2+y,z
1/2+x,1/2-y,z
loop_
_atom_site_type_symbol
_atom_site_label
_atom_site_fract_x
_atom_site_fract_y
_atom_site_fract_z
Si Si1 0.895300 0.179367 0.203530
Si Si2 0.500000 0.680171 0.947463
Si Si3 0.428500 0.830654 0.882989
Si Si4 0.795037 0.821157 0.826373
Si Si5 0.798996 0.822372 0.000000
Si Si6 0.325885 0.331123 0.587147
O O1 0.912809 0.250000 0.250000
O O2 0.928517 0.242241 0.164517
O O3 0.842115 0.227254 0.197708
O O4 0.900331 0.000000 0.204273
O O5 0.500000 0.500000 0.945068
O O6 0.455901 0.742290 0.921483
O O7 0.500000 0.733474 0.000000
O O8 0.377200 0.842977 0.897873
O O9 0.448965 0.000000 0.876554
O O10 0.750000 0.750000 0.801980
O O11 0.795100 0.753622 0.876431
O O12 0.789782 0.000000 0.827994
O O13 0.750000 0.750000 0.000000
O O14 0.826841 0.768177 0.957250
O O15 0.794687 0.000000 0.000000
O O16 0.305739 0.500000 0.579023
#
# Coordination Sequence:
#
# PCOD8284755 Si02
#       6
#    32  16  32  32  16  32
#     4  10  21  38  61  88 121 160 203 249 302 360
#     4  11  25  43  66  97 130 161 195 239 293 355
#     4  10  22  41  65  91 121 157 197 244 297 356
#     4  10  20  34  53  79 113 155 200 249 299 350
#     4  12  24  36  52  75 108 149 196 246 293 348
#     4  10  21  37  56  79 110 149 194 243 296 353
#
# _framework density 20.765664000000001
#
# number of rings (size 3 to 8) (size 9 to 14) (size 15 to 20)
#    0.000    1.700    0.000    4.200    1.400    6.000 
#    0.000    2.500    0.000    0.000    0.000    0.000 
#    0.000    0.000    0.000    0.000    0.000    0.000 
#
# Total GULP energy -495959.688668 kJ/mol
# GULP energy per Si atom -12398.992217 kJ/mol
# Density = 2.071840 g / cm^3
# Si number density = 20.765664 Si / 1000 Ang^3
#
#
#
# Elastic Constant Matrix: (Units=GPa)
#
#
# Indices 1 2 3 4 5 6 
#
# 1 59.4117 25.6050 25.6617 -0.0002 0.0000 0.0008
# 2 25.6050 136.4828 62.2252 -0.0003 0.0000 0.0011
# 3 25.6617 62.2252 152.9460 0.0000 0.0000 0.0001
# 4 -0.0002 -0.0003 0.0000 36.6023 0.0000 0.0002
# 5 0.0000 0.0000 0.0000 0.0000 19.1201 0.0000
# 6 0.0008 0.0011 0.0001 0.0002 0.0000 29.8391
#
#
#
# Elastic Compliance Matrix: (Units=1/GPa)
#
#
# Indices 1 2 3 4 5 6 
#
# 1 0.018855 -0.002572 -0.002117 0.000000 0.000000 0.000000
# 2 -0.002572 0.009346 -0.003371 0.000000 0.000000 0.000000
# 3 -0.002117 -0.003371 0.008265 0.000000 0.000000 0.000000
# 4 0.000000 0.000000 0.000000 0.027321 0.000000 0.000000
# 5 0.000000 0.000000 0.000000 0.000000 0.052301 0.000000
# 6 0.000000 0.000000 0.000000 0.000000 0.000000 0.033513
#
#
# Mechanical properties :
#
#
# Convention : Reuss Voigt Hill
#
# Bulk Modulus (GPa) = 49.15029 63.98048 56.56539
# Shear Modulus (GPa) = 28.98506 32.80221 30.89364
#
# Velocity S-wave (km/s) = 3.74012 3.97878 3.86129
# Velocity P-wave (km/s) = 6.50935 7.21007 6.86866
#
# Compressibility (1/GPa) = 0.02034576
#
# Stress axis : x y z
#
# Youngs Moduli (GPa) = 53.03747 106.99366 120.99331
#
# Poissons Ratio (x) = 0.27519 0.25615
# Poissons Ratio (y) = 0.13641 0.40786
# Poissons Ratio (z) = 0.11228 0.36067
#
# Static dielectric constant tensor:
#      x y z
#    x 3.678340 0.000000 -0.000020 
#    y 0.000000 4.279300 -0.000070 
#    z -0.000020 -0.000070 -7.806060 
# 
# 
# High freq. dielectric constant tensor:
#      x y z
#    x 1.803740 0.000000 0.000000 
#    y 0.000000 1.829330 0.000000 
#    z 0.000000 0.000000 1.813670 
# 
# From -- ./inp_files/5789.got.cif
#   From: 2010.03.12/outbox.cif.g09.slc.cpg/sg69_3_cif.got.tgz:5789.got - 2010.04.10 23:52:46.
