data_PCOD8284713
_publ_section_title
;
Structure prediction by ZEFSAII (Michael W. Deem and Ramdas Pophale) SiO2 
 PCOD8284713
Probable space group: F M M M
;
_chemical_formula_sum "Si O2"
_cell_formula_units_Z 144
_cell_length_a 31.976893
_cell_length_b 9.081544
_cell_length_c 26.889231
_cell_angle_alpha 90.000000
_cell_angle_beta 90.000000
_cell_angle_gamma 90.000000
_cell_volume 7808.620872
_symmetry_space_group_name_H-M "F M M M"
_symmetry_group_IT_number 69
_symmetry_cell_setting 'orthorhombic'
loop_
_space_group_symop_operation_xyz
x,y,z
-x,-y,z
x,-y,-z
-x,y,-z
-x,-y,-z
x,y,-z
-x,y,z
x,-y,z
x,1/2+y,1/2+z
-x,1/2-y,1/2+z
x,1/2-y,1/2-z
-x,1/2+y,1/2-z
-x,1/2-y,1/2-z
x,1/2+y,1/2-z
-x,1/2+y,1/2+z
x,1/2-y,1/2+z
1/2+x,y,1/2+z
1/2-x,-y,1/2+z
1/2+x,-y,1/2-z
1/2-x,y,1/2-z
1/2-x,-y,1/2-z
1/2+x,y,1/2-z
1/2-x,y,1/2+z
1/2+x,-y,1/2+z
1/2+x,1/2+y,z
1/2-x,1/2-y,z
1/2+x,1/2-y,-z
1/2-x,1/2+y,-z
1/2-x,1/2-y,-z
1/2+x,1/2+y,-z
1/2-x,1/2+y,z
1/2+x,1/2-y,z
loop_
_atom_site_type_symbol
_atom_site_label
_atom_site_fract_x
_atom_site_fract_y
_atom_site_fract_z
Si Si1 0.000000 0.829196 0.302290
Si Si2 0.913737 0.673762 0.852641
Si Si3 0.621853 0.327913 0.943135
Si Si4 0.661659 0.328006 0.799672
Si Si5 0.208095 0.168516 0.101124
O O1 0.000000 0.750000 0.250000
O O2 0.040165 0.784485 0.334499
O O3 0.000000 0.000000 0.289949
O O4 0.905168 0.500000 0.851877
O O5 0.909350 0.734472 0.908778
O O6 0.881612 0.753831 0.815984
O O7 0.617573 0.500000 0.929115
O O8 0.669494 0.276546 0.932808
O O9 0.609871 0.296895 0.000000
O O10 0.653358 0.500000 0.790179
O O11 0.678335 0.250000 0.750000
O O12 0.697046 0.303115 0.841200
O O13 0.250000 0.250000 0.085310
O O14 0.217097 0.000000 0.090297
#
# Coordination Sequence:
#
# PCOD8284713 Si02
#       5
#    16  32  32  32  32
#     4  10  22  36  53  80 111 139 168 207 251 298
#     4  10  20  35  54  78 106 135 171 212 255 304
#     4   9  19  37  57  76 102 136 172 212 258 305
#     4  10  20  34  51  73 102 137 174 212 256 304
#     4   9  19  33  49  72 102 133 168 212 257 303
#
# _framework density 18.441157
#
# number of rings (size 3 to 8) (size 9 to 14) (size 15 to 20)
#    0.000    2.444    0.000    3.333    0.000    9.333 
#    0.000    2.778    0.000    3.333    0.000    0.000 
#    0.000    0.000    0.000    0.000    0.000    0.000 
#
# Total GULP energy -446454.182842 kJ/mol
# GULP energy per Si atom -12401.505079 kJ/mol
# Density = 1.839918 g / cm^3
# Si number density = 18.441157 Si / 1000 Ang^3
#
#
#
# Elastic Constant Matrix: (Units=GPa)
#
#
# Indices 1 2 3 4 5 6 
#
# 1 105.0483 44.2397 32.7421 0.0000 0.0000 -0.0001
# 2 44.2397 79.8068 43.0132 0.0000 0.0000 0.0000
# 3 32.7421 43.0132 100.6381 0.0000 0.0000 -0.0001
# 4 0.0000 0.0000 0.0000 31.6058 0.0000 0.0000
# 5 0.0000 0.0000 0.0000 0.0000 14.8878 0.0000
# 6 -0.0001 0.0000 -0.0001 0.0000 0.0000 28.7705
#
#
#
# Elastic Compliance Matrix: (Units=1/GPa)
#
#
# Indices 1 2 3 4 5 6 
#
# 1 0.012578 -0.006194 -0.001445 0.000000 0.000000 0.000000
# 2 -0.006194 0.019330 -0.006247 0.000000 0.000000 0.000000
# 3 -0.001445 -0.006247 0.013077 0.000000 0.000000 0.000000
# 4 0.000000 0.000000 0.000000 0.031640 0.000000 0.000000
# 5 0.000000 0.000000 0.000000 0.000000 0.067169 0.000000
# 6 0.000000 0.000000 0.000000 0.000000 0.000000 0.034758
#
#
# Mechanical properties :
#
#
# Convention : Reuss Voigt Hill
#
# Bulk Modulus (GPa) = 58.09166 58.38701 58.23934
# Shear Modulus (GPa) = 23.57807 26.08604 24.83206
#
# Velocity S-wave (km/s) = 3.57957 3.76514 3.67353
# Velocity P-wave (km/s) = 6.97524 7.11559 7.04576
#
# Compressibility (1/GPa) = 0.01721417
#
# Stress axis : x y z
#
# Youngs Moduli (GPa) = 79.50247 51.73175 76.47216
#
# Poissons Ratio (x) = 0.32041 0.11050
# Poissons Ratio (y) = 0.49242 0.47771
# Poissons Ratio (z) = 0.11488 0.32316
#
# Static dielectric constant tensor:
#      x y z
#    x 3.296100 0.000000 0.000000 
#    y 0.000000 3.412430 0.000000 
#    z 0.000000 0.000000 3.492440 
# 
# 
# High freq. dielectric constant tensor:
#      x y z
#    x 1.704070 0.000000 0.000000 
#    y 0.000000 1.718680 0.000000 
#    z 0.000000 0.000000 1.717970 
# 
# From -- ./inp_files/5536.got.cif
#   From: 2010.03.12/outbox.cif.g09.slc.cpg/sg69_3_cif.got.tgz:5536.got - 2010.04.10 23:52:46.
