data_PCOD8284775
_publ_section_title
;
Structure prediction by ZEFSAII (Michael W. Deem and Ramdas Pophale) SiO2 
 PCOD8284775
Probable space group: F M M M
;
_chemical_formula_sum "Si O2"
_cell_formula_units_Z 208
_cell_length_a 27.013830
_cell_length_b 18.709465
_cell_length_c 23.107691
_cell_angle_alpha 90.000000
_cell_angle_beta 90.000000
_cell_angle_gamma 90.000000
_cell_volume 11678.957631
_symmetry_space_group_name_H-M "F M M M"
_symmetry_group_IT_number 69
_symmetry_cell_setting 'orthorhombic'
loop_
_space_group_symop_operation_xyz
x,y,z
-x,-y,z
x,-y,-z
-x,y,-z
-x,-y,-z
x,y,-z
-x,y,z
x,-y,z
x,1/2+y,1/2+z
-x,1/2-y,1/2+z
x,1/2-y,1/2-z
-x,1/2+y,1/2-z
-x,1/2-y,1/2-z
x,1/2+y,1/2-z
-x,1/2+y,1/2+z
x,1/2-y,1/2+z
1/2+x,y,1/2+z
1/2-x,-y,1/2+z
1/2+x,-y,1/2-z
1/2-x,y,1/2-z
1/2-x,-y,1/2-z
1/2+x,y,1/2-z
1/2-x,y,1/2+z
1/2+x,-y,1/2+z
1/2+x,1/2+y,z
1/2-x,1/2-y,z
1/2+x,1/2-y,-z
1/2-x,1/2+y,-z
1/2-x,1/2-y,-z
1/2+x,1/2+y,-z
1/2-x,1/2+y,z
1/2+x,1/2-y,z
loop_
_atom_site_type_symbol
_atom_site_label
_atom_site_fract_x
_atom_site_fract_y
_atom_site_fract_z
Si Si1 0.500000 0.920488 0.432119
Si Si2 0.441570 0.582049 0.649720
Si Si3 0.724767 0.679430 0.431665
Si Si4 0.443818 0.833219 0.737883
Si Si5 0.905656 0.339187 0.614756
Si Si6 0.613000 0.684370 0.569133
Si Si7 0.311587 0.919424 0.431611
O O1 0.500000 0.927679 0.500000
O O2 0.549196 0.879543 0.414520
O O3 0.500000 0.000000 0.404182
O O4 0.500000 0.589322 0.643709
O O5 0.424470 0.500000 0.652947
O O6 0.423152 0.622469 0.707550
O O7 0.418183 0.617888 0.592969
O O8 0.722464 0.687922 0.500000
O O9 0.750000 0.750000 0.404549
O O10 0.669080 0.672155 0.408529
O O11 0.757686 0.610925 0.413927
O O12 0.500000 0.857121 0.723177
O O13 0.442123 0.750000 0.750000
O O14 0.408990 0.849207 0.683548
O O15 0.908936 0.256871 0.595792
O O16 0.853567 0.371246 0.596256
O O17 0.608671 0.686523 0.500000
O O18 0.319047 0.915971 0.500000
O O19 0.315385 0.000000 0.408308
#
# Coordination Sequence:
#
# PCOD8284775 Si02
#       7
#    16  32  32  32  32  32  32
#     4  11  24  36  47  78 127 161 181 222 284 346
#     4  10  23  41  59  82 115 151 189 238 288 334
#     4   9  17  33  54  79 111 146 186 230 276 332
#     4  10  20  38  59  80 107 144 194 243 276 321
#     4  12  21  35  57  84 115 148 194 232 278 338
#     4  11  22  35  59  89 116 149 190 235 285 341
#     4  10  20  34  54  83 118 150 181 225 283 341
#
# _framework density 17.809809000000001
#
# number of rings (size 3 to 8) (size 9 to 14) (size 15 to 20)
#    0.000    1.615    3.846    1.846    1.077    3.692 
#    0.000    2.308    0.000    0.923    0.000    2.154 
#    0.000    0.000    0.000    0.000    0.000    0.000 
#
# Total GULP energy -644869.192842 kJ/mol
# GULP energy per Si atom -12401.330632 kJ/mol
# Density = 1.776927 g / cm^3
# Si number density = 17.809809 Si / 1000 Ang^3
#
#
#
# Elastic Constant Matrix: (Units=GPa)
#
#
# Indices 1 2 3 4 5 6 
#
# 1 77.6063 42.4189 29.2910 0.0000 0.0000 0.0000
# 2 42.4189 124.5611 33.2206 0.0000 0.0000 0.0000
# 3 29.2910 33.2206 65.9940 0.0000 0.0000 0.0000
# 4 0.0000 0.0000 0.0000 27.2006 0.0000 0.0000
# 5 0.0000 0.0000 0.0000 0.0000 -11.4171 0.0000
# 6 0.0000 0.0000 0.0000 0.0000 0.0000 -315.5180
#
#
#
# Elastic Compliance Matrix: (Units=1/GPa)
#
#
# Indices 1 2 3 4 5 6 
#
# 1 0.017390 -0.004463 -0.005472 0.000000 0.000000 0.000000
# 2 -0.004463 0.010418 -0.003264 0.000000 0.000000 0.000000
# 3 -0.005472 -0.003264 0.019225 0.000000 0.000000 0.000000
# 4 0.000000 0.000000 0.000000 0.036764 0.000000 0.000000
# 5 0.000000 0.000000 0.000000 0.000000 -0.087588 0.000000
# 6 0.000000 0.000000 0.000000 0.000000 0.000000 -0.003169
#
#
# Mechanical properties :
#
#
# Convention : Reuss Voigt Hill
#
# Bulk Modulus (GPa) = 48.45881 53.11361 50.78621
# Shear Modulus (GPa) = 190.00109 -49.06485 70.46812
#
# Velocity S-wave (km/s) = 10.33997 -5.25444 6.29706
# Velocity P-wave (km/s) = 13.03156 2.63150 9.02487
#
# Compressibility (1/GPa) = 0.02063608
#
# Stress axis : x y z
#
# Youngs Moduli (GPa) = 57.50374 95.98391 52.01686
#
# Poissons Ratio (x) = 0.42836 0.28464
# Poissons Ratio (y) = 0.25663 0.16977
# Poissons Ratio (z) = 0.31466 0.31327
#
# Static dielectric constant tensor:
#      x y z
#    x 3.303940 0.000000 0.000000 
#    y 0.000000 3.500030 0.000000 
#    z 0.000000 0.000000 3.204080 
# 
# 
# High freq. dielectric constant tensor:
#      x y z
#    x 1.687220 0.000000 0.000000 
#    y 0.000000 1.701780 0.000000 
#    z 0.000000 0.000000 1.666610 
# 
# From -- ./inp_files/38480.got.cif
#   From: 2010.03.12/outbox.cif.g09.slc.cpg/sg69_20_cif.got.tgz:38480.got - 2010.04.10 23:52:46.
