data_PCOD8284319
_publ_section_title
;
Structure prediction by ZEFSAII (Michael W. Deem and Ramdas Pophale) SiO2 
 PCOD8284319
Probable space group: F M M M
;
_chemical_formula_sum "Si O2"
_cell_formula_units_Z 176
_cell_length_a 26.480969
_cell_length_b 19.943466
_cell_length_c 18.369053
_cell_angle_alpha 90.000000
_cell_angle_beta 90.000000
_cell_angle_gamma 90.000000
_cell_volume 9701.106609
_symmetry_space_group_name_H-M "F M M M"
_symmetry_group_IT_number 69
_symmetry_cell_setting 'orthorhombic'
loop_
_space_group_symop_operation_xyz
x,y,z
-x,-y,z
x,-y,-z
-x,y,-z
-x,-y,-z
x,y,-z
-x,y,z
x,-y,z
x,1/2+y,1/2+z
-x,1/2-y,1/2+z
x,1/2-y,1/2-z
-x,1/2+y,1/2-z
-x,1/2-y,1/2-z
x,1/2+y,1/2-z
-x,1/2+y,1/2+z
x,1/2-y,1/2+z
1/2+x,y,1/2+z
1/2-x,-y,1/2+z
1/2+x,-y,1/2-z
1/2-x,y,1/2-z
1/2-x,-y,1/2-z
1/2+x,y,1/2-z
1/2-x,y,1/2+z
1/2+x,-y,1/2+z
1/2+x,1/2+y,z
1/2-x,1/2-y,z
1/2+x,1/2-y,-z
1/2-x,1/2+y,-z
1/2-x,1/2-y,-z
1/2+x,1/2+y,-z
1/2-x,1/2+y,z
1/2+x,1/2-y,z
loop_
_atom_site_type_symbol
_atom_site_label
_atom_site_fract_x
_atom_site_fract_y
_atom_site_fract_z
Si Si1 0.441116 0.735219 0.583176
Si Si2 0.058079 0.000000 0.079273
Si Si3 0.212153 0.575569 0.816487
Si Si4 0.900603 0.631694 0.358578
Si Si5 0.625540 0.818634 0.211654
Si Si6 0.801642 0.922713 0.083476
O O1 0.430322 0.711969 0.500000
O O2 0.500000 0.726230 0.602124
O O3 0.425552 0.812660 0.590045
O O4 0.408148 0.692502 0.640008
O O5 0.071530 0.936499 0.126358
O O6 0.000000 0.000000 0.062850
O O7 0.086453 0.000000 0.000000
O O8 0.188450 0.500000 0.817486
O O9 0.250000 0.582232 0.750000
O O10 0.170166 0.632435 0.812449
O O11 0.244735 0.588682 0.889017
O O12 0.909039 0.647000 0.273330
O O13 0.840602 0.625035 0.373818
O O14 0.646221 0.750000 0.250000
O O15 0.818341 0.000000 0.095852
O O16 0.802741 0.901860 0.000000
#
# Coordination Sequence:
#
# PCOD8284319 Si02
#       6
#    32  16  32  32  32  32
#     4  10  22  41  61  80 111 156 200 243 293 343
#     4  11  22  32  50  83 119 149 181 230 289 354
#     4  10  20  36  58  81 113 153 193 232 281 342
#     4  11  20  34  56  84 117 150 188 236 288 354
#     4  10  23  38  59  86 115 151 194 243 290 343
#     4  10  19  32  53  82 116 152 187 230 288 350
#
# _framework density 18.14226
#
# number of rings (size 3 to 8) (size 9 to 14) (size 15 to 20)
#    0.000    1.727    2.727    2.182    1.273    6.545 
#    0.000    0.000    0.000    3.273    0.000    1.273 
#    0.000    0.000    0.000    0.000    0.000    0.000 
#
# Total GULP energy -545501.342794 kJ/mol
# GULP energy per Si atom -12397.757791 kJ/mol
# Density = 1.810097 g / cm^3
# Si number density = 18.142260 Si / 1000 Ang^3
#
#
#
# Elastic Constant Matrix: (Units=GPa)
#
#
# Indices 1 2 3 4 5 6 
#
# 1 100.0749 63.3921 52.0004 0.0000 0.0000 0.0000
# 2 63.3921 113.0410 59.3809 0.0000 0.0000 0.0000
# 3 52.0004 59.3809 125.8904 0.0000 0.0000 0.0000
# 4 0.0000 0.0000 0.0000 27.5635 0.0000 0.0000
# 5 0.0000 0.0000 0.0000 0.0000 26.4278 0.0000
# 6 0.0000 0.0000 0.0000 0.0000 0.0000 -3.6871
#
#
#
# Elastic Compliance Matrix: (Units=1/GPa)
#
#
# Indices 1 2 3 4 5 6 
#
# 1 0.016439 -0.007513 -0.003246 0.000000 0.000000 0.000000
# 2 -0.007513 0.015194 -0.004064 0.000000 0.000000 0.000000
# 3 -0.003246 -0.004064 0.011201 0.000000 0.000000 0.000000
# 4 0.000000 0.000000 0.000000 0.036280 0.000000 0.000000
# 5 0.000000 0.000000 0.000000 0.000000 0.037839 0.000000
# 6 0.000000 0.000000 0.000000 0.000000 0.000000 -0.271218
#
#
# Mechanical properties :
#
#
# Convention : Reuss Voigt Hill
#
# Bulk Modulus (GPa) = 75.82741 76.50588 76.16665
# Shear Modulus (GPa) = -41.58923 21.00970 -10.28976
#
# Velocity S-wave (km/s) = -4.79309 3.40671 -2.38412
# Velocity P-wave (km/s) = 3.35487 7.59841 5.87328
#
# Compressibility (1/GPa) = 0.01318784
#
# Stress axis : x y z
#
# Youngs Moduli (GPa) = 60.83254 65.81415 89.27774
#
# Poissons Ratio (x) = 0.49448 0.28981
# Poissons Ratio (y) = 0.45705 0.36278
# Poissons Ratio (z) = 0.19747 0.26744
#
# Static dielectric constant tensor:
#      x y z
#    x 3.348210 0.000000 0.000000 
#    y 0.000000 3.318950 0.000000 
#    z 0.000000 0.000000 3.521540 
# 
# 
# High freq. dielectric constant tensor:
#      x y z
#    x 1.694230 0.000000 0.000000 
#    y 0.000000 1.694390 0.000000 
#    z 0.000000 0.000000 1.715310 
# 
# From -- ./inp_files/23603.got.cif
#   From: 2010.03.12/outbox.cif.g09.slc.cpg/sg69_12_cif.got.tgz:23603.got - 2010.04.10 23:52:46.
