data_PCOD8284241
_publ_section_title
;
Structure prediction by ZEFSAII (Michael W. Deem and Ramdas Pophale) SiO2 
 PCOD8284241
Probable space group: F M M M
;
_chemical_formula_sum "Si O2"
_cell_formula_units_Z 176
_cell_length_a 15.484134
_cell_length_b 21.256830
_cell_length_c 27.057125
_cell_angle_alpha 90.000000
_cell_angle_beta 90.000000
_cell_angle_gamma 90.000000
_cell_volume 8905.679640
_symmetry_space_group_name_H-M "F M M M"
_symmetry_group_IT_number 69
_symmetry_cell_setting 'orthorhombic'
loop_
_space_group_symop_operation_xyz
x,y,z
-x,-y,z
x,-y,-z
-x,y,-z
-x,-y,-z
x,y,-z
-x,y,z
x,-y,z
x,1/2+y,1/2+z
-x,1/2-y,1/2+z
x,1/2-y,1/2-z
-x,1/2+y,1/2-z
-x,1/2-y,1/2-z
x,1/2+y,1/2-z
-x,1/2+y,1/2+z
x,1/2-y,1/2+z
1/2+x,y,1/2+z
1/2-x,-y,1/2+z
1/2+x,-y,1/2-z
1/2-x,y,1/2-z
1/2-x,-y,1/2-z
1/2+x,y,1/2-z
1/2-x,y,1/2+z
1/2+x,-y,1/2+z
1/2+x,1/2+y,z
1/2-x,1/2-y,z
1/2+x,1/2-y,-z
1/2-x,1/2+y,-z
1/2-x,1/2-y,-z
1/2+x,1/2+y,-z
1/2-x,1/2+y,z
1/2+x,1/2-y,z
loop_
_atom_site_type_symbol
_atom_site_label
_atom_site_fract_x
_atom_site_fract_y
_atom_site_fract_z
Si Si1 0.594376 0.792387 0.702523
Si Si2 0.292603 0.816415 0.056213
Si Si3 0.596199 0.672117 0.354297
Si Si4 0.182164 0.929727 0.906357
Si Si5 0.000000 0.073102 0.944807
Si Si6 0.744988 0.108323 0.304541
O O1 0.500000 0.826990 0.704690
O O2 0.606571 0.750000 0.750000
O O3 0.596678 0.746323 0.655842
O O4 0.675196 0.837101 0.698911
O O5 0.250000 0.750000 0.072931
O O6 0.375839 0.832814 0.088837
O O7 0.230132 0.876037 0.062938
O O8 0.323123 0.811561 0.000000
O O9 0.500000 0.643374 0.347586
O O10 0.660345 0.634874 0.317676
O O11 0.082556 0.908552 0.911594
O O12 0.211786 0.935642 0.848940
O O13 0.197187 0.000000 0.929021
O O14 0.000000 0.000000 0.954633
O O15 0.000000 0.105398 0.000000
O O16 0.750000 0.075107 0.250000
#
# Coordination Sequence:
#
# PCOD8284241 Si02
#       6
#    32  32  32  32  16  32
#     4  10  19  31  53  83 115 155 201 243 299 364
#     4  10  21  39  61  87 119 154 196 249 305 358
#     4  10  20  34  52  80 118 156 196 243 294 352
#     4  10  22  39  61  90 122 160 204 248 303 373
#     4   9  18  36  62  90 119 152 197 251 307 374
#     4  11  21  33  55  81 117 159 200 253 297 346
#
# _framework density 19.76267
#
# number of rings (size 3 to 8) (size 9 to 14) (size 15 to 20)
#    0.000    1.909    1.818    3.273    1.273    1.818 
#    1.636    0.000    0.000    8.727    0.000    5.091 
#    0.000    0.000    0.000    0.000    0.000    0.000 
#
# Total GULP energy -545137.955172 kJ/mol
# GULP energy per Si atom -12389.498981 kJ/mol
# Density = 1.971769 g / cm^3
# Si number density = 19.762670 Si / 1000 Ang^3
#
#
#
# Elastic Constant Matrix: (Units=GPa)
#
#
# Indices 1 2 3 4 5 6 
#
# 1 150.4336 33.1219 35.0045 0.0000 0.0000 0.0000
# 2 33.1219 67.0614 9.2220 0.0000 0.0000 0.0000
# 3 35.0045 9.2220 94.9679 0.0000 0.0000 0.0000
# 4 0.0000 0.0000 0.0000 15.4832 0.0000 0.0000
# 5 0.0000 0.0000 0.0000 0.0000 22.6592 0.0000
# 6 0.0000 0.0000 0.0000 0.0000 0.0000 37.6670
#
#
#
# Elastic Compliance Matrix: (Units=1/GPa)
#
#
# Indices 1 2 3 4 5 6 
#
# 1 0.008053 -0.003617 -0.002617 0.000000 0.000000 0.000000
# 2 -0.003617 0.016739 -0.000292 0.000000 0.000000 0.000000
# 3 -0.002617 -0.000292 0.011523 0.000000 0.000000 0.000000
# 4 0.000000 0.000000 0.000000 0.064586 0.000000 0.000000
# 5 0.000000 0.000000 0.000000 0.000000 0.044132 0.000000
# 6 0.000000 0.000000 0.000000 0.000000 0.000000 0.026548
#
#
# Mechanical properties :
#
#
# Convention : Reuss Voigt Hill
#
# Bulk Modulus (GPa) = 42.98988 51.90666 47.44827
# Shear Modulus (GPa) = 25.98915 30.83617 28.41266
#
# Velocity S-wave (km/s) = 3.63031 3.95438 3.79581
# Velocity P-wave (km/s) = 6.27475 6.86815 6.57815
#
# Compressibility (1/GPa) = 0.02326129
#
# Stress axis : x y z
#
# Youngs Moduli (GPa) = 124.17927 59.74231 86.78427
#
# Poissons Ratio (x) = 0.21612 0.22711
# Poissons Ratio (y) = 0.44922 0.02535
# Poissons Ratio (z) = 0.32497 0.01745
#
# Static dielectric constant tensor:
#      x y z
#    x 3.800480 0.000000 0.000000 
#    y 0.000000 4.499010 0.000000 
#    z 0.000000 0.000000 3.279650 
# 
# 
# High freq. dielectric constant tensor:
#      x y z
#    x 1.775010 0.000000 0.000000 
#    y 0.000000 1.733770 0.000000 
#    z 0.000000 0.000000 1.782650 
# 
# From -- ./inp_files/41125.got.cif
#   From: 2010.03.12/outbox.cif.g09.slc.cpg/sg69_21_cif.got.tgz:41125.got - 2010.04.10 23:52:46.
