data_PCOD8284310
_publ_section_title
;
Structure prediction by ZEFSAII (Michael W. Deem and Ramdas Pophale) SiO2 
 PCOD8284310
Probable space group: F M M M
;
_chemical_formula_sum "Si O2"
_cell_formula_units_Z 96
_cell_length_a 17.725022
_cell_length_b 15.820345
_cell_length_c 18.736279
_cell_angle_alpha 90.000000
_cell_angle_beta 90.000000
_cell_angle_gamma 90.000000
_cell_volume 5253.951722
_symmetry_space_group_name_H-M "F M M M"
_symmetry_group_IT_number 69
_symmetry_cell_setting 'orthorhombic'
loop_
_space_group_symop_operation_xyz
x,y,z
-x,-y,z
x,-y,-z
-x,y,-z
-x,-y,-z
x,y,-z
-x,y,z
x,-y,z
x,1/2+y,1/2+z
-x,1/2-y,1/2+z
x,1/2-y,1/2-z
-x,1/2+y,1/2-z
-x,1/2-y,1/2-z
x,1/2+y,1/2-z
-x,1/2+y,1/2+z
x,1/2-y,1/2+z
1/2+x,y,1/2+z
1/2-x,-y,1/2+z
1/2+x,-y,1/2-z
1/2-x,y,1/2-z
1/2-x,-y,1/2-z
1/2+x,y,1/2-z
1/2-x,y,1/2+z
1/2+x,-y,1/2+z
1/2+x,1/2+y,z
1/2-x,1/2-y,z
1/2+x,1/2-y,-z
1/2-x,1/2+y,-z
1/2-x,1/2-y,-z
1/2+x,1/2+y,-z
1/2-x,1/2+y,z
1/2+x,1/2-y,z
loop_
_atom_site_type_symbol
_atom_site_label
_atom_site_fract_x
_atom_site_fract_y
_atom_site_fract_z
Si Si1 0.913232 0.231725 0.418115
Si Si2 0.195908 0.669984 0.326384
Si Si3 0.155866 0.595917 0.820732
O O1 0.891372 0.216329 0.500000
O O2 0.863239 0.309728 0.388751
O O3 0.897561 0.145396 0.375589
O O4 0.000000 0.257462 0.409390
O O5 0.250000 0.750000 0.311328
O O6 0.149385 0.641937 0.256280
O O7 0.256063 0.596510 0.347030
O O8 0.126958 0.500000 0.816083
#
# Coordination Sequence:
#
# PCOD8284310 Si02
#       3
#    32  32  32
#     4  10  21  35  50  71 101 135 169 203 239 285
#     4   9  17  32  54  76  97 126 167 208 241 285
#     4  10  19  32  53  79 103 126 156 202 256 300
#
# _framework density 18.27196
#
# number of rings (size 3 to 8) (size 9 to 14) (size 15 to 20)
#    0.000    2.333    0.000    9.000    0.000   10.000 
#    0.000    1.667    0.000    6.000    0.000    9.333 
#    0.000    0.000    0.000    0.000    0.000    0.000 
#
# Total GULP energy -297358.569102 kJ/mol
# GULP energy per Si atom -12389.940379 kJ/mol
# Density = 1.823037 g / cm^3
# Si number density = 18.271960 Si / 1000 Ang^3
#
#
#
# Elastic Constant Matrix: (Units=GPa)
#
#
# Indices 1 2 3 4 5 6 
#
# 1 69.5829 10.5255 49.1619 0.0000 0.0000 0.0000
# 2 10.5255 66.1813 26.2024 0.0000 0.0000 0.0000
# 3 49.1619 26.2024 104.2469 0.0000 0.0000 0.0000
# 4 0.0000 0.0000 0.0000 6.1925 0.0000 0.0000
# 5 0.0000 0.0000 0.0000 0.0000 33.0476 0.0000
# 6 0.0000 0.0000 0.0000 0.0000 0.0000 14.9776
#
#
#
# Elastic Compliance Matrix: (Units=1/GPa)
#
#
# Indices 1 2 3 4 5 6 
#
# 1 0.021579 0.000663 -0.010343 0.000000 0.000000 0.000000
# 2 0.000663 0.016800 -0.004535 0.000000 0.000000 0.000000
# 3 -0.010343 -0.004535 0.015610 0.000000 0.000000 0.000000
# 4 0.000000 0.000000 0.000000 0.161486 0.000000 0.000000
# 5 0.000000 0.000000 0.000000 0.000000 0.030259 0.000000
# 6 0.000000 0.000000 0.000000 0.000000 0.000000 0.066766
#
#
# Mechanical properties :
#
#
# Convention : Reuss Voigt Hill
#
# Bulk Modulus (GPa) = 39.12598 45.75453 42.44025
# Shear Modulus (GPa) = 14.30816 21.11830 17.71323
#
# Velocity S-wave (km/s) = 2.80137 3.40336 3.11693
# Velocity P-wave (km/s) = 5.65006 6.36703 6.01923
#
# Compressibility (1/GPa) = 0.02555847
#
# Stress axis : x y z
#
# Youngs Moduli (GPa) = 46.34233 59.52303 64.06061
#
# Poissons Ratio (x) = -0.03947 0.66257
# Poissons Ratio (y) = -0.03073 0.29054
# Poissons Ratio (z) = 0.47931 0.26996
#
# Static dielectric constant tensor:
#      x y z
#    x 3.505480 0.000000 0.000000 
#    y 0.000000 3.553010 0.000000 
#    z 0.000000 0.000000 3.303680 
# 
# 
# High freq. dielectric constant tensor:
#      x y z
#    x 1.698360 0.000000 0.000000 
#    y 0.000000 1.691380 0.000000 
#    z 0.000000 0.000000 1.701890 
# 
# From -- ./inp_files/22193.got.cif
#   From: 2010.03.12/outbox.cif.g09.slc.cpg/sg69_12_cif.got.tgz:22193.got - 2010.04.10 23:52:46.
