data_PCOD8284842
_publ_section_title
;
Structure prediction by ZEFSAII (Michael W. Deem and Ramdas Pophale) SiO2 
 PCOD8284842
Probable space group: F M M M
;
_chemical_formula_sum "Si O2"
_cell_formula_units_Z 160
_cell_length_a 29.938711
_cell_length_b 9.061322
_cell_length_c 29.782156
_cell_angle_alpha 90.000000
_cell_angle_beta 90.000000
_cell_angle_gamma 90.000000
_cell_volume 8079.431362
_symmetry_space_group_name_H-M "F M M M"
_symmetry_group_IT_number 69
_symmetry_cell_setting 'orthorhombic'
loop_
_space_group_symop_operation_xyz
x,y,z
-x,-y,z
x,-y,-z
-x,y,-z
-x,-y,-z
x,y,-z
-x,y,z
x,-y,z
x,1/2+y,1/2+z
-x,1/2-y,1/2+z
x,1/2-y,1/2-z
-x,1/2+y,1/2-z
-x,1/2-y,1/2-z
x,1/2+y,1/2-z
-x,1/2+y,1/2+z
x,1/2-y,1/2+z
1/2+x,y,1/2+z
1/2-x,-y,1/2+z
1/2+x,-y,1/2-z
1/2-x,y,1/2-z
1/2-x,-y,1/2-z
1/2+x,y,1/2-z
1/2-x,y,1/2+z
1/2+x,-y,1/2+z
1/2+x,1/2+y,z
1/2-x,1/2-y,z
1/2+x,1/2-y,-z
1/2-x,1/2+y,-z
1/2-x,1/2-y,-z
1/2+x,1/2+y,-z
1/2-x,1/2+y,z
1/2+x,1/2-y,z
loop_
_atom_site_type_symbol
_atom_site_label
_atom_site_fract_x
_atom_site_fract_y
_atom_site_fract_z
Si Si1 0.135838 0.674077 0.050961
Si Si2 0.548696 0.835129 0.553285
Si Si3 0.296988 0.827915 0.874320
Si Si4 0.951507 0.827168 0.202086
Si Si5 0.633858 0.173941 0.202096
O O1 0.131964 0.500000 0.053495
O O2 0.089010 0.734275 0.070654
O O3 0.175865 0.731859 0.082345
O O4 0.145039 0.728379 0.000000
O O5 0.549601 0.839642 0.500000
O O6 0.500000 0.774288 0.569244
O O7 0.555433 0.000000 0.572746
O O8 0.250000 0.750000 0.871566
O O9 0.323939 0.792273 0.829102
O O10 0.288288 0.000000 0.879657
O O11 0.953925 0.750000 0.250000
O O12 0.910004 0.753943 0.322471
O O13 0.000000 0.804891 0.177748
O O14 0.941023 0.000000 0.207653
O O15 0.642975 0.250000 0.250000
O O16 0.626251 0.000000 0.208246
#
# Coordination Sequence:
#
# PCOD8284842 Si02
#       5
#    32  32  32  32  32
#     4   9  18  34  55  78 105 136 171 210 253 304
#     4   8  14  26  46  74 107 140 173 208 247 294
#     4  10  23  40  56  77 103 132 169 216 265 310
#     4   9  16  27  47  76 107 138 172 207 247 298
#     4  10  20  35  55  78 105 136 172 211 254 305
#
# _framework density 19.803374000000002
#
# number of rings (size 3 to 8) (size 9 to 14) (size 15 to 20)
#    0.000    2.800    0.000    3.000    0.000    4.800 
#    0.000    5.000    0.000    6.000    0.000    0.000 
#    0.000    0.000    0.000    0.000    0.000    0.000 
#
# Total GULP energy -495628.232754 kJ/mol
# GULP energy per Si atom -12390.705819 kJ/mol
# Density = 1.975830 g / cm^3
# Si number density = 19.803374 Si / 1000 Ang^3
#
#
#
# Elastic Constant Matrix: (Units=GPa)
#
#
# Indices 1 2 3 4 5 6 
#
# 1 210.3454 75.7134 64.4594 0.0000 -0.0001 -0.0003
# 2 75.7134 83.3493 39.6513 0.0000 -0.0001 -0.0002
# 3 64.4594 39.6513 76.1726 0.0000 0.0000 0.0000
# 4 0.0000 0.0000 0.0000 15.5821 0.0000 0.0000
# 5 -0.0001 -0.0001 0.0000 0.0000 -32.8371 0.0001
# 6 -0.0003 -0.0002 0.0000 0.0000 0.0001 42.0278
#
#
#
# Elastic Compliance Matrix: (Units=1/GPa)
#
#
# Indices 1 2 3 4 5 6 
#
# 1 0.007846 -0.005275 -0.003894 0.000000 0.000000 0.000000
# 2 -0.005275 0.019493 -0.005683 0.000000 0.000000 0.000000
# 3 -0.003894 -0.005683 0.019381 0.000000 0.000000 0.000000
# 4 0.000000 0.000000 0.000000 0.064176 0.000000 0.000000
# 5 0.000000 0.000000 0.000000 0.000000 -0.030453 0.000000
# 6 0.000000 0.000000 0.000000 0.000000 0.000000 0.023794
#
#
# Mechanical properties :
#
#
# Convention : Reuss Voigt Hill
#
# Bulk Modulus (GPa) = 58.76553 81.05728 69.91140
# Shear Modulus (GPa) = 35.81331 17.62410 26.71871
#
# Velocity S-wave (km/s) = 4.25719 2.98645 3.67713
# Velocity P-wave (km/s) = 7.34193 7.27404 7.30806
#
# Compressibility (1/GPa) = 0.01701678
#
# Stress axis : x y z
#
# Youngs Moduli (GPa) = 127.45436 51.30058 51.59581
#
# Poissons Ratio (x) = 0.27060 0.20090
# Poissons Ratio (y) = 0.67230 0.29323
# Poissons Ratio (z) = 0.49626 0.29155
#
# Static dielectric constant tensor:
#      x y z
#    x 4.174950 0.000000 0.000000 
#    y 0.000000 3.653740 0.000000 
#    z 0.000000 0.000000 3.467180 
# 
# 
# High freq. dielectric constant tensor:
#      x y z
#    x 1.782250 0.000000 0.000000 
#    y 0.000000 1.766800 0.000000 
#    z 0.000000 0.000000 1.750860 
# 
# From -- ./inp_files/46938.got.cif
#   From: 2010.03.12/outbox.cif.g09.slc.cpg/sg69_24_cif.got.tgz:46938.got - 2010.04.10 23:52:46.
