data_PCOD8284985
_publ_section_title
;
Structure prediction by ZEFSAII (Michael W. Deem and Ramdas Pophale) SiO2 
 PCOD8284985
Probable space group: F M M M
;
_chemical_formula_sum "Si O2"
_cell_formula_units_Z 192
_cell_length_a 14.409176
_cell_length_b 23.982212
_cell_length_c 28.290869
_cell_angle_alpha 90.000000
_cell_angle_beta 90.000000
_cell_angle_gamma 90.000000
_cell_volume 9776.303410
_symmetry_space_group_name_H-M "F M M M"
_symmetry_group_IT_number 69
_symmetry_cell_setting 'orthorhombic'
loop_
_space_group_symop_operation_xyz
x,y,z
-x,-y,z
x,-y,-z
-x,y,-z
-x,-y,-z
x,y,-z
-x,y,z
x,-y,z
x,1/2+y,1/2+z
-x,1/2-y,1/2+z
x,1/2-y,1/2-z
-x,1/2+y,1/2-z
-x,1/2-y,1/2-z
x,1/2+y,1/2-z
-x,1/2+y,1/2+z
x,1/2-y,1/2+z
1/2+x,y,1/2+z
1/2-x,-y,1/2+z
1/2+x,-y,1/2-z
1/2-x,y,1/2-z
1/2-x,-y,1/2-z
1/2+x,y,1/2-z
1/2-x,y,1/2+z
1/2+x,-y,1/2+z
1/2+x,1/2+y,z
1/2-x,1/2-y,z
1/2+x,1/2-y,-z
1/2-x,1/2+y,-z
1/2-x,1/2-y,-z
1/2+x,1/2+y,-z
1/2-x,1/2+y,z
1/2+x,1/2-y,z
loop_
_atom_site_type_symbol
_atom_site_label
_atom_site_fract_x
_atom_site_fract_y
_atom_site_fract_z
Si Si1 0.781697 0.388251 0.052503
Si Si2 0.103630 0.562774 0.406854
Si Si3 0.396201 0.627619 0.181369
Si Si4 0.897025 0.000000 0.679175
Si Si5 0.610569 0.381650 0.289300
Si Si6 0.604573 0.500000 0.568572
Si Si7 0.271105 0.814063 0.139280
O O1 0.674096 0.400168 0.063246
O O2 0.842799 0.444301 0.052640
O O3 0.813245 0.343245 0.092008
O O4 0.789678 0.361922 0.000000
O O5 0.132253 0.500000 0.417111
O O6 0.108299 0.570922 0.349686
O O7 0.000000 0.576529 0.425069
O O8 0.500000 0.652488 0.182258
O O9 0.360620 0.620634 0.234605
O O10 0.332257 0.669245 0.152934
O O11 0.848193 0.058041 0.694357
O O12 0.901287 0.000000 0.623902
O O13 0.000000 0.000000 0.702053
O O14 0.500000 0.377413 0.297520
O O15 0.659017 0.331105 0.318008
O O16 0.500000 0.500000 0.547263
O O17 0.250000 0.750000 0.130168
#
# Coordination Sequence:
#
# PCOD8284985 Si02
#       7
#    32  32  32  16  32  16  32
#     4  11  23  39  59  84 112 146 189 235 293 352
#     4   9  18  33  54  83 118 150 181 221 271 333
#     4   9  20  36  55  83 116 151 187 226 276 331
#     4   9  18  33  56  85 118 150 183 223 276 340
#     4  10  20  36  59  88 119 154 190 228 281 343
#     4  11  21  38  61  88 123 153 182 231 292 351
#     4  11  24  41  58  79 110 149 197 246 284 328
#
# _framework density 19.639324999999999
#
# number of rings (size 3 to 8) (size 9 to 14) (size 15 to 20)
#    0.000    2.000    2.500    0.750    1.167    3.333 
#    0.000    3.333    0.000    0.000    0.000    4.667 
#    0.000    0.000    0.000    0.000    0.000    0.000 
#
# Total GULP energy -594681.613554 kJ/mol
# GULP energy per Si atom -12389.200282 kJ/mol
# Density = 1.959462 g / cm^3
# Si number density = 19.639325 Si / 1000 Ang^3
#
#
#
# Elastic Constant Matrix: (Units=GPa)
#
#
# Indices 1 2 3 4 5 6 
#
# 1 67.4137 21.4194 26.8548 0.0000 0.0000 0.0000
# 2 21.4194 93.0160 25.5878 0.0000 0.0000 0.0000
# 3 26.8548 25.5878 116.9736 0.0000 0.0000 0.0000
# 4 0.0000 0.0000 0.0000 16.0273 0.0000 0.0000
# 5 0.0000 0.0000 0.0000 0.0000 15.4697 0.0000
# 6 0.0000 0.0000 0.0000 0.0000 0.0000 17.7529
#
#
#
# Elastic Compliance Matrix: (Units=1/GPa)
#
#
# Indices 1 2 3 4 5 6 
#
# 1 0.017099 -0.003041 -0.003260 0.000000 0.000000 0.000000
# 2 -0.003041 0.011980 -0.001923 0.000000 0.000000 0.000000
# 3 -0.003260 -0.001923 0.009718 0.000000 0.000000 0.000000
# 4 0.000000 0.000000 0.000000 0.062393 0.000000 0.000000
# 5 0.000000 0.000000 0.000000 0.000000 0.064642 0.000000
# 6 0.000000 0.000000 0.000000 0.000000 0.000000 0.056329
#
#
# Mechanical properties :
#
#
# Convention : Reuss Voigt Hill
#
# Bulk Modulus (GPa) = 44.74346 47.23635 45.98991
# Shear Modulus (GPa) = 20.32041 23.41941 21.86991
#
# Velocity S-wave (km/s) = 3.22013 3.45697 3.34065
# Velocity P-wave (km/s) = 6.05456 6.32758 6.19258
#
# Compressibility (1/GPa) = 0.02234963
#
# Stress axis : x y z
#
# Youngs Moduli (GPa) = 58.48415 83.47336 102.90168
#
# Poissons Ratio (x) = 0.25380 0.33550
# Poissons Ratio (y) = 0.17782 0.19783
# Poissons Ratio (z) = 0.19068 0.16048
#
# Static dielectric constant tensor:
#      x y z
#    x 3.874090 0.000000 0.000000 
#    y 0.000000 3.424370 0.000000 
#    z 0.000000 0.000000 3.697100 
# 
# 
# High freq. dielectric constant tensor:
#      x y z
#    x 1.771620 0.000000 0.000000 
#    y 0.000000 1.733330 0.000000 
#    z 0.000000 0.000000 1.770360 
# 
# From -- ./inp_files/41168.got.cif
#   From: 2010.03.12/outbox.cif.g09.slc.cpg/sg69_21_cif.got.tgz:41168.got - 2010.04.10 23:52:46.
