data_PCOD8284210
_publ_section_title
;
Structure prediction by ZEFSAII (Michael W. Deem and Ramdas Pophale) SiO2 
 PCOD8284210
Probable space group: F M M M
;
_chemical_formula_sum "Si O2"
_cell_formula_units_Z 208
_cell_length_a 29.285910
_cell_length_b 19.105387
_cell_length_c 21.168911
_cell_angle_alpha 90.000000
_cell_angle_beta 90.000000
_cell_angle_gamma 90.000000
_cell_volume 11844.400382
_symmetry_space_group_name_H-M "F M M M"
_symmetry_group_IT_number 69
_symmetry_cell_setting 'orthorhombic'
loop_
_space_group_symop_operation_xyz
x,y,z
-x,-y,z
x,-y,-z
-x,y,-z
-x,-y,-z
x,y,-z
-x,y,z
x,-y,z
x,1/2+y,1/2+z
-x,1/2-y,1/2+z
x,1/2-y,1/2-z
-x,1/2+y,1/2-z
-x,1/2-y,1/2-z
x,1/2+y,1/2-z
-x,1/2+y,1/2+z
x,1/2-y,1/2+z
1/2+x,y,1/2+z
1/2-x,-y,1/2+z
1/2+x,-y,1/2-z
1/2-x,y,1/2-z
1/2-x,-y,1/2-z
1/2+x,y,1/2-z
1/2-x,y,1/2+z
1/2+x,-y,1/2+z
1/2+x,1/2+y,z
1/2-x,1/2-y,z
1/2+x,1/2-y,-z
1/2-x,1/2+y,-z
1/2-x,1/2-y,-z
1/2+x,1/2+y,-z
1/2-x,1/2+y,z
1/2+x,1/2-y,z
loop_
_atom_site_type_symbol
_atom_site_label
_atom_site_fract_x
_atom_site_fract_y
_atom_site_fract_z
Si Si1 0.945970 0.077684 0.000000
Si Si2 0.384403 0.198747 0.927603
Si Si3 0.948368 0.578363 0.726382
Si Si4 0.223078 0.081222 0.686545
Si Si5 0.880121 0.079064 0.664715
Si Si6 0.947058 0.322884 0.389395
Si Si7 0.779934 0.683150 0.071850
O O1 0.929260 0.120947 0.060080
O O2 0.000000 0.069544 0.000000
O O3 0.923756 0.000000 0.000000
O O4 0.391990 0.123035 0.897249
O O5 0.414721 0.255498 0.890657
O O6 0.330847 0.213559 0.919884
O O7 0.400490 0.197150 0.000000
O O8 0.936665 0.500000 0.700037
O O9 0.916995 0.599425 0.783909
O O10 0.940443 0.638751 0.676290
O O11 0.000000 0.579471 0.750831
O O12 0.250000 0.107182 0.750000
O O13 0.169121 0.092631 0.696902
O O14 0.235473 0.124534 0.622917
O O15 0.235337 0.000000 0.673842
O O16 0.884160 0.000000 0.641390
O O17 0.000000 0.301358 0.401314
O O18 0.750000 0.750000 0.085064
O O19 0.773524 0.653427 0.000000
#
# Coordination Sequence:
#
# PCOD8284210 Si02
#       7
#    16  32  32  32  32  32  32
#     4   9  16  28  48  72  96 127 167 205 241 288
#     4  10  20  34  52  74 101 132 167 208 253 298
#     4   9  18  33  51  71  98 133 170 206 248 299
#     4   9  18  33  54  79 102 126 163 211 258 300
#     4   9  19  35  53  74  99 129 169 211 252 298
#     4  10  19  31  49  74 102 132 165 207 253 299
#     4   9  19  35  53  74 100 135 169 203 248 302
#
# _framework density 17.561040999999999
#
# number of rings (size 3 to 8) (size 9 to 14) (size 15 to 20)
#    0.000    2.692    0.769    0.462    0.000    5.231 
#    0.000    7.692    0.000    0.923    0.000    3.231 
#    0.000    0.000    0.000    0.000    0.000    0.000 
#
# Total GULP energy -644504.893464 kJ/mol
# GULP energy per Si atom -12394.324874 kJ/mol
# Density = 1.752107 g / cm^3
# Si number density = 17.561041 Si / 1000 Ang^3
#
#
#
# Elastic Constant Matrix: (Units=GPa)
#
#
# Indices 1 2 3 4 5 6 
#
# 1 70.5606 57.0269 59.4551 0.0000 0.0000 0.0000
# 2 57.0269 96.5958 63.7963 0.0000 0.0000 0.0000
# 3 59.4551 63.7963 106.3144 0.0000 0.0000 0.0000
# 4 0.0000 0.0000 0.0000 26.9964 0.0000 0.0000
# 5 0.0000 0.0000 0.0000 0.0000 24.2747 0.0000
# 6 0.0000 0.0000 0.0000 0.0000 0.0000 29.0071
#
#
#
# Elastic Compliance Matrix: (Units=1/GPa)
#
#
# Indices 1 2 3 4 5 6 
#
# 1 0.033905 -0.012413 -0.011512 0.000000 0.000000 0.000000
# 2 -0.012413 0.021693 -0.006076 0.000000 0.000000 0.000000
# 3 -0.011512 -0.006076 0.019490 0.000000 0.000000 0.000000
# 4 0.000000 0.000000 0.000000 0.037042 0.000000 0.000000
# 5 0.000000 0.000000 0.000000 0.000000 0.041195 0.000000
# 6 0.000000 0.000000 0.000000 0.000000 0.000000 0.034474
#
#
# Mechanical properties :
#
#
# Convention : Reuss Voigt Hill
#
# Bulk Modulus (GPa) = 66.28558 70.44751 68.36654
# Shear Modulus (GPa) = 19.77616 22.26847 21.02232
#
# Velocity S-wave (km/s) = 3.35944 3.56485 3.46367
# Velocity P-wave (km/s) = 7.27156 7.55957 7.41696
#
# Compressibility (1/GPa) = 0.01508624
#
# Stress axis : x y z
#
# Youngs Moduli (GPa) = 29.49454 46.09711 51.30863
#
# Poissons Ratio (x) = 0.57221 0.59067
# Poissons Ratio (y) = 0.36612 0.31174
# Poissons Ratio (z) = 0.33954 0.28007
#
# Static dielectric constant tensor:
#      x y z
#    x 3.292790 0.000000 0.000000 
#    y 0.000000 3.306250 0.000000 
#    z 0.000000 0.000000 3.413250 
# 
# 
# High freq. dielectric constant tensor:
#      x y z
#    x 1.670430 0.000000 0.000000 
#    y 0.000000 1.679060 0.000000 
#    z 0.000000 0.000000 1.678570 
# 
# From -- ./inp_files/39080.got.cif
#   From: 2010.03.12/outbox.cif.g09.slc.cpg/sg69_20_cif.got.tgz:39080.got - 2010.04.10 23:52:46.
