data_PCOD8284749
_publ_section_title
;
Structure prediction by ZEFSAII (Michael W. Deem and Ramdas Pophale) SiO2 
 PCOD8284749
Probable space group: F M M M
;
_chemical_formula_sum "Si O2"
_cell_formula_units_Z 160
_cell_length_a 30.645479
_cell_length_b 8.986496
_cell_length_c 29.478184
_cell_angle_alpha 90.000000
_cell_angle_beta 90.000000
_cell_angle_gamma 90.000000
_cell_volume 8118.158469
_symmetry_space_group_name_H-M "F M M M"
_symmetry_group_IT_number 69
_symmetry_cell_setting 'orthorhombic'
loop_
_space_group_symop_operation_xyz
x,y,z
-x,-y,z
x,-y,-z
-x,y,-z
-x,-y,-z
x,y,-z
-x,y,z
x,-y,z
x,1/2+y,1/2+z
-x,1/2-y,1/2+z
x,1/2-y,1/2-z
-x,1/2+y,1/2-z
-x,1/2-y,1/2-z
x,1/2+y,1/2-z
-x,1/2+y,1/2+z
x,1/2-y,1/2+z
1/2+x,y,1/2+z
1/2-x,-y,1/2+z
1/2+x,-y,1/2-z
1/2-x,y,1/2-z
1/2-x,-y,1/2-z
1/2+x,y,1/2-z
1/2-x,y,1/2+z
1/2+x,-y,1/2+z
1/2+x,1/2+y,z
1/2-x,1/2-y,z
1/2+x,1/2-y,-z
1/2-x,1/2+y,-z
1/2-x,1/2-y,-z
1/2+x,1/2+y,-z
1/2-x,1/2+y,z
1/2+x,1/2-y,z
loop_
_atom_site_type_symbol
_atom_site_label
_atom_site_fract_x
_atom_site_fract_y
_atom_site_fract_z
Si Si1 0.205121 0.171301 0.323142
Si Si2 0.667646 0.667149 0.418517
Si Si3 0.383651 0.828771 0.706137
Si Si4 0.500000 0.825088 0.552031
Si Si5 0.416151 0.828351 0.609777
Si Si6 0.295079 0.829344 0.500000
O O1 0.250000 0.250000 0.307423
O O2 0.201954 0.179880 0.377623
O O3 0.163395 0.254011 0.302552
O O4 0.205472 0.000000 0.306783
O O5 0.667947 0.500000 0.438401
O O6 0.619481 0.708310 0.403480
O O7 0.678309 0.787923 0.455877
O O8 0.405161 0.750000 0.750000
O O9 0.418418 0.814094 0.664671
O O10 0.374392 0.000000 0.716923
O O11 0.500000 0.757594 0.500000
O O12 0.458837 0.775442 0.582426
O O13 0.500000 0.000000 0.546774
O O14 0.404236 0.000000 0.597191
O O15 0.250000 0.750000 0.500000
O O16 0.284770 0.000000 0.500000
#
# Coordination Sequence:
#
# PCOD8284749 Si02
#       6
#    32  32  32  16  32  16
#     4  10  20  34  53  77 108 145 186 232 282 331
#     4  10  21  36  54  77 109 147 186 231 283 338
#     4  10  20  35  55  79 110 147 190 233 281 334
#     4   9  18  34  60  91 119 145 184 228 277 342
#     4   9  19  36  58  85 114 147 184 230 281 337
#     4  12  24  36  52  75 106 145 192 238 279 328
#
# _framework density 19.708905000000001
#
# number of rings (size 3 to 8) (size 9 to 14) (size 15 to 20)
#    0.000    2.100    0.000    3.300    1.400    5.200 
#    0.000    3.000    0.000    0.600    0.000    0.000 
#    0.000    0.000    0.000    0.000    0.000    0.000 
#
# Total GULP energy -495779.700026 kJ/mol
# GULP energy per Si atom -12394.492501 kJ/mol
# Density = 1.966405 g / cm^3
# Si number density = 19.708905 Si / 1000 Ang^3
#
#
#
# Elastic Constant Matrix: (Units=GPa)
#
#
# Indices 1 2 3 4 5 6 
#
# 1 79.8708 26.5533 39.9724 0.0000 0.0000 0.0003
# 2 26.5533 124.5446 47.8012 0.0000 0.0000 0.0000
# 3 39.9724 47.8012 120.6337 0.0000 0.0000 0.0001
# 4 0.0000 0.0000 0.0000 31.6499 0.0000 0.0000
# 5 0.0000 0.0000 0.0000 0.0000 19.5392 0.0000
# 6 0.0003 0.0000 0.0001 0.0000 0.0000 20.1661
#
#
#
# Elastic Compliance Matrix: (Units=1/GPa)
#
#
# Indices 1 2 3 4 5 6 
#
# 1 0.015258 -0.001548 -0.004442 0.000000 0.000000 0.000000
# 2 -0.001548 0.009626 -0.003302 0.000000 0.000000 0.000000
# 3 -0.004442 -0.003302 0.011070 0.000000 0.000000 0.000000
# 4 0.000000 0.000000 0.000000 0.031596 0.000000 0.000000
# 5 0.000000 0.000000 0.000000 0.000000 0.051179 0.000000
# 6 0.000000 0.000000 0.000000 0.000000 0.000000 0.049588
#
#
# Mechanical properties :
#
#
# Convention : Reuss Voigt Hill
#
# Bulk Modulus (GPa) = 57.56926 61.52255 59.54590
# Shear Modulus (GPa) = 25.94821 28.31919 27.13370
#
# Velocity S-wave (km/s) = 3.63240 3.79472 3.71445
# Velocity P-wave (km/s) = 6.84584 7.10516 6.97671
#
# Compressibility (1/GPa) = 0.01737038
#
# Stress axis : x y z
#
# Youngs Moduli (GPa) = 65.53878 103.88032 90.33581
#
# Poissons Ratio (x) = 0.16081 0.40131
# Poissons Ratio (y) = 0.10146 0.29825
# Poissons Ratio (z) = 0.29115 0.34296
#
# Static dielectric constant tensor:
#      x y z
#    x 3.539960 0.000000 0.000000 
#    y 0.000000 3.543740 0.000000 
#    z 0.000000 0.000000 3.867030 
# 
# 
# High freq. dielectric constant tensor:
#      x y z
#    x 1.743010 0.000000 0.000000 
#    y 0.000000 1.769720 0.000000 
#    z 0.000000 0.000000 1.779290 
# 
# From -- ./inp_files/5729.got.cif
#   From: 2010.03.12/outbox.cif.g09.slc.cpg/sg69_3_cif.got.tgz:5729.got - 2010.04.10 23:52:46.
