data_PCOD8284484
_publ_section_title
;
Structure prediction by ZEFSAII (Michael W. Deem and Ramdas Pophale) SiO2 
 PCOD8284484
Probable space group: F M M M
;
_chemical_formula_sum "Si O2"
_cell_formula_units_Z 160
_cell_length_a 15.724439
_cell_length_b 16.206224
_cell_length_c 30.300604
_cell_angle_alpha 90.000000
_cell_angle_beta 90.000000
_cell_angle_gamma 90.000000
_cell_volume 7721.617475
_symmetry_space_group_name_H-M "F M M M"
_symmetry_group_IT_number 69
_symmetry_cell_setting 'orthorhombic'
loop_
_space_group_symop_operation_xyz
x,y,z
-x,-y,z
x,-y,-z
-x,y,-z
-x,-y,-z
x,y,-z
-x,y,z
x,-y,z
x,1/2+y,1/2+z
-x,1/2-y,1/2+z
x,1/2-y,1/2-z
-x,1/2+y,1/2-z
-x,1/2-y,1/2-z
x,1/2+y,1/2-z
-x,1/2+y,1/2+z
x,1/2-y,1/2+z
1/2+x,y,1/2+z
1/2-x,-y,1/2+z
1/2+x,-y,1/2-z
1/2-x,y,1/2-z
1/2-x,-y,1/2-z
1/2+x,y,1/2-z
1/2-x,y,1/2+z
1/2+x,-y,1/2+z
1/2+x,1/2+y,z
1/2-x,1/2-y,z
1/2+x,1/2-y,-z
1/2-x,1/2+y,-z
1/2-x,1/2-y,-z
1/2+x,1/2+y,-z
1/2-x,1/2+y,z
1/2+x,1/2-y,z
loop_
_atom_site_type_symbol
_atom_site_label
_atom_site_fract_x
_atom_site_fract_y
_atom_site_fract_z
Si Si1 0.405016 0.852823 0.581325
Si Si2 0.399063 0.672353 0.279803
Si Si3 0.262982 0.904392 0.951454
Si Si4 0.836973 0.702211 0.877062
Si Si5 0.898549 0.000000 0.760121
Si Si6 0.400543 0.000000 0.356726
O O1 0.500000 0.873624 0.562595
O O2 0.329688 0.858734 0.545460
O O3 0.408693 0.762916 0.603309
O O4 0.373612 0.917621 0.618147
O O5 0.500000 0.676029 0.279355
O O6 0.364765 0.750000 0.250000
O O7 0.367178 0.671615 0.329850
O O8 0.365002 0.584648 0.261746
O O9 0.324173 0.870560 0.912916
O O10 0.247714 0.000000 0.941955
O O11 0.304816 0.890499 0.000000
O O12 0.750000 0.750000 0.870581
O O13 0.857590 0.000000 0.808875
O O14 0.000000 0.000000 0.759824
O O15 0.500000 0.000000 0.349414
#
# Coordination Sequence:
#
# PCOD8284484 Si02
#       6
#    32  32  32  32  16  16
#     4  10  19  34  59  87 112 146 191 245 299 348
#     4  10  20  36  58  85 117 152 196 247 293 342
#     4  10  22  40  60  83 115 155 198 244 298 355
#     4  10  22  36  57  83 118 158 193 232 293 358
#     4   9  18  30  51  81 108 146 188 229 285 347
#     4   9  16  30  52  80 114 142 179 234 295 346
#
# _framework density 20.721048
#
# number of rings (size 3 to 8) (size 9 to 14) (size 15 to 20)
#    0.000    2.200    1.000    1.800    1.400    7.600 
#    0.000    1.000    0.000    5.400    0.000    5.600 
#    0.000    0.000    0.000    0.000    0.000    0.000 
#
# Total GULP energy -495685.655944 kJ/mol
# GULP energy per Si atom -12392.141399 kJ/mol
# Density = 2.067389 g / cm^3
# Si number density = 20.721048 Si / 1000 Ang^3
#
#
#
# Elastic Constant Matrix: (Units=GPa)
#
#
# Indices 1 2 3 4 5 6 
#
# 1 32.0508 24.0853 19.6696 0.0000 0.0000 0.0000
# 2 24.0853 119.2929 57.4241 0.0000 0.0000 0.0000
# 3 19.6696 57.4241 136.1873 0.0000 0.0000 0.0000
# 4 0.0000 0.0000 0.0000 33.9726 0.0000 0.0000
# 5 0.0000 0.0000 0.0000 0.0000 25.7074 0.0000
# 6 0.0000 0.0000 0.0000 0.0000 0.0000 7.7427
#
#
#
# Elastic Compliance Matrix: (Units=1/GPa)
#
#
# Indices 1 2 3 4 5 6 
#
# 1 0.037612 -0.006247 -0.002798 0.000000 0.000000 0.000000
# 2 -0.006247 0.011555 -0.003970 0.000000 0.000000 0.000000
# 3 -0.002798 -0.003970 0.009421 0.000000 0.000000 0.000000
# 4 0.000000 0.000000 0.000000 0.029436 0.000000 0.000000
# 5 0.000000 0.000000 0.000000 0.000000 0.038899 0.000000
# 6 0.000000 0.000000 0.000000 0.000000 0.000000 0.129154
#
#
# Mechanical properties :
#
#
# Convention : Reuss Voigt Hill
#
# Bulk Modulus (GPa) = 30.71469 54.43212 42.57340
# Shear Modulus (GPa) = 17.06719 25.90800 21.48759
#
# Velocity S-wave (km/s) = 2.87307 3.53983 3.22373
# Velocity P-wave (km/s) = 5.08539 6.55997 5.86917
#
# Compressibility (1/GPa) = 0.03255771
#
# Stress axis : x y z
#
# Youngs Moduli (GPa) = 26.58719 86.54254 106.14629
#
# Poissons Ratio (x) = 0.54062 0.29703
# Poissons Ratio (y) = 0.16609 0.42140
# Poissons Ratio (z) = 0.07440 0.34357
#
# Static dielectric constant tensor:
#      x y z
#    x 3.446830 0.000000 0.000000 
#    y 0.000000 3.904770 0.000000 
#    z 0.000000 0.000000 3.854700 
# 
# 
# High freq. dielectric constant tensor:
#      x y z
#    x 1.781220 0.000000 0.000000 
#    y 0.000000 1.819030 0.000000 
#    z 0.000000 0.000000 1.811780 
# 
# From -- ./inp_files/21882.got.cif
#   From: 2010.03.12/outbox.cif.g09.slc.cpg/sg69_11_cif.got.tgz:21882.got - 2010.04.10 23:52:46.
