data_PCOD8284294
_publ_section_title
;
Structure prediction by ZEFSAII (Michael W. Deem and Ramdas Pophale) SiO2 
 PCOD8284294
Probable space group: F M M M
;
_chemical_formula_sum "Si O2"
_cell_formula_units_Z 176
_cell_length_a 22.829334
_cell_length_b 14.291279
_cell_length_c 27.782743
_cell_angle_alpha 90.000000
_cell_angle_beta 90.000000
_cell_angle_gamma 90.000000
_cell_volume 9064.408332
_symmetry_space_group_name_H-M "F M M M"
_symmetry_group_IT_number 69
_symmetry_cell_setting 'orthorhombic'
loop_
_space_group_symop_operation_xyz
x,y,z
-x,-y,z
x,-y,-z
-x,y,-z
-x,-y,-z
x,y,-z
-x,y,z
x,-y,z
x,1/2+y,1/2+z
-x,1/2-y,1/2+z
x,1/2-y,1/2-z
-x,1/2+y,1/2-z
-x,1/2-y,1/2-z
x,1/2+y,1/2-z
-x,1/2+y,1/2+z
x,1/2-y,1/2+z
1/2+x,y,1/2+z
1/2-x,-y,1/2+z
1/2+x,-y,1/2-z
1/2-x,y,1/2-z
1/2-x,-y,1/2-z
1/2+x,y,1/2-z
1/2-x,y,1/2+z
1/2+x,-y,1/2+z
1/2+x,1/2+y,z
1/2-x,1/2-y,z
1/2+x,1/2-y,-z
1/2-x,1/2+y,-z
1/2-x,1/2-y,-z
1/2+x,1/2+y,-z
1/2-x,1/2+y,z
1/2+x,1/2-y,z
loop_
_atom_site_type_symbol
_atom_site_label
_atom_site_fract_x
_atom_site_fract_y
_atom_site_fract_z
Si Si1 0.852486 0.896003 0.619777
Si Si2 0.737708 0.388641 0.303132
Si Si3 0.254219 0.860454 0.554465
Si Si4 0.658863 0.895711 0.632730
Si Si5 0.068451 0.607392 0.500000
Si Si6 0.931071 0.274087 0.594450
O O1 0.823635 0.859501 0.670716
O O2 0.800906 0.905824 0.581022
O O3 0.902881 0.829015 0.598464
O O4 0.879718 0.000000 0.626823
O O5 0.740435 0.500000 0.303306
O O6 0.750000 0.347705 0.250000
O O7 0.792223 0.348211 0.333398
O O8 0.255655 0.896858 0.500000
O O9 0.250000 0.750000 0.557451
O O10 0.314501 0.894698 0.578806
O O11 0.598996 0.836273 0.636232
O O12 0.642736 0.000000 0.649223
O O13 0.095255 0.500000 0.500000
O O14 0.085845 0.671872 0.545414
O O15 0.000000 0.592385 0.500000
O O16 0.000000 0.265543 0.602978
#
# Coordination Sequence:
#
# PCOD8284294 Si02
#       6
#    32  32  32  32  16  32
#     4  10  21  36  56  82 111 147 189 229 280 340
#     4   8  16  34  59  86 113 141 181 232 285 348
#     4  10  19  32  52  77 109 142 171 219 281 338
#     4  10  20  33  54  82 107 137 179 226 286 344
#     4   9  20  38  57  76 101 145 199 239 276 319
#     4  11  23  38  54  76 111 150 193 239 273 322
#
# _framework density 19.416599999999999
#
# number of rings (size 3 to 8) (size 9 to 14) (size 15 to 20)
#    0.000    2.273    1.818    2.182    2.545    2.909 
#    0.000    1.818    0.000    3.818    0.000    5.091 
#    0.000    0.000    0.000    0.000    0.000    0.000 
#
# Total GULP energy -545114.463902 kJ/mol
# GULP energy per Si atom -12388.965089 kJ/mol
# Density = 1.937241 g / cm^3
# Si number density = 19.416600 Si / 1000 Ang^3
#
#
#
# Elastic Constant Matrix: (Units=GPa)
#
#
# Indices 1 2 3 4 5 6 
#
# 1 122.6203 45.8015 37.3463 0.0000 0.0000 0.0000
# 2 45.8015 115.2579 22.1159 0.0000 0.0000 0.0000
# 3 37.3463 22.1159 113.0423 0.0000 0.0000 0.0000
# 4 0.0000 0.0000 0.0000 78.4273 0.0000 0.0000
# 5 0.0000 0.0000 0.0000 0.0000 17.3190 0.0000
# 6 0.0000 0.0000 0.0000 0.0000 0.0000 30.4627
#
#
#
# Elastic Compliance Matrix: (Units=1/GPa)
#
#
# Indices 1 2 3 4 5 6 
#
# 1 0.010317 -0.003580 -0.002708 0.000000 0.000000 0.000000
# 2 -0.003580 0.010257 -0.000824 0.000000 0.000000 0.000000
# 3 -0.002708 -0.000824 0.009902 0.000000 0.000000 0.000000
# 4 0.000000 0.000000 0.000000 0.012751 0.000000 0.000000
# 5 0.000000 0.000000 0.000000 0.000000 0.057740 0.000000
# 6 0.000000 0.000000 0.000000 0.000000 0.000000 0.032827
#
#
# Mechanical properties :
#
#
# Convention : Reuss Voigt Hill
#
# Bulk Modulus (GPa) = 61.53123 62.38311 61.95717
# Shear Modulus (GPa) = 32.58680 41.61892 37.10286
#
# Velocity S-wave (km/s) = 4.10115 4.63479 4.37611
# Velocity P-wave (km/s) = 7.36102 7.80001 7.58369
#
# Compressibility (1/GPa) = 0.01625191
#
# Stress axis : x y z
#
# Youngs Moduli (GPa) = 96.92369 97.49412 100.98835
#
# Poissons Ratio (x) = 0.34906 0.27349
# Poissons Ratio (y) = 0.34702 0.08320
# Poissons Ratio (z) = 0.26248 0.08032
#
# Static dielectric constant tensor:
#      x y z
#    x 3.330900 0.000000 0.000000 
#    y 0.000000 3.603990 0.000000 
#    z 0.000000 0.000000 3.744460 
# 
# 
# High freq. dielectric constant tensor:
#      x y z
#    x 1.729620 0.000000 0.000000 
#    y 0.000000 1.770380 0.000000 
#    z 0.000000 0.000000 1.736260 
# 
# From -- ./inp_files/18275.got.cif
#   From: 2010.03.12/outbox.cif.g09.slc.cpg/sg69_10_cif.got.tgz:18275.got - 2010.04.10 23:52:46.
