data_PCOD8284395
_publ_section_title
;
Structure prediction by ZEFSAII (Michael W. Deem and Ramdas Pophale) SiO2 
 PCOD8284395
Probable space group: F M M M
;
_chemical_formula_sum "Si O2"
_cell_formula_units_Z 144
_cell_length_a 19.678361
_cell_length_b 17.695004
_cell_length_c 20.427021
_cell_angle_alpha 90.000000
_cell_angle_beta 90.000000
_cell_angle_gamma 90.000000
_cell_volume 7112.865949
_symmetry_space_group_name_H-M "F M M M"
_symmetry_group_IT_number 69
_symmetry_cell_setting 'orthorhombic'
loop_
_space_group_symop_operation_xyz
x,y,z
-x,-y,z
x,-y,-z
-x,y,-z
-x,-y,-z
x,y,-z
-x,y,z
x,-y,z
x,1/2+y,1/2+z
-x,1/2-y,1/2+z
x,1/2-y,1/2-z
-x,1/2+y,1/2-z
-x,1/2-y,1/2-z
x,1/2+y,1/2-z
-x,1/2+y,1/2+z
x,1/2-y,1/2+z
1/2+x,y,1/2+z
1/2-x,-y,1/2+z
1/2+x,-y,1/2-z
1/2-x,y,1/2-z
1/2-x,-y,1/2-z
1/2+x,y,1/2-z
1/2-x,y,1/2+z
1/2+x,-y,1/2+z
1/2+x,1/2+y,z
1/2-x,1/2-y,z
1/2+x,1/2-y,-z
1/2-x,1/2+y,-z
1/2-x,1/2-y,-z
1/2+x,1/2+y,-z
1/2-x,1/2+y,z
1/2+x,1/2-y,z
loop_
_atom_site_type_symbol
_atom_site_label
_atom_site_fract_x
_atom_site_fract_y
_atom_site_fract_z
Si Si1 0.923969 0.584182 0.266182
Si Si2 0.706171 0.085556 0.811009
Si Si3 0.419574 0.416454 0.000000
Si Si4 0.079428 0.809373 0.114881
Si Si5 0.311712 0.306024 0.426577
O O1 0.917528 0.500000 0.298943
O O2 0.873542 0.590407 0.205440
O O3 0.906226 0.651001 0.316114
O O4 0.000000 0.595795 0.238915
O O5 0.750000 0.119845 0.750000
O O6 0.715989 0.128322 0.879261
O O7 0.730909 0.000000 0.822575
O O8 0.394488 0.370185 0.937534
O O9 0.386401 0.500000 0.000000
O O10 0.500000 0.424417 0.000000
O O11 0.122649 0.733174 0.106822
O O12 0.000000 0.789289 0.105697
O O13 0.330621 0.336024 0.500000
O O14 0.250000 0.250000 0.433659
#
# Coordination Sequence:
#
# PCOD8284395 Si02
#       5
#    32  32  16  32  32
#     4   9  18  33  55  85 117 146 187 242 288 332
#     4  10  22  41  63  83 108 148 195 237 284 347
#     4   9  16  28  49  78 113 153 189 222 270 330
#     4  10  19  33  55  83 116 154 192 232 283 342
#     4  11  24  40  58  82 118 150 184 236 291 343
#
# _framework density 20.245004000000002
#
# number of rings (size 3 to 8) (size 9 to 14) (size 15 to 20)
#    0.000    2.111    1.111    2.000    0.000    7.111 
#    0.000    3.333    0.000    0.000    0.000    4.667 
#    0.000    0.000    0.000    0.000    0.000    0.000 
#
# Total GULP energy -446270.021039 kJ/mol
# GULP energy per Si atom -12396.389473 kJ/mol
# Density = 2.019893 g / cm^3
# Si number density = 20.245004 Si / 1000 Ang^3
#
#
#
# Elastic Constant Matrix: (Units=GPa)
#
#
# Indices 1 2 3 4 5 6 
#
# 1 70.0052 20.4666 25.6965 0.0000 0.0000 0.0000
# 2 20.4666 75.0839 51.1672 0.0000 0.0000 0.0000
# 3 25.6965 51.1672 103.4492 0.0000 0.0000 0.0000
# 4 0.0000 0.0000 0.0000 65.8607 0.0000 0.0000
# 5 0.0000 0.0000 0.0000 0.0000 17.4710 0.0000
# 6 0.0000 0.0000 0.0000 0.0000 0.0000 27.0134
#
#
#
# Elastic Compliance Matrix: (Units=1/GPa)
#
#
# Indices 1 2 3 4 5 6 
#
# 1 0.016022 -0.002497 -0.002745 0.000000 0.000000 0.000000
# 2 -0.002497 0.020479 -0.009509 0.000000 0.000000 0.000000
# 3 -0.002745 -0.009509 0.015052 0.000000 0.000000 0.000000
# 4 0.000000 0.000000 0.000000 0.015184 0.000000 0.000000
# 5 0.000000 0.000000 0.000000 0.000000 0.057238 0.000000
# 6 0.000000 0.000000 0.000000 0.000000 0.000000 0.037019
#
#
# Mechanical properties :
#
#
# Convention : Reuss Voigt Hill
#
# Bulk Modulus (GPa) = 45.34839 49.24433 47.29636
# Shear Modulus (GPa) = 25.27234 32.14955 28.71095
#
# Velocity S-wave (km/s) = 3.53700 3.98933 3.76995
# Velocity P-wave (km/s) = 6.25531 6.75253 6.50867
#
# Compressibility (1/GPa) = 0.02205150
#
# Stress axis : x y z
#
# Youngs Moduli (GPa) = 62.41349 48.83024 66.43771
#
# Poissons Ratio (x) = 0.12192 0.18237
# Poissons Ratio (y) = 0.15583 0.63176
# Poissons Ratio (z) = 0.17132 0.46433
#
# Static dielectric constant tensor:
#      x y z
#    x 3.749850 0.000000 0.000000 
#    y 0.000000 3.649810 0.000000 
#    z 0.000000 0.000000 3.610050 
# 
# 
# High freq. dielectric constant tensor:
#      x y z
#    x 1.794430 0.000000 0.000000 
#    y 0.000000 1.775070 0.000000 
#    z 0.000000 0.000000 1.778490 
# 
# From -- ./inp_files/24436.got.cif
#   From: 2010.03.12/outbox.cif.g09.slc.cpg/sg69_13_cif.got.tgz:24436.got - 2010.04.10 23:52:46.
