data_PCOD8284943
_publ_section_title
;
Structure prediction by ZEFSAII (Michael W. Deem and Ramdas Pophale) SiO2 
 PCOD8284943
Probable space group: F M M M
;
_chemical_formula_sum "Si O2"
_cell_formula_units_Z 160
_cell_length_a 22.296336
_cell_length_b 13.807423
_cell_length_c 27.779025
_cell_angle_alpha 90.000000
_cell_angle_beta 90.000000
_cell_angle_gamma 90.000000
_cell_volume 8551.910144
_symmetry_space_group_name_H-M "F M M M"
_symmetry_group_IT_number 69
_symmetry_cell_setting 'orthorhombic'
loop_
_space_group_symop_operation_xyz
x,y,z
-x,-y,z
x,-y,-z
-x,y,-z
-x,-y,-z
x,y,-z
-x,y,z
x,-y,z
x,1/2+y,1/2+z
-x,1/2-y,1/2+z
x,1/2-y,1/2-z
-x,1/2+y,1/2-z
-x,1/2-y,1/2-z
x,1/2+y,1/2-z
-x,1/2+y,1/2+z
x,1/2-y,1/2+z
1/2+x,y,1/2+z
1/2-x,-y,1/2+z
1/2+x,-y,1/2-z
1/2-x,y,1/2-z
1/2-x,-y,1/2-z
1/2+x,y,1/2-z
1/2-x,y,1/2+z
1/2+x,-y,1/2+z
1/2+x,1/2+y,z
1/2-x,1/2-y,z
1/2+x,1/2-y,-z
1/2-x,1/2+y,-z
1/2-x,1/2-y,-z
1/2+x,1/2+y,-z
1/2-x,1/2+y,z
1/2+x,1/2-y,z
loop_
_atom_site_type_symbol
_atom_site_label
_atom_site_fract_x
_atom_site_fract_y
_atom_site_fract_z
Si Si1 0.830728 0.390014 0.553566
Si Si2 0.931692 0.763985 0.554495
Si Si3 0.930348 0.609432 0.855941
Si Si4 0.227910 0.111262 0.850837
Si Si5 0.163389 0.770317 0.305694
O O1 0.805937 0.366633 0.500000
O O2 0.854267 0.500000 0.556931
O O3 0.887792 0.324364 0.566455
O O4 0.775698 0.375322 0.591075
O O5 0.922391 0.801937 0.500000
O O6 0.916968 0.852632 0.590216
O O7 0.000000 0.727757 0.562246
O O8 0.905003 0.500000 0.852617
O O9 0.899879 0.678992 0.816264
O O10 0.000000 0.611376 0.843536
O O11 0.168689 0.164860 0.830250
O O12 0.286723 0.159291 0.828705
O O13 0.225970 0.000000 0.835045
O O14 0.173715 0.750000 0.250000
#
# Coordination Sequence:
#
# PCOD8284943 Si02
#       5
#    32  32  32  32  32
#     4   9  17  31  53  82 117 152 184 225 277 334
#     4   9  17  31  53  82 115 151 191 230 272 330
#     4  10  21  38  59  83 114 149 185 231 285 337
#     4  10  20  36  57  83 114 146 182 226 276 330
#     4  11  23  38  58  82 107 142 190 235 280 334
#
# _framework density 18.70927
#
# number of rings (size 3 to 8) (size 9 to 14) (size 15 to 20)
#    0.000    2.200    2.000    1.800    0.000    3.600 
#    0.000    7.000    0.000    3.000    0.000    0.000 
#    0.000    0.000    0.000    0.000    0.000    0.000 
#
# Total GULP energy -495787.849509 kJ/mol
# GULP energy per Si atom -12394.696238 kJ/mol
# Density = 1.866669 g / cm^3
# Si number density = 18.709270 Si / 1000 Ang^3
#
#
#
# Elastic Constant Matrix: (Units=GPa)
#
#
# Indices 1 2 3 4 5 6 
#
# 1 66.1171 46.4811 50.3081 0.0000 0.0000 0.0000
# 2 46.4811 125.1551 56.9330 0.0000 0.0000 0.0000
# 3 50.3081 56.9330 123.5545 0.0000 0.0000 0.0000
# 4 0.0000 0.0000 0.0000 23.0094 0.0000 0.0000
# 5 0.0000 0.0000 0.0000 0.0000 -21.6823 0.0000
# 6 0.0000 0.0000 0.0000 0.0000 0.0000 30.0644
#
#
#
# Elastic Compliance Matrix: (Units=1/GPa)
#
#
# Indices 1 2 3 4 5 6 
#
# 1 0.024910 -0.005867 -0.007439 0.000000 0.000000 0.000000
# 2 -0.005867 0.011491 -0.002906 0.000000 0.000000 0.000000
# 3 -0.007439 -0.002906 0.012462 0.000000 0.000000 0.000000
# 4 0.000000 0.000000 0.000000 0.043461 0.000000 0.000000
# 5 0.000000 0.000000 0.000000 0.000000 -0.046121 0.000000
# 6 0.000000 0.000000 0.000000 0.000000 0.000000 0.033262
#
#
# Mechanical properties :
#
#
# Convention : Reuss Voigt Hill
#
# Bulk Modulus (GPa) = 60.83490 69.14125 64.98807
# Shear Modulus (GPa) = 42.60108 17.01860 29.80984
#
# Velocity S-wave (km/s) = 4.77697 3.01929 3.99597
# Velocity P-wave (km/s) = 7.93804 7.01360 7.49010
#
# Compressibility (1/GPa) = 0.01643793
#
# Stress axis : x y z
#
# Youngs Moduli (GPa) = 40.14508 87.02443 80.24628
#
# Poissons Ratio (x) = 0.51059 0.59695
# Poissons Ratio (y) = 0.23554 0.23320
# Poissons Ratio (z) = 0.29864 0.25290
#
# Static dielectric constant tensor:
#      x y z
#    x 3.302780 0.000000 0.000000 
#    y 0.000000 3.676580 0.000000 
#    z 0.000000 0.000000 3.550440 
# 
# 
# High freq. dielectric constant tensor:
#      x y z
#    x 1.708500 0.000000 0.000000 
#    y 0.000000 1.732410 0.000000 
#    z 0.000000 0.000000 1.730970 
# 
# From -- ./inp_files/17740.got.cif
#   From: 2010.03.12/outbox.cif.g09.slc.cpg/sg69_9_cif.got.tgz:17740.got - 2010.04.10 23:52:46.
