data_PCOD8284356
_publ_section_title
;
Structure prediction by ZEFSAII (Michael W. Deem and Ramdas Pophale) SiO2 
 PCOD8284356
Probable space group: F M M M
;
_chemical_formula_sum "Si O2"
_cell_formula_units_Z 112
_cell_length_a 38.855960
_cell_length_b 7.996517
_cell_length_c 19.791746
_cell_angle_alpha 90.000000
_cell_angle_beta 90.000000
_cell_angle_gamma 90.000000
_cell_volume 6149.539805
_symmetry_space_group_name_H-M "F M M M"
_symmetry_group_IT_number 69
_symmetry_cell_setting 'orthorhombic'
loop_
_space_group_symop_operation_xyz
x,y,z
-x,-y,z
x,-y,-z
-x,y,-z
-x,-y,-z
x,y,-z
-x,y,z
x,-y,z
x,1/2+y,1/2+z
-x,1/2-y,1/2+z
x,1/2-y,1/2-z
-x,1/2+y,1/2-z
-x,1/2-y,1/2-z
x,1/2+y,1/2-z
-x,1/2+y,1/2+z
x,1/2-y,1/2+z
1/2+x,y,1/2+z
1/2-x,-y,1/2+z
1/2+x,-y,1/2-z
1/2-x,y,1/2-z
1/2-x,-y,1/2-z
1/2+x,y,1/2-z
1/2-x,y,1/2+z
1/2+x,-y,1/2+z
1/2+x,1/2+y,z
1/2-x,1/2-y,z
1/2+x,1/2-y,-z
1/2-x,1/2+y,-z
1/2-x,1/2-y,-z
1/2+x,1/2+y,-z
1/2-x,1/2+y,z
1/2+x,1/2-y,z
loop_
_atom_site_type_symbol
_atom_site_label
_atom_site_fract_x
_atom_site_fract_y
_atom_site_fract_z
Si Si1 0.081534 0.684801 0.080294
Si Si2 0.346190 0.692046 0.075711
Si Si3 0.211491 0.195863 0.674902
Si Si4 0.961017 0.500000 0.419326
O O1 0.068711 0.500000 0.104018
O O2 0.120945 0.707729 0.104803
O O3 0.057256 0.831932 0.109714
O O4 0.080940 0.697711 0.000000
O O5 0.357384 0.500000 0.074121
O O6 0.313382 0.714467 0.122677
O O7 0.336659 0.753476 0.000000
O O8 0.201171 0.250000 0.750000
O O9 0.250000 0.250000 0.657229
O O10 0.207549 0.000000 0.667050
O O11 0.959837 0.500000 0.500000
O O12 0.000000 0.500000 0.392636
#
# Coordination Sequence:
#
# PCOD8284356 Si02
#       4
#    32  32  32  16
#     4   9  16  27  43  65  94 130 169 207 253 301
#     4  10  19  33  53  75 101 135 172 215 261 305
#     4  11  22  37  54  73 100 134 170 212 265 313
#     4   9  16  26  40  62  96 133 166 204 249 304
#
# _framework density 18.212745000000002
#
# number of rings (size 3 to 8) (size 9 to 14) (size 15 to 20)
#    0.000    2.143    1.429    4.286    0.000    2.857 
#    0.000    2.857    0.000    0.000    0.000    0.000 
#    0.000    1.143    0.571    0.000    0.000    0.000 
#
# Total GULP energy -347141.778445 kJ/mol
# GULP energy per Si atom -12397.920659 kJ/mol
# Density = 1.817129 g / cm^3
# Si number density = 18.212745 Si / 1000 Ang^3
#
#
#
# Elastic Constant Matrix: (Units=GPa)
#
#
# Indices 1 2 3 4 5 6 
#
# 1 121.7406 49.6998 49.8508 0.0000 0.0000 0.0000
# 2 49.6998 127.5705 17.7999 -0.0001 0.0000 0.0000
# 3 49.8508 17.7999 41.4283 0.0000 0.0000 0.0000
# 4 0.0000 -0.0001 0.0000 16.7375 0.0000 0.0000
# 5 0.0000 0.0000 0.0000 0.0000 0.9737 0.0000
# 6 0.0000 0.0000 0.0000 0.0000 0.0000 25.9561
#
#
#
# Elastic Compliance Matrix: (Units=1/GPa)
#
#
# Indices 1 2 3 4 5 6 
#
# 1 0.018154 -0.004281 -0.020005 0.000000 0.000001 0.000000
# 2 -0.004281 0.009348 0.001135 0.000000 0.000000 0.000000
# 3 -0.020005 0.001135 0.047722 0.000000 -0.000001 0.000000
# 4 0.000000 0.000000 0.000000 0.059746 0.000000 0.000000
# 5 0.000001 0.000000 -0.000001 0.000000 1.027012 0.000000
# 6 0.000000 0.000000 0.000000 0.000000 0.000000 0.038527
#
#
# Mechanical properties :
#
#
# Convention : Reuss Voigt Hill
#
# Bulk Modulus (GPa) = 34.57556 58.38228 46.47892
# Shear Modulus (GPa) = 3.97946 20.29272 12.13609
#
# Velocity S-wave (km/s) = 1.47977 3.34159 2.58418
# Velocity P-wave (km/s) = 4.68456 6.85665 5.87191
#
# Compressibility (1/GPa) = 0.02892216
#
# Stress axis : x y z
#
# Youngs Moduli (GPa) = 55.08549 106.97116 20.95453
#
# Poissons Ratio (x) = 0.45796 0.41919
# Poissons Ratio (y) = 0.23583 -0.02378
# Poissons Ratio (z) = 1.10198 -0.12140
#
# Static dielectric constant tensor:
#      x y z
#    x 3.283160 0.000000 0.000000 
#    y 0.000000 3.669290 0.000000 
#    z 0.000000 0.000000 2.849280 
# 
# 
# High freq. dielectric constant tensor:
#      x y z
#    x 1.705640 0.000000 0.000000 
#    y 0.000000 1.730630 0.000000 
#    z 0.000000 0.000000 1.643590 
# 
# From -- ./inp_files/38725.got.cif
#   From: 2010.03.12/outbox.cif.g09.slc.cpg/sg69_20_cif.got.tgz:38725.got - 2010.04.10 23:52:46.
