data_PCOD8284094
_publ_section_title
;
Structure prediction by ZEFSAII (Michael W. Deem and Ramdas Pophale) SiO2 
 PCOD8284094
Probable space group: F M M M
;
_chemical_formula_sum "Si O2"
_cell_formula_units_Z 160
_cell_length_a 27.615658
_cell_length_b 19.878595
_cell_length_c 16.283881
_cell_angle_alpha 90.000000
_cell_angle_beta 90.000000
_cell_angle_gamma 90.000000
_cell_volume 8939.207147
_symmetry_space_group_name_H-M "F M M M"
_symmetry_group_IT_number 69
_symmetry_cell_setting 'orthorhombic'
loop_
_space_group_symop_operation_xyz
x,y,z
-x,-y,z
x,-y,-z
-x,y,-z
-x,-y,-z
x,y,-z
-x,y,z
x,-y,z
x,1/2+y,1/2+z
-x,1/2-y,1/2+z
x,1/2-y,1/2-z
-x,1/2+y,1/2-z
-x,1/2-y,1/2-z
x,1/2+y,1/2-z
-x,1/2+y,1/2+z
x,1/2-y,1/2+z
1/2+x,y,1/2+z
1/2-x,-y,1/2+z
1/2+x,-y,1/2-z
1/2-x,y,1/2-z
1/2-x,-y,1/2-z
1/2+x,y,1/2-z
1/2-x,y,1/2+z
1/2+x,-y,1/2+z
1/2+x,1/2+y,z
1/2-x,1/2-y,z
1/2+x,1/2-y,-z
1/2-x,1/2+y,-z
1/2-x,1/2-y,-z
1/2+x,1/2+y,-z
1/2-x,1/2+y,z
1/2+x,1/2-y,z
loop_
_atom_site_type_symbol
_atom_site_label
_atom_site_fract_x
_atom_site_fract_y
_atom_site_fract_z
Si Si1 0.793113 0.633571 0.310026
Si Si2 0.751684 0.500000 0.652552
Si Si3 0.139823 0.765978 0.097495
Si Si4 0.376294 0.374152 0.688329
Si Si5 0.356710 0.500000 0.593547
Si Si6 0.446724 0.684443 0.804471
O O1 0.750000 0.659369 0.250000
O O2 0.778279 0.570737 0.370118
O O3 0.813659 0.694263 0.366158
O O4 0.833847 0.605291 0.249832
O O5 0.750000 0.500000 0.750000
O O6 0.700327 0.500000 0.609085
O O7 0.138278 0.693643 0.140407
O O8 0.089828 0.804917 0.118943
O O9 0.145214 0.758681 0.000000
O O10 0.383750 0.434260 0.625964
O O11 0.425248 0.370242 0.741685
O O12 0.367944 0.500000 0.500000
O O13 0.500000 0.662501 0.837147
O O14 0.451477 0.750000 0.750000
#
# Coordination Sequence:
#
# PCOD8284094 Si02
#       6
#    32  16  32  32  16  32
#     4  10  18  35  55  71 101 142 185 220 256 312
#     4  10  18  36  54  72  97 138 192 221 254 312
#     4  10  21  33  50  81 113 137 172 226 276 311
#     4  10  19  35  53  74 107 143 179 217 263 324
#     4  12  22  34  53  77 105 141 177 225 276 315
#     4   8  16  33  58  79  97 132 176 212 257 322
#
# _framework density 17.898678
#
# number of rings (size 3 to 8) (size 9 to 14) (size 15 to 20)
#    0.000    2.200    4.000    2.400    0.000    2.800 
#    0.000    1.500    0.000    2.400    0.000    0.000 
#    0.000    6.400    0.000    0.000    0.000    0.000 
#
# Total GULP energy -495638.762363 kJ/mol
# GULP energy per Si atom -12390.969059 kJ/mol
# Density = 1.785794 g / cm^3
# Si number density = 17.898678 Si / 1000 Ang^3
#
#
#
# Elastic Constant Matrix: (Units=GPa)
#
#
# Indices 1 2 3 4 5 6 
#
# 1 103.5124 32.6376 12.4585 0.0000 0.0000 0.0000
# 2 32.6376 112.4799 23.8096 0.0000 0.0000 0.0000
# 3 12.4585 23.8096 54.1155 0.0000 0.0000 0.0000
# 4 0.0000 0.0000 0.0000 16.5856 0.0000 0.0000
# 5 0.0000 0.0000 0.0000 0.0000 18.8017 0.0000
# 6 0.0000 0.0000 0.0000 0.0000 0.0000 12.6882
#
#
#
# Elastic Compliance Matrix: (Units=1/GPa)
#
#
# Indices 1 2 3 4 5 6 
#
# 1 0.010705 -0.002850 -0.001211 0.000000 0.000000 0.000000
# 2 -0.002850 0.010562 -0.003991 0.000000 0.000000 0.000000
# 3 -0.001211 -0.003991 0.020514 0.000000 0.000000 0.000000
# 4 0.000000 0.000000 0.000000 0.060293 0.000000 0.000000
# 5 0.000000 0.000000 0.000000 0.000000 0.053187 0.000000
# 6 0.000000 0.000000 0.000000 0.000000 0.000000 0.078813
#
#
# Mechanical properties :
#
#
# Convention : Reuss Voigt Hill
#
# Bulk Modulus (GPa) = 38.94425 45.32438 42.13432
# Shear Modulus (GPa) = 19.32467 23.02857 21.17662
#
# Velocity S-wave (km/s) = 3.28940 3.59082 3.44341
# Velocity P-wave (km/s) = 6.01932 6.52455 6.27702
#
# Compressibility (1/GPa) = 0.02567773
#
# Stress axis : x y z
#
# Youngs Moduli (GPa) = 93.41459 94.67690 48.74797
#
# Poissons Ratio (x) = 0.26982 0.05901
# Poissons Ratio (y) = 0.26623 0.19455
# Poissons Ratio (z) = 0.11309 0.37786
#
# Static dielectric constant tensor:
#      x y z
#    x 3.804030 0.000000 0.000000 
#    y 0.000000 -9.214650 0.000000 
#    z 0.000000 0.000000 3.163350 
# 
# 
# High freq. dielectric constant tensor:
#      x y z
#    x 1.687210 0.000000 0.000000 
#    y 0.000000 1.689430 0.000000 
#    z 0.000000 0.000000 1.673480 
# 
# From -- ./inp_files/26886.got.cif
#   From: 2010.03.12/outbox.cif.g09.slc.cpg/sg69_14_cif.got.tgz:26886.got - 2010.04.10 23:52:46.
