data_PCOD8284911
_publ_section_title
;
Structure prediction by ZEFSAII (Michael W. Deem and Ramdas Pophale) SiO2 
 PCOD8284911
Probable space group: F M M M
;
_chemical_formula_sum "Si O2"
_cell_formula_units_Z 136
_cell_length_a 27.320799
_cell_length_b 13.098450
_cell_length_c 19.640087
_cell_angle_alpha 90.000000
_cell_angle_beta 90.000000
_cell_angle_gamma 90.000000
_cell_volume 7028.403884
_symmetry_space_group_name_H-M "F M M M"
_symmetry_group_IT_number 69
_symmetry_cell_setting 'orthorhombic'
loop_
_space_group_symop_operation_xyz
x,y,z
-x,-y,z
x,-y,-z
-x,y,-z
-x,-y,-z
x,y,-z
-x,y,z
x,-y,z
x,1/2+y,1/2+z
-x,1/2-y,1/2+z
x,1/2-y,1/2-z
-x,1/2+y,1/2-z
-x,1/2-y,1/2-z
x,1/2+y,1/2-z
-x,1/2+y,1/2+z
x,1/2-y,1/2+z
1/2+x,y,1/2+z
1/2-x,-y,1/2+z
1/2+x,-y,1/2-z
1/2-x,y,1/2-z
1/2-x,-y,1/2-z
1/2+x,y,1/2-z
1/2-x,y,1/2+z
1/2+x,-y,1/2+z
1/2+x,1/2+y,z
1/2-x,1/2-y,z
1/2+x,1/2-y,-z
1/2-x,1/2+y,-z
1/2-x,1/2-y,-z
1/2+x,1/2+y,-z
1/2-x,1/2+y,z
1/2+x,1/2-y,z
loop_
_atom_site_type_symbol
_atom_site_label
_atom_site_fract_x
_atom_site_fract_y
_atom_site_fract_z
Si Si1 0.652536 0.220802 0.359819
Si Si2 0.194538 0.885456 0.741139
Si Si3 0.055379 0.500000 0.115988
Si Si4 0.806619 0.779397 0.500000
Si Si5 0.861512 0.000000 0.500000
Si Si6 0.446404 0.281650 0.327219
O O1 0.668884 0.123228 0.315395
O O2 0.668285 0.319996 0.316540
O O3 0.674969 0.220015 0.434020
O O4 0.594019 0.222289 0.371275
O O5 0.250000 0.847955 0.750000
O O6 0.191932 0.000000 0.714485
O O7 0.060471 0.402899 0.165049
O O8 0.000000 0.500000 0.082049
O O9 0.100736 0.500000 0.063186
O O10 0.750000 0.750000 0.500000
O O11 0.825542 0.898978 0.500000
O O12 0.500000 0.247327 0.352995
O O13 0.437930 0.250000 0.250000
#
# Coordination Sequence:
#
# PCOD8284911 Si02
#       6
#    32  32  16  16   8  32
#     4  11  21  39  58  83 122 153 198 251 299 363
#     4  10  21  37  60  83 109 153 204 253 303 353
#     4  10  21  38  62  95 122 152 203 252 307 376
#     4  12  26  41  59  88 123 162 205 246 308 368
#     4  12  23  40  68  84 120 166 197 256 322 354
#     4  10  20  35  58  88 123 156 190 243 304 363
#
# _framework density 19.350055000000001
#
# number of rings (size 3 to 8) (size 9 to 14) (size 15 to 20)
#    0.000    1.412    4.706    3.000    3.294    0.000 
#    2.118    0.588    0.000    0.000    0.000    0.000 
#    0.000    1.882    0.000    0.000    0.000    0.000 
#
# Total GULP energy -421239.994847 kJ/mol
# GULP energy per Si atom -12389.411613 kJ/mol
# Density = 1.930601 g / cm^3
# Si number density = 19.350055 Si / 1000 Ang^3
#
#
#
# Elastic Constant Matrix: (Units=GPa)
#
#
# Indices 1 2 3 4 5 6 
#
# 1 172.0349 24.5300 46.6699 0.0000 0.0000 0.0000
# 2 24.5300 58.6833 14.5108 0.0000 0.0000 0.0000
# 3 46.6699 14.5108 122.1484 0.0000 0.0000 0.0000
# 4 0.0000 0.0000 0.0000 13.8212 0.0000 0.0000
# 5 0.0000 0.0000 0.0000 0.0000 31.6967 0.0000
# 6 0.0000 0.0000 0.0000 0.0000 0.0000 25.5631
#
#
#
# Elastic Compliance Matrix: (Units=1/GPa)
#
#
# Indices 1 2 3 4 5 6 
#
# 1 0.006762 -0.002254 -0.002316 0.000000 0.000000 0.000000
# 2 -0.002254 0.018308 -0.001314 0.000000 0.000000 0.000000
# 3 -0.002316 -0.001314 0.009228 0.000000 0.000000 0.000000
# 4 0.000000 0.000000 0.000000 0.072353 0.000000 0.000000
# 5 0.000000 0.000000 0.000000 0.000000 0.031549 0.000000
# 6 0.000000 0.000000 0.000000 0.000000 0.000000 0.039119
#
#
# Mechanical properties :
#
#
# Convention : Reuss Voigt Hill
#
# Bulk Modulus (GPa) = 44.38450 58.25422 51.31936
# Shear Modulus (GPa) = 25.43285 32.02659 28.72972
#
# Velocity S-wave (km/s) = 3.62934 4.07273 3.85741
# Velocity P-wave (km/s) = 6.36791 7.23097 6.81312
#
# Compressibility (1/GPa) = 0.02253039
#
# Stress axis : x y z
#
# Youngs Moduli (GPa) = 147.87505 54.62186 108.36925
#
# Poissons Ratio (x) = 0.12312 0.25098
# Poissons Ratio (y) = 0.33332 0.14236
# Poissons Ratio (z) = 0.34248 0.07175
#
# Static dielectric constant tensor:
#      x y z
#    x 4.214720 0.000000 0.000000 
#    y 0.000000 3.482110 0.000000 
#    z 0.000000 0.000000 3.420610 
# 
# 
# High freq. dielectric constant tensor:
#      x y z
#    x 1.783500 0.000000 0.000000 
#    y 0.000000 1.734270 0.000000 
#    z 0.000000 0.000000 1.736340 
# 
# From -- ./inp_files/33317.got.cif
#   From: 2010.03.12/outbox.cif.g09.slc.cpg/sg69_17_cif.got.tgz:33317.got - 2010.04.10 23:52:46.
