data_PCOD8284545
_publ_section_title
;
Structure prediction by ZEFSAII (Michael W. Deem and Ramdas Pophale) SiO2 
 PCOD8284545
Probable space group: F M M M
;
_chemical_formula_sum "Si O2"
_cell_formula_units_Z 192
_cell_length_a 20.170418
_cell_length_b 27.738232
_cell_length_c 17.552452
_cell_angle_alpha 90.000000
_cell_angle_beta 90.000000
_cell_angle_gamma 90.000000
_cell_volume 9820.451806
_symmetry_space_group_name_H-M "F M M M"
_symmetry_group_IT_number 69
_symmetry_cell_setting 'orthorhombic'
loop_
_space_group_symop_operation_xyz
x,y,z
-x,-y,z
x,-y,-z
-x,y,-z
-x,-y,-z
x,y,-z
-x,y,z
x,-y,z
x,1/2+y,1/2+z
-x,1/2-y,1/2+z
x,1/2-y,1/2-z
-x,1/2+y,1/2-z
-x,1/2-y,1/2-z
x,1/2+y,1/2-z
-x,1/2+y,1/2+z
x,1/2-y,1/2+z
1/2+x,y,1/2+z
1/2-x,-y,1/2+z
1/2+x,-y,1/2-z
1/2-x,y,1/2-z
1/2-x,-y,1/2-z
1/2+x,y,1/2-z
1/2-x,y,1/2+z
1/2+x,-y,1/2+z
1/2+x,1/2+y,z
1/2-x,1/2-y,z
1/2+x,1/2-y,-z
1/2-x,1/2+y,-z
1/2-x,1/2-y,-z
1/2+x,1/2+y,-z
1/2-x,1/2+y,z
1/2+x,1/2-y,z
loop_
_atom_site_type_symbol
_atom_site_label
_atom_site_fract_x
_atom_site_fract_y
_atom_site_fract_z
Si Si1 0.307916 0.211503 0.912921
Si Si2 0.742094 0.384068 0.660523
Si Si3 0.884566 0.381284 0.409575
Si Si4 0.000000 0.557221 0.832416
Si Si5 0.631002 0.942879 0.086016
Si Si6 0.000000 0.557339 0.657940
Si Si7 0.926224 0.723581 0.409504
O O1 0.250000 0.250000 0.907889
O O2 0.290853 0.166756 0.860202
O O3 0.374991 0.235977 0.880206
O O4 0.316717 0.193847 0.000000
O O5 0.750000 0.387397 0.750000
O O6 0.811864 0.392715 0.620385
O O7 0.694658 0.426672 0.633156
O O8 0.883333 0.381543 0.500000
O O9 0.934378 0.422333 0.381666
O O10 0.907296 0.329178 0.377718
O O11 0.064826 0.578193 0.874464
O O12 0.000000 0.500000 0.837639
O O13 0.000000 0.574220 0.745361
O O14 0.629592 0.000000 0.086242
O O15 0.634092 0.922668 0.000000
O O16 0.000000 0.500000 0.649057
O O17 0.922227 0.721300 0.500000
O O18 0.000000 0.737365 0.381359
#
# Coordination Sequence:
#
# PCOD8284545 Si02
#       7
#    32  32  32  16  32  16  32
#     4  10  19  36  61  85 114 155 206 253 299 362
#     4  12  25  39  59  89 127 164 199 256 320 374
#     4  11  21  37  60  83 116 164 212 249 301 372
#     4   9  19  39  63  86 121 162 194 239 312 371
#     4  10  21  40  66  92 118 157 211 257 297 362
#     4  11  23  37  59  94 131 162 199 252 311 378
#     4   9  17  33  58  84 109 150 200 250 302 356
#
# _framework density 19.551036
#
# number of rings (size 3 to 8) (size 9 to 14) (size 15 to 20)
#    0.000    1.667    2.500    3.000    0.000    3.000 
#    1.500    0.000    0.000    1.000    0.000    0.000 
#    0.000    0.000    0.000    0.000    0.000    0.000 
#
# Total GULP energy -595325.216509 kJ/mol
# GULP energy per Si atom -12402.608677 kJ/mol
# Density = 1.950654 g / cm^3
# Si number density = 19.551036 Si / 1000 Ang^3
#
#
#
# Elastic Constant Matrix: (Units=GPa)
#
#
# Indices 1 2 3 4 5 6 
#
# 1 189.6268 51.1210 59.7396 0.0000 0.0000 0.0000
# 2 51.1210 59.0134 35.4669 0.0000 0.0000 0.0000
# 3 59.7396 35.4669 123.5897 0.0000 0.0000 0.0000
# 4 0.0000 0.0000 0.0000 25.6558 0.0000 0.0000
# 5 0.0000 0.0000 0.0000 0.0000 19.4050 0.0000
# 6 0.0000 0.0000 0.0000 0.0000 0.0000 46.0276
#
#
#
# Elastic Compliance Matrix: (Units=1/GPa)
#
#
# Indices 1 2 3 4 5 6 
#
# 1 0.007293 -0.005074 -0.002069 0.000000 0.000000 0.000000
# 2 -0.005074 0.024007 -0.004437 0.000000 0.000000 0.000000
# 3 -0.002069 -0.004437 0.010365 0.000000 0.000000 0.000000
# 4 0.000000 0.000000 0.000000 0.038977 0.000000 0.000000
# 5 0.000000 0.000000 0.000000 0.000000 0.051533 0.000000
# 6 0.000000 0.000000 0.000000 0.000000 0.000000 0.021726
#
#
# Mechanical properties :
#
#
# Convention : Reuss Voigt Hill
#
# Bulk Modulus (GPa) = 54.03943 73.87610 63.95777
# Shear Modulus (GPa) = 27.28793 33.27785 30.28289
#
# Velocity S-wave (km/s) = 3.74000 4.13013 3.93990
# Velocity P-wave (km/s) = 6.80811 7.78539 7.31309
#
# Compressibility (1/GPa) = 0.01850501
#
# Stress axis : x y z
#
# Youngs Moduli (GPa) = 137.11066 41.65366 96.48141
#
# Poissons Ratio (x) = 0.21137 0.19964
# Poissons Ratio (y) = 0.69575 0.42806
# Poissons Ratio (z) = 0.28371 0.18480
#
# Static dielectric constant tensor:
#      x y z
#    x 3.905320 0.000000 0.000000 
#    y 0.000000 3.811320 0.000000 
#    z 0.000000 0.000000 3.514690 
# 
# 
# High freq. dielectric constant tensor:
#      x y z
#    x 1.781870 0.000000 0.000000 
#    y 0.000000 1.751950 0.000000 
#    z 0.000000 0.000000 1.749670 
# 
# From -- ./inp_files/23727.got.cif
#   From: 2010.03.12/outbox.cif.g09.slc.cpg/sg69_12_cif.got.tgz:23727.got - 2010.04.10 23:52:46.
