data_PCOD8284622
_publ_section_title
;
Structure prediction by ZEFSAII (Michael W. Deem and Ramdas Pophale) SiO2 
 PCOD8284622
Probable space group: F M M M
;
_chemical_formula_sum "Si O2"
_cell_formula_units_Z 160
_cell_length_a 8.721160
_cell_length_b 29.827070
_cell_length_c 30.138492
_cell_angle_alpha 90.000000
_cell_angle_beta 90.000000
_cell_angle_gamma 90.000000
_cell_volume 7839.824954
_symmetry_space_group_name_H-M "F M M M"
_symmetry_group_IT_number 69
_symmetry_cell_setting 'orthorhombic'
loop_
_space_group_symop_operation_xyz
x,y,z
-x,-y,z
x,-y,-z
-x,y,-z
-x,-y,-z
x,y,-z
-x,y,z
x,-y,z
x,1/2+y,1/2+z
-x,1/2-y,1/2+z
x,1/2-y,1/2-z
-x,1/2+y,1/2-z
-x,1/2-y,1/2-z
x,1/2+y,1/2-z
-x,1/2+y,1/2+z
x,1/2-y,1/2+z
1/2+x,y,1/2+z
1/2-x,-y,1/2+z
1/2+x,-y,1/2-z
1/2-x,y,1/2-z
1/2-x,-y,1/2-z
1/2+x,y,1/2-z
1/2-x,y,1/2+z
1/2+x,-y,1/2+z
1/2+x,1/2+y,z
1/2-x,1/2-y,z
1/2+x,1/2-y,-z
1/2-x,1/2+y,-z
1/2-x,1/2-y,-z
1/2+x,1/2+y,-z
1/2-x,1/2+y,z
1/2+x,1/2-y,z
loop_
_atom_site_type_symbol
_atom_site_label
_atom_site_fract_x
_atom_site_fract_y
_atom_site_fract_z
Si Si1 0.324469 0.660956 0.589948
Si Si2 0.321650 0.426914 0.116867
Si Si3 0.827750 0.795877 0.678619
Si Si4 0.683020 0.894887 0.203714
Si Si5 0.321087 0.297382 0.500000
Si Si6 0.182212 0.000000 0.552263
O O1 0.500000 0.642013 0.589116
O O2 0.201592 0.623753 0.602073
O O3 0.316330 0.701700 0.625095
O O4 0.264930 0.676530 0.542783
O O5 0.500000 0.439596 0.120387
O O6 0.244978 0.429229 0.165907
O O7 0.243005 0.457232 0.079261
O O8 0.750000 0.750000 0.695946
O O9 0.758674 0.843093 0.697029
O O10 0.000000 0.792073 0.695617
O O11 0.500000 0.896561 0.202552
O O12 0.750000 0.912683 0.250000
O O13 0.500000 0.291296 0.500000
O O14 0.250000 0.250000 0.500000
O O15 0.237075 0.000000 0.500000
O O16 0.000000 0.000000 0.553213
#
# Coordination Sequence:
#
# PCOD8284622 Si02
#       6
#    32  32  32  32  16  16
#     4   9  19  35  52  75 110 155 199 241 296 359
#     4  11  23  40  63  92 123 154 193 245 297 352
#     4   9  18  31  49  74 110 152 199 250 297 348
#     4  10  21  39  61  87 120 160 204 247 300 360
#     4  10  20  32  50  75 108 149 198 248 295 350
#     4  11  25  45  70  95 124 161 195 235 293 357
#
# _framework density 20.408619000000002
#
# number of rings (size 3 to 8) (size 9 to 14) (size 15 to 20)
#    0.000    2.100    0.000    4.500    1.400    6.000 
#    0.000    2.500    0.000    0.000    0.000    0.000 
#    0.000    0.000    0.000    0.000    0.000    0.000 
#
# Total GULP energy -495661.115419 kJ/mol
# GULP energy per Si atom -12391.527885 kJ/mol
# Density = 2.036217 g / cm^3
# Si number density = 20.408619 Si / 1000 Ang^3
#
#
#
# Elastic Constant Matrix: (Units=GPa)
#
#
# Indices 1 2 3 4 5 6 
#
# 1 81.1108 30.7462 44.3498 0.0000 0.0000 0.0000
# 2 30.7462 64.5848 33.2529 0.0000 0.0000 0.0000
# 3 44.3498 33.2529 169.8663 0.0000 0.0000 0.0000
# 4 0.0000 0.0000 0.0000 -5.1768 0.0000 0.0000
# 5 0.0000 0.0000 0.0000 0.0000 30.7708 0.0000
# 6 0.0000 0.0000 0.0000 0.0000 0.0000 28.9137
#
#
#
# Elastic Compliance Matrix: (Units=1/GPa)
#
#
# Indices 1 2 3 4 5 6 
#
# 1 0.016354 -0.006213 -0.003053 0.000000 0.000000 0.000000
# 2 -0.006213 0.019580 -0.002211 0.000000 0.000000 0.000000
# 3 -0.003053 -0.002211 0.007117 0.000000 0.000000 0.000000
# 4 0.000000 0.000000 0.000000 -0.193169 0.000000 0.000000
# 5 0.000000 0.000000 0.000000 0.000000 0.032498 0.000000
# 6 0.000000 0.000000 0.000000 0.000000 0.000000 0.034586
#
#
# Mechanical properties :
#
#
# Convention : Reuss Voigt Hill
#
# Bulk Modulus (GPa) = 49.76228 59.13998 54.45113
# Shear Modulus (GPa) = -93.66522 24.71575 -34.47473
#
# Velocity S-wave (km/s) = -6.78193 3.48378 -4.11448
# Velocity P-wave (km/s) = 6.07373 6.72482 2.04120
#
# Compressibility (1/GPa) = 0.02009554
#
# Stress axis : x y z
#
# Youngs Moduli (GPa) = 61.14884 51.07359 140.50954
#
# Poissons Ratio (x) = 0.31733 0.42903
# Poissons Ratio (y) = 0.37993 0.31063
# Poissons Ratio (z) = 0.18671 0.11291
#
# Static dielectric constant tensor:
#      x y z
#    x 3.548090 0.000000 0.000000 
#    y 0.000000 3.534690 0.000000 
#    z 0.000000 0.000000 4.262220 
# 
# 
# High freq. dielectric constant tensor:
#      x y z
#    x 1.789250 0.000000 0.000000 
#    y 0.000000 1.777890 0.000000 
#    z 0.000000 0.000000 1.813200 
# 
# From -- ./inp_files/44631.got.cif
#   From: 2010.03.12/outbox.cif.g09.slc.cpg/sg69_23_cif.got.tgz:44631.got - 2010.04.10 23:52:46.
