data_PCOD8284830
_publ_section_title
;
Structure prediction by ZEFSAII (Michael W. Deem and Ramdas Pophale) SiO2 
 PCOD8284830
Probable space group: F M M M
;
_chemical_formula_sum "Si O2"
_cell_formula_units_Z 160
_cell_length_a 24.343634
_cell_length_b 20.844307
_cell_length_c 17.060665
_cell_angle_alpha 90.000000
_cell_angle_beta 90.000000
_cell_angle_gamma 90.000000
_cell_volume 8657.028079
_symmetry_space_group_name_H-M "F M M M"
_symmetry_group_IT_number 69
_symmetry_cell_setting 'orthorhombic'
loop_
_space_group_symop_operation_xyz
x,y,z
-x,-y,z
x,-y,-z
-x,y,-z
-x,-y,-z
x,y,-z
-x,y,z
x,-y,z
x,1/2+y,1/2+z
-x,1/2-y,1/2+z
x,1/2-y,1/2-z
-x,1/2+y,1/2-z
-x,1/2-y,1/2-z
x,1/2+y,1/2-z
-x,1/2+y,1/2+z
x,1/2-y,1/2+z
1/2+x,y,1/2+z
1/2-x,-y,1/2+z
1/2+x,-y,1/2-z
1/2-x,y,1/2-z
1/2-x,-y,1/2-z
1/2+x,y,1/2-z
1/2-x,y,1/2+z
1/2+x,-y,1/2+z
1/2+x,1/2+y,z
1/2-x,1/2-y,z
1/2+x,1/2-y,-z
1/2-x,1/2+y,-z
1/2-x,1/2-y,-z
1/2+x,1/2+y,-z
1/2-x,1/2+y,z
1/2+x,1/2-y,z
loop_
_atom_site_type_symbol
_atom_site_label
_atom_site_fract_x
_atom_site_fract_y
_atom_site_fract_z
Si Si1 0.599283 0.924934 0.252918
Si Si2 0.500000 0.153337 0.795198
Si Si3 0.772477 0.315987 0.590914
Si Si4 0.894523 0.854180 0.087839
Si Si5 0.500000 0.280710 0.871043
Si Si6 0.787843 0.429411 0.176807
O O1 0.553264 0.890990 0.200941
O O2 0.595882 0.907366 0.345380
O O3 0.654983 0.903020 0.210857
O O4 0.590185 0.000000 0.248344
O O5 0.500000 0.203082 0.867925
O O6 0.500000 0.192611 0.715702
O O7 0.759935 0.314018 0.500000
O O8 0.750000 0.250000 0.630205
O O9 0.837365 0.319125 0.608673
O O10 0.739224 0.377703 0.620229
O O11 0.944658 0.803678 0.085600
O O12 0.890829 0.885253 0.000000
O O13 0.794475 0.500000 0.135301
O O14 0.750000 0.440486 0.250000
#
# Coordination Sequence:
#
# PCOD8284830 Si02
#       6
#    32  16  32  32  16  32
#     4  10  20  35  55  81 111 142 183 228 268 325
#     4   9  19  34  53  75 103 139 179 225 269 314
#     4  10  22  37  54  81 112 143 186 234 276 327
#     4  10  20  35  54  78 110 145 180 225 278 330
#     4   9  19  34  51  77 105 137 183 219 266 329
#     4  10  20  36  55  81 113 147 185 223 271 331
#
# _framework density 18.482092999999999
#
# number of rings (size 3 to 8) (size 9 to 14) (size 15 to 20)
#    0.000    2.200    2.000    0.600    2.800    1.200 
#    0.000    2.000    0.000    3.600    0.000    0.000 
#    0.000    6.400    0.000    0.000    0.000    0.000 
#
# Total GULP energy -495745.595927 kJ/mol
# GULP energy per Si atom -12393.639898 kJ/mol
# Density = 1.844003 g / cm^3
# Si number density = 18.482093 Si / 1000 Ang^3
#
#
#
# Elastic Constant Matrix: (Units=GPa)
#
#
# Indices 1 2 3 4 5 6 
#
# 1 160.9164 62.0855 29.5561 0.0000 0.0000 0.0000
# 2 62.0855 110.1121 33.2698 0.0000 0.0000 0.0000
# 3 29.5561 33.2698 36.9814 0.0000 0.0000 0.0000
# 4 0.0000 0.0000 0.0000 27.3402 0.0000 0.0000
# 5 0.0000 0.0000 0.0000 0.0000 -19.7630 0.0000
# 6 0.0000 0.0000 0.0000 0.0000 0.0000 28.1654
#
#
#
# Elastic Compliance Matrix: (Units=1/GPa)
#
#
# Indices 1 2 3 4 5 6 
#
# 1 0.008225 -0.003641 -0.003298 0.000000 0.000000 0.000000
# 2 -0.003641 0.014084 -0.009760 0.000000 0.000000 0.000000
# 3 -0.003298 -0.009760 0.038457 0.000000 0.000000 0.000000
# 4 0.000000 0.000000 0.000000 0.036576 0.000000 0.000000
# 5 0.000000 0.000000 0.000000 0.000000 -0.050600 0.000000
# 6 0.000000 0.000000 0.000000 0.000000 0.000000 0.035505
#
#
# Mechanical properties :
#
#
# Convention : Reuss Voigt Hill
#
# Bulk Modulus (GPa) = 36.53990 61.98138 49.26064
# Shear Modulus (GPa) = 40.07467 19.35509 29.71488
#
# Velocity S-wave (km/s) = 4.66155 3.23961 4.01405
# Velocity P-wave (km/s) = 6.98475 6.89943 6.94222
#
# Compressibility (1/GPa) = 0.02736735
#
# Stress axis : x y z
#
# Youngs Moduli (GPa) = 121.58098 71.00439 26.00316
#
# Poissons Ratio (x) = 0.25854 0.08575
# Poissons Ratio (y) = 0.44269 0.25379
# Poissons Ratio (z) = 0.40095 0.69301
#
# Static dielectric constant tensor:
#      x y z
#    x 3.680940 0.000000 0.000000 
#    y 0.000000 3.697500 0.000000 
#    z 0.000000 0.000000 3.194770 
# 
# 
# High freq. dielectric constant tensor:
#      x y z
#    x 1.735890 0.000000 0.000000 
#    y 0.000000 1.713690 0.000000 
#    z 0.000000 0.000000 1.691730 
# 
# From -- ./inp_files/25821.got.cif
#   From: 2010.03.12/outbox.cif.g09.slc.cpg/sg69_13_cif.got.tgz:25821.got - 2010.04.10 23:52:46.
