data_PCOD8284937
_publ_section_title
;
Structure prediction by ZEFSAII (Michael W. Deem and Ramdas Pophale) SiO2 
 PCOD8284937
Probable space group: F M M M
;
_chemical_formula_sum "Si O2"
_cell_formula_units_Z 208
_cell_length_a 32.256429
_cell_length_b 21.206505
_cell_length_c 15.412345
_cell_angle_alpha 90.000000
_cell_angle_beta 90.000000
_cell_angle_gamma 90.000000
_cell_volume 10542.754842
_symmetry_space_group_name_H-M "F M M M"
_symmetry_group_IT_number 69
_symmetry_cell_setting 'orthorhombic'
loop_
_space_group_symop_operation_xyz
x,y,z
-x,-y,z
x,-y,-z
-x,y,-z
-x,-y,-z
x,y,-z
-x,y,z
x,-y,z
x,1/2+y,1/2+z
-x,1/2-y,1/2+z
x,1/2-y,1/2-z
-x,1/2+y,1/2-z
-x,1/2-y,1/2-z
x,1/2+y,1/2-z
-x,1/2+y,1/2+z
x,1/2-y,1/2+z
1/2+x,y,1/2+z
1/2-x,-y,1/2+z
1/2+x,-y,1/2-z
1/2-x,y,1/2-z
1/2-x,-y,1/2-z
1/2+x,y,1/2-z
1/2-x,y,1/2+z
1/2+x,-y,1/2+z
1/2+x,1/2+y,z
1/2-x,1/2-y,z
1/2+x,1/2-y,-z
1/2-x,1/2+y,-z
1/2-x,1/2-y,-z
1/2+x,1/2+y,-z
1/2-x,1/2+y,z
1/2+x,1/2-y,z
loop_
_atom_site_type_symbol
_atom_site_label
_atom_site_fract_x
_atom_site_fract_y
_atom_site_fract_z
Si Si1 0.048773 0.428894 0.500000
Si Si2 0.454327 0.311136 0.309351
Si Si3 0.589584 0.626506 0.834625
Si Si4 0.322179 0.137166 0.902465
Si Si5 0.118725 0.246408 0.597419
Si Si6 0.264427 0.073709 0.402483
Si Si7 0.333758 0.429913 0.769866
O O1 0.067262 0.500000 0.500000
O O2 0.062498 0.388989 0.582489
O O3 0.000000 0.432531 0.500000
O O4 0.500000 0.325408 0.349902
O O5 0.457604 0.250000 0.250000
O O6 0.440798 0.369433 0.248035
O O7 0.419797 0.301025 0.383687
O O8 0.615697 0.692323 0.841438
O O9 0.623334 0.571835 0.822395
O O10 0.336989 0.210075 0.891089
O O11 0.273380 0.122972 0.892708
O O12 0.343258 0.102285 0.822102
O O13 0.336257 0.114424 0.000000
O O14 0.114265 0.270961 0.500000
O O15 0.283043 0.079630 0.500000
O O16 0.297468 0.098129 0.331430
O O17 0.251221 0.000000 0.386772
O O18 0.320241 0.500000 0.748951
#
# Coordination Sequence:
#
# PCOD8284937 Si02
#       7
#    16  32  32  32  32  32  32
#     4  11  24  40  60  88 121 158 197 237 290 357
#     4   9  18  33  55  81 108 140 183 232 280 332
#     4  11  21  38  57  82 118 152 188 234 289 347
#     4  10  20  36  57  82 115 149 191 239 288 342
#     4  10  20  36  56  82 112 150 188 234 286 343
#     4   9  19  35  56  84 116 149 191 244 291 345
#     4  11  22  35  58  86 114 151 193 238 293 348
#
# _framework density 19.729189000000002
#
# number of rings (size 3 to 8) (size 9 to 14) (size 15 to 20)
#    0.000    1.923    2.308    1.846    1.077    3.077 
#    0.000    0.769    0.000    4.615    0.000    0.000 
#    0.000    2.462    0.000    0.000    0.000    0.000 
#
# Total GULP energy -644242.205091 kJ/mol
# GULP energy per Si atom -12389.273175 kJ/mol
# Density = 1.968428 g / cm^3
# Si number density = 19.729189 Si / 1000 Ang^3
#
#
#
# Elastic Constant Matrix: (Units=GPa)
#
#
# Indices 1 2 3 4 5 6 
#
# 1 81.3537 25.3490 16.3789 0.0000 0.0000 0.0000
# 2 25.3490 56.7694 17.1148 0.0000 0.0000 0.0000
# 3 16.3789 17.1148 73.6667 0.0000 0.0000 0.0000
# 4 0.0000 0.0000 0.0000 24.2942 0.0000 0.0000
# 5 0.0000 0.0000 0.0000 0.0000 26.0842 0.0000
# 6 0.0000 0.0000 0.0000 0.0000 0.0000 27.1261
#
#
#
# Elastic Compliance Matrix: (Units=1/GPa)
#
#
# Indices 1 2 3 4 5 6 
#
# 1 0.014509 -0.005921 -0.001850 0.000000 0.000000 0.000000
# 2 -0.005921 0.021358 -0.003646 0.000000 0.000000 0.000000
# 3 -0.001850 -0.003646 0.014833 0.000000 0.000000 0.000000
# 4 0.000000 0.000000 0.000000 0.041162 0.000000 0.000000
# 5 0.000000 0.000000 0.000000 0.000000 0.038337 0.000000
# 6 0.000000 0.000000 0.000000 0.000000 0.000000 0.036865
#
#
# Mechanical properties :
#
#
# Convention : Reuss Voigt Hill
#
# Bulk Modulus (GPa) = 35.88528 36.60837 36.24682
# Shear Modulus (GPa) = 25.10194 25.69737 25.39965
#
# Velocity S-wave (km/s) = 3.57084 3.61294 3.59195
# Velocity P-wave (km/s) = 5.93545 6.00001 5.96782
#
# Compressibility (1/GPa) = 0.02786658
#
# Stress axis : x y z
#
# Youngs Moduli (GPa) = 68.92056 46.82068 67.41708
#
# Poissons Ratio (x) = 0.27723 0.12475
# Poissons Ratio (y) = 0.40808 0.24578
# Poissons Ratio (z) = 0.12753 0.17069
#
# Static dielectric constant tensor:
#      x y z
#    x 3.676890 0.000000 0.000000 
#    y 0.000000 3.391400 0.000000 
#    z 0.000000 0.000000 3.755930 
# 
# 
# High freq. dielectric constant tensor:
#      x y z
#    x 1.764530 0.000000 0.000000 
#    y 0.000000 1.738820 0.000000 
#    z 0.000000 0.000000 1.778900 
# 
# From -- ./inp_files/27904.got.cif
#   From: 2010.03.12/outbox.cif.g09.slc.cpg/sg69_14_cif.got.tgz:27904.got - 2010.04.10 23:52:46.
