data_PCOD8284986
_publ_section_title
;
Structure prediction by ZEFSAII (Michael W. Deem and Ramdas Pophale) SiO2 
 PCOD8284986
Probable space group: F M M M
;
_chemical_formula_sum "Si O2"
_cell_formula_units_Z 160
_cell_length_a 20.623034
_cell_length_b 20.399349
_cell_length_c 18.915201
_cell_angle_alpha 90.000000
_cell_angle_beta 90.000000
_cell_angle_gamma 90.000000
_cell_volume 7957.558252
_symmetry_space_group_name_H-M "F M M M"
_symmetry_group_IT_number 69
_symmetry_cell_setting 'orthorhombic'
loop_
_space_group_symop_operation_xyz
x,y,z
-x,-y,z
x,-y,-z
-x,y,-z
-x,-y,-z
x,y,-z
-x,y,z
x,-y,z
x,1/2+y,1/2+z
-x,1/2-y,1/2+z
x,1/2-y,1/2-z
-x,1/2+y,1/2-z
-x,1/2-y,1/2-z
x,1/2+y,1/2-z
-x,1/2+y,1/2+z
x,1/2-y,1/2+z
1/2+x,y,1/2+z
1/2-x,-y,1/2+z
1/2+x,-y,1/2-z
1/2-x,y,1/2-z
1/2-x,-y,1/2-z
1/2+x,y,1/2-z
1/2-x,y,1/2+z
1/2+x,-y,1/2+z
1/2+x,1/2+y,z
1/2-x,1/2-y,z
1/2+x,1/2-y,-z
1/2-x,1/2+y,-z
1/2-x,1/2-y,-z
1/2+x,1/2+y,-z
1/2-x,1/2+y,z
1/2+x,1/2-y,z
loop_
_atom_site_type_symbol
_atom_site_label
_atom_site_fract_x
_atom_site_fract_y
_atom_site_fract_z
Si Si1 0.576866 0.118252 0.822543
Si Si2 0.569323 0.000000 0.582967
Si Si3 0.426113 0.238339 0.078753
Si Si4 0.681888 0.074937 0.712762
Si Si5 0.576256 0.500000 0.421663
Si Si6 0.350937 0.872454 0.579466
O O1 0.500000 0.112724 0.802486
O O2 0.592212 0.187028 0.860610
O O3 0.623231 0.111134 0.754678
O O4 0.598557 0.063274 0.878374
O O5 0.601872 0.068587 0.603426
O O6 0.500000 0.000000 0.621657
O O7 0.560917 0.000000 0.500000
O O8 0.500000 0.260938 0.087452
O O9 0.383212 0.302407 0.087289
O O10 0.415566 0.207789 0.000000
O O11 0.750000 0.074151 0.750000
O O12 0.700938 0.117396 0.641955
O O13 0.659492 0.000000 0.696914
O O14 0.500000 0.500000 0.431069
O O15 0.608547 0.500000 0.500000
O O16 0.322865 0.882427 0.500000
#
# Coordination Sequence:
#
# PCOD8284986 Si02
#       6
#    32  16  32  32  16  32
#     4  10  20  36  59  88 119 155 198 240 293 356
#     4   9  16  27  49  82 114 142 182 234 280 327
#     4   9  18  34  58  90 128 160 191 242 299 349
#     4  11  24  42  61  84 121 157 194 250 309 354
#     4   9  16  29  53  84 115 149 194 244 286 334
#     4  10  20  37  59  84 113 153 200 239 287 354
#
# _framework density 20.106670000000001
#
# number of rings (size 3 to 8) (size 9 to 14) (size 15 to 20)
#    0.000    2.200    2.000    1.200    0.000    7.200 
#    0.000    6.000    0.000    2.400    0.000    0.000 
#    0.000    0.000    0.000    0.000    0.000    0.000 
#
# Total GULP energy -495536.129485 kJ/mol
# GULP energy per Si atom -12388.403237 kJ/mol
# Density = 2.006091 g / cm^3
# Si number density = 20.106670 Si / 1000 Ang^3
#
#
#
# Elastic Constant Matrix: (Units=GPa)
#
#
# Indices 1 2 3 4 5 6 
#
# 1 41.7307 25.2232 37.1247 0.0000 0.0000 0.0000
# 2 25.2232 104.5320 56.5796 0.0000 0.0000 0.0000
# 3 37.1247 56.5796 150.8664 0.0000 0.0000 0.0000
# 4 0.0000 0.0000 0.0000 48.2523 0.0000 0.0000
# 5 0.0000 0.0000 0.0000 0.0000 18.2326 0.0000
# 6 0.0000 0.0000 0.0000 0.0000 0.0000 14.2439
#
#
#
# Elastic Compliance Matrix: (Units=1/GPa)
#
#
# Indices 1 2 3 4 5 6 
#
# 1 0.032193 -0.004367 -0.006284 0.000000 0.000000 0.000000
# 2 -0.004367 0.012595 -0.003649 0.000000 0.000000 0.000000
# 3 -0.006284 -0.003649 0.009543 0.000000 0.000000 0.000000
# 4 0.000000 0.000000 0.000000 0.020724 0.000000 0.000000
# 5 0.000000 0.000000 0.000000 0.000000 0.054847 0.000000
# 6 0.000000 0.000000 0.000000 0.000000 0.000000 0.070206
#
#
# Mechanical properties :
#
#
# Convention : Reuss Voigt Hill
#
# Bulk Modulus (GPa) = 38.86262 59.44269 49.15266
# Shear Modulus (GPa) = 21.07161 28.02585 24.54873
#
# Velocity S-wave (km/s) = 3.24078 3.73749 3.49796
# Velocity P-wave (km/s) = 5.77700 6.94644 6.38853
#
# Compressibility (1/GPa) = 0.02573167
#
# Stress axis : x y z
#
# Youngs Moduli (GPa) = 31.06239 79.39524 104.78505
#
# Poissons Ratio (x) = 0.34669 0.65851
# Poissons Ratio (y) = 0.13564 0.38237
# Poissons Ratio (z) = 0.19521 0.28972
#
# Static dielectric constant tensor:
#      x y z
#    x 3.430260 0.000000 0.000000 
#    y 0.000000 3.931940 0.000000 
#    z 0.000000 0.000000 3.984840 
# 
# 
# High freq. dielectric constant tensor:
#      x y z
#    x 1.743500 0.000000 0.000000 
#    y 0.000000 1.790810 0.000000 
#    z 0.000000 0.000000 1.802720 
# 
# From -- ./inp_files/31768.got.cif
#   From: 2010.03.12/outbox.cif.g09.slc.cpg/sg69_16_cif.got.tgz:31768.got - 2010.04.10 23:52:46.
