data_PCOD8284910
_publ_section_title
;
Structure prediction by ZEFSAII (Michael W. Deem and Ramdas Pophale) SiO2 
 PCOD8284910
Probable space group: F M M M
;
_chemical_formula_sum "Si O2"
_cell_formula_units_Z 160
_cell_length_a 18.566433
_cell_length_b 18.924351
_cell_length_c 22.156873
_cell_angle_alpha 90.000000
_cell_angle_beta 90.000000
_cell_angle_gamma 90.000000
_cell_volume 7784.987824
_symmetry_space_group_name_H-M "F M M M"
_symmetry_group_IT_number 69
_symmetry_cell_setting 'orthorhombic'
loop_
_space_group_symop_operation_xyz
x,y,z
-x,-y,z
x,-y,-z
-x,y,-z
-x,-y,-z
x,y,-z
-x,y,z
x,-y,z
x,1/2+y,1/2+z
-x,1/2-y,1/2+z
x,1/2-y,1/2-z
-x,1/2+y,1/2-z
-x,1/2-y,1/2-z
x,1/2+y,1/2-z
-x,1/2+y,1/2+z
x,1/2-y,1/2+z
1/2+x,y,1/2+z
1/2-x,-y,1/2+z
1/2+x,-y,1/2-z
1/2-x,y,1/2-z
1/2-x,-y,1/2-z
1/2+x,y,1/2-z
1/2-x,y,1/2+z
1/2+x,-y,1/2+z
1/2+x,1/2+y,z
1/2-x,1/2-y,z
1/2+x,1/2-y,-z
1/2-x,1/2+y,-z
1/2-x,1/2-y,-z
1/2+x,1/2+y,-z
1/2-x,1/2+y,z
1/2+x,1/2-y,z
loop_
_atom_site_type_symbol
_atom_site_label
_atom_site_fract_x
_atom_site_fract_y
_atom_site_fract_z
Si Si1 0.791580 0.918604 0.932416
Si Si2 0.917400 0.331599 0.248726
Si Si3 0.342162 0.916505 0.147227
Si Si4 0.083381 0.315693 0.934348
Si Si5 0.081752 0.167934 0.885355
O O1 0.736239 0.895285 0.879448
O O2 0.866106 0.877243 0.926997
O O3 0.809942 0.000000 0.923811
O O4 0.760057 0.904715 0.000000
O O5 0.894691 0.250000 0.250000
O O6 0.860422 0.377152 0.209981
O O7 0.912441 0.359476 0.316916
O O8 0.000000 0.339635 0.223850
O O9 0.397502 0.889735 0.096801
O O10 0.350516 0.000000 0.156600
O O11 0.105382 0.250353 0.890895
O O12 0.000000 0.315627 0.945398
O O13 0.121618 0.308567 0.000000
O O14 0.000000 0.158394 0.909136
#
# Coordination Sequence:
#
# PCOD8284910 Si02
#       5
#    32  32  32  32  32
#     4  10  23  42  61  86 125 168 206 253 314 371
#     4  10  20  39  64  89 124 165 202 249 306 361
#     4  11  23  39  60  89 126 164 203 248 303 370
#     4  10  20  35  58  88 121 160 204 252 307 362
#     4  10  21  39  64  91 120 157 211 266 310 365
#
# _framework density 20.552377
#
# number of rings (size 3 to 8) (size 9 to 14) (size 15 to 20)
#    0.000    1.800    2.000    1.800    0.000    6.800 
#    0.000    9.000    0.000    0.000    0.000    0.000 
#    0.000    0.000    0.000    0.000    0.000    0.000 
#
# Total GULP energy -495818.722258 kJ/mol
# GULP energy per Si atom -12395.468056 kJ/mol
# Density = 2.050560 g / cm^3
# Si number density = 20.552377 Si / 1000 Ang^3
#
#
#
# Elastic Constant Matrix: (Units=GPa)
#
#
# Indices 1 2 3 4 5 6 
#
# 1 68.3134 56.6022 42.1970 0.0000 0.0000 0.0000
# 2 56.6022 97.7655 46.6489 0.0000 0.0000 0.0000
# 3 42.1970 46.6489 102.7493 0.0000 0.0000 0.0000
# 4 0.0000 0.0000 0.0000 23.8841 0.0000 0.0000
# 5 0.0000 0.0000 0.0000 0.0000 30.7847 0.0000
# 6 0.0000 0.0000 0.0000 0.0000 0.0000 33.0122
#
#
#
# Elastic Compliance Matrix: (Units=1/GPa)
#
#
# Indices 1 2 3 4 5 6 
#
# 1 0.030603 -0.014962 -0.005775 0.000000 0.000000 0.000000
# 2 -0.014962 0.020372 -0.003105 0.000000 0.000000 0.000000
# 3 -0.005775 -0.003105 0.013514 0.000000 0.000000 0.000000
# 4 0.000000 0.000000 0.000000 0.041869 0.000000 0.000000
# 5 0.000000 0.000000 0.000000 0.000000 0.032484 0.000000
# 6 0.000000 0.000000 0.000000 0.000000 0.000000 0.030292
#
#
# Mechanical properties :
#
#
# Convention : Reuss Voigt Hill
#
# Bulk Modulus (GPa) = 59.50506 62.19160 60.84833
# Shear Modulus (GPa) = 22.48014 25.76154 24.12084
#
# Velocity S-wave (km/s) = 3.31085 3.54426 3.42954
# Velocity P-wave (km/s) = 6.60540 6.86111 6.73447
#
# Compressibility (1/GPa) = 0.01680529
#
# Stress axis : x y z
#
# Youngs Moduli (GPa) = 32.67664 49.08594 73.99967
#
# Poissons Ratio (x) = 0.73444 0.42735
# Poissons Ratio (y) = 0.48892 0.22973
# Poissons Ratio (z) = 0.18871 0.15239
#
# Static dielectric constant tensor:
#      x y z
#    x 3.564560 0.000000 0.000000 
#    y 0.000000 3.699060 0.000000 
#    z 0.000000 0.000000 3.924710 
# 
# 
# High freq. dielectric constant tensor:
#      x y z
#    x 1.786810 0.000000 0.000000 
#    y 0.000000 1.793040 0.000000 
#    z 0.000000 0.000000 1.819490 
# 
# From -- ./inp_files/24558.got.cif
#   From: 2010.03.12/outbox.cif.g09.slc.cpg/sg69_13_cif.got.tgz:24558.got - 2010.04.10 23:52:46.
