data_PCOD8284022
_publ_section_title
;
Structure prediction by ZEFSAII (Michael W. Deem and Ramdas Pophale) SiO2 
 PCOD8284022
Probable space group: F M M M
;
_chemical_formula_sum "Si O2"
_cell_formula_units_Z 192
_cell_length_a 29.566899
_cell_length_b 16.519655
_cell_length_c 21.686108
_cell_angle_alpha 90.000000
_cell_angle_beta 90.000000
_cell_angle_gamma 90.000000
_cell_volume 10592.253530
_symmetry_space_group_name_H-M "F M M M"
_symmetry_group_IT_number 69
_symmetry_cell_setting 'orthorhombic'
loop_
_space_group_symop_operation_xyz
x,y,z
-x,-y,z
x,-y,-z
-x,y,-z
-x,-y,-z
x,y,-z
-x,y,z
x,-y,z
x,1/2+y,1/2+z
-x,1/2-y,1/2+z
x,1/2-y,1/2-z
-x,1/2+y,1/2-z
-x,1/2-y,1/2-z
x,1/2+y,1/2-z
-x,1/2+y,1/2+z
x,1/2-y,1/2+z
1/2+x,y,1/2+z
1/2-x,-y,1/2+z
1/2+x,-y,1/2-z
1/2-x,y,1/2-z
1/2-x,-y,1/2-z
1/2+x,y,1/2-z
1/2-x,y,1/2+z
1/2+x,-y,1/2+z
1/2+x,1/2+y,z
1/2-x,1/2-y,z
1/2+x,1/2-y,-z
1/2-x,1/2+y,-z
1/2-x,1/2-y,-z
1/2+x,1/2+y,-z
1/2-x,1/2+y,z
1/2+x,1/2-y,z
loop_
_atom_site_type_symbol
_atom_site_label
_atom_site_fract_x
_atom_site_fract_y
_atom_site_fract_z
Si Si1 0.000000 0.195576 0.070942
Si Si2 0.828608 0.403804 0.567966
Si Si3 0.421336 0.595032 0.123747
Si Si4 0.918696 0.594902 0.765548
Si Si5 0.319497 0.342822 0.731974
Si Si6 0.241819 0.906520 0.837459
Si Si7 0.000000 0.806740 0.310070
O O1 0.043867 0.140156 0.079726
O O2 0.000000 0.264844 0.123016
O O3 0.000000 0.229166 0.000000
O O4 0.830183 0.365575 0.500000
O O5 0.830823 0.500000 0.565394
O O6 0.871404 0.372636 0.607147
O O7 0.781763 0.376690 0.599578
O O8 0.426599 0.500000 0.111652
O O9 0.430425 0.616862 0.194858
O O10 0.921996 0.500000 0.777134
O O11 0.868943 0.624720 0.783920
O O12 0.955047 0.638537 0.808726
O O13 0.322041 0.250000 0.750000
O O14 0.286610 0.352244 0.672529
O O15 0.296177 0.396958 0.784509
O O16 0.256243 0.000000 0.840400
O O17 0.000000 0.750000 0.250000
#
# Coordination Sequence:
#
# PCOD8284022 Si02
#       7
#    16  32  32  32  32  32  16
#     4  12  25  38  55  82 119 158 192 231 283 345
#     4   9  17  29  48  75 109 147 185 227 271 323
#     4  10  19  33  54  84 118 154 193 230 283 351
#     4  11  21  37  60  86 113 146 189 239 290 345
#     4  11  21  32  52  80 111 139 178 235 289 333
#     4  10  18  32  51  75 108 147 190 224 269 332
#     4  12  23  39  59  85 119 150 182 230 292 341
#
# _framework density 18.126455
#
# number of rings (size 3 to 8) (size 9 to 14) (size 15 to 20)
#    0.000    1.500    3.333    4.500    0.000    2.667 
#    0.000    0.000    0.000    4.000    0.000    0.000 
#    0.000    0.000    0.000    0.000    0.000    0.000 
#
# Total GULP energy -595159.266167 kJ/mol
# GULP energy per Si atom -12399.151378 kJ/mol
# Density = 1.808520 g / cm^3
# Si number density = 18.126455 Si / 1000 Ang^3
#
#
#
# Elastic Constant Matrix: (Units=GPa)
#
#
# Indices 1 2 3 4 5 6 
#
# 1 139.5350 40.0779 51.1336 0.0000 0.0000 0.0000
# 2 40.0779 62.8079 40.5069 0.0000 0.0000 0.0000
# 3 51.1336 40.5069 103.9251 0.0000 0.0000 0.0000
# 4 0.0000 0.0000 0.0000 19.5703 0.0000 0.0000
# 5 0.0000 0.0000 0.0000 0.0000 20.4264 0.0000
# 6 0.0000 0.0000 0.0000 0.0000 0.0000 22.6935
#
#
#
# Elastic Compliance Matrix: (Units=1/GPa)
#
#
# Indices 1 2 3 4 5 6 
#
# 1 0.009457 -0.004052 -0.003074 0.000000 0.000000 0.000000
# 2 -0.004052 0.023004 -0.006973 0.000000 0.000000 0.000000
# 3 -0.003074 -0.006973 0.013852 0.000000 0.000000 0.000000
# 4 0.000000 0.000000 0.000000 0.051098 0.000000 0.000000
# 5 0.000000 0.000000 0.000000 0.000000 0.048956 0.000000
# 6 0.000000 0.000000 0.000000 0.000000 0.000000 0.044065
#
#
# Mechanical properties :
#
#
# Convention : Reuss Voigt Hill
#
# Bulk Modulus (GPa) = 55.19792 63.30054 59.24923
# Shear Modulus (GPa) = 22.25503 24.17469 23.21486
#
# Velocity S-wave (km/s) = 3.50775 3.65590 3.58259
# Velocity P-wave (km/s) = 6.85007 7.26762 7.06193
#
# Compressibility (1/GPa) = 0.01811662
#
# Stress axis : x y z
#
# Youngs Moduli (GPa) = 105.74300 43.47052 72.19038
#
# Poissons Ratio (x) = 0.17615 0.22188
# Poissons Ratio (y) = 0.42849 0.50335
# Poissons Ratio (z) = 0.32501 0.30310
#
# Static dielectric constant tensor:
#      x y z
#    x 3.668360 0.000000 0.000000 
#    y 0.000000 3.171800 0.000000 
#    z 0.000000 0.000000 3.372580 
# 
# 
# High freq. dielectric constant tensor:
#      x y z
#    x 1.717390 0.000000 0.000000 
#    y 0.000000 1.683750 0.000000 
#    z 0.000000 0.000000 1.674980 
# 
# From -- ./inp_files/38384.got.cif
#   From: 2010.03.12/outbox.cif.g09.slc.cpg/sg69_20_cif.got.tgz:38384.got - 2010.04.10 23:52:46.
