data_PCOD8284666
_publ_section_title
;
Structure prediction by ZEFSAII (Michael W. Deem and Ramdas Pophale) SiO2 
 PCOD8284666
Probable space group: F M M M
;
_chemical_formula_sum "Si O2"
_cell_formula_units_Z 160
_cell_length_a 24.640565
_cell_length_b 27.593590
_cell_length_c 12.898118
_cell_angle_alpha 90.000000
_cell_angle_beta 90.000000
_cell_angle_gamma 90.000000
_cell_volume 8769.709646
_symmetry_space_group_name_H-M "F M M M"
_symmetry_group_IT_number 69
_symmetry_cell_setting 'orthorhombic'
loop_
_space_group_symop_operation_xyz
x,y,z
-x,-y,z
x,-y,-z
-x,y,-z
-x,-y,-z
x,y,-z
-x,y,z
x,-y,z
x,1/2+y,1/2+z
-x,1/2-y,1/2+z
x,1/2-y,1/2-z
-x,1/2+y,1/2-z
-x,1/2-y,1/2-z
x,1/2+y,1/2-z
-x,1/2+y,1/2+z
x,1/2-y,1/2+z
1/2+x,y,1/2+z
1/2-x,-y,1/2+z
1/2+x,-y,1/2-z
1/2-x,y,1/2-z
1/2-x,-y,1/2-z
1/2+x,y,1/2-z
1/2-x,y,1/2+z
1/2+x,-y,1/2+z
1/2+x,1/2+y,z
1/2-x,1/2-y,z
1/2+x,1/2-y,-z
1/2-x,1/2+y,-z
1/2-x,1/2-y,-z
1/2+x,1/2+y,-z
1/2-x,1/2+y,z
1/2+x,1/2-y,z
loop_
_atom_site_type_symbol
_atom_site_label
_atom_site_fract_x
_atom_site_fract_y
_atom_site_fract_z
Si Si1 0.738846 0.804629 0.885232
Si Si2 0.562978 0.351384 0.500000
Si Si3 0.664569 0.848799 0.290577
Si Si4 0.439756 0.305900 0.720825
Si Si5 0.359720 0.944777 0.000000
Si Si6 0.812257 0.052966 0.279151
O O1 0.750000 0.750000 0.848038
O O2 0.694712 0.829756 0.813019
O O3 0.796938 0.832647 0.885013
O O4 0.714329 0.806086 0.000000
O O5 0.500000 0.365595 0.500000
O O6 0.576631 0.318563 0.398428
O O7 0.594416 0.402934 0.500000
O O8 0.603889 0.828622 0.299397
O O9 0.656238 0.906644 0.286513
O O10 0.500000 0.326853 0.743451
O O11 0.438941 0.250000 0.750000
O O12 0.320722 0.938054 0.901297
O O13 0.384979 0.000000 0.000000
O O14 0.750000 0.058338 0.250000
O O15 0.834455 0.000000 0.246925
#
# Coordination Sequence:
#
# PCOD8284666 Si02
#       6
#    32  16  32  32  16  32
#     4  10  21  33  49  76 104 133 172 215 263 319
#     4  10  20  35  58  81 105 139 176 222 276 320
#     4  11  19  34  54  72 103 140 173 213 269 313
#     4  10  21  36  54  77 105 141 183 219 259 317
#     4  10  20  35  56  79 107 141 174 220 274 322
#     4  10  20  33  51  76 104 138 175 213 261 320
#
# _framework density 18.244617999999999
#
# number of rings (size 3 to 8) (size 9 to 14) (size 15 to 20)
#    0.000    1.800    4.000    2.400    2.800    0.200 
#    1.800    0.000    0.000    0.600    0.000    0.000 
#    0.000    0.000    0.000    1.800    0.000   11.600 
#
# Total GULP energy -495614.535420 kJ/mol
# GULP energy per Si atom -12390.363386 kJ/mol
# Density = 1.820309 g / cm^3
# Si number density = 18.244618 Si / 1000 Ang^3
#
#
#
# Elastic Constant Matrix: (Units=GPa)
#
#
# Indices 1 2 3 4 5 6 
#
# 1 95.0217 36.2870 9.8478 0.0000 0.0000 0.0000
# 2 36.2870 127.4405 22.8857 0.0000 0.0000 0.0000
# 3 9.8478 22.8857 51.8135 0.0000 0.0000 0.0000
# 4 0.0000 0.0000 0.0000 31.8304 0.0000 0.0000
# 5 0.0000 0.0000 0.0000 0.0000 16.8495 0.0000
# 6 0.0000 0.0000 0.0000 0.0000 0.0000 25.8350
#
#
#
# Elastic Compliance Matrix: (Units=1/GPa)
#
#
# Indices 1 2 3 4 5 6 
#
# 1 0.011840 -0.003223 -0.000827 0.000000 0.000000 0.000000
# 2 -0.003223 0.009400 -0.003539 0.000000 0.000000 0.000000
# 3 -0.000827 -0.003539 0.021020 0.000000 0.000000 0.000000
# 4 0.000000 0.000000 0.000000 0.031416 0.000000 0.000000
# 5 0.000000 0.000000 0.000000 0.000000 0.059349 0.000000
# 6 0.000000 0.000000 0.000000 0.000000 0.000000 0.038707
#
#
# Mechanical properties :
#
#
# Convention : Reuss Voigt Hill
#
# Bulk Modulus (GPa) = 36.92413 45.81298 41.36855
# Shear Modulus (GPa) = 25.51809 28.58666 27.05238
#
# Velocity S-wave (km/s) = 3.74393 3.96265 3.85484
# Velocity P-wave (km/s) = 6.24273 6.78982 6.52201
#
# Compressibility (1/GPa) = 0.02708256
#
# Stress axis : x y z
#
# Youngs Moduli (GPa) = 84.45681 106.38210 47.57271
#
# Poissons Ratio (x) = 0.34286 0.03934
# Poissons Ratio (y) = 0.27220 0.16838
# Poissons Ratio (z) = 0.06984 0.37653
#
# Static dielectric constant tensor:
#      x y z
#    x 3.423040 0.000000 0.000000 
#    y 0.000000 3.790730 0.000000 
#    z 0.000000 0.000000 3.307940 
# 
# 
# High freq. dielectric constant tensor:
#      x y z
#    x 1.694260 0.000000 0.000000 
#    y 0.000000 1.719930 0.000000 
#    z 0.000000 0.000000 1.688090 
# 
# From -- ./inp_files/18033.got.cif
#   From: 2010.03.12/outbox.cif.g09.slc.cpg/sg69_10_cif.got.tgz:18033.got - 2010.04.10 23:52:46.
