data_PCOD8284832
_publ_section_title
;
Structure prediction by ZEFSAII (Michael W. Deem and Ramdas Pophale) SiO2 
 PCOD8284832
Probable space group: F M M M
;
_chemical_formula_sum "Si O2"
_cell_formula_units_Z 176
_cell_length_a 21.517443
_cell_length_b 18.398769
_cell_length_c 24.605210
_cell_angle_alpha 90.000000
_cell_angle_beta 90.000000
_cell_angle_gamma 90.000000
_cell_volume 9741.066406
_symmetry_space_group_name_H-M "F M M M"
_symmetry_group_IT_number 69
_symmetry_cell_setting 'orthorhombic'
loop_
_space_group_symop_operation_xyz
x,y,z
-x,-y,z
x,-y,-z
-x,y,-z
-x,-y,-z
x,y,-z
-x,y,z
x,-y,z
x,1/2+y,1/2+z
-x,1/2-y,1/2+z
x,1/2-y,1/2-z
-x,1/2+y,1/2-z
-x,1/2-y,1/2-z
x,1/2+y,1/2-z
-x,1/2+y,1/2+z
x,1/2-y,1/2+z
1/2+x,y,1/2+z
1/2-x,-y,1/2+z
1/2+x,-y,1/2-z
1/2-x,y,1/2-z
1/2-x,-y,1/2-z
1/2+x,y,1/2-z
1/2-x,y,1/2+z
1/2+x,-y,1/2+z
1/2+x,1/2+y,z
1/2-x,1/2-y,z
1/2+x,1/2-y,-z
1/2-x,1/2+y,-z
1/2-x,1/2-y,-z
1/2+x,1/2+y,-z
1/2-x,1/2+y,z
1/2+x,1/2-y,z
loop_
_atom_site_type_symbol
_atom_site_label
_atom_site_fract_x
_atom_site_fract_y
_atom_site_fract_z
Si Si1 0.429497 0.347222 0.939061
Si Si2 0.664629 0.415201 0.143779
Si Si3 0.608254 0.685531 0.437489
Si Si4 0.283342 0.824070 0.855187
Si Si5 0.500000 0.417553 0.564768
Si Si6 0.178152 0.079719 0.262905
O O1 0.500000 0.373200 0.931460
O O2 0.389383 0.389516 0.895398
O O3 0.426880 0.261269 0.929593
O O4 0.406027 0.366226 0.000000
O O5 0.675050 0.500000 0.137072
O O6 0.729739 0.379325 0.126897
O O7 0.645326 0.396046 0.206305
O O8 0.624484 0.670165 0.500000
O O9 0.673628 0.689457 0.406836
O O10 0.562310 0.622990 0.414256
O O11 0.250000 0.750000 0.834951
O O12 0.328401 0.857740 0.808379
O O13 0.500000 0.500000 0.586967
O O14 0.500000 0.414682 0.500000
O O15 0.250000 0.070863 0.250000
O O16 0.152788 0.000000 0.282312
#
# Coordination Sequence:
#
# PCOD8284832 Si02
#       6
#    32  32  32  32  16  32
#     4  10  20  37  60  81 108 149 189 225 272 331
#     4  10  21  37  55  81 113 144 180 229 279 327
#     4  10  20  35  54  79 113 148 182 224 278 333
#     4  11  20  32  55  87 109 144 186 229 273 338
#     4   9  18  34  56  78 102 143 193 231 268 326
#     4   8  17  34  53  73 106 144 177 219 274 326
#
# _framework density 18.067837000000001
#
# number of rings (size 3 to 8) (size 9 to 14) (size 15 to 20)
#    0.000    2.273    2.727    1.636    0.000    6.545 
#    0.000    0.909    2.000    1.091    0.000    0.000 
#    0.000    0.000    0.000    0.000    0.000    0.000 
#
# Total GULP energy -545409.570114 kJ/mol
# GULP energy per Si atom -12395.672048 kJ/mol
# Density = 1.802671 g / cm^3
# Si number density = 18.067837 Si / 1000 Ang^3
#
#
#
# Elastic Constant Matrix: (Units=GPa)
#
#
# Indices 1 2 3 4 5 6 
#
# 1 72.1644 36.2413 50.7329 0.0000 0.0000 0.0000
# 2 36.2413 97.5702 50.6616 0.0000 0.0000 0.0000
# 3 50.7329 50.6616 99.2580 0.0000 0.0000 0.0000
# 4 0.0000 0.0000 0.0000 27.1917 0.0000 0.0000
# 5 0.0000 0.0000 0.0000 0.0000 -8.7736 0.0000
# 6 0.0000 0.0000 0.0000 0.0000 0.0000 22.8147
#
#
#
# Elastic Compliance Matrix: (Units=1/GPa)
#
#
# Indices 1 2 3 4 5 6 
#
# 1 0.022351 -0.003225 -0.009778 0.000000 0.000000 0.000000
# 2 -0.003225 0.014410 -0.005707 0.000000 0.000000 0.000000
# 3 -0.009778 -0.005707 0.017985 0.000000 0.000000 0.000000
# 4 0.000000 0.000000 0.000000 0.036776 0.000000 0.000000
# 5 0.000000 0.000000 0.000000 0.000000 -0.113978 0.000000
# 6 0.000000 0.000000 0.000000 0.000000 0.000000 0.043831
#
#
# Mechanical properties :
#
#
# Convention : Reuss Voigt Hill
#
# Bulk Modulus (GPa) = 57.71333 60.47378 59.09356
# Shear Modulus (GPa) = 77.43492 17.00367 47.21929
#
# Velocity S-wave (km/s) = 6.55370 3.07107 5.11773
# Velocity P-wave (km/s) = 9.44880 6.79105 8.22794
#
# Compressibility (1/GPa) = 0.01732702
#
# Stress axis : x y z
#
# Youngs Moduli (GPa) = 44.74081 69.39665 55.60142
#
# Poissons Ratio (x) = 0.22380 0.54367
# Poissons Ratio (y) = 0.14429 0.31729
# Poissons Ratio (z) = 0.43748 0.39601
#
# Static dielectric constant tensor:
#      x y z
#    x 2.676770 0.000000 0.000000 
#    y 0.000000 3.529960 0.000000 
#    z 0.000000 0.000000 3.575590 
# 
# 
# High freq. dielectric constant tensor:
#      x y z
#    x 1.674580 0.000000 0.000000 
#    y 0.000000 1.710530 0.000000 
#    z 0.000000 0.000000 1.688660 
# 
# From -- ./inp_files/41849.got.cif
#   From: 2010.03.12/outbox.cif.g09.slc.cpg/sg69_21_cif.got.tgz:41849.got - 2010.04.10 23:52:46.
