data_PCOD8284968
_publ_section_title
;
Structure prediction by ZEFSAII (Michael W. Deem and Ramdas Pophale) SiO2 
 PCOD8284968
Probable space group: F M M M
;
_chemical_formula_sum "Si O2"
_cell_formula_units_Z 192
_cell_length_a 22.194688
_cell_length_b 15.828728
_cell_length_c 26.018305
_cell_angle_alpha 90.000000
_cell_angle_beta 90.000000
_cell_angle_gamma 90.000000
_cell_volume 9140.586461
_symmetry_space_group_name_H-M "F M M M"
_symmetry_group_IT_number 69
_symmetry_cell_setting 'orthorhombic'
loop_
_space_group_symop_operation_xyz
x,y,z
-x,-y,z
x,-y,-z
-x,y,-z
-x,-y,-z
x,y,-z
-x,y,z
x,-y,z
x,1/2+y,1/2+z
-x,1/2-y,1/2+z
x,1/2-y,1/2-z
-x,1/2+y,1/2-z
-x,1/2-y,1/2-z
x,1/2+y,1/2-z
-x,1/2+y,1/2+z
x,1/2-y,1/2+z
1/2+x,y,1/2+z
1/2-x,-y,1/2+z
1/2+x,-y,1/2-z
1/2-x,y,1/2-z
1/2-x,-y,1/2-z
1/2+x,y,1/2-z
1/2-x,y,1/2+z
1/2+x,-y,1/2+z
1/2+x,1/2+y,z
1/2-x,1/2-y,z
1/2+x,1/2-y,-z
1/2-x,1/2+y,-z
1/2-x,1/2-y,-z
1/2+x,1/2+y,-z
1/2-x,1/2+y,z
1/2+x,1/2-y,z
loop_
_atom_site_type_symbol
_atom_site_label
_atom_site_fract_x
_atom_site_fract_y
_atom_site_fract_z
Si Si1 0.231249 0.903174 0.605270
Si Si2 0.110915 0.672288 0.940195
Si Si3 0.303200 0.313528 0.698330
Si Si4 0.000000 0.346119 0.232724
Si Si5 0.647376 0.185991 0.377998
Si Si6 0.120725 0.904755 0.780805
Si Si7 0.000000 0.598070 0.880650
O O1 0.177112 0.866219 0.571115
O O2 0.218718 0.896361 0.666797
O O3 0.291209 0.847261 0.595600
O O4 0.242881 0.000000 0.590196
O O5 0.107383 0.772207 0.923379
O O6 0.059900 0.617765 0.912479
O O7 0.097475 0.667128 0.000000
O O8 0.250000 0.250000 0.711400
O O9 0.348325 0.266880 0.659920
O O10 0.332609 0.341334 0.752494
O O11 0.000000 0.250000 0.250000
O O12 0.056571 0.395701 0.254831
O O13 0.000000 0.347483 0.171302
O O14 0.616934 0.114286 0.342261
O O15 0.143581 0.000000 0.773933
O O16 0.000000 0.500000 0.865787
#
# Coordination Sequence:
#
# PCOD8284968 Si02
#       7
#    32  32  32  16  32  32  16
#     4  10  20  36  58  88 124 158 200 255 310 360
#     4  11  24  42  64  88 119 162 206 254 316 379
#     4   9  19  34  54  81 118 163 201 237 294 365
#     4  12  24  41  65  93 128 173 207 234 288 365
#     4  10  22  38  57  83 118 161 206 248 292 355
#     4  12  23  37  59  90 126 162 206 253 301 358
#     4  12  25  42  66  98 131 157 195 251 306 362
#
# _framework density 21.005216999999998
#
# number of rings (size 3 to 8) (size 9 to 14) (size 15 to 20)
#    0.000    1.333    0.000    8.500    0.000    9.000 
#    0.000    4.167    0.000    1.500    0.000    0.000 
#    0.000    8.000    0.000    0.000    0.000    0.000 
#
# Total GULP energy -594928.559064 kJ/mol
# GULP energy per Si atom -12394.344980 kJ/mol
# Density = 2.095741 g / cm^3
# Si number density = 21.005217 Si / 1000 Ang^3
#
#
#
# Elastic Constant Matrix: (Units=GPa)
#
#
# Indices 1 2 3 4 5 6 
#
# 1 79.4524 32.6695 41.5298 0.0000 0.0000 0.0000
# 2 32.6695 122.1186 43.0278 0.0000 0.0000 0.0000
# 3 41.5298 43.0278 116.9059 0.0000 0.0000 0.0000
# 4 0.0000 0.0000 0.0000 19.2654 0.0000 0.0000
# 5 0.0000 0.0000 0.0000 0.0000 20.2396 0.0000
# 6 0.0000 0.0000 0.0000 0.0000 0.0000 28.3668
#
#
#
# Elastic Compliance Matrix: (Units=1/GPa)
#
#
# Indices 1 2 3 4 5 6 
#
# 1 0.016167 -0.002644 -0.004770 0.000000 0.000000 0.000000
# 2 -0.002644 0.009841 -0.002683 0.000000 0.000000 0.000000
# 3 -0.004770 -0.002683 0.011236 0.000000 0.000000 0.000000
# 4 0.000000 0.000000 0.000000 0.051906 0.000000 0.000000
# 5 0.000000 0.000000 0.000000 0.000000 0.049408 0.000000
# 6 0.000000 0.000000 0.000000 0.000000 0.000000 0.035252
#
#
# Mechanical properties :
#
#
# Convention : Reuss Voigt Hill
#
# Bulk Modulus (GPa) = 58.65127 61.43680 60.04403
# Shear Modulus (GPa) = 25.03905 26.99102 26.01504
#
# Velocity S-wave (km/s) = 3.45634 3.58853 3.52306
# Velocity P-wave (km/s) = 6.62655 6.81777 6.72284
#
# Compressibility (1/GPa) = 0.01704993
#
# Stress axis : x y z
#
# Youngs Moduli (GPa) = 61.85583 101.61092 89.00172
#
# Poissons Ratio (x) = 0.26869 0.42452
# Poissons Ratio (y) = 0.16357 0.23878
# Poissons Ratio (z) = 0.29504 0.27260
#
# Static dielectric constant tensor:
#      x y z
#    x 3.435960 0.000000 0.000000 
#    y 0.000000 3.872970 0.000000 
#    z 0.000000 0.000000 3.964080 
# 
# 
# High freq. dielectric constant tensor:
#      x y z
#    x 1.814520 0.000000 0.000000 
#    y 0.000000 1.826170 0.000000 
#    z 0.000000 0.000000 1.812520 
# 
# From -- ./inp_files/43206.got.cif
#   From: 2010.03.12/outbox.cif.g09.slc.cpg/sg69_22_cif.got.tgz:43206.got - 2010.04.10 23:52:46.
