data_PCOD8284074
_publ_section_title
;
Structure prediction by ZEFSAII (Michael W. Deem and Ramdas Pophale) SiO2 
 PCOD8284074
Probable space group: F M M M
;
_chemical_formula_sum "Si O2"
_cell_formula_units_Z 160
_cell_length_a 30.733107
_cell_length_b 16.118835
_cell_length_c 17.732527
_cell_angle_alpha 90.000000
_cell_angle_beta 90.000000
_cell_angle_gamma 90.000000
_cell_volume 8784.372576
_symmetry_space_group_name_H-M "F M M M"
_symmetry_group_IT_number 69
_symmetry_cell_setting 'orthorhombic'
loop_
_space_group_symop_operation_xyz
x,y,z
-x,-y,z
x,-y,-z
-x,y,-z
-x,-y,-z
x,y,-z
-x,y,z
x,-y,z
x,1/2+y,1/2+z
-x,1/2-y,1/2+z
x,1/2-y,1/2-z
-x,1/2+y,1/2-z
-x,1/2-y,1/2-z
x,1/2+y,1/2-z
-x,1/2+y,1/2+z
x,1/2-y,1/2+z
1/2+x,y,1/2+z
1/2-x,-y,1/2+z
1/2+x,-y,1/2-z
1/2-x,y,1/2-z
1/2-x,-y,1/2-z
1/2+x,y,1/2-z
1/2-x,y,1/2+z
1/2+x,-y,1/2+z
1/2+x,1/2+y,z
1/2-x,1/2-y,z
1/2+x,1/2-y,-z
1/2-x,1/2+y,-z
1/2-x,1/2-y,-z
1/2+x,1/2+y,-z
1/2-x,1/2+y,z
1/2+x,1/2-y,z
loop_
_atom_site_type_symbol
_atom_site_label
_atom_site_fract_x
_atom_site_fract_y
_atom_site_fract_z
Si Si1 0.000000 0.406076 0.917952
Si Si2 0.409752 0.357761 0.631275
Si Si3 0.590061 0.675318 0.914562
Si Si4 0.500000 0.093474 0.589227
Si Si5 0.354020 0.659484 0.227343
Si Si6 0.152519 0.000000 0.582205
Si Si7 0.699808 0.000000 0.768704
O O1 0.958811 0.388523 0.865982
O O2 0.000000 0.500000 0.940914
O O3 0.000000 0.357978 0.000000
O O4 0.410221 0.274008 0.583769
O O5 0.395386 0.349081 0.717797
O O6 0.377647 0.419785 0.588971
O O7 0.543736 0.640769 0.883991
O O8 0.628923 0.649682 0.858130
O O9 0.599751 0.642987 0.000000
O O10 0.500000 0.091027 0.500000
O O11 0.500000 0.000000 0.622401
O O12 0.332860 0.750000 0.250000
O O13 0.320116 0.584676 0.235609
O O14 0.174549 0.000000 0.500000
O O15 0.191882 0.000000 0.641597
O O16 0.750000 0.000000 0.750000
#
# Coordination Sequence:
#
# PCOD8284074 Si02
#       7
#    16  32  32  16  32  16  16
#     4  11  19  26  43  76 111 142 179 221 258 295
#     4  10  19  32  49  75 111 146 178 214 260 304
#     4  10  19  33  53  75 103 143 186 224 255 292
#     4   9  19  32  45  67 100 141 184 223 257 285
#     4   9  21  38  56  80 107 137 175 216 263 319
#     4  10  18  33  56  80 107 138 172 211 256 318
#     4  10  22  40  61  83 107 135 165 206 274 336
#
# _framework density 18.214162999999999
#
# number of rings (size 3 to 8) (size 9 to 14) (size 15 to 20)
#    0.000    2.200    1.000    2.400    1.400    2.000 
#    0.000    5.000    0.000    0.000    0.000    8.400 
#    0.000    0.000    0.000    0.000    0.000    0.000 
#
# Total GULP energy -495723.019893 kJ/mol
# GULP energy per Si atom -12393.075497 kJ/mol
# Density = 1.817271 g / cm^3
# Si number density = 18.214163 Si / 1000 Ang^3
#
#
#
# Elastic Constant Matrix: (Units=GPa)
#
#
# Indices 1 2 3 4 5 6 
#
# 1 121.1427 60.3518 51.3696 0.0000 0.0000 0.0000
# 2 60.3518 133.9233 39.1451 0.0000 0.0000 0.0000
# 3 51.3696 39.1451 103.6055 0.0000 0.0000 0.0000
# 4 0.0000 0.0000 0.0000 22.8028 0.0000 0.0000
# 5 0.0000 0.0000 0.0000 0.0000 13.7748 0.0000
# 6 0.0000 0.0000 0.0000 0.0000 0.0000 20.2714
#
#
#
# Elastic Compliance Matrix: (Units=1/GPa)
#
#
# Indices 1 2 3 4 5 6 
#
# 1 0.012255 -0.004212 -0.004485 0.000000 0.000000 0.000000
# 2 -0.004212 0.009841 -0.001630 0.000000 0.000000 0.000000
# 3 -0.004485 -0.001630 0.012492 0.000000 0.000000 0.000000
# 4 0.000000 0.000000 0.000000 0.043854 0.000000 0.000000
# 5 0.000000 0.000000 0.000000 0.000000 0.072596 0.000000
# 6 0.000000 0.000000 0.000000 0.000000 0.000000 0.049331
#
#
# Mechanical properties :
#
#
# Convention : Reuss Voigt Hill
#
# Bulk Modulus (GPa) = 71.76465 73.37828 72.57147
# Shear Modulus (GPa) = 22.15657 25.22347 23.69002
#
# Velocity S-wave (km/s) = 3.49154 3.72536 3.61035
# Velocity P-wave (km/s) = 7.46596 7.67322 7.57030
#
# Compressibility (1/GPa) = 0.01393444
#
# Stress axis : x y z
#
# Youngs Moduli (GPa) = 81.60172 101.61174 80.05395
#
# Poissons Ratio (x) = 0.42795 0.35903
# Poissons Ratio (y) = 0.34367 0.13050
# Poissons Ratio (z) = 0.36597 0.16564
#
# Static dielectric constant tensor:
#      x y z
#    x 2.985000 0.000000 0.000000 
#    y 0.000000 3.708570 0.000000 
#    z 0.000000 0.000000 3.332740 
# 
# 
# High freq. dielectric constant tensor:
#      x y z
#    x 1.667640 0.000000 0.000000 
#    y 0.000000 1.721710 0.000000 
#    z 0.000000 0.000000 1.704860 
# 
# From -- ./inp_files/15745.got.cif
#   From: 2010.03.12/outbox.cif.g09.slc.cpg/sg69_8_cif.got.tgz:15745.got - 2010.04.10 23:52:46.
