data_PCOD8284753
_publ_section_title
;
Structure prediction by ZEFSAII (Michael W. Deem and Ramdas Pophale) SiO2 
 PCOD8284753
Probable space group: F M M M
;
_chemical_formula_sum "Si O2"
_cell_formula_units_Z 176
_cell_length_a 17.914948
_cell_length_b 16.948402
_cell_length_c 30.459147
_cell_angle_alpha 90.000000
_cell_angle_beta 90.000000
_cell_angle_gamma 90.000000
_cell_volume 9248.302900
_symmetry_space_group_name_H-M "F M M M"
_symmetry_group_IT_number 69
_symmetry_cell_setting 'orthorhombic'
loop_
_space_group_symop_operation_xyz
x,y,z
-x,-y,z
x,-y,-z
-x,y,-z
-x,-y,-z
x,y,-z
-x,y,z
x,-y,z
x,1/2+y,1/2+z
-x,1/2-y,1/2+z
x,1/2-y,1/2-z
-x,1/2+y,1/2-z
-x,1/2-y,1/2-z
x,1/2+y,1/2-z
-x,1/2+y,1/2+z
x,1/2-y,1/2+z
1/2+x,y,1/2+z
1/2-x,-y,1/2+z
1/2+x,-y,1/2-z
1/2-x,y,1/2-z
1/2-x,-y,1/2-z
1/2+x,y,1/2-z
1/2-x,y,1/2+z
1/2+x,-y,1/2+z
1/2+x,1/2+y,z
1/2-x,1/2-y,z
1/2+x,1/2-y,-z
1/2-x,1/2+y,-z
1/2-x,1/2-y,-z
1/2+x,1/2+y,-z
1/2-x,1/2+y,z
1/2+x,1/2-y,z
loop_
_atom_site_type_symbol
_atom_site_label
_atom_site_fract_x
_atom_site_fract_y
_atom_site_fract_z
Si Si1 0.208769 0.590484 0.705572
Si Si2 0.414464 0.406513 0.350076
Si Si3 0.268161 0.660534 0.618156
Si Si4 0.085989 0.661030 0.753909
Si Si5 0.000000 0.086391 0.947835
Si Si6 0.659770 0.907010 0.451320
O O1 0.222989 0.500000 0.693145
O O2 0.250000 0.616613 0.750000
O O3 0.236348 0.643637 0.666060
O O4 0.122249 0.607779 0.715608
O O5 0.500000 0.386637 0.363733
O O6 0.399837 0.500000 0.351721
O O7 0.356682 0.361715 0.382659
O O8 0.397087 0.376564 0.301210
O O9 0.250000 0.750000 0.606054
O O10 0.226940 0.609631 0.581490
O O11 0.117492 0.750000 0.750000
O O12 0.000000 0.659936 0.742488
O O13 0.078950 0.129215 0.934651
O O14 0.000000 0.000000 0.925619
O O15 0.000000 0.078529 0.000000
O O16 0.679740 0.873899 0.500000
O O17 0.648195 0.000000 0.454287
#
# Coordination Sequence:
#
# PCOD8284753 Si02
#       6
#    32  32  32  32  16  32
#     4  11  22  35  54  77 105 144 188 235 272 320
#     4  10  20  37  60  79 104 150 201 236 268 332
#     4  12  24  37  55  85 115 149 183 233 293 341
#     4  10  20  34  53  78 108 144 183 229 286 339
#     4   7  12  28  56  86 110 139 177 213 265 334
#     4   9  18  36  62  86 112 147 186 228 273 334
#
# _framework density 19.030519000000002
#
# number of rings (size 3 to 8) (size 9 to 14) (size 15 to 20)
#    0.000    1.909    1.818    4.364    0.000    1.455 
#    3.273    0.000    0.000    0.545    0.000    2.545 
#    0.000    0.000    0.000    0.000    0.000    0.000 
#
# Total GULP energy -545299.990742 kJ/mol
# GULP energy per Si atom -12393.181608 kJ/mol
# Density = 1.898720 g / cm^3
# Si number density = 19.030519 Si / 1000 Ang^3
#
#
#
# Elastic Constant Matrix: (Units=GPa)
#
#
# Indices 1 2 3 4 5 6 
#
# 1 141.1825 28.9875 50.0326 0.0000 0.0000 0.0000
# 2 28.9875 53.7931 13.2770 0.0000 0.0000 0.0000
# 3 50.0326 13.2770 60.7027 0.0000 0.0000 0.0000
# 4 0.0000 0.0000 0.0000 7.3039 0.0000 0.0000
# 5 0.0000 0.0000 0.0000 0.0000 29.1234 0.0000
# 6 0.0000 0.0000 0.0000 0.0000 0.0000 25.7612
#
#
#
# Elastic Compliance Matrix: (Units=1/GPa)
#
#
# Indices 1 2 3 4 5 6 
#
# 1 0.010690 -0.003790 -0.007982 0.000000 0.000000 0.000000
# 2 -0.003790 0.020995 -0.001468 0.000000 0.000000 0.000000
# 3 -0.007982 -0.001468 0.023374 0.000000 0.000000 0.000000
# 4 0.000000 0.000000 0.000000 0.136912 0.000000 0.000000
# 5 0.000000 0.000000 0.000000 0.000000 0.034337 0.000000
# 6 0.000000 0.000000 0.000000 0.000000 0.000000 0.038818
#
#
# Mechanical properties :
#
#
# Convention : Reuss Voigt Hill
#
# Bulk Modulus (GPa) = 34.99203 48.91915 41.95559
# Shear Modulus (GPa) = 16.60405 23.32978 19.96692
#
# Velocity S-wave (km/s) = 2.95701 3.50510 3.24266
# Velocity P-wave (km/s) = 5.48505 6.49172 6.00950
#
# Compressibility (1/GPa) = 0.02857793
#
# Stress axis : x y z
#
# Youngs Moduli (GPa) = 93.54639 47.63141 42.78334
#
# Poissons Ratio (x) = 0.18054 0.34149
# Poissons Ratio (y) = 0.35458 0.06280
# Poissons Ratio (z) = 0.74667 0.06991
#
# Static dielectric constant tensor:
#      x y z
#    x 3.933080 0.000000 0.000000 
#    y 0.000000 3.384860 0.000000 
#    z 0.000000 0.000000 3.177090 
# 
# 
# High freq. dielectric constant tensor:
#      x y z
#    x 1.761530 0.000000 0.000000 
#    y 0.000000 1.724050 0.000000 
#    z 0.000000 0.000000 1.705870 
# 
# From -- ./inp_files/23529.got.cif
#   From: 2010.03.12/outbox.cif.g09.slc.cpg/sg69_12_cif.got.tgz:23529.got - 2010.04.10 23:52:46.
