data_PCOD8284227
_publ_section_title
;
Structure prediction by ZEFSAII (Michael W. Deem and Ramdas Pophale) SiO2 
 PCOD8284227
Probable space group: F M M M
;
_chemical_formula_sum "Si O2"
_cell_formula_units_Z 128
_cell_length_a 14.536102
_cell_length_b 18.199380
_cell_length_c 29.203647
_cell_angle_alpha 90.000000
_cell_angle_beta 90.000000
_cell_angle_gamma 90.000000
_cell_volume 7725.767692
_symmetry_space_group_name_H-M "F M M M"
_symmetry_group_IT_number 69
_symmetry_cell_setting 'orthorhombic'
loop_
_space_group_symop_operation_xyz
x,y,z
-x,-y,z
x,-y,-z
-x,y,-z
-x,-y,-z
x,y,-z
-x,y,z
x,-y,z
x,1/2+y,1/2+z
-x,1/2-y,1/2+z
x,1/2-y,1/2-z
-x,1/2+y,1/2-z
-x,1/2-y,1/2-z
x,1/2+y,1/2-z
-x,1/2+y,1/2+z
x,1/2-y,1/2+z
1/2+x,y,1/2+z
1/2-x,-y,1/2+z
1/2+x,-y,1/2-z
1/2-x,y,1/2-z
1/2-x,-y,1/2-z
1/2+x,y,1/2-z
1/2-x,y,1/2+z
1/2+x,-y,1/2+z
1/2+x,1/2+y,z
1/2-x,1/2-y,z
1/2+x,1/2-y,-z
1/2-x,1/2+y,-z
1/2-x,1/2-y,-z
1/2+x,1/2+y,-z
1/2-x,1/2+y,z
1/2+x,1/2-y,z
loop_
_atom_site_type_symbol
_atom_site_label
_atom_site_fract_x
_atom_site_fract_y
_atom_site_fract_z
Si Si1 0.394549 0.284962 0.702158
Si Si2 0.391330 0.917621 0.549851
Si Si3 0.232516 0.419647 0.803053
Si Si4 0.894083 0.854996 0.143552
O O1 0.500000 0.307903 0.709792
O O2 0.356494 0.250000 0.750000
O O3 0.340083 0.356277 0.685054
O O4 0.381744 0.228133 0.660672
O O5 0.352483 0.891346 0.500000
O O6 0.500000 0.920252 0.546845
O O7 0.362199 0.861695 0.590364
O O8 0.354467 0.000000 0.560721
O O9 0.194065 0.500000 0.817898
O O10 0.250000 0.418119 0.750000
O O11 0.330665 0.408312 0.826932
O O12 0.000000 0.880627 0.149995
#
# Coordination Sequence:
#
# PCOD8284227 Si02
#       4
#    32  32  32  32
#     4  10  20  35  51  66  91 130 169 206 245 286
#     4   8  14  26  45  71 103 132 158 197 250 302
#     4  11  22  32  47  70  96 129 166 206 246 287
#     4  10  19  31  51  75 100 131 164 198 243 299
#
# _framework density 16.567933
#
# number of rings (size 3 to 8) (size 9 to 14) (size 15 to 20)
#    0.000    2.250    2.500    2.250    0.000    2.000 
#    0.000    2.500    0.000    3.000    0.000    0.000 
#    0.000    0.000    0.000   15.000    0.000    0.500 
#
# Total GULP energy -396552.627965 kJ/mol
# GULP energy per Si atom -12392.269624 kJ/mol
# Density = 1.653022 g / cm^3
# Si number density = 16.567933 Si / 1000 Ang^3
#
#
#
# Elastic Constant Matrix: (Units=GPa)
#
#
# Indices 1 2 3 4 5 6 
#
# 1 57.3302 45.2802 38.6508 0.0000 0.0000 0.0000
# 2 45.2802 114.9885 63.0175 0.0000 0.0000 0.0000
# 3 38.6508 63.0175 133.1021 0.0000 0.0000 0.0000
# 4 0.0000 0.0000 0.0000 27.4162 0.0000 0.0000
# 5 0.0000 0.0000 0.0000 0.0000 14.2921 0.0000
# 6 0.0000 0.0000 0.0000 0.0000 0.0000 -7.5247
#
#
#
# Elastic Compliance Matrix: (Units=1/GPa)
#
#
# Indices 1 2 3 4 5 6 
#
# 1 0.026626 -0.008436 -0.003737 0.000000 0.000000 0.000000
# 2 -0.008436 0.014417 -0.004376 0.000000 0.000000 0.000000
# 3 -0.003737 -0.004376 0.010670 0.000000 0.000000 0.000000
# 4 0.000000 0.000000 0.000000 0.036475 0.000000 0.000000
# 5 0.000000 0.000000 0.000000 0.000000 0.069969 0.000000
# 6 0.000000 0.000000 0.000000 0.000000 0.000000 -0.132895
#
#
# Mechanical properties :
#
#
# Convention : Reuss Voigt Hill
#
# Bulk Modulus (GPa) = 53.72561 66.59087 60.15824
# Shear Modulus (GPa) = 77.44174 17.40155 47.42164
#
# Velocity S-wave (km/s) = 6.84423 3.24437 5.35581
# Velocity P-wave (km/s) = 9.74452 7.36984 8.63916
#
# Compressibility (1/GPa) = 0.01861310
#
# Stress axis : x y z
#
# Youngs Moduli (GPa) = 37.55767 69.36400 93.72016
#
# Poissons Ratio (x) = 0.58518 0.35028
# Poissons Ratio (y) = 0.31685 0.41010
# Poissons Ratio (z) = 0.14037 0.30352
#
# Static dielectric constant tensor:
#      x y z
#    x 2.981990 0.000000 0.000000 
#    y 0.000000 3.318660 0.000000 
#    z 0.000000 0.000000 2.066060 
# 
# 
# High freq. dielectric constant tensor:
#      x y z
#    x 1.610260 0.000000 0.000000 
#    y 0.000000 1.630730 0.000000 
#    z 0.000000 0.000000 1.632470 
# 
# From -- ./inp_files/36523.got.cif
#   From: 2010.03.12/outbox.cif.g09.slc.cpg/sg69_19_cif.got.tgz:36523.got - 2010.04.10 23:52:46.
