data_PCOD8284505
_publ_section_title
;
Structure prediction by ZEFSAII (Michael W. Deem and Ramdas Pophale) SiO2 
 PCOD8284505
Probable space group: F M M M
;
_chemical_formula_sum "Si O2"
_cell_formula_units_Z 208
_cell_length_a 23.323547
_cell_length_b 18.544345
_cell_length_c 25.936488
_cell_angle_alpha 90.000000
_cell_angle_beta 90.000000
_cell_angle_gamma 90.000000
_cell_volume 11218.047253
_symmetry_space_group_name_H-M "F M M M"
_symmetry_group_IT_number 69
_symmetry_cell_setting 'orthorhombic'
loop_
_space_group_symop_operation_xyz
x,y,z
-x,-y,z
x,-y,-z
-x,y,-z
-x,-y,-z
x,y,-z
-x,y,z
x,-y,z
x,1/2+y,1/2+z
-x,1/2-y,1/2+z
x,1/2-y,1/2-z
-x,1/2+y,1/2-z
-x,1/2-y,1/2-z
x,1/2+y,1/2-z
-x,1/2+y,1/2+z
x,1/2-y,1/2+z
1/2+x,y,1/2+z
1/2-x,-y,1/2+z
1/2+x,-y,1/2-z
1/2-x,y,1/2-z
1/2-x,-y,1/2-z
1/2+x,y,1/2-z
1/2-x,y,1/2+z
1/2+x,-y,1/2+z
1/2+x,1/2+y,z
1/2-x,1/2-y,z
1/2+x,1/2-y,-z
1/2-x,1/2+y,-z
1/2-x,1/2-y,-z
1/2+x,1/2+y,-z
1/2-x,1/2+y,z
1/2+x,1/2-y,z
loop_
_atom_site_type_symbol
_atom_site_label
_atom_site_fract_x
_atom_site_fract_y
_atom_site_fract_z
Si Si1 0.435562 0.300155 0.207891
Si Si2 0.622097 0.083624 0.759746
Si Si3 0.194501 0.418294 0.334321
Si Si4 0.500000 0.416338 0.060925
Si Si5 0.888234 0.668871 0.601534
Si Si6 0.309779 0.214157 0.059223
Si Si7 0.822280 0.916300 0.364408
O O1 0.500000 0.275147 0.199047
O O2 0.403815 0.250000 0.250000
O O3 0.433664 0.379518 0.233953
O O4 0.404985 0.290417 0.153676
O O5 0.674093 0.109731 0.721955
O O6 0.632484 0.104713 0.819538
O O7 0.611023 0.000000 0.756639
O O8 0.175931 0.500000 0.339206
O O9 0.164056 0.383322 0.384044
O O10 0.261759 0.407294 0.336687
O O11 0.500000 0.500000 0.080638
O O12 0.557200 0.374925 0.079644
O O13 0.500000 0.415172 0.000000
O O14 0.862625 0.729100 0.563074
O O15 0.250000 0.250000 0.079721
O O16 0.326509 0.140433 0.088965
O O17 0.302105 0.191754 0.000000
O O18 0.830818 0.000000 0.383402
#
# Coordination Sequence:
#
# PCOD8284505 Si02
#       7
#    32  32  32  16  32  32  32
#     4  10  20  34  52  79 112 143 179 223 276 340
#     4   9  18  31  51  79 109 144 181 220 272 335
#     4   9  17  30  52  81 113 146 180 223 277 335
#     4  11  24  40  59  86 115 149 198 243 285 342
#     4  11  20  38  58  81 113 152 189 235 285 341
#     4  11  23  38  56  80 111 149 196 244 293 347
#     4  10  19  35  56  79 110 146 187 232 280 338
#
# _framework density 18.541551999999999
#
# number of rings (size 3 to 8) (size 9 to 14) (size 15 to 20)
#    0.000    1.923    2.308    2.308    0.000    3.077 
#    0.000    0.000    0.000    0.000    0.000    0.000 
#    0.000    1.846    0.000    0.000    0.000    0.000 
#
# Total GULP energy -644237.080219 kJ/mol
# GULP energy per Si atom -12389.174620 kJ/mol
# Density = 1.849935 g / cm^3
# Si number density = 18.541552 Si / 1000 Ang^3
#
#
#
# Elastic Constant Matrix: (Units=GPa)
#
#
# Indices 1 2 3 4 5 6 
#
# 1 45.5427 19.6262 6.0546 0.0000 0.0000 0.0000
# 2 19.6262 77.0615 39.1251 0.0000 0.0000 0.0000
# 3 6.0546 39.1251 82.6112 0.0000 0.0000 0.0000
# 4 0.0000 0.0000 0.0000 33.6059 0.0000 0.0000
# 5 0.0000 0.0000 0.0000 0.0000 17.4498 0.0000
# 6 0.0000 0.0000 0.0000 0.0000 0.0000 18.1424
#
#
#
# Elastic Compliance Matrix: (Units=1/GPa)
#
#
# Indices 1 2 3 4 5 6 
#
# 1 0.024814 -0.007105 0.001546 0.000000 0.000000 0.000000
# 2 -0.007105 0.019119 -0.008534 0.000000 0.000000 0.000000
# 3 0.001546 -0.008534 0.016033 0.000000 0.000000 0.000000
# 4 0.000000 0.000000 0.000000 0.029757 0.000000 0.000000
# 5 0.000000 0.000000 0.000000 0.000000 0.057307 0.000000
# 6 0.000000 0.000000 0.000000 0.000000 0.000000 0.055120
#
#
# Mechanical properties :
#
#
# Convention : Reuss Voigt Hill
#
# Bulk Modulus (GPa) = 31.46555 37.20303 34.33429
# Shear Modulus (GPa) = 20.75307 23.20024 21.97665
#
# Velocity S-wave (km/s) = 3.34918 3.54115 3.44650
# Velocity P-wave (km/s) = 5.65360 6.06860 5.86477
#
# Compressibility (1/GPa) = 0.03178078
#
# Stress axis : x y z
#
# Youngs Moduli (GPa) = 40.30060 52.30415 62.36985
#
# Poissons Ratio (x) = 0.37160 -0.09643
# Poissons Ratio (y) = 0.28632 0.53227
# Poissons Ratio (z) = -0.06231 0.44637
#
# Static dielectric constant tensor:
#      x y z
#    x 3.331940 0.000000 0.000000 
#    y 0.000000 3.534710 0.000000 
#    z 0.000000 0.000000 3.411490 
# 
# 
# High freq. dielectric constant tensor:
#      x y z
#    x 1.704800 0.000000 0.000000 
#    y 0.000000 1.721000 0.000000 
#    z 0.000000 0.000000 1.716660 
# 
# From -- ./inp_files/26089.got.cif
#   From: 2010.03.12/outbox.cif.g09.slc.cpg/sg69_14_cif.got.tgz:26089.got - 2010.04.10 23:52:46.
