data_PCOD8284498
_publ_section_title
;
Structure prediction by ZEFSAII (Michael W. Deem and Ramdas Pophale) SiO2 
 PCOD8284498
Probable space group: F M M M
;
_chemical_formula_sum "Si O2"
_cell_formula_units_Z 160
_cell_length_a 17.345886
_cell_length_b 27.662521
_cell_length_c 18.234895
_cell_angle_alpha 90.000000
_cell_angle_beta 90.000000
_cell_angle_gamma 90.000000
_cell_volume 8749.666731
_symmetry_space_group_name_H-M "F M M M"
_symmetry_group_IT_number 69
_symmetry_cell_setting 'orthorhombic'
loop_
_space_group_symop_operation_xyz
x,y,z
-x,-y,z
x,-y,-z
-x,y,-z
-x,-y,-z
x,y,-z
-x,y,z
x,-y,z
x,1/2+y,1/2+z
-x,1/2-y,1/2+z
x,1/2-y,1/2-z
-x,1/2+y,1/2-z
-x,1/2-y,1/2-z
x,1/2+y,1/2-z
-x,1/2+y,1/2+z
x,1/2-y,1/2+z
1/2+x,y,1/2+z
1/2-x,-y,1/2+z
1/2+x,-y,1/2-z
1/2-x,y,1/2-z
1/2-x,-y,1/2-z
1/2+x,y,1/2-z
1/2-x,y,1/2+z
1/2+x,-y,1/2+z
1/2+x,1/2+y,z
1/2-x,1/2-y,z
1/2+x,1/2-y,-z
1/2-x,1/2+y,-z
1/2-x,1/2-y,-z
1/2+x,1/2+y,-z
1/2-x,1/2+y,z
1/2+x,1/2-y,z
loop_
_atom_site_type_symbol
_atom_site_label
_atom_site_fract_x
_atom_site_fract_y
_atom_site_fract_z
Si Si1 0.719079 0.346622 0.668119
Si Si2 0.087820 0.086441 0.915241
Si Si3 0.643622 0.807975 0.583849
Si Si4 0.912388 0.775607 0.323187
Si Si5 0.235065 0.447673 0.663638
O O1 0.750000 0.351622 0.750000
O O2 0.774582 0.310535 0.624572
O O3 0.633896 0.325052 0.663577
O O4 0.718850 0.400887 0.632026
O O5 0.093879 0.143924 0.902084
O O6 0.144884 0.059020 0.859081
O O7 0.000000 0.070509 0.898077
O O8 0.109089 0.074009 0.000000
O O9 0.662866 0.799762 0.500000
O O10 0.595231 0.761950 0.610563
O O11 0.880386 0.750000 0.250000
O O12 0.000000 0.792058 0.313438
O O13 0.262279 0.500000 0.631144
O O14 0.250000 0.449524 0.750000
#
# Coordination Sequence:
#
# PCOD8284498 Si02
#       5
#    32  32  32  32  32
#     4  10  19  35  54  73 101 139 177 219 256 307
#     4   9  18  33  55  84 114 140 170 217 280 337
#     4  10  20  34  54  79 108 142 174 210 260 319
#     4  11  22  33  50  77 106 139 177 214 258 310
#     4   9  19  35  52  73 104 143 182 219 261 313
#
# _framework density 18.286411000000001
#
# number of rings (size 3 to 8) (size 9 to 14) (size 15 to 20)
#    0.000    2.200    2.000    1.200    0.000    3.600 
#    0.000    1.000    0.000    1.800    0.000    0.000 
#    0.000    0.800    0.000   21.600    0.000    0.000 
#
# Total GULP energy -495760.855806 kJ/mol
# GULP energy per Si atom -12394.021395 kJ/mol
# Density = 1.824479 g / cm^3
# Si number density = 18.286411 Si / 1000 Ang^3
#
#
#
# Elastic Constant Matrix: (Units=GPa)
#
#
# Indices 1 2 3 4 5 6 
#
# 1 100.2584 50.0562 39.5875 0.0000 0.0000 0.0000
# 2 50.0562 120.5529 23.7280 0.0000 0.0000 0.0000
# 3 39.5875 23.7280 76.7705 0.0000 0.0000 0.0000
# 4 0.0000 0.0000 0.0000 -134.1798 0.0000 0.0000
# 5 0.0000 0.0000 0.0000 0.0000 27.8807 0.0000
# 6 0.0000 0.0000 0.0000 0.0000 0.0000 15.1701
#
#
#
# Elastic Compliance Matrix: (Units=1/GPa)
#
#
# Indices 1 2 3 4 5 6 
#
# 1 0.014879 -0.004970 -0.006136 0.000000 0.000000 0.000000
# 2 -0.004970 0.010493 -0.000680 0.000000 0.000000 0.000000
# 3 -0.006136 -0.000680 0.016400 0.000000 0.000000 0.000000
# 4 0.000000 0.000000 0.000000 -0.007453 0.000000 0.000000
# 5 0.000000 0.000000 0.000000 0.000000 0.035867 0.000000
# 6 0.000000 0.000000 0.000000 0.000000 0.000000 0.065919
#
#
# Mechanical properties :
#
#
# Convention : Reuss Voigt Hill
#
# Bulk Modulus (GPa) = 54.94919 58.25836 56.60378
# Shear Modulus (GPa) = 30.16697 -5.94513 12.11092
#
# Velocity S-wave (km/s) = 4.06605 -1.80504 2.57629
# Velocity P-wave (km/s) = 7.22206 5.25202 6.31434
#
# Compressibility (1/GPa) = 0.01819863
#
# Stress axis : x y z
#
# Youngs Moduli (GPa) = 67.21080 95.30435 60.97481
#
# Poissons Ratio (x) = 0.47368 0.37415
# Poissons Ratio (y) = 0.33405 0.04147
# Poissons Ratio (z) = 0.41241 0.06482
#
# Static dielectric constant tensor:
#      x y z
#    x 3.244370 0.000000 0.000000 
#    y 0.000000 3.826000 0.000000 
#    z 0.000000 0.000000 3.201760 
# 
# 
# High freq. dielectric constant tensor:
#      x y z
#    x 1.689350 0.000000 0.000000 
#    y 0.000000 1.713900 0.000000 
#    z 0.000000 0.000000 1.695380 
# 
# From -- ./inp_files/23104.got.cif
#   From: 2010.03.12/outbox.cif.g09.slc.cpg/sg69_12_cif.got.tgz:23104.got - 2010.04.10 23:52:46.
