data_PCOD8284095
_publ_section_title
;
Structure prediction by ZEFSAII (Michael W. Deem and Ramdas Pophale) SiO2 
 PCOD8284095
Probable space group: F M M M
;
_chemical_formula_sum "Si O2"
_cell_formula_units_Z 176
_cell_length_a 32.149378
_cell_length_b 28.104308
_cell_length_c 10.586251
_cell_angle_alpha 90.000000
_cell_angle_beta 90.000000
_cell_angle_gamma 90.000000
_cell_volume 9565.059109
_symmetry_space_group_name_H-M "F M M M"
_symmetry_group_IT_number 69
_symmetry_cell_setting 'orthorhombic'
loop_
_space_group_symop_operation_xyz
x,y,z
-x,-y,z
x,-y,-z
-x,y,-z
-x,-y,-z
x,y,-z
-x,y,z
x,-y,z
x,1/2+y,1/2+z
-x,1/2-y,1/2+z
x,1/2-y,1/2-z
-x,1/2+y,1/2-z
-x,1/2-y,1/2-z
x,1/2+y,1/2-z
-x,1/2+y,1/2+z
x,1/2-y,1/2+z
1/2+x,y,1/2+z
1/2-x,-y,1/2+z
1/2+x,-y,1/2-z
1/2-x,y,1/2-z
1/2-x,-y,1/2-z
1/2+x,y,1/2-z
1/2-x,y,1/2+z
1/2+x,-y,1/2+z
1/2+x,1/2+y,z
1/2-x,1/2-y,z
1/2+x,1/2-y,-z
1/2-x,1/2+y,-z
1/2-x,1/2-y,-z
1/2+x,1/2+y,-z
1/2-x,1/2+y,z
1/2+x,1/2-y,z
loop_
_atom_site_type_symbol
_atom_site_label
_atom_site_fract_x
_atom_site_fract_y
_atom_site_fract_z
Si Si1 0.453073 0.349510 0.500000
Si Si2 0.280843 0.132717 0.862947
Si Si3 0.593852 0.875272 0.744383
Si Si4 0.913275 0.244097 0.500000
Si Si5 0.345526 0.054425 0.146296
Si Si6 0.151012 0.795376 0.306989
Si Si7 0.950678 0.849017 0.000000
O O1 0.500000 0.368259 0.500000
O O2 0.430641 0.368011 0.625415
O O3 0.452390 0.292047 0.500000
O O4 0.250000 0.146494 0.750000
O O5 0.302385 0.082446 0.831207
O O6 0.315646 0.173510 0.882454
O O7 0.257779 0.129536 0.000000
O O8 0.618884 0.924591 0.761980
O O9 0.626597 0.832444 0.716284
O O10 0.563391 0.878268 0.624326
O O11 0.884510 0.232636 0.382002
O O12 0.931096 0.296788 0.500000
O O13 0.337910 0.000000 0.184239
O O14 0.359307 0.059837 0.000000
O O15 0.175836 0.750000 0.250000
O O16 0.000000 0.844924 0.000000
#
# Coordination Sequence:
#
# PCOD8284095 Si02
#       7
#    16  32  32  16  32  32  16
#     4  10  19  32  53  78 111 147 186 237 277 317
#     4  10  21  38  57  85 118 145 179 229 285 333
#     4  10  20  35  55  81 113 147 186 232 276 336
#     4  10  19  34  52  78 109 155 203 229 265 321
#     4   9  18  38  67  86 102 141 193 236 275 329
#     4  10  18  35  56  75 109 157 199 228 261 311
#     4  12  23  34  53  85 121 151 180 231 295 338
#
# _framework density 18.400304999999999
#
# number of rings (size 3 to 8) (size 9 to 14) (size 15 to 20)
#    0.000    2.000    3.636    0.818    0.000    0.727 
#    8.182    4.091    0.000    3.273    0.000    0.000 
#    0.000    0.000    0.000    0.000    0.000    0.000 
#
# Total GULP energy -545082.946305 kJ/mol
# GULP energy per Si atom -12388.248780 kJ/mol
# Density = 1.835842 g / cm^3
# Si number density = 18.400305 Si / 1000 Ang^3
#
#
#
# Elastic Constant Matrix: (Units=GPa)
#
#
# Indices 1 2 3 4 5 6 
#
# 1 80.8839 29.5382 43.4870 -0.0008 0.0005 0.0001
# 2 29.5382 99.8785 25.8132 -0.0023 0.0010 0.0004
# 3 43.4870 25.8132 110.4536 -0.0001 -0.0010 0.0000
# 4 -0.0008 -0.0023 -0.0001 16.3782 -0.0004 0.0002
# 5 0.0005 0.0010 -0.0010 -0.0004 6.3623 0.0002
# 6 0.0001 0.0004 0.0000 0.0002 0.0002 17.6397
#
#
#
# Elastic Compliance Matrix: (Units=1/GPa)
#
#
# Indices 1 2 3 4 5 6 
#
# 1 0.016733 -0.003455 -0.005781 0.000000 -0.000002 0.000000
# 2 -0.003455 0.011369 -0.001297 0.000001 -0.000002 0.000000
# 3 -0.005781 -0.001297 0.011633 0.000000 0.000003 0.000000
# 4 0.000000 0.000001 0.000000 0.061057 0.000004 -0.000001
# 5 -0.000002 -0.000002 0.000003 0.000004 0.157175 -0.000002
# 6 0.000000 0.000000 0.000000 -0.000001 -0.000002 0.056690
#
#
# Mechanical properties :
#
#
# Convention : Reuss Voigt Hill
#
# Bulk Modulus (GPa) = 53.56090 54.32142 53.94116
# Shear Modulus (GPa) = 14.62228 20.90122 17.76175
#
# Velocity S-wave (km/s) = 2.82206 3.37399 3.11029
# Velocity P-wave (km/s) = 6.30798 6.69063 6.50212
#
# Compressibility (1/GPa) = 0.01867033
#
# Stress axis : x y z
#
# Youngs Moduli (GPa) = 59.76232 87.95844 85.96559
#
# Poissons Ratio (x) = 0.30386 0.49694
# Poissons Ratio (y) = 0.20646 0.11148
# Poissons Ratio (z) = 0.34546 0.11407
#
# Static dielectric constant tensor:
#      x y z
#    x 3.192860 0.000000 0.000000 
#    y 0.000000 3.391920 0.000000 
#    z 0.000000 0.000000 3.364220 
# 
# 
# High freq. dielectric constant tensor:
#      x y z
#    x 1.696710 0.000000 0.000000 
#    y 0.000000 1.704850 0.000000 
#    z 0.000000 0.000000 1.706640 
# 
# From -- ./inp_files/11592.got.cif
#   From: 2010.03.12/outbox.cif.g09.slc.cpg/sg69_6_cif.got.tgz:11592.got - 2010.04.10 23:52:46.
