data_PCOD8284253
_publ_section_title
;
Structure prediction by ZEFSAII (Michael W. Deem and Ramdas Pophale) SiO2 
 PCOD8284253
Probable space group: F M M M
;
_chemical_formula_sum "Si O2"
_cell_formula_units_Z 128
_cell_length_a 26.335552
_cell_length_b 13.385705
_cell_length_c 20.357750
_cell_angle_alpha 90.000000
_cell_angle_beta 90.000000
_cell_angle_gamma 90.000000
_cell_volume 7176.512607
_symmetry_space_group_name_H-M "F M M M"
_symmetry_group_IT_number 69
_symmetry_cell_setting 'orthorhombic'
loop_
_space_group_symop_operation_xyz
x,y,z
-x,-y,z
x,-y,-z
-x,y,-z
-x,-y,-z
x,y,-z
-x,y,z
x,-y,z
x,1/2+y,1/2+z
-x,1/2-y,1/2+z
x,1/2-y,1/2-z
-x,1/2+y,1/2-z
-x,1/2-y,1/2-z
x,1/2+y,1/2-z
-x,1/2+y,1/2+z
x,1/2-y,1/2+z
1/2+x,y,1/2+z
1/2-x,-y,1/2+z
1/2+x,-y,1/2-z
1/2-x,y,1/2-z
1/2-x,-y,1/2-z
1/2+x,y,1/2-z
1/2-x,y,1/2+z
1/2+x,-y,1/2+z
1/2+x,1/2+y,z
1/2-x,1/2-y,z
1/2+x,1/2-y,-z
1/2-x,1/2+y,-z
1/2-x,1/2-y,-z
1/2+x,1/2+y,-z
1/2-x,1/2+y,z
1/2+x,1/2-y,z
loop_
_atom_site_type_symbol
_atom_site_label
_atom_site_fract_x
_atom_site_fract_y
_atom_site_fract_z
Si Si1 0.000000 0.618682 0.427081
Si Si2 0.217381 0.612690 0.184197
Si Si3 0.639967 0.750000 0.250000
Si Si4 0.602164 0.118169 0.641635
Si Si5 0.205328 0.618331 0.426796
O O1 0.949523 0.657015 0.391180
O O2 0.000000 0.500000 0.430087
O O3 0.000000 0.664008 0.500000
O O4 0.197301 0.500000 0.170214
O O5 0.250000 0.611648 0.250000
O O6 0.172102 0.690238 0.195045
O O7 0.250974 0.654256 0.123549
O O8 0.605325 0.829844 0.287531
O O9 0.649583 0.152063 0.596870
O O10 0.602049 0.000000 0.653297
O O11 0.215509 0.661741 0.500000
O O12 0.206351 0.500000 0.428326
#
# Coordination Sequence:
#
# PCOD8284253 Si02
#       5
#    16  32  16  32  32
#     4   9  18  35  56  74  97 128 160 204 263 309
#     4  10  19  32  49  70  99 136 172 201 238 293
#     4  12  21  31  50  72 104 135 166 199 246 296
#     4  10  20  33  51  74  98 127 164 206 251 302
#     4   9  17  30  48  70  97 128 164 206 245 285
#
# _framework density 17.835961000000001
#
# number of rings (size 3 to 8) (size 9 to 14) (size 15 to 20)
#    0.000    2.125    2.500    1.875    0.000    3.500 
#    0.000    3.750    0.000    0.000    0.000    0.000 
#    0.000    4.000    0.000    0.000    0.000    0.000 
#
# Total GULP energy -396712.818557 kJ/mol
# GULP energy per Si atom -12397.275580 kJ/mol
# Density = 1.779537 g / cm^3
# Si number density = 17.835961 Si / 1000 Ang^3
#
#
#
# Elastic Constant Matrix: (Units=GPa)
#
#
# Indices 1 2 3 4 5 6 
#
# 1 119.7505 31.9783 74.4717 0.0000 0.0000 0.0000
# 2 31.9783 53.0435 29.9999 0.0000 0.0000 0.0000
# 3 74.4717 29.9999 153.9649 0.0000 0.0000 0.0000
# 4 0.0000 0.0000 0.0000 0.2412 0.0000 0.0000
# 5 0.0000 0.0000 0.0000 0.0000 27.5105 0.0000
# 6 0.0000 0.0000 0.0000 0.0000 0.0000 1.5861
#
#
#
# Elastic Compliance Matrix: (Units=1/GPa)
#
#
# Indices 1 2 3 4 5 6 
#
# 1 0.012943 -0.004790 -0.005327 0.000000 0.000000 0.000000
# 2 -0.004790 0.022960 -0.002157 0.000000 0.000000 0.000000
# 3 -0.005327 -0.002157 0.009492 0.000000 0.000000 0.000000
# 4 0.000000 0.000000 0.000000 4.146782 0.000000 0.000000
# 5 0.000000 0.000000 0.000000 0.000000 0.036350 0.000000
# 6 0.000000 0.000000 0.000000 0.000000 0.000000 0.630478
#
#
# Mechanical properties :
#
#
# Convention : Reuss Voigt Hill
#
# Bulk Modulus (GPa) = 47.96855 66.62871 57.29863
# Shear Modulus (GPa) = 1.02239 18.55483 9.78861
#
# Velocity S-wave (km/s) = 0.75793 3.22887 2.34522
# Velocity P-wave (km/s) = 5.26485 7.16508 6.28717
#
# Compressibility (1/GPa) = 0.02084699
#
# Stress axis : x y z
#
# Youngs Moduli (GPa) = 77.26454 43.55399 105.35371
#
# Poissons Ratio (x) = 0.20862 0.56121
# Poissons Ratio (y) = 0.37009 0.22724
# Poissons Ratio (z) = 0.41158 0.09394
#
# Static dielectric constant tensor:
#      x y z
#    x 3.239920 0.000000 0.000000 
#    y 0.000000 3.256000 0.000000 
#    z 0.000000 0.000000 3.606590 
# 
# 
# High freq. dielectric constant tensor:
#      x y z
#    x 1.666760 0.000000 0.000000 
#    y 0.000000 1.674820 0.000000 
#    z 0.000000 0.000000 1.693760 
# 
# From -- ./inp_files/18655.got.cif
#   From: 2010.03.12/outbox.cif.g09.slc.cpg/sg69_10_cif.got.tgz:18655.got - 2010.04.10 23:52:46.
