data_PCOD8284493
_publ_section_title
;
Structure prediction by ZEFSAII (Michael W. Deem and Ramdas Pophale) SiO2 
 PCOD8284493
Probable space group: F M M M
;
_chemical_formula_sum "Si O2"
_cell_formula_units_Z 176
_cell_length_a 16.947661
_cell_length_b 28.973082
_cell_length_c 18.741932
_cell_angle_alpha 90.000000
_cell_angle_beta 90.000000
_cell_angle_gamma 90.000000
_cell_volume 9202.775375
_symmetry_space_group_name_H-M "F M M M"
_symmetry_group_IT_number 69
_symmetry_cell_setting 'orthorhombic'
loop_
_space_group_symop_operation_xyz
x,y,z
-x,-y,z
x,-y,-z
-x,y,-z
-x,-y,-z
x,y,-z
-x,y,z
x,-y,z
x,1/2+y,1/2+z
-x,1/2-y,1/2+z
x,1/2-y,1/2-z
-x,1/2+y,1/2-z
-x,1/2-y,1/2-z
x,1/2+y,1/2-z
-x,1/2+y,1/2+z
x,1/2-y,1/2+z
1/2+x,y,1/2+z
1/2-x,-y,1/2+z
1/2+x,-y,1/2-z
1/2-x,y,1/2-z
1/2-x,-y,1/2-z
1/2+x,y,1/2-z
1/2-x,y,1/2+z
1/2+x,-y,1/2+z
1/2+x,1/2+y,z
1/2-x,1/2-y,z
1/2+x,1/2-y,-z
1/2-x,1/2+y,-z
1/2-x,1/2-y,-z
1/2+x,1/2+y,-z
1/2-x,1/2+y,z
1/2+x,1/2-y,z
loop_
_atom_site_type_symbol
_atom_site_label
_atom_site_fract_x
_atom_site_fract_y
_atom_site_fract_z
Si Si1 0.087515 0.577544 0.000000
Si Si2 0.841324 0.134258 0.258769
Si Si3 0.090757 0.313095 0.367982
Si Si4 0.407280 0.051822 0.848008
Si Si5 0.587961 0.288394 0.651554
Si Si6 0.127110 0.820340 0.500000
Si Si7 0.794783 0.700151 0.500000
O O1 0.130391 0.560739 0.927085
O O2 0.078980 0.632607 0.000000
O O3 0.000000 0.555857 0.000000
O O4 0.750000 0.125942 0.250000
O O5 0.884773 0.145270 0.184258
O O6 0.875012 0.087042 0.289919
O O7 0.850516 0.177477 0.311940
O O8 0.097671 0.264837 0.323929
O O9 0.151707 0.310783 0.432361
O O10 0.000000 0.320267 0.393895
O O11 0.500000 0.060198 0.853319
O O12 0.386281 0.000000 0.823150
O O13 0.500000 0.306309 0.669827
O O14 0.602824 0.288727 0.566774
O O15 0.220010 0.834367 0.500000
O O16 0.750000 0.750000 0.500000
#
# Coordination Sequence:
#
# PCOD8284493 Si02
#       7
#    16  32  32  32  32  16  16
#     4  10  19  34  61  92 122 151 187 236 297 365
#     4  12  25  37  57  84 120 159 200 248 299 350
#     4  11  24  40  58  82 117 163 207 247 294 355
#     4  10  21  39  63  91 121 154 194 241 300 368
#     4  11  21  36  56  83 117 157 199 242 290 351
#     4  12  20  31  57  88 120 153 192 241 294 350
#     4  12  23  38  58  83 116 151 202 255 302 351
#
# _framework density 19.124666000000001
#
# number of rings (size 3 to 8) (size 9 to 14) (size 15 to 20)
#    0.000    0.909    3.636    4.636    0.000    5.091 
#    0.000    0.000    0.000    0.000    0.000    0.636 
#    0.000    2.909    0.000    0.000    0.000    0.000 
#
# Total GULP energy -545543.931327 kJ/mol
# GULP energy per Si atom -12398.725712 kJ/mol
# Density = 1.908114 g / cm^3
# Si number density = 19.124666 Si / 1000 Ang^3
#
#
#
# Elastic Constant Matrix: (Units=GPa)
#
#
# Indices 1 2 3 4 5 6 
#
# 1 93.8463 42.7854 37.2284 0.0000 0.0000 0.0000
# 2 42.7854 113.2521 54.5627 0.0000 0.0000 0.0000
# 3 37.2284 54.5627 103.8380 0.0000 0.0000 0.0000
# 4 0.0000 0.0000 0.0000 24.4952 0.0000 0.0000
# 5 0.0000 0.0000 0.0000 0.0000 31.4330 0.0000
# 6 0.0000 0.0000 0.0000 0.0000 0.0000 17.1854
#
#
#
# Elastic Compliance Matrix: (Units=1/GPa)
#
#
# Indices 1 2 3 4 5 6 
#
# 1 0.013491 -0.003704 -0.002890 0.000000 0.000000 0.000000
# 2 -0.003704 0.012840 -0.005419 0.000000 0.000000 0.000000
# 3 -0.002890 -0.005419 0.013514 0.000000 0.000000 0.000000
# 4 0.000000 0.000000 0.000000 0.040824 0.000000 0.000000
# 5 0.000000 0.000000 0.000000 0.000000 0.031814 0.000000
# 6 0.000000 0.000000 0.000000 0.000000 0.000000 0.058189
#
#
# Mechanical properties :
#
#
# Convention : Reuss Voigt Hill
#
# Bulk Modulus (GPa) = 63.21868 64.45438 63.83653
# Shear Modulus (GPa) = 25.00351 26.38004 25.69178
#
# Velocity S-wave (km/s) = 3.61972 3.71802 3.66920
# Velocity P-wave (km/s) = 7.11320 7.22544 7.16954
#
# Compressibility (1/GPa) = 0.01581811
#
# Stress axis : x y z
#
# Youngs Moduli (GPa) = 74.12263 77.88176 73.99691
#
# Poissons Ratio (x) = 0.28849 0.21389
# Poissons Ratio (y) = 0.27457 0.40098
# Poissons Ratio (z) = 0.21425 0.42203
#
# Static dielectric constant tensor:
#      x y z
#    x 3.633950 0.000000 0.000000 
#    y 0.000000 3.347870 0.000000 
#    z 0.000000 0.000000 3.615370 
# 
# 
# High freq. dielectric constant tensor:
#      x y z
#    x 1.738260 0.000000 0.000000 
#    y 0.000000 1.722760 0.000000 
#    z 0.000000 0.000000 1.750230 
# 
# From -- ./inp_files/23308.got.cif
#   From: 2010.03.12/outbox.cif.g09.slc.cpg/sg69_12_cif.got.tgz:23308.got - 2010.04.10 23:52:46.
