data_PCOD8284178
_publ_section_title
;
Structure prediction by ZEFSAII (Michael W. Deem and Ramdas Pophale) SiO2 
 PCOD8284178
Probable space group: F M M M
;
_chemical_formula_sum "Si O2"
_cell_formula_units_Z 128
_cell_length_a 9.743321
_cell_length_b 27.440688
_cell_length_c 29.183313
_cell_angle_alpha 90.000000
_cell_angle_beta 90.000000
_cell_angle_gamma 90.000000
_cell_volume 7802.550710
_symmetry_space_group_name_H-M "F M M M"
_symmetry_group_IT_number 69
_symmetry_cell_setting 'orthorhombic'
loop_
_space_group_symop_operation_xyz
x,y,z
-x,-y,z
x,-y,-z
-x,y,-z
-x,-y,-z
x,y,-z
-x,y,z
x,-y,z
x,1/2+y,1/2+z
-x,1/2-y,1/2+z
x,1/2-y,1/2-z
-x,1/2+y,1/2-z
-x,1/2-y,1/2-z
x,1/2+y,1/2-z
-x,1/2+y,1/2+z
x,1/2-y,1/2+z
1/2+x,y,1/2+z
1/2-x,-y,1/2+z
1/2+x,-y,1/2-z
1/2-x,y,1/2-z
1/2-x,-y,1/2-z
1/2+x,y,1/2-z
1/2-x,y,1/2+z
1/2+x,-y,1/2+z
1/2+x,1/2+y,z
1/2-x,1/2-y,z
1/2+x,1/2-y,-z
1/2-x,1/2+y,-z
1/2-x,1/2-y,-z
1/2+x,1/2+y,-z
1/2-x,1/2+y,z
1/2+x,1/2-y,z
loop_
_atom_site_type_symbol
_atom_site_label
_atom_site_fract_x
_atom_site_fract_y
_atom_site_fract_z
Si Si1 0.000000 0.679400 0.445832
Si Si2 0.342839 0.442075 0.208412
Si Si3 0.500000 0.212587 0.945989
Si Si4 0.280926 0.635341 0.553984
Si Si5 0.155143 0.944190 0.625027
O O1 0.000000 0.733573 0.423287
O O2 0.128269 0.647613 0.429983
O O3 0.000000 0.686261 0.500000
O O4 0.500000 0.421618 0.209770
O O5 0.347502 0.500000 0.211440
O O6 0.250000 0.421273 0.250000
O O7 0.265439 0.425416 0.162171
O O8 0.632772 0.182435 0.930383
O O9 0.500000 0.218995 0.000000
O O10 0.296032 0.625491 0.500000
O O11 0.331279 0.586886 0.578935
O O12 0.000000 0.939138 0.644824
O O13 0.185768 0.000000 0.611757
#
# Coordination Sequence:
#
# PCOD8284178 Si02
#       5
#    16  32  16  32  32
#     4   9  18  30  47  67  90 119 155 205 255 286
#     4   9  17  30  49  70  92 119 153 195 240 280
#     4   9  16  30  49  67  88 119 159 203 247 282
#     4  10  19  31  46  68  96 128 164 198 233 278
#     4  10  20  32  46  66  96 132 165 195 227 272
#
# _framework density 16.404892
#
# number of rings (size 3 to 8) (size 9 to 14) (size 15 to 20)
#    0.000    2.500    1.250    1.500    1.750    6.500 
#    0.000    1.250    0.000    2.250    0.000    0.000 
#    0.000    6.000    0.000    0.000    0.000    0.000 
#
# Total GULP energy -396652.489936 kJ/mol
# GULP energy per Si atom -12395.390310 kJ/mol
# Density = 1.636755 g / cm^3
# Si number density = 16.404892 Si / 1000 Ang^3
#
#
#
# Elastic Constant Matrix: (Units=GPa)
#
#
# Indices 1 2 3 4 5 6 
#
# 1 134.6413 25.3623 34.4093 0.0000 0.0000 0.0000
# 2 25.3623 59.2121 29.6091 0.0000 0.0000 0.0000
# 3 34.4093 29.6091 61.0352 0.0000 0.0000 0.0000
# 4 0.0000 0.0000 0.0000 3.2712 0.0000 0.0000
# 5 0.0000 0.0000 0.0000 0.0000 22.3647 0.0000
# 6 0.0000 0.0000 0.0000 0.0000 0.0000 12.8724
#
#
#
# Elastic Compliance Matrix: (Units=1/GPa)
#
#
# Indices 1 2 3 4 5 6 
#
# 1 0.008805 -0.001702 -0.004138 0.000000 0.000000 0.000000
# 2 -0.001702 0.022626 -0.010017 0.000000 0.000000 0.000000
# 3 -0.004138 -0.010017 0.023576 0.000000 0.000000 0.000000
# 4 0.000000 0.000000 0.000000 0.305694 0.000000 0.000000
# 5 0.000000 0.000000 0.000000 0.000000 0.044713 0.000000
# 6 0.000000 0.000000 0.000000 0.000000 0.000000 0.077685
#
#
# Mechanical properties :
#
#
# Convention : Reuss Voigt Hill
#
# Bulk Modulus (GPa) = 42.93055 48.18332 45.55694
# Shear Modulus (GPa) = 9.56790 18.73553 14.15171
#
# Velocity S-wave (km/s) = 2.41764 3.38312 2.94028
# Velocity P-wave (km/s) = 5.83262 6.68549 6.27357
#
# Compressibility (1/GPa) = 0.02329343
#
# Stress axis : x y z
#
# Youngs Moduli (GPa) = 113.56665 44.19598 42.41534
#
# Poissons Ratio (x) = 0.07523 0.17553
# Poissons Ratio (y) = 0.19331 0.42487
# Poissons Ratio (z) = 0.46998 0.44270
#
# Static dielectric constant tensor:
#      x y z
#    x 3.474160 0.000000 0.000000 
#    y 0.000000 2.872660 0.000000 
#    z 0.000000 0.000000 2.788230 
# 
# 
# High freq. dielectric constant tensor:
#      x y z
#    x 1.657180 0.000000 0.000000 
#    y 0.000000 1.600770 0.000000 
#    z 0.000000 0.000000 1.593820 
# 
# From -- ./inp_files/4785.got.cif
#   From: 2010.03.12/outbox.cif.g09.slc.cpg/sg69_3_cif.got.tgz:4785.got - 2010.04.10 23:52:46.
