data_PCOD8284702
_publ_section_title
;
Structure prediction by ZEFSAII (Michael W. Deem and Ramdas Pophale) SiO2 
 PCOD8284702
Probable space group: F M M M
;
_chemical_formula_sum "Si O2"
_cell_formula_units_Z 160
_cell_length_a 25.027285
_cell_length_b 19.735525
_cell_length_c 18.877715
_cell_angle_alpha 90.000000
_cell_angle_beta 90.000000
_cell_angle_gamma 90.000000
_cell_volume 9324.205752
_symmetry_space_group_name_H-M "F M M M"
_symmetry_group_IT_number 69
_symmetry_cell_setting 'orthorhombic'
loop_
_space_group_symop_operation_xyz
x,y,z
-x,-y,z
x,-y,-z
-x,y,-z
-x,-y,-z
x,y,-z
-x,y,z
x,-y,z
x,1/2+y,1/2+z
-x,1/2-y,1/2+z
x,1/2-y,1/2-z
-x,1/2+y,1/2-z
-x,1/2-y,1/2-z
x,1/2+y,1/2-z
-x,1/2+y,1/2+z
x,1/2-y,1/2+z
1/2+x,y,1/2+z
1/2-x,-y,1/2+z
1/2+x,-y,1/2-z
1/2-x,y,1/2-z
1/2-x,-y,1/2-z
1/2+x,y,1/2-z
1/2-x,y,1/2+z
1/2+x,-y,1/2+z
1/2+x,1/2+y,z
1/2-x,1/2-y,z
1/2+x,1/2-y,-z
1/2-x,1/2+y,-z
1/2-x,1/2-y,-z
1/2+x,1/2+y,-z
1/2-x,1/2+y,z
1/2+x,1/2-y,z
loop_
_atom_site_type_symbol
_atom_site_label
_atom_site_fract_x
_atom_site_fract_y
_atom_site_fract_z
Si Si1 0.088066 0.702250 0.582173
Si Si2 0.000000 0.222060 0.330777
Si Si3 0.907844 0.424790 0.327277
Si Si4 0.289745 0.193914 0.581628
Si Si5 0.000000 0.076525 0.716661
Si Si6 0.287171 0.922821 0.313976
O O1 0.071297 0.707140 0.500000
O O2 0.052857 0.752917 0.628911
O O3 0.078787 0.625494 0.608407
O O4 0.150085 0.720664 0.593894
O O5 0.000000 0.250000 0.250000
O O6 0.000000 0.139781 0.337514
O O7 0.913803 0.500000 0.359612
O O8 0.849296 0.414317 0.293206
O O9 0.947758 0.413176 0.263324
O O10 0.278091 0.180433 0.500000
O O11 0.250000 0.250000 0.613163
O O12 0.275973 0.123068 0.618192
O O13 0.000000 0.000000 0.682064
O O14 0.250000 0.897610 0.250000
O O15 0.273022 0.000000 0.334282
#
# Coordination Sequence:
#
# PCOD8284702 Si02
#       6
#    32  16  32  32  16  32
#     4  10  20  34  53  76 103 134 168 210 259 305
#     4  12  21  34  53  78 105 133 170 209 249 304
#     4   9  17  31  50  74 104 133 163 200 253 313
#     4   9  19  35  51  72 102 134 169 210 256 303
#     4  10  20  34  50  70 101 137 166 204 251 293
#     4   9  18  31  48  73 102 131 168 209 248 299
#
# _framework density 17.159638000000001
#
# number of rings (size 3 to 8) (size 9 to 14) (size 15 to 20)
#    0.000    2.400    2.000    0.300    0.000    2.800 
#    0.000    4.000    0.000    4.200    0.000    2.800 
#    0.000    0.000    0.000    0.000    0.000    0.600 
#
# Total GULP energy -495866.035379 kJ/mol
# GULP energy per Si atom -12396.650884 kJ/mol
# Density = 1.712058 g / cm^3
# Si number density = 17.159638 Si / 1000 Ang^3
#
#
#
# Elastic Constant Matrix: (Units=GPa)
#
#
# Indices 1 2 3 4 5 6 
#
# 1 92.4101 62.0388 49.7052 0.0000 0.0000 0.0000
# 2 62.0388 127.6406 60.2365 0.0000 0.0000 0.0000
# 3 49.7052 60.2365 86.6351 0.0000 0.0000 0.0000
# 4 0.0000 0.0000 0.0000 29.6967 0.0000 0.0000
# 5 0.0000 0.0000 0.0000 0.0000 28.7142 0.0000
# 6 0.0000 0.0000 0.0000 0.0000 0.0000 28.4042
#
#
#
# Elastic Compliance Matrix: (Units=1/GPa)
#
#
# Indices 1 2 3 4 5 6 
#
# 1 0.018153 -0.005817 -0.006371 0.000000 0.000000 0.000000
# 2 -0.005817 0.013524 -0.006066 0.000000 0.000000 0.000000
# 3 -0.006371 -0.006066 0.019415 0.000000 0.000000 0.000000
# 4 0.000000 0.000000 0.000000 0.033674 0.000000 0.000000
# 5 0.000000 0.000000 0.000000 0.000000 0.034826 0.000000
# 6 0.000000 0.000000 0.000000 0.000000 0.000000 0.035206
#
#
# Mechanical properties :
#
#
# Convention : Reuss Voigt Hill
#
# Bulk Modulus (GPa) = 68.55968 72.29410 70.42689
# Shear Modulus (GPa) = 25.48845 26.34339 25.91592
#
# Velocity S-wave (km/s) = 3.85823 3.92241 3.89045
# Velocity P-wave (km/s) = 7.73878 7.92057 7.83020
#
# Compressibility (1/GPa) = 0.01458583
#
# Stress axis : x y z
#
# Youngs Moduli (GPa) = 55.08773 73.94035 51.50540
#
# Poissons Ratio (x) = 0.43008 0.32812
# Poissons Ratio (y) = 0.32043 0.31244
# Poissons Ratio (z) = 0.35094 0.44854
#
# Static dielectric constant tensor:
#      x y z
#    x 3.438300 0.000000 0.000000 
#    y 0.000000 3.379860 0.000000 
#    z 0.000000 0.000000 2.996460 
# 
# 
# High freq. dielectric constant tensor:
#      x y z
#    x 1.677600 0.000000 0.000000 
#    y 0.000000 1.665900 0.000000 
#    z 0.000000 0.000000 1.635290 
# 
# From -- ./inp_files/19603.got.cif
#   From: 2010.03.12/outbox.cif.g09.slc.cpg/sg69_10_cif.got.tgz:19603.got - 2010.04.10 23:52:46.
