data_PCOD8284539
_publ_section_title
;
Structure prediction by ZEFSAII (Michael W. Deem and Ramdas Pophale) SiO2 
 PCOD8284539
Probable space group: F M M M
;
_chemical_formula_sum "Si O2"
_cell_formula_units_Z 144
_cell_length_a 16.996795
_cell_length_b 14.737346
_cell_length_c 30.520536
_cell_angle_alpha 90.000000
_cell_angle_beta 90.000000
_cell_angle_gamma 90.000000
_cell_volume 7645.017303
_symmetry_space_group_name_H-M "F M M M"
_symmetry_group_IT_number 69
_symmetry_cell_setting 'orthorhombic'
loop_
_space_group_symop_operation_xyz
x,y,z
-x,-y,z
x,-y,-z
-x,y,-z
-x,-y,-z
x,y,-z
-x,y,z
x,-y,z
x,1/2+y,1/2+z
-x,1/2-y,1/2+z
x,1/2-y,1/2-z
-x,1/2+y,1/2-z
-x,1/2-y,1/2-z
x,1/2+y,1/2-z
-x,1/2+y,1/2+z
x,1/2-y,1/2+z
1/2+x,y,1/2+z
1/2-x,-y,1/2+z
1/2+x,-y,1/2-z
1/2-x,y,1/2-z
1/2-x,-y,1/2-z
1/2+x,y,1/2-z
1/2-x,y,1/2+z
1/2+x,-y,1/2+z
1/2+x,1/2+y,z
1/2-x,1/2-y,z
1/2+x,1/2-y,-z
1/2-x,1/2+y,-z
1/2-x,1/2-y,-z
1/2+x,1/2+y,-z
1/2-x,1/2+y,z
1/2+x,1/2-y,z
loop_
_atom_site_type_symbol
_atom_site_label
_atom_site_fract_x
_atom_site_fract_y
_atom_site_fract_z
Si Si1 0.909774 0.306689 0.450749
Si Si2 0.089392 0.500000 0.408407
Si Si3 0.323363 0.191695 0.878466
Si Si4 0.258718 0.000000 0.874009
Si Si5 0.174037 0.500000 0.778365
Si Si6 0.907434 0.818920 0.713496
O O1 0.877351 0.295055 0.500000
O O2 0.899747 0.411741 0.438138
O O3 0.863201 0.238654 0.419819
O O4 0.000000 0.277501 0.447911
O O5 0.162551 0.500000 0.374137
O O6 0.000000 0.500000 0.386964
O O7 0.250000 0.250000 0.862709
O O8 0.379305 0.194952 0.836250
O O9 0.295594 0.091652 0.895058
O O10 0.289335 0.000000 0.825624
O O11 0.250000 0.500000 0.750000
O O12 0.118720 0.415564 0.768582
O O13 0.872808 0.750000 0.750000
O O14 0.000000 0.810851 0.711821
#
# Coordination Sequence:
#
# PCOD8284539 Si02
#       6
#    32  16  32  16  16  32
#     4  10  21  38  60  87 119 156 195 239 294 349
#     4  10  19  36  59  85 119 152 190 240 292 348
#     4  11  22  38  62  85 121 152 196 242 293 346
#     4  10  22  40  54  90 114 153 194 235 296 346
#     4  10  23  37  61  83 119 156 191 239 295 341
#     4  10  23  40  61  88 117 154 196 239 291 351
#
# _framework density 18.835796999999999
#
# number of rings (size 3 to 8) (size 9 to 14) (size 15 to 20)
#    0.000    1.778    2.222    1.333    6.222    1.778 
#    0.000    3.333    0.000    1.333    0.000    0.000 
#    0.000    0.000    0.000    0.000    0.000    0.000 
#
# Total GULP energy -446157.333882 kJ/mol
# GULP energy per Si atom -12393.259274 kJ/mol
# Density = 1.879293 g / cm^3
# Si number density = 18.835797 Si / 1000 Ang^3
#
#
#
# Elastic Constant Matrix: (Units=GPa)
#
#
# Indices 1 2 3 4 5 6 
#
# 1 92.0708 56.0442 37.0110 0.0000 0.0000 0.0000
# 2 56.0442 164.2632 62.9786 0.0000 0.0000 0.0000
# 3 37.0110 62.9786 57.6418 0.0000 0.0000 0.0000
# 4 0.0000 0.0000 0.0000 25.6098 0.0000 0.0000
# 5 0.0000 0.0000 0.0000 0.0000 29.6838 0.0000
# 6 0.0000 0.0000 0.0000 0.0000 0.0000 98.2989
#
#
#
# Elastic Compliance Matrix: (Units=1/GPa)
#
#
# Indices 1 2 3 4 5 6 
#
# 1 0.015208 -0.002486 -0.007048 0.000000 0.000000 0.000000
# 2 -0.002486 0.010883 -0.010294 0.000000 0.000000 0.000000
# 3 -0.007048 -0.010294 0.033121 0.000000 0.000000 0.000000
# 4 0.000000 0.000000 0.000000 0.039048 0.000000 0.000000
# 5 0.000000 0.000000 0.000000 0.000000 0.033688 0.000000
# 6 0.000000 0.000000 0.000000 0.000000 0.000000 0.010173
#
#
# Mechanical properties :
#
#
# Convention : Reuss Voigt Hill
#
# Bulk Modulus (GPa) = 51.13842 69.56038 60.34940
# Shear Modulus (GPa) = 26.55392 41.24795 33.90093
#
# Velocity S-wave (km/s) = 3.75875 4.68468 4.24702
# Velocity P-wave (km/s) = 6.78573 8.14074 7.49392
#
# Compressibility (1/GPa) = 0.01955477
#
# Stress axis : x y z
#
# Youngs Moduli (GPa) = 65.75485 91.88806 30.19236
#
# Poissons Ratio (x) = 0.22848 0.21280
# Poissons Ratio (y) = 0.16350 0.31080
# Poissons Ratio (z) = 0.46345 0.94588
#
# Static dielectric constant tensor:
#      x y z
#    x 3.630360 0.000000 0.000000 
#    y 0.000000 4.246510 0.000000 
#    z 0.000000 0.000000 3.314710 
# 
# 
# High freq. dielectric constant tensor:
#      x y z
#    x 1.743230 0.000000 0.000000 
#    y 0.000000 1.746360 0.000000 
#    z 0.000000 0.000000 1.721430 
# 
# From -- ./inp_files/46204.got.cif
#   From: 2010.03.12/outbox.cif.g09.slc.cpg/sg69_24_cif.got.tgz:46204.got - 2010.04.10 23:52:46.
