data_PCOD8284788
_publ_section_title
;
Structure prediction by ZEFSAII (Michael W. Deem and Ramdas Pophale) SiO2 
 PCOD8284788
Probable space group: F M M M
;
_chemical_formula_sum "Si O2"
_cell_formula_units_Z 208
_cell_length_a 26.480849
_cell_length_b 25.185574
_cell_length_c 17.116140
_cell_angle_alpha 90.000000
_cell_angle_beta 90.000000
_cell_angle_gamma 90.000000
_cell_volume 11415.359371
_symmetry_space_group_name_H-M "F M M M"
_symmetry_group_IT_number 69
_symmetry_cell_setting 'orthorhombic'
loop_
_space_group_symop_operation_xyz
x,y,z
-x,-y,z
x,-y,-z
-x,y,-z
-x,-y,-z
x,y,-z
-x,y,z
x,-y,z
x,1/2+y,1/2+z
-x,1/2-y,1/2+z
x,1/2-y,1/2-z
-x,1/2+y,1/2-z
-x,1/2-y,1/2-z
x,1/2+y,1/2-z
-x,1/2+y,1/2+z
x,1/2-y,1/2+z
1/2+x,y,1/2+z
1/2-x,-y,1/2+z
1/2+x,-y,1/2-z
1/2-x,y,1/2-z
1/2-x,-y,1/2-z
1/2+x,y,1/2-z
1/2-x,y,1/2+z
1/2+x,-y,1/2+z
1/2+x,1/2+y,z
1/2-x,1/2-y,z
1/2+x,1/2-y,-z
1/2-x,1/2+y,-z
1/2-x,1/2-y,-z
1/2+x,1/2+y,-z
1/2-x,1/2+y,z
1/2+x,1/2-y,z
loop_
_atom_site_type_symbol
_atom_site_label
_atom_site_fract_x
_atom_site_fract_y
_atom_site_fract_z
Si Si1 0.059353 0.500000 0.410236
Si Si2 0.303589 0.060271 0.790080
Si Si3 0.829104 0.174257 0.909749
Si Si4 0.221766 0.857185 0.412680
Si Si5 0.629527 0.782281 0.911957
Si Si6 0.107745 0.902121 0.822200
Si Si7 0.558096 0.810064 0.220326
O O1 0.081517 0.500000 0.500000
O O2 0.074610 0.448534 0.359839
O O3 0.000000 0.500000 0.416927
O O4 0.250000 0.070210 0.750000
O O5 0.304828 0.095142 0.867493
O O6 0.350679 0.074752 0.736070
O O7 0.309465 0.000000 0.816887
O O8 0.773758 0.163546 0.872421
O O9 0.858583 0.224728 0.873318
O O10 0.863376 0.123097 0.895652
O O11 0.821740 0.186834 0.000000
O O12 0.233595 0.878031 0.500000
O O13 0.183906 0.808716 0.414044
O O14 0.590329 0.815041 0.859181
O O15 0.606846 0.778428 0.000000
O O16 0.074788 0.856189 0.780503
O O17 0.500000 0.820753 0.199687
O O18 0.565364 0.750000 0.250000
#
# Coordination Sequence:
#
# PCOD8284788 Si02
#       7
#    16  32  32  32  32  32  32
#     4  11  26  46  65  88 115 151 202 251 302 358
#     4  11  22  36  55  83 113 147 189 235 282 344
#     4  10  20  34  55  86 118 149 187 227 279 348
#     4  10  20  35  56  83 116 153 188 226 279 343
#     4  10  20  36  57  82 116 153 189 232 285 345
#     4  12  21  39  62  84 114 154 191 241 293 348
#     4  11  23  38  58  84 112 147 197 248 297 352
#
# _framework density 18.221064999999999
#
# number of rings (size 3 to 8) (size 9 to 14) (size 15 to 20)
#    0.000    1.308    5.385    1.385    0.000    2.462 
#    0.000    0.000    0.000    0.000    0.000    0.000 
#    0.000    4.923    0.000    0.000    0.000    0.000 
#
# Total GULP energy -644549.573095 kJ/mol
# GULP energy per Si atom -12395.184098 kJ/mol
# Density = 1.817959 g / cm^3
# Si number density = 18.221065 Si / 1000 Ang^3
#
#
#
# Elastic Constant Matrix: (Units=GPa)
#
#
# Indices 1 2 3 4 5 6 
#
# 1 105.2697 34.4753 38.7626 0.0000 0.0000 0.0000
# 2 34.4753 104.0124 49.8094 0.0000 0.0000 0.0000
# 3 38.7626 49.8094 74.9314 0.0000 0.0000 0.0000
# 4 0.0000 0.0000 0.0000 22.1348 0.0000 0.0000
# 5 0.0000 0.0000 0.0000 0.0000 26.7625 0.0000
# 6 0.0000 0.0000 0.0000 0.0000 0.0000 28.8533
#
#
#
# Elastic Compliance Matrix: (Units=1/GPa)
#
#
# Indices 1 2 3 4 5 6 
#
# 1 0.011884 -0.001460 -0.005177 0.000000 0.000000 0.000000
# 2 -0.001460 0.014283 -0.008739 0.000000 0.000000 0.000000
# 3 -0.005177 -0.008739 0.021833 0.000000 0.000000 0.000000
# 4 0.000000 0.000000 0.000000 0.045178 0.000000 0.000000
# 5 0.000000 0.000000 0.000000 0.000000 0.037366 0.000000
# 6 0.000000 0.000000 0.000000 0.000000 0.000000 0.034658
#
#
# Mechanical properties :
#
#
# Convention : Reuss Voigt Hill
#
# Bulk Modulus (GPa) = 57.97965 58.92314 58.45139
# Shear Modulus (GPa) = 24.78884 26.29453 25.54168
#
# Velocity S-wave (km/s) = 3.69243 3.80292 3.74808
# Velocity P-wave (km/s) = 7.07587 7.18965 7.13298
#
# Compressibility (1/GPa) = 0.01724743
#
# Stress axis : x y z
#
# Youngs Moduli (GPa) = 84.14787 70.01246 45.80176
#
# Poissons Ratio (x) = 0.10219 0.23713
# Poissons Ratio (y) = 0.12282 0.40028
# Poissons Ratio (z) = 0.43566 0.61187
#
# Static dielectric constant tensor:
#      x y z
#    x 3.377450 0.000000 0.000000 
#    y 0.000000 3.442680 0.000000 
#    z 0.000000 0.000000 3.329430 
# 
# 
# High freq. dielectric constant tensor:
#      x y z
#    x 1.708910 0.000000 0.000000 
#    y 0.000000 1.712520 0.000000 
#    z 0.000000 0.000000 1.698470 
# 
# From -- ./inp_files/26086.got.cif
#   From: 2010.03.12/outbox.cif.g09.slc.cpg/sg69_14_cif.got.tgz:26086.got - 2010.04.10 23:52:46.
