data_PCOD8284504
_publ_section_title
;
Structure prediction by ZEFSAII (Michael W. Deem and Ramdas Pophale) SiO2 
 PCOD8284504
Probable space group: F M M M
;
_chemical_formula_sum "Si O2"
_cell_formula_units_Z 144
_cell_length_a 27.609763
_cell_length_b 16.780628
_cell_length_c 16.093319
_cell_angle_alpha 90.000000
_cell_angle_beta 90.000000
_cell_angle_gamma 90.000000
_cell_volume 7456.182141
_symmetry_space_group_name_H-M "F M M M"
_symmetry_group_IT_number 69
_symmetry_cell_setting 'orthorhombic'
loop_
_space_group_symop_operation_xyz
x,y,z
-x,-y,z
x,-y,-z
-x,y,-z
-x,-y,-z
x,y,-z
-x,y,z
x,-y,z
x,1/2+y,1/2+z
-x,1/2-y,1/2+z
x,1/2-y,1/2-z
-x,1/2+y,1/2-z
-x,1/2-y,1/2-z
x,1/2+y,1/2-z
-x,1/2+y,1/2+z
x,1/2-y,1/2+z
1/2+x,y,1/2+z
1/2-x,-y,1/2+z
1/2+x,-y,1/2-z
1/2-x,y,1/2-z
1/2-x,-y,1/2-z
1/2+x,y,1/2-z
1/2-x,y,1/2+z
1/2+x,-y,1/2+z
1/2+x,1/2+y,z
1/2-x,1/2-y,z
1/2+x,1/2-y,-z
1/2-x,1/2+y,-z
1/2-x,1/2-y,-z
1/2+x,1/2+y,-z
1/2-x,1/2+y,z
1/2+x,1/2-y,z
loop_
_atom_site_type_symbol
_atom_site_label
_atom_site_fract_x
_atom_site_fract_y
_atom_site_fract_z
Si Si1 0.697483 0.266223 0.346721
Si Si2 0.392134 0.830490 0.353950
Si Si3 0.053486 0.591637 0.500000
Si Si4 0.867152 0.407805 0.178963
Si Si5 0.444957 0.818479 0.903952
O O1 0.700931 0.250000 0.250000
O O2 0.750000 0.250000 0.388706
O O3 0.659232 0.204534 0.386983
O O4 0.678883 0.357612 0.356417
O O5 0.415148 0.890265 0.419143
O O6 0.384853 0.876710 0.268341
O O7 0.427768 0.754261 0.344866
O O8 0.042394 0.500000 0.500000
O O9 0.000000 0.635200 0.500000
O O10 0.851976 0.500000 0.183040
O O11 0.912326 0.395892 0.116301
O O12 0.500000 0.841046 0.883745
O O13 0.438232 0.792387 0.000000
#
# Coordination Sequence:
#
# PCOD8284504 Si02
#       5
#    32  32  16  32  32
#     4   8  16  34  58  81 104 137 182 218 267 331
#     4  10  19  35  56  78 106 143 185 225 269 323
#     4  11  22  34  51  76 109 145 182 229 278 316
#     4  10  21  35  54  83 116 142 175 229 283 326
#     4  10  20  35  56  78 104 147 194 227 265 326
#
# _framework density 19.312833000000001
#
# number of rings (size 3 to 8) (size 9 to 14) (size 15 to 20)
#    0.000    2.333    1.111    3.333    0.000    3.556 
#    0.000   11.667    0.000    0.000    0.000    0.000 
#    0.000    0.000    0.000    0.000    0.000    0.000 
#
# Total GULP energy -446146.900535 kJ/mol
# GULP energy per Si atom -12392.969459 kJ/mol
# Density = 1.926888 g / cm^3
# Si number density = 19.312833 Si / 1000 Ang^3
#
#
#
# Elastic Constant Matrix: (Units=GPa)
#
#
# Indices 1 2 3 4 5 6 
#
# 1 175.3554 63.5161 40.6890 0.0000 0.0000 0.0000
# 2 63.5161 121.4773 25.0667 0.0000 0.0000 0.0000
# 3 40.6890 25.0667 43.9263 0.0000 0.0000 0.0000
# 4 0.0000 0.0000 0.0000 20.3753 0.0000 0.0000
# 5 0.0000 0.0000 0.0000 0.0000 3.8907 0.0000
# 6 0.0000 0.0000 0.0000 0.0000 0.0000 18.0016
#
#
#
# Elastic Compliance Matrix: (Units=1/GPa)
#
#
# Indices 1 2 3 4 5 6 
#
# 1 0.008162 -0.003069 -0.005809 0.000000 0.000000 0.000000
# 2 -0.003069 0.010485 -0.003140 0.000000 0.000000 0.000000
# 3 -0.005809 -0.003140 0.029939 0.000000 0.000000 0.000000
# 4 0.000000 0.000000 0.000000 0.049079 0.000000 0.000000
# 5 0.000000 0.000000 0.000000 0.000000 0.257026 0.000000
# 6 0.000000 0.000000 0.000000 0.000000 0.000000 0.055551
#
#
# Mechanical properties :
#
#
# Convention : Reuss Voigt Hill
#
# Bulk Modulus (GPa) = 40.73614 66.58918 53.66266
# Shear Modulus (GPa) = 11.30042 22.55267 16.92655
#
# Velocity S-wave (km/s) = 2.42156 3.42095 2.96369
# Velocity P-wave (km/s) = 5.38119 7.08223 6.28948
#
# Compressibility (1/GPa) = 0.02454823
#
# Stress axis : x y z
#
# Youngs Moduli (GPa) = 122.51372 95.37732 33.40161
#
# Poissons Ratio (x) = 0.29272 0.19404
# Poissons Ratio (y) = 0.37600 0.10489
# Poissons Ratio (z) = 0.71174 0.29951
#
# Static dielectric constant tensor:
#      x y z
#    x 4.146410 0.000000 0.000000 
#    y 0.000000 3.412280 0.000000 
#    z 0.000000 0.000000 3.461550 
# 
# 
# High freq. dielectric constant tensor:
#      x y z
#    x 1.756930 0.000000 0.000000 
#    y 0.000000 1.737810 0.000000 
#    z 0.000000 0.000000 1.734460 
# 
# From -- ./inp_files/26586.got.cif
#   From: 2010.03.12/outbox.cif.g09.slc.cpg/sg69_14_cif.got.tgz:26586.got - 2010.04.10 23:52:46.
