data_PCOD8284896
_publ_section_title
;
Structure prediction by ZEFSAII (Michael W. Deem and Ramdas Pophale) SiO2 
 PCOD8284896
Probable space group: F M M M
;
_chemical_formula_sum "Si O2"
_cell_formula_units_Z 240
_cell_length_a 26.285615
_cell_length_b 22.311454
_cell_length_c 22.140686
_cell_angle_alpha 90.000000
_cell_angle_beta 90.000000
_cell_angle_gamma 90.000000
_cell_volume 12984.854538
_symmetry_space_group_name_H-M "F M M M"
_symmetry_group_IT_number 69
_symmetry_cell_setting 'orthorhombic'
loop_
_space_group_symop_operation_xyz
x,y,z
-x,-y,z
x,-y,-z
-x,y,-z
-x,-y,-z
x,y,-z
-x,y,z
x,-y,z
x,1/2+y,1/2+z
-x,1/2-y,1/2+z
x,1/2-y,1/2-z
-x,1/2+y,1/2-z
-x,1/2-y,1/2-z
x,1/2+y,1/2-z
-x,1/2+y,1/2+z
x,1/2-y,1/2+z
1/2+x,y,1/2+z
1/2-x,-y,1/2+z
1/2+x,-y,1/2-z
1/2-x,y,1/2-z
1/2-x,-y,1/2-z
1/2+x,y,1/2-z
1/2-x,y,1/2+z
1/2+x,-y,1/2+z
1/2+x,1/2+y,z
1/2-x,1/2-y,z
1/2+x,1/2-y,-z
1/2-x,1/2+y,-z
1/2-x,1/2-y,-z
1/2+x,1/2+y,-z
1/2-x,1/2+y,z
1/2+x,1/2-y,z
loop_
_atom_site_type_symbol
_atom_site_label
_atom_site_fract_x
_atom_site_fract_y
_atom_site_fract_z
Si Si1 0.808580 0.239822 0.931324
Si Si2 0.060260 0.928990 0.786079
Si Si3 0.411659 0.070058 0.848552
Si Si4 0.853629 0.131448 0.144391
Si Si5 0.808435 0.685407 0.243430
Si Si6 0.500000 0.428354 0.431999
Si Si7 0.276851 0.433279 0.930374
Si Si8 0.319210 0.362625 0.387692
O O1 0.750000 0.250000 0.906529
O O2 0.843229 0.193639 0.892429
O O3 0.835025 0.305375 0.928551
O O4 0.807125 0.216017 0.000000
O O5 0.080697 0.905981 0.720245
O O6 0.088509 0.889467 0.838952
O O7 0.000000 0.916407 0.791067
O O8 0.071560 0.000000 0.795041
O O9 0.452847 0.097257 0.894173
O O10 0.359926 0.084405 0.884812
O O11 0.418410 0.000000 0.843660
O O12 0.826092 0.136768 0.208265
O O13 0.828310 0.077666 0.106848
O O14 0.836743 0.750000 0.250000
O O15 0.750000 0.697189 0.250000
O O16 0.819268 0.659264 0.179529
O O17 0.500000 0.500000 0.434929
O O18 0.500000 0.401902 0.500000
O O19 0.256885 0.500000 0.917249
O O20 0.234711 0.385937 0.910731
O O21 0.289901 0.423817 0.000000
#
# Coordination Sequence:
#
# PCOD8284896 Si02
#       8
#    32  32  32  32  32  16  32  32
#     4  11  22  38  61  85 115 160 206 241 283 354
#     4  10  21  39  63  89 118 155 201 255 312 364
#     4  10  20  35  57  86 120 156 193 237 293 355
#     4  12  21  37  61  88 115 151 201 249 304 356
#     4  11  20  33  52  83 118 152 185 233 285 347
#     4   9  18  34  56  78 105 150 201 239 275 336
#     4  11  24  39  54  80 122 163 194 233 290 356
#     4  12  21  35  56  87 120 153 193 232 284 352
#
# _framework density 18.483070999999999
#
# number of rings (size 3 to 8) (size 9 to 14) (size 15 to 20)
#    0.000    1.133    6.000    1.600    0.000    1.067 
#    0.000    2.000    1.467    2.800    0.000    4.667 
#    0.000    0.000    0.000    0.000    0.000    0.000 
#
# Total GULP energy -743349.889670 kJ/mol
# GULP energy per Si atom -12389.164828 kJ/mol
# Density = 1.844100 g / cm^3
# Si number density = 18.483071 Si / 1000 Ang^3
#
#
#
# Elastic Constant Matrix: (Units=GPa)
#
#
# Indices 1 2 3 4 5 6 
#
# 1 89.9708 21.8553 38.0178 0.0000 0.0000 0.0000
# 2 21.8553 71.4667 35.5870 0.0000 0.0000 0.0000
# 3 38.0178 35.5870 104.6185 0.0000 0.0000 0.0000
# 4 0.0000 0.0000 0.0000 26.2650 0.0000 0.0000
# 5 0.0000 0.0000 0.0000 0.0000 20.3467 0.0000
# 6 0.0000 0.0000 0.0000 0.0000 0.0000 21.9955
#
#
#
# Elastic Compliance Matrix: (Units=1/GPa)
#
#
# Indices 1 2 3 4 5 6 
#
# 1 0.013366 -0.002009 -0.004174 0.000000 0.000000 0.000000
# 2 -0.002009 0.017148 -0.005103 0.000000 0.000000 0.000000
# 3 -0.004174 -0.005103 0.012811 0.000000 0.000000 0.000000
# 4 0.000000 0.000000 0.000000 0.038073 0.000000 0.000000
# 5 0.000000 0.000000 0.000000 0.000000 0.049148 0.000000
# 6 0.000000 0.000000 0.000000 0.000000 0.000000 0.045464
#
#
# Mechanical properties :
#
#
# Convention : Reuss Voigt Hill
#
# Bulk Modulus (GPa) = 48.18448 50.77514 49.47981
# Shear Modulus (GPa) = 24.33082 25.09450 24.71266
#
# Velocity S-wave (km/s) = 3.63214 3.68870 3.66053
# Velocity P-wave (km/s) = 6.61181 6.75816 6.68539
#
# Compressibility (1/GPa) = 0.02075357
#
# Stress axis : x y z
#
# Youngs Moduli (GPa) = 74.81405 58.31583 78.05734
#
# Poissons Ratio (x) = 0.11717 0.32580
# Poissons Ratio (y) = 0.15032 0.39832
# Poissons Ratio (z) = 0.31226 0.29758
#
# Static dielectric constant tensor:
#      x y z
#    x 3.284820 0.000000 0.000000 
#    y 0.000000 3.535980 0.000000 
#    z 0.000000 0.000000 3.480280 
# 
# 
# High freq. dielectric constant tensor:
#      x y z
#    x 1.688280 0.000000 0.000000 
#    y 0.000000 1.712640 0.000000 
#    z 0.000000 0.000000 1.729800 
# 
# From -- ./inp_files/38592.got.cif
#   From: 2010.03.12/outbox.cif.g09.slc.cpg/sg69_20_cif.got.tgz:38592.got - 2010.04.10 23:52:46.
