data_PCOD8284854
_publ_section_title
;
Structure prediction by ZEFSAII (Michael W. Deem and Ramdas Pophale) SiO2 
 PCOD8284854
Probable space group: F M M M
;
_chemical_formula_sum "Si O2"
_cell_formula_units_Z 160
_cell_length_a 29.373385
_cell_length_b 8.930268
_cell_length_c 30.431592
_cell_angle_alpha 90.000000
_cell_angle_beta 90.000000
_cell_angle_gamma 90.000000
_cell_volume 7982.577851
_symmetry_space_group_name_H-M "F M M M"
_symmetry_group_IT_number 69
_symmetry_cell_setting 'orthorhombic'
loop_
_space_group_symop_operation_xyz
x,y,z
-x,-y,z
x,-y,-z
-x,y,-z
-x,-y,-z
x,y,-z
-x,y,z
x,-y,z
x,1/2+y,1/2+z
-x,1/2-y,1/2+z
x,1/2-y,1/2-z
-x,1/2+y,1/2-z
-x,1/2-y,1/2-z
x,1/2+y,1/2-z
-x,1/2+y,1/2+z
x,1/2-y,1/2+z
1/2+x,y,1/2+z
1/2-x,-y,1/2+z
1/2+x,-y,1/2-z
1/2-x,y,1/2-z
1/2-x,-y,1/2-z
1/2+x,y,1/2-z
1/2-x,y,1/2+z
1/2+x,-y,1/2+z
1/2+x,1/2+y,z
1/2-x,1/2-y,z
1/2+x,1/2-y,-z
1/2-x,1/2+y,-z
1/2-x,1/2-y,-z
1/2+x,1/2+y,-z
1/2-x,1/2+y,z
1/2+x,1/2-y,z
loop_
_atom_site_type_symbol
_atom_site_label
_atom_site_fract_x
_atom_site_fract_y
_atom_site_fract_z
Si Si1 0.203987 0.678475 0.113380
Si Si2 0.321249 0.825055 0.704942
Si Si3 0.500000 0.169912 0.795516
Si Si4 0.552217 0.322120 0.000000
Si Si5 0.581616 0.837234 0.327541
Si Si6 0.618979 0.168221 0.575958
O O1 0.206596 0.500000 0.114887
O O2 0.250000 0.750000 0.093609
O O3 0.199208 0.740781 0.162927
O O4 0.163423 0.727077 0.080343
O O5 0.302877 0.750000 0.750000
O O6 0.375635 0.805331 0.703864
O O7 0.307246 0.000000 0.703043
O O8 0.500000 0.250000 0.750000
O O9 0.544742 0.208816 0.822702
O O10 0.500000 0.000000 0.784418
O O11 0.581489 0.266293 0.042055
O O12 0.548195 0.500000 0.000000
O O13 0.500000 0.256430 0.000000
O O14 0.595365 0.837776 0.377580
O O15 0.560851 0.000000 0.315234
O O16 0.634116 0.000000 0.561791
#
# Coordination Sequence:
#
# PCOD8284854 Si02
#       6
#    32  32  16  16  32  32
#     4  11  22  38  60  84 115 154 197 242 293 347
#     4  10  20  35  55  81 112 149 193 241 292 343
#     4  12  24  34  48  71 102 141 191 240 283 334
#     4   9  18  34  64  99 124 151 190 235 284 345
#     4   9  19  34  53  75 106 146 186 232 283 337
#     4   9  19  37  61  89 119 150 189 235 286 347
#
# _framework density 20.04365
#
# number of rings (size 3 to 8) (size 9 to 14) (size 15 to 20)
#    0.000    2.100    0.000    5.100    1.400    6.000 
#    0.000    3.000    0.000    0.600    0.000    0.000 
#    0.000    0.000    0.000    0.000    0.000    0.000 
#
# Total GULP energy -495841.844095 kJ/mol
# GULP energy per Si atom -12396.046102 kJ/mol
# Density = 1.999803 g / cm^3
# Si number density = 20.043650 Si / 1000 Ang^3
#
#
#
# Elastic Constant Matrix: (Units=GPa)
#
#
# Indices 1 2 3 4 5 6 
#
# 1 134.3388 64.8606 41.2816 0.0000 0.0000 0.0001
# 2 64.8606 141.2066 24.6864 0.0000 -0.0001 0.0002
# 3 41.2816 24.6864 73.1332 0.0000 0.0000 -0.0001
# 4 0.0000 0.0000 0.0000 20.4073 0.0000 0.0000
# 5 0.0000 -0.0001 0.0000 0.0000 13.5299 0.0000
# 6 0.0001 0.0002 -0.0001 0.0000 0.0000 31.8632
#
#
#
# Elastic Compliance Matrix: (Units=1/GPa)
#
#
# Indices 1 2 3 4 5 6 
#
# 1 0.010927 -0.004188 -0.004754 0.000000 0.000000 0.000000
# 2 -0.004188 0.009131 -0.000718 0.000000 0.000000 0.000000
# 3 -0.004754 -0.000718 0.016600 0.000000 0.000000 0.000000
# 4 0.000000 0.000000 0.000000 0.049002 0.000000 0.000000
# 5 0.000000 0.000000 0.000000 0.000000 0.073911 0.000000
# 6 0.000000 0.000000 0.000000 0.000000 0.000000 0.031384
#
#
# Mechanical properties :
#
#
# Convention : Reuss Voigt Hill
#
# Bulk Modulus (GPa) = 57.68070 67.81508 62.74789
# Shear Modulus (GPa) = 23.14238 27.68342 25.41290
#
# Velocity S-wave (km/s) = 3.40163 3.72042 3.56459
# Velocity P-wave (km/s) = 6.65343 7.23620 6.95092
#
# Compressibility (1/GPa) = 0.01733682
#
# Stress axis : x y z
#
# Youngs Moduli (GPa) = 91.51849 109.51702 60.24183
#
# Poissons Ratio (x) = 0.45864 0.28640
# Poissons Ratio (y) = 0.38326 0.04327
# Poissons Ratio (z) = 0.43510 0.07867
#
# Static dielectric constant tensor:
#      x y z
#    x 3.760560 0.000000 0.000000 
#    y 0.000000 -0.678610 0.000000 
#    z 0.000000 0.000000 3.533330 
# 
# 
# High freq. dielectric constant tensor:
#      x y z
#    x 1.789910 0.000000 0.000000 
#    y 0.000000 1.770820 0.000000 
#    z 0.000000 0.000000 1.768980 
# 
# From -- ./inp_files/5777.got.cif
#   From: 2010.03.12/outbox.cif.g09.slc.cpg/sg69_3_cif.got.tgz:5777.got - 2010.04.10 23:52:46.
