data_PCOD8284888
_publ_section_title
;
Structure prediction by ZEFSAII (Michael W. Deem and Ramdas Pophale) SiO2 
 PCOD8284888
Probable space group: F M M M
;
_chemical_formula_sum "Si O2"
_cell_formula_units_Z 120
_cell_length_a 16.414717
_cell_length_b 26.449076
_cell_length_c 14.111068
_cell_angle_alpha 90.000000
_cell_angle_beta 90.000000
_cell_angle_gamma 90.000000
_cell_volume 6126.377992
_symmetry_space_group_name_H-M "F M M M"
_symmetry_group_IT_number 69
_symmetry_cell_setting 'orthorhombic'
loop_
_space_group_symop_operation_xyz
x,y,z
-x,-y,z
x,-y,-z
-x,y,-z
-x,-y,-z
x,y,-z
-x,y,z
x,-y,z
x,1/2+y,1/2+z
-x,1/2-y,1/2+z
x,1/2-y,1/2-z
-x,1/2+y,1/2-z
-x,1/2-y,1/2-z
x,1/2+y,1/2-z
-x,1/2+y,1/2+z
x,1/2-y,1/2+z
1/2+x,y,1/2+z
1/2-x,-y,1/2+z
1/2+x,-y,1/2-z
1/2-x,y,1/2-z
1/2-x,-y,1/2-z
1/2+x,y,1/2-z
1/2-x,y,1/2+z
1/2+x,-y,1/2+z
1/2+x,1/2+y,z
1/2-x,1/2-y,z
1/2+x,1/2-y,-z
1/2-x,1/2+y,-z
1/2-x,1/2-y,-z
1/2+x,1/2+y,-z
1/2-x,1/2+y,z
1/2+x,1/2-y,z
loop_
_atom_site_type_symbol
_atom_site_label
_atom_site_fract_x
_atom_site_fract_y
_atom_site_fract_z
Si Si1 0.907289 0.801169 0.292581
Si Si2 0.718523 0.000000 0.500000
Si Si3 0.745026 0.392956 0.000000
Si Si4 0.169013 0.600600 0.700563
Si Si5 0.591602 0.500000 0.834602
Si Si6 0.408822 0.829922 0.000000
O O1 0.867886 0.750000 0.250000
O O2 0.860604 0.850121 0.256009
O O3 0.901351 0.795787 0.406299
O O4 0.000000 0.806111 0.257442
O O5 0.774890 0.048913 0.500000
O O6 0.659650 0.000000 0.587714
O O7 0.687434 0.382945 0.091497
O O8 0.832000 0.366730 0.000000
O O9 0.250000 0.580573 0.750000
O O10 0.105514 0.554080 0.717894
O O11 0.500000 0.500000 0.874008
O O12 0.500000 0.856305 0.000000
#
# Coordination Sequence:
#
# PCOD8284888 Si02
#       6
#    32   8  16  32  16  16
#     4  10  22  40  61  86 118 157 197 241 294 351
#     4   8  19  34  59  80 122 148 188 248 293 346
#     4  10  20  38  57  88 113 157 196 241 299 345
#     4  11  21  37  59  85 119 153 197 247 296 348
#     4  10  20  35  57  84 114 156 198 240 294 349
#     4  10  20  39  61  81 117 158 195 241 291 347
#
# _framework density 19.587430999999999
#
# number of rings (size 3 to 8) (size 9 to 14) (size 15 to 20)
#    0.000    1.867    2.667    1.400    0.000    1.600 
#    0.000    5.000    0.000    0.000    0.000    0.000 
#    0.000    0.000    0.000    0.000    0.000    0.000 
#
# Total GULP energy -371642.345668 kJ/mol
# GULP energy per Si atom -12388.078189 kJ/mol
# Density = 1.954285 g / cm^3
# Si number density = 19.587431 Si / 1000 Ang^3
#
#
#
# Elastic Constant Matrix: (Units=GPa)
#
#
# Indices 1 2 3 4 5 6 
#
# 1 80.4771 38.3869 19.4090 0.0000 0.0000 0.0000
# 2 38.3869 136.2584 38.8050 0.0000 0.0000 0.0000
# 3 19.4090 38.8050 120.9522 0.0000 0.0000 0.0000
# 4 0.0000 0.0000 0.0000 25.0366 0.0000 0.0000
# 5 0.0000 0.0000 0.0000 0.0000 35.6283 0.0000
# 6 0.0000 0.0000 0.0000 0.0000 0.0000 28.7318
#
#
#
# Elastic Compliance Matrix: (Units=1/GPa)
#
#
# Indices 1 2 3 4 5 6 
#
# 1 0.014491 -0.003764 -0.001118 0.000000 0.000000 0.000000
# 2 -0.003764 0.009055 -0.002301 0.000000 0.000000 0.000000
# 3 -0.001118 -0.002301 0.009185 0.000000 0.000000 0.000000
# 4 0.000000 0.000000 0.000000 0.039942 0.000000 0.000000
# 5 0.000000 0.000000 0.000000 0.000000 0.028068 0.000000
# 6 0.000000 0.000000 0.000000 0.000000 0.000000 0.034805
#
#
# Mechanical properties :
#
#
# Convention : Reuss Voigt Hill
#
# Bulk Modulus (GPa) = 54.45035 58.98771 56.71903
# Shear Modulus (GPa) = 32.04472 33.95181 32.99827
#
# Velocity S-wave (km/s) = 4.04912 4.16787 4.10892
# Velocity P-wave (km/s) = 7.05120 7.30356 7.17849
#
# Compressibility (1/GPa) = 0.01836536
#
# Stress axis : x y z
#
# Youngs Moduli (GPa) = 69.00887 110.43965 108.86951
#
# Poissons Ratio (x) = 0.41570 0.12168
# Poissons Ratio (y) = 0.25976 0.25051
# Poissons Ratio (z) = 0.07713 0.25412
#
# Static dielectric constant tensor:
#      x y z
#    x 3.502180 0.000000 0.000000 
#    y 0.000000 3.844740 0.000000 
#    z 0.000000 0.000000 3.736860 
# 
# 
# High freq. dielectric constant tensor:
#      x y z
#    x 1.758960 0.000000 0.000000 
#    y 0.000000 1.760820 0.000000 
#    z 0.000000 0.000000 1.768580 
# 
# From -- ./inp_files/14451.got.cif
#   From: 2010.03.12/outbox.cif.g09.slc.cpg/sg69_8_cif.got.tgz:14451.got - 2010.04.10 23:52:46.
