data_PCOD8284520
_publ_section_title
;
Structure prediction by ZEFSAII (Michael W. Deem and Ramdas Pophale) SiO2 
 PCOD8284520
Probable space group: F M M M
;
_chemical_formula_sum "Si O2"
_cell_formula_units_Z 224
_cell_length_a 32.442803
_cell_length_b 20.596392
_cell_length_c 15.973831
_cell_angle_alpha 90.000000
_cell_angle_beta 90.000000
_cell_angle_gamma 90.000000
_cell_volume 10673.788762
_symmetry_space_group_name_H-M "F M M M"
_symmetry_group_IT_number 69
_symmetry_cell_setting 'orthorhombic'
loop_
_space_group_symop_operation_xyz
x,y,z
-x,-y,z
x,-y,-z
-x,y,-z
-x,-y,-z
x,y,-z
-x,y,z
x,-y,z
x,1/2+y,1/2+z
-x,1/2-y,1/2+z
x,1/2-y,1/2-z
-x,1/2+y,1/2-z
-x,1/2-y,1/2-z
x,1/2+y,1/2-z
-x,1/2+y,1/2+z
x,1/2-y,1/2+z
1/2+x,y,1/2+z
1/2-x,-y,1/2+z
1/2+x,-y,1/2-z
1/2-x,y,1/2-z
1/2-x,-y,1/2-z
1/2+x,y,1/2-z
1/2-x,y,1/2+z
1/2+x,-y,1/2+z
1/2+x,1/2+y,z
1/2-x,1/2-y,z
1/2+x,1/2-y,-z
1/2-x,1/2+y,-z
1/2-x,1/2-y,-z
1/2+x,1/2+y,-z
1/2-x,1/2+y,z
1/2+x,1/2-y,z
loop_
_atom_site_type_symbol
_atom_site_label
_atom_site_fract_x
_atom_site_fract_y
_atom_site_fract_z
Si Si1 0.138385 0.313911 0.598530
Si Si2 0.589780 0.310081 0.405904
Si Si3 0.638678 0.928311 0.900075
Si Si4 0.271972 0.811021 0.340112
Si Si5 0.770517 0.430618 0.902928
Si Si6 0.500000 0.793341 0.139645
Si Si7 0.575517 0.924222 0.597211
Si Si8 0.000000 0.350878 0.325203
O O1 0.149943 0.306688 0.500000
O O2 0.106078 0.258566 0.630648
O O3 0.178644 0.303985 0.656998
O O4 0.117547 0.384112 0.614484
O O5 0.605863 0.311727 0.500000
O O6 0.609582 0.372780 0.359537
O O7 0.540898 0.318793 0.404576
O O8 0.684627 0.911555 0.866678
O O9 0.625389 0.000000 0.867418
O O10 0.635950 0.928046 0.000000
O O11 0.250000 0.815277 0.250000
O O12 0.250000 0.750000 0.386770
O O13 0.263894 0.877675 0.387145
O O14 0.756101 0.500000 0.864442
O O15 0.776726 0.439807 0.000000
O O16 0.500000 0.715861 0.123262
O O17 0.500000 0.823212 0.231674
O O18 0.562377 0.916452 0.500000
O O19 0.539673 0.894753 0.655038
O O20 0.582822 0.000000 0.619499
#
# Coordination Sequence:
#
# PCOD8284520 Si02
#       8
#    32  32  32  32  32  16  32  16
#     4  10  21  38  63  91 119 155 207 263 308 362
#     4  10  19  35  60  87 117 158 206 255 303 352
#     4   8  15  30  52  78 105 139 190 242 288 339
#     4  11  24  40  54  86 125 162 199 244 305 378
#     4   9  18  35  60  84 108 147 199 251 300 353
#     4  11  23  37  55  88 125 165 198 246 294 366
#     4  10  21  40  68  97 124 159 206 263 319 367
#     4  11  22  40  57  89 126 165 197 239 304 373
#
# _framework density 20.985987999999999
#
# number of rings (size 3 to 8) (size 9 to 14) (size 15 to 20)
#    0.000    2.143    1.429    2.786    0.000    4.286 
#    7.714    3.214    0.000    1.714    0.000    0.000 
#    0.000    0.000    0.000    0.000    0.000    0.000 
#
# Total GULP energy -693835.548415 kJ/mol
# GULP energy per Si atom -12389.920507 kJ/mol
# Density = 2.093822 g / cm^3
# Si number density = 20.985988 Si / 1000 Ang^3
#
#
#
# Elastic Constant Matrix: (Units=GPa)
#
#
# Indices 1 2 3 4 5 6 
#
# 1 145.1580 73.0771 19.6127 0.0000 0.0000 0.0000
# 2 73.0771 172.8451 16.2347 0.0000 0.0000 0.0000
# 3 19.6127 16.2347 28.6216 0.0000 0.0000 0.0000
# 4 0.0000 0.0000 0.0000 20.0638 0.0000 0.0000
# 5 0.0000 0.0000 0.0000 0.0000 22.8395 0.0000
# 6 0.0000 0.0000 0.0000 0.0000 0.0000 87.9330
#
#
#
# Elastic Compliance Matrix: (Units=1/GPa)
#
#
# Indices 1 2 3 4 5 6 
#
# 1 0.009237 -0.003497 -0.004346 0.000000 0.000000 0.000000
# 2 -0.003497 0.007435 -0.001821 0.000000 0.000000 0.000000
# 3 -0.004346 -0.001821 0.038949 0.000000 0.000000 0.000000
# 4 0.000000 0.000000 0.000000 0.049841 0.000000 0.000000
# 5 0.000000 0.000000 0.000000 0.000000 0.043784 0.000000
# 6 0.000000 0.000000 0.000000 0.000000 0.000000 0.011372
#
#
# Mechanical properties :
#
#
# Convention : Reuss Voigt Hill
#
# Bulk Modulus (GPa) = 27.55308 62.71929 45.13618
# Shear Modulus (GPa) = 26.03572 42.01395 34.02484
#
# Velocity S-wave (km/s) = 3.52607 4.47923 4.03092
# Velocity P-wave (km/s) = 5.45301 7.53010 6.57411
#
# Compressibility (1/GPa) = 0.03629358
#
# Stress axis : x y z
#
# Youngs Moduli (GPa) = 108.26352 134.49780 25.67431
#
# Poissons Ratio (x) = 0.47034 0.11158
# Poissons Ratio (y) = 0.37860 0.04675
# Poissons Ratio (z) = 0.47049 0.24492
#
# Static dielectric constant tensor:
#      x y z
#    x 3.712400 0.000000 0.000000 
#    y 0.000000 4.490150 0.000000 
#    z 0.000000 0.000000 3.333260 
# 
# 
# High freq. dielectric constant tensor:
#      x y z
#    x 1.819040 0.000000 0.000000 
#    y 0.000000 1.842190 0.000000 
#    z 0.000000 0.000000 1.780340 
# 
# From -- ./inp_files/27992.got.cif
#   From: 2010.03.12/outbox.cif.g09.slc.cpg/sg69_14_cif.got.tgz:27992.got - 2010.04.10 23:52:46.
