data_PCOD8284354
_publ_section_title
;
Structure prediction by ZEFSAII (Michael W. Deem and Ramdas Pophale) SiO2 
 PCOD8284354
Probable space group: F M M M
;
_chemical_formula_sum "Si O2"
_cell_formula_units_Z 176
_cell_length_a 24.936619
_cell_length_b 30.450902
_cell_length_c 14.440059
_cell_angle_alpha 90.000000
_cell_angle_beta 90.000000
_cell_angle_gamma 90.000000
_cell_volume 10964.951099
_symmetry_space_group_name_H-M "F M M M"
_symmetry_group_IT_number 69
_symmetry_cell_setting 'orthorhombic'
loop_
_space_group_symop_operation_xyz
x,y,z
-x,-y,z
x,-y,-z
-x,y,-z
-x,-y,-z
x,y,-z
-x,y,z
x,-y,z
x,1/2+y,1/2+z
-x,1/2-y,1/2+z
x,1/2-y,1/2-z
-x,1/2+y,1/2-z
-x,1/2-y,1/2-z
x,1/2+y,1/2-z
-x,1/2+y,1/2+z
x,1/2-y,1/2+z
1/2+x,y,1/2+z
1/2-x,-y,1/2+z
1/2+x,-y,1/2-z
1/2-x,y,1/2-z
1/2-x,-y,1/2-z
1/2+x,y,1/2-z
1/2-x,y,1/2+z
1/2+x,-y,1/2+z
1/2+x,1/2+y,z
1/2-x,1/2-y,z
1/2+x,1/2-y,-z
1/2-x,1/2+y,-z
1/2-x,1/2-y,-z
1/2+x,1/2+y,-z
1/2-x,1/2+y,z
1/2+x,1/2-y,z
loop_
_atom_site_type_symbol
_atom_site_label
_atom_site_fract_x
_atom_site_fract_y
_atom_site_fract_z
Si Si1 0.841321 0.049625 0.000000
Si Si2 0.563568 0.818460 0.719967
Si Si3 0.196556 0.947503 0.698319
Si Si4 0.715606 0.451537 0.500000
Si Si5 0.063236 0.734485 0.103600
Si Si6 0.892612 0.088533 0.176161
Si Si7 0.000000 0.551254 0.395015
O O1 0.857974 0.078755 0.086240
O O2 0.778900 0.043524 0.000000
O O3 0.867639 0.000000 0.000000
O O4 0.500000 0.828533 0.713892
O O5 0.580531 0.781097 0.646694
O O6 0.580018 0.803985 0.824628
O O7 0.598792 0.860038 0.691905
O O8 0.250000 0.929654 0.750000
O O9 0.196991 0.927674 0.593973
O O10 0.140566 0.931142 0.738931
O O11 0.198229 0.000000 0.699528
O O12 0.689939 0.500000 0.500000
O O13 0.000000 0.734065 0.095108
O O14 0.088423 0.727887 0.000000
O O15 0.949553 0.065321 0.165745
O O16 0.000000 0.500000 0.406901
O O17 0.000000 0.572210 0.500000
#
# Coordination Sequence:
#
# PCOD8284354 Si02
#       7
#    16  32  32  16  32  32  16
#     4  11  20  31  50  75 104 138 172 214 263 305
#     4   9  18  31  45  74 102 130 165 200 248 304
#     4  10  19  33  53  72  96 134 177 221 261 289
#     4   9  18  34  53  71  92 125 179 230 265 290
#     4   8  15  30  52  67  92 128 165 207 252 298
#     4  12  21  31  48  75 108 137 168 208 249 312
#     4  11  22  32  44  68 107 149 173 192 244 317
#
# _framework density 16.051143
#
# number of rings (size 3 to 8) (size 9 to 14) (size 15 to 20)
#    0.000    2.091    3.636    2.727    1.273    0.000 
#    1.636    0.000    0.000    0.545    0.000    5.091 
#    0.000    7.273    0.000    0.000    0.000    0.000 
#
# Total GULP energy -545232.316725 kJ/mol
# GULP energy per Si atom -12391.643562 kJ/mol
# Density = 1.601461 g / cm^3
# Si number density = 16.051143 Si / 1000 Ang^3
#
#
#
# Elastic Constant Matrix: (Units=GPa)
#
#
# Indices 1 2 3 4 5 6 
#
# 1 70.3265 20.7203 44.7240 0.0000 0.0000 0.0000
# 2 20.7203 74.8696 53.7462 0.0000 0.0000 0.0000
# 3 44.7240 53.7462 157.7873 0.0000 0.0000 0.0000
# 4 0.0000 0.0000 0.0000 23.5405 0.0000 0.0000
# 5 0.0000 0.0000 0.0000 0.0000 30.1073 0.0000
# 6 0.0000 0.0000 0.0000 0.0000 0.0000 -7.7446
#
#
#
# Elastic Compliance Matrix: (Units=1/GPa)
#
#
# Indices 1 2 3 4 5 6 
#
# 1 0.017508 -0.001698 -0.004384 0.000000 0.000000 0.000000
# 2 -0.001698 0.017844 -0.005597 0.000000 0.000000 0.000000
# 3 -0.004384 -0.005597 0.009487 0.000000 0.000000 0.000000
# 4 0.000000 0.000000 0.000000 0.042480 0.000000 0.000000
# 5 0.000000 0.000000 0.000000 0.000000 0.033215 0.000000
# 6 0.000000 0.000000 0.000000 0.000000 0.000000 -0.129122
#
#
# Mechanical properties :
#
#
# Convention : Reuss Voigt Hill
#
# Bulk Modulus (GPa) = 46.55361 60.15160 53.35260
# Shear Modulus (GPa) = 228.00007 21.43351 124.71679
#
# Velocity S-wave (km/s) = 11.93123 3.65818 8.82430
# Velocity P-wave (km/s) = 14.79433 7.44307 11.71050
#
# Compressibility (1/GPa) = 0.02148061
#
# Stress axis : x y z
#
# Youngs Moduli (GPa) = 57.11758 56.04028 105.41062
#
# Poissons Ratio (x) = 0.09517 0.46212
# Poissons Ratio (y) = 0.09699 0.58997
# Poissons Ratio (z) = 0.25041 0.31365
#
# Static dielectric constant tensor:
#      x y z
#    x 2.831860 0.000000 0.000000 
#    y 0.000000 2.873260 0.000000 
#    z 0.000000 0.000000 3.595060 
# 
# 
# High freq. dielectric constant tensor:
#      x y z
#    x 1.588290 0.000000 0.000000 
#    y 0.000000 1.593450 0.000000 
#    z 0.000000 0.000000 1.632570 
# 
# From -- ./inp_files/18157.got.cif
#   From: 2010.03.12/outbox.cif.g09.slc.cpg/sg69_10_cif.got.tgz:18157.got - 2010.04.10 23:52:46.
