data_PCOD8284021
_publ_section_title
;
Structure prediction by ZEFSAII (Michael W. Deem and Ramdas Pophale) SiO2 
 PCOD8284021
Probable space group: F M M M
;
_chemical_formula_sum "Si O2"
_cell_formula_units_Z 136
_cell_length_a 19.962166
_cell_length_b 19.587392
_cell_length_c 19.587377
_cell_angle_alpha 90.000000
_cell_angle_beta 90.000000
_cell_angle_gamma 90.000000
_cell_volume 7658.797026
_symmetry_space_group_name_H-M "F M M M"
_symmetry_group_IT_number 69
_symmetry_cell_setting 'orthorhombic'
loop_
_space_group_symop_operation_xyz
x,y,z
-x,-y,z
x,-y,-z
-x,y,-z
-x,-y,-z
x,y,-z
-x,y,z
x,-y,z
x,1/2+y,1/2+z
-x,1/2-y,1/2+z
x,1/2-y,1/2-z
-x,1/2+y,1/2-z
-x,1/2-y,1/2-z
x,1/2+y,1/2-z
-x,1/2+y,1/2+z
x,1/2-y,1/2+z
1/2+x,y,1/2+z
1/2-x,-y,1/2+z
1/2+x,-y,1/2-z
1/2-x,y,1/2-z
1/2-x,-y,1/2-z
1/2+x,y,1/2-z
1/2-x,y,1/2+z
1/2+x,-y,1/2+z
1/2+x,1/2+y,z
1/2-x,1/2-y,z
1/2+x,1/2-y,-z
1/2-x,1/2+y,-z
1/2-x,1/2-y,-z
1/2+x,1/2+y,-z
1/2-x,1/2+y,z
1/2+x,1/2-y,z
loop_
_atom_site_type_symbol
_atom_site_label
_atom_site_fract_x
_atom_site_fract_y
_atom_site_fract_z
Si Si1 0.371257 0.182892 0.817108
Si Si2 0.676341 0.921583 0.921583
Si Si3 0.750000 0.250000 0.750000
Si Si4 0.668668 0.421550 0.921550
Si Si5 0.576365 0.328820 0.171180
O O1 0.370968 0.125166 0.874834
O O2 0.295278 0.202263 0.797737
O O3 0.409467 0.249489 0.845272
O O4 0.409468 0.154728 0.750511
O O5 0.753838 0.906146 0.906147
O O6 0.659741 0.000000 0.904938
O O7 0.659740 0.904939 0.000000
O O8 0.652253 0.500000 0.905009
O O9 0.623632 0.374701 0.874700
O O10 0.652252 0.405009 0.000000
O O11 0.500000 0.346392 0.153608
#
# Coordination Sequence:
#
# PCOD8284021 Si02
#       5
#    32  32   8  32  32
#     4  10  18  32  51  73 101 130 164 210 250 291
#     4   9  18  33  53  77 103 129 159 202 257 305
#     4   8  16  28  46  76 100 124 160 202 256 304
#     4   9  19  35  53  76 105 131 159 200 249 302
#     4  10  21  35  51  72 100 137 174 203 238 287
#
# _framework density 17.757358
#
# number of rings (size 3 to 8) (size 9 to 14) (size 15 to 20)
#    0.000    2.824    0.000    5.647    0.000    2.824 
#    0.000    7.059    0.000    4.235    0.000    6.588 
#    0.000    0.000    0.000    0.000    0.000    0.000 
#
# Total GULP energy -421568.974631 kJ/mol
# GULP energy per Si atom -12399.087489 kJ/mol
# Density = 1.771694 g / cm^3
# Si number density = 17.757358 Si / 1000 Ang^3
#
#
#
# Elastic Constant Matrix: (Units=GPa)
#
#
# Indices 1 2 3 4 5 6 
#
# 1 50.9803 33.6508 33.6498 0.0000 0.0000 0.0000
# 2 33.6508 101.2013 88.1994 0.0000 0.0000 0.0000
# 3 33.6498 88.1994 101.1974 0.0000 0.0000 0.0000
# 4 0.0000 0.0000 0.0000 46.1577 0.0000 0.0000
# 5 0.0000 0.0000 0.0000 0.0000 -2.6928 0.0000
# 6 0.0000 0.0000 0.0000 0.0000 0.0000 -2.6923
#
#
#
# Elastic Compliance Matrix: (Units=1/GPa)
#
#
# Indices 1 2 3 4 5 6 
#
# 1 0.025626 -0.004553 -0.004553 0.000000 0.000000 0.000000
# 2 -0.004553 0.041910 -0.035013 0.000000 0.000000 0.000000
# 3 -0.004553 -0.035013 0.041911 0.000000 0.000000 0.000000
# 4 0.000000 0.000000 0.000000 0.021665 0.000000 0.000000
# 5 0.000000 0.000000 0.000000 0.000000 -0.371367 0.000000
# 6 0.000000 0.000000 0.000000 0.000000 0.000000 -0.371429
#
#
# Mechanical properties :
#
#
# Convention : Reuss Voigt Hill
#
# Bulk Modulus (GPa) = 47.14852 62.70877 54.92865
# Shear Modulus (GPa) = -9.68284 14.67979 2.49848
#
# Velocity S-wave (km/s) = -2.33767 2.87834 1.18746
# Velocity P-wave (km/s) = 4.39578 6.81450 5.73412
#
# Compressibility (1/GPa) = 0.02120957
#
# Stress axis : x y z
#
# Youngs Moduli (GPa) = 39.02303 23.86073 23.85998
#
# Poissons Ratio (x) = 0.10864 0.10862
# Poissons Ratio (y) = 0.17768 0.83541
# Poissons Ratio (z) = 0.17765 0.83543
#
# Static dielectric constant tensor:
#      x y z
#    x 3.125580 0.000000 0.000000 
#    y 0.000000 3.212210 0.000000 
#    z 0.000000 0.000000 3.212210 
# 
# 
# High freq. dielectric constant tensor:
#      x y z
#    x 1.675000 0.000000 0.000000 
#    y 0.000000 1.684150 0.000000 
#    z 0.000000 0.000000 1.684150 
# 
# From -- ./inp_files/25598.got.cif
#   From: 2010.03.12/outbox.cif.g09.slc.cpg/sg69_13_cif.got.tgz:25598.got - 2010.04.10 23:52:46.
