data_PCOD8284895
_publ_section_title
;
Structure prediction by ZEFSAII (Michael W. Deem and Ramdas Pophale) SiO2 
 PCOD8284895
Probable space group: F M M M
;
_chemical_formula_sum "Si O2"
_cell_formula_units_Z 128
_cell_length_a 23.556125
_cell_length_b 14.848731
_cell_length_c 16.042720
_cell_angle_alpha 90.000000
_cell_angle_beta 90.000000
_cell_angle_gamma 90.000000
_cell_volume 5611.399557
_symmetry_space_group_name_H-M "F M M M"
_symmetry_group_IT_number 69
_symmetry_cell_setting 'orthorhombic'
loop_
_space_group_symop_operation_xyz
x,y,z
-x,-y,z
x,-y,-z
-x,y,-z
-x,-y,-z
x,y,-z
-x,y,z
x,-y,z
x,1/2+y,1/2+z
-x,1/2-y,1/2+z
x,1/2-y,1/2-z
-x,1/2+y,1/2-z
-x,1/2-y,1/2-z
x,1/2+y,1/2-z
-x,1/2+y,1/2+z
x,1/2-y,1/2+z
1/2+x,y,1/2+z
1/2-x,-y,1/2+z
1/2+x,-y,1/2-z
1/2-x,y,1/2-z
1/2-x,-y,1/2-z
1/2+x,y,1/2-z
1/2-x,y,1/2+z
1/2+x,-y,1/2+z
1/2+x,1/2+y,z
1/2-x,1/2-y,z
1/2+x,1/2-y,-z
1/2-x,1/2+y,-z
1/2-x,1/2-y,-z
1/2+x,1/2+y,-z
1/2-x,1/2+y,z
1/2+x,1/2-y,z
loop_
_atom_site_type_symbol
_atom_site_label
_atom_site_fract_x
_atom_site_fract_y
_atom_site_fract_z
Si Si1 0.612786 0.607020 0.405452
Si Si2 0.000000 0.892519 0.316423
Si Si3 0.769537 0.352208 0.163783
Si Si4 0.781300 0.846407 0.000000
Si Si5 0.407493 0.393276 0.000000
Si Si6 0.500000 0.893382 0.370080
O O1 0.618880 0.643483 0.500000
O O2 0.613295 0.500000 0.405056
O O3 0.554544 0.643960 0.366062
O O4 0.662967 0.643238 0.346936
O O5 0.000000 0.852094 0.222694
O O6 0.000000 0.000000 0.313029
O O7 0.750000 0.400792 0.250000
O O8 0.750000 0.250000 0.168312
O O9 0.739267 0.399167 0.083477
O O10 0.750000 0.750000 0.000000
O O11 0.849160 0.837370 0.000000
O O12 0.443086 0.363333 0.918591
O O13 0.394588 0.500000 0.000000
O O14 0.500000 0.000000 0.367081
#
# Coordination Sequence:
#
# PCOD8284895 Si02
#       6
#    32  16  32  16  16  16
#     4  10  20  35  57  86 116 147 189 235 282 340
#     4   9  18  32  54  82 115 148 180 228 288 335
#     4  10  22  39  58  80 110 156 195 235 283 338
#     4  10  21  37  56  80 112 154 187 229 290 337
#     4   9  18  32  55  83 115 147 185 229 276 336
#     4   8  16  32  52  82 114 145 181 227 282 339
#
# _framework density 22.810708000000002
#
# number of rings (size 3 to 8) (size 9 to 14) (size 15 to 20)
#    0.000    2.500    1.250    1.125    3.500    3.000 
#    0.000    0.000    0.000   15.000    0.000    0.000 
#    0.000    0.000    0.000    0.000    0.000    0.000 
#
# Total GULP energy -396666.472071 kJ/mol
# GULP energy per Si atom -12395.827252 kJ/mol
# Density = 2.275879 g / cm^3
# Si number density = 22.810708 Si / 1000 Ang^3
#
#
#
# Elastic Constant Matrix: (Units=GPa)
#
#
# Indices 1 2 3 4 5 6 
#
# 1 242.9508 17.8220 106.7445 0.0000 0.0000 0.0000
# 2 17.8220 25.3929 9.7887 0.0000 0.0000 0.0000
# 3 106.7445 9.7887 241.7655 0.0000 0.0000 0.0000
# 4 0.0000 0.0000 0.0000 4.6196 0.0000 0.0000
# 5 0.0000 0.0000 0.0000 0.0000 62.8810 0.0000
# 6 0.0000 0.0000 0.0000 0.0000 0.0000 49.9378
#
#
#
# Elastic Compliance Matrix: (Units=1/GPa)
#
#
# Indices 1 2 3 4 5 6 
#
# 1 0.005304 -0.002865 -0.002226 0.000000 0.000000 0.000000
# 2 -0.002865 0.041553 -0.000418 0.000000 0.000000 0.000000
# 3 -0.002226 -0.000418 0.005136 0.000000 0.000000 0.000000
# 4 0.000000 0.000000 0.000000 0.216468 0.000000 0.000000
# 5 0.000000 0.000000 0.000000 0.000000 0.015903 0.000000
# 6 0.000000 0.000000 0.000000 0.000000 0.000000 0.020025
#
#
# Mechanical properties :
#
#
# Convention : Reuss Voigt Hill
#
# Bulk Modulus (GPa) = 24.40434 86.53552 55.46993
# Shear Modulus (GPa) = 15.19462 48.53796 31.86629
#
# Velocity S-wave (km/s) = 2.58373 4.61788 3.74169
# Velocity P-wave (km/s) = 4.42975 8.15179 6.56028
#
# Compressibility (1/GPa) = 0.04097632
#
# Stress axis : x y z
#
# Youngs Moduli (GPa) = 188.52978 24.06591 194.70625
#
# Poissons Ratio (x) = 0.06894 0.43340
# Poissons Ratio (y) = 0.54008 0.08130
# Poissons Ratio (z) = 0.41965 0.01005
#
# Static dielectric constant tensor:
#      x y z
#    x 4.200490 0.000000 0.000000 
#    y 0.000000 3.471380 0.000000 
#    z 0.000000 0.000000 7.176350 
# 
# 
# High freq. dielectric constant tensor:
#      x y z
#    x 1.905990 0.000000 0.000000 
#    y 0.000000 1.860100 0.000000 
#    z 0.000000 0.000000 1.919900 
# 
# From -- ./inp_files/16430.got.cif
#   From: 2010.03.12/outbox.cif.g09.slc.cpg/sg69_9_cif.got.tgz:16430.got - 2010.04.10 23:52:46.
