data_PCOD8284000
_publ_section_title
;
Structure prediction by ZEFSAII (Michael W. Deem and Ramdas Pophale) SiO2 
 PCOD8284000
Probable space group: F M M M
;
_chemical_formula_sum "Si O2"
_cell_formula_units_Z 120
_cell_length_a 14.041673
_cell_length_b 26.573806
_cell_length_c 17.193167
_cell_angle_alpha 90.000000
_cell_angle_beta 90.000000
_cell_angle_gamma 90.000000
_cell_volume 6415.470270
_symmetry_space_group_name_H-M "F M M M"
_symmetry_group_IT_number 69
_symmetry_cell_setting 'orthorhombic'
loop_
_space_group_symop_operation_xyz
x,y,z
-x,-y,z
x,-y,-z
-x,y,-z
-x,-y,-z
x,y,-z
-x,y,z
x,-y,z
x,1/2+y,1/2+z
-x,1/2-y,1/2+z
x,1/2-y,1/2-z
-x,1/2+y,1/2-z
-x,1/2-y,1/2-z
x,1/2+y,1/2-z
-x,1/2+y,1/2+z
x,1/2-y,1/2+z
1/2+x,y,1/2+z
1/2-x,-y,1/2+z
1/2+x,-y,1/2-z
1/2-x,y,1/2-z
1/2-x,-y,1/2-z
1/2+x,y,1/2-z
1/2-x,y,1/2+z
1/2+x,-y,1/2+z
1/2+x,1/2+y,z
1/2-x,1/2-y,z
1/2+x,1/2-y,-z
1/2-x,1/2+y,-z
1/2-x,1/2-y,-z
1/2+x,1/2+y,-z
1/2-x,1/2+y,z
1/2+x,1/2-y,z
loop_
_atom_site_type_symbol
_atom_site_label
_atom_site_fract_x
_atom_site_fract_y
_atom_site_fract_z
Si Si1 0.000000 0.202037 0.696361
Si Si2 0.290264 0.500000 0.162304
Si Si3 0.288888 0.198746 0.161477
Si Si4 0.000000 0.000000 0.794884
Si Si5 0.000000 0.093669 0.684147
Si Si6 0.693652 0.404084 0.408517
O O1 0.000000 0.250000 0.750000
O O2 0.902474 0.204142 0.648411
O O3 0.000000 0.145850 0.734686
O O4 0.250000 0.500000 0.250000
O O5 0.404426 0.500000 0.154878
O O6 0.258038 0.549827 0.118295
O O7 0.250000 0.195260 0.250000
O O8 0.250000 0.250000 0.122381
O O9 0.255494 0.148272 0.117409
O O10 0.000000 0.049059 0.743249
O O11 0.908992 0.090097 0.629463
O O12 0.681510 0.405048 0.500000
#
# Coordination Sequence:
#
# PCOD8284000 Si02
#       6
#    16  16  32   8  16  32
#     4  10  18  31  53  86 113 141 185 244 294 313
#     4  12  23  40  63  86 115 149 195 239 287 342
#     4  10  20  34  58  85 114 150 197 240 281 331
#     4  12  24  38  60  94 112 142 192 252 280 342
#     4  10  21  36  62  86 117 146 191 249 296 325
#     4  11  23  39  59  87 122 154 190 237 295 351
#
# _framework density 18.704785999999999
#
# number of rings (size 3 to 8) (size 9 to 14) (size 15 to 20)
#    0.000    1.333    5.333    1.600    3.733    0.533 
#    0.000    3.333    0.000    0.000    0.000    0.000 
#    0.000    0.000    0.000    0.000    0.000    0.000 
#
# Total GULP energy -371700.503884 kJ/mol
# GULP energy per Si atom -12390.016796 kJ/mol
# Density = 1.866221 g / cm^3
# Si number density = 18.704786 Si / 1000 Ang^3
#
#
#
# Elastic Constant Matrix: (Units=GPa)
#
#
# Indices 1 2 3 4 5 6 
#
# 1 135.3965 67.6432 27.2104 0.0000 0.0000 0.0000
# 2 67.6432 225.0264 52.3753 0.0000 0.0000 0.0000
# 3 27.2104 52.3753 62.3341 0.0000 0.0000 0.0000
# 4 0.0000 0.0000 0.0000 14.1750 0.0000 0.0000
# 5 0.0000 0.0000 0.0000 0.0000 24.0073 0.0000
# 6 0.0000 0.0000 0.0000 0.0000 0.0000 32.2032
#
#
#
# Elastic Compliance Matrix: (Units=1/GPa)
#
#
# Indices 1 2 3 4 5 6 
#
# 1 0.008894 -0.002200 -0.002034 0.000000 0.000000 0.000000
# 2 -0.002200 0.006069 -0.004139 0.000000 0.000000 0.000000
# 3 -0.002034 -0.004139 0.020408 0.000000 0.000000 0.000000
# 4 0.000000 0.000000 0.000000 0.070547 0.000000 0.000000
# 5 0.000000 0.000000 0.000000 0.000000 0.041654 0.000000
# 6 0.000000 0.000000 0.000000 0.000000 0.000000 0.031053
#
#
# Mechanical properties :
#
#
# Convention : Reuss Voigt Hill
#
# Bulk Modulus (GPa) = 53.69097 79.69055 66.69076
# Shear Modulus (GPa) = 24.80445 32.44562 28.62504
#
# Velocity S-wave (km/s) = 3.64552 4.16939 3.91622
# Velocity P-wave (km/s) = 6.81810 8.11636 7.49539
#
# Compressibility (1/GPa) = 0.01862511
#
# Stress axis : x y z
#
# Youngs Moduli (GPa) = 112.44084 164.78430 49.00095
#
# Poissons Ratio (x) = 0.36254 0.09965
# Poissons Ratio (y) = 0.24738 0.20280
# Poissons Ratio (z) = 0.22867 0.68198
#
# Static dielectric constant tensor:
#      x y z
#    x 3.153650 0.000000 0.000000 
#    y 0.000000 4.146010 0.000000 
#    z 0.000000 0.000000 3.072560 
# 
# 
# High freq. dielectric constant tensor:
#      x y z
#    x 1.735920 0.000000 0.000000 
#    y 0.000000 1.765920 0.000000 
#    z 0.000000 0.000000 1.678220 
# 
# From -- ./inp_files/14481.got.cif
#   From: 2010.03.12/outbox.cif.g09.slc.cpg/sg69_8_cif.got.tgz:14481.got - 2010.04.10 23:52:46.
