data_PCOD8284825
_publ_section_title
;
Structure prediction by ZEFSAII (Michael W. Deem and Ramdas Pophale) SiO2 
 PCOD8284825
Probable space group: F M M M
;
_chemical_formula_sum "Si O2"
_cell_formula_units_Z 160
_cell_length_a 14.410811
_cell_length_b 30.676460
_cell_length_c 20.594527
_cell_angle_alpha 90.000000
_cell_angle_beta 90.000000
_cell_angle_gamma 90.000000
_cell_volume 9104.277481
_symmetry_space_group_name_H-M "F M M M"
_symmetry_group_IT_number 69
_symmetry_cell_setting 'orthorhombic'
loop_
_space_group_symop_operation_xyz
x,y,z
-x,-y,z
x,-y,-z
-x,y,-z
-x,-y,-z
x,y,-z
-x,y,z
x,-y,z
x,1/2+y,1/2+z
-x,1/2-y,1/2+z
x,1/2-y,1/2-z
-x,1/2+y,1/2-z
-x,1/2-y,1/2-z
x,1/2+y,1/2-z
-x,1/2+y,1/2+z
x,1/2-y,1/2+z
1/2+x,y,1/2+z
1/2-x,-y,1/2+z
1/2+x,-y,1/2-z
1/2-x,y,1/2-z
1/2-x,-y,1/2-z
1/2+x,y,1/2-z
1/2-x,y,1/2+z
1/2+x,-y,1/2+z
1/2+x,1/2+y,z
1/2-x,1/2-y,z
1/2+x,1/2-y,-z
1/2-x,1/2+y,-z
1/2-x,1/2-y,-z
1/2+x,1/2+y,-z
1/2-x,1/2+y,z
1/2+x,1/2-y,z
loop_
_atom_site_type_symbol
_atom_site_label
_atom_site_fract_x
_atom_site_fract_y
_atom_site_fract_z
Si Si1 0.103105 0.245123 0.327217
Si Si2 0.500000 0.948115 0.132080
Si Si3 0.698444 0.584725 0.182110
Si Si4 0.685499 0.949660 0.929061
Si Si5 0.000000 0.947647 0.219157
Si Si6 0.241367 0.816900 0.173992
O O1 0.096536 0.250000 0.250000
O O2 0.157190 0.287719 0.354068
O O3 0.159362 0.201828 0.351245
O O4 0.000000 0.242869 0.357535
O O5 0.409444 0.927852 0.097447
O O6 0.500000 0.933214 0.206401
O O7 0.500000 0.000000 0.129538
O O8 0.750000 0.573720 0.250000
O O9 0.733963 0.554626 0.123961
O O10 0.589696 0.574753 0.187260
O O11 0.720822 0.633261 0.156901
O O12 0.665381 0.000000 0.938697
O O13 0.711666 0.929443 0.000000
O O14 0.000000 0.000000 0.209401
O O15 0.250000 0.810689 0.250000
#
# Coordination Sequence:
#
# PCOD8284825 Si02
#       6
#    32  16  32  32  16  32
#     4   8  13  25  43  63  93 132 162 201 249 307
#     4   9  17  32  53  75  97 128 174 218 265 314
#     4  11  21  34  50  77 107 136 173 220 261 315
#     4  10  20  35  54  74 101 138 177 219 266 312
#     4  11  22  33  51  77 105 140 177 219 269 313
#     4   8  16  27  40  67  99 130 167 200 253 309
#
# _framework density 17.574157
#
# number of rings (size 3 to 8) (size 9 to 14) (size 15 to 20)
#    0.000    2.600    2.000    2.100    1.400    2.000 
#    7.200    0.500    0.000    1.800    0.000    2.800 
#    0.000    1.600    0.000    0.000    0.000    0.000 
#
# Total GULP energy -495577.150347 kJ/mol
# GULP energy per Si atom -12389.428759 kJ/mol
# Density = 1.753416 g / cm^3
# Si number density = 17.574157 Si / 1000 Ang^3
#
#
#
# Elastic Constant Matrix: (Units=GPa)
#
#
# Indices 1 2 3 4 5 6 
#
# 1 153.0931 30.9615 40.1391 0.0000 0.0000 0.0000
# 2 30.9615 62.4480 12.8041 0.0000 0.0000 0.0000
# 3 40.1391 12.8041 84.2318 0.0000 0.0000 0.0000
# 4 0.0000 0.0000 0.0000 6.1698 0.0000 0.0000
# 5 0.0000 0.0000 0.0000 0.0000 13.9281 0.0000
# 6 0.0000 0.0000 0.0000 0.0000 0.0000 19.7736
#
#
#
# Elastic Compliance Matrix: (Units=1/GPa)
#
#
# Indices 1 2 3 4 5 6 
#
# 1 0.008081 -0.003320 -0.003346 0.000000 0.000000 0.000000
# 2 -0.003320 0.017893 -0.001138 0.000000 0.000000 0.000000
# 3 -0.003346 -0.001138 0.013639 0.000000 0.000000 0.000000
# 4 0.000000 0.000000 0.000000 0.162079 0.000000 0.000000
# 5 0.000000 0.000000 0.000000 0.000000 0.071798 0.000000
# 6 0.000000 0.000000 0.000000 0.000000 0.000000 0.050572
#
#
# Mechanical properties :
#
#
# Convention : Reuss Voigt Hill
#
# Bulk Modulus (GPa) = 41.65804 51.95358 46.80581
# Shear Modulus (GPa) = 14.38138 22.36552 18.37345
#
# Velocity S-wave (km/s) = 2.86374 3.57127 3.23690
# Velocity P-wave (km/s) = 5.88985 6.82876 6.37661
#
# Compressibility (1/GPa) = 0.02400497
#
# Stress axis : x y z
#
# Youngs Moduli (GPa) = 123.75066 55.88841 73.31692
#
# Poissons Ratio (x) = 0.18557 0.24532
# Poissons Ratio (y) = 0.41090 0.08341
# Poissons Ratio (z) = 0.41407 0.06358
#
# Static dielectric constant tensor:
#      x y z
#    x 3.472980 0.000000 0.000000 
#    y 0.000000 3.480890 0.000000 
#    z 0.000000 0.000000 2.908050 
# 
# 
# High freq. dielectric constant tensor:
#      x y z
#    x 1.690990 0.000000 0.000000 
#    y 0.000000 1.663380 0.000000 
#    z 0.000000 0.000000 1.624900 
# 
# From -- ./inp_files/21840.got.cif
#   From: 2010.03.12/outbox.cif.g09.slc.cpg/sg69_11_cif.got.tgz:21840.got - 2010.04.10 23:52:46.
