data_PCOD8284111
_publ_section_title
;
Structure prediction by ZEFSAII (Michael W. Deem and Ramdas Pophale) SiO2 
 PCOD8284111
Probable space group: F M M M
;
_chemical_formula_sum "Si O2"
_cell_formula_units_Z 160
_cell_length_a 24.456525
_cell_length_b 23.836360
_cell_length_c 18.258113
_cell_angle_alpha 90.000000
_cell_angle_beta 90.000000
_cell_angle_gamma 90.000000
_cell_volume 10643.649760
_symmetry_space_group_name_H-M "F M M M"
_symmetry_group_IT_number 69
_symmetry_cell_setting 'orthorhombic'
loop_
_space_group_symop_operation_xyz
x,y,z
-x,-y,z
x,-y,-z
-x,y,-z
-x,-y,-z
x,y,-z
-x,y,z
x,-y,z
x,1/2+y,1/2+z
-x,1/2-y,1/2+z
x,1/2-y,1/2-z
-x,1/2+y,1/2-z
-x,1/2-y,1/2-z
x,1/2+y,1/2-z
-x,1/2+y,1/2+z
x,1/2-y,1/2+z
1/2+x,y,1/2+z
1/2-x,-y,1/2+z
1/2+x,-y,1/2-z
1/2-x,y,1/2-z
1/2-x,-y,1/2-z
1/2+x,y,1/2-z
1/2-x,y,1/2+z
1/2+x,-y,1/2+z
1/2+x,1/2+y,z
1/2-x,1/2-y,z
1/2+x,1/2-y,-z
1/2-x,1/2+y,-z
1/2-x,1/2-y,-z
1/2+x,1/2+y,-z
1/2-x,1/2+y,z
1/2+x,1/2-y,z
loop_
_atom_site_type_symbol
_atom_site_label
_atom_site_fract_x
_atom_site_fract_y
_atom_site_fract_z
Si Si1 0.229436 0.665540 0.913122
Si Si2 0.163464 0.061866 0.586685
Si Si3 0.438892 0.631895 0.583694
Si Si4 0.561301 0.252338 0.335748
Si Si5 0.835383 0.274806 0.413583
O O1 0.208757 0.605585 0.882081
O O2 0.187395 0.714078 0.888268
O O3 0.291244 0.678576 0.886578
O O4 0.229158 0.665569 0.000000
O O5 0.169248 0.058014 0.500000
O O6 0.102911 0.083326 0.607692
O O7 0.172599 0.000000 0.621407
O O8 0.426833 0.651533 0.500000
O O9 0.500000 0.607047 0.590576
O O10 0.431230 0.684533 0.636355
O O11 0.500000 0.230485 0.354618
O O12 0.572011 0.250000 0.250000
O O13 0.606508 0.213178 0.374898
O O14 0.844153 0.277997 0.500000
#
# Coordination Sequence:
#
# PCOD8284111 Si02
#       5
#    32  32  32  32  32
#     4   8  14  24  39  60  82 107 139 170 202 236
#     4   9  15  23  38  61  88 113 139 172 206 242
#     4   9  16  26  40  57  82 116 147 172 202 246
#     4  10  19  28  39  59  85 109 136 174 217 251
#     4   9  15  26  44  59  79 111 143 171 201 248
#
# _framework density 15.032437
#
# number of rings (size 3 to 8) (size 9 to 14) (size 15 to 20)
#    0.000    3.000    2.000    1.800    0.000    1.600 
#    0.000    4.000    0.000    0.000    0.000    2.800 
#    0.000    2.400    0.000    7.800    0.000    0.200 
#
# Total GULP energy -495642.170731 kJ/mol
# GULP energy per Si atom -12391.054268 kJ/mol
# Density = 1.499822 g / cm^3
# Si number density = 15.032437 Si / 1000 Ang^3
#
#
#
# Elastic Constant Matrix: (Units=GPa)
#
#
# Indices 1 2 3 4 5 6 
#
# 1 146.2785 58.5453 36.2219 0.0000 0.0000 0.0000
# 2 58.5453 97.0825 24.3746 0.0000 0.0000 0.0000
# 3 36.2219 24.3746 38.2556 0.0000 0.0000 0.0000
# 4 0.0000 0.0000 0.0000 5.0931 0.0000 0.0000
# 5 0.0000 0.0000 0.0000 0.0000 11.3704 0.0000
# 6 0.0000 0.0000 0.0000 0.0000 0.0000 21.5413
#
#
#
# Elastic Compliance Matrix: (Units=1/GPa)
#
#
# Indices 1 2 3 4 5 6 
#
# 1 0.010356 -0.004504 -0.006936 0.000000 0.000000 0.000000
# 2 -0.004504 0.014221 -0.004796 0.000000 0.000000 0.000000
# 3 -0.006936 -0.004796 0.035763 0.000000 0.000000 0.000000
# 4 0.000000 0.000000 0.000000 0.196345 0.000000 0.000000
# 5 0.000000 0.000000 0.000000 0.000000 0.087948 0.000000
# 6 0.000000 0.000000 0.000000 0.000000 0.000000 0.046422
#
#
# Mechanical properties :
#
#
# Convention : Reuss Voigt Hill
#
# Bulk Modulus (GPa) = 35.88369 57.76668 46.82519
# Shear Modulus (GPa) = 11.55218 18.43260 14.99239
#
# Velocity S-wave (km/s) = 2.77516 3.50550 3.16149
# Velocity P-wave (km/s) = 5.84734 7.40919 6.67411
#
# Compressibility (1/GPa) = 0.02786781
#
# Stress axis : x y z
#
# Youngs Moduli (GPa) = 96.55803 70.31938 27.96150
#
# Poissons Ratio (x) = 0.31672 0.19395
# Poissons Ratio (y) = 0.43489 0.13411
# Poissons Ratio (z) = 0.66975 0.33727
#
# Static dielectric constant tensor:
#      x y z
#    x 3.272820 0.000000 0.000000 
#    y 0.000000 2.975720 0.000000 
#    z 0.000000 0.000000 2.523350 
# 
# 
# High freq. dielectric constant tensor:
#      x y z
#    x 1.592310 0.000000 0.000000 
#    y 0.000000 1.542940 0.000000 
#    z 0.000000 0.000000 1.529130 
# 
# From -- ./inp_files/17973.got.cif
#   From: 2010.03.12/outbox.cif.g09.slc.cpg/sg69_9_cif.got.tgz:17973.got - 2010.04.10 23:52:46.
