data_PCOD8284211
_publ_section_title
;
Structure prediction by ZEFSAII (Michael W. Deem and Ramdas Pophale) SiO2 
 PCOD8284211
Probable space group: F M M M
;
_chemical_formula_sum "Si O2"
_cell_formula_units_Z 160
_cell_length_a 14.241299
_cell_length_b 22.718503
_cell_length_c 27.168230
_cell_angle_alpha 90.000000
_cell_angle_beta 90.000000
_cell_angle_gamma 90.000000
_cell_volume 8790.036141
_symmetry_space_group_name_H-M "F M M M"
_symmetry_group_IT_number 69
_symmetry_cell_setting 'orthorhombic'
loop_
_space_group_symop_operation_xyz
x,y,z
-x,-y,z
x,-y,-z
-x,y,-z
-x,-y,-z
x,y,-z
-x,y,z
x,-y,z
x,1/2+y,1/2+z
-x,1/2-y,1/2+z
x,1/2-y,1/2-z
-x,1/2+y,1/2-z
-x,1/2-y,1/2-z
x,1/2+y,1/2-z
-x,1/2+y,1/2+z
x,1/2-y,1/2+z
1/2+x,y,1/2+z
1/2-x,-y,1/2+z
1/2+x,-y,1/2-z
1/2-x,y,1/2-z
1/2-x,-y,1/2-z
1/2+x,y,1/2-z
1/2-x,y,1/2+z
1/2+x,-y,1/2+z
1/2+x,1/2+y,z
1/2-x,1/2-y,z
1/2+x,1/2-y,-z
1/2-x,1/2+y,-z
1/2-x,1/2-y,-z
1/2+x,1/2+y,-z
1/2-x,1/2+y,z
1/2+x,1/2-y,z
loop_
_atom_site_type_symbol
_atom_site_label
_atom_site_fract_x
_atom_site_fract_y
_atom_site_fract_z
Si Si1 0.606072 0.735526 0.804721
Si Si2 0.141821 0.564349 0.262019
Si Si3 0.610524 0.066652 0.444412
Si Si4 0.600666 0.365949 0.669950
Si Si5 0.693540 0.874244 0.645624
O O1 0.500000 0.709342 0.802208
O O2 0.644801 0.750000 0.750000
O O3 0.605536 0.795997 0.834548
O O4 0.676042 0.691803 0.834013
O O5 0.094854 0.500000 0.254863
O O6 0.250000 0.561410 0.250000
O O7 0.094460 0.612723 0.226919
O O8 0.132842 0.583260 0.318897
O O9 0.643667 0.080030 0.500000
O O10 0.500000 0.074057 0.440261
O O11 0.658758 0.115159 0.409616
O O12 0.640000 0.000000 0.429732
O O13 0.500000 0.386257 0.645572
O O14 0.695022 0.391047 0.644901
#
# Coordination Sequence:
#
# PCOD8284211 Si02
#       5
#    32  32  32  32  32
#     4  10  19  31  49  74 104 137 177 217 256 307
#     4   9  18  30  44  66  97 134 173 209 247 297
#     4   9  19  36  57  82 108 130 163 219 276 317
#     4  10  21  33  45  69 107 143 174 210 249 300
#     4  11  19  31  55  76  99 137 177 212 259 315
#
# _framework density 18.202428000000001
#
# number of rings (size 3 to 8) (size 9 to 14) (size 15 to 20)
#    0.000    2.200    2.000    2.400    0.000    2.800 
#    0.000    0.000    0.000    3.000    0.000    4.200 
#    0.000    0.000    0.000    0.000    0.000    0.000 
#
# Total GULP energy -495613.303451 kJ/mol
# GULP energy per Si atom -12390.332586 kJ/mol
# Density = 1.816100 g / cm^3
# Si number density = 18.202428 Si / 1000 Ang^3
#
#
#
# Elastic Constant Matrix: (Units=GPa)
#
#
# Indices 1 2 3 4 5 6 
#
# 1 95.5407 22.8285 34.3221 0.0000 0.0000 0.0000
# 2 22.8285 90.2734 37.1547 0.0000 0.0000 0.0000
# 3 34.3221 37.1547 97.4900 0.0000 0.0000 0.0000
# 4 0.0000 0.0000 0.0000 26.8195 0.0000 0.0000
# 5 0.0000 0.0000 0.0000 0.0000 16.7387 0.0000
# 6 0.0000 0.0000 0.0000 0.0000 0.0000 7.7696
#
#
#
# Elastic Compliance Matrix: (Units=1/GPa)
#
#
# Indices 1 2 3 4 5 6 
#
# 1 0.012164 -0.001558 -0.003689 0.000000 0.000000 0.000000
# 2 -0.001558 0.013338 -0.004535 0.000000 0.000000 0.000000
# 3 -0.003689 -0.004535 0.013284 0.000000 0.000000 0.000000
# 4 0.000000 0.000000 0.000000 0.037286 0.000000 0.000000
# 5 0.000000 0.000000 0.000000 0.000000 0.059742 0.000000
# 6 0.000000 0.000000 0.000000 0.000000 0.000000 0.128706
#
#
# Mechanical properties :
#
#
# Convention : Reuss Voigt Hill
#
# Bulk Modulus (GPa) = 52.01947 52.43497 52.22722
# Shear Modulus (GPa) = 17.21224 22.86550 20.03887
#
# Velocity S-wave (km/s) = 3.07840 3.54811 3.32157
# Velocity P-wave (km/s) = 6.42462 6.75681 6.59281
#
# Compressibility (1/GPa) = 0.01922357
#
# Stress axis : x y z
#
# Youngs Moduli (GPa) = 82.20896 74.97464 75.27646
#
# Poissons Ratio (x) = 0.11680 0.27768
# Poissons Ratio (y) = 0.12807 0.34136
# Poissons Ratio (z) = 0.30325 0.33999
#
# Static dielectric constant tensor:
#      x y z
#    x 3.544440 0.000000 0.000000 
#    y 0.000000 3.453000 0.000000 
#    z 0.000000 0.000000 3.007510 
# 
# 
# High freq. dielectric constant tensor:
#      x y z
#    x 1.713570 0.000000 0.000000 
#    y 0.000000 1.704330 0.000000 
#    z 0.000000 0.000000 1.647940 
# 
# From -- ./inp_files/17705.got.cif
#   From: 2010.03.12/outbox.cif.g09.slc.cpg/sg69_9_cif.got.tgz:17705.got - 2010.04.10 23:52:46.
