data_PCOD8284431
_publ_section_title
;
Structure prediction by ZEFSAII (Michael W. Deem and Ramdas Pophale) SiO2 
 PCOD8284431
Probable space group: F M M M
;
_chemical_formula_sum "Si O2"
_cell_formula_units_Z 192
_cell_length_a 24.877724
_cell_length_b 16.107417
_cell_length_c 22.689798
_cell_angle_alpha 90.000000
_cell_angle_beta 90.000000
_cell_angle_gamma 90.000000
_cell_volume 9092.162247
_symmetry_space_group_name_H-M "F M M M"
_symmetry_group_IT_number 69
_symmetry_cell_setting 'orthorhombic'
loop_
_space_group_symop_operation_xyz
x,y,z
-x,-y,z
x,-y,-z
-x,y,-z
-x,-y,-z
x,y,-z
-x,y,z
x,-y,z
x,1/2+y,1/2+z
-x,1/2-y,1/2+z
x,1/2-y,1/2-z
-x,1/2+y,1/2-z
-x,1/2-y,1/2-z
x,1/2+y,1/2-z
-x,1/2+y,1/2+z
x,1/2-y,1/2+z
1/2+x,y,1/2+z
1/2-x,-y,1/2+z
1/2+x,-y,1/2-z
1/2-x,y,1/2-z
1/2-x,-y,1/2-z
1/2+x,y,1/2-z
1/2-x,y,1/2+z
1/2+x,-y,1/2+z
1/2+x,1/2+y,z
1/2-x,1/2-y,z
1/2+x,1/2-y,-z
1/2-x,1/2+y,-z
1/2-x,1/2-y,-z
1/2+x,1/2+y,-z
1/2-x,1/2+y,z
1/2+x,1/2-y,z
loop_
_atom_site_type_symbol
_atom_site_label
_atom_site_fract_x
_atom_site_fract_y
_atom_site_fract_z
Si Si1 0.000000 0.158223 0.725363
Si Si2 0.680627 0.401413 0.433476
Si Si3 0.306559 0.404289 0.234968
Si Si4 0.107652 0.901157 0.673455
Si Si5 0.703203 0.404277 0.100295
Si Si6 0.592018 0.597649 0.064593
Si Si7 0.000000 0.595652 0.354073
O O1 0.000000 0.250000 0.750000
O O2 0.050480 0.142059 0.682946
O O3 0.000000 0.100687 0.783506
O O4 0.666307 0.372809 0.500000
O O5 0.683690 0.500000 0.428864
O O6 0.634195 0.371123 0.388432
O O7 0.738999 0.362659 0.414644
O O8 0.302506 0.500000 0.254592
O O9 0.250000 0.360039 0.250000
O O10 0.354768 0.366734 0.273604
O O11 0.316959 0.392551 0.166716
O O12 0.099545 0.000000 0.675238
O O13 0.710614 0.500000 0.083387
O O14 0.652730 0.363963 0.065505
O O15 0.598894 0.500000 0.076629
O O16 0.552997 0.636086 0.115105
O O17 0.567035 0.615193 0.000000
O O18 0.000000 0.500000 0.372440
#
# Coordination Sequence:
#
# PCOD8284431 Si02
#       7
#    16  32  32  32  32  32  16
#     4  12  26  41  56  74 100 133 173 224 277 318
#     4   9  16  26  44  74 110 142 172 211 259 308
#     4   9  14  23  43  76 110 137 169 210 255 301
#     4  10  19  34  56  81 108 138 176 217 261 312
#     4   9  14  21  36  67 111 147 168 200 257 313
#     4   9  16  25  42  73 111 142 168 205 252 307
#     4  10  19  34  54  76 101 134 174 214 262 316
#
# _framework density 21.117089
#
# number of rings (size 3 to 8) (size 9 to 14) (size 15 to 20)
#    0.000    2.500    1.667    2.500    0.000    5.667 
#    0.000    0.417    0.000    4.500    0.000    0.000 
#    0.000    4.333    0.000    0.000    0.000    0.000 
#
# Total GULP energy -594716.174343 kJ/mol
# GULP energy per Si atom -12389.920299 kJ/mol
# Density = 2.106903 g / cm^3
# Si number density = 21.117089 Si / 1000 Ang^3
#
#
#
# Elastic Constant Matrix: (Units=GPa)
#
#
# Indices 1 2 3 4 5 6 
#
# 1 192.5162 17.0857 91.4909 0.0000 0.0000 0.0000
# 2 17.0857 15.7534 9.2030 0.0000 0.0000 0.0000
# 3 91.4909 9.2030 121.8991 0.0000 0.0000 0.0000
# 4 0.0000 0.0000 0.0000 6.0436 0.0000 0.0000
# 5 0.0000 0.0000 0.0000 0.0000 38.9291 0.0000
# 6 0.0000 0.0000 0.0000 0.0000 0.0000 -0.3360
#
#
#
# Elastic Compliance Matrix: (Units=1/GPa)
#
#
# Indices 1 2 3 4 5 6 
#
# 1 0.008549 -0.005779 -0.005980 0.000000 0.000000 0.000000
# 2 -0.005779 0.070313 -0.000971 0.000000 0.000000 0.000000
# 3 -0.005980 -0.000971 0.012765 0.000000 0.000000 0.000000
# 4 0.000000 0.000000 0.000000 0.165463 0.000000 0.000000
# 5 0.000000 0.000000 0.000000 0.000000 0.025688 0.000000
# 6 0.000000 0.000000 0.000000 0.000000 0.000000 -2.976623
#
#
# Mechanical properties :
#
#
# Convention : Reuss Voigt Hill
#
# Bulk Modulus (GPa) = 15.11323 62.85864 38.98594
# Shear Modulus (GPa) = -1.88941 23.08663 10.59861
#
# Velocity S-wave (km/s) = -0.94693 3.31005 2.24274
# Velocity P-wave (km/s) = 2.44476 6.66632 5.02079
#
# Compressibility (1/GPa) = 0.06616718
#
# Stress axis : x y z
#
# Youngs Moduli (GPa) = 116.96824 14.22210 78.33679
#
# Poissons Ratio (x) = 0.08218 0.46848
# Poissons Ratio (y) = 0.67592 0.07608
# Poissons Ratio (z) = 0.69952 0.01381
#
# Static dielectric constant tensor:
#      x y z
#    x 4.117070 0.000000 0.000000 
#    y 0.000000 2.949850 0.000000 
#    z 0.000000 0.000000 3.940960 
# 
# 
# High freq. dielectric constant tensor:
#      x y z
#    x 1.841960 0.000000 0.000000 
#    y 0.000000 1.735470 0.000000 
#    z 0.000000 0.000000 1.835490 
# 
# From -- ./inp_files/38376.got.cif
#   From: 2010.03.12/outbox.cif.g09.slc.cpg/sg69_20_cif.got.tgz:38376.got - 2010.04.10 23:52:46.
