data_PCOD8284818
_publ_section_title
;
Structure prediction by ZEFSAII (Michael W. Deem and Ramdas Pophale) SiO2 
 PCOD8284818
Probable space group: F M M M
;
_chemical_formula_sum "Si O2"
_cell_formula_units_Z 144
_cell_length_a 26.958733
_cell_length_b 8.723917
_cell_length_c 32.091922
_cell_angle_alpha 90.000000
_cell_angle_beta 90.000000
_cell_angle_gamma 90.000000
_cell_volume 7547.562716
_symmetry_space_group_name_H-M "F M M M"
_symmetry_group_IT_number 69
_symmetry_cell_setting 'orthorhombic'
loop_
_space_group_symop_operation_xyz
x,y,z
-x,-y,z
x,-y,-z
-x,y,-z
-x,-y,-z
x,y,-z
-x,y,z
x,-y,z
x,1/2+y,1/2+z
-x,1/2-y,1/2+z
x,1/2-y,1/2-z
-x,1/2+y,1/2-z
-x,1/2-y,1/2-z
x,1/2+y,1/2-z
-x,1/2+y,1/2+z
x,1/2-y,1/2+z
1/2+x,y,1/2+z
1/2-x,-y,1/2+z
1/2+x,-y,1/2-z
1/2-x,y,1/2-z
1/2-x,-y,1/2-z
1/2+x,y,1/2-z
1/2-x,y,1/2+z
1/2+x,-y,1/2+z
1/2+x,1/2+y,z
1/2-x,1/2-y,z
1/2+x,1/2-y,-z
1/2-x,1/2+y,-z
1/2-x,1/2-y,-z
1/2+x,1/2+y,-z
1/2-x,1/2+y,z
1/2+x,1/2-y,z
loop_
_atom_site_type_symbol
_atom_site_label
_atom_site_fract_x
_atom_site_fract_y
_atom_site_fract_z
Si Si1 0.943414 0.320123 0.621524
Si Si2 0.100697 0.323614 0.293190
Si Si3 0.195410 0.181504 0.000000
Si Si4 0.301095 0.679495 0.839197
Si Si5 0.648490 0.181010 0.081447
O O1 0.930049 0.500000 0.618393
O O2 0.933120 0.262165 0.668715
O O3 0.908541 0.227573 0.589958
O O4 0.000000 0.286694 0.609233
O O5 0.090313 0.500000 0.287197
O O6 0.084367 0.250000 0.250000
O O7 0.158203 0.289200 0.303555
O O8 0.250000 0.250000 0.000000
O O9 0.165229 0.236338 0.039828
O O10 0.199614 0.000000 0.000000
O O11 0.295799 0.500000 0.848714
O O12 0.250000 0.750000 0.822316
O O13 0.315934 0.764419 0.881526
O O14 0.652967 0.000000 0.076068
#
# Coordination Sequence:
#
# PCOD8284818 Si02
#       5
#    32  32  16  32  32
#     4   9  19  38  60  80 107 145 184 223 273 328
#     4   9  19  33  50  75 107 141 180 226 272 323
#     4  12  24  40  61  86 117 150 182 217 263 315
#     4  10  20  35  53  75 105 144 185 223 271 327
#     4  11  22  37  57  84 114 142 179 225 270 318
#
# _framework density 19.079007000000001
#
# number of rings (size 3 to 8) (size 9 to 14) (size 15 to 20)
#    0.000    2.000    0.000    5.667    0.000    5.778 
#    0.000    2.778    0.000    3.333    0.000    0.000 
#    0.000    0.000    0.000    0.000    0.000    0.000 
#
# Total GULP energy -446452.414359 kJ/mol
# GULP energy per Si atom -12401.455954 kJ/mol
# Density = 1.903558 g / cm^3
# Si number density = 19.079007 Si / 1000 Ang^3
#
#
#
# Elastic Constant Matrix: (Units=GPa)
#
#
# Indices 1 2 3 4 5 6 
#
# 1 97.6644 39.6104 28.8165 0.0002 0.0003 -0.0011
# 2 39.6104 113.5651 42.8970 0.0002 0.0003 -0.0015
# 3 28.8165 42.8970 108.8357 0.0000 0.0001 -0.0002
# 4 0.0002 0.0002 0.0000 33.0068 0.0001 -0.0002
# 5 0.0003 0.0003 0.0001 0.0001 13.8642 -0.0003
# 6 -0.0011 -0.0015 -0.0002 -0.0002 -0.0003 31.4219
#
#
#
# Elastic Compliance Matrix: (Units=1/GPa)
#
#
# Indices 1 2 3 4 5 6 
#
# 1 0.012228 -0.003574 -0.001829 0.000000 0.000000 0.000000
# 2 -0.003574 0.011391 -0.003543 0.000000 0.000000 0.000000
# 3 -0.001829 -0.003543 0.011069 0.000000 0.000000 0.000000
# 4 0.000000 0.000000 0.000000 0.030297 0.000000 0.000000
# 5 0.000000 0.000000 0.000000 0.000000 0.072128 0.000001
# 6 0.000000 0.000000 0.000000 0.000000 0.000001 0.031825
#
#
# Mechanical properties :
#
#
# Convention : Reuss Voigt Hill
#
# Bulk Modulus (GPa) = 59.54112 60.30146 59.92129
# Shear Modulus (GPa) = 25.98359 29.57466 27.77912
#
# Velocity S-wave (km/s) = 3.69439 3.94142 3.81990
# Velocity P-wave (km/s) = 7.03373 7.23795 7.13657
#
# Compressibility (1/GPa) = 0.01679511
#
# Stress axis : x y z
#
# Youngs Moduli (GPa) = 81.77652 87.79195 90.34295
#
# Poissons Ratio (x) = 0.31380 0.16523
# Poissons Ratio (y) = 0.29230 0.32010
# Poissons Ratio (z) = 0.14956 0.31106
#
# Static dielectric constant tensor:
#      x y z
#    x 3.420310 0.000000 0.000000 
#    y 0.000000 3.497230 0.000000 
#    z 0.000000 0.000000 3.517080 
# 
# 
# High freq. dielectric constant tensor:
#      x y z
#    x 1.745750 0.000000 0.000000 
#    y 0.000000 1.745310 0.000000 
#    z 0.000000 0.000000 1.733910 
# 
# From -- ./inp_files/5534.got.cif
#   From: 2010.03.12/outbox.cif.g09.slc.cpg/sg69_3_cif.got.tgz:5534.got - 2010.04.10 23:52:46.
