data_PCOD8284970
_publ_section_title
;
Structure prediction by ZEFSAII (Michael W. Deem and Ramdas Pophale) SiO2 
 PCOD8284970
Probable space group: F M M M
;
_chemical_formula_sum "Si O2"
_cell_formula_units_Z 176
_cell_length_a 24.024122
_cell_length_b 21.125106
_cell_length_c 17.778686
_cell_angle_alpha 90.000000
_cell_angle_beta 90.000000
_cell_angle_gamma 90.000000
_cell_volume 9022.898690
_symmetry_space_group_name_H-M "F M M M"
_symmetry_group_IT_number 69
_symmetry_cell_setting 'orthorhombic'
loop_
_space_group_symop_operation_xyz
x,y,z
-x,-y,z
x,-y,-z
-x,y,-z
-x,-y,-z
x,y,-z
-x,y,z
x,-y,z
x,1/2+y,1/2+z
-x,1/2-y,1/2+z
x,1/2-y,1/2-z
-x,1/2+y,1/2-z
-x,1/2-y,1/2-z
x,1/2+y,1/2-z
-x,1/2+y,1/2+z
x,1/2-y,1/2+z
1/2+x,y,1/2+z
1/2-x,-y,1/2+z
1/2+x,-y,1/2-z
1/2-x,y,1/2-z
1/2-x,-y,1/2-z
1/2+x,y,1/2-z
1/2-x,y,1/2+z
1/2+x,-y,1/2+z
1/2+x,1/2+y,z
1/2-x,1/2-y,z
1/2+x,1/2-y,-z
1/2-x,1/2+y,-z
1/2-x,1/2-y,-z
1/2+x,1/2+y,-z
1/2-x,1/2+y,z
1/2+x,1/2-y,z
loop_
_atom_site_type_symbol
_atom_site_label
_atom_site_fract_x
_atom_site_fract_y
_atom_site_fract_z
Si Si1 0.436177 0.129085 0.913889
Si Si2 0.933977 0.000000 0.087030
Si Si3 0.256228 0.573486 0.085250
Si Si4 0.654260 0.073339 0.187273
Si Si5 0.132634 0.116152 0.850140
Si Si6 0.936264 0.225723 0.913242
O O1 0.500000 0.119749 0.890706
O O2 0.400598 0.082999 0.862128
O O3 0.418269 0.201767 0.901777
O O4 0.426849 0.109142 0.000000
O O5 0.910827 0.938194 0.127961
O O6 0.000000 0.000000 0.094835
O O7 0.915223 0.000000 0.000000
O O8 0.270050 0.500000 0.099905
O O9 0.207768 0.597203 0.140656
O O10 0.312104 0.612834 0.099420
O O11 0.235987 0.584889 0.000000
O O12 0.650356 0.112772 0.263466
O O13 0.660292 0.000000 0.207951
O O14 0.103781 0.183623 0.862119
O O15 0.000000 0.215816 0.887771
O O16 0.929807 0.205361 0.000000
#
# Coordination Sequence:
#
# PCOD8284970 Si02
#       6
#    32  16  32  32  32  32
#     4   9  20  40  62  82 109 149 196 242 285 335
#     4  11  22  34  51  80 117 153 189 226 266 324
#     4  10  20  36  59  81 109 151 198 237 279 337
#     4  11  23  38  55  85 118 151 185 238 291 340
#     4  12  21  35  56  85 118 152 183 230 288 342
#     4   9  19  37  60  84 112 150 194 235 279 338
#
# _framework density 19.505925999999999
#
# number of rings (size 3 to 8) (size 9 to 14) (size 15 to 20)
#    0.000    1.727    1.818    4.364    0.000    6.545 
#    0.000    3.636    0.000    5.455    0.000    0.000 
#    0.000    0.000    0.000    0.000    0.000    0.000 
#
# Total GULP energy -545820.353337 kJ/mol
# GULP energy per Si atom -12405.008030 kJ/mol
# Density = 1.946153 g / cm^3
# Si number density = 19.505926 Si / 1000 Ang^3
#
#
#
# Elastic Constant Matrix: (Units=GPa)
#
#
# Indices 1 2 3 4 5 6 
#
# 1 87.9232 14.9322 39.4424 0.0000 0.0000 0.0000
# 2 14.9322 19.9121 10.7122 0.0000 0.0000 0.0000
# 3 39.4424 10.7122 97.2528 0.0000 0.0000 0.0000
# 4 0.0000 0.0000 0.0000 28.5827 0.0000 0.0000
# 5 0.0000 0.0000 0.0000 0.0000 21.6708 0.0000
# 6 0.0000 0.0000 0.0000 0.0000 0.0000 25.4504
#
#
#
# Elastic Compliance Matrix: (Units=1/GPa)
#
#
# Indices 1 2 3 4 5 6 
#
# 1 0.015165 -0.008571 -0.005206 0.000000 0.000000 0.000000
# 2 -0.008571 0.058229 -0.002938 0.000000 0.000000 0.000000
# 3 -0.005206 -0.002938 0.012717 0.000000 0.000000 0.000000
# 4 0.000000 0.000000 0.000000 0.034986 0.000000 0.000000
# 5 0.000000 0.000000 0.000000 0.000000 0.046145 0.000000
# 6 0.000000 0.000000 0.000000 0.000000 0.000000 0.039292
#
#
# Mechanical properties :
#
#
# Convention : Reuss Voigt Hill
#
# Bulk Modulus (GPa) = 18.98220 37.25129 28.11675
# Shear Modulus (GPa) = 19.41560 24.47420 21.94490
#
# Velocity S-wave (km/s) = 3.15837 3.54603 3.35780
# Velocity P-wave (km/s) = 4.80136 5.99205 5.42944
#
# Compressibility (1/GPa) = 0.05268092
#
# Stress axis : x y z
#
# Youngs Moduli (GPa) = 65.94243 17.17362 78.63190
#
# Poissons Ratio (x) = 0.14720 0.40937
# Poissons Ratio (y) = 0.56522 0.23098
# Poissons Ratio (z) = 0.34331 0.05045
#
# Static dielectric constant tensor:
#      x y z
#    x 3.570570 0.000000 0.000000 
#    y 0.000000 3.346910 0.000000 
#    z 0.000000 0.000000 3.572980 
# 
# 
# High freq. dielectric constant tensor:
#      x y z
#    x 1.767540 0.000000 0.000000 
#    y 0.000000 1.737720 0.000000 
#    z 0.000000 0.000000 1.764430 
# 
# From -- ./inp_files/17910.got.cif
#   From: 2010.03.12/outbox.cif.g09.slc.cpg/sg69_9_cif.got.tgz:17910.got - 2010.04.10 23:52:46.
