data_PCOD8284996
_publ_section_title
;
Structure prediction by ZEFSAII (Michael W. Deem and Ramdas Pophale) SiO2 
 PCOD8284996
Probable space group: F M M M
;
_chemical_formula_sum "Si O2"
_cell_formula_units_Z 160
_cell_length_a 28.797565
_cell_length_b 16.850219
_cell_length_c 15.971498
_cell_angle_alpha 90.000000
_cell_angle_beta 90.000000
_cell_angle_gamma 90.000000
_cell_volume 7750.093970
_symmetry_space_group_name_H-M "F M M M"
_symmetry_group_IT_number 69
_symmetry_cell_setting 'orthorhombic'
loop_
_space_group_symop_operation_xyz
x,y,z
-x,-y,z
x,-y,-z
-x,y,-z
-x,-y,-z
x,y,-z
-x,y,z
x,-y,z
x,1/2+y,1/2+z
-x,1/2-y,1/2+z
x,1/2-y,1/2-z
-x,1/2+y,1/2-z
-x,1/2-y,1/2-z
x,1/2+y,1/2-z
-x,1/2+y,1/2+z
x,1/2-y,1/2+z
1/2+x,y,1/2+z
1/2-x,-y,1/2+z
1/2+x,-y,1/2-z
1/2-x,y,1/2-z
1/2-x,-y,1/2-z
1/2+x,y,1/2-z
1/2-x,y,1/2+z
1/2+x,-y,1/2+z
1/2+x,1/2+y,z
1/2-x,1/2-y,z
1/2+x,1/2-y,-z
1/2-x,1/2+y,-z
1/2-x,1/2-y,-z
1/2+x,1/2+y,-z
1/2-x,1/2+y,z
1/2+x,1/2-y,z
loop_
_atom_site_type_symbol
_atom_site_label
_atom_site_fract_x
_atom_site_fract_y
_atom_site_fract_z
Si Si1 0.446989 0.670428 0.300468
Si Si2 0.881632 0.905105 0.000000
Si Si3 0.550366 0.591048 0.136506
Si Si4 0.721893 0.904928 0.500000
Si Si5 0.871148 0.091896 0.596964
Si Si6 0.772197 0.093466 0.335561
O O1 0.500000 0.674191 0.333773
O O2 0.433659 0.750000 0.250000
O O3 0.439103 0.599299 0.234514
O O4 0.413081 0.650888 0.377569
O O5 0.908978 0.870725 0.919238
O O6 0.830179 0.870333 0.000000
O O7 0.878454 0.000000 0.000000
O O8 0.500000 0.631560 0.116650
O O9 0.547198 0.500000 0.111877
O O10 0.746099 0.870631 0.583453
O O11 0.723988 0.000000 0.500000
O O12 0.858409 0.107439 0.500000
O O13 0.826863 0.112574 0.655422
O O14 0.885791 0.000000 0.609094
O O15 0.750000 0.129959 0.250000
O O16 0.763964 0.000000 0.334766
#
# Coordination Sequence:
#
# PCOD8284996 Si02
#       6
#    32  16  32  16  32  32
#     4  10  22  39  55  77 109 145 186 227 275 340
#     4   9  17  26  45  77 108 134 166 213 273 332
#     4   9  17  31  51  76 105 134 171 223 276 326
#     4   9  16  27  42  74 113 137 174 227 276 339
#     4  10  20  36  60  88 116 146 188 241 290 337
#     4   9  17  29  49  79 115 149 180 228 290 339
#
# _framework density 20.644911
#
# number of rings (size 3 to 8) (size 9 to 14) (size 15 to 20)
#    0.000    2.600    1.000    0.900    2.800    2.800 
#    1.800    1.000    0.000    0.600    0.000    2.800 
#    0.000    0.000    0.000    0.000    0.000    0.000 
#
# Total GULP energy -495723.297748 kJ/mol
# GULP energy per Si atom -12393.082444 kJ/mol
# Density = 2.059792 g / cm^3
# Si number density = 20.644911 Si / 1000 Ang^3
#
#
#
# Elastic Constant Matrix: (Units=GPa)
#
#
# Indices 1 2 3 4 5 6 
#
# 1 137.0114 29.8192 67.7176 0.0000 0.0000 0.0000
# 2 29.8192 28.5033 18.1955 0.0000 0.0000 0.0000
# 3 67.7176 18.1955 127.4764 0.0000 0.0000 0.0000
# 4 0.0000 0.0000 0.0000 17.2143 0.0000 0.0000
# 5 0.0000 0.0000 0.0000 0.0000 43.7318 0.0000
# 6 0.0000 0.0000 0.0000 0.0000 0.0000 9.9173
#
#
#
# Elastic Compliance Matrix: (Units=1/GPa)
#
#
# Indices 1 2 3 4 5 6 
#
# 1 0.011715 -0.009114 -0.004922 0.000000 0.000000 0.000000
# 2 -0.009114 0.045691 -0.001680 0.000000 0.000000 0.000000
# 3 -0.004922 -0.001680 0.010699 0.000000 0.000000 0.000000
# 4 0.000000 0.000000 0.000000 0.058091 0.000000 0.000000
# 5 0.000000 0.000000 0.000000 0.000000 0.022867 0.000000
# 6 0.000000 0.000000 0.000000 0.000000 0.000000 0.100834
#
#
# Mechanical properties :
#
#
# Convention : Reuss Voigt Hill
#
# Bulk Modulus (GPa) = 27.26862 58.27285 42.77073
# Shear Modulus (GPa) = 17.03268 25.98993 21.51130
#
# Velocity S-wave (km/s) = 2.87545 3.55195 3.23145
# Velocity P-wave (km/s) = 4.92558 6.71635 5.88943
#
# Compressibility (1/GPa) = 0.03667219
#
# Stress axis : x y z
#
# Youngs Moduli (GPa) = 85.36059 21.88632 93.46411
#
# Poissons Ratio (x) = 0.19946 0.46006
# Poissons Ratio (y) = 0.77794 0.15706
# Poissons Ratio (z) = 0.42018 0.03678
#
# Static dielectric constant tensor:
#      x y z
#    x 3.898100 0.000000 0.000000 
#    y 0.000000 3.167700 0.000000 
#    z 0.000000 0.000000 3.893830 
# 
# 
# High freq. dielectric constant tensor:
#      x y z
#    x 1.815340 0.000000 0.000000 
#    y 0.000000 1.749480 0.000000 
#    z 0.000000 0.000000 1.808720 
# 
# From -- ./inp_files/15693.got.cif
#   From: 2010.03.12/outbox.cif.g09.slc.cpg/sg69_8_cif.got.tgz:15693.got - 2010.04.10 23:52:46.
