data_PCOD8284281
_publ_section_title
;
Structure prediction by ZEFSAII (Michael W. Deem and Ramdas Pophale) SiO2 
 PCOD8284281
Probable space group: F M M M
;
_chemical_formula_sum "Si O2"
_cell_formula_units_Z 240
_cell_length_a 28.554027
_cell_length_b 14.155987
_cell_length_c 32.117212
_cell_angle_alpha 90.000000
_cell_angle_beta 90.000000
_cell_angle_gamma 90.000000
_cell_volume 12982.112234
_symmetry_space_group_name_H-M "F M M M"
_symmetry_group_IT_number 69
_symmetry_cell_setting 'orthorhombic'
loop_
_space_group_symop_operation_xyz
x,y,z
-x,-y,z
x,-y,-z
-x,y,-z
-x,-y,-z
x,y,-z
-x,y,z
x,-y,z
x,1/2+y,1/2+z
-x,1/2-y,1/2+z
x,1/2-y,1/2-z
-x,1/2+y,1/2-z
-x,1/2-y,1/2-z
x,1/2+y,1/2-z
-x,1/2+y,1/2+z
x,1/2-y,1/2+z
1/2+x,y,1/2+z
1/2-x,-y,1/2+z
1/2+x,-y,1/2-z
1/2-x,y,1/2-z
1/2-x,-y,1/2-z
1/2+x,y,1/2-z
1/2-x,y,1/2+z
1/2+x,-y,1/2+z
1/2+x,1/2+y,z
1/2-x,1/2-y,z
1/2+x,1/2-y,-z
1/2-x,1/2+y,-z
1/2-x,1/2-y,-z
1/2+x,1/2+y,-z
1/2-x,1/2+y,z
1/2+x,1/2-y,z
loop_
_atom_site_type_symbol
_atom_site_label
_atom_site_fract_x
_atom_site_fract_y
_atom_site_fract_z
Si Si1 0.840202 0.604417 0.953099
Si Si2 0.076053 0.611933 0.613081
Si Si3 0.353337 0.111817 0.744890
Si Si4 0.195295 0.250637 0.191392
Si Si5 0.770780 0.395440 0.546911
Si Si6 0.500000 0.612240 0.952438
Si Si7 0.665390 0.771716 0.600838
Si Si8 0.051297 0.388457 0.704276
O O1 0.857280 0.500000 0.938979
O O2 0.784593 0.610100 0.950482
O O3 0.860312 0.684492 0.922547
O O4 0.857476 0.624128 0.000000
O O5 0.075289 0.500000 0.614168
O O6 0.128597 0.645513 0.606832
O O7 0.058491 0.653242 0.657580
O O8 0.044837 0.647868 0.574104
O O9 0.324524 0.147754 0.704574
O O10 0.332925 0.166584 0.784716
O O11 0.407916 0.140631 0.736914
O O12 0.346387 0.000000 0.750615
O O13 0.250000 0.250000 0.202611
O O14 0.186849 0.268600 0.143188
O O15 0.788006 0.376432 0.500000
O O16 0.787411 0.500000 0.561172
O O17 0.791724 0.313916 0.575136
O O18 0.500000 0.500000 0.955343
O O19 0.500000 0.653751 0.000000
O O20 0.052678 0.500000 0.699785
O O21 0.000000 0.354928 0.720858
#
# Coordination Sequence:
#
# PCOD8284281 Si02
#       8
#    32  32  32  32  32  16  32  32
#     4   9  19  35  51  69  99 141 186 226 263 302
#     4  10  19  32  51  78 111 140 168 208 260 328
#     4  10  21  39  58  76 105 142 181 227 278 333
#     4  11  24  37  51  78 113 145 187 231 269 327
#     4   9  18  32  50  75 106 137 173 219 269 318
#     4   9  18  32  50  76 116 153 169 195 265 351
#     4  12  21  32  53  78 108 140 181 227 265 312
#     4   9  16  32  60  84 102 133 172 215 272 333
#
# _framework density 18.486975999999999
#
# number of rings (size 3 to 8) (size 9 to 14) (size 15 to 20)
#    0.000    2.067    2.000    3.600    0.000    4.267 
#    0.000    2.667    1.467    0.000    0.000    0.467 
#    0.000    1.600    0.000    0.000    0.000    0.000 
#
# Total GULP energy -743628.947795 kJ/mol
# GULP energy per Si atom -12393.815797 kJ/mol
# Density = 1.844490 g / cm^3
# Si number density = 18.486976 Si / 1000 Ang^3
#
#
#
# Elastic Constant Matrix: (Units=GPa)
#
#
# Indices 1 2 3 4 5 6 
#
# 1 97.0001 16.7391 30.8862 0.0000 0.0000 0.0000
# 2 16.7391 70.3750 40.0231 0.0000 0.0000 0.0000
# 3 30.8862 40.0231 104.3916 0.0000 0.0000 0.0000
# 4 0.0000 0.0000 0.0000 16.9747 0.0000 0.0000
# 5 0.0000 0.0000 0.0000 0.0000 13.7782 0.0000
# 6 0.0000 0.0000 0.0000 0.0000 0.0000 14.5204
#
#
#
# Elastic Compliance Matrix: (Units=1/GPa)
#
#
# Indices 1 2 3 4 5 6 
#
# 1 0.011438 -0.001018 -0.002994 0.000000 0.000000 0.000000
# 2 -0.001018 0.018262 -0.006700 0.000000 0.000000 0.000000
# 3 -0.002994 -0.006700 0.013034 0.000000 0.000000 0.000000
# 4 0.000000 0.000000 0.000000 0.058911 0.000000 0.000000
# 5 0.000000 0.000000 0.000000 0.000000 0.072579 0.000000
# 6 0.000000 0.000000 0.000000 0.000000 0.000000 0.068869
#
#
# Mechanical properties :
#
#
# Convention : Reuss Voigt Hill
#
# Bulk Modulus (GPa) = 46.92658 49.67371 48.30015
# Shear Modulus (GPa) = 18.40798 21.32920 19.86859
#
# Velocity S-wave (km/s) = 3.15894 3.40036 3.28187
# Velocity P-wave (km/s) = 6.22446 6.50727 6.36743
#
# Compressibility (1/GPa) = 0.02130988
#
# Stress axis : x y z
#
# Youngs Moduli (GPa) = 87.42597 54.75744 76.72215
#
# Poissons Ratio (x) = 0.05574 0.22970
# Poissons Ratio (y) = 0.08900 0.51408
# Poissons Ratio (z) = 0.26175 0.36690
#
# Static dielectric constant tensor:
#      x y z
#    x 3.377170 0.000000 0.000000 
#    y 0.000000 3.466960 0.000000 
#    z 0.000000 0.000000 3.569900 
# 
# 
# High freq. dielectric constant tensor:
#      x y z
#    x 1.702310 0.000000 0.000000 
#    y 0.000000 1.699830 0.000000 
#    z 0.000000 0.000000 1.718170 
# 
# From -- ./inp_files/47577.got.cif
#   From: 2010.03.12/outbox.cif.g09.slc.cpg/sg69_24_cif.got.tgz:47577.got - 2010.04.10 23:52:46.
