data_PCOD8284947
_publ_section_title
;
Structure prediction by ZEFSAII (Michael W. Deem and Ramdas Pophale) SiO2 
 PCOD8284947
Probable space group: F M M M
;
_chemical_formula_sum "Si O2"
_cell_formula_units_Z 176
_cell_length_a 18.863151
_cell_length_b 19.799173
_cell_length_c 24.753285
_cell_angle_alpha 90.000000
_cell_angle_beta 90.000000
_cell_angle_gamma 90.000000
_cell_volume 9244.727917
_symmetry_space_group_name_H-M "F M M M"
_symmetry_group_IT_number 69
_symmetry_cell_setting 'orthorhombic'
loop_
_space_group_symop_operation_xyz
x,y,z
-x,-y,z
x,-y,-z
-x,y,-z
-x,-y,-z
x,y,-z
-x,y,z
x,-y,z
x,1/2+y,1/2+z
-x,1/2-y,1/2+z
x,1/2-y,1/2-z
-x,1/2+y,1/2-z
-x,1/2-y,1/2-z
x,1/2+y,1/2-z
-x,1/2+y,1/2+z
x,1/2-y,1/2+z
1/2+x,y,1/2+z
1/2-x,-y,1/2+z
1/2+x,-y,1/2-z
1/2-x,y,1/2-z
1/2-x,-y,1/2-z
1/2+x,y,1/2-z
1/2-x,y,1/2+z
1/2+x,-y,1/2+z
1/2+x,1/2+y,z
1/2-x,1/2-y,z
1/2+x,1/2-y,-z
1/2-x,1/2+y,-z
1/2-x,1/2-y,-z
1/2+x,1/2+y,-z
1/2-x,1/2+y,z
1/2+x,1/2-y,z
loop_
_atom_site_type_symbol
_atom_site_label
_atom_site_fract_x
_atom_site_fract_y
_atom_site_fract_z
Si Si1 0.082126 0.677863 0.770009
Si Si2 0.082271 0.215857 0.615098
Si Si3 0.817139 0.920564 0.214076
Si Si4 0.500000 0.920229 0.562038
Si Si5 0.855016 0.640803 0.604806
Si Si6 0.803055 0.313609 0.500000
Si Si7 0.081119 0.787795 0.500000
O O1 0.113264 0.750000 0.750000
O O2 0.097498 0.667674 0.834104
O O3 0.114734 0.615144 0.739135
O O4 0.000000 0.675523 0.755865
O O5 0.130148 0.282094 0.622042
O O6 0.100810 0.176543 0.557701
O O7 0.000000 0.238225 0.615333
O O8 0.750000 0.898182 0.250000
O O9 0.811261 0.896820 0.151979
O O10 0.828896 0.000000 0.216733
O O11 0.500000 0.895712 0.500000
O O12 0.570814 0.895260 0.592090
O O13 0.500000 0.000000 0.565645
O O14 0.799375 0.640676 0.554023
O O15 0.750000 0.250000 0.500000
O O16 0.883261 0.285499 0.500000
O O17 0.000000 0.769771 0.500000
#
# Coordination Sequence:
#
# PCOD8284947 Si02
#       7
#    32  32  32  16  32  16  16
#     4  10  20  36  57  85 114 145 192 251 306 364
#     4   9  16  29  52  82 113 143 178 232 301 357
#     4  11  26  43  57  79 116 164 210 252 306 372
#     4  11  22  34  58  95 124 162 205 241 308 390
#     4  11  20  37  59  82 124 157 195 249 305 362
#     4  10  22  34  52  86 122 154 196 240 292 366
#     4   8  16  28  50  76 109 149 179 225 296 356
#
# _framework density 19.037879
#
# number of rings (size 3 to 8) (size 9 to 14) (size 15 to 20)
#    0.000    1.909    3.636    0.545    2.545    3.636 
#    0.000    0.000    0.000    0.000    0.000    1.909 
#    0.000    3.636    0.000    0.000    0.000    0.364 
#
# Total GULP energy -545132.514406 kJ/mol
# GULP energy per Si atom -12389.375327 kJ/mol
# Density = 1.899455 g / cm^3
# Si number density = 19.037879 Si / 1000 Ang^3
#
#
#
# Elastic Constant Matrix: (Units=GPa)
#
#
# Indices 1 2 3 4 5 6 
#
# 1 56.9617 31.8086 45.5259 0.0000 0.0000 0.0000
# 2 31.8086 58.3142 46.7666 0.0000 0.0000 0.0000
# 3 45.5259 46.7666 182.3889 0.0000 0.0000 0.0000
# 4 0.0000 0.0000 0.0000 24.1472 0.0000 0.0000
# 5 0.0000 0.0000 0.0000 0.0000 30.2269 0.0000
# 6 0.0000 0.0000 0.0000 0.0000 0.0000 20.1718
#
#
#
# Elastic Compliance Matrix: (Units=1/GPa)
#
#
# Indices 1 2 3 4 5 6 
#
# 1 0.027140 -0.011797 -0.003749 0.000000 0.000000 0.000000
# 2 -0.011797 0.026716 -0.003906 0.000000 0.000000 0.000000
# 3 -0.003749 -0.003906 0.007420 0.000000 0.000000 0.000000
# 4 0.000000 0.000000 0.000000 0.041413 0.000000 0.000000
# 5 0.000000 0.000000 0.000000 0.000000 0.033083 0.000000
# 6 0.000000 0.000000 0.000000 0.000000 0.000000 0.049574
#
#
# Mechanical properties :
#
#
# Convention : Reuss Voigt Hill
#
# Bulk Modulus (GPa) = 44.69958 60.65188 52.67573
# Shear Modulus (GPa) = 21.57895 26.48009 24.02952
#
# Velocity S-wave (km/s) = 3.37036 3.73354 3.55659
# Velocity P-wave (km/s) = 6.21901 7.10728 6.67793
#
# Compressibility (1/GPa) = 0.02237158
#
# Stress axis : x y z
#
# Youngs Moduli (GPa) = 36.84578 37.43129 134.76872
#
# Poissons Ratio (x) = 0.44158 0.50532
# Poissons Ratio (y) = 0.43467 0.52634
# Poissons Ratio (z) = 0.13815 0.14619
#
# Static dielectric constant tensor:
#      x y z
#    x 3.335040 0.000000 0.000000 
#    y 0.000000 3.053080 0.000000 
#    z 0.000000 0.000000 4.382190 
# 
# 
# High freq. dielectric constant tensor:
#      x y z
#    x 1.722970 0.000000 0.000000 
#    y 0.000000 1.687230 0.000000 
#    z 0.000000 0.000000 1.775690 
# 
# From -- ./inp_files/41904.got.cif
#   From: 2010.03.12/outbox.cif.g09.slc.cpg/sg69_21_cif.got.tgz:41904.got - 2010.04.10 23:52:46.
