data_PCOD8284460
_publ_section_title
;
Structure prediction by ZEFSAII (Michael W. Deem and Ramdas Pophale) SiO2 
 PCOD8284460
Probable space group: F M M M
;
_chemical_formula_sum "Si O2"
_cell_formula_units_Z 144
_cell_length_a 19.551971
_cell_length_b 14.312713
_cell_length_c 25.305215
_cell_angle_alpha 90.000000
_cell_angle_beta 90.000000
_cell_angle_gamma 90.000000
_cell_volume 7081.455637
_symmetry_space_group_name_H-M "F M M M"
_symmetry_group_IT_number 69
_symmetry_cell_setting 'orthorhombic'
loop_
_space_group_symop_operation_xyz
x,y,z
-x,-y,z
x,-y,-z
-x,y,-z
-x,-y,-z
x,y,-z
-x,y,z
x,-y,z
x,1/2+y,1/2+z
-x,1/2-y,1/2+z
x,1/2-y,1/2-z
-x,1/2+y,1/2-z
-x,1/2-y,1/2-z
x,1/2+y,1/2-z
-x,1/2+y,1/2+z
x,1/2-y,1/2+z
1/2+x,y,1/2+z
1/2-x,-y,1/2+z
1/2+x,-y,1/2-z
1/2-x,y,1/2-z
1/2-x,-y,1/2-z
1/2+x,y,1/2-z
1/2-x,y,1/2+z
1/2+x,-y,1/2+z
1/2+x,1/2+y,z
1/2-x,1/2-y,z
1/2+x,1/2-y,-z
1/2-x,1/2+y,-z
1/2-x,1/2-y,-z
1/2+x,1/2+y,-z
1/2-x,1/2+y,z
1/2+x,1/2-y,z
loop_
_atom_site_type_symbol
_atom_site_label
_atom_site_fract_x
_atom_site_fract_y
_atom_site_fract_z
Si Si1 0.924763 0.107206 0.887297
Si Si2 0.848609 0.389216 0.106481
Si Si3 0.289963 0.389301 0.942117
Si Si4 0.422538 0.766592 0.808348
Si Si5 0.423125 0.610907 0.500000
O O1 0.864913 0.146759 0.924936
O O2 0.922245 0.164247 0.833497
O O3 0.000000 0.118465 0.914542
O O4 0.910689 0.000000 0.872293
O O5 0.856789 0.500000 0.114365
O O6 0.769314 0.358515 0.098742
O O7 0.877082 0.339344 0.158592
O O8 0.887593 0.353641 0.053802
O O9 0.290134 0.500000 0.945965
O O10 0.274081 0.347426 0.000000
O O11 0.500000 0.806618 0.805496
O O12 0.391746 0.750000 0.750000
O O13 0.420428 0.500000 0.500000
O O14 0.500000 0.649725 0.500000
#
# Coordination Sequence:
#
# PCOD8284460 Si02
#       5
#    32  32  32  32  16
#     4   9  19  37  58  78 105 145 194 241 279 322
#     4  10  19  34  56  86 119 148 180 225 287 351
#     4   9  17  33  57  83 114 149 182 225 284 344
#     4  10  22  39  57  80 111 148 194 240 280 331
#     4   9  16  28  50  79 112 146 176 213 270 339
#
# _framework density 20.334802
#
# number of rings (size 3 to 8) (size 9 to 14) (size 15 to 20)
#    0.000    2.556    1.111    0.667    0.000    3.556 
#    2.000    7.778    0.000    4.000    0.000    0.000 
#    0.000    0.000    0.000    0.000    0.000    0.000 
#
# Total GULP energy -446221.298246 kJ/mol
# GULP energy per Si atom -12395.036062 kJ/mol
# Density = 2.028852 g / cm^3
# Si number density = 20.334802 Si / 1000 Ang^3
#
#
#
# Elastic Constant Matrix: (Units=GPa)
#
#
# Indices 1 2 3 4 5 6 
#
# 1 167.7351 39.5767 81.9259 0.0000 0.0000 0.0000
# 2 39.5767 50.3902 40.8809 0.0000 0.0000 0.0000
# 3 81.9259 40.8809 155.0945 0.0000 0.0000 0.0000
# 4 0.0000 0.0000 0.0000 28.1803 0.0000 0.0000
# 5 0.0000 0.0000 0.0000 0.0000 24.5260 0.0000
# 6 0.0000 0.0000 0.0000 0.0000 0.0000 23.6490
#
#
#
# Elastic Compliance Matrix: (Units=1/GPa)
#
#
# Indices 1 2 3 4 5 6 
#
# 1 0.008599 -0.003903 -0.003513 0.000000 0.000000 0.000000
# 2 -0.003903 0.027015 -0.005059 0.000000 0.000000 0.000000
# 3 -0.003513 -0.005059 0.009637 0.000000 0.000000 0.000000
# 4 0.000000 0.000000 0.000000 0.035486 0.000000 0.000000
# 5 0.000000 0.000000 0.000000 0.000000 0.040773 0.000000
# 6 0.000000 0.000000 0.000000 0.000000 0.000000 0.042285
#
#
# Mechanical properties :
#
#
# Convention : Reuss Voigt Hill
#
# Bulk Modulus (GPa) = 49.26169 77.55409 63.40789
# Shear Modulus (GPa) = 25.57385 29.32682 27.45033
#
# Velocity S-wave (km/s) = 3.55017 3.80175 3.67811
# Velocity P-wave (km/s) = 6.40959 7.58238 7.02052
#
# Compressibility (1/GPa) = 0.02029975
#
# Stress axis : x y z
#
# Youngs Moduli (GPa) = 116.29666 37.01646 103.76670
#
# Poissons Ratio (x) = 0.14448 0.36456
# Poissons Ratio (y) = 0.45393 0.52496
# Poissons Ratio (z) = 0.40858 0.18727
#
# Static dielectric constant tensor:
#      x y z
#    x 4.112460 0.000000 0.000000 
#    y 0.000000 3.518370 0.000000 
#    z 0.000000 0.000000 3.526330 
# 
# 
# High freq. dielectric constant tensor:
#      x y z
#    x 1.805440 0.000000 0.000000 
#    y 0.000000 1.789480 0.000000 
#    z 0.000000 0.000000 1.768490 
# 
# From -- ./inp_files/22865.got.cif
#   From: 2010.03.12/outbox.cif.g09.slc.cpg/sg69_12_cif.got.tgz:22865.got - 2010.04.10 23:52:46.
