data_PCOD8284375
_publ_section_title
;
Structure prediction by ZEFSAII (Michael W. Deem and Ramdas Pophale) SiO2 
 PCOD8284375
Probable space group: F M M M
;
_chemical_formula_sum "Si O2"
_cell_formula_units_Z 176
_cell_length_a 20.587382
_cell_length_b 17.290369
_cell_length_c 25.455659
_cell_angle_alpha 90.000000
_cell_angle_beta 90.000000
_cell_angle_gamma 90.000000
_cell_volume 9061.283729
_symmetry_space_group_name_H-M "F M M M"
_symmetry_group_IT_number 69
_symmetry_cell_setting 'orthorhombic'
loop_
_space_group_symop_operation_xyz
x,y,z
-x,-y,z
x,-y,-z
-x,y,-z
-x,-y,-z
x,y,-z
-x,y,z
x,-y,z
x,1/2+y,1/2+z
-x,1/2-y,1/2+z
x,1/2-y,1/2-z
-x,1/2+y,1/2-z
-x,1/2-y,1/2-z
x,1/2+y,1/2-z
-x,1/2+y,1/2+z
x,1/2-y,1/2+z
1/2+x,y,1/2+z
1/2-x,-y,1/2+z
1/2+x,-y,1/2-z
1/2-x,y,1/2-z
1/2-x,-y,1/2-z
1/2+x,y,1/2-z
1/2-x,y,1/2+z
1/2+x,-y,1/2+z
1/2+x,1/2+y,z
1/2-x,1/2-y,z
1/2+x,1/2-y,-z
1/2-x,1/2+y,-z
1/2-x,1/2-y,-z
1/2+x,1/2+y,-z
1/2-x,1/2+y,z
1/2+x,1/2-y,z
loop_
_atom_site_type_symbol
_atom_site_label
_atom_site_fract_x
_atom_site_fract_y
_atom_site_fract_z
Si Si1 0.164062 0.859538 0.061582
Si Si2 0.357973 0.180292 0.210410
Si Si3 0.107463 0.086362 0.802335
Si Si4 0.252189 0.588115 0.150612
Si Si5 0.572136 0.500000 0.061503
Si Si6 0.571746 0.722623 0.872058
O O1 0.231047 0.875088 0.092981
O O2 0.113835 0.926609 0.078870
O O3 0.125703 0.782837 0.081104
O O4 0.179982 0.855647 0.000000
O O5 0.336365 0.250000 0.250000
O O6 0.397139 0.114515 0.242090
O O7 0.296865 0.144004 0.180470
O O8 0.407932 0.209000 0.166517
O O9 0.183680 0.088767 0.814686
O O10 0.067382 0.142885 0.839571
O O11 0.078839 0.000000 0.808682
O O12 0.225503 0.500000 0.144266
O O13 0.500000 0.500000 0.087100
O O14 0.563600 0.500000 0.000000
O O15 0.500000 0.739432 0.895552
#
# Coordination Sequence:
#
# PCOD8284375 Si02
#       6
#    32  32  32  32  16  32
#     4  10  20  34  53  77 105 136 168 210 262 312
#     4  10  21  35  53  74 105 146 179 211 262 311
#     4   9  19  33  52  78 103 132 174 220 260 309
#     4  10  19  33  54  78 105 133 173 220 259 311
#     4   9  16  28  48  72  97 130 165 195 240 301
#     4  10  22  36  51  74 107 141 177 217 259 311
#
# _framework density 19.423296000000001
#
# number of rings (size 3 to 8) (size 9 to 14) (size 15 to 20)
#    0.000    2.273    0.909    1.636    1.273   16.364 
#    0.000    1.818    0.000    1.636    0.000    0.000 
#    0.000    0.000    0.000    8.182    0.000    0.000 
#
# Total GULP energy -545321.736499 kJ/mol
# GULP energy per Si atom -12393.675830 kJ/mol
# Density = 1.937909 g / cm^3
# Si number density = 19.423296 Si / 1000 Ang^3
#
#
#
# Elastic Constant Matrix: (Units=GPa)
#
#
# Indices 1 2 3 4 5 6 
#
# 1 54.1864 14.0326 12.1509 0.0000 0.0000 0.0000
# 2 14.0326 52.8744 16.6189 0.0000 0.0000 0.0000
# 3 12.1509 16.6189 89.6862 0.0000 0.0000 0.0000
# 4 0.0000 0.0000 0.0000 26.4147 0.0000 0.0000
# 5 0.0000 0.0000 0.0000 0.0000 20.2496 0.0000
# 6 0.0000 0.0000 0.0000 0.0000 0.0000 10.4903
#
#
#
# Elastic Compliance Matrix: (Units=1/GPa)
#
#
# Indices 1 2 3 4 5 6 
#
# 1 0.020099 -0.004755 -0.001842 0.000000 0.000000 0.000000
# 2 -0.004755 0.021207 -0.003285 0.000000 0.000000 0.000000
# 3 -0.001842 -0.003285 0.012008 0.000000 0.000000 0.000000
# 4 0.000000 0.000000 0.000000 0.037858 0.000000 0.000000
# 5 0.000000 0.000000 0.000000 0.000000 0.049384 0.000000
# 6 0.000000 0.000000 0.000000 0.000000 0.000000 0.095326
#
#
# Mechanical properties :
#
#
# Convention : Reuss Voigt Hill
#
# Bulk Modulus (GPa) = 29.80659 31.37241 30.58950
# Shear Modulus (GPa) = 18.73840 21.69388 20.21614
#
# Velocity S-wave (km/s) = 3.10939 3.34563 3.22967
# Velocity P-wave (km/s) = 5.31697 5.57775 5.44892
#
# Compressibility (1/GPa) = 0.03354963
#
# Stress axis : x y z
#
# Youngs Moduli (GPa) = 49.75286 47.15323 83.27546
#
# Poissons Ratio (x) = 0.22423 0.15339
# Poissons Ratio (y) = 0.23659 0.27360
# Poissons Ratio (z) = 0.09164 0.15492
#
# Static dielectric constant tensor:
#      x y z
#    x 3.327110 0.000000 0.000000 
#    y 0.000000 3.685450 0.000000 
#    z 0.000000 0.000000 3.598720 
# 
# 
# High freq. dielectric constant tensor:
#      x y z
#    x 1.730870 0.000000 0.000000 
#    y 0.000000 1.742500 0.000000 
#    z 0.000000 0.000000 1.755330 
# 
# From -- ./inp_files/41856.got.cif
#   From: 2010.03.12/outbox.cif.g09.slc.cpg/sg69_21_cif.got.tgz:41856.got - 2010.04.10 23:52:46.
