data_PCOD8284200
_publ_section_title
;
Structure prediction by ZEFSAII (Michael W. Deem and Ramdas Pophale) SiO2 
 PCOD8284200
Probable space group: F M M M
;
_chemical_formula_sum "Si O2"
_cell_formula_units_Z 208
_cell_length_a 23.227098
_cell_length_b 18.868001
_cell_length_c 27.162617
_cell_angle_alpha 90.000000
_cell_angle_beta 90.000000
_cell_angle_gamma 90.000000
_cell_volume 11903.987247
_symmetry_space_group_name_H-M "F M M M"
_symmetry_group_IT_number 69
_symmetry_cell_setting 'orthorhombic'
loop_
_space_group_symop_operation_xyz
x,y,z
-x,-y,z
x,-y,-z
-x,y,-z
-x,-y,-z
x,y,-z
-x,y,z
x,-y,z
x,1/2+y,1/2+z
-x,1/2-y,1/2+z
x,1/2-y,1/2-z
-x,1/2+y,1/2-z
-x,1/2-y,1/2-z
x,1/2+y,1/2-z
-x,1/2+y,1/2+z
x,1/2-y,1/2+z
1/2+x,y,1/2+z
1/2-x,-y,1/2+z
1/2+x,-y,1/2-z
1/2-x,y,1/2-z
1/2-x,-y,1/2-z
1/2+x,y,1/2-z
1/2-x,y,1/2+z
1/2+x,-y,1/2+z
1/2+x,1/2+y,z
1/2-x,1/2-y,z
1/2+x,1/2-y,-z
1/2-x,1/2+y,-z
1/2-x,1/2-y,-z
1/2+x,1/2+y,-z
1/2-x,1/2+y,z
1/2+x,1/2-y,z
loop_
_atom_site_type_symbol
_atom_site_label
_atom_site_fract_x
_atom_site_fract_y
_atom_site_fract_z
Si Si1 0.341700 0.788401 0.056453
Si Si2 0.066377 0.806840 0.640790
Si Si3 0.125776 0.919774 0.097678
Si Si4 0.564554 0.415724 0.000000
Si Si5 0.931836 0.580142 0.782201
Si Si6 0.726779 0.143074 0.444054
Si Si7 0.066176 0.341822 0.684398
O O1 0.396072 0.795413 0.092090
O O2 0.310331 0.714053 0.062566
O O3 0.293329 0.846954 0.071210
O O4 0.362233 0.799516 0.000000
O O5 0.086947 0.878683 0.668200
O O6 0.072930 0.743105 0.680602
O O7 0.000000 0.812397 0.623727
O O8 0.096228 0.887040 0.048600
O O9 0.195127 0.914725 0.090584
O O10 0.106219 0.874434 0.143190
O O11 0.106572 0.000000 0.106797
O O12 0.565847 0.500000 0.000000
O O13 0.500000 0.385682 0.000000
O O14 0.905820 0.500000 0.781504
O O15 0.910529 0.626873 0.735834
O O16 0.000000 0.575815 0.780320
O O17 0.724401 0.116351 0.500000
O O18 0.000000 0.364495 0.675563
#
# Coordination Sequence:
#
# PCOD8284200 Si02
#       7
#    32  32  32  16  32  32  32
#     4   9  18  33  53  74  99 132 170 215 256 301
#     4  10  19  32  53  81 107 132 168 213 260 308
#     4  11  19  28  45  70 104 140 174 210 249 298
#     4   9  18  28  38  61 104 150 174 195 244 304
#     4   9  18  33  52  73 101 137 173 212 261 310
#     4   9  17  32  50  68  96 136 181 212 243 291
#     4  10  19  31  48  75 107 138 173 208 248 304
#
# _framework density 17.473136
#
# number of rings (size 3 to 8) (size 9 to 14) (size 15 to 20)
#    0.000    2.385    2.308    2.308    0.000    3.692 
#    0.000    0.769    0.000    2.308    0.000    4.308 
#    0.000    0.000    0.000    0.000    0.000    0.000 
#
# Total GULP energy -644503.691926 kJ/mol
# GULP energy per Si atom -12394.301768 kJ/mol
# Density = 1.743337 g / cm^3
# Si number density = 17.473136 Si / 1000 Ang^3
#
#
#
# Elastic Constant Matrix: (Units=GPa)
#
#
# Indices 1 2 3 4 5 6 
#
# 1 67.3818 23.7165 40.6485 0.0000 0.0000 0.0000
# 2 23.7165 69.4891 34.5620 0.0000 0.0000 0.0000
# 3 40.6485 34.5620 93.2798 0.0000 0.0000 0.0000
# 4 0.0000 0.0000 0.0000 20.6687 0.0000 0.0000
# 5 0.0000 0.0000 0.0000 0.0000 15.8960 0.0000
# 6 0.0000 0.0000 0.0000 0.0000 0.0000 20.3547
#
#
#
# Elastic Compliance Matrix: (Units=1/GPa)
#
#
# Indices 1 2 3 4 5 6 
#
# 1 0.020684 -0.003158 -0.007843 0.000000 0.000000 0.000000
# 2 -0.003158 0.018124 -0.005339 0.000000 0.000000 0.000000
# 3 -0.007843 -0.005339 0.016116 0.000000 0.000000 0.000000
# 4 0.000000 0.000000 0.000000 0.048382 0.000000 0.000000
# 5 0.000000 0.000000 0.000000 0.000000 0.062909 0.000000
# 6 0.000000 0.000000 0.000000 0.000000 0.000000 0.049129
#
#
# Mechanical properties :
#
#
# Convention : Reuss Voigt Hill
#
# Bulk Modulus (GPa) = 44.95723 47.55608 46.25665
# Shear Modulus (GPa) = 19.57406 20.13213 19.85309
#
# Velocity S-wave (km/s) = 3.35063 3.39805 3.37442
# Velocity P-wave (km/s) = 6.38390 6.53234 6.45854
#
# Compressibility (1/GPa) = 0.02224337
#
# Stress axis : x y z
#
# Youngs Moduli (GPa) = 48.34672 55.17490 62.04832
#
# Poissons Ratio (x) = 0.17426 0.48666
# Poissons Ratio (y) = 0.15270 0.33128
# Poissons Ratio (z) = 0.37919 0.29458
#
# Static dielectric constant tensor:
#      x y z
#    x 3.244170 0.000000 0.000000 
#    y 0.000000 3.406040 0.000000 
#    z 0.000000 0.000000 3.163070 
# 
# 
# High freq. dielectric constant tensor:
#      x y z
#    x 1.648870 0.000000 0.000000 
#    y 0.000000 1.667070 0.000000 
#    z 0.000000 0.000000 1.665210 
# 
# From -- ./inp_files/43288.got.cif
#   From: 2010.03.12/outbox.cif.g09.slc.cpg/sg69_22_cif.got.tgz:43288.got - 2010.04.10 23:52:46.
