data_PCOD8284944
_publ_section_title
;
Structure prediction by ZEFSAII (Michael W. Deem and Ramdas Pophale) SiO2 
 PCOD8284944
Probable space group: F M M M
;
_chemical_formula_sum "Si O2"
_cell_formula_units_Z 160
_cell_length_a 13.923446
_cell_length_b 31.277459
_cell_length_c 18.297227
_cell_angle_alpha 90.000000
_cell_angle_beta 90.000000
_cell_angle_gamma 90.000000
_cell_volume 7968.259595
_symmetry_space_group_name_H-M "F M M M"
_symmetry_group_IT_number 69
_symmetry_cell_setting 'orthorhombic'
loop_
_space_group_symop_operation_xyz
x,y,z
-x,-y,z
x,-y,-z
-x,y,-z
-x,-y,-z
x,y,-z
-x,y,z
x,-y,z
x,1/2+y,1/2+z
-x,1/2-y,1/2+z
x,1/2-y,1/2-z
-x,1/2+y,1/2-z
-x,1/2-y,1/2-z
x,1/2+y,1/2-z
-x,1/2+y,1/2+z
x,1/2-y,1/2+z
1/2+x,y,1/2+z
1/2-x,-y,1/2+z
1/2+x,-y,1/2-z
1/2-x,y,1/2-z
1/2-x,-y,1/2-z
1/2+x,y,1/2-z
1/2-x,y,1/2+z
1/2+x,-y,1/2+z
1/2+x,1/2+y,z
1/2-x,1/2-y,z
1/2+x,1/2-y,-z
1/2-x,1/2+y,-z
1/2-x,1/2-y,-z
1/2+x,1/2+y,-z
1/2-x,1/2+y,z
1/2+x,1/2-y,z
loop_
_atom_site_type_symbol
_atom_site_label
_atom_site_fract_x
_atom_site_fract_y
_atom_site_fract_z
Si Si1 0.719050 0.847310 0.831511
Si Si2 0.110429 0.000000 0.209552
Si Si3 0.610295 0.236108 0.170408
Si Si4 0.107914 0.678069 0.414226
Si Si5 0.265380 0.500000 0.415814
Si Si6 0.112543 0.435050 0.164060
O O1 0.750000 0.838841 0.750000
O O2 0.665971 0.804956 0.860560
O O3 0.815258 0.854937 0.879737
O O4 0.646356 0.886539 0.834617
O O5 0.134770 0.041836 0.258410
O O6 0.172075 0.000000 0.136067
O O7 0.000000 0.000000 0.185197
O O8 0.500000 0.222792 0.176091
O O9 0.648719 0.250000 0.250000
O O10 0.628594 0.274371 0.114325
O O11 0.120405 0.677871 0.500000
O O12 0.000000 0.663581 0.391458
O O13 0.231580 0.500000 0.500000
O O14 0.330218 0.458431 0.400620
O O15 0.000000 0.437468 0.146372
#
# Coordination Sequence:
#
# PCOD8284944 Si02
#       6
#    32  16  32  32  16  32
#     4  12  22  34  60  91 119 152 200 252 299 352
#     4   9  19  41  67  91 124 159 195 240 290 355
#     4  10  20  36  57  84 118 156 200 247 298 356
#     4  10  23  41  58  80 117 163 203 245 304 365
#     4  11  22  40  65  91 123 161 195 239 302 364
#     4  10  22  40  63  91 120 156 201 246 296 353
#
# _framework density 20.079667000000001
#
# number of rings (size 3 to 8) (size 9 to 14) (size 15 to 20)
#    0.000    1.600    2.000    4.500    0.000    4.200 
#    0.000    1.000    0.000    3.600    0.000    0.000 
#    0.000    0.000    0.000    0.000    0.000    0.000 
#
# Total GULP energy -496050.527480 kJ/mol
# GULP energy per Si atom -12401.263187 kJ/mol
# Density = 2.003396 g / cm^3
# Si number density = 20.079667 Si / 1000 Ang^3
#
#
#
# Elastic Constant Matrix: (Units=GPa)
#
#
# Indices 1 2 3 4 5 6 
#
# 1 135.1060 50.5210 61.8045 0.0000 0.0000 0.0000
# 2 50.5210 75.1576 23.8799 0.0000 0.0000 0.0000
# 3 61.8045 23.8799 106.4901 0.0000 0.0000 0.0000
# 4 0.0000 0.0000 0.0000 40.2948 0.0000 0.0000
# 5 0.0000 0.0000 0.0000 0.0000 24.2906 0.0000
# 6 0.0000 0.0000 0.0000 0.0000 0.0000 34.1284
#
#
#
# Elastic Compliance Matrix: (Units=1/GPa)
#
#
# Indices 1 2 3 4 5 6 
#
# 1 0.012503 -0.006567 -0.005784 0.000000 0.000000 0.000000
# 2 -0.006567 0.017775 -0.000175 0.000000 0.000000 0.000000
# 3 -0.005784 -0.000175 0.012787 0.000000 0.000000 0.000000
# 4 0.000000 0.000000 0.000000 0.024817 0.000000 0.000000
# 5 0.000000 0.000000 0.000000 0.000000 0.041168 0.000000
# 6 0.000000 0.000000 0.000000 0.000000 0.000000 0.029301
#
#
# Mechanical properties :
#
#
# Convention : Reuss Voigt Hill
#
# Bulk Modulus (GPa) = 55.51303 65.46273 60.48788
# Shear Modulus (GPa) = 29.51478 31.77932 30.64705
#
# Velocity S-wave (km/s) = 3.83807 3.98258 3.91099
# Velocity P-wave (km/s) = 6.88095 7.33623 7.11223
#
# Compressibility (1/GPa) = 0.01801379
#
# Stress axis : x y z
#
# Youngs Moduli (GPa) = 79.98058 56.25835 78.20700
#
# Poissons Ratio (x) = 0.36944 0.45234
# Poissons Ratio (y) = 0.52522 0.01367
# Poissons Ratio (z) = 0.46260 0.00983
#
# Static dielectric constant tensor:
#      x y z
#    x 3.998790 0.000000 0.000000 
#    y 0.000000 3.682320 0.000000 
#    z 0.000000 0.000000 3.445020 
# 
# 
# High freq. dielectric constant tensor:
#      x y z
#    x 1.808760 0.000000 0.000000 
#    y 0.000000 1.773410 0.000000 
#    z 0.000000 0.000000 1.762220 
# 
# From -- ./inp_files/21866.got.cif
#   From: 2010.03.12/outbox.cif.g09.slc.cpg/sg69_11_cif.got.tgz:21866.got - 2010.04.10 23:52:46.
