data_PCOD8284774
_publ_section_title
;
Structure prediction by ZEFSAII (Michael W. Deem and Ramdas Pophale) SiO2 
 PCOD8284774
Probable space group: F M M M
;
_chemical_formula_sum "Si O2"
_cell_formula_units_Z 128
_cell_length_a 21.003247
_cell_length_b 15.087617
_cell_length_c 20.385252
_cell_angle_alpha 90.000000
_cell_angle_beta 90.000000
_cell_angle_gamma 90.000000
_cell_volume 6459.861030
_symmetry_space_group_name_H-M "F M M M"
_symmetry_group_IT_number 69
_symmetry_cell_setting 'orthorhombic'
loop_
_space_group_symop_operation_xyz
x,y,z
-x,-y,z
x,-y,-z
-x,y,-z
-x,-y,-z
x,y,-z
-x,y,z
x,-y,z
x,1/2+y,1/2+z
-x,1/2-y,1/2+z
x,1/2-y,1/2-z
-x,1/2+y,1/2-z
-x,1/2-y,1/2-z
x,1/2+y,1/2-z
-x,1/2+y,1/2+z
x,1/2-y,1/2+z
1/2+x,y,1/2+z
1/2-x,-y,1/2+z
1/2+x,-y,1/2-z
1/2-x,y,1/2-z
1/2-x,-y,1/2-z
1/2+x,y,1/2-z
1/2-x,y,1/2+z
1/2+x,-y,1/2+z
1/2+x,1/2+y,z
1/2-x,1/2-y,z
1/2+x,1/2-y,-z
1/2-x,1/2+y,-z
1/2-x,1/2-y,-z
1/2+x,1/2+y,-z
1/2-x,1/2+y,z
1/2+x,1/2-y,z
loop_
_atom_site_type_symbol
_atom_site_label
_atom_site_fract_x
_atom_site_fract_y
_atom_site_fract_z
Si Si1 0.595998 0.250000 0.750000
Si Si2 0.811259 0.399931 0.793906
Si Si3 0.074991 0.500000 0.426884
Si Si4 0.188338 0.310247 0.927273
Si Si5 0.570062 0.808377 0.386789
O O1 0.636223 0.335174 0.732178
O O2 0.555252 0.220230 0.687799
O O3 0.834247 0.500000 0.783554
O O4 0.750000 0.379400 0.750000
O O5 0.802035 0.384879 0.871921
O O6 0.104739 0.500000 0.500000
O O7 0.096751 0.409751 0.390150
O O8 0.000000 0.500000 0.430652
O O9 0.250000 0.250000 0.920870
O O10 0.123092 0.254456 0.918751
O O11 0.185625 0.353743 0.000000
O O12 0.500000 0.800623 0.422089
#
# Coordination Sequence:
#
# PCOD8284774 Si02
#       5
#    16  32  16  32  32
#     4  10  20  34  54  82 119 146 195 242 289 344
#     4  10  20  35  58  83 112 154 195 237 293 352
#     4   9  18  32  52  82 113 144 188 236 287 350
#     4  10  21  38  57  82 117 151 192 244 291 344
#     4  10  20  35  58  84 116 157 194 237 294 351
#
# _framework density 19.814667
#
# number of rings (size 3 to 8) (size 9 to 14) (size 15 to 20)
#    0.000    2.125    0.000    4.500    1.750    2.000 
#    2.250    0.000    0.000    6.750    0.000    7.000 
#    0.000    0.000    0.000    0.000    0.000    0.000 
#
# Total GULP energy -396448.488664 kJ/mol
# GULP energy per Si atom -12389.015271 kJ/mol
# Density = 1.976957 g / cm^3
# Si number density = 19.814667 Si / 1000 Ang^3
#
#
#
# Elastic Constant Matrix: (Units=GPa)
#
#
# Indices 1 2 3 4 5 6 
#
# 1 86.8794 33.5550 33.9065 0.0000 0.0000 0.0000
# 2 33.5550 92.6777 44.1665 0.0000 0.0000 0.0000
# 3 33.9065 44.1665 107.4859 0.0000 0.0000 0.0000
# 4 0.0000 0.0000 0.0000 18.9761 0.0000 0.0000
# 5 0.0000 0.0000 0.0000 0.0000 13.9530 0.0000
# 6 0.0000 0.0000 0.0000 0.0000 0.0000 12.5621
#
#
#
# Elastic Compliance Matrix: (Units=1/GPa)
#
#
# Indices 1 2 3 4 5 6 
#
# 1 0.014081 -0.003707 -0.002919 0.000000 0.000000 0.000000
# 2 -0.003707 0.014394 -0.004745 0.000000 0.000000 0.000000
# 3 -0.002919 -0.004745 0.012174 0.000000 0.000000 0.000000
# 4 0.000000 0.000000 0.000000 0.052698 0.000000 0.000000
# 5 0.000000 0.000000 0.000000 0.000000 0.071669 0.000000
# 6 0.000000 0.000000 0.000000 0.000000 0.000000 0.079604
#
#
# Mechanical properties :
#
#
# Convention : Reuss Voigt Hill
#
# Bulk Modulus (GPa) = 55.84404 56.69988 56.27196
# Shear Modulus (GPa) = 18.29286 20.79257 19.54272
#
# Velocity S-wave (km/s) = 3.04171 3.24289 3.14391
# Velocity P-wave (km/s) = 6.37027 6.53444 6.45288
#
# Compressibility (1/GPa) = 0.01790702
#
# Stress axis : x y z
#
# Youngs Moduli (GPa) = 71.01721 69.47518 82.14289
#
# Poissons Ratio (x) = 0.25757 0.23973
# Poissons Ratio (y) = 0.26329 0.38976
# Poissons Ratio (z) = 0.20726 0.32965
#
# Static dielectric constant tensor:
#      x y z
#    x 3.546090 0.000000 0.000000 
#    y 0.000000 3.645460 0.000000 
#    z 0.000000 0.000000 4.075690 
# 
# 
# High freq. dielectric constant tensor:
#      x y z
#    x 1.766770 0.000000 0.000000 
#    y 0.000000 1.761200 0.000000 
#    z 0.000000 0.000000 1.786870 
# 
# From -- ./inp_files/16337.got.cif
#   From: 2010.03.12/outbox.cif.g09.slc.cpg/sg69_9_cif.got.tgz:16337.got - 2010.04.10 23:52:46.
