data_PCOD8284113
_publ_section_title
;
Structure prediction by ZEFSAII (Michael W. Deem and Ramdas Pophale) SiO2 
 PCOD8284113
Probable space group: F M M M
;
_chemical_formula_sum "Si O2"
_cell_formula_units_Z 208
_cell_length_a 17.235182
_cell_length_b 30.546429
_cell_length_c 24.704246
_cell_angle_alpha 90.000000
_cell_angle_beta 90.000000
_cell_angle_gamma 90.000000
_cell_volume 13006.125008
_symmetry_space_group_name_H-M "F M M M"
_symmetry_group_IT_number 69
_symmetry_cell_setting 'orthorhombic'
loop_
_space_group_symop_operation_xyz
x,y,z
-x,-y,z
x,-y,-z
-x,y,-z
-x,-y,-z
x,y,-z
-x,y,z
x,-y,z
x,1/2+y,1/2+z
-x,1/2-y,1/2+z
x,1/2-y,1/2-z
-x,1/2+y,1/2-z
-x,1/2-y,1/2-z
x,1/2+y,1/2-z
-x,1/2+y,1/2+z
x,1/2-y,1/2+z
1/2+x,y,1/2+z
1/2-x,-y,1/2+z
1/2+x,-y,1/2-z
1/2-x,y,1/2-z
1/2-x,-y,1/2-z
1/2+x,y,1/2-z
1/2-x,y,1/2+z
1/2+x,-y,1/2+z
1/2+x,1/2+y,z
1/2-x,1/2-y,z
1/2+x,1/2-y,-z
1/2-x,1/2+y,-z
1/2-x,1/2-y,-z
1/2+x,1/2+y,-z
1/2-x,1/2+y,z
1/2+x,1/2-y,z
loop_
_atom_site_type_symbol
_atom_site_label
_atom_site_fract_x
_atom_site_fract_y
_atom_site_fract_z
Si Si1 0.087696 0.190451 0.938396
Si Si2 0.330548 0.550697 0.935932
Si Si3 0.912657 0.350964 0.283304
Si Si4 0.194640 0.628812 0.626703
Si Si5 0.807723 0.820141 0.299567
Si Si6 0.000000 0.949623 0.062893
Si Si7 0.585698 0.243808 0.337501
O O1 0.151218 0.155191 0.920729
O O2 0.094980 0.233719 0.901286
O O3 0.000000 0.170716 0.931636
O O4 0.103522 0.204476 0.000000
O O5 0.316009 0.500000 0.920298
O O6 0.275673 0.583092 0.900728
O O7 0.416822 0.568129 0.916650
O O8 0.317687 0.556647 0.000000
O O9 0.863836 0.381628 0.323700
O O10 0.875281 0.352085 0.223392
O O11 0.906357 0.301200 0.304659
O O12 0.000000 0.368523 0.280848
O O13 0.267485 0.656098 0.649654
O O14 0.750000 0.809609 0.250000
O O15 0.845207 0.775211 0.320093
O O16 0.000000 0.000000 0.077106
O O17 0.000000 0.941540 0.000000
O O18 0.500000 0.264288 0.325802
#
# Coordination Sequence:
#
# PCOD8284113 Si02
#       7
#    32  32  32  32  32  16  32
#     4   9  18  30  42  59  87 120 146 169 206 259
#     4   9  17  29  45  66  91 115 140 171 209 258
#     4   9  18  30  45  64  85 115 151 183 218 257
#     4  10  19  28  42  66  90 114 141 173 216 261
#     4  10  20  30  42  61  88 113 145 189 224 246
#     4   7  12  22  38  62  84 104 131 160 194 236
#     4   9  17  30  47  64  82 114 155 184 214 255
#
# _framework density 15.992464999999999
#
# number of rings (size 3 to 8) (size 9 to 14) (size 15 to 20)
#    0.000    2.846    0.000    3.692    2.154    9.846 
#    0.000    2.308    0.000    4.154    0.000    0.000 
#    0.000    1.846    0.000    6.769    0.000    0.000 
#
# Total GULP energy -644178.978583 kJ/mol
# GULP energy per Si atom -12388.057280 kJ/mol
# Density = 1.595607 g / cm^3
# Si number density = 15.992465 Si / 1000 Ang^3
#
#
#
# Elastic Constant Matrix: (Units=GPa)
#
#
# Indices 1 2 3 4 5 6 
#
# 1 55.5112 26.5400 30.7530 0.0000 0.0000 0.0000
# 2 26.5400 69.0102 37.1766 0.0000 0.0000 0.0000
# 3 30.7530 37.1766 84.7047 0.0000 0.0000 0.0000
# 4 0.0000 0.0000 0.0000 18.2848 0.0000 0.0000
# 5 0.0000 0.0000 0.0000 0.0000 23.0619 0.0000
# 6 0.0000 0.0000 0.0000 0.0000 0.0000 11.9400
#
#
#
# Elastic Compliance Matrix: (Units=1/GPa)
#
#
# Indices 1 2 3 4 5 6 
#
# 1 0.024320 -0.006020 -0.006188 0.000000 0.000000 0.000000
# 2 -0.006020 0.020468 -0.006798 0.000000 0.000000 0.000000
# 3 -0.006188 -0.006798 0.017036 0.000000 0.000000 0.000000
# 4 0.000000 0.000000 0.000000 0.054690 0.000000 0.000000
# 5 0.000000 0.000000 0.000000 0.000000 0.043362 0.000000
# 6 0.000000 0.000000 0.000000 0.000000 0.000000 0.083752
#
#
# Mechanical properties :
#
#
# Convention : Reuss Voigt Hill
#
# Bulk Modulus (GPa) = 41.99300 44.24059 43.11679
# Shear Modulus (GPa) = 17.26664 18.30777 17.78721
#
# Velocity S-wave (km/s) = 3.28940 3.38712 3.33862
# Velocity P-wave (km/s) = 6.38294 6.55898 6.47156
#
# Compressibility (1/GPa) = 0.02381349
#
# Stress axis : x y z
#
# Youngs Moduli (GPa) = 41.11772 48.85759 58.70013
#
# Poissons Ratio (x) = 0.29411 0.36322
# Poissons Ratio (y) = 0.24752 0.39902
# Poissons Ratio (z) = 0.25443 0.33212
#
# Static dielectric constant tensor:
#      x y z
#    x 3.210250 0.000000 0.000000 
#    y 0.000000 2.700900 0.000000 
#    z 0.000000 0.000000 3.101350 
# 
# 
# High freq. dielectric constant tensor:
#      x y z
#    x 1.599000 0.000000 0.000000 
#    y 0.000000 1.575460 0.000000 
#    z 0.000000 0.000000 1.609910 
# 
# From -- ./inp_files/42253.got.cif
#   From: 2010.03.12/outbox.cif.g09.slc.cpg/sg69_22_cif.got.tgz:42253.got - 2010.04.10 23:52:46.
