data_PCOD8284650
_publ_section_title
;
Structure prediction by ZEFSAII (Michael W. Deem and Ramdas Pophale) SiO2 
 PCOD8284650
Probable space group: F M M M
;
_chemical_formula_sum "Si O2"
_cell_formula_units_Z 112
_cell_length_a 19.114014
_cell_length_b 36.407961
_cell_length_c 8.767163
_cell_angle_alpha 90.000000
_cell_angle_beta 90.000000
_cell_angle_gamma 90.000000
_cell_volume 6101.088688
_symmetry_space_group_name_H-M "F M M M"
_symmetry_group_IT_number 69
_symmetry_cell_setting 'orthorhombic'
loop_
_space_group_symop_operation_xyz
x,y,z
-x,-y,z
x,-y,-z
-x,y,-z
-x,-y,-z
x,y,-z
-x,y,z
x,-y,z
x,1/2+y,1/2+z
-x,1/2-y,1/2+z
x,1/2-y,1/2-z
-x,1/2+y,1/2-z
-x,1/2-y,1/2-z
x,1/2+y,1/2-z
-x,1/2+y,1/2+z
x,1/2-y,1/2+z
1/2+x,y,1/2+z
1/2-x,-y,1/2+z
1/2+x,-y,1/2-z
1/2-x,y,1/2-z
1/2-x,-y,1/2-z
1/2+x,y,1/2-z
1/2-x,y,1/2+z
1/2+x,-y,1/2+z
1/2+x,1/2+y,z
1/2-x,1/2-y,z
1/2+x,1/2-y,-z
1/2-x,1/2+y,-z
1/2-x,1/2-y,-z
1/2+x,1/2+y,-z
1/2-x,1/2+y,z
1/2+x,1/2-y,z
loop_
_atom_site_type_symbol
_atom_site_label
_atom_site_fract_x
_atom_site_fract_y
_atom_site_fract_z
Si Si1 0.082465 0.348219 0.674062
Si Si2 0.676310 0.711303 0.320249
Si Si3 0.083504 0.421521 0.171045
Si Si4 0.423175 0.000000 0.181489
O O1 0.103589 0.340607 0.500000
O O2 0.118014 0.318645 0.782886
O O3 0.109115 0.388999 0.718526
O O4 0.000000 0.344926 0.700312
O O5 0.684345 0.715735 0.500000
O O6 0.652195 0.750000 0.250000
O O7 0.750000 0.698570 0.250000
O O8 0.114452 0.461331 0.228748
O O9 0.000000 0.424650 0.171383
O O10 0.109983 0.412637 0.000000
O O11 0.500000 0.000000 0.257069
O O12 0.430397 0.000000 0.000000
#
# Coordination Sequence:
#
# PCOD8284650 Si02
#       4
#    32  32  32  16
#     4  10  20  33  49  73 105 136 167 205 247 290
#     4  11  22  38  58  77  99 127 162 202 245 295
#     4   8  13  23  40  63  92 127 165 203 244 288
#     4   7  10  18  35  59  88 123 162 201 240 285
#
# _framework density 18.357379999999999
#
# number of rings (size 3 to 8) (size 9 to 14) (size 15 to 20)
#    0.000    2.714    0.000    6.000    0.000    2.286 
#    0.000    0.714    0.000    4.286    0.000    1.000 
#    0.000    0.000    0.000    0.000    0.000    0.000 
#
# Total GULP energy -346958.219622 kJ/mol
# GULP energy per Si atom -12391.364987 kJ/mol
# Density = 1.831560 g / cm^3
# Si number density = 18.357380 Si / 1000 Ang^3
#
#
#
# Elastic Constant Matrix: (Units=GPa)
#
#
# Indices 1 2 3 4 5 6 
#
# 1 28.1652 40.9721 26.4591 0.0002 0.0002 -0.0002
# 2 40.9721 149.3363 53.5486 0.0000 0.0000 -0.0001
# 3 26.4591 53.5486 110.4817 0.0006 0.0006 -0.0005
# 4 0.0002 0.0000 0.0006 31.2158 -0.0004 0.0001
# 5 0.0002 0.0000 0.0006 -0.0004 19.9613 0.0003
# 6 -0.0002 -0.0001 -0.0005 0.0001 0.0003 -1.2985
#
#
#
# Elastic Compliance Matrix: (Units=1/GPa)
#
#
# Indices 1 2 3 4 5 6 
#
# 1 0.064905 -0.014807 -0.008367 0.000000 0.000000 -0.000005
# 2 -0.014807 0.011483 -0.002019 0.000000 0.000000 0.000002
# 3 -0.008367 -0.002019 0.012034 0.000000 0.000000 -0.000003
# 4 0.000000 0.000000 0.000000 0.032035 0.000001 0.000003
# 5 0.000000 0.000000 0.000000 0.000001 0.050097 0.000012
# 6 -0.000005 0.000002 -0.000003 0.000003 0.000012 -0.770131
#
#
# Mechanical properties :
#
#
# Convention : Reuss Voigt Hill
#
# Bulk Modulus (GPa) = 26.29199 58.88252 42.58726
# Shear Modulus (GPa) = -9.31947 21.10928 5.89491
#
# Velocity S-wave (km/s) = -2.25560 3.39471 1.79392
# Velocity P-wave (km/s) = 2.75132 6.89280 5.24788
#
# Compressibility (1/GPa) = 0.03803440
#
# Stress axis : x y z
#
# Youngs Moduli (GPa) = 15.40704 87.08571 83.09840
#
# Poissons Ratio (x) = 1.28950 0.69531
# Poissons Ratio (y) = 0.22814 0.16781
# Poissons Ratio (z) = 0.12892 0.17586
#
# Static dielectric constant tensor:
#      x y z
#    x 2.825280 0.000000 0.000000 
#    y 0.000000 3.876100 0.000000 
#    z 0.000000 0.000000 3.308780 
# 
# 
# High freq. dielectric constant tensor:
#      x y z
#    x 1.646760 0.000000 0.000000 
#    y 0.000000 1.737930 0.000000 
#    z 0.000000 0.000000 1.704730 
# 
# From -- ./inp_files/4009.got.cif
#   From: 2010.03.12/outbox.cif.g09.slc.cpg/sg69_3_cif.got.tgz:4009.got - 2010.04.10 23:52:46.
