data_PCOD8284597
_publ_section_title
;
Structure prediction by ZEFSAII (Michael W. Deem and Ramdas Pophale) SiO2 
 PCOD8284597
Probable space group: F M M M
;
_chemical_formula_sum "Si O2"
_cell_formula_units_Z 144
_cell_length_a 8.773436
_cell_length_b 28.490784
_cell_length_c 36.080289
_cell_angle_alpha 90.000000
_cell_angle_beta 90.000000
_cell_angle_gamma 90.000000
_cell_volume 9018.703725
_symmetry_space_group_name_H-M "F M M M"
_symmetry_group_IT_number 69
_symmetry_cell_setting 'orthorhombic'
loop_
_space_group_symop_operation_xyz
x,y,z
-x,-y,z
x,-y,-z
-x,y,-z
-x,-y,-z
x,y,-z
-x,y,z
x,-y,z
x,1/2+y,1/2+z
-x,1/2-y,1/2+z
x,1/2-y,1/2-z
-x,1/2+y,1/2-z
-x,1/2-y,1/2-z
x,1/2+y,1/2-z
-x,1/2+y,1/2+z
x,1/2-y,1/2+z
1/2+x,y,1/2+z
1/2-x,-y,1/2+z
1/2+x,-y,1/2-z
1/2-x,y,1/2-z
1/2-x,-y,1/2-z
1/2+x,y,1/2-z
1/2-x,y,1/2+z
1/2+x,-y,1/2+z
1/2+x,1/2+y,z
1/2-x,1/2-y,z
1/2+x,1/2-y,-z
1/2-x,1/2+y,-z
1/2-x,1/2-y,-z
1/2+x,1/2+y,-z
1/2-x,1/2+y,z
1/2+x,1/2-y,z
loop_
_atom_site_type_symbol
_atom_site_label
_atom_site_fract_x
_atom_site_fract_y
_atom_site_fract_z
Si Si1 0.819876 0.109670 0.429357
Si Si2 0.677662 0.945289 0.362782
Si Si3 0.181264 0.947520 0.500000
Si Si4 0.320385 0.298862 0.957540
Si Si5 0.671144 0.055695 0.213182
O O1 0.773888 0.084505 0.391698
O O2 0.757518 0.078863 0.463644
O O3 0.744506 0.160740 0.431146
O O4 0.000000 0.115395 0.431163
O O5 0.500000 0.934714 0.367613
O O6 0.729575 0.928827 0.322105
O O7 0.714818 0.000000 0.369051
O O8 0.000000 0.949182 0.500000
O O9 0.249330 0.000000 0.500000
O O10 0.500000 0.296180 0.953330
O O11 0.250000 0.250000 0.943782
O O12 0.270869 0.308923 0.000000
O O13 0.500000 0.075944 0.209677
O O14 0.750000 0.076731 0.250000
O O15 0.665520 0.000000 0.216103
#
# Coordination Sequence:
#
# PCOD8284597 Si02
#       5
#    32  32  16  32  32
#     4  11  20  32  49  68  93 123 159 198 240 285
#     4  10  20  32  45  65  95 129 163 199 237 278
#     4   9  18  30  44  63  88 121 160 197 230 271
#     4  10  20  34  52  71  92 116 150 194 243 291
#     4   9  16  27  44  65  89 120 157 195 235 279
#
# _framework density 15.966817000000001
#
# number of rings (size 3 to 8) (size 9 to 14) (size 15 to 20)
#    0.000    2.111    1.111    3.333    0.000    5.778 
#    0.000    0.000    0.000    2.667    0.000    0.000 
#    0.000    0.889    0.000    8.889    0.000    5.778 
#
# Total GULP energy -446499.535998 kJ/mol
# GULP energy per Si atom -12402.764889 kJ/mol
# Density = 1.593048 g / cm^3
# Si number density = 15.966817 Si / 1000 Ang^3
#
#
#
# Elastic Constant Matrix: (Units=GPa)
#
#
# Indices 1 2 3 4 5 6 
#
# 1 69.3390 30.6299 22.0540 0.0000 0.0000 0.0000
# 2 30.6299 84.3162 41.0246 0.0000 0.0000 0.0000
# 3 22.0540 41.0246 97.7224 0.0000 0.0000 0.0000
# 4 0.0000 0.0000 0.0000 3.5099 0.0000 0.0000
# 5 0.0000 0.0000 0.0000 0.0000 29.0367 0.0000
# 6 0.0000 0.0000 0.0000 0.0000 0.0000 22.9739
#
#
#
# Elastic Compliance Matrix: (Units=1/GPa)
#
#
# Indices 1 2 3 4 5 6 
#
# 1 0.017375 -0.005534 -0.001598 0.000000 0.000000 0.000000
# 2 -0.005534 0.016667 -0.005748 0.000000 0.000000 0.000000
# 3 -0.001598 -0.005748 0.013007 0.000000 0.000000 0.000000
# 4 0.000000 0.000000 0.000000 0.284910 0.000000 0.000000
# 5 0.000000 0.000000 0.000000 0.000000 0.034439 0.000000
# 6 0.000000 0.000000 0.000000 0.000000 0.000000 0.043528
#
#
# Mechanical properties :
#
#
# Convention : Reuss Voigt Hill
#
# Bulk Modulus (GPa) = 46.97385 48.75495 47.86440
# Shear Modulus (GPa) = 11.29223 21.61538 16.45381
#
# Velocity S-wave (km/s) = 2.66227 3.68335 3.21362
# Velocity P-wave (km/s) = 6.23969 6.97789 6.61909
#
# Compressibility (1/GPa) = 0.02128844
#
# Stress axis : x y z
#
# Youngs Moduli (GPa) = 57.55437 59.99736 76.88321
#
# Poissons Ratio (x) = 0.33205 0.12284
# Poissons Ratio (y) = 0.31853 0.44193
# Poissons Ratio (z) = 0.09196 0.34487
#
# Static dielectric constant tensor:
#      x y z
#    x 3.060200 0.000000 0.000000 
#    y 0.000000 2.815310 0.000000 
#    z 0.000000 0.000000 3.035790 
# 
# 
# High freq. dielectric constant tensor:
#      x y z
#    x 1.625130 0.000000 0.000000 
#    y 0.000000 1.577870 0.000000 
#    z 0.000000 0.000000 1.605930 
# 
# From -- ./inp_files/5592.got.cif
#   From: 2010.03.12/outbox.cif.g09.slc.cpg/sg69_3_cif.got.tgz:5592.got - 2010.04.10 23:52:46.
