data_PCOD8284115
_publ_section_title
;
Structure prediction by ZEFSAII (Michael W. Deem and Ramdas Pophale) SiO2 
 PCOD8284115
Probable space group: F M M M
;
_chemical_formula_sum "Si O2"
_cell_formula_units_Z 176
_cell_length_a 20.409998
_cell_length_b 34.459849
_cell_length_c 14.034656
_cell_angle_alpha 90.000000
_cell_angle_beta 90.000000
_cell_angle_gamma 90.000000
_cell_volume 9870.930735
_symmetry_space_group_name_H-M "F M M M"
_symmetry_group_IT_number 69
_symmetry_cell_setting 'orthorhombic'
loop_
_space_group_symop_operation_xyz
x,y,z
-x,-y,z
x,-y,-z
-x,y,-z
-x,-y,-z
x,y,-z
-x,y,z
x,-y,z
x,1/2+y,1/2+z
-x,1/2-y,1/2+z
x,1/2-y,1/2-z
-x,1/2+y,1/2-z
-x,1/2-y,1/2-z
x,1/2+y,1/2-z
-x,1/2+y,1/2+z
x,1/2-y,1/2+z
1/2+x,y,1/2+z
1/2-x,-y,1/2+z
1/2+x,-y,1/2-z
1/2-x,y,1/2-z
1/2-x,-y,1/2-z
1/2+x,y,1/2-z
1/2-x,y,1/2+z
1/2+x,-y,1/2+z
1/2+x,1/2+y,z
1/2-x,1/2-y,z
1/2+x,1/2-y,-z
1/2-x,1/2+y,-z
1/2-x,1/2-y,-z
1/2+x,1/2+y,-z
1/2-x,1/2+y,z
1/2+x,1/2-y,z
loop_
_atom_site_type_symbol
_atom_site_label
_atom_site_fract_x
_atom_site_fract_y
_atom_site_fract_z
Si Si1 0.219661 0.454310 0.109945
Si Si2 0.922904 0.000000 0.892639
Si Si3 0.573720 0.221345 0.612233
Si Si4 0.922839 0.194808 0.603596
Si Si5 0.850592 0.431849 0.706484
Si Si6 0.077247 0.352271 0.281008
O O1 0.232523 0.500000 0.121670
O O2 0.161641 0.441234 0.181389
O O3 0.284837 0.432368 0.143766
O O4 0.202133 0.443840 0.000000
O O5 0.901412 0.037652 0.835113
O O6 0.000000 0.000000 0.899260
O O7 0.892648 0.000000 0.000000
O O8 0.576187 0.216632 0.500000
O O9 0.500000 0.219751 0.652552
O O10 0.605450 0.263283 0.640739
O O11 0.607642 0.183585 0.658311
O O12 0.892922 0.184546 0.500000
O O13 0.907555 0.158863 0.671642
O O14 0.000000 0.201756 0.593806
O O15 0.882173 0.389978 0.692932
O O16 0.000000 0.359866 0.299353
#
# Coordination Sequence:
#
# PCOD8284115 Si02
#       6
#    32  16  32  32  32  32
#     4  10  20  38  62  76  87 121 175 229 264 287
#     4  11  22  35  53  77 109 143 163 184 238 315
#     4   8  14  25  41  63  95 135 174 203 231 280
#     4   8  14  26  43  63  93 136 177 204 230 278
#     4  11  20  35  53  78 104 129 166 213 253 301
#     4  10  19  28  44  73 109 139 158 192 249 307
#
# _framework density 17.830131999999999
#
# number of rings (size 3 to 8) (size 9 to 14) (size 15 to 20)
#    0.000    2.455    1.818    3.273    0.000    4.364 
#    0.000    1.818    0.000    2.182    0.000   10.182 
#    0.000   17.455    0.000    0.000    0.000    0.000 
#
# Total GULP energy -545234.048987 kJ/mol
# GULP energy per Si atom -12391.682932 kJ/mol
# Density = 1.778955 g / cm^3
# Si number density = 17.830132 Si / 1000 Ang^3
#
#
#
# Elastic Constant Matrix: (Units=GPa)
#
#
# Indices 1 2 3 4 5 6 
#
# 1 39.0324 26.6495 21.4580 0.0000 0.0000 0.0000
# 2 26.6495 115.2190 27.6802 0.0000 0.0000 0.0000
# 3 21.4580 27.6802 77.4176 0.0000 0.0000 0.0000
# 4 0.0000 0.0000 0.0000 16.1997 0.0000 0.0000
# 5 0.0000 0.0000 0.0000 0.0000 16.9493 0.0000
# 6 0.0000 0.0000 0.0000 0.0000 0.0000 1.1350
#
#
#
# Elastic Compliance Matrix: (Units=1/GPa)
#
#
# Indices 1 2 3 4 5 6 
#
# 1 0.033709 -0.006074 -0.007172 0.000000 0.000000 0.000000
# 2 -0.006074 0.010589 -0.002103 0.000000 0.000000 0.000000
# 3 -0.007172 -0.002103 0.015656 0.000000 0.000000 0.000000
# 4 0.000000 0.000000 0.000000 0.061729 0.000000 0.000000
# 5 0.000000 0.000000 0.000000 0.000000 0.058999 0.000000
# 6 0.000000 0.000000 0.000000 0.000000 0.000000 0.881041
#
#
# Mechanical properties :
#
#
# Convention : Reuss Voigt Hill
#
# Bulk Modulus (GPa) = 34.17776 42.58270 38.38023
# Shear Modulus (GPa) = 4.53649 17.24890 10.89270
#
# Velocity S-wave (km/s) = 1.59681 3.11368 2.47435
# Velocity P-wave (km/s) = 4.75499 6.07132 5.45302
#
# Compressibility (1/GPa) = 0.02925879
#
# Stress axis : x y z
#
# Youngs Moduli (GPa) = 29.66546 94.43687 63.87125
#
# Poissons Ratio (x) = 0.57359 0.45806
# Poissons Ratio (y) = 0.18018 0.13429
# Poissons Ratio (z) = 0.21275 0.19856
#
# Static dielectric constant tensor:
#      x y z
#    x 2.802090 0.000000 0.000000 
#    y 0.000000 3.321890 0.000000 
#    z 0.000000 0.000000 3.630060 
# 
# 
# High freq. dielectric constant tensor:
#      x y z
#    x 1.626410 0.000000 0.000000 
#    y 0.000000 1.695920 0.000000 
#    z 0.000000 0.000000 1.707740 
# 
# From -- ./inp_files/18261.got.cif
#   From: 2010.03.12/outbox.cif.g09.slc.cpg/sg69_10_cif.got.tgz:18261.got - 2010.04.10 23:52:46.
