data_PCOD8284333
_publ_section_title
;
Structure prediction by ZEFSAII (Michael W. Deem and Ramdas Pophale) SiO2 
 PCOD8284333
Probable space group: F M M M
;
_chemical_formula_sum "Si O2"
_cell_formula_units_Z 208
_cell_length_a 17.533132
_cell_length_b 20.901732
_cell_length_c 26.557355
_cell_angle_alpha 90.000000
_cell_angle_beta 90.000000
_cell_angle_gamma 90.000000
_cell_volume 9732.548943
_symmetry_space_group_name_H-M "F M M M"
_symmetry_group_IT_number 69
_symmetry_cell_setting 'orthorhombic'
loop_
_space_group_symop_operation_xyz
x,y,z
-x,-y,z
x,-y,-z
-x,y,-z
-x,-y,-z
x,y,-z
-x,y,z
x,-y,z
x,1/2+y,1/2+z
-x,1/2-y,1/2+z
x,1/2-y,1/2-z
-x,1/2+y,1/2-z
-x,1/2-y,1/2-z
x,1/2+y,1/2-z
-x,1/2+y,1/2+z
x,1/2-y,1/2+z
1/2+x,y,1/2+z
1/2-x,-y,1/2+z
1/2+x,-y,1/2-z
1/2-x,y,1/2-z
1/2-x,-y,1/2-z
1/2+x,y,1/2-z
1/2-x,y,1/2+z
1/2+x,-y,1/2+z
1/2+x,1/2+y,z
1/2-x,1/2-y,z
1/2+x,1/2-y,-z
1/2-x,1/2+y,-z
1/2-x,1/2-y,-z
1/2+x,1/2+y,-z
1/2-x,1/2+y,z
1/2+x,1/2-y,z
loop_
_atom_site_type_symbol
_atom_site_label
_atom_site_fract_x
_atom_site_fract_y
_atom_site_fract_z
Si Si1 0.588087 0.132394 0.870058
Si Si2 0.827055 0.427042 0.221322
Si Si3 0.666080 0.375299 0.092386
Si Si4 0.183922 0.427975 0.056889
Si Si5 0.412569 0.749743 0.442778
Si Si6 0.581997 0.000000 0.557305
Si Si7 0.913732 0.927358 0.819568
O O1 0.500000 0.127969 0.852614
O O2 0.645837 0.120896 0.822992
O O3 0.605043 0.077750 0.911916
O O4 0.606358 0.198354 0.899300
O O5 0.814573 0.500000 0.200566
O O6 0.750000 0.403750 0.250000
O O7 0.895889 0.426486 0.260784
O O8 0.756528 0.381128 0.084887
O O9 0.640646 0.310223 0.066576
O O10 0.627146 0.435382 0.066707
O O11 0.642875 0.378671 0.151442
O O12 0.214783 0.500000 0.058174
O O13 0.170474 0.405103 0.000000
O O14 0.397332 0.723982 0.500000
O O15 0.500000 0.771524 0.437683
O O16 0.500000 0.000000 0.586709
O O17 0.562020 0.000000 0.500000
O O18 0.000000 0.903788 0.826941
O O19 0.901665 0.000000 0.840996
#
# Coordination Sequence:
#
# PCOD8284333 Si02
#       7
#    32  32  32  32  32  16  32
#     4  11  24  43  65  90 125 173 223 266 310 375
#     4  10  21  39  65  94 124 154 200 263 332 389
#     4  12  21  36  59  88 130 170 212 264 331 395
#     4  11  23  38  59  89 124 162 211 275 337 386
#     4  10  22  40  62  90 128 176 226 272 318 377
#     4  11  20  30  52  86 122 163 211 263 323 395
#     4  10  19  32  54  87 121 154 194 247 312 384
#
# _framework density 21.371585
#
# number of rings (size 3 to 8) (size 9 to 14) (size 15 to 20)
#    0.000    1.308    1.538    5.077    0.000    5.846 
#    0.000    3.077    0.000    3.692    0.000    0.000 
#    0.000    0.000    0.000    0.000    0.000    0.000 
#
# Total GULP energy -644513.020431 kJ/mol
# GULP energy per Si atom -12394.481162 kJ/mol
# Density = 2.132294 g / cm^3
# Si number density = 21.371585 Si / 1000 Ang^3
#
#
#
# Elastic Constant Matrix: (Units=GPa)
#
#
# Indices 1 2 3 4 5 6 
#
# 1 86.2194 39.8318 45.5852 0.0000 0.0000 0.0000
# 2 39.8318 91.9519 46.5354 0.0000 0.0000 0.0000
# 3 45.5852 46.5354 124.0895 0.0000 0.0000 0.0000
# 4 0.0000 0.0000 0.0000 29.0207 0.0000 0.0000
# 5 0.0000 0.0000 0.0000 0.0000 2.3408 0.0000
# 6 0.0000 0.0000 0.0000 0.0000 0.0000 29.8831
#
#
#
# Elastic Compliance Matrix: (Units=1/GPa)
#
#
# Indices 1 2 3 4 5 6 
#
# 1 0.015991 -0.004880 -0.004044 0.000000 0.000000 0.000000
# 2 -0.004880 0.014912 -0.003799 0.000000 0.000000 0.000000
# 3 -0.004044 -0.003799 0.010969 0.000000 0.000000 0.000000
# 4 0.000000 0.000000 0.000000 0.034458 0.000000 0.000000
# 5 0.000000 0.000000 0.000000 0.000000 0.427199 0.000000
# 6 0.000000 0.000000 0.000000 0.000000 0.000000 0.033464
#
#
# Mechanical properties :
#
#
# Convention : Reuss Voigt Hill
#
# Bulk Modulus (GPa) = 60.88479 62.90728 61.89603
# Shear Modulus (GPa) = 8.80411 23.60280 16.20346
#
# Velocity S-wave (km/s) = 2.03187 3.32686 2.75649
# Velocity P-wave (km/s) = 5.83568 6.65254 6.25745
#
# Compressibility (1/GPa) = 0.01642446
#
# Stress axis : x y z
#
# Youngs Moduli (GPa) = 62.53433 67.05929 91.16388
#
# Poissons Ratio (x) = 0.32727 0.36869
# Poissons Ratio (y) = 0.30519 0.34637
# Poissons Ratio (z) = 0.25291 0.25479
#
# Static dielectric constant tensor:
#      x y z
#    x 3.963540 0.000000 0.000000 
#    y 0.000000 3.739510 0.000000 
#    z 0.000000 0.000000 4.048120 
# 
# 
# High freq. dielectric constant tensor:
#      x y z
#    x 1.845900 0.000000 0.000000 
#    y 0.000000 1.804580 0.000000 
#    z 0.000000 0.000000 1.852990 
# 
# From -- ./inp_files/41994.got.cif
#   From: 2010.03.12/outbox.cif.g09.slc.cpg/sg69_21_cif.got.tgz:41994.got - 2010.04.10 23:52:46.
