data_PCOD8284940
_publ_section_title
;
Structure prediction by ZEFSAII (Michael W. Deem and Ramdas Pophale) SiO2 
 PCOD8284940
Probable space group: F M M M
;
_chemical_formula_sum "Si O2"
_cell_formula_units_Z 160
_cell_length_a 14.029110
_cell_length_b 30.588417
_cell_length_c 18.203942
_cell_angle_alpha 90.000000
_cell_angle_beta 90.000000
_cell_angle_gamma 90.000000
_cell_volume 7811.826080
_symmetry_space_group_name_H-M "F M M M"
_symmetry_group_IT_number 69
_symmetry_cell_setting 'orthorhombic'
loop_
_space_group_symop_operation_xyz
x,y,z
-x,-y,z
x,-y,-z
-x,y,-z
-x,-y,-z
x,y,-z
-x,y,z
x,-y,z
x,1/2+y,1/2+z
-x,1/2-y,1/2+z
x,1/2-y,1/2-z
-x,1/2+y,1/2-z
-x,1/2-y,1/2-z
x,1/2+y,1/2-z
-x,1/2+y,1/2+z
x,1/2-y,1/2+z
1/2+x,y,1/2+z
1/2-x,-y,1/2+z
1/2+x,-y,1/2-z
1/2-x,y,1/2-z
1/2-x,-y,1/2-z
1/2+x,y,1/2-z
1/2-x,y,1/2+z
1/2+x,-y,1/2+z
1/2+x,1/2+y,z
1/2-x,1/2-y,z
1/2+x,1/2-y,-z
1/2-x,1/2+y,-z
1/2-x,1/2-y,-z
1/2+x,1/2+y,-z
1/2-x,1/2+y,z
1/2+x,1/2-y,z
loop_
_atom_site_type_symbol
_atom_site_label
_atom_site_fract_x
_atom_site_fract_y
_atom_site_fract_z
Si Si1 0.797178 0.550664 0.649009
Si Si2 0.601594 0.821817 0.500000
Si Si3 0.104986 0.813317 0.727215
Si Si4 0.887827 0.411475 0.208693
Si Si5 0.885115 0.916712 0.000000
Si Si6 0.848110 0.234333 0.864343
O O1 0.805435 0.500000 0.668605
O O2 0.861276 0.576878 0.707679
O O3 0.684493 0.563690 0.653566
O O4 0.840640 0.559379 0.569861
O O5 0.500000 0.844713 0.500000
O O6 0.661175 0.866975 0.500000
O O7 0.602578 0.792021 0.428331
O O8 0.135051 0.860169 0.696121
O O9 0.172764 0.797084 0.793884
O O10 0.096665 0.777826 0.661592
O O11 0.000000 0.817096 0.763352
O O12 0.000000 0.422404 0.192644
O O13 0.000000 0.922241 0.000000
O O14 0.750000 0.250000 0.899117
#
# Coordination Sequence:
#
# PCOD8284940 Si02
#       6
#    32  16  32  32  16  32
#     4  11  24  40  65  94 124 159 199 258 318 372
#     4  11  23  40  57  80 116 158 197 245 297 352
#     4  10  20  36  57  82 116 157 196 241 288 347
#     4  10  22  39  64  94 124 162 205 253 307 364
#     4  11  25  43  67  92 123 162 203 254 312 374
#     4  11  22  33  55  86 115 155 197 242 292 342
#
# _framework density 20.481767000000001
#
# number of rings (size 3 to 8) (size 9 to 14) (size 15 to 20)
#    0.000    1.400    0.000    7.200    8.400    6.400 
#    0.000    0.500    0.000    1.200    0.000    0.000 
#    0.000    0.000    0.000    0.000    0.000    0.000 
#
# Total GULP energy -495636.883619 kJ/mol
# GULP energy per Si atom -12390.922090 kJ/mol
# Density = 2.043515 g / cm^3
# Si number density = 20.481767 Si / 1000 Ang^3
#
#
#
# Elastic Constant Matrix: (Units=GPa)
#
#
# Indices 1 2 3 4 5 6 
#
# 1 109.1011 21.2478 30.2814 0.0000 0.0000 0.0000
# 2 21.2478 130.2057 31.3563 0.0000 0.0000 0.0000
# 3 30.2814 31.3563 98.4416 0.0000 0.0000 0.0000
# 4 0.0000 0.0000 0.0000 19.6706 0.0000 0.0000
# 5 0.0000 0.0000 0.0000 0.0000 28.6704 0.0000
# 6 0.0000 0.0000 0.0000 0.0000 0.0000 23.3202
#
#
#
# Elastic Compliance Matrix: (Units=1/GPa)
#
#
# Indices 1 2 3 4 5 6 
#
# 1 0.010135 -0.000978 -0.002806 0.000000 0.000000 0.000000
# 2 -0.000978 0.008413 -0.002379 0.000000 0.000000 0.000000
# 3 -0.002806 -0.002379 0.011779 0.000000 0.000000 0.000000
# 4 0.000000 0.000000 0.000000 0.050837 0.000000 0.000000
# 5 0.000000 0.000000 0.000000 0.000000 0.034879 0.000000
# 6 0.000000 0.000000 0.000000 0.000000 0.000000 0.042881
#
#
# Mechanical properties :
#
#
# Convention : Reuss Voigt Hill
#
# Bulk Modulus (GPa) = 55.55261 55.94662 55.74961
# Shear Modulus (GPa) = 28.20858 31.32309 29.76584
#
# Velocity S-wave (km/s) = 3.71516 3.91489 3.81633
# Velocity P-wave (km/s) = 6.75167 6.91446 6.83355
#
# Compressibility (1/GPa) = 0.01800096
#
# Stress axis : x y z
#
# Youngs Moduli (GPa) = 98.66653 118.86882 84.89558
#
# Poissons Ratio (x) = 0.11627 0.23822
# Poissons Ratio (y) = 0.09651 0.20195
# Poissons Ratio (z) = 0.27687 0.28276
#
# Static dielectric constant tensor:
#      x y z
#    x 3.867290 0.000000 0.000000 
#    y 0.000000 3.863790 0.000000 
#    z 0.000000 0.000000 3.441910 
# 
# 
# High freq. dielectric constant tensor:
#      x y z
#    x 1.808600 0.000000 0.000000 
#    y 0.000000 1.817950 0.000000 
#    z 0.000000 0.000000 1.774180 
# 
# From -- ./inp_files/21874.got.cif
#   From: 2010.03.12/outbox.cif.g09.slc.cpg/sg69_11_cif.got.tgz:21874.got - 2010.04.10 23:52:46.
