data_PCOD8284396
_publ_section_title
;
Structure prediction by ZEFSAII (Michael W. Deem and Ramdas Pophale) SiO2 
 PCOD8284396
Probable space group: F M M M
;
_chemical_formula_sum "Si O2"
_cell_formula_units_Z 192
_cell_length_a 27.543414
_cell_length_b 20.108679
_cell_length_c 18.992323
_cell_angle_alpha 90.000000
_cell_angle_beta 90.000000
_cell_angle_gamma 90.000000
_cell_volume 10519.119747
_symmetry_space_group_name_H-M "F M M M"
_symmetry_group_IT_number 69
_symmetry_cell_setting 'orthorhombic'
loop_
_space_group_symop_operation_xyz
x,y,z
-x,-y,z
x,-y,-z
-x,y,-z
-x,-y,-z
x,y,-z
-x,y,z
x,-y,z
x,1/2+y,1/2+z
-x,1/2-y,1/2+z
x,1/2-y,1/2-z
-x,1/2+y,1/2-z
-x,1/2-y,1/2-z
x,1/2+y,1/2-z
-x,1/2+y,1/2+z
x,1/2-y,1/2+z
1/2+x,y,1/2+z
1/2-x,-y,1/2+z
1/2+x,-y,1/2-z
1/2-x,y,1/2-z
1/2-x,-y,1/2-z
1/2+x,y,1/2-z
1/2-x,y,1/2+z
1/2+x,-y,1/2+z
1/2+x,1/2+y,z
1/2-x,1/2-y,z
1/2+x,1/2-y,-z
1/2-x,1/2+y,-z
1/2-x,1/2-y,-z
1/2+x,1/2+y,-z
1/2-x,1/2+y,z
1/2+x,1/2-y,z
loop_
_atom_site_type_symbol
_atom_site_label
_atom_site_fract_x
_atom_site_fract_y
_atom_site_fract_z
Si Si1 0.287628 0.076938 0.311593
Si Si2 0.556014 0.187929 0.199957
Si Si3 0.107397 0.751262 0.079128
Si Si4 0.711960 0.306882 0.917663
Si Si5 0.055897 0.386433 0.578795
Si Si6 0.103789 0.926445 0.214966
O O1 0.250000 0.091483 0.250000
O O2 0.275575 0.125228 0.376758
O O3 0.340204 0.094528 0.279769
O O4 0.285210 0.000000 0.337167
O O5 0.500000 0.184486 0.177473
O O6 0.566899 0.250000 0.250000
O O7 0.589864 0.192696 0.130742
O O8 0.569585 0.121458 0.240847
O O9 0.158797 0.780913 0.103784
O O10 0.066765 0.808209 0.083979
O O11 0.111533 0.722333 0.000000
O O12 0.750000 0.250000 0.896286
O O13 0.714776 0.323995 0.000000
O O14 0.067605 0.412350 0.500000
O O15 0.088782 0.427130 0.632776
O O16 0.000000 0.397576 0.598302
O O17 0.096416 0.000000 0.245978
#
# Coordination Sequence:
#
# PCOD8284396 Si02
#       6
#    32  32  32  32  32  32
#     4  10  22  39  58  82 113 150 190 229 277 340
#     4  11  21  34  55  82 112 151 192 225 267 329
#     4  10  20  36  57  83 113 144 184 234 282 330
#     4  10  21  37  59  87 114 142 183 234 287 338
#     4  10  19  33  55  83 117 153 185 221 272 337
#     4  11  23  38  56  81 116 152 187 234 283 330
#
# _framework density 18.252479000000001
#
# number of rings (size 3 to 8) (size 9 to 14) (size 15 to 20)
#    0.000    1.667    3.333    1.000    2.333    3.333 
#    0.000    2.500    0.000    0.500    0.000    1.167 
#    0.000    0.000    0.000    0.000    0.000    0.000 
#
# Total GULP energy -595326.580883 kJ/mol
# GULP energy per Si atom -12402.637102 kJ/mol
# Density = 1.821094 g / cm^3
# Si number density = 18.252479 Si / 1000 Ang^3
#
#
#
# Elastic Constant Matrix: (Units=GPa)
#
#
# Indices 1 2 3 4 5 6 
#
# 1 110.1991 37.7915 56.2351 0.0000 0.0000 0.0000
# 2 37.7915 96.8091 51.5322 0.0000 0.0000 0.0000
# 3 56.2351 51.5322 97.6465 0.0000 0.0000 0.0000
# 4 0.0000 0.0000 0.0000 23.1910 0.0000 0.0000
# 5 0.0000 0.0000 0.0000 0.0000 30.3614 0.0000
# 6 0.0000 0.0000 0.0000 0.0000 0.0000 17.5734
#
#
#
# Elastic Compliance Matrix: (Units=1/GPa)
#
#
# Indices 1 2 3 4 5 6 
#
# 1 0.013009 -0.001516 -0.006692 0.000000 0.000000 0.000000
# 2 -0.001516 0.014542 -0.006801 0.000000 0.000000 0.000000
# 3 -0.006692 -0.006801 0.017684 0.000000 0.000000 0.000000
# 4 0.000000 0.000000 0.000000 0.043120 0.000000 0.000000
# 5 0.000000 0.000000 0.000000 0.000000 0.032937 0.000000
# 6 0.000000 0.000000 0.000000 0.000000 0.000000 0.056904
#
#
# Mechanical properties :
#
#
# Convention : Reuss Voigt Hill
#
# Bulk Modulus (GPa) = 65.71736 66.19694 65.95715
# Shear Modulus (GPa) = 23.44257 24.83156 24.13707
#
# Velocity S-wave (km/s) = 3.58767 3.69243 3.64043
# Velocity P-wave (km/s) = 7.29689 7.38409 7.34062
#
# Compressibility (1/GPa) = 0.01521668
#
# Stress axis : x y z
#
# Youngs Moduli (GPa) = 76.86733 68.76729 56.54770
#
# Poissons Ratio (x) = 0.10427 0.37842
# Poissons Ratio (y) = 0.11656 0.38459
# Poissons Ratio (z) = 0.51439 0.46769
#
# Static dielectric constant tensor:
#      x y z
#    x 3.461500 0.000000 0.000000 
#    y 0.000000 3.211240 0.000000 
#    z 0.000000 0.000000 3.393280 
# 
# 
# High freq. dielectric constant tensor:
#      x y z
#    x 1.720990 0.000000 0.000000 
#    y 0.000000 1.689580 0.000000 
#    z 0.000000 0.000000 1.700370 
# 
# From -- ./inp_files/32832.got.cif
#   From: 2010.03.12/outbox.cif.g09.slc.cpg/sg69_17_cif.got.tgz:32832.got - 2010.04.10 23:52:46.
