data_PCOD8284564
_publ_section_title
;
Structure prediction by ZEFSAII (Michael W. Deem and Ramdas Pophale) SiO2 
 PCOD8284564
Probable space group: F M M M
;
_chemical_formula_sum "Si O2"
_cell_formula_units_Z 160
_cell_length_a 24.387387
_cell_length_b 20.844121
_cell_length_c 16.526033
_cell_angle_alpha 90.000000
_cell_angle_beta 90.000000
_cell_angle_gamma 90.000000
_cell_volume 8400.738601
_symmetry_space_group_name_H-M "F M M M"
_symmetry_group_IT_number 69
_symmetry_cell_setting 'orthorhombic'
loop_
_space_group_symop_operation_xyz
x,y,z
-x,-y,z
x,-y,-z
-x,y,-z
-x,-y,-z
x,y,-z
-x,y,z
x,-y,z
x,1/2+y,1/2+z
-x,1/2-y,1/2+z
x,1/2-y,1/2-z
-x,1/2+y,1/2-z
-x,1/2-y,1/2-z
x,1/2+y,1/2-z
-x,1/2+y,1/2+z
x,1/2-y,1/2+z
1/2+x,y,1/2+z
1/2-x,-y,1/2+z
1/2+x,-y,1/2-z
1/2-x,y,1/2-z
1/2-x,-y,1/2-z
1/2+x,y,1/2-z
1/2-x,y,1/2+z
1/2+x,-y,1/2+z
1/2+x,1/2+y,z
1/2-x,1/2-y,z
1/2+x,1/2-y,-z
1/2-x,1/2+y,-z
1/2-x,1/2-y,-z
1/2+x,1/2+y,-z
1/2-x,1/2+y,z
1/2+x,1/2-y,z
loop_
_atom_site_type_symbol
_atom_site_label
_atom_site_fract_x
_atom_site_fract_y
_atom_site_fract_z
Si Si1 0.192645 0.288872 0.500000
Si Si2 0.732296 0.928194 0.500000
Si Si3 0.105068 0.219296 0.130717
Si Si4 0.605387 0.148575 0.210233
Si Si5 0.788623 0.927149 0.674943
Si Si6 0.000000 0.424749 0.750133
Si Si7 0.500000 0.353210 0.085334
O O1 0.250000 0.250000 0.500000
O O2 0.192959 0.366787 0.500000
O O3 0.159171 0.268254 0.421537
O O4 0.764994 0.921683 0.584270
O O5 0.704094 0.000000 0.500000
O O6 0.121479 0.167759 0.198787
O O7 0.086766 0.287797 0.164274
O O8 0.053095 0.192217 0.083567
O O9 0.657456 0.115599 0.170227
O O10 0.553970 0.100971 0.205706
O O11 0.750000 0.903339 0.750000
O O12 0.805298 0.000000 0.694517
O O13 0.000000 0.500000 0.755606
O O14 0.000000 0.403974 0.656790
O O15 0.500000 0.391383 0.000000
#
# Coordination Sequence:
#
# PCOD8284564 Si02
#       7
#    16  16  32  32  32  16  16
#     4  12  22  35  55  84 115 144 192 246 292 344
#     4  10  22  38  55  81 117 156 196 242 300 360
#     4  10  21  35  57  81 109 149 186 236 292 342
#     4  10  20  36  56  82 111 144 191 236 285 346
#     4  10  20  36  58  80 111 156 196 235 290 355
#     4  10  21  36  59  86 113 146 187 239 290 347
#     4  10  19  38  57  77 113 144 186 231 285 360
#
# _framework density 19.045945
#
# number of rings (size 3 to 8) (size 9 to 14) (size 15 to 20)
#    0.000    1.800    1.000    3.600    0.000    2.600 
#    0.000    6.000    0.000    0.000    0.000    3.500 
#    0.000    0.000    0.000    0.000    0.000    0.000 
#
# Total GULP energy -495715.933845 kJ/mol
# GULP energy per Si atom -12392.898346 kJ/mol
# Density = 1.900260 g / cm^3
# Si number density = 19.045945 Si / 1000 Ang^3
#
#
#
# Elastic Constant Matrix: (Units=GPa)
#
#
# Indices 1 2 3 4 5 6 
#
# 1 92.2949 39.1176 31.9721 0.0000 0.0000 0.0000
# 2 39.1176 98.8715 21.6405 0.0000 0.0000 0.0000
# 3 31.9721 21.6405 103.3627 0.0000 0.0000 0.0000
# 4 0.0000 0.0000 0.0000 15.6042 0.0000 0.0000
# 5 0.0000 0.0000 0.0000 0.0000 31.1189 0.0000
# 6 0.0000 0.0000 0.0000 0.0000 0.0000 33.9660
#
#
#
# Elastic Compliance Matrix: (Units=1/GPa)
#
#
# Indices 1 2 3 4 5 6 
#
# 1 0.014033 -0.004823 -0.003331 0.000000 0.000000 0.000000
# 2 -0.004823 0.012257 -0.001074 0.000000 0.000000 0.000000
# 3 -0.003331 -0.001074 0.010930 0.000000 0.000000 0.000000
# 4 0.000000 0.000000 0.000000 0.064085 0.000000 0.000000
# 5 0.000000 0.000000 0.000000 0.000000 0.032135 0.000000
# 6 0.000000 0.000000 0.000000 0.000000 0.000000 0.029441
#
#
# Mechanical properties :
#
#
# Convention : Reuss Voigt Hill
#
# Bulk Modulus (GPa) = 53.29438 53.33216 53.31327
# Shear Modulus (GPa) = 26.65350 29.59108 28.12229
#
# Velocity S-wave (km/s) = 3.74496 3.94594 3.84676
# Velocity P-wave (km/s) = 6.83684 6.98736 6.91251
#
# Compressibility (1/GPa) = 0.01876371
#
# Stress axis : x y z
#
# Youngs Moduli (GPa) = 71.26164 81.58301 91.49195
#
# Poissons Ratio (x) = 0.39347 0.30475
# Poissons Ratio (y) = 0.34369 0.09830
# Poissons Ratio (z) = 0.23736 0.08766
#
# Static dielectric constant tensor:
#      x y z
#    x 3.393430 0.000000 0.000000 
#    y 0.000000 3.535670 0.000000 
#    z 0.000000 0.000000 3.645360 
# 
# 
# High freq. dielectric constant tensor:
#      x y z
#    x 1.735520 0.000000 0.000000 
#    y 0.000000 1.744350 0.000000 
#    z 0.000000 0.000000 1.749740 
# 
# From -- ./inp_files/26715.got.cif
#   From: 2010.03.12/outbox.cif.g09.slc.cpg/sg69_14_cif.got.tgz:26715.got - 2010.04.10 23:52:46.
