data_PCOD8284040
_publ_section_title
;
Structure prediction by ZEFSAII (Michael W. Deem and Ramdas Pophale) SiO2 
 PCOD8284040
Probable space group: F M M M
;
_chemical_formula_sum "Si O2"
_cell_formula_units_Z 192
_cell_length_a 22.361681
_cell_length_b 14.363293
_cell_length_c 29.021253
_cell_angle_alpha 90.000000
_cell_angle_beta 90.000000
_cell_angle_gamma 90.000000
_cell_volume 9321.260104
_symmetry_space_group_name_H-M "F M M M"
_symmetry_group_IT_number 69
_symmetry_cell_setting 'orthorhombic'
loop_
_space_group_symop_operation_xyz
x,y,z
-x,-y,z
x,-y,-z
-x,y,-z
-x,-y,-z
x,y,-z
-x,y,z
x,-y,z
x,1/2+y,1/2+z
-x,1/2-y,1/2+z
x,1/2-y,1/2-z
-x,1/2+y,1/2-z
-x,1/2-y,1/2-z
x,1/2+y,1/2-z
-x,1/2+y,1/2+z
x,1/2-y,1/2+z
1/2+x,y,1/2+z
1/2-x,-y,1/2+z
1/2+x,-y,1/2-z
1/2-x,y,1/2-z
1/2-x,-y,1/2-z
1/2+x,y,1/2-z
1/2-x,y,1/2+z
1/2+x,-y,1/2+z
1/2+x,1/2+y,z
1/2-x,1/2-y,z
1/2+x,1/2-y,-z
1/2-x,1/2+y,-z
1/2-x,1/2-y,-z
1/2+x,1/2+y,-z
1/2-x,1/2+y,z
1/2+x,1/2-y,z
loop_
_atom_site_type_symbol
_atom_site_label
_atom_site_fract_x
_atom_site_fract_y
_atom_site_fract_z
Si Si1 0.284260 0.156126 0.206240
Si Si2 0.143280 0.606038 0.408070
Si Si3 0.219207 0.898378 0.605806
Si Si4 0.391514 0.250000 0.250000
Si Si5 0.881067 0.292381 0.052948
Si Si6 0.433813 0.104037 0.319793
Si Si7 0.000000 0.105350 0.445325
O O1 0.250000 0.107962 0.250000
O O2 0.250000 0.250000 0.192966
O O3 0.285181 0.092806 0.161178
O O4 0.351921 0.180787 0.219103
O O5 0.129496 0.500000 0.424293
O O6 0.213572 0.627173 0.407983
O O7 0.112943 0.680301 0.442677
O O8 0.116916 0.624141 0.357439
O O9 0.174517 0.823874 0.584145
O O10 0.202439 0.000000 0.585915
O O11 0.432088 0.182732 0.280791
O O12 0.941060 0.340977 0.072326
O O13 0.869598 0.319971 0.000000
O O14 0.500000 0.108892 0.342404
O O15 0.423289 0.000000 0.299029
O O16 0.000000 0.104966 0.500000
O O17 0.000000 0.000000 0.425780
#
# Coordination Sequence:
#
# PCOD8284040 Si02
#       7
#    32  32  32  16  32  32  16
#     4   9  18  33  54  81 116 154 196 245 300 359
#     4  10  22  39  59  86 119 154 201 251 302 366
#     4  11  22  36  58  89 122 160 204 249 303 366
#     4  10  18  32  54  80 110 148 196 248 300 359
#     4  11  23  40  63  90 121 158 201 252 307 365
#     4  10  21  36  55  79 111 155 200 245 303 365
#     4   9  20  40  63  87 117 156 198 237 291 366
#
# _framework density 20.598074
#
# number of rings (size 3 to 8) (size 9 to 14) (size 15 to 20)
#    0.000    2.083    0.000    5.250    1.167    3.667 
#    0.000    1.667    0.000    2.000    0.000    0.000 
#    0.000    0.000    0.000    0.000    0.000    0.000 
#
# Total GULP energy -595055.538237 kJ/mol
# GULP energy per Si atom -12396.990380 kJ/mol
# Density = 2.055119 g / cm^3
# Si number density = 20.598074 Si / 1000 Ang^3
#
#
#
# Elastic Constant Matrix: (Units=GPa)
#
#
# Indices 1 2 3 4 5 6 
#
# 1 112.4570 59.9054 25.4865 0.0000 0.0000 0.0000
# 2 59.9054 120.9027 36.1110 0.0000 0.0000 0.0000
# 3 25.4865 36.1110 69.0167 0.0000 0.0000 0.0000
# 4 0.0000 0.0000 0.0000 29.2958 0.0000 0.0000
# 5 0.0000 0.0000 0.0000 0.0000 23.0194 0.0000
# 6 0.0000 0.0000 0.0000 0.0000 0.0000 17.8299
#
#
#
# Elastic Compliance Matrix: (Units=1/GPa)
#
#
# Indices 1 2 3 4 5 6 
#
# 1 0.012227 -0.005582 -0.001595 0.000000 0.000000 0.000000
# 2 -0.005582 0.012352 -0.004401 0.000000 0.000000 0.000000
# 3 -0.001595 -0.004401 0.017381 0.000000 0.000000 0.000000
# 4 0.000000 0.000000 0.000000 0.034135 0.000000 0.000000
# 5 0.000000 0.000000 0.000000 0.000000 0.043442 0.000000
# 6 0.000000 0.000000 0.000000 0.000000 0.000000 0.056085
#
#
# Mechanical properties :
#
#
# Convention : Reuss Voigt Hill
#
# Bulk Modulus (GPa) = 53.18074 60.59804 56.88939
# Shear Modulus (GPa) = 24.38488 26.08727 25.23608
#
# Velocity S-wave (km/s) = 3.44443 3.56264 3.50404
# Velocity P-wave (km/s) = 6.45703 6.81222 6.63700
#
# Compressibility (1/GPa) = 0.01880380
#
# Stress axis : x y z
#
# Youngs Moduli (GPa) = 81.78443 80.96171 57.53446
#
# Poissons Ratio (x) = 0.45194 0.09174
# Poissons Ratio (y) = 0.45653 0.25322
# Poissons Ratio (z) = 0.13041 0.35633
#
# Static dielectric constant tensor:
#      x y z
#    x 3.724390 0.000000 0.000000 
#    y 0.000000 3.803430 0.000000 
#    z 0.000000 0.000000 3.403920 
# 
# 
# High freq. dielectric constant tensor:
#      x y z
#    x 1.808230 0.000000 0.000000 
#    y 0.000000 1.814550 0.000000 
#    z 0.000000 0.000000 1.775890 
# 
# From -- ./inp_files/43214.got.cif
#   From: 2010.03.12/outbox.cif.g09.slc.cpg/sg69_22_cif.got.tgz:43214.got - 2010.04.10 23:52:46.
