data_PCOD8284106
_publ_section_title
;
Structure prediction by ZEFSAII (Michael W. Deem and Ramdas Pophale) SiO2 
 PCOD8284106
Probable space group: F M M M
;
_chemical_formula_sum "Si O2"
_cell_formula_units_Z 128
_cell_length_a 18.440340
_cell_length_b 26.723752
_cell_length_c 18.200308
_cell_angle_alpha 90.000000
_cell_angle_beta 90.000000
_cell_angle_gamma 90.000000
_cell_volume 8969.022109
_symmetry_space_group_name_H-M "F M M M"
_symmetry_group_IT_number 69
_symmetry_cell_setting 'orthorhombic'
loop_
_space_group_symop_operation_xyz
x,y,z
-x,-y,z
x,-y,-z
-x,y,-z
-x,-y,-z
x,y,-z
-x,y,z
x,-y,z
x,1/2+y,1/2+z
-x,1/2-y,1/2+z
x,1/2-y,1/2-z
-x,1/2+y,1/2-z
-x,1/2-y,1/2-z
x,1/2+y,1/2-z
-x,1/2+y,1/2+z
x,1/2-y,1/2+z
1/2+x,y,1/2+z
1/2-x,-y,1/2+z
1/2+x,-y,1/2-z
1/2-x,y,1/2-z
1/2-x,-y,1/2-z
1/2+x,y,1/2-z
1/2-x,y,1/2+z
1/2+x,-y,1/2+z
1/2+x,1/2+y,z
1/2-x,1/2-y,z
1/2+x,1/2-y,-z
1/2-x,1/2+y,-z
1/2-x,1/2-y,-z
1/2+x,1/2+y,-z
1/2-x,1/2+y,z
1/2+x,1/2-y,z
loop_
_atom_site_type_symbol
_atom_site_label
_atom_site_fract_x
_atom_site_fract_y
_atom_site_fract_z
Si Si1 0.298097 0.700423 0.918974
Si Si2 0.081351 0.054694 0.412811
Si Si3 0.155605 0.654155 0.087557
Si Si4 0.416895 0.751921 0.163451
O O1 0.250000 0.750000 0.920182
O O2 0.241439 0.657676 0.892644
O O3 0.367526 0.706337 0.866758
O O4 0.328240 0.688376 0.000000
O O5 0.080494 0.055691 0.500000
O O6 0.131748 0.099506 0.383806
O O7 0.000000 0.063359 0.383033
O O8 0.109917 0.000000 0.385820
O O9 0.108183 0.695247 0.130183
O O10 0.143478 0.662132 0.000000
O O11 0.500000 0.742496 0.140660
O O12 0.406887 0.750000 0.250000
#
# Coordination Sequence:
#
# PCOD8284106 Si02
#       4
#    32  32  32  32
#     4   8  15  26  38  53  72  97 129 157 183 223
#     4   8  13  21  35  57  82 104 126 153 186 228
#     4   9  16  26  40  57  79 106 130 152 186 231
#     4  10  19  27  36  54  77 101 132 164 193 228
#
# _framework density 14.271343999999999
#
# number of rings (size 3 to 8) (size 9 to 14) (size 15 to 20)
#    0.000    3.250    0.000    3.750    0.000    7.500 
#    0.000    0.000    0.000    0.000    0.000    3.500 
#    0.000    3.000    0.000    9.750    0.000    0.250 
#
# Total GULP energy -396441.935782 kJ/mol
# GULP energy per Si atom -12388.810493 kJ/mol
# Density = 1.423886 g / cm^3
# Si number density = 14.271344 Si / 1000 Ang^3
#
#
#
# Elastic Constant Matrix: (Units=GPa)
#
#
# Indices 1 2 3 4 5 6 
#
# 1 122.6414 59.6563 45.9197 0.0000 0.0000 0.0000
# 2 59.6563 102.4357 24.1284 0.0000 0.0000 0.0000
# 3 45.9197 24.1284 45.7273 0.0000 0.0000 0.0000
# 4 0.0000 0.0000 0.0000 5.9335 0.0000 0.0000
# 5 0.0000 0.0000 0.0000 0.0000 21.0438 0.0000
# 6 0.0000 0.0000 0.0000 0.0000 0.0000 27.6223
#
#
#
# Elastic Compliance Matrix: (Units=1/GPa)
#
#
# Indices 1 2 3 4 5 6 
#
# 1 0.015990 -0.006315 -0.012726 0.000000 0.000000 0.000000
# 2 -0.006315 0.013642 -0.000857 0.000000 0.000000 0.000000
# 3 -0.012726 -0.000857 0.035100 0.000000 0.000000 0.000000
# 4 0.000000 0.000000 0.000000 0.168533 0.000000 0.000000
# 5 0.000000 0.000000 0.000000 0.000000 0.047520 0.000000
# 6 0.000000 0.000000 0.000000 0.000000 0.000000 0.036203
#
#
# Mechanical properties :
#
#
# Convention : Reuss Voigt Hill
#
# Bulk Modulus (GPa) = 40.09987 58.91256 49.50622
# Shear Modulus (GPa) = 13.69508 20.32659 17.01083
#
# Velocity S-wave (km/s) = 3.10114 3.77808 3.45622
# Velocity P-wave (km/s) = 6.40171 7.77186 7.11982
#
# Compressibility (1/GPa) = 0.02493774
#
# Stress axis : x y z
#
# Youngs Moduli (GPa) = 62.53769 73.30464 28.49017
#
# Poissons Ratio (x) = 0.46292 0.36255
# Poissons Ratio (y) = 0.39492 0.02440
# Poissons Ratio (z) = 0.79582 0.06279
#
# Static dielectric constant tensor:
#      x y z
#    x 3.048660 0.000000 0.000000 
#    y 0.000000 3.029950 0.000000 
#    z 0.000000 0.000000 2.559100 
# 
# 
# High freq. dielectric constant tensor:
#      x y z
#    x 1.543940 0.000000 0.000000 
#    y 0.000000 1.521980 0.000000 
#    z 0.000000 0.000000 1.514840 
# 
# From -- ./inp_files/24724.got.cif
#   From: 2010.03.12/outbox.cif.g09.slc.cpg/sg69_13_cif.got.tgz:24724.got - 2010.04.10 23:52:46.
