data_PCOD8284670
_publ_section_title
;
Structure prediction by ZEFSAII (Michael W. Deem and Ramdas Pophale) SiO2 
 PCOD8284670
Probable space group: F M M M
;
_chemical_formula_sum "Si O2"
_cell_formula_units_Z 240
_cell_length_a 27.217868
_cell_length_b 16.794368
_cell_length_c 27.043482
_cell_angle_alpha 90.000000
_cell_angle_beta 90.000000
_cell_angle_gamma 90.000000
_cell_volume 12361.761989
_symmetry_space_group_name_H-M "F M M M"
_symmetry_group_IT_number 69
_symmetry_cell_setting 'orthorhombic'
loop_
_space_group_symop_operation_xyz
x,y,z
-x,-y,z
x,-y,-z
-x,y,-z
-x,-y,-z
x,y,-z
-x,y,z
x,-y,z
x,1/2+y,1/2+z
-x,1/2-y,1/2+z
x,1/2-y,1/2-z
-x,1/2+y,1/2-z
-x,1/2-y,1/2-z
x,1/2+y,1/2-z
-x,1/2+y,1/2+z
x,1/2-y,1/2+z
1/2+x,y,1/2+z
1/2-x,-y,1/2+z
1/2+x,-y,1/2-z
1/2-x,y,1/2-z
1/2-x,-y,1/2-z
1/2+x,y,1/2-z
1/2-x,y,1/2+z
1/2+x,-y,1/2+z
1/2+x,1/2+y,z
1/2-x,1/2-y,z
1/2+x,1/2-y,-z
1/2-x,1/2+y,-z
1/2-x,1/2-y,-z
1/2+x,1/2+y,-z
1/2-x,1/2+y,z
1/2+x,1/2-y,z
loop_
_atom_site_type_symbol
_atom_site_label
_atom_site_fract_x
_atom_site_fract_y
_atom_site_fract_z
Si Si1 0.630337 0.092242 0.364297
Si Si2 0.326613 0.407554 0.556637
Si Si3 0.778041 0.322197 0.801592
Si Si4 0.115942 0.254773 0.303334
Si Si5 0.236429 0.091047 0.113065
Si Si6 0.500000 0.092897 0.055272
Si Si7 0.086000 0.684813 0.098154
Si Si8 0.557318 0.349038 0.943403
O O1 0.620779 0.151834 0.318300
O O2 0.681708 0.128024 0.386306
O O3 0.588738 0.095829 0.406549
O O4 0.633405 0.000000 0.345557
O O5 0.340095 0.394426 0.500000
O O6 0.334342 0.500000 0.571895
O O7 0.270140 0.380875 0.566941
O O8 0.360100 0.349763 0.589047
O O9 0.750000 0.338742 0.750000
O O10 0.750000 0.250000 0.829310
O O11 0.834258 0.296546 0.794804
O O12 0.769147 0.397117 0.837189
O O13 0.088795 0.250000 0.250000
O O14 0.082759 0.212006 0.344794
O O15 0.224720 0.000000 0.107043
O O16 0.547322 0.116305 0.086785
O O17 0.500000 0.000000 0.048962
O O18 0.500000 0.131591 0.000000
O O19 0.074505 0.758234 0.062219
O O20 0.500000 0.357342 0.929350
O O21 0.566353 0.376039 0.000000
#
# Coordination Sequence:
#
# PCOD8284670 Si02
#       8
#    32  32  32  32  32  16  32  32
#     4  10  22  38  58  84 117 152 193 243 297 352
#     4  10  20  33  51  80 123 167 196 231 291 359
#     4  11  18  32  57  80 111 150 196 242 286 340
#     4  11  21  38  61  86 115 156 197 243 299 350
#     4  10  20  34  51  80 118 155 194 238 288 350
#     4  11  22  38  63  92 123 159 198 247 304 360
#     4  11  21  36  60  86 120 153 199 249 295 357
#     4  10  21  38  61  86 111 145 192 246 298 347
#
# _framework density 19.414708000000001
#
# number of rings (size 3 to 8) (size 9 to 14) (size 15 to 20)
#    0.000    1.533    4.667    1.600    0.000    2.400 
#    0.000    4.333    0.000    3.200    0.000    0.000 
#    0.000    0.000    0.000    0.000    0.000    0.000 
#
# Total GULP energy -743518.591319 kJ/mol
# GULP energy per Si atom -12391.976522 kJ/mol
# Density = 1.937052 g / cm^3
# Si number density = 19.414708 Si / 1000 Ang^3
#
#
#
# Elastic Constant Matrix: (Units=GPa)
#
#
# Indices 1 2 3 4 5 6 
#
# 1 83.1321 36.6100 45.5059 0.0000 0.0000 0.0000
# 2 36.6100 57.4926 37.3675 0.0000 0.0000 0.0000
# 3 45.5059 37.3675 113.1972 0.0000 0.0000 0.0000
# 4 0.0000 0.0000 0.0000 23.7549 0.0000 0.0000
# 5 0.0000 0.0000 0.0000 0.0000 23.2593 0.0000
# 6 0.0000 0.0000 0.0000 0.0000 0.0000 20.8855
#
#
#
# Elastic Compliance Matrix: (Units=1/GPa)
#
#
# Indices 1 2 3 4 5 6 
#
# 1 0.018343 -0.008769 -0.004479 0.000000 0.000000 0.000000
# 2 -0.008769 0.026337 -0.005169 0.000000 0.000000 0.000000
# 3 -0.004479 -0.005169 0.012341 0.000000 0.000000 0.000000
# 4 0.000000 0.000000 0.000000 0.042097 0.000000 0.000000
# 5 0.000000 0.000000 0.000000 0.000000 0.042994 0.000000
# 6 0.000000 0.000000 0.000000 0.000000 0.000000 0.047880
#
#
# Mechanical properties :
#
#
# Convention : Reuss Voigt Hill
#
# Bulk Modulus (GPa) = 49.53759 54.75428 52.14594
# Shear Modulus (GPa) = 21.40836 22.53584 21.97210
#
# Velocity S-wave (km/s) = 3.32428 3.41069 3.36776
# Velocity P-wave (km/s) = 6.34865 6.61620 6.48380
#
# Compressibility (1/GPa) = 0.02018669
#
# Stress axis : x y z
#
# Youngs Moduli (GPa) = 54.51803 37.96947 81.03016
#
# Poissons Ratio (x) = 0.33295 0.36294
# Poissons Ratio (y) = 0.47806 0.41884
# Poissons Ratio (z) = 0.24419 0.19626
#
# Static dielectric constant tensor:
#      x y z
#    x 3.685080 0.000000 0.000000 
#    y 0.000000 3.516080 0.000000 
#    z 0.000000 0.000000 3.546340 
# 
# 
# High freq. dielectric constant tensor:
#      x y z
#    x 1.752820 0.000000 0.000000 
#    y 0.000000 1.749860 0.000000 
#    z 0.000000 0.000000 1.746930 
# 
# From -- ./inp_files/43693.got.cif
#   From: 2010.03.12/outbox.cif.g09.slc.cpg/sg69_22_cif.got.tgz:43693.got - 2010.04.10 23:52:46.
