data_PCOD8284660
_publ_section_title
;
Structure prediction by ZEFSAII (Michael W. Deem and Ramdas Pophale) SiO2 
 PCOD8284660
Probable space group: F M M M
;
_chemical_formula_sum "Si O2"
_cell_formula_units_Z 128
_cell_length_a 10.156469
_cell_length_b 25.395286
_cell_length_c 27.326704
_cell_angle_alpha 90.000000
_cell_angle_beta 90.000000
_cell_angle_gamma 90.000000
_cell_volume 7048.279343
_symmetry_space_group_name_H-M "F M M M"
_symmetry_group_IT_number 69
_symmetry_cell_setting 'orthorhombic'
loop_
_space_group_symop_operation_xyz
x,y,z
-x,-y,z
x,-y,-z
-x,y,-z
-x,-y,-z
x,y,-z
-x,y,z
x,-y,z
x,1/2+y,1/2+z
-x,1/2-y,1/2+z
x,1/2-y,1/2-z
-x,1/2+y,1/2-z
-x,1/2-y,1/2-z
x,1/2+y,1/2-z
-x,1/2+y,1/2+z
x,1/2-y,1/2+z
1/2+x,y,1/2+z
1/2-x,-y,1/2+z
1/2+x,-y,1/2-z
1/2-x,y,1/2-z
1/2-x,-y,1/2-z
1/2+x,y,1/2-z
1/2-x,y,1/2+z
1/2+x,-y,1/2+z
1/2+x,1/2+y,z
1/2-x,1/2-y,z
1/2+x,1/2-y,-z
1/2-x,1/2+y,-z
1/2-x,1/2-y,-z
1/2+x,1/2+y,-z
1/2-x,1/2+y,z
1/2+x,1/2-y,z
loop_
_atom_site_type_symbol
_atom_site_label
_atom_site_fract_x
_atom_site_fract_y
_atom_site_fract_z
Si Si1 0.152127 0.101434 0.896916
Si Si2 0.355309 0.441410 0.322736
Si Si3 0.655229 0.440862 0.000000
Si Si4 0.148101 0.296635 0.661459
Si Si5 0.750000 0.138703 0.250000
O O1 0.241625 0.065540 0.862551
O O2 0.170757 0.162585 0.882980
O O3 0.000000 0.084304 0.889387
O O4 0.200423 0.091889 0.952376
O O5 0.500000 0.434893 0.347168
O O6 0.339984 0.500000 0.300487
O O7 0.348885 0.398678 0.279605
O O8 0.716516 0.500000 0.000000
O O9 0.500000 0.446051 0.000000
O O10 0.250000 0.250000 0.653854
O O11 0.166593 0.324820 0.713620
O O12 0.000000 0.273710 0.659930
#
# Coordination Sequence:
#
# PCOD8284660 Si02
#       5
#    32  32  16  32  16
#     4   9  19  35  54  77 103 133 171 211 251 299
#     4  10  20  33  50  75 107 139 169 206 254 304
#     4   9  16  30  56  83 103 129 167 207 244 291
#     4  10  21  35  52  73  98 130 168 212 257 299
#     4  10  20  34  52  72  98 134 176 212 246 296
#
# _framework density 18.160461000000002
#
# number of rings (size 3 to 8) (size 9 to 14) (size 15 to 20)
#    0.000    2.375    0.000    2.250    0.000    8.500 
#    0.000    1.250    0.000    2.250    0.000    0.000 
#    0.000    0.000    0.000    0.000    0.000    0.000 
#
# Total GULP energy -396707.779071 kJ/mol
# GULP energy per Si atom -12397.118096 kJ/mol
# Density = 1.811913 g / cm^3
# Si number density = 18.160461 Si / 1000 Ang^3
#
#
#
# Elastic Constant Matrix: (Units=GPa)
#
#
# Indices 1 2 3 4 5 6 
#
# 1 111.5124 63.4500 42.1709 0.0000 0.0000 0.0000
# 2 63.4500 115.3291 57.9891 0.0000 0.0000 0.0000
# 3 42.1709 57.9891 124.5389 0.0000 0.0000 0.0000
# 4 0.0000 0.0000 0.0000 15.0175 0.0000 0.0000
# 5 0.0000 0.0000 0.0000 0.0000 16.9114 0.0000
# 6 0.0000 0.0000 0.0000 0.0000 0.0000 22.5561
#
#
#
# Elastic Compliance Matrix: (Units=1/GPa)
#
#
# Indices 1 2 3 4 5 6 
#
# 1 0.013245 -0.006570 -0.001426 0.000000 0.000000 0.000000
# 2 -0.006570 0.014581 -0.004564 0.000000 0.000000 0.000000
# 3 -0.001426 -0.004564 0.010638 0.000000 0.000000 0.000000
# 4 0.000000 0.000000 0.000000 0.066589 0.000000 0.000000
# 5 0.000000 0.000000 0.000000 0.000000 0.059132 0.000000
# 6 0.000000 0.000000 0.000000 0.000000 0.000000 0.044334
#
#
# Mechanical properties :
#
#
# Convention : Reuss Voigt Hill
#
# Bulk Modulus (GPa) = 74.94652 75.40003 75.17327
# Shear Modulus (GPa) = 21.00078 23.41501 22.20790
#
# Velocity S-wave (km/s) = 3.40428 3.59463 3.50075
# Velocity P-wave (km/s) = 7.53729 7.67056 7.60422
#
# Compressibility (1/GPa) = 0.01334285
#
# Stress axis : x y z
#
# Youngs Moduli (GPa) = 75.49918 68.58459 94.00503
#
# Poissons Ratio (x) = 0.45061 0.13403
# Poissons Ratio (y) = 0.49604 0.42908
# Poissons Ratio (z) = 0.10764 0.31305
#
# Static dielectric constant tensor:
#      x y z
#    x 3.313340 0.000000 0.000000 
#    y 0.000000 3.374760 0.000000 
#    z 0.000000 0.000000 3.444730 
# 
# 
# High freq. dielectric constant tensor:
#      x y z
#    x 1.699340 0.000000 0.000000 
#    y 0.000000 1.706060 0.000000 
#    z 0.000000 0.000000 1.688820 
# 
# From -- ./inp_files/5328.got.cif
#   From: 2010.03.12/outbox.cif.g09.slc.cpg/sg69_3_cif.got.tgz:5328.got - 2010.04.10 23:52:46.
