data_PCOD8284472
_publ_section_title
;
Structure prediction by ZEFSAII (Michael W. Deem and Ramdas Pophale) SiO2 
 PCOD8284472
Probable space group: F M M M
;
_chemical_formula_sum "Si O2"
_cell_formula_units_Z 160
_cell_length_a 24.171873
_cell_length_b 20.225798
_cell_length_c 18.054169
_cell_angle_alpha 90.000000
_cell_angle_beta 90.000000
_cell_angle_gamma 90.000000
_cell_volume 8826.600546
_symmetry_space_group_name_H-M "F M M M"
_symmetry_group_IT_number 69
_symmetry_cell_setting 'orthorhombic'
loop_
_space_group_symop_operation_xyz
x,y,z
-x,-y,z
x,-y,-z
-x,y,-z
-x,-y,-z
x,y,-z
-x,y,z
x,-y,z
x,1/2+y,1/2+z
-x,1/2-y,1/2+z
x,1/2-y,1/2-z
-x,1/2+y,1/2-z
-x,1/2-y,1/2-z
x,1/2+y,1/2-z
-x,1/2+y,1/2+z
x,1/2-y,1/2+z
1/2+x,y,1/2+z
1/2-x,-y,1/2+z
1/2+x,-y,1/2-z
1/2-x,y,1/2-z
1/2-x,-y,1/2-z
1/2+x,y,1/2-z
1/2-x,y,1/2+z
1/2+x,-y,1/2+z
1/2+x,1/2+y,z
1/2-x,1/2-y,z
1/2+x,1/2-y,-z
1/2-x,1/2+y,-z
1/2-x,1/2-y,-z
1/2+x,1/2+y,-z
1/2-x,1/2+y,z
1/2+x,1/2-y,z
loop_
_atom_site_type_symbol
_atom_site_label
_atom_site_fract_x
_atom_site_fract_y
_atom_site_fract_z
Si Si1 0.718594 0.926260 0.326422
Si Si2 0.000000 0.422577 0.238309
Si Si3 0.108337 0.648741 0.709309
Si Si4 0.723848 0.814942 0.083291
Si Si5 0.000000 0.853675 0.584889
Si Si6 0.608237 0.216212 0.135476
O O1 0.750000 0.928804 0.250000
O O2 0.656815 0.899584 0.316171
O O3 0.755948 0.881550 0.378943
O O4 0.714720 0.000000 0.360571
O O5 0.947641 0.392270 0.280411
O O6 0.000000 0.500000 0.250401
O O7 0.000000 0.409632 0.149132
O O8 0.101755 0.704980 0.646454
O O9 0.122510 0.682486 0.786762
O O10 0.750000 0.750000 0.123352
O O11 0.658025 0.805589 0.082544
O O12 0.745917 0.819094 0.000000
O O13 0.052929 0.807909 0.596299
O O14 0.000000 0.882585 0.500000
#
# Coordination Sequence:
#
# PCOD8284472 Si02
#       6
#    32  16  32  32  16  32
#     4  11  22  36  57  84 114 150 192 233 282 340
#     4  10  21  36  55  81 114 148 187 231 279 338
#     4  10  19  34  58  83 107 141 186 240 286 327
#     4  11  22  36  56  83 114 149 191 233 281 339
#     4  10  21  36  53  79 114 148 185 231 280 335
#     4  10  19  34  58  82 108 141 187 238 286 329
#
# _framework density 18.127023999999999
#
# number of rings (size 3 to 8) (size 9 to 14) (size 15 to 20)
#    0.000    1.600    4.000    1.800    0.000    3.400 
#    0.000    0.000    0.000    2.400    0.000    0.000 
#    0.000    5.600    0.000    0.000    0.000    0.000 
#
# Total GULP energy -495922.680854 kJ/mol
# GULP energy per Si atom -12398.067021 kJ/mol
# Density = 1.808577 g / cm^3
# Si number density = 18.127024 Si / 1000 Ang^3
#
#
#
# Elastic Constant Matrix: (Units=GPa)
#
#
# Indices 1 2 3 4 5 6 
#
# 1 137.2062 62.0358 25.5932 0.0000 0.0000 0.0000
# 2 62.0358 159.0390 39.6165 0.0000 0.0000 0.0000
# 3 25.5932 39.6165 59.5170 0.0000 0.0000 0.0000
# 4 0.0000 0.0000 0.0000 54.6662 0.0000 0.0000
# 5 0.0000 0.0000 0.0000 0.0000 8.9800 0.0000
# 6 0.0000 0.0000 0.0000 0.0000 0.0000 25.4724
#
#
#
# Elastic Compliance Matrix: (Units=1/GPa)
#
#
# Indices 1 2 3 4 5 6 
#
# 1 0.009014 -0.003058 -0.001841 0.000000 0.000000 0.000000
# 2 -0.003058 0.008575 -0.004393 0.000000 0.000000 0.000000
# 3 -0.001841 -0.004393 0.020518 0.000000 0.000000 0.000000
# 4 0.000000 0.000000 0.000000 0.018293 0.000000 0.000000
# 5 0.000000 0.000000 0.000000 0.000000 0.111359 0.000000
# 6 0.000000 0.000000 0.000000 0.000000 0.000000 0.039258
#
#
# Mechanical properties :
#
#
# Convention : Reuss Voigt Hill
#
# Bulk Modulus (GPa) = 51.21986 67.80591 59.51288
# Shear Modulus (GPa) = 21.54180 33.05817 27.29998
#
# Velocity S-wave (km/s) = 3.45103 4.27511 3.88498
# Velocity P-wave (km/s) = 6.64807 7.86485 7.28192
#
# Compressibility (1/GPa) = 0.01952368
#
# Stress axis : x y z
#
# Youngs Moduli (GPa) = 110.93708 116.62305 48.73874
#
# Poissons Ratio (x) = 0.35658 0.08973
# Poissons Ratio (y) = 0.33919 0.21410
# Poissons Ratio (z) = 0.20424 0.51230
#
# Static dielectric constant tensor:
#      x y z
#    x 3.384190 0.000000 0.000000 
#    y 0.000000 3.563010 0.000000 
#    z 0.000000 0.000000 3.235880 
# 
# 
# High freq. dielectric constant tensor:
#      x y z
#    x 1.718720 0.000000 0.000000 
#    y 0.000000 1.703190 0.000000 
#    z 0.000000 0.000000 1.683270 
# 
# From -- ./inp_files/23206.got.cif
#   From: 2010.03.12/outbox.cif.g09.slc.cpg/sg69_12_cif.got.tgz:23206.got - 2010.04.10 23:52:46.
