data_PCOD8284647
_publ_section_title
;
Structure prediction by ZEFSAII (Michael W. Deem and Ramdas Pophale) SiO2 
 PCOD8284647
Probable space group: F M M M
;
_chemical_formula_sum "Si O2"
_cell_formula_units_Z 160
_cell_length_a 34.313441
_cell_length_b 27.080364
_cell_length_c 9.048376
_cell_angle_alpha 90.000000
_cell_angle_beta 90.000000
_cell_angle_gamma 90.000000
_cell_volume 8407.936221
_symmetry_space_group_name_H-M "F M M M"
_symmetry_group_IT_number 69
_symmetry_cell_setting 'orthorhombic'
loop_
_space_group_symop_operation_xyz
x,y,z
-x,-y,z
x,-y,-z
-x,y,-z
-x,-y,-z
x,y,-z
-x,y,z
x,-y,z
x,1/2+y,1/2+z
-x,1/2-y,1/2+z
x,1/2-y,1/2-z
-x,1/2+y,1/2-z
-x,1/2-y,1/2-z
x,1/2+y,1/2-z
-x,1/2+y,1/2+z
x,1/2-y,1/2+z
1/2+x,y,1/2+z
1/2-x,-y,1/2+z
1/2+x,-y,1/2-z
1/2-x,y,1/2-z
1/2-x,-y,1/2-z
1/2+x,y,1/2-z
1/2-x,y,1/2+z
1/2+x,-y,1/2+z
1/2+x,1/2+y,z
1/2-x,1/2-y,z
1/2+x,1/2-y,-z
1/2-x,1/2+y,-z
1/2-x,1/2-y,-z
1/2+x,1/2+y,-z
1/2-x,1/2+y,z
1/2+x,1/2-y,z
loop_
_atom_site_type_symbol
_atom_site_label
_atom_site_fract_x
_atom_site_fract_y
_atom_site_fract_z
Si Si1 0.000000 0.300870 0.169371
Si Si2 0.500000 0.941155 0.335250
Si Si3 0.073420 0.442664 0.836873
Si Si4 0.085785 0.197075 0.325848
Si Si5 0.210380 0.944111 0.173094
Si Si6 0.865718 0.886834 0.825919
O O1 0.000000 0.250000 0.250000
O O2 0.042153 0.326493 0.207023
O O3 0.000000 0.287002 0.000000
O O4 0.500000 0.918473 0.500000
O O5 0.463731 0.919793 0.245060
O O6 0.500000 0.000000 0.345181
O O7 0.067321 0.500000 0.859195
O O8 0.109964 0.433587 0.731851
O O9 0.077969 0.417612 0.000000
O O10 0.093163 0.203117 0.500000
O O11 0.090519 0.250000 0.250000
O O12 0.119178 0.161545 0.259448
O O13 0.250000 0.926916 0.250000
O O14 0.178393 0.902455 0.214283
O O15 0.198477 0.000000 0.224689
O O16 0.217644 0.944453 0.000000
O O17 0.871449 0.879405 0.000000
#
# Coordination Sequence:
#
# PCOD8284647 Si02
#       6
#    16  16  32  32  32  32
#     4   8  16  31  52  75 101 135 176 223 270 314
#     4   9  17  30  47  66  94 136 179 218 263 314
#     4  10  20  33  49  71 101 137 177 220 263 311
#     4  10  20  36  56  79 108 143 184 230 278 324
#     4   9  19  36  58  83 111 142 176 217 266 323
#     4  11  22  35  53  79 109 141 177 218 268 325
#
# _framework density 19.029639
#
# number of rings (size 3 to 8) (size 9 to 14) (size 15 to 20)
#    0.000    2.300    0.000    2.700    0.000    6.400 
#    0.000    5.000    0.000    0.600    0.000    4.200 
#    0.000    0.000    0.000    0.000    0.000    0.000 
#
# Total GULP energy -495544.901472 kJ/mol
# GULP energy per Si atom -12388.622537 kJ/mol
# Density = 1.898633 g / cm^3
# Si number density = 19.029639 Si / 1000 Ang^3
#
#
#
# Elastic Constant Matrix: (Units=GPa)
#
#
# Indices 1 2 3 4 5 6 
#
# 1 155.7449 55.6393 69.9544 -0.0002 -0.0006 -0.0004
# 2 55.6393 81.4305 48.8594 0.0282 -0.0040 -0.0055
# 3 69.9544 48.8594 99.9854 0.0621 -0.0091 -0.0060
# 4 -0.0002 0.0282 0.0621 27.6558 -0.0057 -0.0059
# 5 -0.0006 -0.0040 -0.0091 -0.0057 33.8757 0.0011
# 6 -0.0004 -0.0055 -0.0060 -0.0059 0.0011 28.4666
#
#
#
# Elastic Compliance Matrix: (Units=1/GPa)
#
#
# Indices 1 2 3 4 5 6 
#
# 1 0.010121 -0.003773 -0.005238 0.000016 -0.000002 -0.000002
# 2 -0.003773 0.018781 -0.006538 -0.000005 0.000000 0.000002
# 3 -0.005238 -0.006538 0.016861 -0.000031 0.000004 0.000002
# 4 0.000016 -0.000005 -0.000031 0.036159 0.000006 0.000008
# 5 -0.000002 0.000000 0.000004 0.000006 0.029520 -0.000001
# 6 -0.000002 0.000002 0.000002 0.000008 -0.000001 0.035129
#
#
# Mechanical properties :
#
#
# Convention : Reuss Voigt Hill
#
# Bulk Modulus (GPa) = 68.18388 76.22970 72.20679
# Shear Modulus (GPa) = 27.38882 28.84680 28.11781
#
# Velocity S-wave (km/s) = 3.79789 3.89766 3.84810
# Velocity P-wave (km/s) = 7.42564 7.77181 7.60070
#
# Compressibility (1/GPa) = 0.01466622
#
# Stress axis : x y z
#
# Youngs Moduli (GPa) = 98.80359 53.24458 59.30917
#
# Poissons Ratio (x) = 0.20089 0.31063
# Poissons Ratio (y) = 0.37278 0.38777
# Poissons Ratio (z) = 0.51748 0.34812
#
# Static dielectric constant tensor:
#      x y z
#    x 3.627700 -0.000020 0.000130 
#    y -0.000020 3.183130 0.000010 
#    z 0.000130 0.000010 3.612950 
# 
# 
# High freq. dielectric constant tensor:
#      x y z
#    x 1.726790 0.000000 0.000000 
#    y 0.000000 1.724100 0.000000 
#    z 0.000000 0.000000 1.754880 
# 
# From -- ./inp_files/5793.got.cif
#   From: 2010.03.12/outbox.cif.g09.slc.cpg/sg69_3_cif.got.tgz:5793.got - 2010.04.10 23:52:46.
