data_PCOD8284648
_publ_section_title
;
Structure prediction by ZEFSAII (Michael W. Deem and Ramdas Pophale) SiO2 
 PCOD8284648
Probable space group: F M M M
;
_chemical_formula_sum "Si O2"
_cell_formula_units_Z 192
_cell_length_a 17.401020
_cell_length_b 21.077631
_cell_length_c 29.562090
_cell_angle_alpha 90.000000
_cell_angle_beta 90.000000
_cell_angle_gamma 90.000000
_cell_volume 10842.555109
_symmetry_space_group_name_H-M "F M M M"
_symmetry_group_IT_number 69
_symmetry_cell_setting 'orthorhombic'
loop_
_space_group_symop_operation_xyz
x,y,z
-x,-y,z
x,-y,-z
-x,y,-z
-x,-y,-z
x,y,-z
-x,y,z
x,-y,z
x,1/2+y,1/2+z
-x,1/2-y,1/2+z
x,1/2-y,1/2-z
-x,1/2+y,1/2-z
-x,1/2-y,1/2-z
x,1/2+y,1/2-z
-x,1/2+y,1/2+z
x,1/2-y,1/2+z
1/2+x,y,1/2+z
1/2-x,-y,1/2+z
1/2+x,-y,1/2-z
1/2-x,y,1/2-z
1/2-x,-y,1/2-z
1/2+x,y,1/2-z
1/2-x,y,1/2+z
1/2+x,-y,1/2+z
1/2+x,1/2+y,z
1/2-x,1/2-y,z
1/2+x,1/2-y,-z
1/2-x,1/2+y,-z
1/2-x,1/2-y,-z
1/2+x,1/2+y,-z
1/2-x,1/2+y,z
1/2+x,1/2-y,z
loop_
_atom_site_type_symbol
_atom_site_label
_atom_site_fract_x
_atom_site_fract_y
_atom_site_fract_z
Si Si1 0.707422 0.653210 0.450398
Si Si2 0.821990 0.570728 0.218846
Si Si3 0.411311 0.183236 0.733403
Si Si4 0.257248 0.574292 0.871504
Si Si5 0.585041 0.855790 0.633071
Si Si6 0.630199 0.721157 0.949585
O O1 0.697488 0.622369 0.500000
O O2 0.707336 0.597550 0.413948
O O3 0.638723 0.703259 0.441444
O O4 0.786759 0.690239 0.447171
O O5 0.861080 0.500000 0.213156
O O6 0.750000 0.560306 0.250000
O O7 0.877992 0.622000 0.241002
O O8 0.789228 0.599251 0.171974
O O9 0.500000 0.182745 0.746426
O O10 0.373878 0.250000 0.750000
O O11 0.397515 0.180970 0.679615
O O12 0.258519 0.500000 0.871330
O O13 0.346667 0.594346 0.873853
O O14 0.500000 0.888644 0.636222
O O15 0.579210 0.807391 0.590731
O O16 0.594426 0.708794 0.000000
#
# Coordination Sequence:
#
# PCOD8284648 Si02
#       6
#    32  32  32  32  32  32
#     4   8  15  29  49  71  95 125 162 208 256 297
#     4  10  20  36  53  74 104 138 178 215 250 305
#     4  10  22  37  52  76 106 133 169 219 267 309
#     4  10  20  33  50  74 102 134 174 215 250 298
#     4  10  20  33  49  72 102 136 169 207 260 312
#     4   8  15  29  48  71  97 125 164 207 248 302
#
# _framework density 17.708002
#
# number of rings (size 3 to 8) (size 9 to 14) (size 15 to 20)
#    0.000    2.667    1.667    1.000    2.333    1.667 
#    0.000    1.667    0.000    0.000    0.000    4.667 
#    0.000    0.000    0.000    7.333    0.000    0.333 
#
# Total GULP energy -594695.913142 kJ/mol
# GULP energy per Si atom -12389.498190 kJ/mol
# Density = 1.766770 g / cm^3
# Si number density = 17.708002 Si / 1000 Ang^3
#
#
#
# Elastic Constant Matrix: (Units=GPa)
#
#
# Indices 1 2 3 4 5 6 
#
# 1 38.9890 32.6670 33.1103 0.0000 0.0000 0.0000
# 2 32.6670 67.3283 46.4735 0.0000 0.0000 0.0000
# 3 33.1103 46.4735 146.6294 0.0000 0.0000 0.0000
# 4 0.0000 0.0000 0.0000 32.1444 0.0000 0.0000
# 5 0.0000 0.0000 0.0000 0.0000 15.3529 0.0000
# 6 0.0000 0.0000 0.0000 0.0000 0.0000 22.9866
#
#
#
# Elastic Compliance Matrix: (Units=1/GPa)
#
#
# Indices 1 2 3 4 5 6 
#
# 1 0.045115 -0.019018 -0.004160 0.000000 0.000000 0.000000
# 2 -0.019018 0.027029 -0.004272 0.000000 0.000000 0.000000
# 3 -0.004160 -0.004272 0.009113 0.000000 0.000000 0.000000
# 4 0.000000 0.000000 0.000000 0.031110 0.000000 0.000000
# 5 0.000000 0.000000 0.000000 0.000000 0.065134 0.000000
# 6 0.000000 0.000000 0.000000 0.000000 0.000000 0.043504
#
#
# Mechanical properties :
#
#
# Convention : Reuss Voigt Hill
#
# Bulk Modulus (GPa) = 37.94030 53.04981 45.49506
# Shear Modulus (GPa) = 17.56291 23.47652 20.51971
#
# Velocity S-wave (km/s) = 3.15271 3.64505 3.40778
# Velocity P-wave (km/s) = 5.89278 6.90929 6.42118
#
# Compressibility (1/GPa) = 0.02635720
#
# Stress axis : x y z
#
# Youngs Moduli (GPa) = 22.16543 36.99742 109.73006
#
# Poissons Ratio (x) = 0.70363 0.45645
# Poissons Ratio (y) = 0.42155 0.46879
# Poissons Ratio (z) = 0.09220 0.15806
#
# Static dielectric constant tensor:
#      x y z
#    x 3.058450 0.000000 0.000000 
#    y 0.000000 3.343540 0.000000 
#    z 0.000000 0.000000 4.059730 
# 
# 
# High freq. dielectric constant tensor:
#      x y z
#    x 1.656600 0.000000 0.000000 
#    y 0.000000 1.669150 0.000000 
#    z 0.000000 0.000000 1.703360 
# 
# From -- ./inp_files/42777.got.cif
#   From: 2010.03.12/outbox.cif.g09.slc.cpg/sg69_22_cif.got.tgz:42777.got - 2010.04.10 23:52:46.
