data_PCOD8284468
_publ_section_title
;
Structure prediction by ZEFSAII (Michael W. Deem and Ramdas Pophale) SiO2 
 PCOD8284468
Probable space group: F M M M
;
_chemical_formula_sum "Si O2"
_cell_formula_units_Z 192
_cell_length_a 19.429988
_cell_length_b 26.589503
_cell_length_c 19.120577
_cell_angle_alpha 90.000000
_cell_angle_beta 90.000000
_cell_angle_gamma 90.000000
_cell_volume 9878.334905
_symmetry_space_group_name_H-M "F M M M"
_symmetry_group_IT_number 69
_symmetry_cell_setting 'orthorhombic'
loop_
_space_group_symop_operation_xyz
x,y,z
-x,-y,z
x,-y,-z
-x,y,-z
-x,-y,-z
x,y,-z
-x,y,z
x,-y,z
x,1/2+y,1/2+z
-x,1/2-y,1/2+z
x,1/2-y,1/2-z
-x,1/2+y,1/2-z
-x,1/2-y,1/2-z
x,1/2+y,1/2-z
-x,1/2+y,1/2+z
x,1/2-y,1/2+z
1/2+x,y,1/2+z
1/2-x,-y,1/2+z
1/2+x,-y,1/2-z
1/2-x,y,1/2-z
1/2-x,-y,1/2-z
1/2+x,y,1/2-z
1/2-x,y,1/2+z
1/2+x,-y,1/2+z
1/2+x,1/2+y,z
1/2-x,1/2-y,z
1/2+x,1/2-y,-z
1/2-x,1/2+y,-z
1/2-x,1/2-y,-z
1/2+x,1/2+y,-z
1/2-x,1/2+y,z
1/2+x,1/2-y,z
loop_
_atom_site_type_symbol
_atom_site_label
_atom_site_fract_x
_atom_site_fract_y
_atom_site_fract_z
Si Si1 0.786179 0.943386 0.576315
Si Si2 0.422412 0.942006 0.277961
Si Si3 0.682484 0.782900 0.579320
Si Si4 0.576350 0.590668 0.620876
Si Si5 0.921685 0.800603 0.419905
Si Si6 0.706129 0.875238 0.319600
O O1 0.756387 0.928734 0.500000
O O2 0.868816 0.937628 0.572620
O O3 0.757517 0.908597 0.636006
O O4 0.765694 0.000000 0.594812
O O5 0.500000 0.929183 0.306084
O O6 0.421510 0.935283 0.195524
O O7 0.365269 0.905145 0.309964
O O8 0.404116 0.000000 0.296040
O O9 0.668547 0.803640 0.500000
O O10 0.750000 0.750000 0.578432
O O11 0.621621 0.746886 0.606185
O O12 0.687722 0.826109 0.636661
O O13 0.500000 0.585413 0.587372
O O14 0.595072 0.650171 0.626464
O O15 0.902583 0.814098 0.500000
O O16 0.000000 0.783832 0.411847
O O17 0.750000 0.862022 0.250000
#
# Coordination Sequence:
#
# PCOD8284468 Si02
#       6
#    32  32  32  32  32  32
#     4  11  23  37  57  87 120 155 198 246 295 352
#     4  10  22  40  61  86 119 159 199 241 294 351
#     4  10  22  40  61  84 116 155 196 243 297 354
#     4  10  19  34  57  87 120 157 195 236 290 356
#     4   9  18  34  57  83 112 148 189 237 293 349
#     4  12  24  39  61  88 118 157 198 247 298 352
#
# _framework density 19.436474
#
# number of rings (size 3 to 8) (size 9 to 14) (size 15 to 20)
#    0.000    1.667    1.667    3.000    0.000    5.000 
#    0.000    0.833    0.000    4.500    0.000    5.833 
#    0.000    0.000    0.000    0.000    0.000    0.000 
#
# Total GULP energy -594999.144504 kJ/mol
# GULP energy per Si atom -12395.815510 kJ/mol
# Density = 1.939224 g / cm^3
# Si number density = 19.436474 Si / 1000 Ang^3
#
#
#
# Elastic Constant Matrix: (Units=GPa)
#
#
# Indices 1 2 3 4 5 6 
#
# 1 84.3620 27.9712 21.7857 0.0000 0.0000 0.0000
# 2 27.9712 75.6209 40.9697 0.0000 0.0000 0.0000
# 3 21.7857 40.9697 62.0839 0.0000 0.0000 0.0000
# 4 0.0000 0.0000 0.0000 34.5329 0.0000 0.0000
# 5 0.0000 0.0000 0.0000 0.0000 26.5316 0.0000
# 6 0.0000 0.0000 0.0000 0.0000 0.0000 26.7857
#
#
#
# Elastic Compliance Matrix: (Units=1/GPa)
#
#
# Indices 1 2 3 4 5 6 
#
# 1 0.013715 -0.003838 -0.002280 0.000000 0.000000 0.000000
# 2 -0.003838 0.021656 -0.012945 0.000000 0.000000 0.000000
# 3 -0.002280 -0.012945 0.025450 0.000000 0.000000 0.000000
# 4 0.000000 0.000000 0.000000 0.028958 0.000000 0.000000
# 5 0.000000 0.000000 0.000000 0.000000 0.037691 0.000000
# 6 0.000000 0.000000 0.000000 0.000000 0.000000 0.037333
#
#
# Mechanical properties :
#
#
# Convention : Reuss Voigt Hill
#
# Bulk Modulus (GPa) = 44.06037 44.83557 44.44797
# Shear Modulus (GPa) = 23.75371 26.32605 25.03988
#
# Velocity S-wave (km/s) = 3.49968 3.68430 3.59317
# Velocity P-wave (km/s) = 6.24887 6.42001 6.33502
#
# Compressibility (1/GPa) = 0.02269613
#
# Stress axis : x y z
#
# Youngs Moduli (GPa) = 72.91324 46.17561 39.29328
#
# Poissons Ratio (x) = 0.17720 0.08960
# Poissons Ratio (y) = 0.27981 0.50864
# Poissons Ratio (z) = 0.16626 0.59773
#
# Static dielectric constant tensor:
#      x y z
#    x 3.881990 0.000000 0.000000 
#    y 0.000000 3.571400 0.000000 
#    z 0.000000 0.000000 3.408720 
# 
# 
# High freq. dielectric constant tensor:
#      x y z
#    x 1.767860 0.000000 0.000000 
#    y 0.000000 1.759200 0.000000 
#    z 0.000000 0.000000 1.738150 
# 
# From -- ./inp_files/32010.got.cif
#   From: 2010.03.12/outbox.cif.g09.slc.cpg/sg69_17_cif.got.tgz:32010.got - 2010.04.10 23:52:46.
