data_PCOD8284982
_publ_section_title
;
Structure prediction by ZEFSAII (Michael W. Deem and Ramdas Pophale) SiO2 
 PCOD8284982
Probable space group: F M M M
;
_chemical_formula_sum "Si O2"
_cell_formula_units_Z 192
_cell_length_a 27.928068
_cell_length_b 15.617007
_cell_length_c 21.585747
_cell_angle_alpha 90.000000
_cell_angle_beta 90.000000
_cell_angle_gamma 90.000000
_cell_volume 9414.684716
_symmetry_space_group_name_H-M "F M M M"
_symmetry_group_IT_number 69
_symmetry_cell_setting 'orthorhombic'
loop_
_space_group_symop_operation_xyz
x,y,z
-x,-y,z
x,-y,-z
-x,y,-z
-x,-y,-z
x,y,-z
-x,y,z
x,-y,z
x,1/2+y,1/2+z
-x,1/2-y,1/2+z
x,1/2-y,1/2-z
-x,1/2+y,1/2-z
-x,1/2-y,1/2-z
x,1/2+y,1/2-z
-x,1/2+y,1/2+z
x,1/2-y,1/2+z
1/2+x,y,1/2+z
1/2-x,-y,1/2+z
1/2+x,-y,1/2-z
1/2-x,y,1/2-z
1/2-x,-y,1/2-z
1/2+x,y,1/2-z
1/2-x,y,1/2+z
1/2+x,-y,1/2+z
1/2+x,1/2+y,z
1/2-x,1/2-y,z
1/2+x,1/2-y,-z
1/2-x,1/2+y,-z
1/2-x,1/2-y,-z
1/2+x,1/2+y,-z
1/2-x,1/2+y,z
1/2+x,1/2-y,z
loop_
_atom_site_type_symbol
_atom_site_label
_atom_site_fract_x
_atom_site_fract_y
_atom_site_fract_z
Si Si1 0.552927 0.500000 0.426481
Si Si2 0.327736 0.403455 0.362092
Si Si3 0.443825 0.837028 0.353162
Si Si4 0.095151 0.678741 0.927268
Si Si5 0.137708 0.600324 0.723842
Si Si6 0.235690 0.151675 0.183726
Si Si7 0.556446 0.000000 0.568215
O O1 0.500000 0.500000 0.399481
O O2 0.554162 0.500000 0.500000
O O3 0.576342 0.587208 0.402188
O O4 0.342546 0.500000 0.381262
O O5 0.348799 0.331391 0.409360
O O6 0.347545 0.378210 0.293949
O O7 0.269787 0.397145 0.365446
O O8 0.500000 0.840713 0.334909
O O9 0.433332 0.750636 0.390358
O O10 0.410999 0.846876 0.291752
O O11 0.427078 0.915094 0.396510
O O12 0.087561 0.694873 0.000000
O O13 0.128850 0.500000 0.714314
O O14 0.179139 0.633087 0.675642
O O15 0.250000 0.112174 0.250000
O O16 0.250000 0.250000 0.179938
O O17 0.500000 0.000000 0.561941
O O18 0.580152 0.000000 0.500000
#
# Coordination Sequence:
#
# PCOD8284982 Si02
#       7
#    16  32  32  32  32  32  16
#     4   9  18  34  53  74 105 142 187 242 284 325
#     4  10  20  36  59  87 120 156 197 243 297 360
#     4  11  22  37  59  85 116 155 194 245 301 352
#     4  11  22  37  59  86 114 151 201 248 293 350
#     4  10  20  36  59  87 121 156 197 243 295 359
#     4   9  17  31  55  87 117 151 193 239 289 348
#     4   9  18  34  55  78 105 144 192 235 279 336
#
# _framework density 20.393673
#
# number of rings (size 3 to 8) (size 9 to 14) (size 15 to 20)
#    0.000    2.000    1.667    2.500    0.000    5.667 
#    0.000    2.500    0.000    5.500    0.000    0.000 
#    0.000    0.000    0.000    0.000    0.000    0.000 
#
# Total GULP energy -594877.361918 kJ/mol
# GULP energy per Si atom -12393.278373 kJ/mol
# Density = 2.034726 g / cm^3
# Si number density = 20.393673 Si / 1000 Ang^3
#
#
#
# Elastic Constant Matrix: (Units=GPa)
#
#
# Indices 1 2 3 4 5 6 
#
# 1 114.9683 26.8957 15.1012 0.0000 0.0000 0.0000
# 2 26.8957 104.3048 16.3607 0.0000 0.0000 0.0000
# 3 15.1012 16.3607 29.7120 0.0000 0.0000 0.0000
# 4 0.0000 0.0000 0.0000 26.7119 0.0000 0.0000
# 5 0.0000 0.0000 0.0000 0.0000 22.9749 0.0000
# 6 0.0000 0.0000 0.0000 0.0000 0.0000 30.1635
#
#
#
# Elastic Compliance Matrix: (Units=1/GPa)
#
#
# Indices 1 2 3 4 5 6 
#
# 1 0.009646 -0.001881 -0.003867 0.000000 0.000000 0.000000
# 2 -0.001881 0.010860 -0.005024 0.000000 0.000000 0.000000
# 3 -0.003867 -0.005024 0.038388 0.000000 0.000000 0.000000
# 4 0.000000 0.000000 0.000000 0.037437 0.000000 0.000000
# 5 0.000000 0.000000 0.000000 0.000000 0.043526 0.000000
# 6 0.000000 0.000000 0.000000 0.000000 0.000000 0.033153
#
#
# Mechanical properties :
#
#
# Convention : Reuss Voigt Hill
#
# Bulk Modulus (GPa) = 26.77324 40.63337 33.70330
# Shear Modulus (GPa) = 24.15414 28.67856 26.41635
#
# Velocity S-wave (km/s) = 3.44524 3.75407 3.60296
# Velocity P-wave (km/s) = 5.38358 6.22563 5.81985
#
# Compressibility (1/GPa) = 0.03735073
#
# Stress axis : x y z
#
# Youngs Moduli (GPa) = 103.67041 92.07828 26.04954
#
# Poissons Ratio (x) = 0.17317 0.10073
# Poissons Ratio (y) = 0.19497 0.13088
# Poissons Ratio (z) = 0.40089 0.46263
#
# Static dielectric constant tensor:
#      x y z
#    x 3.880410 0.000000 0.000000 
#    y 0.000000 3.771680 0.000000 
#    z 0.000000 0.000000 3.411460 
# 
# 
# High freq. dielectric constant tensor:
#      x y z
#    x 1.800160 0.000000 0.000000 
#    y 0.000000 1.810310 0.000000 
#    z 0.000000 0.000000 1.753330 
# 
# From -- ./inp_files/38388.got.cif
#   From: 2010.03.12/outbox.cif.g09.slc.cpg/sg69_20_cif.got.tgz:38388.got - 2010.04.10 23:52:46.
