data_PCOD8284045
_publ_section_title
;
Structure prediction by ZEFSAII (Michael W. Deem and Ramdas Pophale) SiO2 
 PCOD8284045
Probable space group: F M M M
;
_chemical_formula_sum "Si O2"
_cell_formula_units_Z 96
_cell_length_a 8.602650
_cell_length_b 24.598694
_cell_length_c 20.198018
_cell_angle_alpha 90.000000
_cell_angle_beta 90.000000
_cell_angle_gamma 90.000000
_cell_volume 4274.182471
_symmetry_space_group_name_H-M "F M M M"
_symmetry_group_IT_number 69
_symmetry_cell_setting 'orthorhombic'
loop_
_space_group_symop_operation_xyz
x,y,z
-x,-y,z
x,-y,-z
-x,y,-z
-x,-y,-z
x,y,-z
-x,y,z
x,-y,z
x,1/2+y,1/2+z
-x,1/2-y,1/2+z
x,1/2-y,1/2-z
-x,1/2+y,1/2-z
-x,1/2-y,1/2-z
x,1/2+y,1/2-z
-x,1/2+y,1/2+z
x,1/2-y,1/2+z
1/2+x,y,1/2+z
1/2-x,-y,1/2+z
1/2+x,-y,1/2-z
1/2-x,y,1/2-z
1/2-x,-y,1/2-z
1/2+x,y,1/2-z
1/2-x,y,1/2+z
1/2+x,-y,1/2+z
1/2+x,1/2+y,z
1/2-x,1/2-y,z
1/2+x,1/2-y,-z
1/2-x,1/2+y,-z
1/2-x,1/2-y,-z
1/2+x,1/2+y,-z
1/2-x,1/2+y,z
1/2+x,1/2-y,z
loop_
_atom_site_type_symbol
_atom_site_label
_atom_site_fract_x
_atom_site_fract_y
_atom_site_fract_z
Si Si1 0.316849 0.809665 0.865759
Si Si2 0.815629 0.810026 0.000000
Si Si3 0.815475 0.914070 0.816569
Si Si4 0.815882 0.000000 0.924405
O O1 0.500000 0.803787 0.868848
O O2 0.250000 0.750000 0.849385
O O3 0.261042 0.853895 0.813142
O O4 0.250197 0.836555 0.933590
O O5 0.750000 0.750000 0.000000
O O6 0.000000 0.812314 0.000000
O O7 0.750000 0.943172 0.750000
O O8 0.761969 0.947337 0.882078
O O9 0.000000 0.910229 0.813483
O O10 0.000000 0.000000 0.930379
O O11 0.745927 0.000000 0.000000
#
# Coordination Sequence:
#
# PCOD8284045 Si02
#       4
#    32  16  32  16
#     4  11  22  38  60  92 131 171 218 266 321 382
#     4  10  18  32  54  83 120 165 210 258 314 370
#     4  11  23  41  66  95 131 173 216 264 324 387
#     4   9  21  42  69  99 126 163 215 269 324 386
#
# _framework density 22.460436999999999
#
# number of rings (size 3 to 8) (size 9 to 14) (size 15 to 20)
#    0.000    1.500    0.000    8.000    2.333    0.667 
#    0.000    5.833    0.000    4.000    0.000    0.000 
#    0.000    0.000    0.000    0.000    0.000    0.000 
#
# Total GULP energy -297405.640981 kJ/mol
# GULP energy per Si atom -12391.901708 kJ/mol
# Density = 2.240932 g / cm^3
# Si number density = 22.460437 Si / 1000 Ang^3
#
#
#
# Elastic Constant Matrix: (Units=GPa)
#
#
# Indices 1 2 3 4 5 6 
#
# 1 166.1379 44.9093 42.3124 0.0000 0.0000 0.0000
# 2 44.9093 128.5828 55.4503 0.0000 0.0000 0.0000
# 3 42.3124 55.4503 159.5255 0.0000 0.0000 0.0000
# 4 0.0000 0.0000 0.0000 21.0055 0.0000 0.0000
# 5 0.0000 0.0000 0.0000 0.0000 37.9573 0.0000
# 6 0.0000 0.0000 0.0000 0.0000 0.0000 20.3441
#
#
#
# Elastic Compliance Matrix: (Units=1/GPa)
#
#
# Indices 1 2 3 4 5 6 
#
# 1 0.006823 -0.001885 -0.001154 0.000000 0.000000 0.000000
# 2 -0.001885 0.009669 -0.002861 0.000000 0.000000 0.000000
# 3 -0.001154 -0.002861 0.007569 0.000000 0.000000 0.000000
# 4 0.000000 0.000000 0.000000 0.047606 0.000000 0.000000
# 5 0.000000 0.000000 0.000000 0.000000 0.026345 0.000000
# 6 0.000000 0.000000 0.000000 0.000000 0.000000 0.049154
#
#
# Mechanical properties :
#
#
# Convention : Reuss Voigt Hill
#
# Bulk Modulus (GPa) = 81.56449 82.17668 81.87058
# Shear Modulus (GPa) = 30.66451 36.63300 33.64876
#
# Velocity S-wave (km/s) = 3.69896 4.04295 3.87477
# Velocity P-wave (km/s) = 7.39166 7.64595 7.51988
#
# Compressibility (1/GPa) = 0.01226024
#
# Stress axis : x y z
#
# Youngs Moduli (GPa) = 146.57028 103.42046 132.11352
#
# Poissons Ratio (x) = 0.19496 0.15251
# Poissons Ratio (y) = 0.27630 0.37798
# Poissons Ratio (z) = 0.16920 0.29589
#
# Static dielectric constant tensor:
#      x y z
#    x 3.782380 0.000000 0.000000 
#    y 0.000000 4.044460 0.000000 
#    z 0.000000 0.000000 4.749500 
# 
# 
# High freq. dielectric constant tensor:
#      x y z
#    x 1.872460 0.000000 0.000000 
#    y 0.000000 1.880660 0.000000 
#    z 0.000000 0.000000 1.903700 
# 
# From -- ./inp_files/28439.got.cif
#   From: 2010.03.12/outbox.cif.g09.slc.cpg/sg69_15_cif.got.tgz:28439.got - 2010.04.10 23:52:46.
