data_PCOD8284840
_publ_section_title
;
Structure prediction by ZEFSAII (Michael W. Deem and Ramdas Pophale) SiO2 
 PCOD8284840
Probable space group: F M M M
;
_chemical_formula_sum "Si O2"
_cell_formula_units_Z 192
_cell_length_a 18.821256
_cell_length_b 30.354021
_cell_length_c 19.134454
_cell_angle_alpha 90.000000
_cell_angle_beta 90.000000
_cell_angle_gamma 90.000000
_cell_volume 10931.528875
_symmetry_space_group_name_H-M "F M M M"
_symmetry_group_IT_number 69
_symmetry_cell_setting 'orthorhombic'
loop_
_space_group_symop_operation_xyz
x,y,z
-x,-y,z
x,-y,-z
-x,y,-z
-x,-y,-z
x,y,-z
-x,y,z
x,-y,z
x,1/2+y,1/2+z
-x,1/2-y,1/2+z
x,1/2-y,1/2-z
-x,1/2+y,1/2-z
-x,1/2-y,1/2-z
x,1/2+y,1/2-z
-x,1/2+y,1/2+z
x,1/2-y,1/2+z
1/2+x,y,1/2+z
1/2-x,-y,1/2+z
1/2+x,-y,1/2-z
1/2-x,y,1/2-z
1/2-x,-y,1/2-z
1/2+x,y,1/2-z
1/2-x,y,1/2+z
1/2+x,-y,1/2+z
1/2+x,1/2+y,z
1/2-x,1/2-y,z
1/2+x,1/2-y,-z
1/2-x,1/2+y,-z
1/2-x,1/2-y,-z
1/2+x,1/2+y,-z
1/2-x,1/2+y,z
1/2+x,1/2-y,z
loop_
_atom_site_type_symbol
_atom_site_label
_atom_site_fract_x
_atom_site_fract_y
_atom_site_fract_z
Si Si1 0.581763 0.687903 0.377850
Si Si2 0.820278 0.885491 0.424730
Si Si3 0.327478 0.269039 0.921267
Si Si4 0.577647 0.875025 0.751054
Si Si5 0.789853 0.848019 0.821048
Si Si6 0.420438 0.949968 0.861974
O O1 0.500000 0.691443 0.401749
O O2 0.623519 0.654561 0.428055
O O3 0.618242 0.735555 0.383748
O O4 0.587547 0.831616 0.200437
O O5 0.781318 0.886558 0.500000
O O6 0.763789 0.879328 0.363068
O O7 0.862917 0.931263 0.416331
O O8 0.250000 0.250000 0.929862
O O9 0.319586 0.309579 0.869315
O O10 0.354806 0.281630 0.000000
O O11 0.500000 0.872364 0.714649
O O12 0.640424 0.876685 0.695162
O O13 0.583321 0.920201 0.793293
O O14 0.750000 0.831448 0.750000
O O15 0.500000 0.947151 0.894236
O O16 0.400793 0.000000 0.842442
#
# Coordination Sequence:
#
# PCOD8284840 Si02
#       6
#    32  32  32  32  32  32
#     4  10  20  35  55  77 102 138 181 221 269 325
#     4  11  21  35  54  79 111 144 177 216 263 323
#     4  11  22  35  50  73 104 140 182 227 265 308
#     4   9  19  36  55  80 110 141 181 227 270 317
#     4  12  21  36  56  77 102 143 189 221 264 319
#     4   9  18  34  57  85 114 142 172 209 264 333
#
# _framework density 17.563873999999998
#
# number of rings (size 3 to 8) (size 9 to 14) (size 15 to 20)
#    0.000    1.667    5.000    2.500    0.000    5.667 
#    0.000    4.167    0.000    1.500    0.000    0.000 
#    0.000    0.000    0.000   18.167    0.000    0.000 
#
# Total GULP energy -594839.480830 kJ/mol
# GULP energy per Si atom -12392.489184 kJ/mol
# Density = 1.752390 g / cm^3
# Si number density = 17.563874 Si / 1000 Ang^3
#
#
#
# Elastic Constant Matrix: (Units=GPa)
#
#
# Indices 1 2 3 4 5 6 
#
# 1 119.7035 44.3037 53.2047 0.0000 0.0000 0.0000
# 2 44.3037 92.5594 41.6529 0.0000 0.0000 0.0000
# 3 53.2047 41.6529 90.8984 0.0000 0.0000 0.0000
# 4 0.0000 0.0000 0.0000 8.9486 0.0000 0.0000
# 5 0.0000 0.0000 0.0000 0.0000 16.9499 0.0000
# 6 0.0000 0.0000 0.0000 0.0000 0.0000 26.7070
#
#
#
# Elastic Compliance Matrix: (Units=1/GPa)
#
#
# Indices 1 2 3 4 5 6 
#
# 1 0.012025 -0.003261 -0.005544 0.000000 0.000000 0.000000
# 2 -0.003261 0.014495 -0.004733 0.000000 0.000000 0.000000
# 3 -0.005544 -0.004733 0.016416 0.000000 0.000000 0.000000
# 4 0.000000 0.000000 0.000000 0.111750 0.000000 0.000000
# 5 0.000000 0.000000 0.000000 0.000000 0.058997 0.000000
# 6 0.000000 0.000000 0.000000 0.000000 0.000000 0.037443
#
#
# Mechanical properties :
#
#
# Convention : Reuss Voigt Hill
#
# Bulk Modulus (GPa) = 63.05841 64.60932 63.83387
# Shear Modulus (GPa) = 17.63736 21.45443 19.54590
#
# Velocity S-wave (km/s) = 3.17232 3.49880 3.33955
# Velocity P-wave (km/s) = 7.02840 7.29297 7.16191
#
# Compressibility (1/GPa) = 0.01585831
#
# Stress axis : x y z
#
# Youngs Moduli (GPa) = 83.15911 68.99044 60.91803
#
# Poissons Ratio (x) = 0.22497 0.33775
# Poissons Ratio (y) = 0.27117 0.28835
# Poissons Ratio (z) = 0.46106 0.32656
#
# Static dielectric constant tensor:
#      x y z
#    x 3.475640 0.000000 0.000000 
#    y 0.000000 3.539390 0.000000 
#    z 0.000000 0.000000 3.246720 
# 
# 
# High freq. dielectric constant tensor:
#      x y z
#    x 1.685410 0.000000 0.000000 
#    y 0.000000 1.657620 0.000000 
#    z 0.000000 0.000000 1.662450 
# 
# From -- ./inp_files/32141.got.cif
#   From: 2010.03.12/outbox.cif.g09.slc.cpg/sg69_17_cif.got.tgz:32141.got - 2010.04.10 23:52:46.
