data_PCOD8284433
_publ_section_title
;
Structure prediction by ZEFSAII (Michael W. Deem and Ramdas Pophale) SiO2 
 PCOD8284433
Probable space group: F M M M
;
_chemical_formula_sum "Si O2"
_cell_formula_units_Z 208
_cell_length_a 16.932164
_cell_length_b 25.643434
_cell_length_c 26.370033
_cell_angle_alpha 90.000000
_cell_angle_beta 90.000000
_cell_angle_gamma 90.000000
_cell_volume 11449.837476
_symmetry_space_group_name_H-M "F M M M"
_symmetry_group_IT_number 69
_symmetry_cell_setting 'orthorhombic'
loop_
_space_group_symop_operation_xyz
x,y,z
-x,-y,z
x,-y,-z
-x,y,-z
-x,-y,-z
x,y,-z
-x,y,z
x,-y,z
x,1/2+y,1/2+z
-x,1/2-y,1/2+z
x,1/2-y,1/2-z
-x,1/2+y,1/2-z
-x,1/2-y,1/2-z
x,1/2+y,1/2-z
-x,1/2+y,1/2+z
x,1/2-y,1/2+z
1/2+x,y,1/2+z
1/2-x,-y,1/2+z
1/2+x,-y,1/2-z
1/2-x,y,1/2-z
1/2-x,-y,1/2-z
1/2+x,y,1/2-z
1/2-x,y,1/2+z
1/2+x,-y,1/2+z
1/2+x,1/2+y,z
1/2-x,1/2-y,z
1/2+x,1/2-y,-z
1/2-x,1/2+y,-z
1/2-x,1/2-y,-z
1/2+x,1/2+y,-z
1/2-x,1/2+y,z
1/2+x,1/2-y,z
loop_
_atom_site_type_symbol
_atom_site_label
_atom_site_fract_x
_atom_site_fract_y
_atom_site_fract_z
Si Si1 0.088484 0.709914 0.318169
Si Si2 0.769784 0.309991 0.059205
Si Si3 0.590601 0.140004 0.233207
Si Si4 0.140482 0.620882 0.613954
Si Si5 0.906879 0.186385 0.367868
Si Si6 0.320037 0.439171 0.788473
Si Si7 0.500000 0.061299 0.559511
O O1 0.131193 0.686821 0.267145
O O2 0.087214 0.664469 0.359841
O O3 0.128431 0.761142 0.341763
O O4 0.000000 0.727920 0.306042
O O5 0.750000 0.250000 0.072211
O O6 0.703870 0.350286 0.078500
O O7 0.855008 0.325014 0.082741
O O8 0.778482 0.318642 0.000000
O O9 0.500000 0.152612 0.239705
O O10 0.612328 0.141482 0.173772
O O11 0.605217 0.083665 0.258043
O O12 0.188204 0.586963 0.656155
O O13 0.080700 0.584847 0.582305
O O14 0.000000 0.189024 0.382830
O O15 0.330674 0.500000 0.796379
O O16 0.250000 0.424349 0.750000
O O17 0.500000 0.073170 0.500000
O O18 0.500000 0.000000 0.571458
#
# Coordination Sequence:
#
# PCOD8284433 Si02
#       7
#    32  32  32  32  32  32  16
#     4   9  16  29  50  78 107 141 181 220 274 337
#     4  11  23  37  53  77 109 148 196 245 295 350
#     4   9  18  31  51  78 106 139 177 221 274 337
#     4  11  20  37  57  79 113 150 186 241 296 339
#     4  10  19  34  54  77 109 147 189 235 278 341
#     4  10  21  35  53  79 110 144 182 224 281 347
#     4  11  24  40  60  88 115 152 208 252 297 364
#
# _framework density 18.166195999999999
#
# number of rings (size 3 to 8) (size 9 to 14) (size 15 to 20)
#    0.000    1.923    2.308    2.308    1.077    2.462 
#    0.000    0.000    0.000    0.000    0.000    0.000 
#    0.000    0.000    0.000   19.538    0.000    0.000 
#
# Total GULP energy -644211.672869 kJ/mol
# GULP energy per Si atom -12388.686017 kJ/mol
# Density = 1.812485 g / cm^3
# Si number density = 18.166196 Si / 1000 Ang^3
#
#
#
# Elastic Constant Matrix: (Units=GPa)
#
#
# Indices 1 2 3 4 5 6 
#
# 1 81.3503 36.1220 65.7321 0.0000 0.0000 0.0000
# 2 36.1220 69.6756 47.8662 0.0000 0.0000 0.0000
# 3 65.7321 47.8662 131.9166 0.0000 0.0000 0.0000
# 4 0.0000 0.0000 0.0000 24.6003 0.0000 0.0000
# 5 0.0000 0.0000 0.0000 0.0000 29.0365 0.0000
# 6 0.0000 0.0000 0.0000 0.0000 0.0000 25.0969
#
#
#
# Elastic Compliance Matrix: (Units=1/GPa)
#
#
# Indices 1 2 3 4 5 6 
#
# 1 0.021873 -0.005131 -0.009037 0.000000 0.000000 0.000000
# 2 -0.005131 0.020322 -0.004817 0.000000 0.000000 0.000000
# 3 -0.009037 -0.004817 0.013831 0.000000 0.000000 0.000000
# 4 0.000000 0.000000 0.000000 0.040650 0.000000 0.000000
# 5 0.000000 0.000000 0.000000 0.000000 0.034439 0.000000
# 6 0.000000 0.000000 0.000000 0.000000 0.000000 0.039846
#
#
# Mechanical properties :
#
#
# Convention : Reuss Voigt Hill
#
# Bulk Modulus (GPa) = 55.38488 64.70925 60.04706
# Shear Modulus (GPa) = 23.26120 24.62821 23.94470
#
# Velocity S-wave (km/s) = 3.58224 3.68600 3.63449
# Velocity P-wave (km/s) = 6.90391 7.33577 7.12311
#
# Compressibility (1/GPa) = 0.01805547
#
# Stress axis : x y z
#
# Youngs Moduli (GPa) = 45.71826 49.20877 72.29916
#
# Poissons Ratio (x) = 0.25251 0.65338
# Poissons Ratio (y) = 0.23459 0.34826
# Poissons Ratio (z) = 0.41316 0.23703
#
# Static dielectric constant tensor:
#      x y z
#    x 3.226670 0.000000 0.000000 
#    y 0.000000 3.285720 0.000000 
#    z 0.000000 0.000000 3.568430 
# 
# 
# High freq. dielectric constant tensor:
#      x y z
#    x 1.689060 0.000000 0.000000 
#    y 0.000000 1.695000 0.000000 
#    z 0.000000 0.000000 1.708970 
# 
# From -- ./inp_files/26087.got.cif
#   From: 2010.03.12/outbox.cif.g09.slc.cpg/sg69_14_cif.got.tgz:26087.got - 2010.04.10 23:52:46.
