data_PCOD8284014
_publ_section_title
;
Structure prediction by ZEFSAII (Michael W. Deem and Ramdas Pophale) SiO2 
 PCOD8284014
Probable space group: F M M M
;
_chemical_formula_sum "Si O2"
_cell_formula_units_Z 160
_cell_length_a 22.706419
_cell_length_b 16.918366
_cell_length_c 26.172122
_cell_angle_alpha 90.000000
_cell_angle_beta 90.000000
_cell_angle_gamma 90.000000
_cell_volume 10054.164801
_symmetry_space_group_name_H-M "F M M M"
_symmetry_group_IT_number 69
_symmetry_cell_setting 'orthorhombic'
loop_
_space_group_symop_operation_xyz
x,y,z
-x,-y,z
x,-y,-z
-x,y,-z
-x,-y,-z
x,y,-z
-x,y,z
x,-y,z
x,1/2+y,1/2+z
-x,1/2-y,1/2+z
x,1/2-y,1/2-z
-x,1/2+y,1/2-z
-x,1/2-y,1/2-z
x,1/2+y,1/2-z
-x,1/2+y,1/2+z
x,1/2-y,1/2+z
1/2+x,y,1/2+z
1/2-x,-y,1/2+z
1/2+x,-y,1/2-z
1/2-x,y,1/2-z
1/2-x,-y,1/2-z
1/2+x,y,1/2-z
1/2-x,y,1/2+z
1/2+x,-y,1/2+z
1/2+x,1/2+y,z
1/2-x,1/2-y,z
1/2+x,1/2-y,-z
1/2-x,1/2+y,-z
1/2-x,1/2-y,-z
1/2+x,1/2+y,-z
1/2-x,1/2+y,z
1/2+x,1/2-y,z
loop_
_atom_site_type_symbol
_atom_site_label
_atom_site_fract_x
_atom_site_fract_y
_atom_site_fract_z
Si Si1 0.793669 0.182813 0.879271
Si Si2 0.000000 0.257620 0.310192
Si Si3 0.124798 0.781754 0.693266
Si Si4 0.114593 0.590799 0.441492
Si Si5 0.000000 0.408682 0.625138
Si Si6 0.218299 0.092177 0.698078
O O1 0.750000 0.250000 0.901805
O O2 0.836263 0.220613 0.837820
O O3 0.830492 0.144943 0.925160
O O4 0.757637 0.114101 0.850720
O O5 0.000000 0.250000 0.250000
O O6 0.059041 0.214536 0.331411
O O7 0.000000 0.350553 0.326189
O O8 0.119225 0.750000 0.750000
O O9 0.154316 0.867746 0.693233
O O10 0.099269 0.609700 0.500000
O O11 0.133302 0.500000 0.434173
O O12 0.057128 0.610180 0.408582
O O13 0.000000 0.500000 0.644053
O O14 0.250000 0.121419 0.750000
O O15 0.206574 0.000000 0.699313
#
# Coordination Sequence:
#
# PCOD8284014 Si02
#       6
#    32  16  32  32  16  32
#     4  10  19  30  50  71  98 133 161 204 241 299
#     4  10  20  33  49  72 100 132 158 201 245 295
#     4  10  18  32  47  68  97 130 165 200 242 291
#     4  10  20  34  51  73 100 128 164 211 256 293
#     4  10  19  34  54  75  97 133 172 200 244 306
#     4  10  19  30  48  71  96 130 170 205 238 288
#
# _framework density 15.913803
#
# number of rings (size 3 to 8) (size 9 to 14) (size 15 to 20)
#    0.000    2.000    4.000    0.900    0.000    1.600 
#    0.000    4.500    0.000    0.000    0.000    0.000 
#    0.000    0.000    0.000    5.200    0.000    0.000 
#
# Total GULP energy -495894.606477 kJ/mol
# GULP energy per Si atom -12397.365162 kJ/mol
# Density = 1.587758 g / cm^3
# Si number density = 15.913803 Si / 1000 Ang^3
#
#
#
# Elastic Constant Matrix: (Units=GPa)
#
#
# Indices 1 2 3 4 5 6 
#
# 1 126.8746 57.2036 26.0120 0.0000 0.0000 0.0000
# 2 57.2036 83.7206 39.5690 0.0000 0.0000 0.0000
# 3 26.0120 39.5690 64.8301 0.0000 0.0000 0.0000
# 4 0.0000 0.0000 0.0000 22.8974 0.0000 0.0000
# 5 0.0000 0.0000 0.0000 0.0000 28.5280 0.0000
# 6 0.0000 0.0000 0.0000 0.0000 0.0000 26.4792
#
#
#
# Elastic Compliance Matrix: (Units=1/GPa)
#
#
# Indices 1 2 3 4 5 6 
#
# 1 0.011394 -0.007905 0.000253 0.000000 0.000000 0.000000
# 2 -0.007905 0.022271 -0.010421 0.000000 0.000000 0.000000
# 3 0.000253 -0.010421 0.021684 0.000000 0.000000 0.000000
# 4 0.000000 0.000000 0.000000 0.043673 0.000000 0.000000
# 5 0.000000 0.000000 0.000000 0.000000 0.035053 0.000000
# 6 0.000000 0.000000 0.000000 0.000000 0.000000 0.037766
#
#
# Mechanical properties :
#
#
# Convention : Reuss Voigt Hill
#
# Bulk Modulus (GPa) = 52.07582 57.88828 54.98205
# Shear Modulus (GPa) = 23.32221 25.75697 24.53959
#
# Velocity S-wave (km/s) = 3.83238 4.02746 3.93113
# Velocity P-wave (km/s) = 7.23724 7.62118 7.43169
#
# Compressibility (1/GPa) = 0.01920277
#
# Stress axis : x y z
#
# Youngs Moduli (GPa) = 87.76653 44.90152 46.11660
#
# Poissons Ratio (x) = 0.35493 -0.01167
# Poissons Ratio (y) = 0.69376 0.48060
# Poissons Ratio (z) = -0.02220 0.46794
#
# Static dielectric constant tensor:
#      x y z
#    x 3.588360 0.000000 0.000000 
#    y 0.000000 2.979330 0.000000 
#    z 0.000000 0.000000 2.831600 
# 
# 
# High freq. dielectric constant tensor:
#      x y z
#    x 1.625730 0.000000 0.000000 
#    y 0.000000 1.602580 0.000000 
#    z 0.000000 0.000000 1.588830 
# 
# From -- ./inp_files/18027.got.cif
#   From: 2010.03.12/outbox.cif.g09.slc.cpg/sg69_10_cif.got.tgz:18027.got - 2010.04.10 23:52:46.
