data_PCOD8284332
_publ_section_title
;
Structure prediction by ZEFSAII (Michael W. Deem and Ramdas Pophale) SiO2 
 PCOD8284332
Probable space group: F M M M
;
_chemical_formula_sum "Si O2"
_cell_formula_units_Z 208
_cell_length_a 18.831365
_cell_length_b 31.974202
_cell_length_c 18.512161
_cell_angle_alpha 90.000000
_cell_angle_beta 90.000000
_cell_angle_gamma 90.000000
_cell_volume 11146.502922
_symmetry_space_group_name_H-M "F M M M"
_symmetry_group_IT_number 69
_symmetry_cell_setting 'orthorhombic'
loop_
_space_group_symop_operation_xyz
x,y,z
-x,-y,z
x,-y,-z
-x,y,-z
-x,-y,-z
x,y,-z
-x,y,z
x,-y,z
x,1/2+y,1/2+z
-x,1/2-y,1/2+z
x,1/2-y,1/2-z
-x,1/2+y,1/2-z
-x,1/2-y,1/2-z
x,1/2+y,1/2-z
-x,1/2+y,1/2+z
x,1/2-y,1/2+z
1/2+x,y,1/2+z
1/2-x,-y,1/2+z
1/2+x,-y,1/2-z
1/2-x,y,1/2-z
1/2-x,-y,1/2-z
1/2+x,y,1/2-z
1/2-x,y,1/2+z
1/2+x,-y,1/2+z
1/2+x,1/2+y,z
1/2-x,1/2-y,z
1/2+x,1/2-y,-z
1/2-x,1/2+y,-z
1/2-x,1/2-y,-z
1/2+x,1/2+y,-z
1/2-x,1/2+y,z
1/2+x,1/2-y,z
loop_
_atom_site_type_symbol
_atom_site_label
_atom_site_fract_x
_atom_site_fract_y
_atom_site_fract_z
Si Si1 0.584386 0.500000 0.080510
Si Si2 0.842246 0.352412 0.416994
Si Si3 0.083804 0.078564 0.828299
Si Si4 0.827918 0.258059 0.585420
Si Si5 0.177645 0.452031 0.206351
Si Si6 0.920385 0.817755 0.585917
Si Si7 0.187379 0.388390 0.916858
O O1 0.500000 0.500000 0.077391
O O2 0.612749 0.459195 0.121616
O O3 0.616774 0.500000 0.000000
O O4 0.864632 0.360601 0.500000
O O5 0.893009 0.378344 0.364641
O O6 0.854537 0.304353 0.394927
O O7 0.760305 0.363590 0.404920
O O8 0.116773 0.072871 0.749288
O O9 0.000000 0.077524 0.820238
O O10 0.822425 0.252422 0.500000
O O11 0.750000 0.250000 0.619263
O O12 0.883391 0.224235 0.617109
O O13 0.154889 0.500000 0.194555
O O14 0.250000 0.448374 0.250000
O O15 0.186756 0.430941 0.128485
O O16 0.922358 0.815394 0.500000
O O17 0.875813 0.858257 0.610168
O O18 0.000000 0.821108 0.617751
O O19 0.177348 0.401277 0.000000
#
# Coordination Sequence:
#
# PCOD8284332 Si02
#       7
#    16  32  32  32  32  32  32
#     4   9  18  34  55  80 115 155 187 222 277 343
#     4  10  19  32  54  86 120 153 189 233 284 340
#     4  11  22  37  56  82 115 152 190 233 286 344
#     4   9  15  27  50  79 115 153 186 227 283 341
#     4  11  23  40  60  83 112 150 193 236 283 345
#     4   9  17  30  51  82 116 149 189 236 284 334
#     4  10  20  36  59  86 116 149 190 240 290 336
#
# _framework density 18.660561999999999
#
# number of rings (size 3 to 8) (size 9 to 14) (size 15 to 20)
#    0.000    2.077    3.846    0.462    0.000    2.462 
#    0.000    1.538    0.000    0.923    0.000    5.385 
#    0.000    0.000    0.000    0.000    0.000    0.000 
#
# Total GULP energy -644875.551009 kJ/mol
# GULP energy per Si atom -12401.452904 kJ/mol
# Density = 1.861809 g / cm^3
# Si number density = 18.660562 Si / 1000 Ang^3
#
#
#
# Elastic Constant Matrix: (Units=GPa)
#
#
# Indices 1 2 3 4 5 6 
#
# 1 92.8648 40.2870 21.6782 0.0000 0.0000 0.0000
# 2 40.2870 117.9023 44.0465 0.0000 0.0000 0.0000
# 3 21.6782 44.0465 64.8874 0.0000 0.0000 0.0000
# 4 0.0000 0.0000 0.0000 8.8178 0.0000 0.0000
# 5 0.0000 0.0000 0.0000 0.0000 21.0442 0.0000
# 6 0.0000 0.0000 0.0000 0.0000 0.0000 25.4735
#
#
#
# Elastic Compliance Matrix: (Units=1/GPa)
#
#
# Indices 1 2 3 4 5 6 
#
# 1 0.012789 -0.003716 -0.001750 0.000000 0.000000 0.000000
# 2 -0.003716 0.012443 -0.007205 0.000000 0.000000 0.000000
# 3 -0.001750 -0.007205 0.020887 0.000000 0.000000 0.000000
# 4 0.000000 0.000000 0.000000 0.113407 0.000000 0.000000
# 5 0.000000 0.000000 0.000000 0.000000 0.047519 0.000000
# 6 0.000000 0.000000 0.000000 0.000000 0.000000 0.039257
#
#
# Mechanical properties :
#
#
# Convention : Reuss Voigt Hill
#
# Bulk Modulus (GPa) = 48.13146 54.18645 51.15896
# Shear Modulus (GPa) = 17.94882 22.37660 20.16271
#
# Velocity S-wave (km/s) = 3.10475 3.46661 3.29066
# Velocity P-wave (km/s) = 6.22107 6.71746 6.47402
#
# Compressibility (1/GPa) = 0.02077643
#
# Stress axis : x y z
#
# Youngs Moduli (GPa) = 78.19179 80.36576 47.87692
#
# Poissons Ratio (x) = 0.29866 0.08379
# Poissons Ratio (y) = 0.29058 0.34495
# Poissons Ratio (z) = 0.13684 0.57904
#
# Static dielectric constant tensor:
#      x y z
#    x 3.475120 0.000000 0.000000 
#    y 0.000000 3.559050 0.000000 
#    z 0.000000 0.000000 3.109560 
# 
# 
# High freq. dielectric constant tensor:
#      x y z
#    x 1.722550 0.000000 0.000000 
#    y 0.000000 1.733060 0.000000 
#    z 0.000000 0.000000 1.685670 
# 
# From -- ./inp_files/25156.got.cif
#   From: 2010.03.12/outbox.cif.g09.slc.cpg/sg69_13_cif.got.tgz:25156.got - 2010.04.10 23:52:46.
