data_PCOD8284508
_publ_section_title
;
Structure prediction by ZEFSAII (Michael W. Deem and Ramdas Pophale) SiO2 
 PCOD8284508
Probable space group: F M M M
;
_chemical_formula_sum "Si O2"
_cell_formula_units_Z 192
_cell_length_a 27.661096
_cell_length_b 14.981639
_cell_length_c 23.229902
_cell_angle_alpha 90.000000
_cell_angle_beta 90.000000
_cell_angle_gamma 90.000000
_cell_volume 9626.670112
_symmetry_space_group_name_H-M "F M M M"
_symmetry_group_IT_number 69
_symmetry_cell_setting 'orthorhombic'
loop_
_space_group_symop_operation_xyz
x,y,z
-x,-y,z
x,-y,-z
-x,y,-z
-x,-y,-z
x,y,-z
-x,y,z
x,-y,z
x,1/2+y,1/2+z
-x,1/2-y,1/2+z
x,1/2-y,1/2-z
-x,1/2+y,1/2-z
-x,1/2-y,1/2-z
x,1/2+y,1/2-z
-x,1/2+y,1/2+z
x,1/2-y,1/2+z
1/2+x,y,1/2+z
1/2-x,-y,1/2+z
1/2+x,-y,1/2-z
1/2-x,y,1/2-z
1/2-x,-y,1/2-z
1/2+x,y,1/2-z
1/2-x,y,1/2+z
1/2+x,-y,1/2+z
1/2+x,1/2+y,z
1/2-x,1/2-y,z
1/2+x,1/2-y,-z
1/2-x,1/2+y,-z
1/2-x,1/2-y,-z
1/2+x,1/2+y,-z
1/2-x,1/2+y,z
1/2+x,1/2-y,z
loop_
_atom_site_type_symbol
_atom_site_label
_atom_site_fract_x
_atom_site_fract_y
_atom_site_fract_z
Si Si1 0.382102 0.396203 0.500000
Si Si2 0.946536 0.729238 0.684664
Si Si3 0.324122 0.099112 0.196984
Si Si4 0.587071 0.894836 0.123190
Si Si5 0.762176 0.349623 0.376043
Si Si6 0.357658 0.894978 0.681297
Si Si7 0.275822 0.604893 0.500000
O O1 0.370483 0.500000 0.500000
O O2 0.413326 0.371531 0.444308
O O3 0.329187 0.349892 0.500000
O O4 0.934561 0.750000 0.750000
O O5 0.949224 0.825193 0.652178
O O6 0.906059 0.659109 0.663204
O O7 0.000000 0.686047 0.677550
O O8 0.360121 0.133216 0.147287
O O9 0.270309 0.097304 0.170680
O O10 0.334312 0.145353 0.258983
O O11 0.339425 0.000000 0.212150
O O12 0.573682 0.000000 0.134479
O O13 0.750000 0.250000 0.358841
O O14 0.817789 0.375989 0.367483
O O15 0.751853 0.365612 0.442881
O O16 0.370562 0.000000 0.682729
O O17 0.279569 0.500000 0.500000
#
# Coordination Sequence:
#
# PCOD8284508 Si02
#       7
#    16  32  32  32  32  32  16
#     4   9  18  33  62  90 122 165 196 236 300 378
#     4  11  24  41  63  88 116 155 205 263 320 364
#     4  10  19  35  57  83 119 158 194 232 288 361
#     4  10  19  36  62  94 126 158 196 245 311 382
#     4  12  24  35  56  87 124 163 200 246 296 356
#     4  11  24  40  59  87 123 165 209 250 300 362
#     4  11  21  37  55  81 121 162 204 239 286 360
#
# _framework density 19.944590999999999
#
# number of rings (size 3 to 8) (size 9 to 14) (size 15 to 20)
#    0.000    1.333    3.333    3.250    0.000    2.667 
#    0.000    2.083    0.000    1.500    0.000    0.000 
#    0.000    3.333    0.000    0.000    0.000    0.000 
#
# Total GULP energy -594773.803766 kJ/mol
# GULP energy per Si atom -12391.120912 kJ/mol
# Density = 1.989920 g / cm^3
# Si number density = 19.944591 Si / 1000 Ang^3
#
#
#
# Elastic Constant Matrix: (Units=GPa)
#
#
# Indices 1 2 3 4 5 6 
#
# 1 110.5503 33.6897 26.2771 0.0000 0.0000 0.0000
# 2 33.6897 83.1243 31.6280 0.0000 0.0000 0.0000
# 3 26.2771 31.6280 120.9336 0.0000 0.0000 0.0000
# 4 0.0000 0.0000 0.0000 15.1760 0.0000 0.0000
# 5 0.0000 0.0000 0.0000 0.0000 22.0011 0.0000
# 6 0.0000 0.0000 0.0000 0.0000 0.0000 22.8841
#
#
#
# Elastic Compliance Matrix: (Units=1/GPa)
#
#
# Indices 1 2 3 4 5 6 
#
# 1 0.010501 -0.003762 -0.001298 0.000000 0.000000 0.000000
# 2 -0.003762 0.014707 -0.003029 0.000000 0.000000 0.000000
# 3 -0.001298 -0.003029 0.009343 0.000000 0.000000 0.000000
# 4 0.000000 0.000000 0.000000 0.065893 0.000000 0.000000
# 5 0.000000 0.000000 0.000000 0.000000 0.045452 0.000000
# 6 0.000000 0.000000 0.000000 0.000000 0.000000 0.043699
#
#
# Mechanical properties :
#
#
# Convention : Reuss Voigt Hill
#
# Bulk Modulus (GPa) = 54.42600 55.31089 54.86845
# Shear Modulus (GPa) = 23.59631 26.87979 25.23805
#
# Velocity S-wave (km/s) = 3.44334 3.67512 3.56112
# Velocity P-wave (km/s) = 6.56937 6.76765 6.66925
#
# Compressibility (1/GPa) = 0.01837357
#
# Stress axis : x y z
#
# Youngs Moduli (GPa) = 95.23273 67.99290 107.03009
#
# Poissons Ratio (x) = 0.25579 0.13890
# Poissons Ratio (y) = 0.35827 0.32420
# Poissons Ratio (z) = 0.12359 0.20595
#
# Static dielectric constant tensor:
#      x y z
#    x 3.481500 0.000000 0.000000 
#    y 0.000000 2.820330 0.000000 
#    z 0.000000 0.000000 3.905110 
# 
# 
# High freq. dielectric constant tensor:
#      x y z
#    x 1.763430 0.000000 0.000000 
#    y 0.000000 1.768270 0.000000 
#    z 0.000000 0.000000 1.774900 
# 
# From -- ./inp_files/38381.got.cif
#   From: 2010.03.12/outbox.cif.g09.slc.cpg/sg69_20_cif.got.tgz:38381.got - 2010.04.10 23:52:46.
