data_PCOD8284794
_publ_section_title
;
Structure prediction by ZEFSAII (Michael W. Deem and Ramdas Pophale) SiO2 
 PCOD8284794
Probable space group: F M M M
;
_chemical_formula_sum "Si O2"
_cell_formula_units_Z 112
_cell_length_a 19.948716
_cell_length_b 28.084211
_cell_length_c 10.115935
_cell_angle_alpha 90.000000
_cell_angle_beta 90.000000
_cell_angle_gamma 90.000000
_cell_volume 5667.391375
_symmetry_space_group_name_H-M "F M M M"
_symmetry_group_IT_number 69
_symmetry_cell_setting 'orthorhombic'
loop_
_space_group_symop_operation_xyz
x,y,z
-x,-y,z
x,-y,-z
-x,y,-z
-x,-y,-z
x,y,-z
-x,y,z
x,-y,z
x,1/2+y,1/2+z
-x,1/2-y,1/2+z
x,1/2-y,1/2-z
-x,1/2+y,1/2-z
-x,1/2-y,1/2-z
x,1/2+y,1/2-z
-x,1/2+y,1/2+z
x,1/2-y,1/2+z
1/2+x,y,1/2+z
1/2-x,-y,1/2+z
1/2+x,-y,1/2-z
1/2-x,y,1/2-z
1/2-x,-y,1/2-z
1/2+x,y,1/2-z
1/2-x,y,1/2+z
1/2+x,-y,1/2+z
1/2+x,1/2+y,z
1/2-x,1/2-y,z
1/2+x,1/2-y,-z
1/2-x,1/2+y,-z
1/2-x,1/2-y,-z
1/2+x,1/2+y,-z
1/2-x,1/2+y,z
1/2+x,1/2-y,z
loop_
_atom_site_type_symbol
_atom_site_label
_atom_site_fract_x
_atom_site_fract_y
_atom_site_fract_z
Si Si1 0.422744 0.604852 0.267796
Si Si2 0.421398 0.946443 0.500000
Si Si3 0.699338 0.053960 0.855592
Si Si4 0.077978 0.788776 0.649662
O O1 0.500000 0.591989 0.302266
O O2 0.372199 0.580024 0.368947
O O3 0.410839 0.660996 0.278461
O O4 0.400027 0.584845 0.125557
O O5 0.500000 0.953324 0.500000
O O6 0.388697 0.000000 0.500000
O O7 0.750000 0.078085 0.750000
O O8 0.684733 0.000000 0.811437
O O9 0.733642 0.056421 0.000000
O O10 0.109506 0.787356 0.500000
O O11 0.110777 0.750000 0.750000
O O12 0.000000 0.777553 0.633920
#
# Coordination Sequence:
#
# PCOD8284794 Si02
#       4
#    32  16  32  32
#     4  10  20  34  56  83 112 146 188 234 284 332
#     4   9  18  30  48  80 116 145 177 227 284 335
#     4  10  22  38  56  79 110 148 186 227 278 340
#     4   9  18  31  50  77 111 145 181 230 285 338
#
# _framework density 19.762179
#
# number of rings (size 3 to 8) (size 9 to 14) (size 15 to 20)
#    0.000    2.429    0.000    1.714    4.000    3.429 
#    0.000    1.429    0.000    0.857    0.000    4.000 
#    0.000    0.000    0.000    0.000    0.000    0.000 
#
# Total GULP energy -346973.392119 kJ/mol
# GULP energy per Si atom -12391.906861 kJ/mol
# Density = 1.971720 g / cm^3
# Si number density = 19.762179 Si / 1000 Ang^3
#
#
#
# Elastic Constant Matrix: (Units=GPa)
#
#
# Indices 1 2 3 4 5 6 
#
# 1 68.2025 30.8532 27.4317 0.0000 0.0000 0.0000
# 2 30.8532 119.8006 72.2007 0.0000 0.0000 0.0000
# 3 27.4317 72.2007 149.2027 0.0000 0.0000 0.0000
# 4 0.0000 0.0000 0.0000 31.8548 0.0000 0.0000
# 5 0.0000 0.0000 0.0000 0.0000 19.1757 0.0000
# 6 0.0000 0.0000 0.0000 0.0000 0.0000 12.8037
#
#
#
# Elastic Compliance Matrix: (Units=1/GPa)
#
#
# Indices 1 2 3 4 5 6 
#
# 1 0.016802 -0.003480 -0.001405 0.000000 0.000000 0.000000
# 2 -0.003480 0.012505 -0.005411 0.000000 0.000000 0.000000
# 3 -0.001405 -0.005411 0.009579 0.000000 0.000000 0.000000
# 4 0.000000 0.000000 0.000000 0.031392 0.000000 0.000000
# 5 0.000000 0.000000 0.000000 0.000000 0.052149 0.000000
# 6 0.000000 0.000000 0.000000 0.000000 0.000000 0.078102
#
#
# Mechanical properties :
#
#
# Convention : Reuss Voigt Hill
#
# Bulk Modulus (GPa) = 54.66717 66.46411 60.56564
# Shear Modulus (GPa) = 22.00507 26.54819 24.27663
#
# Velocity S-wave (km/s) = 3.34053 3.66920 3.50871
# Velocity P-wave (km/s) = 6.52697 7.18719 6.86502
#
# Compressibility (1/GPa) = 0.01829251
#
# Stress axis : x y z
#
# Youngs Moduli (GPa) = 59.51773 79.96932 104.39312
#
# Poissons Ratio (x) = 0.27833 0.14666
# Poissons Ratio (y) = 0.20715 0.56490
# Poissons Ratio (z) = 0.08362 0.43274
#
# Static dielectric constant tensor:
#      x y z
#    x 3.193750 0.000000 0.000000 
#    y 0.000000 3.549890 0.000000 
#    z 0.000000 0.000000 3.938090 
# 
# 
# High freq. dielectric constant tensor:
#      x y z
#    x 1.726040 0.000000 0.000000 
#    y 0.000000 1.759370 0.000000 
#    z 0.000000 0.000000 1.787810 
# 
# From -- ./inp_files/4715.got.cif
#   From: 2010.03.12/outbox.cif.g09.slc.cpg/sg69_3_cif.got.tgz:4715.got - 2010.04.10 23:52:46.
