data_PCOD8284208
_publ_section_title
;
Structure prediction by ZEFSAII (Michael W. Deem and Ramdas Pophale) SiO2 
 PCOD8284208
Probable space group: F M M M
;
_chemical_formula_sum "Si O2"
_cell_formula_units_Z 160
_cell_length_a 16.274758
_cell_length_b 27.621269
_cell_length_c 18.192229
_cell_angle_alpha 90.000000
_cell_angle_beta 90.000000
_cell_angle_gamma 90.000000
_cell_volume 8177.943036
_symmetry_space_group_name_H-M "F M M M"
_symmetry_group_IT_number 69
_symmetry_cell_setting 'orthorhombic'
loop_
_space_group_symop_operation_xyz
x,y,z
-x,-y,z
x,-y,-z
-x,y,-z
-x,-y,-z
x,y,-z
-x,y,z
x,-y,z
x,1/2+y,1/2+z
-x,1/2-y,1/2+z
x,1/2-y,1/2-z
-x,1/2+y,1/2-z
-x,1/2-y,1/2-z
x,1/2+y,1/2-z
-x,1/2+y,1/2+z
x,1/2-y,1/2+z
1/2+x,y,1/2+z
1/2-x,-y,1/2+z
1/2+x,-y,1/2-z
1/2-x,y,1/2-z
1/2-x,-y,1/2-z
1/2+x,y,1/2-z
1/2-x,y,1/2+z
1/2+x,-y,1/2+z
1/2+x,1/2+y,z
1/2-x,1/2-y,z
1/2+x,1/2-y,-z
1/2-x,1/2+y,-z
1/2-x,1/2-y,-z
1/2+x,1/2+y,-z
1/2-x,1/2+y,z
1/2+x,1/2-y,z
loop_
_atom_site_type_symbol
_atom_site_label
_atom_site_fract_x
_atom_site_fract_y
_atom_site_fract_z
Si Si1 0.405248 0.056148 0.917751
Si Si2 0.343053 0.900294 0.777122
Si Si3 0.097264 0.346103 0.583431
Si Si4 0.905157 0.947481 0.141283
Si Si5 0.156253 0.699725 0.725076
O O1 0.500000 0.065329 0.897592
O O2 0.347598 0.085752 0.862363
O O3 0.383536 0.000000 0.911685
O O4 0.386667 0.074837 0.000000
O O5 0.250000 0.899735 0.750000
O O6 0.392830 0.939079 0.728505
O O7 0.383179 0.846893 0.765908
O O8 0.117471 0.331063 0.500000
O O9 0.130787 0.401215 0.596972
O O10 0.144788 0.308803 0.637244
O O11 0.000000 0.343517 0.599652
O O12 0.000000 0.951572 0.122535
O O13 0.864580 0.000000 0.119760
O O14 0.112280 0.750000 0.750000
O O15 0.250000 0.703365 0.750000
#
# Coordination Sequence:
#
# PCOD8284208 Si02
#       5
#    32  32  32  32  32
#     4   9  18  33  52  73 101 138 172 200 237 290
#     4  10  19  31  49  73  99 127 165 211 253 292
#     4   9  18  33  53  77 104 130 159 203 253 293
#     4   9  17  29  47  71  99 134 170 198 232 289
#     4   9  19  37  55  72  96 131 172 206 245 300
#
# _framework density 19.564821999999999
#
# number of rings (size 3 to 8) (size 9 to 14) (size 15 to 20)
#    0.000    2.800    0.000    1.800    0.000    4.800 
#    0.000   14.000    0.000    2.400    0.000    0.000 
#    0.000    0.000    0.000    0.000    0.000    0.000 
#
# Total GULP energy -495632.706247 kJ/mol
# GULP energy per Si atom -12390.817656 kJ/mol
# Density = 1.952029 g / cm^3
# Si number density = 19.564822 Si / 1000 Ang^3
#
#
#
# Elastic Constant Matrix: (Units=GPa)
#
#
# Indices 1 2 3 4 5 6 
#
# 1 36.9042 25.1096 38.9698 0.0000 0.0000 0.0000
# 2 25.1096 131.7152 67.4422 0.0000 0.0000 0.0000
# 3 38.9698 67.4422 163.9864 0.0000 0.0000 0.0000
# 4 0.0000 0.0000 0.0000 34.5686 0.0000 0.0000
# 5 0.0000 0.0000 0.0000 0.0000 32.2020 0.0000
# 6 0.0000 0.0000 0.0000 0.0000 0.0000 13.2353
#
#
#
# Elastic Compliance Matrix: (Units=1/GPa)
#
#
# Indices 1 2 3 4 5 6 
#
# 1 0.037244 -0.003253 -0.007513 0.000000 0.000000 0.000000
# 2 -0.003253 0.009902 -0.003299 0.000000 0.000000 0.000000
# 3 -0.007513 -0.003299 0.009240 0.000000 0.000000 0.000000
# 4 0.000000 0.000000 0.000000 0.028928 0.000000 0.000000
# 5 0.000000 0.000000 0.000000 0.000000 0.031054 0.000000
# 6 0.000000 0.000000 0.000000 0.000000 0.000000 0.075556
#
#
# Mechanical properties :
#
#
# Convention : Reuss Voigt Hill
#
# Bulk Modulus (GPa) = 35.39122 66.18323 50.78722
# Shear Modulus (GPa) = 21.78915 29.40678 25.59797
#
# Velocity S-wave (km/s) = 3.34082 3.88112 3.62106
# Velocity P-wave (km/s) = 5.74543 7.34746 6.59527
#
# Compressibility (1/GPa) = 0.02825559
#
# Stress axis : x y z
#
# Youngs Moduli (GPa) = 26.84997 100.99423 108.22289
#
# Poissons Ratio (x) = 0.32856 0.81305
# Poissons Ratio (y) = 0.08735 0.35703
# Poissons Ratio (z) = 0.20172 0.33319
#
# Static dielectric constant tensor:
#      x y z
#    x 3.214930 0.000000 0.000000 
#    y 0.000000 4.175220 0.000000 
#    z 0.000000 0.000000 3.555720 
# 
# 
# High freq. dielectric constant tensor:
#      x y z
#    x 1.732250 0.000000 0.000000 
#    y 0.000000 1.758680 0.000000 
#    z 0.000000 0.000000 1.755630 
# 
# From -- ./inp_files/23119.got.cif
#   From: 2010.03.12/outbox.cif.g09.slc.cpg/sg69_12_cif.got.tgz:23119.got - 2010.04.10 23:52:46.
