data_PCOD8284194
_publ_section_title
;
Structure prediction by ZEFSAII (Michael W. Deem and Ramdas Pophale) SiO2 
 PCOD8284194
Probable space group: F M M M
;
_chemical_formula_sum "Si O2"
_cell_formula_units_Z 208
_cell_length_a 28.381734
_cell_length_b 23.864281
_cell_length_c 17.422168
_cell_angle_alpha 90.000000
_cell_angle_beta 90.000000
_cell_angle_gamma 90.000000
_cell_volume 11800.202954
_symmetry_space_group_name_H-M "F M M M"
_symmetry_group_IT_number 69
_symmetry_cell_setting 'orthorhombic'
loop_
_space_group_symop_operation_xyz
x,y,z
-x,-y,z
x,-y,-z
-x,y,-z
-x,-y,-z
x,y,-z
-x,y,z
x,-y,z
x,1/2+y,1/2+z
-x,1/2-y,1/2+z
x,1/2-y,1/2-z
-x,1/2+y,1/2-z
-x,1/2-y,1/2-z
x,1/2+y,1/2-z
-x,1/2+y,1/2+z
x,1/2-y,1/2+z
1/2+x,y,1/2+z
1/2-x,-y,1/2+z
1/2+x,-y,1/2-z
1/2-x,y,1/2-z
1/2-x,-y,1/2-z
1/2+x,y,1/2-z
1/2-x,y,1/2+z
1/2+x,-y,1/2+z
1/2+x,1/2+y,z
1/2-x,1/2-y,z
1/2+x,1/2-y,-z
1/2-x,1/2+y,-z
1/2-x,1/2-y,-z
1/2+x,1/2+y,-z
1/2-x,1/2+y,z
1/2+x,1/2-y,z
loop_
_atom_site_type_symbol
_atom_site_label
_atom_site_fract_x
_atom_site_fract_y
_atom_site_fract_z
Si Si1 0.446046 0.437053 0.297584
Si Si2 0.353879 0.275968 0.410351
Si Si3 0.110558 0.434641 0.354246
Si Si4 0.446987 0.161170 0.911361
Si Si5 0.822565 0.151809 0.088030
Si Si6 0.264439 0.686332 0.333956
Si Si7 0.948185 0.933675 0.000000
O O1 0.500000 0.432222 0.270955
O O2 0.434714 0.500000 0.326081
O O3 0.414818 0.421069 0.224924
O O4 0.434256 0.395336 0.366415
O O5 0.341637 0.285938 0.500000
O O6 0.408184 0.291534 0.391503
O O7 0.347096 0.210805 0.389263
O O8 0.319673 0.315838 0.358162
O O9 0.123539 0.500000 0.362405
O O10 0.157433 0.397456 0.358189
O O11 0.077913 0.413155 0.423725
O O12 0.500000 0.182930 0.890504
O O13 0.444246 0.144627 0.000000
O O14 0.766590 0.153143 0.103581
O O15 0.831577 0.136572 0.000000
O O16 0.250000 0.662404 0.250000
O O17 0.250000 0.750000 0.338895
O O18 0.000000 0.906371 0.000000
O O19 0.952092 0.000000 0.000000
#
# Coordination Sequence:
#
# PCOD8284194 Si02
#       7
#    32  32  32  32  32  32  16
#     4   9  18  32  50  72  98 131 172 214 252 293
#     4   9  18  33  52  73 103 135 166 206 254 298
#     4  10  19  31  48  72 101 133 167 208 255 294
#     4   9  18  33  53  76 103 134 165 203 256 313
#     4  10  19  32  51  74 100 130 171 209 245 298
#     4   9  18  31  50  77  97 125 164 209 250 291
#     4   9  16  28  46  66  93 130 170 204 235 280
#
# _framework density 17.626816000000002
#
# number of rings (size 3 to 8) (size 9 to 14) (size 15 to 20)
#    0.000    2.692    0.769    0.923    2.154    4.000 
#    0.000    3.077    0.000    3.231    0.000    2.154 
#    0.000    0.000    0.000    0.000    0.000    0.000 
#
# Total GULP energy -644555.108801 kJ/mol
# GULP energy per Si atom -12395.290554 kJ/mol
# Density = 1.758670 g / cm^3
# Si number density = 17.626816 Si / 1000 Ang^3
#
#
#
# Elastic Constant Matrix: (Units=GPa)
#
#
# Indices 1 2 3 4 5 6 
#
# 1 112.7193 46.9086 41.6371 0.0000 0.0000 0.0000
# 2 46.9086 59.0561 33.5503 0.0000 0.0000 0.0000
# 3 41.6371 33.5503 66.8179 0.0000 0.0000 0.0000
# 4 0.0000 0.0000 0.0000 22.8903 0.0000 0.0000
# 5 0.0000 0.0000 0.0000 0.0000 27.0458 0.0000
# 6 0.0000 0.0000 0.0000 0.0000 0.0000 25.1195
#
#
#
# Elastic Compliance Matrix: (Units=1/GPa)
#
#
# Indices 1 2 3 4 5 6 
#
# 1 0.014133 -0.008706 -0.004435 0.000000 0.000000 0.000000
# 2 -0.008706 0.029054 -0.009163 0.000000 0.000000 0.000000
# 3 -0.004435 -0.009163 0.022331 0.000000 0.000000 0.000000
# 4 0.000000 0.000000 0.000000 0.043687 0.000000 0.000000
# 5 0.000000 0.000000 0.000000 0.000000 0.036974 0.000000
# 6 0.000000 0.000000 0.000000 0.000000 0.000000 0.039810
#
#
# Mechanical properties :
#
#
# Convention : Reuss Voigt Hill
#
# Bulk Modulus (GPa) = 47.82774 53.64280 50.73527
# Shear Modulus (GPa) = 21.04657 22.77761 21.91209
#
# Velocity S-wave (km/s) = 3.45919 3.59864 3.52960
# Velocity P-wave (km/s) = 6.56864 6.91126 6.74213
#
# Compressibility (1/GPa) = 0.02090837
#
# Stress axis : x y z
#
# Youngs Moduli (GPa) = 70.75581 34.41839 44.78081
#
# Poissons Ratio (x) = 0.29965 0.19862
# Poissons Ratio (y) = 0.61602 0.41034
# Poissons Ratio (z) = 0.31383 0.31539
#
# Static dielectric constant tensor:
#      x y z
#    x 3.446380 0.000000 0.000000 
#    y 0.000000 3.021560 0.000000 
#    z 0.000000 0.000000 3.341020 
# 
# 
# High freq. dielectric constant tensor:
#      x y z
#    x 1.680300 0.000000 0.000000 
#    y 0.000000 1.649490 0.000000 
#    z 0.000000 0.000000 1.684370 
# 
# From -- ./inp_files/26996.got.cif
#   From: 2010.03.12/outbox.cif.g09.slc.cpg/sg69_14_cif.got.tgz:26996.got - 2010.04.10 23:52:46.
