data_PCOD8284958
_publ_section_title
;
Structure prediction by ZEFSAII (Michael W. Deem and Ramdas Pophale) SiO2 
 PCOD8284958
Probable space group: F M M M
;
_chemical_formula_sum "Si O2"
_cell_formula_units_Z 160
_cell_length_a 27.835835
_cell_length_b 15.420992
_cell_length_c 18.739167
_cell_angle_alpha 90.000000
_cell_angle_beta 90.000000
_cell_angle_gamma 90.000000
_cell_volume 8043.903409
_symmetry_space_group_name_H-M "F M M M"
_symmetry_group_IT_number 69
_symmetry_cell_setting 'orthorhombic'
loop_
_space_group_symop_operation_xyz
x,y,z
-x,-y,z
x,-y,-z
-x,y,-z
-x,-y,-z
x,y,-z
-x,y,z
x,-y,z
x,1/2+y,1/2+z
-x,1/2-y,1/2+z
x,1/2-y,1/2-z
-x,1/2+y,1/2-z
-x,1/2-y,1/2-z
x,1/2+y,1/2-z
-x,1/2+y,1/2+z
x,1/2-y,1/2+z
1/2+x,y,1/2+z
1/2-x,-y,1/2+z
1/2+x,-y,1/2-z
1/2-x,y,1/2-z
1/2-x,-y,1/2-z
1/2+x,y,1/2-z
1/2-x,y,1/2+z
1/2+x,-y,1/2+z
1/2+x,1/2+y,z
1/2-x,1/2-y,z
1/2+x,1/2-y,-z
1/2-x,1/2+y,-z
1/2-x,1/2-y,-z
1/2+x,1/2+y,-z
1/2-x,1/2+y,z
1/2+x,1/2-y,z
loop_
_atom_site_type_symbol
_atom_site_label
_atom_site_fract_x
_atom_site_fract_y
_atom_site_fract_z
Si Si1 0.731191 0.500000 0.578879
Si Si2 0.804903 0.000000 0.273294
Si Si3 0.212606 0.677447 0.580885
Si Si4 0.555384 0.602787 0.731168
Si Si5 0.645959 0.666369 0.207237
Si Si6 0.554469 0.397283 0.424432
O O1 0.706714 0.500000 0.500000
O O2 0.690596 0.500000 0.640020
O O3 0.764393 0.416636 0.588430
O O4 0.750000 0.000000 0.250000
O O5 0.830091 0.915614 0.244109
O O6 0.197708 0.698817 0.500000
O O7 0.250000 0.750000 0.609042
O O8 0.163577 0.678126 0.626233
O O9 0.500000 0.630380 0.742170
O O10 0.560782 0.500000 0.740375
O O11 0.588107 0.652245 0.789588
O O12 0.575765 0.633318 0.652231
O O13 0.662887 0.750000 0.250000
O O14 0.579506 0.365006 0.500000
O O15 0.500000 0.364267 0.426035
O O16 0.555132 0.500000 0.423338
#
# Coordination Sequence:
#
# PCOD8284958 Si02
#       6
#    16  16  32  32  32  32
#     4  10  20  36  58  82 112 156 189 228 291 347
#     4  12  22  38  59  86 121 148 192 247 288 353
#     4  10  21  38  59  85 117 153 193 238 289 354
#     4   9  18  35  55  79 115 154 198 248 292 343
#     4  12  24  36  60  90 116 155 197 238 300 354
#     4   7  10  20  43  72 101 140 185 226 277 339
#
# _framework density 19.890841000000002
#
# number of rings (size 3 to 8) (size 9 to 14) (size 15 to 20)
#    0.000    2.200    3.000    3.000    0.000    0.400 
#    0.000    2.000    0.000    0.600    0.000    1.400 
#    0.000    0.000    0.000    0.000    0.000    0.000 
#
# Total GULP energy -495525.035704 kJ/mol
# GULP energy per Si atom -12388.125893 kJ/mol
# Density = 1.984557 g / cm^3
# Si number density = 19.890841 Si / 1000 Ang^3
#
#
#
# Elastic Constant Matrix: (Units=GPa)
#
#
# Indices 1 2 3 4 5 6 
#
# 1 96.0460 32.8679 67.7431 0.0000 0.0000 0.0000
# 2 32.8679 98.0071 26.1653 0.0000 0.0000 0.0000
# 3 67.7431 26.1653 132.4603 0.0000 0.0000 0.0000
# 4 0.0000 0.0000 0.0000 26.4182 0.0000 0.0000
# 5 0.0000 0.0000 0.0000 0.0000 29.6936 0.0000
# 6 0.0000 0.0000 0.0000 0.0000 0.0000 269.0028
#
#
#
# Elastic Compliance Matrix: (Units=1/GPa)
#
#
# Indices 1 2 3 4 5 6 
#
# 1 0.017449 -0.003662 -0.008200 0.000000 0.000000 0.000000
# 2 -0.003662 0.011540 -0.000407 0.000000 0.000000 0.000000
# 3 -0.008200 -0.000407 0.011824 0.000000 0.000000 0.000000
# 4 0.000000 0.000000 0.000000 0.037853 0.000000 0.000000
# 5 0.000000 0.000000 0.000000 0.000000 0.033677 0.000000
# 6 0.000000 0.000000 0.000000 0.000000 0.000000 0.003717
#
#
# Mechanical properties :
#
#
# Convention : Reuss Voigt Hill
#
# Bulk Modulus (GPa) = 61.44747 64.45177 62.94962
# Shear Modulus (GPa) = 34.24123 78.33873 56.28998
#
# Velocity S-wave (km/s) = 4.15355 6.28250 5.32549
# Velocity P-wave (km/s) = 7.34588 9.22494 8.33851
#
# Compressibility (1/GPa) = 0.01627406
#
# Stress axis : x y z
#
# Youngs Moduli (GPa) = 57.31063 86.65433 84.57720
#
# Poissons Ratio (x) = 0.31736 0.69355
# Poissons Ratio (y) = 0.20989 0.03438
# Poissons Ratio (z) = 0.46996 0.03523
#
# Static dielectric constant tensor:
#      x y z
#    x 3.633730 0.000000 0.000000 
#    y 0.000000 3.443230 0.000000 
#    z 0.000000 0.000000 4.818000 
# 
# 
# High freq. dielectric constant tensor:
#      x y z
#    x 1.748510 0.000000 0.000000 
#    y 0.000000 1.764680 0.000000 
#    z 0.000000 0.000000 1.780900 
# 
# From -- ./inp_files/27505.got.cif
#   From: 2010.03.12/outbox.cif.g09.slc.cpg/sg69_14_cif.got.tgz:27505.got - 2010.04.10 23:52:46.
