data_PCOD8284142
_publ_section_title
;
Structure prediction by ZEFSAII (Michael W. Deem and Ramdas Pophale) SiO2 
 PCOD8284142
Probable space group: F M M M
;
_chemical_formula_sum "Si O2"
_cell_formula_units_Z 128
_cell_length_a 8.930699
_cell_length_b 25.436269
_cell_length_c 33.880189
_cell_angle_alpha 90.000000
_cell_angle_beta 90.000000
_cell_angle_gamma 90.000000
_cell_volume 7696.347807
_symmetry_space_group_name_H-M "F M M M"
_symmetry_group_IT_number 69
_symmetry_cell_setting 'orthorhombic'
loop_
_space_group_symop_operation_xyz
x,y,z
-x,-y,z
x,-y,-z
-x,y,-z
-x,-y,-z
x,y,-z
-x,y,z
x,-y,z
x,1/2+y,1/2+z
-x,1/2-y,1/2+z
x,1/2-y,1/2-z
-x,1/2+y,1/2-z
-x,1/2-y,1/2-z
x,1/2+y,1/2-z
-x,1/2+y,1/2+z
x,1/2-y,1/2+z
1/2+x,y,1/2+z
1/2-x,-y,1/2+z
1/2+x,-y,1/2-z
1/2-x,y,1/2-z
1/2-x,-y,1/2-z
1/2+x,y,1/2-z
1/2-x,y,1/2+z
1/2+x,-y,1/2+z
1/2+x,1/2+y,z
1/2-x,1/2-y,z
1/2+x,1/2-y,-z
1/2-x,1/2+y,-z
1/2-x,1/2-y,-z
1/2+x,1/2+y,-z
1/2-x,1/2+y,z
1/2+x,1/2-y,z
loop_
_atom_site_type_symbol
_atom_site_label
_atom_site_fract_x
_atom_site_fract_y
_atom_site_fract_z
Si Si1 0.676105 0.439461 0.420942
Si Si2 0.676175 0.195676 0.709042
Si Si3 0.676216 0.500000 0.207760
Si Si4 0.825519 0.902502 0.155502
Si Si5 0.668888 0.062476 0.500000
O O1 0.500000 0.433805 0.424800
O O2 0.724249 0.500000 0.413847
O O3 0.734577 0.404286 0.385043
O O4 0.748033 0.416630 0.460988
O O5 0.500000 0.203354 0.715872
O O6 0.750000 0.176893 0.750000
O O7 0.750000 0.250000 0.694705
O O8 0.709854 0.152901 0.675723
O O9 0.500000 0.500000 0.213985
O O10 0.750000 0.500000 0.250000
O O11 0.730603 0.551297 0.184228
O O12 0.000000 0.909642 0.145877
O O13 0.500000 0.083959 0.500000
O O14 0.674255 0.000000 0.500000
#
# Coordination Sequence:
#
# PCOD8284142 Si02
#       5
#    32  32  16  32  16
#     4  10  19  30  46  71 100 129 162 201 240 284
#     4  10  20  34  52  72  94 125 165 209 251 291
#     4  10  20  32  46  65  94 127 160 196 235 288
#     4  10  20  33  49  69  96 130 164 198 242 293
#     4   9  17  29  47  67  94 133 166 195 235 284
#
# _framework density 16.631266
#
# number of rings (size 3 to 8) (size 9 to 14) (size 15 to 20)
#    0.000    2.125    1.250    3.375    0.000    5.500 
#    0.000    0.000    0.000    0.000    0.000    0.875 
#    0.000    0.000    0.000    0.000    0.000    0.000 
#
# Total GULP energy -396893.247760 kJ/mol
# GULP energy per Si atom -12402.913992 kJ/mol
# Density = 1.659341 g / cm^3
# Si number density = 16.631266 Si / 1000 Ang^3
#
#
#
# Elastic Constant Matrix: (Units=GPa)
#
#
# Indices 1 2 3 4 5 6 
#
# 1 90.4136 43.1028 67.9168 0.0000 0.0000 0.0000
# 2 43.1028 74.9624 57.6161 0.0000 0.0000 0.0000
# 3 67.9168 57.6161 155.8516 0.0000 0.0000 0.0000
# 4 0.0000 0.0000 0.0000 20.2609 0.0000 0.0000
# 5 0.0000 0.0000 0.0000 0.0000 36.5762 0.0000
# 6 0.0000 0.0000 0.0000 0.0000 0.0000 21.7142
#
#
#
# Elastic Compliance Matrix: (Units=1/GPa)
#
#
# Indices 1 2 3 4 5 6 
#
# 1 0.018254 -0.006121 -0.005692 0.000000 0.000000 0.000000
# 2 -0.006121 0.020688 -0.004980 0.000000 0.000000 0.000000
# 3 -0.005692 -0.004980 0.010738 0.000000 0.000000 0.000000
# 4 0.000000 0.000000 0.000000 0.049356 0.000000 0.000000
# 5 0.000000 0.000000 0.000000 0.000000 0.027340 0.000000
# 6 0.000000 0.000000 0.000000 0.000000 0.000000 0.046053
#
#
# Mechanical properties :
#
#
# Convention : Reuss Voigt Hill
#
# Bulk Modulus (GPa) = 62.13996 73.16655 67.65325
# Shear Modulus (GPa) = 23.65412 25.88306 24.76859
#
# Velocity S-wave (km/s) = 3.77539 3.94926 3.86330
# Velocity P-wave (km/s) = 7.51327 8.05509 7.78889
#
# Compressibility (1/GPa) = 0.01609271
#
# Stress axis : x y z
#
# Youngs Moduli (GPa) = 54.78255 48.33810 93.12805
#
# Poissons Ratio (x) = 0.29589 0.53006
# Poissons Ratio (y) = 0.33534 0.46382
# Poissons Ratio (z) = 0.31181 0.24074
#
# Static dielectric constant tensor:
#      x y z
#    x 3.176710 0.000000 0.000000 
#    y 0.000000 2.925750 0.000000 
#    z 0.000000 0.000000 3.156520 
# 
# 
# High freq. dielectric constant tensor:
#      x y z
#    x 1.651850 0.000000 0.000000 
#    y 0.000000 1.605700 0.000000 
#    z 0.000000 0.000000 1.645530 
# 
# From -- ./inp_files/4803.got.cif
#   From: 2010.03.12/outbox.cif.g09.slc.cpg/sg69_3_cif.got.tgz:4803.got - 2010.04.10 23:52:46.
