data_PCOD8284714
_publ_section_title
;
Structure prediction by ZEFSAII (Michael W. Deem and Ramdas Pophale) SiO2 
 PCOD8284714
Probable space group: F M M M
;
_chemical_formula_sum "Si O2"
_cell_formula_units_Z 144
_cell_length_a 27.473285
_cell_length_b 16.092504
_cell_length_c 16.341100
_cell_angle_alpha 90.000000
_cell_angle_beta 90.000000
_cell_angle_gamma 90.000000
_cell_volume 7224.628248
_symmetry_space_group_name_H-M "F M M M"
_symmetry_group_IT_number 69
_symmetry_cell_setting 'orthorhombic'
loop_
_space_group_symop_operation_xyz
x,y,z
-x,-y,z
x,-y,-z
-x,y,-z
-x,-y,-z
x,y,-z
-x,y,z
x,-y,z
x,1/2+y,1/2+z
-x,1/2-y,1/2+z
x,1/2-y,1/2-z
-x,1/2+y,1/2-z
-x,1/2-y,1/2-z
x,1/2+y,1/2-z
-x,1/2+y,1/2+z
x,1/2-y,1/2+z
1/2+x,y,1/2+z
1/2-x,-y,1/2+z
1/2+x,-y,1/2-z
1/2-x,y,1/2-z
1/2-x,-y,1/2-z
1/2+x,y,1/2-z
1/2-x,y,1/2+z
1/2+x,-y,1/2+z
1/2+x,1/2+y,z
1/2-x,1/2-y,z
1/2+x,1/2-y,-z
1/2-x,1/2+y,-z
1/2-x,1/2-y,-z
1/2+x,1/2+y,-z
1/2-x,1/2+y,z
1/2+x,1/2-y,z
loop_
_atom_site_type_symbol
_atom_site_label
_atom_site_fract_x
_atom_site_fract_y
_atom_site_fract_z
Si Si1 0.911712 0.790110 0.408107
Si Si2 0.731413 0.094576 0.593548
Si Si3 0.000000 0.095740 0.402675
Si Si4 0.650355 0.822067 0.691363
Si Si5 0.163597 0.407571 0.152338
O O1 0.924466 0.760179 0.500000
O O2 0.900650 0.709471 0.350538
O O3 0.862399 0.844105 0.409240
O O4 0.953672 0.850491 0.371986
O O5 0.744794 0.114804 0.500000
O O6 0.688387 0.155730 0.620720
O O7 0.778665 0.109320 0.649692
O O8 0.712997 0.000000 0.602876
O O9 0.000000 0.090090 0.500000
O O10 0.000000 0.000000 0.367900
O O11 0.672046 0.750000 0.750000
O O12 0.643190 0.898738 0.754200
O O13 0.151856 0.500000 0.121284
#
# Coordination Sequence:
#
# PCOD8284714 Si02
#       5
#    32  32  16  32  32
#     4  10  20  34  54  78 102 129 165 213 264 313
#     4  10  20  34  53  75 101 139 186 227 256 293
#     4   9  18  34  57  82 105 131 167 213 264 313
#     4  10  21  34  48  73 106 140 171 206 260 315
#     4  10  20  34  51  73 104 141 178 214 255 304
#
# _framework density 19.931820999999999
#
# number of rings (size 3 to 8) (size 9 to 14) (size 15 to 20)
#    0.000    2.111    0.000    3.333    0.000   10.222 
#    0.000   10.556    0.000    0.000    0.000    2.333 
#    0.000   12.444    0.000    0.000    0.000    9.111 
#
# Total GULP energy -446113.493116 kJ/mol
# GULP energy per Si atom -12392.041475 kJ/mol
# Density = 1.988646 g / cm^3
# Si number density = 19.931821 Si / 1000 Ang^3
#
#
#
# Elastic Constant Matrix: (Units=GPa)
#
#
# Indices 1 2 3 4 5 6 
#
# 1 89.4917 41.4704 29.3630 0.0000 0.0000 0.0000
# 2 41.4704 60.6239 29.3720 0.0000 0.0000 0.0000
# 3 29.3630 29.3720 87.9013 0.0000 0.0000 0.0000
# 4 0.0000 0.0000 0.0000 31.4365 0.0000 0.0000
# 5 0.0000 0.0000 0.0000 0.0000 21.6796 0.0000
# 6 0.0000 0.0000 0.0000 0.0000 0.0000 37.0447
#
#
#
# Elastic Compliance Matrix: (Units=1/GPa)
#
#
# Indices 1 2 3 4 5 6 
#
# 1 0.016679 -0.010392 -0.002099 0.000000 0.000000 0.000000
# 2 -0.010392 0.026157 -0.005269 0.000000 0.000000 0.000000
# 3 -0.002099 -0.005269 0.013838 0.000000 0.000000 0.000000
# 4 0.000000 0.000000 0.000000 0.031810 0.000000 0.000000
# 5 0.000000 0.000000 0.000000 0.000000 0.046126 0.000000
# 6 0.000000 0.000000 0.000000 0.000000 0.000000 0.026994
#
#
# Mechanical properties :
#
#
# Convention : Reuss Voigt Hill
#
# Bulk Modulus (GPa) = 47.27308 48.71420 47.99364
# Shear Modulus (GPa) = 24.48874 27.21959 25.85416
#
# Velocity S-wave (km/s) = 3.50898 3.69946 3.60548
# Velocity P-wave (km/s) = 6.33925 6.53770 6.43924
#
# Compressibility (1/GPa) = 0.02115369
#
# Stress axis : x y z
#
# Youngs Moduli (GPa) = 59.95685 38.23096 72.26449
#
# Poissons Ratio (x) = 0.39731 0.15167
# Poissons Ratio (y) = 0.62309 0.38074
# Poissons Ratio (z) = 0.12584 0.20143
#
# Static dielectric constant tensor:
#      x y z
#    x 3.458480 0.000000 0.000000 
#    y 0.000000 3.784590 0.000000 
#    z 0.000000 0.000000 3.622830 
# 
# 
# High freq. dielectric constant tensor:
#      x y z
#    x 1.748050 0.000000 0.000000 
#    y 0.000000 1.774080 0.000000 
#    z 0.000000 0.000000 1.771020 
# 
# From -- ./inp_files/19484.got.cif
#   From: 2010.03.12/outbox.cif.g09.slc.cpg/sg69_10_cif.got.tgz:19484.got - 2010.04.10 23:52:46.
