data_PCOD8284477
_publ_section_title
;
Structure prediction by ZEFSAII (Michael W. Deem and Ramdas Pophale) SiO2 
 PCOD8284477
Probable space group: F M M M
;
_chemical_formula_sum "Si O2"
_cell_formula_units_Z 176
_cell_length_a 16.827655
_cell_length_b 17.064347
_cell_length_c 27.737339
_cell_angle_alpha 90.000000
_cell_angle_beta 90.000000
_cell_angle_gamma 90.000000
_cell_volume 7964.858556
_symmetry_space_group_name_H-M "F M M M"
_symmetry_group_IT_number 69
_symmetry_cell_setting 'orthorhombic'
loop_
_space_group_symop_operation_xyz
x,y,z
-x,-y,z
x,-y,-z
-x,y,-z
-x,-y,-z
x,y,-z
-x,y,z
x,-y,z
x,1/2+y,1/2+z
-x,1/2-y,1/2+z
x,1/2-y,1/2-z
-x,1/2+y,1/2-z
-x,1/2-y,1/2-z
x,1/2+y,1/2-z
-x,1/2+y,1/2+z
x,1/2-y,1/2+z
1/2+x,y,1/2+z
1/2-x,-y,1/2+z
1/2+x,-y,1/2-z
1/2-x,y,1/2-z
1/2-x,-y,1/2-z
1/2+x,y,1/2-z
1/2-x,y,1/2+z
1/2+x,-y,1/2+z
1/2+x,1/2+y,z
1/2-x,1/2-y,z
1/2+x,1/2-y,-z
1/2-x,1/2+y,-z
1/2-x,1/2-y,-z
1/2+x,1/2+y,-z
1/2-x,1/2+y,z
1/2+x,1/2-y,z
loop_
_atom_site_type_symbol
_atom_site_label
_atom_site_fract_x
_atom_site_fract_y
_atom_site_fract_z
Si Si1 0.090765 0.337678 0.737338
Si Si2 0.594283 0.324417 0.944513
Si Si3 0.653761 0.909437 0.354068
Si Si4 0.832692 0.589345 0.822558
Si Si5 0.088493 0.000000 0.556058
Si Si6 0.907433 0.840400 0.593291
O O1 0.117506 0.250000 0.750000
O O2 0.098656 0.356451 0.680536
O O3 0.149963 0.396307 0.766119
O O4 0.000000 0.352061 0.753115
O O5 0.500000 0.330604 0.935977
O O6 0.639055 0.385183 0.909588
O O7 0.627327 0.237682 0.931165
O O8 0.615930 0.343498 0.000000
O O9 0.743141 0.893129 0.337576
O O10 0.630543 0.000000 0.348329
O O11 0.856159 0.500000 0.835811
O O12 0.888322 0.653322 0.849938
O O13 0.133438 0.080188 0.571643
O O14 0.081153 0.000000 0.500000
O O15 0.000000 0.000000 0.579525
O O16 0.000000 0.840470 0.581964
#
# Coordination Sequence:
#
# PCOD8284477 Si02
#       6
#    32  32  32  32  16  32
#     4  11  24  41  64  95 125 158 203 254 308 371
#     4  10  22  41  65  91 120 159 211 268 316 362
#     4  11  25  43  62  88 126 165 210 259 309 365
#     4  11  23  39  60  89 127 165 204 247 305 372
#     4   9  16  28  50  80 115 152 189 237 297 356
#     4  10  19  34  58  89 122 157 202 252 304 368
#
# _framework density 22.097065000000001
#
# number of rings (size 3 to 8) (size 9 to 14) (size 15 to 20)
#    0.000    1.545    0.909    3.818    0.000   13.818 
#    0.000    3.636    0.000    0.000    0.000    0.000 
#    0.000    0.000    0.000    0.000    0.000    0.000 
#
# Total GULP energy -545568.871062 kJ/mol
# GULP energy per Si atom -12399.292524 kJ/mol
# Density = 2.204677 g / cm^3
# Si number density = 22.097065 Si / 1000 Ang^3
#
#
#
# Elastic Constant Matrix: (Units=GPa)
#
#
# Indices 1 2 3 4 5 6 
#
# 1 55.4150 37.2762 33.6708 0.0000 0.0000 0.0000
# 2 37.2762 123.1693 52.2067 0.0000 0.0000 0.0000
# 3 33.6708 52.2067 141.4028 0.0000 0.0000 0.0000
# 4 0.0000 0.0000 0.0000 37.9962 0.0000 0.0000
# 5 0.0000 0.0000 0.0000 0.0000 27.7524 0.0000
# 6 0.0000 0.0000 0.0000 0.0000 0.0000 5.6778
#
#
#
# Elastic Compliance Matrix: (Units=1/GPa)
#
#
# Indices 1 2 3 4 5 6 
#
# 1 0.024122 -0.005768 -0.003614 0.000000 0.000000 0.000000
# 2 -0.005768 0.011005 -0.002689 0.000000 0.000000 0.000000
# 3 -0.003614 -0.002689 0.008926 0.000000 0.000000 0.000000
# 4 0.000000 0.000000 0.000000 0.026318 0.000000 0.000000
# 5 0.000000 0.000000 0.000000 0.000000 0.036033 0.000000
# 6 0.000000 0.000000 0.000000 0.000000 0.000000 0.176123
#
#
# Mechanical properties :
#
#
# Convention : Reuss Voigt Hill
#
# Bulk Modulus (GPa) = 50.23075 62.92163 56.57619
# Shear Modulus (GPa) = 15.95882 27.40751 21.68316
#
# Velocity S-wave (km/s) = 2.69032 3.52564 3.13592
# Velocity P-wave (km/s) = 5.69488 6.71643 6.22664
#
# Compressibility (1/GPa) = 0.01990812
#
# Stress axis : x y z
#
# Youngs Moduli (GPa) = 41.45607 90.87121 112.03798
#
# Poissons Ratio (x) = 0.52418 0.40493
# Poissons Ratio (y) = 0.23913 0.30131
# Poissons Ratio (z) = 0.14983 0.24439
#
# Static dielectric constant tensor:
#      x y z
#    x 3.678620 0.000000 0.000000 
#    y 0.000000 4.139300 0.000000 
#    z 0.000000 0.000000 4.017310 
# 
# 
# High freq. dielectric constant tensor:
#      x y z
#    x 1.840050 0.000000 0.000000 
#    y 0.000000 1.876420 0.000000 
#    z 0.000000 0.000000 1.878040 
# 
# From -- ./inp_files/41853.got.cif
#   From: 2010.03.12/outbox.cif.g09.slc.cpg/sg69_21_cif.got.tgz:41853.got - 2010.04.10 23:52:46.
