data_PCOD8284412
_publ_section_title
;
Structure prediction by ZEFSAII (Michael W. Deem and Ramdas Pophale) SiO2 
 PCOD8284412
Probable space group: F M M M
;
_chemical_formula_sum "Si O2"
_cell_formula_units_Z 160
_cell_length_a 17.066759
_cell_length_b 21.906264
_cell_length_c 21.757276
_cell_angle_alpha 90.000000
_cell_angle_beta 90.000000
_cell_angle_gamma 90.000000
_cell_volume 8134.369460
_symmetry_space_group_name_H-M "F M M M"
_symmetry_group_IT_number 69
_symmetry_cell_setting 'orthorhombic'
loop_
_space_group_symop_operation_xyz
x,y,z
-x,-y,z
x,-y,-z
-x,y,-z
-x,-y,-z
x,y,-z
-x,y,z
x,-y,z
x,1/2+y,1/2+z
-x,1/2-y,1/2+z
x,1/2-y,1/2-z
-x,1/2+y,1/2-z
-x,1/2-y,1/2-z
x,1/2+y,1/2-z
-x,1/2+y,1/2+z
x,1/2-y,1/2+z
1/2+x,y,1/2+z
1/2-x,-y,1/2+z
1/2+x,-y,1/2-z
1/2-x,y,1/2-z
1/2-x,-y,1/2-z
1/2+x,y,1/2-z
1/2-x,y,1/2+z
1/2+x,-y,1/2+z
1/2+x,1/2+y,z
1/2-x,1/2-y,z
1/2+x,1/2-y,-z
1/2-x,1/2+y,-z
1/2-x,1/2-y,-z
1/2+x,1/2+y,-z
1/2-x,1/2+y,z
1/2+x,1/2-y,z
loop_
_atom_site_type_symbol
_atom_site_label
_atom_site_fract_x
_atom_site_fract_y
_atom_site_fract_z
Si Si1 0.658358 0.570123 0.760847
Si Si2 0.593503 0.500000 0.568540
Si Si3 0.092765 0.617461 0.861378
Si Si4 0.092574 0.865240 0.121213
Si Si5 0.093000 0.567315 0.500000
Si Si6 0.407083 0.263476 0.569859
O O1 0.626096 0.500000 0.761431
O O2 0.750000 0.569472 0.750000
O O3 0.617447 0.611327 0.709100
O O4 0.640034 0.604397 0.823836
O O5 0.500000 0.500000 0.568862
O O6 0.626877 0.500000 0.500000
O O7 0.627007 0.440664 0.602467
O O8 0.127350 0.677906 0.894033
O O9 0.000000 0.619517 0.865135
O O10 0.122451 0.898636 0.060255
O O11 0.116083 0.794654 0.111409
O O12 0.000000 0.873341 0.132882
O O13 0.129317 0.500000 0.500000
O O14 0.000000 0.565908 0.500000
O O15 0.372878 0.260087 0.500000
O O16 0.500000 0.267268 0.564347
#
# Coordination Sequence:
#
# PCOD8284412 Si02
#       6
#    32  16  32  32  16  32
#     4  11  24  40  56  75 113 153 191 236 287 332
#     4   9  16  28  51  82 108 135 179 234 278 314
#     4  10  19  33  57  84 111 144 187 230 276 336
#     4  10  19  34  59  86 114 148 185 229 282 339
#     4   9  16  28  52  86 111 133 180 236 279 325
#     4   9  17  32  56  88 120 145 176 228 286 334
#
# _framework density 19.669625
#
# number of rings (size 3 to 8) (size 9 to 14) (size 15 to 20)
#    0.000    2.200    2.000    1.800    0.000    5.200 
#    0.000    5.000    4.400    1.200    0.000    0.000 
#    0.000    0.000    0.000    0.000    0.000    0.000 
#
# Total GULP energy -495934.208779 kJ/mol
# GULP energy per Si atom -12398.355219 kJ/mol
# Density = 1.962486 g / cm^3
# Si number density = 19.669625 Si / 1000 Ang^3
#
#
#
# Elastic Constant Matrix: (Units=GPa)
#
#
# Indices 1 2 3 4 5 6 
#
# 1 20.6532 27.4557 24.2256 0.0000 0.0000 0.0000
# 2 27.4557 179.7469 86.9983 0.0000 0.0000 0.0000
# 3 24.2256 86.9983 174.7167 0.0000 0.0000 0.0000
# 4 0.0000 0.0000 0.0000 42.3977 0.0000 0.0000
# 5 0.0000 0.0000 0.0000 0.0000 2.1292 0.0000
# 6 0.0000 0.0000 0.0000 0.0000 0.0000 20.7660
#
#
#
# Elastic Compliance Matrix: (Units=1/GPa)
#
#
# Indices 1 2 3 4 5 6 
#
# 1 0.064278 -0.007252 -0.005301 0.000000 0.000000 0.000000
# 2 -0.007252 0.008148 -0.003052 0.000000 0.000000 0.000000
# 3 -0.005301 -0.003052 0.007978 0.000000 0.000000 0.000000
# 4 0.000000 0.000000 0.000000 0.023586 0.000000 0.000000
# 5 0.000000 0.000000 0.000000 0.000000 0.469655 0.000000
# 6 0.000000 0.000000 0.000000 0.000000 0.000000 0.048156
#
#
# Mechanical properties :
#
#
# Convention : Reuss Voigt Hill
#
# Bulk Modulus (GPa) = 20.32788 72.49734 46.41261
# Shear Modulus (GPa) = 7.46926 28.82106 18.14516
#
# Velocity S-wave (km/s) = 1.95080 3.83202 3.04056
# Velocity P-wave (km/s) = 3.92826 7.51776 5.99783
#
# Compressibility (1/GPa) = 0.04919353
#
# Stress axis : x y z
#
# Youngs Moduli (GPa) = 15.55743 122.72659 125.34180
#
# Poissons Ratio (x) = 0.89006 0.66448
# Poissons Ratio (y) = 0.11283 0.38251
# Poissons Ratio (z) = 0.08248 0.37453
#
# Static dielectric constant tensor:
#      x y z
#    x 2.981160 0.000000 0.000000 
#    y 0.000000 3.987770 0.000000 
#    z 0.000000 0.000000 3.849930 
# 
# 
# High freq. dielectric constant tensor:
#      x y z
#    x 1.711120 0.000000 0.000000 
#    y 0.000000 1.782510 0.000000 
#    z 0.000000 0.000000 1.779490 
# 
# From -- ./inp_files/24625.got.cif
#   From: 2010.03.12/outbox.cif.g09.slc.cpg/sg69_13_cif.got.tgz:24625.got - 2010.04.10 23:52:46.
