data_PCOD8284062
_publ_section_title
;
Structure prediction by ZEFSAII (Michael W. Deem and Ramdas Pophale) SiO2 
 PCOD8284062
Probable space group: F M M M
;
_chemical_formula_sum "Si O2"
_cell_formula_units_Z 144
_cell_length_a 8.866697
_cell_length_b 28.773323
_cell_length_c 26.589518
_cell_angle_alpha 90.000000
_cell_angle_beta 90.000000
_cell_angle_gamma 90.000000
_cell_volume 6783.633144
_symmetry_space_group_name_H-M "F M M M"
_symmetry_group_IT_number 69
_symmetry_cell_setting 'orthorhombic'
loop_
_space_group_symop_operation_xyz
x,y,z
-x,-y,z
x,-y,-z
-x,y,-z
-x,-y,-z
x,y,-z
-x,y,z
x,-y,z
x,1/2+y,1/2+z
-x,1/2-y,1/2+z
x,1/2-y,1/2-z
-x,1/2+y,1/2-z
-x,1/2-y,1/2-z
x,1/2+y,1/2-z
-x,1/2+y,1/2+z
x,1/2-y,1/2+z
1/2+x,y,1/2+z
1/2-x,-y,1/2+z
1/2+x,-y,1/2-z
1/2-x,y,1/2-z
1/2-x,-y,1/2-z
1/2+x,y,1/2-z
1/2-x,y,1/2+z
1/2+x,-y,1/2+z
1/2+x,1/2+y,z
1/2-x,1/2-y,z
1/2+x,1/2-y,-z
1/2-x,1/2+y,-z
1/2-x,1/2-y,-z
1/2+x,1/2+y,-z
1/2-x,1/2+y,z
1/2+x,1/2-y,z
loop_
_atom_site_type_symbol
_atom_site_label
_atom_site_fract_x
_atom_site_fract_y
_atom_site_fract_z
Si Si1 0.177014 0.856152 0.300556
Si Si2 0.322929 0.051197 0.846228
Si Si3 0.818878 0.301539 0.500000
Si Si4 0.319758 0.300654 0.399225
Si Si5 0.668586 0.944803 0.445453
O O1 0.250000 0.835353 0.250000
O O2 0.228226 0.910359 0.305747
O O3 0.230948 0.828650 0.349746
O O4 0.000000 0.851508 0.294724
O O5 0.500000 0.046432 0.846481
O O6 0.277846 0.071283 0.900928
O O7 0.250600 0.000000 0.834570
O O8 0.750000 0.250000 0.500000
O O9 0.754746 0.325408 0.551239
O O10 0.000000 0.301225 0.500000
O O11 0.500000 0.298262 0.405441
O O12 0.250000 0.250000 0.392598
O O13 0.722277 0.924967 0.500000
O O14 0.500000 0.926610 0.434159
O O15 0.669039 0.000000 0.448036
#
# Coordination Sequence:
#
# PCOD8284062 Si02
#       5
#    32  32  16  32  32
#     4  10  23  40  57  80 111 147 187 235 283 329
#     4   9  18  34  54  76 104 140 184 229 275 328
#     4  10  18  32  58  90 119 148 183 223 272 329
#     4  10  20  37  60  86 117 150 184 224 276 332
#     4   8  14  26  45  70 101 135 171 215 267 320
#
# _framework density 21.227561999999999
#
# number of rings (size 3 to 8) (size 9 to 14) (size 15 to 20)
#    0.000    2.667    0.000    3.667    0.000    4.000 
#    2.000    4.444    0.000    0.000    0.000    0.000 
#    0.000    0.000    0.000    0.000    0.000    0.000 
#
# Total GULP energy -446073.237328 kJ/mol
# GULP energy per Si atom -12390.923259 kJ/mol
# Density = 2.117925 g / cm^3
# Si number density = 21.227562 Si / 1000 Ang^3
#
#
#
# Elastic Constant Matrix: (Units=GPa)
#
#
# Indices 1 2 3 4 5 6 
#
# 1 55.9180 28.5037 48.9009 0.0000 0.0000 0.0000
# 2 28.5037 49.3588 54.8112 0.0000 0.0000 0.0000
# 3 48.9009 54.8112 184.3900 0.0000 0.0000 0.0000
# 4 0.0000 0.0000 0.0000 28.0789 0.0000 0.0000
# 5 0.0000 0.0000 0.0000 0.0000 39.2123 0.0000
# 6 0.0000 0.0000 0.0000 0.0000 0.0000 18.2095
#
#
#
# Elastic Compliance Matrix: (Units=1/GPa)
#
#
# Indices 1 2 3 4 5 6 
#
# 1 0.026991 -0.011402 -0.003769 0.000000 0.000000 0.000000
# 2 -0.011402 0.035059 -0.007398 0.000000 0.000000 0.000000
# 3 -0.003769 -0.007398 0.008622 0.000000 0.000000 0.000000
# 4 0.000000 0.000000 0.000000 0.035614 0.000000 0.000000
# 5 0.000000 0.000000 0.000000 0.000000 0.025502 0.000000
# 6 0.000000 0.000000 0.000000 0.000000 0.000000 0.054916
#
#
# Mechanical properties :
#
#
# Convention : Reuss Voigt Hill
#
# Bulk Modulus (GPa) = 39.16132 61.56649 50.36391
# Shear Modulus (GPa) = 20.80274 27.59686 24.19980
#
# Velocity S-wave (km/s) = 3.13387 3.60953 3.38008
# Velocity P-wave (km/s) = 5.61990 6.81452 6.24584
#
# Compressibility (1/GPa) = 0.02553540
#
# Stress axis : x y z
#
# Youngs Moduli (GPa) = 37.04915 28.52341 115.98407
#
# Poissons Ratio (x) = 0.32521 0.43714
# Poissons Ratio (y) = 0.42242 0.85802
# Poissons Ratio (z) = 0.13964 0.21101
#
# Static dielectric constant tensor:
#      x y z
#    x 3.668440 0.000000 0.000000 
#    y 0.000000 3.929560 0.000000 
#    z 0.000000 0.000000 4.449240 
# 
# 
# High freq. dielectric constant tensor:
#      x y z
#    x 1.816750 0.000000 0.000000 
#    y 0.000000 1.819010 0.000000 
#    z 0.000000 0.000000 1.840490 
# 
# From -- ./inp_files/44538.got.cif
#   From: 2010.03.12/outbox.cif.g09.slc.cpg/sg69_23_cif.got.tgz:44538.got - 2010.04.10 23:52:46.
