data_PCOD8284551
_publ_section_title
;
Structure prediction by ZEFSAII (Michael W. Deem and Ramdas Pophale) SiO2 
 PCOD8284551
Probable space group: F M M M
;
_chemical_formula_sum "Si O2"
_cell_formula_units_Z 160
_cell_length_a 24.150007
_cell_length_b 27.534318
_cell_length_c 14.260427
_cell_angle_alpha 90.000000
_cell_angle_beta 90.000000
_cell_angle_gamma 90.000000
_cell_volume 9482.527582
_symmetry_space_group_name_H-M "F M M M"
_symmetry_group_IT_number 69
_symmetry_cell_setting 'orthorhombic'
loop_
_space_group_symop_operation_xyz
x,y,z
-x,-y,z
x,-y,-z
-x,y,-z
-x,-y,-z
x,y,-z
-x,y,z
x,-y,z
x,1/2+y,1/2+z
-x,1/2-y,1/2+z
x,1/2-y,1/2-z
-x,1/2+y,1/2-z
-x,1/2-y,1/2-z
x,1/2+y,1/2-z
-x,1/2+y,1/2+z
x,1/2-y,1/2+z
1/2+x,y,1/2+z
1/2-x,-y,1/2+z
1/2+x,-y,1/2-z
1/2-x,y,1/2-z
1/2-x,-y,1/2-z
1/2+x,y,1/2-z
1/2-x,y,1/2+z
1/2+x,-y,1/2+z
1/2+x,1/2+y,z
1/2-x,1/2-y,z
1/2+x,1/2-y,-z
1/2-x,1/2+y,-z
1/2-x,1/2-y,-z
1/2+x,1/2+y,-z
1/2-x,1/2+y,z
1/2+x,1/2-y,z
loop_
_atom_site_type_symbol
_atom_site_label
_atom_site_fract_x
_atom_site_fract_y
_atom_site_fract_z
Si Si1 0.215683 0.177077 0.000000
Si Si2 0.195372 0.624365 0.307035
Si Si3 0.000000 0.886426 0.891300
Si Si4 0.609823 0.443523 0.109265
Si Si5 0.500000 0.307483 0.745120
Si Si6 0.381222 0.301097 0.696909
Si Si7 0.334424 0.775803 0.000000
O O1 0.211699 0.145021 0.092294
O O2 0.273154 0.204294 0.000000
O O3 0.166617 0.217074 0.000000
O O4 0.250000 0.609015 0.250000
O O5 0.158941 0.576452 0.325238
O O6 0.161784 0.663754 0.247700
O O7 0.946473 0.916905 0.860711
O O8 0.000000 0.832979 0.846496
O O9 0.000000 0.875869 0.000000
O O10 0.602386 0.500000 0.130086
O O11 0.623250 0.433801 0.000000
O O12 0.500000 0.250000 0.750000
O O13 0.443194 0.323812 0.694649
O O14 0.379295 0.250000 0.750000
O O15 0.366232 0.295152 0.589557
#
# Coordination Sequence:
#
# PCOD8284551 Si02
#       7
#    16  32  16  32  16  32  16
#     4  11  22  34  53  82 111 155 189 230 278 322
#     4  12  22  35  58  82 113 150 191 229 284 343
#     4  10  19  36  63  86 114 153 185 227 284 339
#     4  10  21  37  59  86 113 144 189 241 291 341
#     4  10  22  38  51  80 117 149 182 219 273 339
#     4  11  22  37  54  80 113 150 192 228 271 338
#     4  11  22  35  56  78 114 151 197 234 265 320
#
# _framework density 16.873138000000001
#
# number of rings (size 3 to 8) (size 9 to 14) (size 15 to 20)
#    0.000    1.200    7.000    0.300    0.000    2.400 
#    7.200    0.000    0.000    0.000    0.000    0.000 
#    0.000    1.600    0.000    0.000    0.000    0.000 
#
# Total GULP energy -495949.392934 kJ/mol
# GULP energy per Si atom -12398.734823 kJ/mol
# Density = 1.683473 g / cm^3
# Si number density = 16.873138 Si / 1000 Ang^3
#
#
#
# Elastic Constant Matrix: (Units=GPa)
#
#
# Indices 1 2 3 4 5 6 
#
# 1 133.0240 44.9355 54.2906 0.0000 0.0000 0.0000
# 2 44.9355 94.7545 43.5179 0.0000 0.0000 0.0000
# 3 54.2906 43.5179 115.9463 0.0000 0.0000 0.0000
# 4 0.0000 0.0000 0.0000 26.3976 0.0000 0.0000
# 5 0.0000 0.0000 0.0000 0.0000 31.9297 0.0000
# 6 0.0000 0.0000 0.0000 0.0000 0.0000 24.6202
#
#
#
# Elastic Compliance Matrix: (Units=1/GPa)
#
#
# Indices 1 2 3 4 5 6 
#
# 1 0.010009 -0.003134 -0.003510 0.000000 0.000000 0.000000
# 2 -0.003134 0.013733 -0.003687 0.000000 0.000000 0.000000
# 3 -0.003510 -0.003687 0.011652 0.000000 0.000000 0.000000
# 4 0.000000 0.000000 0.000000 0.037882 0.000000 0.000000
# 5 0.000000 0.000000 0.000000 0.000000 0.031319 0.000000
# 6 0.000000 0.000000 0.000000 0.000000 0.000000 0.040617
#
#
# Mechanical properties :
#
#
# Convention : Reuss Voigt Hill
#
# Bulk Modulus (GPa) = 67.88200 69.91253 68.89727
# Shear Modulus (GPa) = 29.27654 29.98824 29.63239
#
# Velocity S-wave (km/s) = 4.16997 4.22035 4.19524
# Velocity P-wave (km/s) = 7.96888 8.07915 8.02420
#
# Compressibility (1/GPa) = 0.01473145
#
# Stress axis : x y z
#
# Youngs Moduli (GPa) = 99.91204 72.81585 85.82213
#
# Poissons Ratio (x) = 0.22823 0.30124
# Poissons Ratio (y) = 0.31317 0.31641
# Poissons Ratio (z) = 0.35070 0.26846
#
# Static dielectric constant tensor:
#      x y z
#    x 3.566760 0.000000 0.000000 
#    y 0.000000 3.071370 0.000000 
#    z 0.000000 0.000000 3.123950 
# 
# 
# High freq. dielectric constant tensor:
#      x y z
#    x 1.669310 0.000000 0.000000 
#    y 0.000000 1.637270 0.000000 
#    z 0.000000 0.000000 1.642850 
# 
# From -- ./inp_files/11543.got.cif
#   From: 2010.03.12/outbox.cif.g09.slc.cpg/sg69_6_cif.got.tgz:11543.got - 2010.04.10 23:52:46.
