data_PCOD8284529
_publ_section_title
;
Structure prediction by ZEFSAII (Michael W. Deem and Ramdas Pophale) SiO2 
 PCOD8284529
Probable space group: F M M M
;
_chemical_formula_sum "Si O2"
_cell_formula_units_Z 144
_cell_length_a 20.483782
_cell_length_b 18.622680
_cell_length_c 20.482077
_cell_angle_alpha 90.000000
_cell_angle_beta 90.000000
_cell_angle_gamma 90.000000
_cell_volume 7813.152846
_symmetry_space_group_name_H-M "F M M M"
_symmetry_group_IT_number 69
_symmetry_cell_setting 'orthorhombic'
loop_
_space_group_symop_operation_xyz
x,y,z
-x,-y,z
x,-y,-z
-x,y,-z
-x,-y,-z
x,y,-z
-x,y,z
x,-y,z
x,1/2+y,1/2+z
-x,1/2-y,1/2+z
x,1/2-y,1/2-z
-x,1/2+y,1/2-z
-x,1/2-y,1/2-z
x,1/2+y,1/2-z
-x,1/2+y,1/2+z
x,1/2-y,1/2+z
1/2+x,y,1/2+z
1/2-x,-y,1/2+z
1/2+x,-y,1/2-z
1/2-x,y,1/2-z
1/2-x,-y,1/2-z
1/2+x,y,1/2-z
1/2-x,y,1/2+z
1/2+x,-y,1/2+z
1/2+x,1/2+y,z
1/2-x,1/2-y,z
1/2+x,1/2-y,-z
1/2-x,1/2+y,-z
1/2-x,1/2-y,-z
1/2+x,1/2+y,-z
1/2-x,1/2+y,z
1/2+x,1/2-y,z
loop_
_atom_site_type_symbol
_atom_site_label
_atom_site_fract_x
_atom_site_fract_y
_atom_site_fract_z
Si Si1 0.500000 0.915515 0.142744
Si Si2 0.000000 0.330914 0.725551
Si Si3 0.257318 0.833855 0.572109
Si Si4 0.391245 0.172439 0.378099
Si Si5 0.073635 0.577707 0.500000
Si Si6 0.113857 0.166709 0.422857
O O1 0.500000 0.885543 0.215378
O O2 0.563924 0.891303 0.103899
O O3 0.500000 0.000000 0.146815
O O4 0.000000 0.250000 0.750000
O O5 0.066620 0.346999 0.685488
O O6 0.277275 0.866273 0.500000
O O7 0.250000 0.750000 0.561025
O O8 0.313451 0.847202 0.626903
O O9 0.186621 0.862695 0.595325
O O10 0.415252 0.125259 0.437047
O O11 0.401835 0.256770 0.390657
O O12 0.112159 0.500000 0.500000
O O13 0.000000 0.554869 0.500000
O O14 0.106655 0.175202 0.500000
#
# Coordination Sequence:
#
# PCOD8284529 Si02
#       6
#    16  16  32  32  16  32
#     4  12  27  43  57  82 122 157 200 251 288 335
#     4  12  24  37  59  84 110 160 213 237 272 336
#     4   8  15  29  56  94 120 139 180 241 296 345
#     4  11  18  35  62  86 118 153 191 238 287 345
#     4  11  22  32  51  90 120 139 180 239 301 353
#     4  10  19  35  65  93 115 146 190 241 297 351
#
# _framework density 18.430458999999999
#
# number of rings (size 3 to 8) (size 9 to 14) (size 15 to 20)
#    0.000    1.667    5.556    1.667    0.000    1.778 
#    0.000    2.222    0.000    1.333    0.000    0.000 
#    0.000    0.000    0.000    0.000    0.000    0.000 
#
# Total GULP energy -446024.251364 kJ/mol
# GULP energy per Si atom -12389.562538 kJ/mol
# Density = 1.838851 g / cm^3
# Si number density = 18.430459 Si / 1000 Ang^3
#
#
#
# Elastic Constant Matrix: (Units=GPa)
#
#
# Indices 1 2 3 4 5 6 
#
# 1 157.1968 22.4105 44.5211 0.0000 0.0000 0.0000
# 2 22.4105 64.8190 -5.3743 0.0000 0.0000 0.0000
# 3 44.5211 -5.3743 45.9216 0.0000 0.0000 0.0000
# 4 0.0000 0.0000 0.0000 6.0444 0.0000 0.0000
# 5 0.0000 0.0000 0.0000 0.0000 2.7169 0.0000
# 6 0.0000 0.0000 0.0000 0.0000 0.0000 7.1253
#
#
#
# Elastic Compliance Matrix: (Units=1/GPa)
#
#
# Indices 1 2 3 4 5 6 
#
# 1 0.009790 -0.004212 -0.009984 0.000000 0.000000 0.000000
# 2 -0.004212 0.017391 0.006119 0.000000 0.000000 0.000000
# 3 -0.009984 0.006119 0.032172 0.000000 0.000000 0.000000
# 4 0.000000 0.000000 0.000000 0.165444 0.000000 0.000000
# 5 0.000000 0.000000 0.000000 0.000000 0.368061 0.000000
# 6 0.000000 0.000000 0.000000 0.000000 0.000000 0.140345
#
#
# Mechanical properties :
#
#
# Convention : Reuss Voigt Hill
#
# Bulk Modulus (GPa) = 23.14891 43.45022 33.29956
# Shear Modulus (GPa) = 6.54658 16.93599 11.74129
#
# Velocity S-wave (km/s) = 1.88673 3.03465 2.52674
# Velocity P-wave (km/s) = 4.16338 5.99209 5.15941
#
# Compressibility (1/GPa) = 0.04319858
#
# Stress axis : x y z
#
# Youngs Moduli (GPa) = 102.14834 57.49978 31.08291
#
# Poissons Ratio (x) = 0.24222 0.31034
# Poissons Ratio (y) = 0.43030 -0.19021
# Poissons Ratio (z) = 1.01986 -0.35186
#
# Static dielectric constant tensor:
#      x y z
#    x 4.436290 0.000000 0.000000 
#    y 0.000000 3.134050 0.000000 
#    z 0.000000 0.000000 3.403900 
# 
# 
# High freq. dielectric constant tensor:
#      x y z
#    x 1.737100 0.000000 0.000000 
#    y 0.000000 1.687490 0.000000 
#    z 0.000000 0.000000 1.691300 
# 
# From -- ./inp_files/30751.got.cif
#   From: 2010.03.12/outbox.cif.g09.slc.cpg/sg69_16_cif.got.tgz:30751.got - 2010.04.10 23:52:46.
