data_PCOD8284979
_publ_section_title
;
Structure prediction by ZEFSAII (Michael W. Deem and Ramdas Pophale) SiO2 
 PCOD8284979
Probable space group: F M M M
;
_chemical_formula_sum "Si O2"
_cell_formula_units_Z 176
_cell_length_a 26.204029
_cell_length_b 17.654344
_cell_length_c 18.342023
_cell_angle_alpha 90.000000
_cell_angle_beta 90.000000
_cell_angle_gamma 90.000000
_cell_volume 8485.293909
_symmetry_space_group_name_H-M "F M M M"
_symmetry_group_IT_number 69
_symmetry_cell_setting 'orthorhombic'
loop_
_space_group_symop_operation_xyz
x,y,z
-x,-y,z
x,-y,-z
-x,y,-z
-x,-y,-z
x,y,-z
-x,y,z
x,-y,z
x,1/2+y,1/2+z
-x,1/2-y,1/2+z
x,1/2-y,1/2-z
-x,1/2+y,1/2-z
-x,1/2-y,1/2-z
x,1/2+y,1/2-z
-x,1/2+y,1/2+z
x,1/2-y,1/2+z
1/2+x,y,1/2+z
1/2-x,-y,1/2+z
1/2+x,-y,1/2-z
1/2-x,y,1/2-z
1/2-x,-y,1/2-z
1/2+x,y,1/2-z
1/2-x,y,1/2+z
1/2+x,-y,1/2+z
1/2+x,1/2+y,z
1/2-x,1/2-y,z
1/2+x,1/2-y,-z
1/2-x,1/2+y,-z
1/2-x,1/2-y,-z
1/2+x,1/2+y,-z
1/2-x,1/2+y,z
1/2+x,1/2-y,z
loop_
_atom_site_type_symbol
_atom_site_label
_atom_site_fract_x
_atom_site_fract_y
_atom_site_fract_z
Si Si1 0.632294 0.713930 0.917804
Si Si2 0.940253 0.916029 0.500000
Si Si3 0.361054 0.415904 0.709712
Si Si4 0.559958 0.677554 0.643698
Si Si5 0.701323 0.644356 0.584834
Si Si6 0.806512 0.589179 0.644450
O O1 0.584251 0.739422 0.867788
O O2 0.681301 0.769417 0.905680
O O3 0.646529 0.627589 0.898609
O O4 0.612985 0.716815 0.000000
O O5 0.924216 0.870279 0.571849
O O6 0.000000 0.925739 0.500000
O O7 0.915112 0.000000 0.500000
O O8 0.381626 0.500000 0.723639
O O9 0.411174 0.361888 0.712055
O O10 0.334912 0.411167 0.630601
O O11 0.318082 0.395878 0.770107
O O12 0.500000 0.682755 0.659379
O O13 0.700768 0.619830 0.500000
O O14 0.757255 0.635092 0.618539
O O15 0.802290 0.500000 0.625873
#
# Coordination Sequence:
#
# PCOD8284979 Si02
#       6
#    32  16  32  32  32  32
#     4  10  21  38  60  88 119 150 193 247 292 346
#     4   9  16  28  52  86 114 139 173 213 270 346
#     4  10  22  37  55  85 125 157 188 235 289 352
#     4  10  20  36  59  86 116 152 187 230 294 356
#     4  10  21  37  60  88 115 150 192 241 295 353
#     4  11  23  39  57  80 114 159 205 243 289 342
#
# _framework density 20.741768
#
# number of rings (size 3 to 8) (size 9 to 14) (size 15 to 20)
#    0.000    1.909    0.909    2.727    1.273    9.455 
#    0.000    5.455    0.000    1.636    0.000    1.273 
#    0.000    0.000    0.000    0.000    0.000    0.182 
#
# Total GULP energy -545321.960372 kJ/mol
# GULP energy per Si atom -12393.680918 kJ/mol
# Density = 2.069456 g / cm^3
# Si number density = 20.741768 Si / 1000 Ang^3
#
#
#
# Elastic Constant Matrix: (Units=GPa)
#
#
# Indices 1 2 3 4 5 6 
#
# 1 108.1147 23.1120 43.3100 0.0000 0.0000 0.0000
# 2 23.1120 56.8530 25.5370 0.0000 0.0000 0.0000
# 3 43.3100 25.5370 86.0317 0.0000 0.0000 0.0000
# 4 0.0000 0.0000 0.0000 24.7937 0.0000 0.0000
# 5 0.0000 0.0000 0.0000 0.0000 15.5813 0.0000
# 6 0.0000 0.0000 0.0000 0.0000 0.0000 17.3354
#
#
#
# Elastic Compliance Matrix: (Units=1/GPa)
#
#
# Indices 1 2 3 4 5 6 
#
# 1 0.011880 -0.002473 -0.005246 0.000000 0.000000 0.000000
# 2 -0.002473 0.020810 -0.004932 0.000000 0.000000 0.000000
# 3 -0.005246 -0.004932 0.015729 0.000000 0.000000 0.000000
# 4 0.000000 0.000000 0.000000 0.040333 0.000000 0.000000
# 5 0.000000 0.000000 0.000000 0.000000 0.064179 0.000000
# 6 0.000000 0.000000 0.000000 0.000000 0.000000 0.057685
#
#
# Mechanical properties :
#
#
# Convention : Reuss Voigt Hill
#
# Bulk Modulus (GPa) = 43.26097 48.32415 45.79256
# Shear Modulus (GPa) = 20.52342 22.14479 21.33410
#
# Velocity S-wave (km/s) = 3.14900 3.27102 3.21059
# Velocity P-wave (km/s) = 5.84156 6.13308 5.98910
#
# Compressibility (1/GPa) = 0.02311553
#
# Stress axis : x y z
#
# Youngs Moduli (GPa) = 84.17678 48.05412 63.57749
#
# Poissons Ratio (x) = 0.11883 0.33356
# Poissons Ratio (y) = 0.20815 0.31358
# Poissons Ratio (z) = 0.44163 0.23701
#
# Static dielectric constant tensor:
#      x y z
#    x 3.718820 0.000000 0.000000 
#    y 0.000000 3.724790 0.000000 
#    z 0.000000 0.000000 3.963310 
# 
# 
# High freq. dielectric constant tensor:
#      x y z
#    x 1.804400 0.000000 0.000000 
#    y 0.000000 1.800920 0.000000 
#    z 0.000000 0.000000 1.806210 
# 
# From -- ./inp_files/26738.got.cif
#   From: 2010.03.12/outbox.cif.g09.slc.cpg/sg69_14_cif.got.tgz:26738.got - 2010.04.10 23:52:46.
