data_PCOD8284533
_publ_section_title
;
Structure prediction by ZEFSAII (Michael W. Deem and Ramdas Pophale) SiO2 
 PCOD8284533
Probable space group: F M M M
;
_chemical_formula_sum "Si O2"
_cell_formula_units_Z 160
_cell_length_a 33.213700
_cell_length_b 14.812700
_cell_length_c 16.864116
_cell_angle_alpha 90.000000
_cell_angle_beta 90.000000
_cell_angle_gamma 90.000000
_cell_volume 8296.884926
_symmetry_space_group_name_H-M "F M M M"
_symmetry_group_IT_number 69
_symmetry_cell_setting 'orthorhombic'
loop_
_space_group_symop_operation_xyz
x,y,z
-x,-y,z
x,-y,-z
-x,y,-z
-x,-y,-z
x,y,-z
-x,y,z
x,-y,z
x,1/2+y,1/2+z
-x,1/2-y,1/2+z
x,1/2-y,1/2-z
-x,1/2+y,1/2-z
-x,1/2-y,1/2-z
x,1/2+y,1/2-z
-x,1/2+y,1/2+z
x,1/2-y,1/2+z
1/2+x,y,1/2+z
1/2-x,-y,1/2+z
1/2+x,-y,1/2-z
1/2-x,y,1/2-z
1/2-x,-y,1/2-z
1/2+x,y,1/2-z
1/2-x,y,1/2+z
1/2+x,-y,1/2+z
1/2+x,1/2+y,z
1/2-x,1/2-y,z
1/2+x,1/2-y,-z
1/2-x,1/2+y,-z
1/2-x,1/2-y,-z
1/2+x,1/2+y,-z
1/2-x,1/2+y,z
1/2+x,1/2-y,z
loop_
_atom_site_type_symbol
_atom_site_label
_atom_site_fract_x
_atom_site_fract_y
_atom_site_fract_z
Si Si1 0.547055 0.000000 0.743751
Si Si2 0.630575 0.330343 0.347591
Si Si3 0.282170 0.820309 0.093381
Si Si4 0.393281 0.138940 0.321287
Si Si5 0.342671 0.500000 0.091195
Si Si6 0.587856 0.500000 0.410655
Si Si7 0.745297 0.000000 0.342881
O O1 0.564698 0.089507 0.700731
O O2 0.500000 0.000000 0.729340
O O3 0.555461 0.000000 0.838985
O O4 0.674273 0.296037 0.372413
O O5 0.600372 0.242941 0.349029
O O6 0.633800 0.367016 0.258062
O O7 0.615009 0.409786 0.404708
O O8 0.250000 0.750000 0.128745
O O9 0.268369 0.917873 0.118400
O O10 0.284608 0.811959 0.000000
O O11 0.369271 0.087767 0.389980
O O12 0.301800 0.500000 0.139899
O O13 0.330797 0.500000 0.000000
O O14 0.568607 0.500000 0.500000
O O15 0.750000 0.000000 0.250000
#
# Coordination Sequence:
#
# PCOD8284533 Si02
#       7
#    16  32  32  32  16  16  16
#     4   9  19  39  65  89 113 138 171 223 277 330
#     4  10  19  36  56  77 111 150 191 231 266 322
#     4  11  23  36  53  79 110 146 190 240 288 325
#     4   9  20  37  58  84 106 140 188 225 272 335
#     4  11  21  35  55  78 108 142 184 238 287 329
#     4  10  20  33  55  86 118 154 186 217 268 333
#     4  12  24  37  53  75 109 151 194 239 282 322
#
# _framework density 19.284347
#
# number of rings (size 3 to 8) (size 9 to 14) (size 15 to 20)
#    0.000    1.800    0.000    5.100    0.000    5.400 
#    0.000    8.000    0.000    4.800    0.000    0.000 
#    0.000    0.000    0.000    0.000    0.000    0.000 
#
# Total GULP energy -495939.570056 kJ/mol
# GULP energy per Si atom -12398.489251 kJ/mol
# Density = 1.924045 g / cm^3
# Si number density = 19.284347 Si / 1000 Ang^3
#
#
#
# Elastic Constant Matrix: (Units=GPa)
#
#
# Indices 1 2 3 4 5 6 
#
# 1 130.6969 54.9656 45.8406 0.0000 0.0000 0.0000
# 2 54.9656 144.9907 27.5564 0.0000 0.0000 0.0000
# 3 45.8406 27.5564 73.2469 0.0000 0.0000 0.0000
# 4 0.0000 0.0000 0.0000 29.1917 0.0000 0.0000
# 5 0.0000 0.0000 0.0000 0.0000 -0.9797 0.0000
# 6 0.0000 0.0000 0.0000 0.0000 0.0000 41.4023
#
#
#
# Elastic Compliance Matrix: (Units=1/GPa)
#
#
# Indices 1 2 3 4 5 6 
#
# 1 0.010936 -0.003064 -0.005691 0.000000 0.000000 0.000000
# 2 -0.003064 0.008287 -0.001200 0.000000 0.000000 0.000000
# 3 -0.005691 -0.001200 0.017666 0.000000 0.000000 0.000000
# 4 0.000000 0.000000 0.000000 0.034256 0.000000 0.000000
# 5 0.000000 0.000000 0.000000 0.000000 -1.020732 0.000000
# 6 0.000000 0.000000 0.000000 0.000000 0.000000 0.024153
#
#
# Mechanical properties :
#
#
# Convention : Reuss Voigt Hill
#
# Bulk Modulus (GPa) = 58.90120 67.29551 63.09836
# Shear Modulus (GPa) = -5.55640 28.62766 11.53563
#
# Velocity S-wave (km/s) = -1.69928 3.85710 2.44844
# Velocity P-wave (km/s) = 5.17298 7.40328 6.38625
#
# Compressibility (1/GPa) = 0.01697758
#
# Stress axis : x y z
#
# Youngs Moduli (GPa) = 91.43958 120.67587 56.60655
#
# Poissons Ratio (x) = 0.36977 0.32218
# Poissons Ratio (y) = 0.28019 0.06792
# Poissons Ratio (z) = 0.52043 0.14480
#
# Static dielectric constant tensor:
#      x y z
#    x 3.215500 0.000000 0.000000 
#    y 0.000000 3.826560 0.000000 
#    z 0.000000 0.000000 3.559020 
# 
# 
# High freq. dielectric constant tensor:
#      x y z
#    x 1.717500 0.000000 0.000000 
#    y 0.000000 1.770550 0.000000 
#    z 0.000000 0.000000 1.752340 
# 
# From -- ./inp_files/27548.got.cif
#   From: 2010.03.12/outbox.cif.g09.slc.cpg/sg69_14_cif.got.tgz:27548.got - 2010.04.10 23:52:46.
