data_PCOD8284973
_publ_section_title
;
Structure prediction by ZEFSAII (Michael W. Deem and Ramdas Pophale) SiO2 
 PCOD8284973
Probable space group: F M M M
;
_chemical_formula_sum "Si O2"
_cell_formula_units_Z 160
_cell_length_a 19.090760
_cell_length_b 30.414945
_cell_length_c 14.204078
_cell_angle_alpha 90.000000
_cell_angle_beta 90.000000
_cell_angle_gamma 90.000000
_cell_volume 8247.518567
_symmetry_space_group_name_H-M "F M M M"
_symmetry_group_IT_number 69
_symmetry_cell_setting 'orthorhombic'
loop_
_space_group_symop_operation_xyz
x,y,z
-x,-y,z
x,-y,-z
-x,y,-z
-x,-y,-z
x,y,-z
-x,y,z
x,-y,z
x,1/2+y,1/2+z
-x,1/2-y,1/2+z
x,1/2-y,1/2-z
-x,1/2+y,1/2-z
-x,1/2-y,1/2-z
x,1/2+y,1/2-z
-x,1/2+y,1/2+z
x,1/2-y,1/2+z
1/2+x,y,1/2+z
1/2-x,-y,1/2+z
1/2+x,-y,1/2-z
1/2-x,y,1/2-z
1/2-x,-y,1/2-z
1/2+x,y,1/2-z
1/2-x,y,1/2+z
1/2+x,-y,1/2+z
1/2+x,1/2+y,z
1/2-x,1/2-y,z
1/2+x,1/2-y,-z
1/2-x,1/2+y,-z
1/2-x,1/2-y,-z
1/2+x,1/2+y,-z
1/2-x,1/2+y,z
1/2+x,1/2-y,z
loop_
_atom_site_type_symbol
_atom_site_label
_atom_site_fract_x
_atom_site_fract_y
_atom_site_fract_z
Si Si1 0.317531 0.898878 0.687522
Si Si2 0.612193 0.950827 0.000000
Si Si3 0.417547 0.729692 0.604582
Si Si4 0.424539 0.948455 0.196562
Si Si5 0.223136 0.050621 0.000000
Si Si6 0.916724 0.682225 0.290433
O O1 0.250000 0.885806 0.750000
O O2 0.360490 0.936595 0.738684
O O3 0.299355 0.920421 0.588680
O O4 0.369223 0.857685 0.674189
O O5 0.584550 0.926032 0.093369
O O6 0.694807 0.952822 0.000000
O O7 0.581267 0.000000 0.000000
O O8 0.384368 0.720942 0.500000
O O9 0.500000 0.729324 0.595838
O O10 0.395703 0.692949 0.681510
O O11 0.394983 0.777402 0.642734
O O12 0.500000 0.933239 0.238135
O O13 0.421175 0.000000 0.184023
O O14 0.192383 0.000000 0.000000
O O15 0.000000 0.671727 0.298375
#
# Coordination Sequence:
#
# PCOD8284973 Si02
#       6
#    32  16  32  32  16  32
#     4  12  24  39  58  85 122 159 198 246 301 364
#     4   9  17  34  59  83 107 142 195 247 295 347
#     4   8  15  33  61  88 115 153 196 241 295 356
#     4  10  20  36  59  85 113 148 194 250 306 351
#     4  11  24  41  61  85 115 162 214 246 292 365
#     4   9  19  36  59  89 120 153 198 243 294 357
#
# _framework density 19.399774000000001
#
# number of rings (size 3 to 8) (size 9 to 14) (size 15 to 20)
#    0.000    2.200    2.000    2.700    1.400    2.000 
#    3.600    3.500    0.000    4.800    0.000    0.000 
#    0.000    0.000    0.000    0.000    0.000    0.000 
#
# Total GULP energy -495557.255866 kJ/mol
# GULP energy per Si atom -12388.931397 kJ/mol
# Density = 1.935562 g / cm^3
# Si number density = 19.399774 Si / 1000 Ang^3
#
#
#
# Elastic Constant Matrix: (Units=GPa)
#
#
# Indices 1 2 3 4 5 6 
#
# 1 77.1192 26.2768 11.3135 0.0000 0.0000 0.0000
# 2 26.2768 78.9227 23.5999 0.0000 0.0000 0.0000
# 3 11.3135 23.5999 95.3929 0.0000 0.0000 0.0000
# 4 0.0000 0.0000 0.0000 28.6572 0.0000 0.0000
# 5 0.0000 0.0000 0.0000 0.0000 23.9317 0.0000
# 6 0.0000 0.0000 0.0000 0.0000 0.0000 23.9434
#
#
#
# Elastic Compliance Matrix: (Units=1/GPa)
#
#
# Indices 1 2 3 4 5 6 
#
# 1 0.014655 -0.004708 -0.000573 0.000000 0.000000 0.000000
# 2 -0.004708 0.015195 -0.003201 0.000000 0.000000 0.000000
# 3 -0.000573 -0.003201 0.011343 0.000000 0.000000 0.000000
# 4 0.000000 0.000000 0.000000 0.034895 0.000000 0.000000
# 5 0.000000 0.000000 0.000000 0.000000 0.041786 0.000000
# 6 0.000000 0.000000 0.000000 0.000000 0.000000 0.041765
#
#
# Mechanical properties :
#
#
# Convention : Reuss Voigt Hill
#
# Bulk Modulus (GPa) = 41.27295 41.53501 41.40398
# Shear Modulus (GPa) = 27.07387 27.98943 27.53165
#
# Velocity S-wave (km/s) = 3.73979 3.80250 3.77128
# Velocity P-wave (km/s) = 6.32212 6.38242 6.35234
#
# Compressibility (1/GPa) = 0.02422894
#
# Stress axis : x y z
#
# Youngs Moduli (GPa) = 68.23530 65.81011 88.16126
#
# Poissons Ratio (x) = 0.30983 0.05055
# Poissons Ratio (y) = 0.32124 0.28220
# Poissons Ratio (z) = 0.03912 0.21065
#
# Static dielectric constant tensor:
#      x y z
#    x 3.467070 0.000000 0.000000 
#    y 0.000000 3.389250 0.000000 
#    z 0.000000 0.000000 4.083790 
# 
# 
# High freq. dielectric constant tensor:
#      x y z
#    x 1.740170 0.000000 0.000000 
#    y 0.000000 1.742240 0.000000 
#    z 0.000000 0.000000 1.763580 
# 
# From -- ./inp_files/15662.got.cif
#   From: 2010.03.12/outbox.cif.g09.slc.cpg/sg69_8_cif.got.tgz:15662.got - 2010.04.10 23:52:46.
