data_PCOD8284145
_publ_section_title
;
Structure prediction by ZEFSAII (Michael W. Deem and Ramdas Pophale) SiO2 
 PCOD8284145
Probable space group: F M M M
;
_chemical_formula_sum "Si O2"
_cell_formula_units_Z 128
_cell_length_a 26.588092
_cell_length_b 7.657663
_cell_length_c 36.295662
_cell_angle_alpha 90.000000
_cell_angle_beta 90.000000
_cell_angle_gamma 90.000000
_cell_volume 7389.892907
_symmetry_space_group_name_H-M "F M M M"
_symmetry_group_IT_number 69
_symmetry_cell_setting 'orthorhombic'
loop_
_space_group_symop_operation_xyz
x,y,z
-x,-y,z
x,-y,-z
-x,y,-z
-x,-y,-z
x,y,-z
-x,y,z
x,-y,z
x,1/2+y,1/2+z
-x,1/2-y,1/2+z
x,1/2-y,1/2-z
-x,1/2+y,1/2-z
-x,1/2-y,1/2-z
x,1/2+y,1/2-z
-x,1/2+y,1/2+z
x,1/2-y,1/2+z
1/2+x,y,1/2+z
1/2-x,-y,1/2+z
1/2+x,-y,1/2-z
1/2-x,y,1/2-z
1/2-x,-y,1/2-z
1/2+x,y,1/2-z
1/2-x,y,1/2+z
1/2+x,-y,1/2+z
1/2+x,1/2+y,z
1/2-x,1/2-y,z
1/2+x,1/2-y,-z
1/2-x,1/2+y,-z
1/2-x,1/2-y,-z
1/2+x,1/2+y,-z
1/2-x,1/2+y,z
1/2+x,1/2-y,z
loop_
_atom_site_type_symbol
_atom_site_label
_atom_site_fract_x
_atom_site_fract_y
_atom_site_fract_z
Si Si1 0.153018 0.500000 0.543453
Si Si2 0.305091 0.200736 0.908465
Si Si3 0.557007 0.296057 0.209789
Si Si4 0.901582 0.694585 0.135463
Si Si5 0.056042 0.500000 0.410122
O O1 0.154664 0.500000 0.500000
O O2 0.180896 0.325578 0.557410
O O3 0.095100 0.500000 0.556364
O O4 0.250000 0.250000 0.893534
O O5 0.343637 0.235963 0.874902
O O6 0.307174 0.000000 0.922009
O O7 0.500000 0.222857 0.206418
O O8 0.558008 0.500000 0.202792
O O9 0.578895 0.250000 0.250000
O O10 0.592267 0.205754 0.179452
O O11 0.915873 0.500000 0.122058
O O12 0.938258 0.829255 0.115270
O O13 0.000000 0.500000 0.426829
#
# Coordination Sequence:
#
# PCOD8284145 Si02
#       5
#    16  32  32  32  16
#     4  10  22  37  54  80 109 135 168 213 261 312
#     4  10  20  36  56  79 104 134 172 212 262 312
#     4  10  19  30  46  72 105 138 173 214 259 304
#     4  10  20  33  52  76 104 137 175 217 257 306
#     4  10  20  35  54  76 103 139 179 212 250 307
#
# _framework density 17.320955000000001
#
# number of rings (size 3 to 8) (size 9 to 14) (size 15 to 20)
#    0.000    2.000    2.500    1.500    0.000    4.250 
#    0.000    0.000    0.000    0.750    0.000   12.250 
#    0.000    0.000    0.000    0.000    0.000    0.000 
#
# Total GULP energy -396815.092489 kJ/mol
# GULP energy per Si atom -12400.471640 kJ/mol
# Density = 1.728153 g / cm^3
# Si number density = 17.320955 Si / 1000 Ang^3
#
#
#
# Elastic Constant Matrix: (Units=GPa)
#
#
# Indices 1 2 3 4 5 6 
#
# 1 114.7674 41.6672 52.3672 -0.0008 0.0002 0.0034
# 2 41.6672 116.0010 37.5310 -0.0027 0.0008 0.0042
# 3 52.3672 37.5310 120.5773 0.0001 -0.0003 0.0038
# 4 -0.0008 -0.0027 0.0001 21.7590 -0.0002 0.0013
# 5 0.0002 0.0008 -0.0003 -0.0002 16.0982 -0.0005
# 6 0.0034 0.0042 0.0038 0.0013 -0.0005 16.9475
#
#
#
# Elastic Compliance Matrix: (Units=1/GPa)
#
#
# Indices 1 2 3 4 5 6 
#
# 1 0.011647 -0.002832 -0.004177 0.000000 0.000000 -0.000001
# 2 -0.002832 0.010275 -0.001968 0.000001 -0.000001 -0.000002
# 3 -0.004177 -0.001968 0.010720 0.000000 0.000000 -0.000001
# 4 0.000000 0.000001 0.000000 0.045958 0.000001 -0.000003
# 5 0.000000 -0.000001 0.000000 0.000001 0.062119 0.000002
# 6 -0.000001 -0.000002 -0.000001 -0.000003 0.000002 0.059006
#
#
# Mechanical properties :
#
#
# Convention : Reuss Voigt Hill
#
# Bulk Modulus (GPa) = 68.08441 68.27518 68.17979
# Shear Modulus (GPa) = 22.46432 25.61295 24.03864
#
# Velocity S-wave (km/s) = 3.60522 3.84959 3.72941
# Velocity P-wave (km/s) = 7.53147 7.69821 7.61529
#
# Compressibility (1/GPa) = 0.01468765
#
# Stress axis : x y z
#
# Youngs Moduli (GPa) = 85.85548 97.32627 93.28295
#
# Poissons Ratio (x) = 0.27566 0.38964
# Poissons Ratio (y) = 0.24317 0.18358
# Poissons Ratio (z) = 0.35861 0.19154
#
# Static dielectric constant tensor:
#      x y z
#    x 3.234860 0.000010 0.000000 
#    y 0.000010 3.534550 0.000000 
#    z 0.000000 0.000000 3.021880 
# 
# 
# High freq. dielectric constant tensor:
#      x y z
#    x 1.656690 0.000000 0.000000 
#    y 0.000000 1.692630 0.000000 
#    z 0.000000 0.000000 1.646860 
# 
# From -- ./inp_files/47139.got.cif
#   From: 2010.03.12/outbox.cif.g09.slc.cpg/sg69_24_cif.got.tgz:47139.got - 2010.04.10 23:52:46.
