data_PCOD8284679
_publ_section_title
;
Structure prediction by ZEFSAII (Michael W. Deem and Ramdas Pophale) SiO2 
 PCOD8284679
Probable space group: F M M M
;
_chemical_formula_sum "Si O2"
_cell_formula_units_Z 176
_cell_length_a 16.682840
_cell_length_b 18.018594
_cell_length_c 27.615841
_cell_angle_alpha 90.000000
_cell_angle_beta 90.000000
_cell_angle_gamma 90.000000
_cell_volume 8301.358278
_symmetry_space_group_name_H-M "F M M M"
_symmetry_group_IT_number 69
_symmetry_cell_setting 'orthorhombic'
loop_
_space_group_symop_operation_xyz
x,y,z
-x,-y,z
x,-y,-z
-x,y,-z
-x,-y,-z
x,y,-z
-x,y,z
x,-y,z
x,1/2+y,1/2+z
-x,1/2-y,1/2+z
x,1/2-y,1/2-z
-x,1/2+y,1/2-z
-x,1/2-y,1/2-z
x,1/2+y,1/2-z
-x,1/2+y,1/2+z
x,1/2-y,1/2+z
1/2+x,y,1/2+z
1/2-x,-y,1/2+z
1/2+x,-y,1/2-z
1/2-x,y,1/2-z
1/2-x,-y,1/2-z
1/2+x,y,1/2-z
1/2-x,y,1/2+z
1/2+x,-y,1/2+z
1/2+x,1/2+y,z
1/2-x,1/2-y,z
1/2+x,1/2-y,-z
1/2-x,1/2+y,-z
1/2-x,1/2-y,-z
1/2+x,1/2+y,-z
1/2-x,1/2+y,z
1/2+x,1/2-y,z
loop_
_atom_site_type_symbol
_atom_site_label
_atom_site_fract_x
_atom_site_fract_y
_atom_site_fract_z
Si Si1 0.905720 0.084495 0.351425
Si Si2 0.906506 0.417865 0.324473
Si Si3 0.095544 0.677536 0.411381
Si Si4 0.405305 0.834981 0.054229
Si Si5 0.595452 0.418030 0.000000
Si Si6 0.342675 0.833279 0.761951
O O1 0.883019 0.100242 0.407733
O O2 0.859092 0.143102 0.317358
O O3 0.000000 0.097123 0.343372
O O4 0.880724 0.000000 0.339521
O O5 0.868072 0.500000 0.332055
O O6 0.869419 0.356866 0.361423
O O7 0.892077 0.391268 0.270103
O O8 0.000000 0.424651 0.334538
O O9 0.130145 0.759006 0.422762
O O10 0.127534 0.623505 0.452957
O O11 0.000000 0.680889 0.409539
O O12 0.500000 0.826847 0.048964
O O13 0.369818 0.850342 0.000000
O O14 0.632113 0.500000 0.000000
O O15 0.500000 0.420092 0.000000
O O16 0.372875 0.750000 0.750000
O O17 0.250000 0.841171 0.750000
#
# Coordination Sequence:
#
# PCOD8284679 Si02
#       6
#    32  32  32  32  16  32
#     4  10  21  36  56  84 115 145 181 227 276 325
#     4  10  20  33  52  80 112 144 179 220 269 325
#     4   9  15  25  42  69 104 141 176 211 257 311
#     4   9  16  28  48  76 110 146 182 221 268 321
#     4   9  14  20  34  60  97 134 169 211 255 301
#     4  11  24  40  57  79 105 140 184 227 275 332
#
# _framework density 21.201350000000001
#
# number of rings (size 3 to 8) (size 9 to 14) (size 15 to 20)
#    0.000    2.273    0.909    2.727    0.000    8.364 
#    0.000    1.818    0.000    0.000    2.364    2.545 
#    0.000    0.000    0.000    0.000    0.000    0.000 
#
# Total GULP energy -545418.014611 kJ/mol
# GULP energy per Si atom -12395.863968 kJ/mol
# Density = 2.115309 g / cm^3
# Si number density = 21.201350 Si / 1000 Ang^3
#
#
#
# Elastic Constant Matrix: (Units=GPa)
#
#
# Indices 1 2 3 4 5 6 
#
# 1 19.0818 20.2280 15.3011 0.0000 0.0000 0.0000
# 2 20.2280 134.2842 57.4791 0.0000 0.0000 0.0000
# 3 15.3011 57.4791 151.1204 0.0000 0.0000 0.0000
# 4 0.0000 0.0000 0.0000 31.7992 0.0000 0.0000
# 5 0.0000 0.0000 0.0000 0.0000 6.1415 0.0000
# 6 0.0000 0.0000 0.0000 0.0000 0.0000 11.9081
#
#
#
# Elastic Compliance Matrix: (Units=1/GPa)
#
#
# Indices 1 2 3 4 5 6 
#
# 1 0.063751 -0.008170 -0.003347 0.000000 0.000000 0.000000
# 2 -0.008170 0.009942 -0.002954 0.000000 0.000000 0.000000
# 3 -0.003347 -0.002954 0.008080 0.000000 0.000000 0.000000
# 4 0.000000 0.000000 0.000000 0.031447 0.000000 0.000000
# 5 0.000000 0.000000 0.000000 0.000000 0.162828 0.000000
# 6 0.000000 0.000000 0.000000 0.000000 0.000000 0.083977
#
#
# Mechanical properties :
#
#
# Convention : Reuss Voigt Hill
#
# Bulk Modulus (GPa) = 18.92884 54.50032 36.71458
# Shear Modulus (GPa) = 12.29774 24.06828 18.18301
#
# Velocity S-wave (km/s) = 2.41103 3.37296 2.93172
# Velocity P-wave (km/s) = 4.08635 6.39774 5.36793
#
# Compressibility (1/GPa) = 0.05282945
#
# Stress axis : x y z
#
# Youngs Moduli (GPa) = 15.68592 100.58121 123.76508
#
# Poissons Ratio (x) = 0.82180 0.41427
# Poissons Ratio (y) = 0.12816 0.36564
# Poissons Ratio (z) = 0.05250 0.29715
#
# Static dielectric constant tensor:
#      x y z
#    x 3.096310 0.000000 0.000000 
#    y 0.000000 4.050670 0.000000 
#    z 0.000000 0.000000 4.046420 
# 
# 
# High freq. dielectric constant tensor:
#      x y z
#    x 1.759730 0.000000 0.000000 
#    y 0.000000 1.842200 0.000000 
#    z 0.000000 0.000000 1.846700 
# 
# From -- ./inp_files/41864.got.cif
#   From: 2010.03.12/outbox.cif.g09.slc.cpg/sg69_21_cif.got.tgz:41864.got - 2010.04.10 23:52:46.
