data_PCOD8284276
_publ_section_title
;
Structure prediction by ZEFSAII (Michael W. Deem and Ramdas Pophale) SiO2 
 PCOD8284276
Probable space group: F M M M
;
_chemical_formula_sum "Si O2"
_cell_formula_units_Z 160
_cell_length_a 8.995619
_cell_length_b 35.658218
_cell_length_c 24.398976
_cell_angle_alpha 90.000000
_cell_angle_beta 90.000000
_cell_angle_gamma 90.000000
_cell_volume 7826.404471
_symmetry_space_group_name_H-M "F M M M"
_symmetry_group_IT_number 69
_symmetry_cell_setting 'orthorhombic'
loop_
_space_group_symop_operation_xyz
x,y,z
-x,-y,z
x,-y,-z
-x,y,-z
-x,-y,-z
x,y,-z
-x,y,z
x,-y,z
x,1/2+y,1/2+z
-x,1/2-y,1/2+z
x,1/2-y,1/2-z
-x,1/2+y,1/2-z
-x,1/2-y,1/2-z
x,1/2+y,1/2-z
-x,1/2+y,1/2+z
x,1/2-y,1/2+z
1/2+x,y,1/2+z
1/2-x,-y,1/2+z
1/2+x,-y,1/2-z
1/2-x,y,1/2-z
1/2-x,-y,1/2-z
1/2+x,y,1/2-z
1/2-x,y,1/2+z
1/2+x,-y,1/2+z
1/2+x,1/2+y,z
1/2-x,1/2-y,z
1/2+x,1/2-y,-z
1/2-x,1/2+y,-z
1/2-x,1/2-y,-z
1/2+x,1/2+y,-z
1/2-x,1/2+y,z
1/2+x,1/2-y,z
loop_
_atom_site_type_symbol
_atom_site_label
_atom_site_fract_x
_atom_site_fract_y
_atom_site_fract_z
Si Si1 0.324540 0.458117 0.690416
Si Si2 0.323478 0.209918 0.500000
Si Si3 0.328184 0.115836 0.306587
Si Si4 0.171944 0.651313 0.585866
Si Si5 0.335027 0.000000 0.065534
Si Si6 0.164770 0.928960 0.062525
O O1 0.500000 0.449650 0.695764
O O2 0.298205 0.500000 0.663459
O O3 0.250000 0.458731 0.750000
O O4 0.258655 0.421563 0.836933
O O5 0.500000 0.215490 0.500000
O O6 0.250000 0.250000 0.500000
O O7 0.263073 0.187423 0.445929
O O8 0.500000 0.108690 0.294431
O O9 0.250000 0.126315 0.250000
O O10 0.305335 0.151306 0.348083
O O11 0.241452 0.612075 0.564272
O O12 0.000000 0.650423 0.569304
O O13 0.262924 0.038106 0.090732
O O14 0.500000 0.000000 0.089168
O O15 0.334685 0.000000 0.000000
O O16 0.000000 0.927847 0.090190
O O17 0.148906 0.941932 0.000000
#
# Coordination Sequence:
#
# PCOD8284276 Si02
#       6
#    32  16  32  32  16  32
#     4   9  16  27  44  66  96 137 184 235 282 317
#     4  10  20  40  66  93 118 137 165 212 269 330
#     4  10  19  32  51  76 104 141 184 225 269 314
#     4   9  18  34  58  82 107 139 178 221 265 316
#     4   9  17  27  39  63 102 141 172 215 270 314
#     4   9  15  28  50  71  92 131 182 223 255 303
#
# _framework density 20.443615000000001
#
# number of rings (size 3 to 8) (size 9 to 14) (size 15 to 20)
#    0.000    2.700    1.000    2.700    0.000    2.400 
#    1.800    5.000    0.000    0.600    0.000    4.200 
#    0.000    0.000    0.000    0.000    0.000    0.000 
#
# Total GULP energy -495603.209411 kJ/mol
# GULP energy per Si atom -12390.080235 kJ/mol
# Density = 2.039708 g / cm^3
# Si number density = 20.443615 Si / 1000 Ang^3
#
#
#
# Elastic Constant Matrix: (Units=GPa)
#
#
# Indices 1 2 3 4 5 6 
#
# 1 102.6200 55.3547 33.5722 0.0000 0.0000 0.0000
# 2 55.3547 168.0360 69.5834 0.0000 0.0000 0.0000
# 3 33.5722 69.5834 99.6392 0.0000 0.0000 0.0000
# 4 0.0000 0.0000 0.0000 29.4167 0.0000 0.0000
# 5 0.0000 0.0000 0.0000 0.0000 15.7943 0.0000
# 6 0.0000 0.0000 0.0000 0.0000 0.0000 26.9706
#
#
#
# Elastic Compliance Matrix: (Units=1/GPa)
#
#
# Indices 1 2 3 4 5 6 
#
# 1 0.012080 -0.003227 -0.001816 0.000000 0.000000 0.000000
# 2 -0.003227 0.009234 -0.005362 0.000000 0.000000 0.000000
# 3 -0.001816 -0.005362 0.014392 0.000000 0.000000 0.000000
# 4 0.000000 0.000000 0.000000 0.033994 0.000000 0.000000
# 5 0.000000 0.000000 0.000000 0.000000 0.063314 0.000000
# 6 0.000000 0.000000 0.000000 0.000000 0.000000 0.037077
#
#
# Mechanical properties :
#
#
# Convention : Reuss Voigt Hill
#
# Bulk Modulus (GPa) = 67.13037 76.36842 71.74940
# Shear Modulus (GPa) = 25.52741 28.55531 27.04136
#
# Velocity S-wave (km/s) = 3.53749 3.74141 3.64088
# Velocity P-wave (km/s) = 7.04225 7.49006 7.26960
#
# Compressibility (1/GPa) = 0.01489639
#
# Stress axis : x y z
#
# Youngs Moduli (GPa) = 82.78353 108.29085 69.48073
#
# Poissons Ratio (x) = 0.34947 0.12621
# Poissons Ratio (y) = 0.26715 0.37252
# Poissons Ratio (z) = 0.15037 0.58060
#
# Static dielectric constant tensor:
#      x y z
#    x 3.612370 0.000000 0.000000 
#    y 0.000000 3.672110 0.000000 
#    z 0.000000 0.000000 3.965860 
# 
# 
# High freq. dielectric constant tensor:
#      x y z
#    x 1.775000 0.000000 0.000000 
#    y 0.000000 1.761510 0.000000 
#    z 0.000000 0.000000 1.842040 
# 
# From -- ./inp_files/35231.got.cif
#   From: 2010.03.12/outbox.cif.g09.slc.cpg/sg69_18_cif.got.tgz:35231.got - 2010.04.10 23:52:46.
