data_PCOD8284476
_publ_section_title
;
Structure prediction by ZEFSAII (Michael W. Deem and Ramdas Pophale) SiO2 
 PCOD8284476
Probable space group: F M M M
;
_chemical_formula_sum "Si O2"
_cell_formula_units_Z 192
_cell_length_a 19.014042
_cell_length_b 19.381041
_cell_length_c 27.369104
_cell_angle_alpha 90.000000
_cell_angle_beta 90.000000
_cell_angle_gamma 90.000000
_cell_volume 10085.841271
_symmetry_space_group_name_H-M "F M M M"
_symmetry_group_IT_number 69
_symmetry_cell_setting 'orthorhombic'
loop_
_space_group_symop_operation_xyz
x,y,z
-x,-y,z
x,-y,-z
-x,y,-z
-x,-y,-z
x,y,-z
-x,y,z
x,-y,z
x,1/2+y,1/2+z
-x,1/2-y,1/2+z
x,1/2-y,1/2-z
-x,1/2+y,1/2-z
-x,1/2-y,1/2-z
x,1/2+y,1/2-z
-x,1/2+y,1/2+z
x,1/2-y,1/2+z
1/2+x,y,1/2+z
1/2-x,-y,1/2+z
1/2+x,-y,1/2-z
1/2-x,y,1/2-z
1/2-x,-y,1/2-z
1/2+x,y,1/2-z
1/2-x,y,1/2+z
1/2+x,-y,1/2+z
1/2+x,1/2+y,z
1/2-x,1/2-y,z
1/2+x,1/2-y,-z
1/2-x,1/2+y,-z
1/2-x,1/2-y,-z
1/2+x,1/2+y,-z
1/2-x,1/2+y,z
1/2+x,1/2-y,z
loop_
_atom_site_type_symbol
_atom_site_label
_atom_site_fract_x
_atom_site_fract_y
_atom_site_fract_z
Si Si1 0.079931 0.801113 0.609475
Si Si2 0.658969 0.079987 0.056073
Si Si3 0.579533 0.833458 0.444725
Si Si4 0.671281 0.278631 0.697997
Si Si5 0.219866 0.925403 0.303128
Si Si6 0.804979 0.421974 0.602973
O O1 0.113815 0.873379 0.592939
O O2 0.084158 0.748532 0.564227
O O3 0.119413 0.760700 0.653753
O O4 0.000000 0.815733 0.625547
O O5 0.740620 0.095121 0.066643
O O6 0.641022 0.000000 0.066926
O O7 0.642127 0.098578 0.000000
O O8 0.603248 0.848161 0.500000
O O9 0.500000 0.859291 0.435624
O O10 0.629723 0.873466 0.407929
O O11 0.643525 0.250000 0.750000
O O12 0.750000 0.250000 0.688193
O O13 0.666303 0.362080 0.698307
O O14 0.250000 0.933538 0.250000
O O15 0.282168 0.908257 0.341175
O O16 0.185096 0.000000 0.318290
O O17 0.830285 0.500000 0.595189
#
# Coordination Sequence:
#
# PCOD8284476 Si02
#       6
#    32  32  32  32  32  32
#     4  11  24  39  57  83 118 156 192 236 292 345
#     4  10  21  37  59  87 116 150 196 245 289 339
#     4  10  22  38  55  80 118 162 200 236 285 344
#     4  11  21  36  60  88 112 146 193 237 284 346
#     4  10  19  34  58  86 113 142 181 234 289 341
#     4  10  20  36  60  88 115 147 192 244 291 339
#
# _framework density 19.036587000000001
#
# number of rings (size 3 to 8) (size 9 to 14) (size 15 to 20)
#    0.000    1.667    3.333    2.000    0.000    3.000 
#    0.000    3.333    0.000    0.000    0.000    0.000 
#    0.000    0.000    0.000    0.000    0.000    0.000 
#
# Total GULP energy -594983.175136 kJ/mol
# GULP energy per Si atom -12395.482815 kJ/mol
# Density = 1.899326 g / cm^3
# Si number density = 19.036587 Si / 1000 Ang^3
#
#
#
# Elastic Constant Matrix: (Units=GPa)
#
#
# Indices 1 2 3 4 5 6 
#
# 1 80.4146 42.4349 47.6295 0.0000 0.0000 0.0000
# 2 42.4349 102.4044 35.4800 0.0000 0.0000 0.0000
# 3 47.6295 35.4800 127.2981 0.0000 0.0000 0.0000
# 4 0.0000 0.0000 0.0000 30.5565 0.0000 0.0000
# 5 0.0000 0.0000 0.0000 0.0000 19.5342 0.0000
# 6 0.0000 0.0000 0.0000 0.0000 0.0000 51.3547
#
#
#
# Elastic Compliance Matrix: (Units=1/GPa)
#
#
# Indices 1 2 3 4 5 6 
#
# 1 0.018726 -0.005902 -0.005361 0.000000 0.000000 0.000000
# 2 -0.005902 0.012669 -0.001323 0.000000 0.000000 0.000000
# 3 -0.005361 -0.001323 0.010230 0.000000 0.000000 0.000000
# 4 0.000000 0.000000 0.000000 0.032726 0.000000 0.000000
# 5 0.000000 0.000000 0.000000 0.000000 0.051192 0.000000
# 6 0.000000 0.000000 0.000000 0.000000 0.000000 0.019472
#
#
# Mechanical properties :
#
#
# Convention : Reuss Voigt Hill
#
# Bulk Modulus (GPa) = 60.78040 62.35620 61.56830
# Shear Modulus (GPa) = 28.46203 32.59393 30.52798
#
# Velocity S-wave (km/s) = 3.87088 4.14233 4.00890
# Velocity P-wave (km/s) = 7.20942 7.46362 7.33762
#
# Compressibility (1/GPa) = 0.01645267
#
# Stress axis : x y z
#
# Youngs Moduli (GPa) = 53.40284 78.93120 97.74939
#
# Poissons Ratio (x) = 0.46586 0.52407
# Poissons Ratio (y) = 0.31519 0.12930
# Poissons Ratio (z) = 0.28631 0.10441
#
# Static dielectric constant tensor:
#      x y z
#    x 3.214550 0.000000 0.000000 
#    y 0.000000 3.903400 0.000000 
#    z 0.000000 0.000000 3.720560 
# 
# 
# High freq. dielectric constant tensor:
#      x y z
#    x 1.703620 0.000000 0.000000 
#    y 0.000000 1.753530 0.000000 
#    z 0.000000 0.000000 1.755430 
# 
# From -- ./inp_files/33502.got.cif
#   From: 2010.03.12/outbox.cif.g09.slc.cpg/sg69_17_cif.got.tgz:33502.got - 2010.04.10 23:52:46.
