data_PCOD8284746
_publ_section_title
;
Structure prediction by ZEFSAII (Michael W. Deem and Ramdas Pophale) SiO2 
 PCOD8284746
Probable space group: F M M M
;
_chemical_formula_sum "Si O2"
_cell_formula_units_Z 144
_cell_length_a 25.058985
_cell_length_b 33.728787
_cell_length_c 9.257435
_cell_angle_alpha 90.000000
_cell_angle_beta 90.000000
_cell_angle_gamma 90.000000
_cell_volume 7824.468930
_symmetry_space_group_name_H-M "F M M M"
_symmetry_group_IT_number 69
_symmetry_cell_setting 'orthorhombic'
loop_
_space_group_symop_operation_xyz
x,y,z
-x,-y,z
x,-y,-z
-x,y,-z
-x,-y,-z
x,y,-z
-x,y,z
x,-y,z
x,1/2+y,1/2+z
-x,1/2-y,1/2+z
x,1/2-y,1/2-z
-x,1/2+y,1/2-z
-x,1/2-y,1/2-z
x,1/2+y,1/2-z
-x,1/2+y,1/2+z
x,1/2-y,1/2+z
1/2+x,y,1/2+z
1/2-x,-y,1/2+z
1/2+x,-y,1/2-z
1/2-x,y,1/2-z
1/2-x,-y,1/2-z
1/2+x,y,1/2-z
1/2-x,y,1/2+z
1/2+x,-y,1/2+z
1/2+x,1/2+y,z
1/2-x,1/2-y,z
1/2+x,1/2-y,-z
1/2-x,1/2+y,-z
1/2-x,1/2-y,-z
1/2+x,1/2+y,-z
1/2-x,1/2+y,z
1/2+x,1/2-y,z
loop_
_atom_site_type_symbol
_atom_site_label
_atom_site_fract_x
_atom_site_fract_y
_atom_site_fract_z
Si Si1 0.500000 0.208647 0.329572
Si Si2 0.841707 0.542893 0.833311
Si Si3 0.059207 0.435980 0.335515
Si Si4 0.802911 0.127234 0.327899
Si Si5 0.095355 0.847985 0.834061
O O1 0.500000 0.215133 0.500000
O O2 0.500000 0.250000 0.250000
O O3 0.446227 0.185538 0.283284
O O4 0.812722 0.500000 0.805541
O O5 0.898972 0.540165 0.758996
O O6 0.808347 0.580850 0.777948
O O7 0.853116 0.549693 0.000000
O O8 0.069431 0.448275 0.500000
O O9 0.064721 0.389072 0.315846
O O10 0.000000 0.448386 0.286317
O O11 0.798249 0.132224 0.500000
O O12 0.750000 0.143622 0.250000
O O13 0.852749 0.152785 0.269353
O O14 0.113652 0.841629 0.000000
#
# Coordination Sequence:
#
# PCOD8284746 Si02
#       5
#    16  32  32  32  32
#     4  10  20  34  56  86 117 144 167 197 246 301
#     4   9  19  33  45  63  95 131 168 213 264 312
#     4   9  16  28  47  68  92 127 171 212 250 297
#     4  10  20  34  53  76  99 132 177 221 262 306
#     4   9  17  33  54  76 105 139 171 207 249 298
#
# _framework density 18.403804000000001
#
# number of rings (size 3 to 8) (size 9 to 14) (size 15 to 20)
#    0.000    2.667    1.111    0.667    0.000    3.556 
#    0.000    2.222    0.000    0.667    0.000    4.667 
#    0.000    0.000    0.000    0.000    0.000    0.000 
#
# Total GULP energy -446208.847559 kJ/mol
# GULP energy per Si atom -12394.690210 kJ/mol
# Density = 1.836192 g / cm^3
# Si number density = 18.403804 Si / 1000 Ang^3
#
#
#
# Elastic Constant Matrix: (Units=GPa)
#
#
# Indices 1 2 3 4 5 6 
#
# 1 119.9803 36.0156 49.7762 0.0007 -0.0040 0.0003
# 2 36.0156 81.0573 28.9230 -0.0020 -0.0004 0.0014
# 3 49.7762 28.9230 55.5392 -0.0027 -0.0119 0.0004
# 4 0.0007 -0.0020 -0.0027 23.7233 -0.0001 0.0004
# 5 -0.0040 -0.0004 -0.0119 -0.0001 31.9467 -0.0005
# 6 0.0003 0.0014 0.0004 0.0004 -0.0005 11.7426
#
#
#
# Elastic Compliance Matrix: (Units=1/GPa)
#
#
# Indices 1 2 3 4 5 6 
#
# 1 0.013546 -0.002072 -0.011061 -0.000002 -0.000002 0.000000
# 2 -0.002072 0.015469 -0.006199 0.000001 -0.000002 -0.000002
# 3 -0.011061 -0.006199 0.031147 0.000003 0.000010 0.000000
# 4 -0.000002 0.000001 0.000003 0.042153 0.000000 -0.000002
# 5 -0.000002 -0.000002 0.000010 0.000000 0.031302 0.000001
# 6 0.000000 -0.000002 0.000000 -0.000002 0.000001 0.085160
#
#
# Mechanical properties :
#
#
# Convention : Reuss Voigt Hill
#
# Bulk Modulus (GPa) = 46.51622 54.00073 50.25848
# Shear Modulus (GPa) = 18.89595 22.93999 20.91797
#
# Velocity S-wave (km/s) = 3.20776 3.53438 3.37502
# Velocity P-wave (km/s) = 6.24898 6.78688 6.52348
#
# Compressibility (1/GPa) = 0.02149788
#
# Stress axis : x y z
#
# Youngs Moduli (GPa) = 73.82521 64.64335 32.10585
#
# Poissons Ratio (x) = 0.13392 0.35513
# Poissons Ratio (y) = 0.15295 0.19903
# Poissons Ratio (z) = 0.81659 0.40074
#
# Static dielectric constant tensor:
#      x y z
#    x 3.348630 0.000000 0.000010 
#    y 0.000000 3.247670 -0.000010 
#    z 0.000010 -0.000010 3.321450 
# 
# 
# High freq. dielectric constant tensor:
#      x y z
#    x 1.710630 0.000000 0.000000 
#    y 0.000000 1.687480 0.000000 
#    z 0.000000 0.000000 1.708940 
# 
# From -- ./inp_files/5573.got.cif
#   From: 2010.03.12/outbox.cif.g09.slc.cpg/sg69_3_cif.got.tgz:5573.got - 2010.04.10 23:52:46.
