data_PCOD8284264
_publ_section_title
;
Structure prediction by ZEFSAII (Michael W. Deem and Ramdas Pophale) SiO2 
 PCOD8284264
Probable space group: F M M M
;
_chemical_formula_sum "Si O2"
_cell_formula_units_Z 160
_cell_length_a 8.831184
_cell_length_b 30.735111
_cell_length_c 30.215706
_cell_angle_alpha 90.000000
_cell_angle_beta 90.000000
_cell_angle_gamma 90.000000
_cell_volume 8201.371138
_symmetry_space_group_name_H-M "F M M M"
_symmetry_group_IT_number 69
_symmetry_cell_setting 'orthorhombic'
loop_
_space_group_symop_operation_xyz
x,y,z
-x,-y,z
x,-y,-z
-x,y,-z
-x,-y,-z
x,y,-z
-x,y,z
x,-y,z
x,1/2+y,1/2+z
-x,1/2-y,1/2+z
x,1/2-y,1/2-z
-x,1/2+y,1/2-z
-x,1/2-y,1/2-z
x,1/2+y,1/2-z
-x,1/2+y,1/2+z
x,1/2-y,1/2+z
1/2+x,y,1/2+z
1/2-x,-y,1/2+z
1/2+x,-y,1/2-z
1/2-x,y,1/2-z
1/2-x,-y,1/2-z
1/2+x,y,1/2-z
1/2-x,y,1/2+z
1/2+x,-y,1/2+z
1/2+x,1/2+y,z
1/2-x,1/2-y,z
1/2+x,1/2-y,-z
1/2-x,1/2+y,-z
1/2-x,1/2-y,-z
1/2+x,1/2+y,-z
1/2-x,1/2+y,z
1/2+x,1/2-y,z
loop_
_atom_site_type_symbol
_atom_site_label
_atom_site_fract_x
_atom_site_fract_y
_atom_site_fract_z
Si Si1 0.827413 0.338469 0.088563
Si Si2 0.181180 0.000000 0.051813
Si Si3 0.325749 0.795751 0.178436
Si Si4 0.824382 0.576691 0.385818
Si Si5 0.823941 0.704710 0.000000
Si Si6 0.180553 0.113640 0.205058
O O1 0.813343 0.301027 0.125500
O O2 0.708513 0.376540 0.094673
O O3 0.769140 0.320309 0.042764
O O4 0.000000 0.356375 0.087149
O O5 0.246627 0.040626 0.080915
O O6 0.000000 0.000000 0.049738
O O7 0.240744 0.000000 0.000000
O O8 0.500000 0.795345 0.194222
O O9 0.250000 0.750000 0.192778
O O10 0.243057 0.837182 0.200021
O O11 0.765766 0.580600 0.334554
O O12 0.000000 0.566644 0.384384
O O13 0.750000 0.750000 0.000000
O O14 0.000000 0.711788 0.000000
O O15 0.250000 0.093761 0.250000
O O16 0.000000 0.116152 0.207176
#
# Coordination Sequence:
#
# PCOD8284264 Si02
#       6
#    32  16  32  32  16  32
#     4   9  19  33  49  70 103 141 176 217 267 315
#     4   9  18  34  58  87 115 139 171 215 262 313
#     4  10  19  32  50  73 103 140 180 224 269 312
#     4   9  19  35  56  81 107 137 174 218 262 312
#     4  10  20  32  46  69 100 137 179 222 261 306
#     4  10  20  35  54  77 105 139 179 220 267 318
#
# _framework density 19.508932999999999
#
# number of rings (size 3 to 8) (size 9 to 14) (size 15 to 20)
#    0.000    2.500    0.000    1.800    1.400    2.800 
#    0.000    3.000    0.000    0.600    0.000    0.000 
#    0.000    0.000    0.000    0.000    0.000    0.000 
#
# Total GULP energy -495546.247693 kJ/mol
# GULP energy per Si atom -12388.656192 kJ/mol
# Density = 1.946453 g / cm^3
# Si number density = 19.508933 Si / 1000 Ang^3
#
#
#
# Elastic Constant Matrix: (Units=GPa)
#
#
# Indices 1 2 3 4 5 6 
#
# 1 39.0301 20.2255 32.6670 0.0000 0.0000 0.0000
# 2 20.2255 83.1223 53.1482 0.0000 0.0000 0.0000
# 3 32.6670 53.1482 170.0902 0.0000 0.0000 0.0000
# 4 0.0000 0.0000 0.0000 27.4213 0.0000 0.0000
# 5 0.0000 0.0000 0.0000 0.0000 24.9021 0.0000
# 6 0.0000 0.0000 0.0000 0.0000 0.0000 17.8118
#
#
#
# Elastic Compliance Matrix: (Units=1/GPa)
#
#
# Indices 1 2 3 4 5 6 
#
# 1 0.032003 -0.004820 -0.004640 0.000000 0.000000 0.000000
# 2 -0.004820 0.015760 -0.003999 0.000000 0.000000 0.000000
# 3 -0.004640 -0.003999 0.008020 0.000000 0.000000 0.000000
# 4 0.000000 0.000000 0.000000 0.036468 0.000000 0.000000
# 5 0.000000 0.000000 0.000000 0.000000 0.040157 0.000000
# 6 0.000000 0.000000 0.000000 0.000000 0.000000 0.056142
#
#
# Mechanical properties :
#
#
# Convention : Reuss Voigt Hill
#
# Bulk Modulus (GPa) = 34.64455 56.03599 45.34027
# Shear Modulus (GPa) = 22.21331 26.44051 24.32691
#
# Velocity S-wave (km/s) = 3.37801 3.68544 3.53507
# Velocity P-wave (km/s) = 5.74556 6.84803 6.32088
#
# Compressibility (1/GPa) = 0.02886457
#
# Stress axis : x y z
#
# Youngs Moduli (GPa) = 31.24737 63.45121 124.68912
#
# Poissons Ratio (x) = 0.30584 0.57858
# Poissons Ratio (y) = 0.15061 0.49861
# Poissons Ratio (z) = 0.14499 0.25373
#
# Static dielectric constant tensor:
#      x y z
#    x 3.334420 0.000000 0.000000 
#    y 0.000000 3.421630 0.000000 
#    z 0.000000 0.000000 4.307000 
# 
# 
# High freq. dielectric constant tensor:
#      x y z
#    x 1.743070 0.000000 0.000000 
#    y 0.000000 1.738240 0.000000 
#    z 0.000000 0.000000 1.780150 
# 
# From -- ./inp_files/44601.got.cif
#   From: 2010.03.12/outbox.cif.g09.slc.cpg/sg69_23_cif.got.tgz:44601.got - 2010.04.10 23:52:46.
