data_PCOD8284121
_publ_section_title
;
Structure prediction by ZEFSAII (Michael W. Deem and Ramdas Pophale) SiO2 
 PCOD8284121
Probable space group: F M M M
;
_chemical_formula_sum "Si O2"
_cell_formula_units_Z 160
_cell_length_a 14.461338
_cell_length_b 23.272356
_cell_length_c 30.094821
_cell_angle_alpha 90.000000
_cell_angle_beta 90.000000
_cell_angle_gamma 90.000000
_cell_volume 10128.394136
_symmetry_space_group_name_H-M "F M M M"
_symmetry_group_IT_number 69
_symmetry_cell_setting 'orthorhombic'
loop_
_space_group_symop_operation_xyz
x,y,z
-x,-y,z
x,-y,-z
-x,y,-z
-x,-y,-z
x,y,-z
-x,y,z
x,-y,z
x,1/2+y,1/2+z
-x,1/2-y,1/2+z
x,1/2-y,1/2-z
-x,1/2+y,1/2-z
-x,1/2-y,1/2-z
x,1/2+y,1/2-z
-x,1/2+y,1/2+z
x,1/2-y,1/2+z
1/2+x,y,1/2+z
1/2-x,-y,1/2+z
1/2+x,-y,1/2-z
1/2-x,y,1/2-z
1/2-x,-y,1/2-z
1/2+x,y,1/2-z
1/2-x,y,1/2+z
1/2+x,-y,1/2+z
1/2+x,1/2+y,z
1/2-x,1/2-y,z
1/2+x,1/2-y,-z
1/2-x,1/2+y,-z
1/2-x,1/2-y,-z
1/2+x,1/2+y,-z
1/2-x,1/2+y,z
1/2+x,1/2-y,z
loop_
_atom_site_type_symbol
_atom_site_label
_atom_site_fract_x
_atom_site_fract_y
_atom_site_fract_z
Si Si1 0.805122 0.568261 0.207799
Si Si2 0.000000 0.568405 0.761508
Si Si3 0.194007 0.067970 0.877265
Si Si4 0.262916 0.841819 0.447618
Si Si5 0.000000 0.432184 0.338259
Si Si6 0.603229 0.258596 0.447474
O O1 0.798480 0.500000 0.208971
O O2 0.750000 0.593550 0.250000
O O3 0.760682 0.590285 0.162116
O O4 0.910594 0.590037 0.211392
O O5 0.000000 0.594220 0.711511
O O6 0.000000 0.500000 0.758299
O O7 0.225465 0.097983 0.922612
O O8 0.090173 0.087460 0.865220
O O9 0.201598 0.000000 0.884738
O O10 0.267906 0.854066 0.500000
O O11 0.344903 0.799227 0.431843
O O12 0.164141 0.814062 0.434092
O O13 0.000000 0.500000 0.332797
O O14 0.596006 0.256456 0.500000
O O15 0.500000 0.262391 0.426349
#
# Coordination Sequence:
#
# PCOD8284121 Si02
#       6
#    32  16  32  32  16  32
#     4   9  15  25  41  60  86 119 155 191 222 257
#     4   9  14  24  42  59  80 117 158 195 228 253
#     4  10  19  29  42  67 100 129 151 177 220 278
#     4   9  18  31  48  70  93 121 154 186 226 270
#     4   9  16  26  41  62  92 125 153 182 223 270
#     4   8  15  31  53  70  83 106 151 208 245 259
#
# _framework density 15.797174
#
# number of rings (size 3 to 8) (size 9 to 14) (size 15 to 20)
#    0.000    3.000    2.000    1.200    1.400    0.400 
#    1.800    0.000    0.000    1.800    0.000    5.600 
#    0.000    8.000    0.000    0.000    0.000    0.000 
#
# Total GULP energy -495753.563258 kJ/mol
# GULP energy per Si atom -12393.839081 kJ/mol
# Density = 1.576122 g / cm^3
# Si number density = 15.797174 Si / 1000 Ang^3
#
#
#
# Elastic Constant Matrix: (Units=GPa)
#
#
# Indices 1 2 3 4 5 6 
#
# 1 148.1794 34.7458 47.4210 0.0000 0.0000 0.0000
# 2 34.7458 46.9854 38.8625 0.0000 0.0000 0.0000
# 3 47.4210 38.8625 81.5653 0.0000 0.0000 0.0000
# 4 0.0000 0.0000 0.0000 4.7685 0.0000 0.0000
# 5 0.0000 0.0000 0.0000 0.0000 20.7896 0.0000
# 6 0.0000 0.0000 0.0000 0.0000 0.0000 11.3972
#
#
#
# Elastic Compliance Matrix: (Units=1/GPa)
#
#
# Indices 1 2 3 4 5 6 
#
# 1 0.008664 -0.003698 -0.003275 0.000000 0.000000 0.000000
# 2 -0.003698 0.036704 -0.015338 0.000000 0.000000 0.000000
# 3 -0.003275 -0.015338 0.021472 0.000000 0.000000 0.000000
# 4 0.000000 0.000000 0.000000 0.209710 0.000000 0.000000
# 5 0.000000 0.000000 0.000000 0.000000 0.048101 0.000000
# 6 0.000000 0.000000 0.000000 0.000000 0.000000 0.087741
#
#
# Mechanical properties :
#
#
# Convention : Reuss Voigt Hill
#
# Bulk Modulus (GPa) = 45.00874 57.64319 51.32597
# Shear Modulus (GPa) = 10.76610 17.77110 14.26860
#
# Velocity S-wave (km/s) = 2.61343 3.35767 3.00865
# Velocity P-wave (km/s) = 6.13679 7.18337 6.68060
#
# Compressibility (1/GPa) = 0.02221791
#
# Stress axis : x y z
#
# Youngs Moduli (GPa) = 115.42269 27.24464 46.57186
#
# Poissons Ratio (x) = 0.10075 0.15253
# Poissons Ratio (y) = 0.42684 0.71433
# Poissons Ratio (z) = 0.37801 0.41788
#
# Static dielectric constant tensor:
#      x y z
#    x 3.554700 0.000000 0.000000 
#    y 0.000000 2.502300 0.000000 
#    z 0.000000 0.000000 2.801650 
# 
# 
# High freq. dielectric constant tensor:
#      x y z
#    x 1.625220 0.000000 0.000000 
#    y 0.000000 1.551580 0.000000 
#    z 0.000000 0.000000 1.588150 
# 
# From -- ./inp_files/41067.got.cif
#   From: 2010.03.12/outbox.cif.g09.slc.cpg/sg69_21_cif.got.tgz:41067.got - 2010.04.10 23:52:46.
