data_PCOD8284636
_publ_section_title
;
Structure prediction by ZEFSAII (Michael W. Deem and Ramdas Pophale) SiO2 
 PCOD8284636
Probable space group: F M M M
;
_chemical_formula_sum "Si O2"
_cell_formula_units_Z 176
_cell_length_a 9.688922
_cell_length_b 28.638741
_cell_length_c 36.158078
_cell_angle_alpha 90.000000
_cell_angle_beta 90.000000
_cell_angle_gamma 90.000000
_cell_volume 10033.090249
_symmetry_space_group_name_H-M "F M M M"
_symmetry_group_IT_number 69
_symmetry_cell_setting 'orthorhombic'
loop_
_space_group_symop_operation_xyz
x,y,z
-x,-y,z
x,-y,-z
-x,y,-z
-x,-y,-z
x,y,-z
-x,y,z
x,-y,z
x,1/2+y,1/2+z
-x,1/2-y,1/2+z
x,1/2-y,1/2-z
-x,1/2+y,1/2-z
-x,1/2-y,1/2-z
x,1/2+y,1/2-z
-x,1/2+y,1/2+z
x,1/2-y,1/2+z
1/2+x,y,1/2+z
1/2-x,-y,1/2+z
1/2+x,-y,1/2-z
1/2-x,y,1/2-z
1/2-x,-y,1/2-z
1/2+x,y,1/2-z
1/2-x,y,1/2+z
1/2+x,-y,1/2+z
1/2+x,1/2+y,z
1/2-x,1/2-y,z
1/2+x,1/2-y,-z
1/2-x,1/2+y,-z
1/2-x,1/2-y,-z
1/2+x,1/2+y,-z
1/2-x,1/2+y,z
1/2+x,1/2-y,z
loop_
_atom_site_type_symbol
_atom_site_label
_atom_site_fract_x
_atom_site_fract_y
_atom_site_fract_z
Si Si1 0.838492 0.890690 0.285296
Si Si2 0.342780 0.292226 0.680537
Si Si3 0.336030 0.894287 0.072362
Si Si4 0.835748 0.947413 0.356249
Si Si5 0.164664 0.446754 0.000000
Si Si6 0.659734 0.206545 0.905358
O O1 0.750000 0.905538 0.250000
O O2 0.807277 0.837239 0.295352
O O3 0.785791 0.922836 0.318804
O O4 0.000000 0.898583 0.277130
O O5 0.500000 0.276724 0.685856
O O6 0.250000 0.250000 0.695301
O O7 0.312655 0.303653 0.637754
O O8 0.500000 0.897973 0.073555
O O9 0.274296 0.920213 0.108339
O O10 0.293172 0.839746 0.072455
O O11 0.277445 0.919691 0.035897
O O12 0.000000 0.946346 0.358010
O O13 0.778688 0.000000 0.356903
O O14 0.219366 0.500000 0.000000
O O15 0.000000 0.446490 0.000000
O O16 0.500000 0.218405 0.912694
O O17 0.750000 0.250000 0.919713
#
# Coordination Sequence:
#
# PCOD8284636 Si02
#       6
#    32  32  32  32  16  32
#     4  10  20  33  47  67  94 122 155 196 237 279
#     4   9  17  30  47  66  90 120 156 193 231 277
#     4   9  15  26  44  67  97 128 156 191 235 280
#     4   9  16  28  47  66  86 120 161 193 229 283
#     4   9  16  24  39  70 105 129 153 193 242 281
#     4   9  16  28  47  69  94 125 159 192 228 274
#
# _framework density 17.541954
#
# number of rings (size 3 to 8) (size 9 to 14) (size 15 to 20)
#    0.000    2.818    1.818    0.545    0.000    3.636 
#    0.000    2.273    0.000    0.000    0.000    0.000 
#    0.000    2.909    0.000    0.000    0.000    0.182 
#
# Total GULP energy -545544.281856 kJ/mol
# GULP energy per Si atom -12398.733679 kJ/mol
# Density = 1.750203 g / cm^3
# Si number density = 17.541954 Si / 1000 Ang^3
#
#
#
# Elastic Constant Matrix: (Units=GPa)
#
#
# Indices 1 2 3 4 5 6 
#
# 1 30.8449 40.3926 31.5445 0.0000 0.0000 0.0000
# 2 40.3926 142.7507 82.0791 0.0000 0.0000 0.0000
# 3 31.5445 82.0791 131.9472 0.0000 0.0000 0.0000
# 4 0.0000 0.0000 0.0000 25.7724 0.0000 0.0000
# 5 0.0000 0.0000 0.0000 0.0000 13.9896 0.0000
# 6 0.0000 0.0000 0.0000 0.0000 0.0000 17.6856
#
#
#
# Elastic Compliance Matrix: (Units=1/GPa)
#
#
# Indices 1 2 3 4 5 6 
#
# 1 0.053767 -0.012179 -0.005278 0.000000 0.000000 0.000000
# 2 -0.012179 0.013665 -0.005589 0.000000 0.000000 0.000000
# 3 -0.005278 -0.005589 0.012317 0.000000 0.000000 0.000000
# 4 0.000000 0.000000 0.000000 0.038801 0.000000 0.000000
# 5 0.000000 0.000000 0.000000 0.000000 0.071482 0.000000
# 6 0.000000 0.000000 0.000000 0.000000 0.000000 0.056543
#
#
# Mechanical properties :
#
#
# Convention : Reuss Voigt Hill
#
# Bulk Modulus (GPa) = 29.71109 68.17504 48.94307
# Shear Modulus (GPa) = 16.45354 21.59128 19.02241
#
# Velocity S-wave (km/s) = 3.06593 3.51213 3.29659
# Velocity P-wave (km/s) = 5.43205 7.44279 6.51545
#
# Compressibility (1/GPa) = 0.03365747
#
# Stress axis : x y z
#
# Youngs Moduli (GPa) = 18.59874 73.18054 81.18829
#
# Poissons Ratio (x) = 0.89128 0.42850
# Poissons Ratio (y) = 0.22652 0.45373
# Poissons Ratio (z) = 0.09816 0.40898
#
# Static dielectric constant tensor:
#      x y z
#    x 2.758830 0.000000 0.000000 
#    y 0.000000 3.442790 0.000000 
#    z 0.000000 0.000000 3.269470 
# 
# 
# High freq. dielectric constant tensor:
#      x y z
#    x 1.617210 0.000000 0.000000 
#    y 0.000000 1.691530 0.000000 
#    z 0.000000 0.000000 1.672970 
# 
# From -- ./inp_files/45231.got.cif
#   From: 2010.03.12/outbox.cif.g09.slc.cpg/sg69_23_cif.got.tgz:45231.got - 2010.04.10 23:52:46.
