data_PCOD8284575
_publ_section_title
;
Structure prediction by ZEFSAII (Michael W. Deem and Ramdas Pophale) SiO2 
 PCOD8284575
Probable space group: F M M M
;
_chemical_formula_sum "Si O2"
_cell_formula_units_Z 128
_cell_length_a 29.950917
_cell_length_b 9.244016
_cell_length_c 30.187453
_cell_angle_alpha 90.000000
_cell_angle_beta 90.000000
_cell_angle_gamma 90.000000
_cell_volume 8357.902183
_symmetry_space_group_name_H-M "F M M M"
_symmetry_group_IT_number 69
_symmetry_cell_setting 'orthorhombic'
loop_
_space_group_symop_operation_xyz
x,y,z
-x,-y,z
x,-y,-z
-x,y,-z
-x,-y,-z
x,y,-z
-x,y,z
x,-y,z
x,1/2+y,1/2+z
-x,1/2-y,1/2+z
x,1/2-y,1/2-z
-x,1/2+y,1/2-z
-x,1/2-y,1/2-z
x,1/2+y,1/2-z
-x,1/2+y,1/2+z
x,1/2-y,1/2+z
1/2+x,y,1/2+z
1/2-x,-y,1/2+z
1/2+x,-y,1/2-z
1/2-x,y,1/2-z
1/2-x,-y,1/2-z
1/2+x,y,1/2-z
1/2-x,y,1/2+z
1/2+x,-y,1/2+z
1/2+x,1/2+y,z
1/2-x,1/2-y,z
1/2+x,1/2-y,-z
1/2-x,1/2+y,-z
1/2-x,1/2-y,-z
1/2+x,1/2+y,-z
1/2-x,1/2+y,z
1/2+x,1/2-y,z
loop_
_atom_site_type_symbol
_atom_site_label
_atom_site_fract_x
_atom_site_fract_y
_atom_site_fract_z
Si Si1 0.052550 0.167439 0.620867
Si Si2 0.389858 0.331065 0.948397
Si Si3 0.946851 0.835981 0.207509
Si Si4 0.790646 0.340677 0.447434
O O1 0.075403 0.233124 0.577674
O O2 0.070080 0.253601 0.663792
O O3 0.000000 0.187360 0.614758
O O4 0.065474 0.000000 0.626418
O O5 0.396218 0.500000 0.936699
O O6 0.339665 0.278920 0.935514
O O7 0.399003 0.304934 0.000000
O O8 0.927956 0.750000 0.250000
O O9 0.000000 0.837511 0.208976
O O10 0.928247 0.000000 0.207652
O O11 0.785965 0.347065 0.500000
O O12 0.786027 0.500000 0.427206
O O13 0.750000 0.250000 0.426301
#
# Coordination Sequence:
#
# PCOD8284575 Si02
#       4
#    32  32  32  32
#     4  10  20  31  42  59  84 113 146 181 213 247
#     4   9  18  31  44  59  82 113 147 179 211 250
#     4   9  16  27  44  63  82 105 134 170 213 256
#     4   8  14  25  41  60  80 102 131 169 212 255
#
# _framework density 15.314848
#
# number of rings (size 3 to 8) (size 9 to 14) (size 15 to 20)
#    0.000    3.000    0.000    3.000    0.000    6.500 
#    0.000    5.000    0.000    0.000    0.000    0.000 
#    0.000    1.000    0.000   10.500    0.000    6.750 
#
# Total GULP energy -396651.156386 kJ/mol
# GULP energy per Si atom -12395.348637 kJ/mol
# Density = 1.527999 g / cm^3
# Si number density = 15.314848 Si / 1000 Ang^3
#
#
#
# Elastic Constant Matrix: (Units=GPa)
#
#
# Indices 1 2 3 4 5 6 
#
# 1 46.0289 43.8960 36.0343 0.0000 0.0000 0.0000
# 2 43.8960 118.0037 58.0807 0.0000 0.0000 -0.0003
# 3 36.0343 58.0807 74.3268 0.0000 0.0000 -0.0001
# 4 0.0000 0.0000 0.0000 28.0690 0.0000 0.0000
# 5 0.0000 0.0000 0.0000 0.0000 0.5612 0.0000
# 6 0.0000 -0.0003 -0.0001 0.0000 0.0000 25.4728
#
#
#
# Elastic Compliance Matrix: (Units=1/GPa)
#
#
# Indices 1 2 3 4 5 6 
#
# 1 0.039764 -0.008618 -0.012544 0.000000 -0.000002 0.000000
# 2 -0.008618 0.015638 -0.008042 0.000000 0.000000 0.000000
# 3 -0.012544 -0.008042 0.025820 0.000000 0.000001 0.000000
# 4 0.000000 0.000000 0.000000 0.035627 0.000000 0.000000
# 5 -0.000002 0.000000 0.000001 0.000000 1.781906 0.000001
# 6 0.000000 0.000000 0.000000 0.000000 0.000001 0.039257
#
#
# Mechanical properties :
#
#
# Convention : Reuss Voigt Hill
#
# Bulk Modulus (GPa) = 43.83165 57.15349 50.49257
# Shear Modulus (GPa) = 2.49498 17.51050 10.00274
#
# Velocity S-wave (km/s) = 1.27776 3.38504 2.55843
# Velocity P-wave (km/s) = 5.55512 7.25796 6.46287
#
# Compressibility (1/GPa) = 0.02281457
#
# Stress axis : x y z
#
# Youngs Moduli (GPa) = 25.14842 63.94554 38.72996
#
# Poissons Ratio (x) = 0.55106 0.48582
# Poissons Ratio (y) = 0.21672 0.31147
# Poissons Ratio (z) = 0.31546 0.51426
#
# Static dielectric constant tensor:
#      x y z
#    x 2.786350 0.000000 0.000000 
#    y 0.000000 3.171760 0.000000 
#    z 0.000000 0.000000 2.748130 
# 
# 
# High freq. dielectric constant tensor:
#      x y z
#    x 1.555670 0.000000 0.000000 
#    y 0.000000 1.598510 0.000000 
#    z 0.000000 0.000000 1.560270 
# 
# From -- ./inp_files/43003.got.cif
#   From: 2010.03.12/outbox.cif.g09.slc.cpg/sg69_22_cif.got.tgz:43003.got - 2010.04.10 23:52:46.
