data_PCOD8284640
_publ_section_title
;
Structure prediction by ZEFSAII (Michael W. Deem and Ramdas Pophale) SiO2 
 PCOD8284640
Probable space group: F M M M
;
_chemical_formula_sum "Si O2"
_cell_formula_units_Z 144
_cell_length_a 33.583511
_cell_length_b 8.919680
_cell_length_c 25.219471
_cell_angle_alpha 90.000000
_cell_angle_beta 90.000000
_cell_angle_gamma 90.000000
_cell_volume 7554.597738
_symmetry_space_group_name_H-M "F M M M"
_symmetry_group_IT_number 69
_symmetry_cell_setting 'orthorhombic'
loop_
_space_group_symop_operation_xyz
x,y,z
-x,-y,z
x,-y,-z
-x,y,-z
-x,-y,-z
x,y,-z
-x,y,z
x,-y,z
x,1/2+y,1/2+z
-x,1/2-y,1/2+z
x,1/2-y,1/2-z
-x,1/2+y,1/2-z
-x,1/2-y,1/2-z
x,1/2+y,1/2-z
-x,1/2+y,1/2+z
x,1/2-y,1/2+z
1/2+x,y,1/2+z
1/2-x,-y,1/2+z
1/2+x,-y,1/2-z
1/2-x,y,1/2-z
1/2-x,-y,1/2-z
1/2+x,y,1/2-z
1/2-x,y,1/2+z
1/2+x,-y,1/2+z
1/2+x,1/2+y,z
1/2-x,1/2-y,z
1/2+x,1/2-y,-z
1/2-x,1/2+y,-z
1/2-x,1/2-y,-z
1/2+x,1/2+y,-z
1/2-x,1/2+y,z
1/2+x,1/2-y,z
loop_
_atom_site_type_symbol
_atom_site_label
_atom_site_fract_x
_atom_site_fract_y
_atom_site_fract_z
Si Si1 0.045742 0.176235 0.500000
Si Si2 0.821617 0.668704 0.057550
Si Si3 0.628117 0.823329 0.302131
Si Si4 0.710067 0.826188 0.167903
Si Si5 0.599673 0.174372 0.415641
O O1 0.065010 0.238312 0.554040
O O2 0.000000 0.225266 0.500000
O O3 0.051342 0.000000 0.500000
O O4 0.839067 0.500000 0.063828
O O5 0.790143 0.698487 0.104167
O O6 0.857858 0.784372 0.059807
O O7 0.800568 0.687885 0.000000
O O8 0.607784 0.750000 0.250000
O O9 0.671919 0.753052 0.307143
O O10 0.600501 0.784510 0.352899
O O11 0.632716 0.000000 0.295182
O O12 0.750000 0.750000 0.190486
O O13 0.709762 0.000000 0.183880
O O14 0.592124 0.000000 0.424590
#
# Coordination Sequence:
#
# PCOD8284640 Si02
#       5
#    16  32  32  32  32
#     4  11  23  37  57  87 120 151 178 207 253 313
#     4   9  17  30  49  71  99 139 181 219 266 324
#     4  10  21  37  57  81 106 138 183 228 273 323
#     4  10  20  33  48  70 102 139 181 230 280 326
#     4  10  20  34  55  83 112 141 177 222 265 311
#
# _framework density 19.061240999999999
#
# number of rings (size 3 to 8) (size 9 to 14) (size 15 to 20)
#    0.000    2.111    1.111    2.333    0.000    5.333 
#    0.000    2.222    0.000    0.667    0.000    0.000 
#    0.000    0.000    0.000    0.000    0.000    0.000 
#
# Total GULP energy -446299.224667 kJ/mol
# GULP energy per Si atom -12397.200685 kJ/mol
# Density = 1.901786 g / cm^3
# Si number density = 19.061241 Si / 1000 Ang^3
#
#
#
# Elastic Constant Matrix: (Units=GPa)
#
#
# Indices 1 2 3 4 5 6 
#
# 1 82.6378 47.1084 30.7904 0.0000 0.0000 0.0000
# 2 47.1084 100.9408 52.8217 0.0000 0.0000 -0.0001
# 3 30.7904 52.8217 131.7136 0.0000 0.0000 0.0000
# 4 0.0000 0.0000 0.0000 31.3273 0.0000 0.0000
# 5 0.0000 0.0000 0.0000 0.0000 15.0766 0.0000
# 6 0.0000 -0.0001 0.0000 0.0000 0.0000 23.0196
#
#
#
# Elastic Compliance Matrix: (Units=1/GPa)
#
#
# Indices 1 2 3 4 5 6 
#
# 1 0.016586 -0.007229 -0.000978 0.000000 0.000000 0.000000
# 2 -0.007229 0.015689 -0.004602 0.000000 0.000000 0.000000
# 3 -0.000978 -0.004602 0.009666 0.000000 0.000000 0.000000
# 4 0.000000 0.000000 0.000000 0.031921 0.000000 0.000000
# 5 0.000000 0.000000 0.000000 0.000000 0.066328 0.000000
# 6 0.000000 0.000000 0.000000 0.000000 0.000000 0.043441
#
#
# Mechanical properties :
#
#
# Convention : Reuss Voigt Hill
#
# Bulk Modulus (GPa) = 61.26160 64.08148 62.67154
# Shear Modulus (GPa) = 23.28932 26.18947 24.73940
#
# Velocity S-wave (km/s) = 3.49924 3.71072 3.60653
# Velocity P-wave (km/s) = 6.96673 7.21464 7.09177
#
# Compressibility (1/GPa) = 0.01632344
#
# Stress axis : x y z
#
# Youngs Moduli (GPa) = 60.29048 63.74094 103.45099
#
# Poissons Ratio (x) = 0.46077 0.10121
# Poissons Ratio (y) = 0.43583 0.47606
# Poissons Ratio (z) = 0.05899 0.29332
#
# Static dielectric constant tensor:
#      x y z
#    x 3.029740 0.000000 0.000000 
#    y 0.000000 3.573980 0.000000 
#    z 0.000000 0.000000 3.893670 
# 
# 
# High freq. dielectric constant tensor:
#      x y z
#    x 1.687090 0.000000 0.000000 
#    y 0.000000 1.754970 0.000000 
#    z 0.000000 0.000000 1.761460 
# 
# From -- ./inp_files/47389.got.cif
#   From: 2010.03.12/outbox.cif.g09.slc.cpg/sg69_24_cif.got.tgz:47389.got - 2010.04.10 23:52:46.
