data_PCOD8284202
_publ_section_title
;
Structure prediction by ZEFSAII (Michael W. Deem and Ramdas Pophale) SiO2 
 PCOD8284202
Probable space group: F M M M
;
_chemical_formula_sum "Si O2"
_cell_formula_units_Z 176
_cell_length_a 10.362830
_cell_length_b 27.618074
_cell_length_c 35.990856
_cell_angle_alpha 90.000000
_cell_angle_beta 90.000000
_cell_angle_gamma 90.000000
_cell_volume 10300.633583
_symmetry_space_group_name_H-M "F M M M"
_symmetry_group_IT_number 69
_symmetry_cell_setting 'orthorhombic'
loop_
_space_group_symop_operation_xyz
x,y,z
-x,-y,z
x,-y,-z
-x,y,-z
-x,-y,-z
x,y,-z
-x,y,z
x,-y,z
x,1/2+y,1/2+z
-x,1/2-y,1/2+z
x,1/2-y,1/2-z
-x,1/2+y,1/2-z
-x,1/2-y,1/2-z
x,1/2+y,1/2-z
-x,1/2+y,1/2+z
x,1/2-y,1/2+z
1/2+x,y,1/2+z
1/2-x,-y,1/2+z
1/2+x,-y,1/2-z
1/2-x,y,1/2-z
1/2-x,-y,1/2-z
1/2+x,y,1/2-z
1/2-x,y,1/2+z
1/2+x,-y,1/2+z
1/2+x,1/2+y,z
1/2-x,1/2-y,z
1/2+x,1/2-y,-z
1/2-x,1/2+y,-z
1/2-x,1/2-y,-z
1/2+x,1/2+y,-z
1/2-x,1/2+y,z
1/2+x,1/2-y,z
loop_
_atom_site_type_symbol
_atom_site_label
_atom_site_fract_x
_atom_site_fract_y
_atom_site_fract_z
Si Si1 0.850020 0.890389 0.280659
Si Si2 0.362235 0.277588 0.710662
Si Si3 0.348382 0.893159 0.072194
Si Si4 0.847222 0.945343 0.355165
Si Si5 0.153906 0.554783 0.000000
Si Si6 0.647056 0.209432 0.956944
O O1 0.750000 0.910301 0.250000
O O2 0.827107 0.833380 0.284909
O O3 0.807626 0.917272 0.318057
O O4 0.000000 0.901308 0.270005
O O5 0.500000 0.272804 0.689834
O O6 0.371352 0.250000 0.750000
O O7 0.250000 0.250000 0.687196
O O8 0.500000 0.902586 0.072203
O O9 0.288444 0.915647 0.109877
O O10 0.319609 0.836094 0.069207
O O11 0.287277 0.920081 0.036636
O O12 0.000000 0.947338 0.358483
O O13 0.790941 0.000000 0.354641
O O14 0.201067 0.500000 0.000000
O O15 0.000000 0.559359 0.000000
O O16 0.500000 0.227565 0.949809
O O17 0.750000 0.250000 0.945877
O O18 0.662018 0.193922 0.000000
#
# Coordination Sequence:
#
# PCOD8284202 Si02
#       6
#    32  32  32  32  16  32
#     4  10  19  31  49  71  93 121 159 197 234 285
#     4   9  15  25  43  66  89 114 145 182 228 273
#     4   9  15  26  43  66  96 127 157 193 236 281
#     4   9  18  31  46  66  94 125 155 194 245 291
#     4   9  14  20  37  66  95 123 155 191 234 281
#     4   9  16  27  45  69  98 130 162 194 229 274
#
# _framework density 17.086328000000002
#
# number of rings (size 3 to 8) (size 9 to 14) (size 15 to 20)
#    0.000    2.818    2.727    0.545    0.000    2.545 
#    0.000    0.909    0.000    1.091    0.000    0.000 
#    0.000    2.909    0.000    0.000    0.000    0.000 
#
# Total GULP energy -545177.427563 kJ/mol
# GULP energy per Si atom -12390.396081 kJ/mol
# Density = 1.704744 g / cm^3
# Si number density = 17.086328 Si / 1000 Ang^3
#
#
#
# Elastic Constant Matrix: (Units=GPa)
#
#
# Indices 1 2 3 4 5 6 
#
# 1 69.1148 38.4726 38.1151 0.0000 0.0000 0.0000
# 2 38.4726 127.7340 74.4909 0.0000 0.0000 0.0000
# 3 38.1151 74.4909 120.3528 0.0000 0.0000 0.0000
# 4 0.0000 0.0000 0.0000 28.7944 0.0000 0.0000
# 5 0.0000 0.0000 0.0000 0.0000 11.1683 0.0000
# 6 0.0000 0.0000 0.0000 0.0000 0.0000 0.6428
#
#
#
# Elastic Compliance Matrix: (Units=1/GPa)
#
#
# Indices 1 2 3 4 5 6 
#
# 1 0.018406 -0.003356 -0.003752 0.000000 0.000000 0.000000
# 2 -0.003356 0.012862 -0.006898 0.000000 0.000000 0.000000
# 3 -0.003752 -0.006898 0.013767 0.000000 0.000000 0.000000
# 4 0.000000 0.000000 0.000000 0.034729 0.000000 0.000000
# 5 0.000000 0.000000 0.000000 0.000000 0.089540 0.000000
# 6 0.000000 0.000000 0.000000 0.000000 0.000000 1.555791
#
#
# Mechanical properties :
#
#
# Convention : Reuss Voigt Hill
#
# Bulk Modulus (GPa) = 58.74431 68.81765 63.78098
# Shear Modulus (GPa) = 2.84288 19.19595 11.01941
#
# Velocity S-wave (km/s) = 1.29130 3.35545 2.54229
# Velocity P-wave (km/s) = 6.05630 7.44150 6.78435
#
# Compressibility (1/GPa) = 0.01702293
#
# Stress axis : x y z
#
# Youngs Moduli (GPa) = 54.33092 77.74641 72.63844
#
# Poissons Ratio (x) = 0.26088 0.27255
# Poissons Ratio (y) = 0.18231 0.50108
# Poissons Ratio (z) = 0.20386 0.53632
#
# Static dielectric constant tensor:
#      x y z
#    x 3.580800 0.000000 0.000000 
#    y 0.000000 3.277570 0.000000 
#    z 0.000000 0.000000 3.177000 
# 
# 
# High freq. dielectric constant tensor:
#      x y z
#    x 1.612390 0.000000 0.000000 
#    y 0.000000 1.668870 0.000000 
#    z 0.000000 0.000000 1.638830 
# 
# From -- ./inp_files/12487.got.cif
#   From: 2010.03.12/outbox.cif.g09.slc.cpg/sg69_7_cif.got.tgz:12487.got - 2010.04.10 23:52:46.
