data_PCOD8284315
_publ_section_title
;
Structure prediction by ZEFSAII (Michael W. Deem and Ramdas Pophale) SiO2 
 PCOD8284315
Probable space group: F M M M
;
_chemical_formula_sum "Si O2"
_cell_formula_units_Z 160
_cell_length_a 9.942872
_cell_length_b 25.897921
_cell_length_c 30.271357
_cell_angle_alpha 90.000000
_cell_angle_beta 90.000000
_cell_angle_gamma 90.000000
_cell_volume 7794.865757
_symmetry_space_group_name_H-M "F M M M"
_symmetry_group_IT_number 69
_symmetry_cell_setting 'orthorhombic'
loop_
_space_group_symop_operation_xyz
x,y,z
-x,-y,z
x,-y,-z
-x,y,-z
-x,-y,-z
x,y,-z
-x,y,z
x,-y,z
x,1/2+y,1/2+z
-x,1/2-y,1/2+z
x,1/2-y,1/2-z
-x,1/2+y,1/2-z
-x,1/2-y,1/2-z
x,1/2+y,1/2-z
-x,1/2+y,1/2+z
x,1/2-y,1/2+z
1/2+x,y,1/2+z
1/2-x,-y,1/2+z
1/2+x,-y,1/2-z
1/2-x,y,1/2-z
1/2-x,-y,1/2-z
1/2+x,y,1/2-z
1/2-x,y,1/2+z
1/2+x,-y,1/2+z
1/2+x,1/2+y,z
1/2-x,1/2-y,z
1/2+x,1/2-y,-z
1/2-x,1/2+y,-z
1/2-x,1/2-y,-z
1/2+x,1/2+y,-z
1/2-x,1/2+y,z
1/2+x,1/2-y,z
loop_
_atom_site_type_symbol
_atom_site_label
_atom_site_fract_x
_atom_site_fract_y
_atom_site_fract_z
Si Si1 0.000000 0.179451 0.951774
Si Si2 0.159710 0.357310 0.290988
Si Si3 0.214201 0.907217 0.950910
Si Si4 0.500000 0.229259 0.115079
Si Si5 0.345475 0.444533 0.142389
Si Si6 0.750000 0.250000 0.172677
Si Si7 0.500000 0.863161 0.048701
O O1 0.864854 0.146492 0.947021
O O2 0.000000 0.217854 0.911410
O O3 0.000000 0.206967 0.000000
O O4 0.250000 0.375941 0.250000
O O5 0.210340 0.394156 0.331636
O O6 0.189227 0.296862 0.298944
O O7 0.000000 0.363188 0.281298
O O8 0.168735 0.942876 0.910731
O O9 0.371951 0.899187 0.944624
O O10 0.184779 0.931399 0.000000
O O11 0.632714 0.225164 0.143940
O O12 0.500000 0.182083 0.082842
O O13 0.500000 0.446435 0.154710
O O14 0.280583 0.500000 0.157432
O O15 0.500000 0.838128 0.000000
#
# Coordination Sequence:
#
# PCOD8284315 Si02
#       7
#    16  32  32  16  32  16  16
#     4  10  19  32  53  81 119 163 212 262 295 346
#     4  11  25  45  67  93 125 159 203 255 308 369
#     4  10  20  36  58  86 123 163 205 251 300 359
#     4  12  21  34  55  84 120 162 208 252 306 362
#     4  10  21  40  67  95 124 160 204 255 309 362
#     4  12  25  38  63  92 122 160 199 252 310 374
#     4  10  21  34  51  79 121 169 210 250 301 358
#
# _framework density 20.526330999999999
#
# number of rings (size 3 to 8) (size 9 to 14) (size 15 to 20)
#    0.000    1.400    2.000    4.200    1.400    1.600 
#    1.800    5.500    0.000    1.800    0.000    0.000 
#    0.000    0.000    0.000    0.000    0.000    0.000 
#
# Total GULP energy -495717.737865 kJ/mol
# GULP energy per Si atom -12392.943447 kJ/mol
# Density = 2.047961 g / cm^3
# Si number density = 20.526331 Si / 1000 Ang^3
#
#
#
# Elastic Constant Matrix: (Units=GPa)
#
#
# Indices 1 2 3 4 5 6 
#
# 1 94.1065 7.7745 24.4152 0.0000 0.0000 0.0000
# 2 7.7745 102.0553 47.3119 0.0000 0.0000 0.0000
# 3 24.4152 47.3119 110.5267 0.0000 0.0000 0.0000
# 4 0.0000 0.0000 0.0000 11.8175 0.0000 0.0000
# 5 0.0000 0.0000 0.0000 0.0000 37.9210 0.0000
# 6 0.0000 0.0000 0.0000 0.0000 0.0000 19.3417
#
#
#
# Elastic Compliance Matrix: (Units=1/GPa)
#
#
# Indices 1 2 3 4 5 6 
#
# 1 0.011283 0.000369 -0.002651 0.000000 0.000000 0.000000
# 2 0.000369 0.012237 -0.005320 0.000000 0.000000 0.000000
# 3 -0.002651 -0.005320 0.011910 0.000000 0.000000 0.000000
# 4 0.000000 0.000000 0.000000 0.084621 0.000000 0.000000
# 5 0.000000 0.000000 0.000000 0.000000 0.026371 0.000000
# 6 0.000000 0.000000 0.000000 0.000000 0.000000 0.051702
#
#
# Mechanical properties :
#
#
# Convention : Reuss Voigt Hill
#
# Bulk Modulus (GPa) = 49.43538 51.74353 50.58945
# Shear Modulus (GPa) = 22.72030 28.96183 25.84106
#
# Velocity S-wave (km/s) = 3.33060 3.76035 3.55198
# Velocity P-wave (km/s) = 6.23913 6.64204 6.44373
#
# Compressibility (1/GPa) = 0.02022843
#
# Stress axis : x y z
#
# Youngs Moduli (GPa) = 88.62558 81.72225 83.96193
#
# Poissons Ratio (x) = -0.03017 0.22254
# Poissons Ratio (y) = -0.03272 0.44664
# Poissons Ratio (z) = 0.23491 0.43472
#
# Static dielectric constant tensor:
#      x y z
#    x 2.485360 0.000000 0.000000 
#    y 0.000000 3.768180 0.000000 
#    z 0.000000 0.000000 3.926680 
# 
# 
# High freq. dielectric constant tensor:
#      x y z
#    x 1.802120 0.000000 0.000000 
#    y 0.000000 1.788670 0.000000 
#    z 0.000000 0.000000 1.808870 
# 
# From -- ./inp_files/43523.got.cif
#   From: 2010.03.12/outbox.cif.g09.slc.cpg/sg69_22_cif.got.tgz:43523.got - 2010.04.10 23:52:46.
