data_PCOD8284495
_publ_section_title
;
Structure prediction by ZEFSAII (Michael W. Deem and Ramdas Pophale) SiO2 
 PCOD8284495
Probable space group: F M M M
;
_chemical_formula_sum "Si O2"
_cell_formula_units_Z 128
_cell_length_a 14.615351
_cell_length_b 23.432806
_cell_length_c 19.429291
_cell_angle_alpha 90.000000
_cell_angle_beta 90.000000
_cell_angle_gamma 90.000000
_cell_volume 6654.118024
_symmetry_space_group_name_H-M "F M M M"
_symmetry_group_IT_number 69
_symmetry_cell_setting 'orthorhombic'
loop_
_space_group_symop_operation_xyz
x,y,z
-x,-y,z
x,-y,-z
-x,y,-z
-x,-y,-z
x,y,-z
-x,y,z
x,-y,z
x,1/2+y,1/2+z
-x,1/2-y,1/2+z
x,1/2-y,1/2-z
-x,1/2+y,1/2-z
-x,1/2-y,1/2-z
x,1/2+y,1/2-z
-x,1/2+y,1/2+z
x,1/2-y,1/2+z
1/2+x,y,1/2+z
1/2-x,-y,1/2+z
1/2+x,-y,1/2-z
1/2-x,y,1/2-z
1/2-x,-y,1/2-z
1/2+x,y,1/2-z
1/2-x,y,1/2+z
1/2+x,-y,1/2+z
1/2+x,1/2+y,z
1/2-x,1/2-y,z
1/2+x,1/2-y,-z
1/2-x,1/2+y,-z
1/2-x,1/2-y,-z
1/2+x,1/2+y,-z
1/2-x,1/2+y,z
1/2+x,1/2-y,z
loop_
_atom_site_type_symbol
_atom_site_label
_atom_site_fract_x
_atom_site_fract_y
_atom_site_fract_z
Si Si1 0.138079 0.116885 0.811423
Si Si2 0.500000 0.785242 0.321880
Si Si3 0.900308 0.500000 0.386713
Si Si4 0.157884 0.112213 0.654490
Si Si5 0.198873 0.500000 0.075837
Si Si6 0.000000 0.181694 0.582551
O O1 0.121215 0.105235 0.731190
O O2 0.238559 0.134052 0.837805
O O3 0.086582 0.174294 0.830731
O O4 0.102048 0.058105 0.843115
O O5 0.500000 0.750000 0.250000
O O6 0.500000 0.745312 0.388420
O O7 0.809638 0.500000 0.433507
O O8 0.000000 0.500000 0.425615
O O9 0.093022 0.153098 0.610331
O O10 0.158529 0.052415 0.616756
O O11 0.156343 0.500000 0.000000
O O12 0.000000 0.181781 0.500000
#
# Coordination Sequence:
#
# PCOD8284495 Si02
#       6
#    32  16  16  32  16  16
#     4  10  20  38  66  96 120 152 210 267 313 353
#     4  12  22  41  63  93 120 163 221 262 302 368
#     4  10  19  34  62  92 121 149 198 257 314 365
#     4  10  21  39  62  92 122 164 204 258 308 367
#     4  10  21  37  57  89 130 165 196 240 313 393
#     4  12  26  43  60  89 130 171 209 257 316 377
#
# _framework density 19.236208000000001
#
# number of rings (size 3 to 8) (size 9 to 14) (size 15 to 20)
#    0.000    1.500    3.750    1.500    0.000    4.750 
#    0.000    8.750    0.000    0.000    0.000    0.000 
#    0.000    0.000    0.000    0.000    0.000    0.000 
#
# Total GULP energy -396446.166867 kJ/mol
# GULP energy per Si atom -12388.942715 kJ/mol
# Density = 1.919243 g / cm^3
# Si number density = 19.236208 Si / 1000 Ang^3
#
#
#
# Elastic Constant Matrix: (Units=GPa)
#
#
# Indices 1 2 3 4 5 6 
#
# 1 102.3903 60.3581 46.8859 0.0000 0.0000 0.0000
# 2 60.3581 157.0893 67.0365 0.0000 0.0000 0.0000
# 3 46.8859 67.0365 140.0395 0.0000 0.0000 0.0000
# 4 0.0000 0.0000 0.0000 47.1569 0.0000 0.0000
# 5 0.0000 0.0000 0.0000 0.0000 1.9770 0.0000
# 6 0.0000 0.0000 0.0000 0.0000 0.0000 39.2105
#
#
#
# Elastic Compliance Matrix: (Units=1/GPa)
#
#
# Indices 1 2 3 4 5 6 
#
# 1 0.013299 -0.004034 -0.002522 0.000000 0.000000 0.000000
# 2 -0.004034 0.009224 -0.003065 0.000000 0.000000 0.000000
# 3 -0.002522 -0.003065 0.009452 0.000000 0.000000 0.000000
# 4 0.000000 0.000000 0.000000 0.021206 0.000000 0.000000
# 5 0.000000 0.000000 0.000000 0.000000 0.505813 0.000000
# 6 0.000000 0.000000 0.000000 0.000000 0.000000 0.025503
#
#
# Mechanical properties :
#
#
# Convention : Reuss Voigt Hill
#
# Bulk Modulus (GPa) = 78.52697 83.12001 80.82349
# Shear Modulus (GPa) = 8.22393 32.68478 20.45436
#
# Velocity S-wave (km/s) = 2.06991 4.12652 3.26441
# Velocity P-wave (km/s) = 6.82816 8.12454 7.50440
#
# Compressibility (1/GPa) = 0.01273448
#
# Stress axis : x y z
#
# Youngs Moduli (GPa) = 75.19282 108.41790 105.79566
#
# Poissons Ratio (x) = 0.43734 0.26678
# Poissons Ratio (y) = 0.30331 0.32424
# Poissons Ratio (z) = 0.18961 0.33227
#
# Static dielectric constant tensor:
#      x y z
#    x 3.769250 0.000000 0.000000 
#    y 0.000000 3.545340 0.000000 
#    z 0.000000 0.000000 3.417630 
# 
# 
# High freq. dielectric constant tensor:
#      x y z
#    x 1.765680 0.000000 0.000000 
#    y 0.000000 1.754620 0.000000 
#    z 0.000000 0.000000 1.739010 
# 
# From -- ./inp_files/16417.got.cif
#   From: 2010.03.12/outbox.cif.g09.slc.cpg/sg69_9_cif.got.tgz:16417.got - 2010.04.10 23:52:46.
