data_PCOD8284038
_publ_section_title
;
Structure prediction by ZEFSAII (Michael W. Deem and Ramdas Pophale) SiO2 
 PCOD8284038
Probable space group: F M M M
;
_chemical_formula_sum "Si O2"
_cell_formula_units_Z 192
_cell_length_a 13.896995
_cell_length_b 27.929386
_cell_length_c 26.291178
_cell_angle_alpha 90.000000
_cell_angle_beta 90.000000
_cell_angle_gamma 90.000000
_cell_volume 10204.514216
_symmetry_space_group_name_H-M "F M M M"
_symmetry_group_IT_number 69
_symmetry_cell_setting 'orthorhombic'
loop_
_space_group_symop_operation_xyz
x,y,z
-x,-y,z
x,-y,-z
-x,y,-z
-x,-y,-z
x,y,-z
-x,y,z
x,-y,z
x,1/2+y,1/2+z
-x,1/2-y,1/2+z
x,1/2-y,1/2-z
-x,1/2+y,1/2-z
-x,1/2-y,1/2-z
x,1/2+y,1/2-z
-x,1/2+y,1/2+z
x,1/2-y,1/2+z
1/2+x,y,1/2+z
1/2-x,-y,1/2+z
1/2+x,-y,1/2-z
1/2-x,y,1/2-z
1/2-x,-y,1/2-z
1/2+x,y,1/2-z
1/2-x,y,1/2+z
1/2+x,-y,1/2+z
1/2+x,1/2+y,z
1/2-x,1/2-y,z
1/2+x,1/2-y,-z
1/2-x,1/2+y,-z
1/2-x,1/2-y,-z
1/2+x,1/2+y,-z
1/2-x,1/2+y,z
1/2+x,1/2-y,z
loop_
_atom_site_type_symbol
_atom_site_label
_atom_site_fract_x
_atom_site_fract_y
_atom_site_fract_z
Si Si1 0.612298 0.613741 0.058207
Si Si2 0.850837 0.223165 0.944310
Si Si3 0.251221 0.327573 0.692185
Si Si4 0.614454 0.000000 0.166217
Si Si5 0.396355 0.751508 0.161580
Si Si6 0.273635 0.928124 0.354620
Si Si7 0.387571 0.500000 0.787240
O O1 0.500000 0.615999 0.074589
O O2 0.659443 0.666308 0.065730
O O3 0.669074 0.573905 0.091699
O O4 0.622193 0.596969 0.000000
O O5 0.750000 0.250000 0.942614
O O6 0.911429 0.247110 0.899306
O O7 0.899657 0.230862 0.000000
O O8 0.250000 0.343918 0.750000
O O9 0.349079 0.301469 0.676712
O O10 0.162206 0.292830 0.683110
O O11 0.243765 0.373710 0.658329
O O12 0.669406 0.954190 0.141767
O O13 0.630805 0.000000 0.226893
O O14 0.500000 0.000000 0.152582
O O15 0.500000 0.750502 0.187855
O O16 0.339803 0.953197 0.312074
O O17 0.500000 0.500000 0.799483
#
# Coordination Sequence:
#
# PCOD8284038 Si02
#       7
#    32  32  32  16  32  32  16
#     4  10  20  34  56  87 117 144 181 231 286 343
#     4  10  18  32  53  78 111 149 187 227 274 327
#     4  11  23  37  52  77 111 148 191 231 272 326
#     4  10  23  41  60  85 113 144 189 238 281 331
#     4  11  21  35  52  76 111 149 187 227 273 321
#     4  11  20  38  62  82 112 149 186 229 287 345
#     4  10  21  37  60  90 115 139 181 235 287 344
#
# _framework density 18.815201999999999
#
# number of rings (size 3 to 8) (size 9 to 14) (size 15 to 20)
#    0.000    1.500    3.333    4.000    0.000    3.667 
#    0.000    1.667    0.000    5.500    0.000    0.000 
#    0.000    0.000    0.000    0.000    0.000    0.000 
#
# Total GULP energy -594925.575312 kJ/mol
# GULP energy per Si atom -12394.282819 kJ/mol
# Density = 1.877238 g / cm^3
# Si number density = 18.815202 Si / 1000 Ang^3
#
#
#
# Elastic Constant Matrix: (Units=GPa)
#
#
# Indices 1 2 3 4 5 6 
#
# 1 143.9831 42.6939 25.4904 0.0000 0.0000 0.0000
# 2 42.6939 82.7068 11.6026 0.0000 0.0000 0.0000
# 3 25.4904 11.6026 87.1698 0.0000 0.0000 0.0000
# 4 0.0000 0.0000 0.0000 105.9061 0.0000 0.0000
# 5 0.0000 0.0000 0.0000 0.0000 15.4246 0.0000
# 6 0.0000 0.0000 0.0000 0.0000 0.0000 -45.8699
#
#
#
# Elastic Compliance Matrix: (Units=1/GPa)
#
#
# Indices 1 2 3 4 5 6 
#
# 1 0.008511 -0.004121 -0.001940 0.000000 0.000000 0.000000
# 2 -0.004121 0.014317 -0.000700 0.000000 0.000000 0.000000
# 3 -0.001940 -0.000700 0.012132 0.000000 0.000000 0.000000
# 4 0.000000 0.000000 0.000000 0.009442 0.000000 0.000000
# 5 0.000000 0.000000 0.000000 0.000000 0.064832 0.000000
# 6 0.000000 0.000000 0.000000 0.000000 0.000000 -0.021801
#
#
# Mechanical properties :
#
#
# Convention : Reuss Voigt Hill
#
# Bulk Modulus (GPa) = 46.65019 52.60372 49.62696
# Shear Modulus (GPa) = 46.25270 30.69702 38.47486
#
# Velocity S-wave (km/s) = 4.96347 4.04357 4.52694
# Velocity P-wave (km/s) = 7.59577 7.05828 7.33195
#
# Compressibility (1/GPa) = 0.02143614
#
# Stress axis : x y z
#
# Youngs Moduli (GPa) = 117.49848 69.84933 82.42353
#
# Poissons Ratio (x) = 0.28786 0.15992
# Poissons Ratio (y) = 0.48423 0.05773
# Poissons Ratio (z) = 0.22797 0.04893
#
# Static dielectric constant tensor:
#      x y z
#    x 3.119690 0.000000 0.000000 
#    y 0.000000 3.437900 0.000000 
#    z 0.000000 0.000000 3.817210 
# 
# 
# High freq. dielectric constant tensor:
#      x y z
#    x 1.730700 0.000000 0.000000 
#    y 0.000000 1.720150 0.000000 
#    z 0.000000 0.000000 1.739320 
# 
# From -- ./inp_files/41148.got.cif
#   From: 2010.03.12/outbox.cif.g09.slc.cpg/sg69_21_cif.got.tgz:41148.got - 2010.04.10 23:52:46.
