data_PCOD8284373
_publ_section_title
;
Structure prediction by ZEFSAII (Michael W. Deem and Ramdas Pophale) SiO2 
 PCOD8284373
Probable space group: F M M M
;
_chemical_formula_sum "Si O2"
_cell_formula_units_Z 72
_cell_length_a 20.997361
_cell_length_b 12.695646
_cell_length_c 13.372058
_cell_angle_alpha 90.000000
_cell_angle_beta 90.000000
_cell_angle_gamma 90.000000
_cell_volume 3564.657193
_symmetry_space_group_name_H-M "F M M M"
_symmetry_group_IT_number 69
_symmetry_cell_setting 'orthorhombic'
loop_
_space_group_symop_operation_xyz
x,y,z
-x,-y,z
x,-y,-z
-x,y,-z
-x,-y,-z
x,y,-z
-x,y,z
x,-y,z
x,1/2+y,1/2+z
-x,1/2-y,1/2+z
x,1/2-y,1/2-z
-x,1/2+y,1/2-z
-x,1/2-y,1/2-z
x,1/2+y,1/2-z
-x,1/2+y,1/2+z
x,1/2-y,1/2+z
1/2+x,y,1/2+z
1/2-x,-y,1/2+z
1/2+x,-y,1/2-z
1/2-x,y,1/2-z
1/2-x,-y,1/2-z
1/2+x,y,1/2-z
1/2-x,y,1/2+z
1/2+x,-y,1/2+z
1/2+x,1/2+y,z
1/2-x,1/2-y,z
1/2+x,1/2-y,-z
1/2-x,1/2+y,-z
1/2-x,1/2-y,-z
1/2+x,1/2+y,-z
1/2-x,1/2+y,z
1/2+x,1/2-y,z
loop_
_atom_site_type_symbol
_atom_site_label
_atom_site_fract_x
_atom_site_fract_y
_atom_site_fract_z
Si Si1 0.073694 0.811284 0.387352
Si Si2 0.136779 0.380859 0.693342
Si Si3 0.250000 0.250000 0.250000
O O1 0.092142 0.844039 0.500000
O O2 0.086362 0.686204 0.371363
O O3 0.116178 0.878648 0.310365
O O4 0.000000 0.834668 0.366476
O O5 0.139294 0.500000 0.653614
O O6 0.205979 0.325950 0.681579
#
# Coordination Sequence:
#
# PCOD8284373 Si02
#       3
#    32  32   8
#     4   9  19  34  50  74 107 133 158 200 248 293
#     4  10  19  33  54  75  97 131 170 204 243 293
#     4   8  18  36  52  70 100 130 162 210 254 286
#
# _framework density 20.198295000000002
#
# number of rings (size 3 to 8) (size 9 to 14) (size 15 to 20)
#    0.000    3.111    0.000    3.333    0.000    5.333 
#    0.000   22.222    0.000   21.333    0.000    0.000 
#    0.000    0.000    0.000    0.000    0.000    0.000 
#
# Total GULP energy -223084.488908 kJ/mol
# GULP energy per Si atom -12393.582717 kJ/mol
# Density = 2.015232 g / cm^3
# Si number density = 20.198295 Si / 1000 Ang^3
#
#
#
# Elastic Constant Matrix: (Units=GPa)
#
#
# Indices 1 2 3 4 5 6 
#
# 1 86.4664 6.3636 28.1773 0.0000 0.0000 0.0000
# 2 6.3636 92.5825 -25.5396 0.0000 0.0000 0.0000
# 3 28.1773 -25.5396 67.2497 0.0000 0.0000 0.0000
# 4 0.0000 0.0000 0.0000 7.2825 0.0000 0.0000
# 5 0.0000 0.0000 0.0000 0.0000 14.3939 0.0000
# 6 0.0000 0.0000 0.0000 0.0000 0.0000 10.1189
#
#
#
# Elastic Compliance Matrix: (Units=1/GPa)
#
#
# Indices 1 2 3 4 5 6 
#
# 1 0.014055 -0.002894 -0.006988 0.000000 0.000000 0.000000
# 2 -0.002894 0.012661 0.006021 0.000000 0.000000 0.000000
# 3 -0.006988 0.006021 0.020084 0.000000 0.000000 0.000000
# 4 0.000000 0.000000 0.000000 0.137315 0.000000 0.000000
# 5 0.000000 0.000000 0.000000 0.000000 0.069474 0.000000
# 6 0.000000 0.000000 0.000000 0.000000 0.000000 0.098825
#
#
# Mechanical properties :
#
#
# Convention : Reuss Voigt Hill
#
# Bulk Modulus (GPa) = 25.58954 29.36681 27.47818
# Shear Modulus (GPa) = 13.39896 22.17889 17.78893
#
# Velocity S-wave (km/s) = 2.57839 3.31729 2.97090
# Velocity P-wave (km/s) = 4.64336 5.40771 5.04005
#
# Compressibility (1/GPa) = 0.03907846
#
# Stress axis : x y z
#
# Youngs Moduli (GPa) = 71.14684 78.98301 49.78967
#
# Poissons Ratio (x) = 0.22856 0.34794
# Poissons Ratio (y) = 0.20589 -0.29977
# Poissons Ratio (z) = 0.49719 -0.47554
#
# Static dielectric constant tensor:
#      x y z
#    x 3.698740 0.000000 0.000000 
#    y 0.000000 3.522080 0.000000 
#    z 0.000000 0.000000 3.420840 
# 
# 
# High freq. dielectric constant tensor:
#      x y z
#    x 1.791940 0.000000 0.000000 
#    y 0.000000 1.777910 0.000000 
#    z 0.000000 0.000000 1.759290 
# 
# From -- ./inp_files/7680.got.cif
#   From: 2010.03.12/outbox.cif.g09.slc.cpg/sg69_4_cif.got.tgz:7680.got - 2010.04.10 23:52:46.
