data_PCOD8284675
_publ_section_title
;
Structure prediction by ZEFSAII (Michael W. Deem and Ramdas Pophale) SiO2 
 PCOD8284675
Probable space group: F M M M
;
_chemical_formula_sum "Si O2"
_cell_formula_units_Z 192
_cell_length_a 20.265197
_cell_length_b 26.806512
_cell_length_c 18.499245
_cell_angle_alpha 90.000000
_cell_angle_beta 90.000000
_cell_angle_gamma 90.000000
_cell_volume 10049.515916
_symmetry_space_group_name_H-M "F M M M"
_symmetry_group_IT_number 69
_symmetry_cell_setting 'orthorhombic'
loop_
_space_group_symop_operation_xyz
x,y,z
-x,-y,z
x,-y,-z
-x,y,-z
-x,-y,-z
x,y,-z
-x,y,z
x,-y,z
x,1/2+y,1/2+z
-x,1/2-y,1/2+z
x,1/2-y,1/2-z
-x,1/2+y,1/2-z
-x,1/2-y,1/2-z
x,1/2+y,1/2-z
-x,1/2+y,1/2+z
x,1/2-y,1/2+z
1/2+x,y,1/2+z
1/2-x,-y,1/2+z
1/2+x,-y,1/2-z
1/2-x,y,1/2-z
1/2-x,-y,1/2-z
1/2+x,y,1/2-z
1/2-x,y,1/2+z
1/2+x,-y,1/2+z
1/2+x,1/2+y,z
1/2-x,1/2-y,z
1/2+x,1/2-y,-z
1/2-x,1/2+y,-z
1/2-x,1/2-y,-z
1/2+x,1/2+y,-z
1/2-x,1/2+y,z
1/2+x,1/2-y,z
loop_
_atom_site_type_symbol
_atom_site_label
_atom_site_fract_x
_atom_site_fract_y
_atom_site_fract_z
Si Si1 0.925132 0.095641 0.336568
Si Si2 0.679128 0.887293 0.586010
Si Si3 0.193285 0.056067 0.581476
Si Si4 0.183828 0.774982 0.914529
Si Si5 0.075098 0.442413 0.679877
Si Si6 0.075212 0.696957 0.083069
O O1 0.874154 0.058525 0.373977
O O2 0.914859 0.091277 0.251018
O O3 0.909624 0.151346 0.363663
O O4 0.000000 0.080201 0.357936
O O5 0.673527 0.891040 0.500000
O O6 0.749697 0.908250 0.613049
O O7 0.674014 0.830814 0.615478
O O8 0.620706 0.920663 0.617403
O O9 0.176504 0.072158 0.500000
O O10 0.220666 0.000000 0.585229
O O11 0.250000 0.750000 0.881793
O O12 0.120685 0.742582 0.891483
O O13 0.190788 0.778106 0.000000
O O14 0.093425 0.500000 0.696523
O O15 0.000000 0.438487 0.652507
O O16 0.000000 0.715029 0.090393
O O17 0.090961 0.681262 0.000000
#
# Coordination Sequence:
#
# PCOD8284675 Si02
#       6
#    32  32  32  32  32  32
#     4  10  20  35  54  77 108 144 178 214 262 320
#     4  10  21  37  57  80 107 140 180 226 271 316
#     4  10  20  33  52  79 108 138 175 219 265 316
#     4   9  17  31  53  79 106 136 171 214 264 316
#     4  10  22  39  57  78 106 142 184 227 270 316
#     4   9  17  30  51  79 108 137 170 210 258 314
#
# _framework density 19.105398000000001
#
# number of rings (size 3 to 8) (size 9 to 14) (size 15 to 20)
#    0.000    2.333    0.000    2.500    0.000    7.333 
#    0.000    5.833    0.000    4.000    0.000    0.000 
#    0.000    0.000    0.000    0.000    0.000    0.000 
#
# Total GULP energy -595227.550077 kJ/mol
# GULP energy per Si atom -12400.573960 kJ/mol
# Density = 1.906191 g / cm^3
# Si number density = 19.105398 Si / 1000 Ang^3
#
#
#
# Elastic Constant Matrix: (Units=GPa)
#
#
# Indices 1 2 3 4 5 6 
#
# 1 121.8242 68.3353 44.0119 0.0000 0.0000 0.0000
# 2 68.3353 126.9401 37.6395 0.0000 0.0000 0.0000
# 3 44.0119 37.6395 48.6577 0.0000 0.0000 0.0000
# 4 0.0000 0.0000 0.0000 18.3526 0.0000 0.0000
# 5 0.0000 0.0000 0.0000 0.0000 25.6450 0.0000
# 6 0.0000 0.0000 0.0000 0.0000 0.0000 38.8556
#
#
#
# Elastic Compliance Matrix: (Units=1/GPa)
#
#
# Indices 1 2 3 4 5 6 
#
# 1 0.014287 -0.005008 -0.009049 0.000000 0.000000 0.000000
# 2 -0.005008 0.011978 -0.004736 0.000000 0.000000 0.000000
# 3 -0.009049 -0.004736 0.032400 0.000000 0.000000 0.000000
# 4 0.000000 0.000000 0.000000 0.054488 0.000000 0.000000
# 5 0.000000 0.000000 0.000000 0.000000 0.038994 0.000000
# 6 0.000000 0.000000 0.000000 0.000000 0.000000 0.025736
#
#
# Mechanical properties :
#
#
# Convention : Reuss Voigt Hill
#
# Bulk Modulus (GPa) = 47.43920 66.37727 56.90823
# Shear Modulus (GPa) = 22.47247 26.39965 24.43606
#
# Velocity S-wave (km/s) = 3.43335 3.72128 3.58021
# Velocity P-wave (km/s) = 6.37192 7.29945 6.85140
#
# Compressibility (1/GPa) = 0.02107961
#
# Stress axis : x y z
#
# Youngs Moduli (GPa) = 69.99520 83.48764 30.86419
#
# Poissons Ratio (x) = 0.41809 0.27928
# Poissons Ratio (y) = 0.35052 0.14617
# Poissons Ratio (z) = 0.63337 0.39539
#
# Static dielectric constant tensor:
#      x y z
#    x 3.586860 0.000000 0.000000 
#    y 0.000000 3.567860 0.000000 
#    z 0.000000 0.000000 3.168260 
# 
# 
# High freq. dielectric constant tensor:
#      x y z
#    x 1.754480 0.000000 0.000000 
#    y 0.000000 1.748640 0.000000 
#    z 0.000000 0.000000 1.708540 
# 
# From -- ./inp_files/32038.got.cif
#   From: 2010.03.12/outbox.cif.g09.slc.cpg/sg69_17_cif.got.tgz:32038.got - 2010.04.10 23:52:46.
