data_PCOD8284189
_publ_section_title
;
Structure prediction by ZEFSAII (Michael W. Deem and Ramdas Pophale) SiO2 
 PCOD8284189
Probable space group: F M M M
;
_chemical_formula_sum "Si O2"
_cell_formula_units_Z 192
_cell_length_a 29.899896
_cell_length_b 18.926046
_cell_length_c 18.960898
_cell_angle_alpha 90.000000
_cell_angle_beta 90.000000
_cell_angle_gamma 90.000000
_cell_volume 10729.722029
_symmetry_space_group_name_H-M "F M M M"
_symmetry_group_IT_number 69
_symmetry_cell_setting 'orthorhombic'
loop_
_space_group_symop_operation_xyz
x,y,z
-x,-y,z
x,-y,-z
-x,y,-z
-x,-y,-z
x,y,-z
-x,y,z
x,-y,z
x,1/2+y,1/2+z
-x,1/2-y,1/2+z
x,1/2-y,1/2-z
-x,1/2+y,1/2-z
-x,1/2-y,1/2-z
x,1/2+y,1/2-z
-x,1/2+y,1/2+z
x,1/2-y,1/2+z
1/2+x,y,1/2+z
1/2-x,-y,1/2+z
1/2+x,-y,1/2-z
1/2-x,y,1/2-z
1/2-x,-y,1/2-z
1/2+x,y,1/2-z
1/2-x,y,1/2+z
1/2+x,-y,1/2+z
1/2+x,1/2+y,z
1/2-x,1/2-y,z
1/2+x,1/2-y,-z
1/2-x,1/2+y,-z
1/2-x,1/2-y,-z
1/2+x,1/2+y,-z
1/2-x,1/2+y,z
1/2+x,1/2-y,z
loop_
_atom_site_type_symbol
_atom_site_label
_atom_site_fract_x
_atom_site_fract_y
_atom_site_fract_z
Si Si1 0.698357 0.419017 0.079812
Si Si2 0.367378 0.672598 0.336612
Si Si3 0.130733 0.664012 0.674278
Si Si4 0.548462 0.421018 0.178908
Si Si5 0.049922 0.419965 0.846356
Si Si6 0.777371 0.681812 0.920181
O O1 0.697614 0.500000 0.107027
O O2 0.671099 0.367320 0.130045
O O3 0.748540 0.389557 0.082180
O O4 0.679618 0.414755 0.000000
O O5 0.359964 0.647413 0.256262
O O6 0.378131 0.754696 0.340039
O O7 0.409354 0.630657 0.372379
O O8 0.321260 0.660670 0.377119
O O9 0.085773 0.628223 0.645487
O O10 0.500000 0.395830 0.151296
O O11 0.558356 0.500000 0.153018
O O12 0.549181 0.417175 0.262699
O O13 0.059568 0.500000 0.872394
O O14 0.000000 0.396206 0.873687
O O15 0.750000 0.750000 0.888912
O O16 0.791522 0.701374 0.000000
#
# Coordination Sequence:
#
# PCOD8284189 Si02
#       6
#    32  32  32  32  32  32
#     4  10  21  37  56  76 100 136 180 219 261 318
#     4  10  20  31  50  79 105 135 173 215 267 314
#     4  10  19  31  47  77 109 132 167 218 269 310
#     4   8  14  26  45  68  98 136 171 206 254 312
#     4   8  15  29  48  71 102 138 172 209 258 315
#     4  10  20  37  56  72  98 139 179 215 257 312
#
# _framework density 17.894219
#
# number of rings (size 3 to 8) (size 9 to 14) (size 15 to 20)
#    0.000    2.667    1.667    1.500    0.000    2.667 
#    0.000    4.167    0.000    1.000    0.000    5.833 
#    0.000    0.000    0.000    0.000    0.000    0.000 
#
# Total GULP energy -594853.607488 kJ/mol
# GULP energy per Si atom -12392.783489 kJ/mol
# Density = 1.785349 g / cm^3
# Si number density = 17.894219 Si / 1000 Ang^3
#
#
#
# Elastic Constant Matrix: (Units=GPa)
#
#
# Indices 1 2 3 4 5 6 
#
# 1 147.3353 63.1179 44.9884 0.0000 0.0000 0.0000
# 2 63.1179 83.0847 29.9874 0.0000 0.0000 0.0000
# 3 44.9884 29.9874 40.9412 0.0000 0.0000 0.0000
# 4 0.0000 0.0000 0.0000 17.5774 0.0000 0.0000
# 5 0.0000 0.0000 0.0000 0.0000 -6.8901 0.0000
# 6 0.0000 0.0000 0.0000 0.0000 0.0000 40.5491
#
#
#
# Elastic Compliance Matrix: (Units=1/GPa)
#
#
# Indices 1 2 3 4 5 6 
#
# 1 0.012047 -0.005946 -0.008883 0.000000 0.000000 0.000000
# 2 -0.005946 0.019296 -0.007600 0.000000 0.000000 0.000000
# 3 -0.008883 -0.007600 0.039752 0.000000 0.000000 0.000000
# 4 0.000000 0.000000 0.000000 0.056891 0.000000 0.000000
# 5 0.000000 0.000000 0.000000 0.000000 -0.145136 0.000000
# 6 0.000000 0.000000 0.000000 0.000000 0.000000 0.024661
#
#
# Mechanical properties :
#
#
# Convention : Reuss Voigt Hill
#
# Bulk Modulus (GPa) = 38.11163 60.83874 49.47518
# Shear Modulus (GPa) = 81.81609 19.13179 50.47394
#
# Velocity S-wave (km/s) = 6.76915 3.27335 5.31677
# Velocity P-wave (km/s) = 9.07963 6.95409 8.08699
#
# Compressibility (1/GPa) = 0.02623871
#
# Stress axis : x y z
#
# Youngs Moduli (GPa) = 83.01106 51.82524 25.15577
#
# Poissons Ratio (x) = 0.30813 0.22345
# Poissons Ratio (y) = 0.49355 0.19118
# Poissons Ratio (z) = 0.73735 0.39386
#
# Static dielectric constant tensor:
#      x y z
#    x 3.632400 0.000000 0.000000 
#    y 0.000000 3.464700 0.000000 
#    z 0.000000 0.000000 2.969670 
# 
# 
# High freq. dielectric constant tensor:
#      x y z
#    x 1.701840 0.000000 0.000000 
#    y 0.000000 1.698190 0.000000 
#    z 0.000000 0.000000 1.647260 
# 
# From -- ./inp_files/32854.got.cif
#   From: 2010.03.12/outbox.cif.g09.slc.cpg/sg69_17_cif.got.tgz:32854.got - 2010.04.10 23:52:46.
