data_PCOD8284886
_publ_section_title
;
Structure prediction by ZEFSAII (Michael W. Deem and Ramdas Pophale) SiO2 
 PCOD8284886
Probable space group: F M M M
;
_chemical_formula_sum "Si O2"
_cell_formula_units_Z 176
_cell_length_a 18.483555
_cell_length_b 19.434991
_cell_length_c 26.784721
_cell_angle_alpha 90.000000
_cell_angle_beta 90.000000
_cell_angle_gamma 90.000000
_cell_volume 9621.814392
_symmetry_space_group_name_H-M "F M M M"
_symmetry_group_IT_number 69
_symmetry_cell_setting 'orthorhombic'
loop_
_space_group_symop_operation_xyz
x,y,z
-x,-y,z
x,-y,-z
-x,y,-z
-x,-y,-z
x,y,-z
-x,y,z
x,-y,z
x,1/2+y,1/2+z
-x,1/2-y,1/2+z
x,1/2-y,1/2-z
-x,1/2+y,1/2-z
-x,1/2-y,1/2-z
x,1/2+y,1/2-z
-x,1/2+y,1/2+z
x,1/2-y,1/2+z
1/2+x,y,1/2+z
1/2-x,-y,1/2+z
1/2+x,-y,1/2-z
1/2-x,y,1/2-z
1/2-x,-y,1/2-z
1/2+x,y,1/2-z
1/2-x,y,1/2+z
1/2+x,-y,1/2+z
1/2+x,1/2+y,z
1/2-x,1/2-y,z
1/2+x,1/2-y,-z
1/2-x,1/2+y,-z
1/2-x,1/2-y,-z
1/2+x,1/2+y,-z
1/2-x,1/2+y,z
1/2+x,1/2-y,z
loop_
_atom_site_type_symbol
_atom_site_label
_atom_site_fract_x
_atom_site_fract_y
_atom_site_fract_z
Si Si1 0.417126 0.763554 0.385326
Si Si2 0.679139 0.424287 0.280040
Si Si3 0.333262 0.132912 0.557961
Si Si4 0.212808 0.178513 0.632424
Si Si5 0.418183 0.500000 0.059258
Si Si6 0.916279 0.318236 0.276921
O O1 0.500000 0.740783 0.390213
O O2 0.391720 0.806883 0.433192
O O3 0.369274 0.694533 0.384465
O O4 0.403396 0.810655 0.336138
O O5 0.647738 0.500000 0.296258
O O6 0.750000 0.439644 0.250000
O O7 0.705287 0.378657 0.325996
O O8 0.622041 0.385444 0.244774
O O9 0.313484 0.127964 0.500000
O O10 0.258792 0.147327 0.586876
O O11 0.372483 0.064791 0.578302
O O12 0.250000 0.250000 0.651630
O O13 0.500000 0.500000 0.081972
O O14 0.424600 0.500000 0.000000
O O15 0.884852 0.250000 0.250000
O O16 0.000000 0.326311 0.263511
#
# Coordination Sequence:
#
# PCOD8284886 Si02
#       6
#    32  32  32  32  16  32
#     4  10  20  35  57  83 108 142 191 232 274 337
#     4  11  23  35  53  83 112 143 186 233 277 329
#     4  10  21  36  55  81 115 147 181 230 286 341
#     4  10  21  35  55  80 109 151 188 227 279 341
#     4   9  18  34  56  80 108 147 185 219 279 350
#     4  10  20  37  59  80 108 148 190 229 279 337
#
# _framework density 18.291768000000001
#
# number of rings (size 3 to 8) (size 9 to 14) (size 15 to 20)
#    0.000    1.909    1.818    2.727    1.273    4.727 
#    1.636    0.000    0.000    0.000    0.000    0.000 
#    0.000    2.182    0.000    0.000    0.000    0.000 
#
# Total GULP energy -545423.092714 kJ/mol
# GULP energy per Si atom -12395.979380 kJ/mol
# Density = 1.825013 g / cm^3
# Si number density = 18.291768 Si / 1000 Ang^3
#
#
#
# Elastic Constant Matrix: (Units=GPa)
#
#
# Indices 1 2 3 4 5 6 
#
# 1 135.4339 58.7710 42.5680 0.0000 0.0000 0.0000
# 2 58.7710 130.3875 37.0319 0.0000 0.0000 0.0000
# 3 42.5680 37.0319 62.3873 0.0000 0.0000 0.0000
# 4 0.0000 0.0000 0.0000 59.7826 0.0000 0.0000
# 5 0.0000 0.0000 0.0000 0.0000 26.0461 0.0000
# 6 0.0000 0.0000 0.0000 0.0000 0.0000 33.0754
#
#
#
# Elastic Compliance Matrix: (Units=1/GPa)
#
#
# Indices 1 2 3 4 5 6 
#
# 1 0.010413 -0.003218 -0.005195 0.000000 0.000000 0.000000
# 2 -0.003218 0.010219 -0.003870 0.000000 0.000000 0.000000
# 3 -0.005195 -0.003870 0.021871 0.000000 0.000000 0.000000
# 4 0.000000 0.000000 0.000000 0.016727 0.000000 0.000000
# 5 0.000000 0.000000 0.000000 0.000000 0.038394 0.000000
# 6 0.000000 0.000000 0.000000 0.000000 0.000000 0.030234
#
#
# Mechanical properties :
#
#
# Convention : Reuss Voigt Hill
#
# Bulk Modulus (GPa) = 55.75145 67.21673 61.48409
# Shear Modulus (GPa) = 31.56523 36.43666 34.00095
#
# Velocity S-wave (km/s) = 4.15860 4.46799 4.31607
# Velocity P-wave (km/s) = 7.32146 7.96518 7.65009
#
# Compressibility (1/GPa) = 0.01793675
#
# Stress axis : x y z
#
# Youngs Moduli (GPa) = 96.03455 97.85533 45.72362
#
# Poissons Ratio (x) = 0.31492 0.23752
# Poissons Ratio (y) = 0.30906 0.17695
# Poissons Ratio (z) = 0.49887 0.37871
#
# Static dielectric constant tensor:
#      x y z
#    x 3.508060 0.000000 0.000000 
#    y 0.000000 3.608190 0.000000 
#    z 0.000000 0.000000 3.195010 
# 
# 
# High freq. dielectric constant tensor:
#      x y z
#    x 1.717150 0.000000 0.000000 
#    y 0.000000 1.703760 0.000000 
#    z 0.000000 0.000000 1.694220 
# 
# From -- ./inp_files/27659.got.cif
#   From: 2010.03.12/outbox.cif.g09.slc.cpg/sg69_14_cif.got.tgz:27659.got - 2010.04.10 23:52:46.
