data_PCOD8284914
_publ_section_title
;
Structure prediction by ZEFSAII (Michael W. Deem and Ramdas Pophale) SiO2 
 PCOD8284914
Probable space group: F M M M
;
_chemical_formula_sum "Si O2"
_cell_formula_units_Z 192
_cell_length_a 17.974065
_cell_length_b 19.495466
_cell_length_c 28.032811
_cell_angle_alpha 90.000000
_cell_angle_beta 90.000000
_cell_angle_gamma 90.000000
_cell_volume 9823.055040
_symmetry_space_group_name_H-M "F M M M"
_symmetry_group_IT_number 69
_symmetry_cell_setting 'orthorhombic'
loop_
_space_group_symop_operation_xyz
x,y,z
-x,-y,z
x,-y,-z
-x,y,-z
-x,-y,-z
x,y,-z
-x,y,z
x,-y,z
x,1/2+y,1/2+z
-x,1/2-y,1/2+z
x,1/2-y,1/2-z
-x,1/2+y,1/2-z
-x,1/2-y,1/2-z
x,1/2+y,1/2-z
-x,1/2+y,1/2+z
x,1/2-y,1/2+z
1/2+x,y,1/2+z
1/2-x,-y,1/2+z
1/2+x,-y,1/2-z
1/2-x,y,1/2-z
1/2-x,-y,1/2-z
1/2+x,y,1/2-z
1/2-x,y,1/2+z
1/2+x,-y,1/2+z
1/2+x,1/2+y,z
1/2-x,1/2-y,z
1/2+x,1/2-y,-z
1/2-x,1/2+y,-z
1/2-x,1/2-y,-z
1/2+x,1/2+y,-z
1/2-x,1/2+y,z
1/2+x,1/2-y,z
loop_
_atom_site_type_symbol
_atom_site_label
_atom_site_fract_x
_atom_site_fract_y
_atom_site_fract_z
Si Si1 0.581858 0.237993 0.114875
Si Si2 0.144566 0.852804 0.943399
Si Si3 0.710085 0.628401 0.610862
Si Si4 0.193573 0.500000 0.052966
Si Si5 0.703213 0.923509 0.297366
Si Si6 0.584066 0.309177 0.214897
Si Si7 0.869492 0.500000 0.551867
O O1 0.500000 0.203849 0.109815
O O2 0.592077 0.289739 0.070319
O O3 0.644819 0.181758 0.118946
O O4 0.586406 0.283672 0.161390
O O5 0.225887 0.838163 0.921724
O O6 0.111285 0.926619 0.922877
O O7 0.152137 0.858671 0.000000
O O8 0.669843 0.566049 0.583456
O O9 0.745539 0.608032 0.661297
O O10 0.281313 0.500000 0.046596
O O11 0.156189 0.500000 0.000000
O O12 0.750000 0.929234 0.250000
O O13 0.632428 0.877697 0.283870
O O14 0.676952 0.000000 0.313256
O O15 0.500000 0.327551 0.231200
O O16 0.616385 0.250000 0.250000
O O17 0.908390 0.500000 0.500000
#
# Coordination Sequence:
#
# PCOD8284914 Si02
#       7
#    32  32  32  16  32  32  16
#     4  11  24  38  55  84 120 158 201 247 299 357
#     4  10  20  35  59  87 115 153 201 248 298 356
#     4  11  20  37  61  85 117 153 197 251 304 356
#     4   9  18  34  58  84 110 147 196 244 298 361
#     4  11  23  38  63  97 123 148 197 257 299 345
#     4  10  22  41  62  86 124 167 198 235 297 368
#     4   7  14  30  53  80 108 141 183 236 292 345
#
# _framework density 19.545853999999999
#
# number of rings (size 3 to 8) (size 9 to 14) (size 15 to 20)
#    0.000    1.833    2.500    3.000    0.000    4.333 
#    0.000    0.833    0.000    3.000    0.000    0.000 
#    0.000    0.667    0.000    0.000    0.000    0.000 
#
# Total GULP energy -594887.590685 kJ/mol
# GULP energy per Si atom -12393.491473 kJ/mol
# Density = 1.950137 g / cm^3
# Si number density = 19.545854 Si / 1000 Ang^3
#
#
#
# Elastic Constant Matrix: (Units=GPa)
#
#
# Indices 1 2 3 4 5 6 
#
# 1 89.1188 70.5355 29.2605 0.0000 0.0000 0.0000
# 2 70.5355 137.0872 34.0174 0.0000 0.0000 0.0000
# 3 29.2605 34.0174 83.4670 0.0000 0.0000 0.0000
# 4 0.0000 0.0000 0.0000 30.3992 0.0000 0.0000
# 5 0.0000 0.0000 0.0000 0.0000 17.3147 0.0000
# 6 0.0000 0.0000 0.0000 0.0000 0.0000 10.1199
#
#
#
# Elastic Compliance Matrix: (Units=1/GPa)
#
#
# Indices 1 2 3 4 5 6 
#
# 1 0.019614 -0.009329 -0.003074 0.000000 0.000000 0.000000
# 2 -0.009329 0.012553 -0.001845 0.000000 0.000000 0.000000
# 3 -0.003074 -0.001845 0.013810 0.000000 0.000000 0.000000
# 4 0.000000 0.000000 0.000000 0.032896 0.000000 0.000000
# 5 0.000000 0.000000 0.000000 0.000000 0.057754 0.000000
# 6 0.000000 0.000000 0.000000 0.000000 0.000000 0.098815
#
#
# Mechanical properties :
#
#
# Convention : Reuss Voigt Hill
#
# Bulk Modulus (GPa) = 57.20730 64.14442 60.67586
# Shear Modulus (GPa) = 18.53458 23.29074 20.91266
#
# Velocity S-wave (km/s) = 3.08273 3.45569 3.27452
# Velocity P-wave (km/s) = 6.48095 6.98649 6.73846
#
# Compressibility (1/GPa) = 0.01748029
#
# Stress axis : x y z
#
# Youngs Moduli (GPa) = 50.98363 79.66367 72.40895
#
# Poissons Ratio (x) = 0.74321 0.22257
# Poissons Ratio (y) = 0.47564 0.13362
# Poissons Ratio (z) = 0.15671 0.14701
#
# Static dielectric constant tensor:
#      x y z
#    x 3.395260 0.000000 0.000000 
#    y 0.000000 3.958080 0.000000 
#    z 0.000000 0.000000 3.701140 
# 
# 
# High freq. dielectric constant tensor:
#      x y z
#    x 1.729900 0.000000 0.000000 
#    y 0.000000 1.769130 0.000000 
#    z 0.000000 0.000000 1.770500 
# 
# From -- ./inp_files/46449.got.cif
#   From: 2010.03.12/outbox.cif.g09.slc.cpg/sg69_24_cif.got.tgz:46449.got - 2010.04.10 23:52:46.
