data_PCOD8284243
_publ_section_title
;
Structure prediction by ZEFSAII (Michael W. Deem and Ramdas Pophale) SiO2 
 PCOD8284243
Probable space group: F M M M
;
_chemical_formula_sum "Si O2"
_cell_formula_units_Z 208
_cell_length_a 31.760789
_cell_length_b 18.052382
_cell_length_c 19.442932
_cell_angle_alpha 90.000000
_cell_angle_beta 90.000000
_cell_angle_gamma 90.000000
_cell_volume 11147.758577
_symmetry_space_group_name_H-M "F M M M"
_symmetry_group_IT_number 69
_symmetry_cell_setting 'orthorhombic'
loop_
_space_group_symop_operation_xyz
x,y,z
-x,-y,z
x,-y,-z
-x,y,-z
-x,-y,-z
x,y,-z
-x,y,z
x,-y,z
x,1/2+y,1/2+z
-x,1/2-y,1/2+z
x,1/2-y,1/2-z
-x,1/2+y,1/2-z
-x,1/2-y,1/2-z
x,1/2+y,1/2-z
-x,1/2+y,1/2+z
x,1/2-y,1/2+z
1/2+x,y,1/2+z
1/2-x,-y,1/2+z
1/2+x,-y,1/2-z
1/2-x,y,1/2-z
1/2-x,-y,1/2-z
1/2+x,y,1/2-z
1/2-x,y,1/2+z
1/2+x,-y,1/2+z
1/2+x,1/2+y,z
1/2-x,1/2-y,z
1/2+x,1/2-y,-z
1/2-x,1/2+y,-z
1/2-x,1/2-y,-z
1/2+x,1/2+y,-z
1/2-x,1/2+y,z
1/2+x,1/2-y,z
loop_
_atom_site_type_symbol
_atom_site_label
_atom_site_fract_x
_atom_site_fract_y
_atom_site_fract_z
Si Si1 0.173439 0.585837 0.841947
Si Si2 0.661148 0.087571 0.682869
Si Si3 0.548061 0.680087 0.680430
Si Si4 0.092640 0.587465 0.922428
Si Si5 0.254959 0.166264 0.331299
Si Si6 0.073328 0.157439 0.170207
Si Si7 0.000000 0.087573 0.081242
O O1 0.179992 0.500000 0.853498
O O2 0.161674 0.604515 0.763789
O O3 0.136023 0.616461 0.889361
O O4 0.216759 0.622584 0.866581
O O5 0.700649 0.129242 0.646956
O O6 0.618557 0.122136 0.652157
O O7 0.663651 0.000000 0.667371
O O8 0.500000 0.706363 0.684348
O O9 0.553794 0.622282 0.618839
O O10 0.575626 0.753344 0.664975
O O11 0.560421 0.638575 0.751239
O O12 0.088646 0.500000 0.917216
O O13 0.090479 0.615925 0.000000
O O14 0.250000 0.160123 0.250000
O O15 0.250000 0.250000 0.357207
O O16 0.041150 0.123008 0.115673
O O17 0.000000 0.000000 0.094690
O O18 0.000000 0.105834 0.000000
#
# Coordination Sequence:
#
# PCOD8284243 Si02
#       7
#    32  32  32  32  32  32  16
#     4   9  17  32  52  76 111 149 182 222 273 335
#     4  10  19  31  53  85 112 143 187 237 285 330
#     4  11  22  38  59  85 113 148 189 236 286 345
#     4  10  22  38  57  84 116 152 191 227 277 346
#     4   9  18  28  48  79 115 147 179 226 283 328
#     4  11  21  38  60  83 115 146 187 239 290 333
#     4  11  24  41  60  82 110 149 194 233 280 346
#
# _framework density 18.658460000000002
#
# number of rings (size 3 to 8) (size 9 to 14) (size 15 to 20)
#    0.000    1.923    3.077    1.385    2.154    4.923 
#    0.000    0.769    0.000    1.385    0.000    2.154 
#    0.000    0.000    0.000    0.000    0.000    0.000 
#
# Total GULP energy -644803.856547 kJ/mol
# GULP energy per Si atom -12400.074164 kJ/mol
# Density = 1.861599 g / cm^3
# Si number density = 18.658460 Si / 1000 Ang^3
#
#
#
# Elastic Constant Matrix: (Units=GPa)
#
#
# Indices 1 2 3 4 5 6 
#
# 1 132.0567 53.0532 27.5216 0.0000 0.0000 0.0000
# 2 53.0532 67.3741 37.4242 0.0000 0.0000 0.0000
# 3 27.5216 37.4242 76.5675 0.0000 0.0000 0.0000
# 4 0.0000 0.0000 0.0000 21.8436 0.0000 0.0000
# 5 0.0000 0.0000 0.0000 0.0000 19.6825 0.0000
# 6 0.0000 0.0000 0.0000 0.0000 0.0000 36.9423
#
#
#
# Elastic Compliance Matrix: (Units=1/GPa)
#
#
# Indices 1 2 3 4 5 6 
#
# 1 0.011085 -0.008944 0.000387 0.000000 0.000000 0.000000
# 2 -0.008944 0.027590 -0.010271 0.000000 0.000000 0.000000
# 3 0.000387 -0.010271 0.017941 0.000000 0.000000 0.000000
# 4 0.000000 0.000000 0.000000 0.045780 0.000000 0.000000
# 5 0.000000 0.000000 0.000000 0.000000 0.050807 0.000000
# 6 0.000000 0.000000 0.000000 0.000000 0.000000 0.027069
#
#
# Mechanical properties :
#
#
# Convention : Reuss Voigt Hill
#
# Bulk Modulus (GPa) = 52.73758 56.88848 54.81303
# Shear Modulus (GPa) = 22.29680 26.22696 24.26188
#
# Velocity S-wave (km/s) = 3.46062 3.75325 3.60990
# Velocity P-wave (km/s) = 6.65537 7.02410 6.84222
#
# Compressibility (1/GPa) = 0.01896181
#
# Stress axis : x y z
#
# Youngs Moduli (GPa) = 90.21243 36.24476 55.73746
#
# Poissons Ratio (x) = 0.32416 -0.02158
# Poissons Ratio (y) = 0.80684 0.57246
# Poissons Ratio (z) = -0.03492 0.37226
#
# Static dielectric constant tensor:
#      x y z
#    x 3.580700 0.000000 0.000000 
#    y 0.000000 3.428980 0.000000 
#    z 0.000000 0.000000 3.162310 
# 
# 
# High freq. dielectric constant tensor:
#      x y z
#    x 1.735880 0.000000 0.000000 
#    y 0.000000 1.729600 0.000000 
#    z 0.000000 0.000000 1.682010 
# 
# From -- ./inp_files/33986.got.cif
#   From: 2010.03.12/outbox.cif.g09.slc.cpg/sg69_17_cif.got.tgz:33986.got - 2010.04.10 23:52:46.
