data_PCOD8284685
_publ_section_title
;
Structure prediction by ZEFSAII (Michael W. Deem and Ramdas Pophale) SiO2 
 PCOD8284685
Probable space group: F M M M
;
_chemical_formula_sum "Si O2"
_cell_formula_units_Z 144
_cell_length_a 8.930186
_cell_length_b 29.044487
_cell_length_c 30.212542
_cell_angle_alpha 90.000000
_cell_angle_beta 90.000000
_cell_angle_gamma 90.000000
_cell_volume 7836.307722
_symmetry_space_group_name_H-M "F M M M"
_symmetry_group_IT_number 69
_symmetry_cell_setting 'orthorhombic'
loop_
_space_group_symop_operation_xyz
x,y,z
-x,-y,z
x,-y,-z
-x,y,-z
-x,-y,-z
x,y,-z
-x,y,z
x,-y,z
x,1/2+y,1/2+z
-x,1/2-y,1/2+z
x,1/2-y,1/2-z
-x,1/2+y,1/2-z
-x,1/2-y,1/2-z
x,1/2+y,1/2-z
-x,1/2+y,1/2+z
x,1/2-y,1/2+z
1/2+x,y,1/2+z
1/2-x,-y,1/2+z
1/2+x,-y,1/2-z
1/2-x,y,1/2-z
1/2-x,-y,1/2-z
1/2+x,y,1/2-z
1/2-x,y,1/2+z
1/2+x,-y,1/2+z
1/2+x,1/2+y,z
1/2-x,1/2-y,z
1/2+x,1/2-y,-z
1/2-x,1/2+y,-z
1/2-x,1/2-y,-z
1/2+x,1/2+y,-z
1/2-x,1/2+y,z
1/2+x,1/2-y,z
loop_
_atom_site_type_symbol
_atom_site_label
_atom_site_fract_x
_atom_site_fract_y
_atom_site_fract_z
Si Si1 0.678330 0.797634 0.797069
Si Si2 0.173261 0.142042 0.131746
Si Si3 0.166031 0.445348 0.000000
Si Si4 0.673620 0.948623 0.412237
Si Si5 0.674853 0.297183 0.950616
O O1 0.500000 0.792561 0.792833
O O2 0.750000 0.810112 0.750000
O O3 0.750000 0.750000 0.814874
O O4 0.719183 0.838505 0.830432
O O5 0.203140 0.087044 0.127930
O O6 0.217641 0.163671 0.084451
O O7 0.000000 0.152372 0.143694
O O8 0.247894 0.428410 0.044151
O O9 0.165054 0.500000 0.000000
O O10 0.000000 0.424551 0.000000
O O11 0.500000 0.950227 0.424127
O O12 0.731085 0.000000 0.398842
O O13 0.500000 0.287981 0.951067
O O14 0.750000 0.250000 0.934968
O O15 0.730452 0.311790 0.000000
#
# Coordination Sequence:
#
# PCOD8284685 Si02
#       5
#    32  32  16  32  32
#     4  11  22  38  60  84 111 137 171 213 265 320
#     4  10  20  33  53  78 106 138 178 222 266 316
#     4   9  17  29  45  67  98 135 178 229 275 311
#     4   9  18  32  51  74 102 140 183 225 269 318
#     4   9  18  31  46  66  97 136 173 209 251 301
#
# _framework density 18.376000999999999
#
# number of rings (size 3 to 8) (size 9 to 14) (size 15 to 20)
#    0.000    2.333    0.000    3.667    1.556    4.889 
#    0.000    0.000    0.000    0.667    0.000    0.000 
#    0.000    0.000    0.000    0.000    0.000    0.000 
#
# Total GULP energy -446324.512242 kJ/mol
# GULP energy per Si atom -12397.903118 kJ/mol
# Density = 1.833418 g / cm^3
# Si number density = 18.376001 Si / 1000 Ang^3
#
#
#
# Elastic Constant Matrix: (Units=GPa)
#
#
# Indices 1 2 3 4 5 6 
#
# 1 87.1716 42.3434 46.7484 0.0000 0.0000 0.0000
# 2 42.3434 100.2997 55.0981 0.0000 0.0000 0.0000
# 3 46.7484 55.0981 82.8419 0.0000 0.0000 0.0000
# 4 0.0000 0.0000 0.0000 21.4392 0.0000 0.0000
# 5 0.0000 0.0000 0.0000 0.0000 24.5842 0.0000
# 6 0.0000 0.0000 0.0000 0.0000 0.0000 20.8633
#
#
#
# Elastic Compliance Matrix: (Units=1/GPa)
#
#
# Indices 1 2 3 4 5 6 
#
# 1 0.017006 -0.003006 -0.007597 0.000000 0.000000 0.000000
# 2 -0.003006 0.016241 -0.009106 0.000000 0.000000 0.000000
# 3 -0.007597 -0.009106 0.022415 0.000000 0.000000 0.000000
# 4 0.000000 0.000000 0.000000 0.046644 0.000000 0.000000
# 5 0.000000 0.000000 0.000000 0.000000 0.040677 0.000000
# 6 0.000000 0.000000 0.000000 0.000000 0.000000 0.047931
#
#
# Mechanical properties :
#
#
# Convention : Reuss Voigt Hill
#
# Bulk Modulus (GPa) = 61.56194 62.07698 61.81946
# Shear Modulus (GPa) = 21.20927 21.78557 21.49742
#
# Velocity S-wave (km/s) = 3.40101 3.44691 3.42404
# Velocity P-wave (km/s) = 6.99975 7.04957 7.02471
#
# Compressibility (1/GPa) = 0.01624380
#
# Stress axis : x y z
#
# Youngs Moduli (GPa) = 58.80245 61.57175 44.61346
#
# Poissons Ratio (x) = 0.18508 0.33895
# Poissons Ratio (y) = 0.17675 0.40624
# Poissons Ratio (z) = 0.44675 0.56066
#
# Static dielectric constant tensor:
#      x y z
#    x 3.379290 0.000000 0.000000 
#    y 0.000000 3.548280 0.000000 
#    z 0.000000 0.000000 3.288680 
# 
# 
# High freq. dielectric constant tensor:
#      x y z
#    x 1.709690 0.000000 0.000000 
#    y 0.000000 1.707480 0.000000 
#    z 0.000000 0.000000 1.692040 
# 
# From -- ./inp_files/5524.got.cif
#   From: 2010.03.12/outbox.cif.g09.slc.cpg/sg69_3_cif.got.tgz:5524.got - 2010.04.10 23:52:46.
