data_PCOD8284198
_publ_section_title
;
Structure prediction by ZEFSAII (Michael W. Deem and Ramdas Pophale) SiO2 
 PCOD8284198
Probable space group: F M M M
;
_chemical_formula_sum "Si O2"
_cell_formula_units_Z 128
_cell_length_a 25.347181
_cell_length_b 33.900217
_cell_length_c 8.625074
_cell_angle_alpha 90.000000
_cell_angle_beta 90.000000
_cell_angle_gamma 90.000000
_cell_volume 7411.309911
_symmetry_space_group_name_H-M "F M M M"
_symmetry_group_IT_number 69
_symmetry_cell_setting 'orthorhombic'
loop_
_space_group_symop_operation_xyz
x,y,z
-x,-y,z
x,-y,-z
-x,y,-z
-x,-y,-z
x,y,-z
-x,y,z
x,-y,z
x,1/2+y,1/2+z
-x,1/2-y,1/2+z
x,1/2-y,1/2-z
-x,1/2+y,1/2-z
-x,1/2-y,1/2-z
x,1/2+y,1/2-z
-x,1/2+y,1/2+z
x,1/2-y,1/2+z
1/2+x,y,1/2+z
1/2-x,-y,1/2+z
1/2+x,-y,1/2-z
1/2-x,y,1/2-z
1/2-x,-y,1/2-z
1/2+x,y,1/2-z
1/2-x,y,1/2+z
1/2+x,-y,1/2+z
1/2+x,1/2+y,z
1/2-x,1/2-y,z
1/2+x,1/2-y,-z
1/2-x,1/2+y,-z
1/2-x,1/2-y,-z
1/2+x,1/2+y,-z
1/2-x,1/2+y,z
1/2+x,1/2-y,z
loop_
_atom_site_type_symbol
_atom_site_label
_atom_site_fract_x
_atom_site_fract_y
_atom_site_fract_z
Si Si1 0.000000 0.793355 0.816726
Si Si2 0.306814 0.208351 0.817217
Si Si3 0.937345 0.000000 0.825151
Si Si4 0.601762 0.659032 0.182309
Si Si5 0.061594 0.581155 0.819041
O O1 0.000000 0.750000 0.750000
O O2 0.948567 0.816390 0.756576
O O3 0.000000 0.791232 0.000000
O O4 0.327163 0.250000 0.750000
O O5 0.250000 0.197104 0.750000
O O6 0.346939 0.174132 0.771188
O O7 0.302564 0.212174 0.000000
O O8 0.916958 0.038580 0.734793
O O9 0.000000 0.000000 0.825961
O O10 0.915042 0.000000 0.000000
O O11 0.593960 0.613383 0.223081
O O12 0.610000 0.664147 0.000000
O O13 0.000000 0.585729 0.778843
O O14 0.072441 0.586516 0.000000
#
# Coordination Sequence:
#
# PCOD8284198 Si02
#       5
#    16  32  16  32  32
#     4  10  22  34  48  69 100 137 172 206 251 306
#     4  11  22  38  57  78 101 133 174 221 267 310
#     4   9  17  29  47  69  98 137 174 211 255 306
#     4  11  21  35  52  75 104 139 175 214 259 310
#     4  10  19  31  48  73 104 138 174 214 256 307
#
# _framework density 17.270900999999999
#
# number of rings (size 3 to 8) (size 9 to 14) (size 15 to 20)
#    0.000    1.625    1.250    5.625    0.000    6.500 
#    0.000    0.000    0.000    0.000    0.000    0.875 
#    0.000    0.000    0.000    0.000    0.000    0.000 
#
# Total GULP energy -396954.506927 kJ/mol
# GULP energy per Si atom -12404.828341 kJ/mol
# Density = 1.723159 g / cm^3
# Si number density = 17.270901 Si / 1000 Ang^3
#
#
#
# Elastic Constant Matrix: (Units=GPa)
#
#
# Indices 1 2 3 4 5 6 
#
# 1 72.3464 48.1311 34.6053 -0.0062 0.0242 0.0092
# 2 48.1311 129.0801 32.5343 -0.0139 0.0199 0.0133
# 3 34.6053 32.5343 99.1180 -0.0411 0.0838 0.0313
# 4 -0.0062 -0.0139 -0.0411 35.9180 0.0235 0.0122
# 5 0.0242 0.0199 0.0838 0.0235 23.2444 -0.0176
# 6 0.0092 0.0133 0.0313 0.0122 -0.0176 16.4256
#
#
#
# Elastic Compliance Matrix: (Units=1/GPa)
#
#
# Indices 1 2 3 4 5 6 
#
# 1 0.020473 -0.006358 -0.005061 -0.000005 0.000002 0.000003
# 2 -0.006358 0.010421 -0.001201 0.000002 0.000002 -0.000003
# 3 -0.005061 -0.001201 0.012250 0.000013 -0.000038 -0.000020
# 4 -0.000005 0.000002 0.000013 0.027841 -0.000028 -0.000021
# 5 0.000002 0.000002 -0.000038 -0.000028 0.043021 0.000046
# 6 0.000003 -0.000003 -0.000020 -0.000021 0.000046 0.060881
#
#
# Mechanical properties :
#
#
# Convention : Reuss Voigt Hill
#
# Bulk Modulus (GPa) = 55.85231 59.00952 57.43092
# Shear Modulus (GPa) = 24.26065 27.46917 25.86491
#
# Velocity S-wave (km/s) = 3.75202 3.99242 3.87408
# Velocity P-wave (km/s) = 7.15397 7.44941 7.30319
#
# Compressibility (1/GPa) = 0.01790436
#
# Stress axis : x y z
#
# Youngs Moduli (GPa) = 48.84404 95.96334 81.63285
#
# Poissons Ratio (x) = 0.61018 0.41313
# Poissons Ratio (y) = 0.31057 0.09800
# Poissons Ratio (z) = 0.24719 0.11520
#
# Static dielectric constant tensor:
#      x y z
#    x 3.008440 -0.000020 0.000000 
#    y -0.000020 3.273250 0.000030 
#    z 0.000000 0.000030 3.315850 
# 
# 
# High freq. dielectric constant tensor:
#      x y z
#    x 1.630680 0.000000 0.000000 
#    y 0.000000 1.672690 0.000000 
#    z 0.000000 0.000000 1.683730 
# 
# From -- ./inp_files/4776.got.cif
#   From: 2010.03.12/outbox.cif.g09.slc.cpg/sg69_3_cif.got.tgz:4776.got - 2010.04.10 23:52:46.
