data_PCOD8284070
_publ_section_title
;
Structure prediction by ZEFSAII (Michael W. Deem and Ramdas Pophale) SiO2 
 PCOD8284070
Probable space group: F M M M
;
_chemical_formula_sum "Si O2"
_cell_formula_units_Z 160
_cell_length_a 18.046405
_cell_length_b 31.639021
_cell_length_c 15.256430
_cell_angle_alpha 90.000000
_cell_angle_beta 90.000000
_cell_angle_gamma 90.000000
_cell_volume 8710.972789
_symmetry_space_group_name_H-M "F M M M"
_symmetry_group_IT_number 69
_symmetry_cell_setting 'orthorhombic'
loop_
_space_group_symop_operation_xyz
x,y,z
-x,-y,z
x,-y,-z
-x,y,-z
-x,-y,-z
x,y,-z
-x,y,z
x,-y,z
x,1/2+y,1/2+z
-x,1/2-y,1/2+z
x,1/2-y,1/2-z
-x,1/2+y,1/2-z
-x,1/2-y,1/2-z
x,1/2+y,1/2-z
-x,1/2+y,1/2+z
x,1/2-y,1/2+z
1/2+x,y,1/2+z
1/2-x,-y,1/2+z
1/2+x,-y,1/2-z
1/2-x,y,1/2-z
1/2-x,-y,1/2-z
1/2+x,y,1/2-z
1/2-x,y,1/2+z
1/2+x,-y,1/2+z
1/2+x,1/2+y,z
1/2-x,1/2-y,z
1/2+x,1/2-y,-z
1/2-x,1/2+y,-z
1/2-x,1/2-y,-z
1/2+x,1/2+y,-z
1/2-x,1/2+y,z
1/2+x,1/2-y,z
loop_
_atom_site_type_symbol
_atom_site_label
_atom_site_fract_x
_atom_site_fract_y
_atom_site_fract_z
Si Si1 0.708947 0.952964 0.000000
Si Si2 0.301763 0.938397 0.328368
Si Si3 0.793295 0.656983 0.666344
Si Si4 0.191390 0.640472 0.000000
Si Si5 0.913879 0.273000 0.658947
Si Si6 0.586403 0.784910 0.000000
Si Si7 0.587104 0.000000 0.603672
O O1 0.759311 0.949852 0.084082
O O2 0.662057 0.908712 0.000000
O O3 0.668202 0.000000 0.000000
O O4 0.250000 0.956061 0.250000
O O5 0.321512 0.889779 0.310528
O O6 0.381118 0.960289 0.341535
O O7 0.750000 0.676227 0.750000
O O8 0.739658 0.653271 0.583706
O O9 0.865101 0.685155 0.647326
O O10 0.118138 0.668162 0.000000
O O11 0.899248 0.250000 0.750000
O O12 0.887155 0.240471 0.585119
O O13 0.000000 0.285914 0.647715
O O14 0.500000 0.791485 0.000000
O O15 0.500000 0.000000 0.614604
O O16 0.608957 0.000000 0.500000
#
# Coordination Sequence:
#
# PCOD8284070 Si02
#       7
#    16  32  32  16  32  16  16
#     4  10  18  33  55  82 105 134 181 222 272 331
#     4  10  19  34  56  80 110 147 182 221 274 331
#     4  10  21  34  53  83 108 136 185 224 265 315
#     4  10  21  34  54  81 106 136 175 231 269 309
#     4  10  21  36  54  74 106 146 177 215 269 323
#     4  10  21  37  54  76 105 143 181 213 271 332
#     4  11  21  34  54  83 115 147 181 225 283 334
#
# _framework density 18.367637999999999
#
# number of rings (size 3 to 8) (size 9 to 14) (size 15 to 20)
#    0.000    1.900    2.000    2.100    0.000    4.400 
#    0.000    0.000    0.000    7.500    0.000    0.000 
#    0.000    0.000    0.000    0.000    0.000    0.000 
#
# Total GULP energy -495661.060266 kJ/mol
# GULP energy per Si atom -12391.526507 kJ/mol
# Density = 1.832583 g / cm^3
# Si number density = 18.367638 Si / 1000 Ang^3
#
#
#
# Elastic Constant Matrix: (Units=GPa)
#
#
# Indices 1 2 3 4 5 6 
#
# 1 75.9721 64.8390 37.9297 0.0000 0.0000 0.0000
# 2 64.8390 147.3045 37.7825 0.0000 0.0000 0.0000
# 3 37.9297 37.7825 129.6023 0.0000 0.0000 0.0000
# 4 0.0000 0.0000 0.0000 37.1703 0.0000 0.0000
# 5 0.0000 0.0000 0.0000 0.0000 95.1750 0.0000
# 6 0.0000 0.0000 0.0000 0.0000 0.0000 17.1794
#
#
#
# Elastic Compliance Matrix: (Units=1/GPa)
#
#
# Indices 1 2 3 4 5 6 
#
# 1 0.022910 -0.009041 -0.004069 0.000000 0.000000 0.000000
# 2 -0.009041 0.010905 -0.000533 0.000000 0.000000 0.000000
# 3 -0.004069 -0.000533 0.009062 0.000000 0.000000 0.000000
# 4 0.000000 0.000000 0.000000 0.026903 0.000000 0.000000
# 5 0.000000 0.000000 0.000000 0.000000 0.010507 0.000000
# 6 0.000000 0.000000 0.000000 0.000000 0.000000 0.058209
#
#
# Mechanical properties :
#
#
# Convention : Reuss Voigt Hill
#
# Bulk Modulus (GPa) = 64.13973 70.44237 67.29105
# Shear Modulus (GPa) = 29.24320 44.06014 36.65167
#
# Velocity S-wave (km/s) = 3.99445 4.90306 4.47189
# Velocity P-wave (km/s) = 7.50133 8.39571 7.96109
#
# Compressibility (1/GPa) = 0.01559096
#
# Stress axis : x y z
#
# Youngs Moduli (GPa) = 43.64870 91.70249 110.34729
#
# Poissons Ratio (x) = 0.82905 0.44904
# Poissons Ratio (y) = 0.39461 0.05884
# Poissons Ratio (z) = 0.17762 0.04890
#
# Static dielectric constant tensor:
#      x y z
#    x 3.091280 0.000000 0.000000 
#    y 0.000000 3.816620 0.000000 
#    z 0.000000 0.000000 3.529220 
# 
# 
# High freq. dielectric constant tensor:
#      x y z
#    x 1.680440 0.000000 0.000000 
#    y 0.000000 1.724070 0.000000 
#    z 0.000000 0.000000 1.732550 
# 
# From -- ./inp_files/15722.got.cif
#   From: 2010.03.12/outbox.cif.g09.slc.cpg/sg69_8_cif.got.tgz:15722.got - 2010.04.10 23:52:46.
