data_PCOD8284732
_publ_section_title
;
Structure prediction by ZEFSAII (Michael W. Deem and Ramdas Pophale) SiO2 
 PCOD8284732
Probable space group: F M M M
;
_chemical_formula_sum "Si O2"
_cell_formula_units_Z 144
_cell_length_a 8.847906
_cell_length_b 26.999840
_cell_length_c 31.663492
_cell_angle_alpha 90.000000
_cell_angle_beta 90.000000
_cell_angle_gamma 90.000000
_cell_volume 7564.156398
_symmetry_space_group_name_H-M "F M M M"
_symmetry_group_IT_number 69
_symmetry_cell_setting 'orthorhombic'
loop_
_space_group_symop_operation_xyz
x,y,z
-x,-y,z
x,-y,-z
-x,y,-z
-x,-y,-z
x,y,-z
-x,y,z
x,-y,z
x,1/2+y,1/2+z
-x,1/2-y,1/2+z
x,1/2-y,1/2-z
-x,1/2+y,1/2-z
-x,1/2-y,1/2-z
x,1/2+y,1/2-z
-x,1/2+y,1/2+z
x,1/2-y,1/2+z
1/2+x,y,1/2+z
1/2-x,-y,1/2+z
1/2+x,-y,1/2-z
1/2-x,y,1/2-z
1/2-x,-y,1/2-z
1/2+x,y,1/2-z
1/2-x,y,1/2+z
1/2+x,-y,1/2+z
1/2+x,1/2+y,z
1/2-x,1/2-y,z
1/2+x,1/2-y,-z
1/2-x,1/2+y,-z
1/2-x,1/2-y,-z
1/2+x,1/2+y,-z
1/2-x,1/2+y,z
1/2+x,1/2-y,z
loop_
_atom_site_type_symbol
_atom_site_label
_atom_site_fract_x
_atom_site_fract_y
_atom_site_fract_z
Si Si1 0.675481 0.556643 0.879234
Si Si2 0.823618 0.197419 0.333233
Si Si3 0.322076 0.303816 0.000000
Si Si4 0.675159 0.853956 0.920879
Si Si5 0.323244 0.605687 0.792420
O O1 0.500000 0.567827 0.888072
O O2 0.717098 0.500000 0.888643
O O3 0.775209 0.590069 0.910352
O O4 0.714606 0.568296 0.830532
O O5 0.750000 0.250000 0.324871
O O6 0.791628 0.181290 0.381230
O O7 0.748123 0.159205 0.301166
O O8 0.000000 0.199847 0.323451
O O9 0.250000 0.250000 0.000000
O O10 0.273836 0.334192 0.959108
O O11 0.500000 0.296966 0.000000
O O12 0.500000 0.853780 0.933640
O O13 0.500000 0.612115 0.785704
O O14 0.250000 0.583219 0.750000
#
# Coordination Sequence:
#
# PCOD8284732 Si02
#       5
#    32  32  16  32  32
#     4   9  19  37  59  81 108 144 182 222 273 327
#     4  10  20  34  53  76 104 140 179 219 267 322
#     4  12  24  38  59  86 117 150 182 219 263 315
#     4  10  21  37  57  83 113 143 180 225 270 319
#     4  10  20  34  52  76 107 140 178 224 270 320
#
# _framework density 19.037153
#
# number of rings (size 3 to 8) (size 9 to 14) (size 15 to 20)
#    0.000    2.000    0.000    3.667    0.000    6.667 
#    0.000    2.778    0.000    3.333    0.000    0.000 
#    0.000    0.000    0.000    0.000    0.000    0.000 
#
# Total GULP energy -446570.993315 kJ/mol
# GULP energy per Si atom -12404.749814 kJ/mol
# Density = 1.899382 g / cm^3
# Si number density = 19.037153 Si / 1000 Ang^3
#
#
#
# Elastic Constant Matrix: (Units=GPa)
#
#
# Indices 1 2 3 4 5 6 
#
# 1 110.6640 38.8692 50.8170 0.0000 0.0000 0.0000
# 2 38.8692 96.9158 26.4342 0.0000 0.0000 0.0000
# 3 50.8170 26.4342 91.7042 0.0000 0.0000 0.0000
# 4 0.0000 0.0000 0.0000 15.2842 0.0000 0.0000
# 5 0.0000 0.0000 0.0000 0.0000 35.0318 0.0000
# 6 0.0000 0.0000 0.0000 0.0000 0.0000 32.2783
#
#
#
# Elastic Compliance Matrix: (Units=1/GPa)
#
#
# Indices 1 2 3 4 5 6 
#
# 1 0.013169 -0.003572 -0.006268 0.000000 0.000000 0.000000
# 2 -0.003572 0.012168 -0.001528 0.000000 0.000000 0.000000
# 3 -0.006268 -0.001528 0.014818 0.000000 0.000000 0.000000
# 4 0.000000 0.000000 0.000000 0.065427 0.000000 0.000000
# 5 0.000000 0.000000 0.000000 0.000000 0.028546 0.000000
# 6 0.000000 0.000000 0.000000 0.000000 0.000000 0.030981
#
#
# Mechanical properties :
#
#
# Convention : Reuss Voigt Hill
#
# Bulk Modulus (GPa) = 57.40751 59.05831 58.23291
# Shear Modulus (GPa) = 25.81970 28.72977 27.27473
#
# Velocity S-wave (km/s) = 3.68677 3.88898 3.78922
# Velocity P-wave (km/s) = 6.95298 7.15930 7.05690
#
# Compressibility (1/GPa) = 0.01741932
#
# Stress axis : x y z
#
# Youngs Moduli (GPa) = 75.93445 82.18541 67.48366
#
# Poissons Ratio (x) = 0.29357 0.42298
# Poissons Ratio (y) = 0.27124 0.10311
# Poissons Ratio (z) = 0.47595 0.12557
#
# Static dielectric constant tensor:
#      x y z
#    x 3.573970 0.000000 0.000000 
#    y 0.000000 3.356190 0.000000 
#    z 0.000000 0.000000 3.483470 
# 
# 
# High freq. dielectric constant tensor:
#      x y z
#    x 1.752490 0.000000 0.000000 
#    y 0.000000 1.738150 0.000000 
#    z 0.000000 0.000000 1.736770 
# 
# From -- ./inp_files/5537.got.cif
#   From: 2010.03.12/outbox.cif.g09.slc.cpg/sg69_3_cif.got.tgz:5537.got - 2010.04.10 23:52:46.
