data_PCOD8284848
_publ_section_title
;
Structure prediction by ZEFSAII (Michael W. Deem and Ramdas Pophale) SiO2 
 PCOD8284848
Probable space group: F M M M
;
_chemical_formula_sum "Si O2"
_cell_formula_units_Z 176
_cell_length_a 16.999934
_cell_length_b 27.397418
_cell_length_c 20.840201
_cell_angle_alpha 90.000000
_cell_angle_beta 90.000000
_cell_angle_gamma 90.000000
_cell_volume 9706.413182
_symmetry_space_group_name_H-M "F M M M"
_symmetry_group_IT_number 69
_symmetry_cell_setting 'orthorhombic'
loop_
_space_group_symop_operation_xyz
x,y,z
-x,-y,z
x,-y,-z
-x,y,-z
-x,-y,-z
x,y,-z
-x,y,z
x,-y,z
x,1/2+y,1/2+z
-x,1/2-y,1/2+z
x,1/2-y,1/2-z
-x,1/2+y,1/2-z
-x,1/2-y,1/2-z
x,1/2+y,1/2-z
-x,1/2+y,1/2+z
x,1/2-y,1/2+z
1/2+x,y,1/2+z
1/2-x,-y,1/2+z
1/2+x,-y,1/2-z
1/2-x,y,1/2-z
1/2-x,-y,1/2-z
1/2+x,y,1/2-z
1/2-x,y,1/2+z
1/2+x,-y,1/2+z
1/2+x,1/2+y,z
1/2-x,1/2-y,z
1/2+x,1/2-y,-z
1/2-x,1/2+y,-z
1/2-x,1/2-y,-z
1/2+x,1/2+y,-z
1/2-x,1/2+y,z
1/2+x,1/2-y,z
loop_
_atom_site_type_symbol
_atom_site_label
_atom_site_fract_x
_atom_site_fract_y
_atom_site_fract_z
Si Si1 0.907827 0.280858 0.812478
Si Si2 0.908926 0.209994 0.927003
Si Si3 0.090854 0.555621 0.734885
Si Si4 0.159353 0.890894 0.884032
Si Si5 0.588172 0.943185 0.500000
Si Si6 0.193280 0.622838 0.191523
O O1 0.880085 0.250000 0.750000
O O2 0.886810 0.252763 0.877944
O O3 0.863046 0.331505 0.819326
O O4 0.000000 0.292293 0.806469
O O5 0.861226 0.162990 0.906192
O O6 0.000000 0.196606 0.921596
O O7 0.886982 0.225512 0.000000
O O8 0.115190 0.500000 0.717823
O O9 0.108198 0.592491 0.676859
O O10 0.141636 0.574411 0.795125
O O11 0.000000 0.558631 0.753302
O O12 0.252752 0.890471 0.869705
O O13 0.139375 0.928890 0.939102
O O14 0.500000 0.918746 0.500000
O O15 0.575732 0.000000 0.500000
O O16 0.250000 0.636570 0.250000
#
# Coordination Sequence:
#
# PCOD8284848 Si02
#       6
#    32  32  32  32  16  32
#     4  10  20  36  58  81 107 148 197 235 275 329
#     4  10  20  35  55  79 110 148 185 229 279 329
#     4  10  20  35  57  82 107 142 185 228 279 338
#     4  11  21  34  53  81 114 146 178 224 281 339
#     4  11  22  36  56  79 107 145 187 228 269 330
#     4  10  22  35  52  79 114 143 176 226 283 330
#
# _framework density 18.132341
#
# number of rings (size 3 to 8) (size 9 to 14) (size 15 to 20)
#    0.000    1.727    0.909    4.909    0.000    9.455 
#    1.636    0.909    0.000    0.000    0.000    0.000 
#    0.000    2.909    0.000    0.000    0.000    0.000 
#
# Total GULP energy -545577.636156 kJ/mol
# GULP energy per Si atom -12399.491731 kJ/mol
# Density = 1.809107 g / cm^3
# Si number density = 18.132341 Si / 1000 Ang^3
#
#
#
# Elastic Constant Matrix: (Units=GPa)
#
#
# Indices 1 2 3 4 5 6 
#
# 1 79.4846 46.6771 54.4601 0.0000 0.0000 0.0000
# 2 46.6771 82.5130 42.9888 0.0000 0.0000 0.0000
# 3 54.4601 42.9888 111.3870 0.0000 0.0000 0.0000
# 4 0.0000 0.0000 0.0000 32.8100 0.0000 0.0000
# 5 0.0000 0.0000 0.0000 0.0000 27.7887 0.0000
# 6 0.0000 0.0000 0.0000 0.0000 0.0000 9.6571
#
#
#
# Elastic Compliance Matrix: (Units=1/GPa)
#
#
# Indices 1 2 3 4 5 6 
#
# 1 0.023326 -0.009079 -0.007901 0.000000 0.000000 0.000000
# 2 -0.009079 0.018703 -0.002779 0.000000 0.000000 0.000000
# 3 -0.007901 -0.002779 0.013913 0.000000 0.000000 0.000000
# 4 0.000000 0.000000 0.000000 0.030478 0.000000 0.000000
# 5 0.000000 0.000000 0.000000 0.000000 0.035986 0.000000
# 6 0.000000 0.000000 0.000000 0.000000 0.000000 0.103550
#
#
# Mechanical properties :
#
#
# Convention : Reuss Voigt Hill
#
# Bulk Modulus (GPa) = 60.88577 62.40408 61.64492
# Shear Modulus (GPa) = 18.45356 22.66842 20.56099
#
# Velocity S-wave (km/s) = 3.19363 3.53960 3.37106
# Velocity P-wave (km/s) = 6.87390 7.15511 7.01591
#
# Compressibility (1/GPa) = 0.01642420
#
# Stress axis : x y z
#
# Youngs Moduli (GPa) = 42.87046 53.46630 71.87399
#
# Poissons Ratio (x) = 0.48543 0.56786
# Poissons Ratio (y) = 0.38923 0.19976
# Poissons Ratio (z) = 0.33871 0.14860
#
# Static dielectric constant tensor:
#      x y z
#    x 3.503990 0.000000 0.000000 
#    y 0.000000 3.390150 0.000000 
#    z 0.000000 0.000000 3.580550 
# 
# 
# High freq. dielectric constant tensor:
#      x y z
#    x 1.702260 0.000000 0.000000 
#    y 0.000000 1.706910 0.000000 
#    z 0.000000 0.000000 1.692480 
# 
# From -- ./inp_files/17883.got.cif
#   From: 2010.03.12/outbox.cif.g09.slc.cpg/sg69_9_cif.got.tgz:17883.got - 2010.04.10 23:52:46.
