data_PCOD8284683
_publ_section_title
;
Structure prediction by ZEFSAII (Michael W. Deem and Ramdas Pophale) SiO2 
 PCOD8284683
Probable space group: F M M M
;
_chemical_formula_sum "Si O2"
_cell_formula_units_Z 208
_cell_length_a 19.529590
_cell_length_b 20.568017
_cell_length_c 26.601334
_cell_angle_alpha 90.000000
_cell_angle_beta 90.000000
_cell_angle_gamma 90.000000
_cell_volume 10685.355228
_symmetry_space_group_name_H-M "F M M M"
_symmetry_group_IT_number 69
_symmetry_cell_setting 'orthorhombic'
loop_
_space_group_symop_operation_xyz
x,y,z
-x,-y,z
x,-y,-z
-x,y,-z
-x,-y,-z
x,y,-z
-x,y,z
x,-y,z
x,1/2+y,1/2+z
-x,1/2-y,1/2+z
x,1/2-y,1/2-z
-x,1/2+y,1/2-z
-x,1/2-y,1/2-z
x,1/2+y,1/2-z
-x,1/2+y,1/2+z
x,1/2-y,1/2+z
1/2+x,y,1/2+z
1/2-x,-y,1/2+z
1/2+x,-y,1/2-z
1/2-x,y,1/2-z
1/2-x,-y,1/2-z
1/2+x,y,1/2-z
1/2-x,y,1/2+z
1/2+x,-y,1/2+z
1/2+x,1/2+y,z
1/2-x,1/2-y,z
1/2+x,1/2-y,-z
1/2-x,1/2+y,-z
1/2-x,1/2-y,-z
1/2+x,1/2+y,-z
1/2-x,1/2+y,z
1/2+x,1/2-y,z
loop_
_atom_site_type_symbol
_atom_site_label
_atom_site_fract_x
_atom_site_fract_y
_atom_site_fract_z
Si Si1 0.328458 0.624661 0.057927
Si Si2 0.081686 0.573744 0.750452
Si Si3 0.576948 0.294236 0.298651
Si Si4 0.573893 0.925339 0.359460
Si Si5 0.326610 0.255032 0.616238
Si Si6 0.172246 0.384192 0.057819
Si Si7 0.077905 0.000000 0.559834
O O1 0.376864 0.583165 0.093388
O O2 0.335830 0.698886 0.075189
O O3 0.251817 0.596344 0.064333
O O4 0.351996 0.619042 0.000000
O O5 0.107736 0.500000 0.765910
O O6 0.106488 0.632052 0.787792
O O7 0.107409 0.594939 0.694324
O O8 0.000000 0.573359 0.749016
O O9 0.500000 0.300924 0.319948
O O10 0.576924 0.250000 0.250000
O O11 0.621674 0.252501 0.337572
O O12 0.500000 0.889737 0.368471
O O13 0.557840 0.000000 0.353771
O O14 0.250000 0.250000 0.638195
O O15 0.344504 0.320556 0.588154
O O16 0.120654 0.438323 0.079577
O O17 0.155981 0.370556 0.000000
O O18 0.076069 0.000000 0.500000
O O19 0.000000 0.000000 0.581568
#
# Coordination Sequence:
#
# PCOD8284683 Si02
#       7
#    32  32  32  32  32  32  16
#     4  10  20  33  53  77 106 146 188 225 264 318
#     4   8  15  31  53  76 106 143 180 222 276 333
#     4  10  20  34  55  81 107 139 183 228 273 334
#     4   9  18  32  51  77 109 143 180 224 271 318
#     4  10  21  37  54  78 107 142 180 227 274 322
#     4   9  19  36  56  77 105 141 181 220 266 326
#     4   9  18  34  56  80 105 136 175 223 278 331
#
# _framework density 19.465893999999999
#
# number of rings (size 3 to 8) (size 9 to 14) (size 15 to 20)
#    0.000    2.692    0.000    2.308    1.077    5.231 
#    1.385    0.769    0.000    2.769    0.000    5.385 
#    0.000    0.000    0.000    0.000    0.000    0.000 
#
# Total GULP energy -644295.879428 kJ/mol
# GULP energy per Si atom -12390.305374 kJ/mol
# Density = 1.942159 g / cm^3
# Si number density = 19.465894 Si / 1000 Ang^3
#
#
#
# Elastic Constant Matrix: (Units=GPa)
#
#
# Indices 1 2 3 4 5 6 
#
# 1 85.4274 39.9764 35.2437 0.0000 0.0000 0.0000
# 2 39.9764 85.9028 13.5384 0.0000 0.0000 0.0000
# 3 35.2437 13.5384 48.8623 0.0000 0.0000 0.0000
# 4 0.0000 0.0000 0.0000 21.8426 0.0000 0.0000
# 5 0.0000 0.0000 0.0000 0.0000 20.7735 0.0000
# 6 0.0000 0.0000 0.0000 0.0000 0.0000 26.1405
#
#
#
# Elastic Compliance Matrix: (Units=1/GPa)
#
#
# Indices 1 2 3 4 5 6 
#
# 1 0.020451 -0.007521 -0.012667 0.000000 0.000000 0.000000
# 2 -0.007521 0.014938 0.001286 0.000000 0.000000 0.000000
# 3 -0.012667 0.001286 0.029246 0.000000 0.000000 0.000000
# 4 0.000000 0.000000 0.000000 0.045782 0.000000 0.000000
# 5 0.000000 0.000000 0.000000 0.000000 0.048138 0.000000
# 6 0.000000 0.000000 0.000000 0.000000 0.000000 0.038255
#
#
# Mechanical properties :
#
#
# Convention : Reuss Voigt Hill
#
# Bulk Modulus (GPa) = 37.27066 44.18994 40.73030
# Shear Modulus (GPa) = 20.52879 22.51358 21.52118
#
# Velocity S-wave (km/s) = 3.25099 3.40452 3.32864
# Velocity P-wave (km/s) = 5.76889 6.18101 5.97850
#
# Compressibility (1/GPa) = 0.02683076
#
# Stress axis : x y z
#
# Youngs Moduli (GPa) = 48.89637 66.94123 34.19239
#
# Poissons Ratio (x) = 0.50347 0.43313
# Poissons Ratio (y) = 0.36775 -0.04396
# Poissons Ratio (z) = 0.61939 -0.08607
#
# Static dielectric constant tensor:
#      x y z
#    x 3.506970 0.000000 0.000000 
#    y 0.000000 3.760280 0.000000 
#    z 0.000000 0.000000 3.488250 
# 
# 
# High freq. dielectric constant tensor:
#      x y z
#    x 1.735310 0.000000 0.000000 
#    y 0.000000 1.767400 0.000000 
#    z 0.000000 0.000000 1.747480 
# 
# From -- ./inp_files/42001.got.cif
#   From: 2010.03.12/outbox.cif.g09.slc.cpg/sg69_22_cif.got.tgz:42001.got - 2010.04.10 23:52:46.
