data_PCOD8284680
_publ_section_title
;
Structure prediction by ZEFSAII (Michael W. Deem and Ramdas Pophale) SiO2 
 PCOD8284680
Probable space group: F M M M
;
_chemical_formula_sum "Si O2"
_cell_formula_units_Z 176
_cell_length_a 18.636932
_cell_length_b 18.467520
_cell_length_c 28.776755
_cell_angle_alpha 90.000000
_cell_angle_beta 90.000000
_cell_angle_gamma 90.000000
_cell_volume 9904.323520
_symmetry_space_group_name_H-M "F M M M"
_symmetry_group_IT_number 69
_symmetry_cell_setting 'orthorhombic'
loop_
_space_group_symop_operation_xyz
x,y,z
-x,-y,z
x,-y,-z
-x,y,-z
-x,-y,-z
x,y,-z
-x,y,z
x,-y,z
x,1/2+y,1/2+z
-x,1/2-y,1/2+z
x,1/2-y,1/2-z
-x,1/2+y,1/2-z
-x,1/2-y,1/2-z
x,1/2+y,1/2-z
-x,1/2+y,1/2+z
x,1/2-y,1/2+z
1/2+x,y,1/2+z
1/2-x,-y,1/2+z
1/2+x,-y,1/2-z
1/2-x,y,1/2-z
1/2-x,-y,1/2-z
1/2+x,y,1/2-z
1/2-x,y,1/2+z
1/2+x,-y,1/2+z
1/2+x,1/2+y,z
1/2-x,1/2-y,z
1/2+x,1/2-y,-z
1/2-x,1/2+y,-z
1/2-x,1/2-y,-z
1/2+x,1/2+y,-z
1/2-x,1/2+y,z
1/2+x,1/2-y,z
loop_
_atom_site_type_symbol
_atom_site_label
_atom_site_fract_x
_atom_site_fract_y
_atom_site_fract_z
Si Si1 0.918523 0.704875 0.296523
Si Si2 0.806354 0.581793 0.711850
Si Si3 0.353145 0.151656 0.445012
Si Si4 0.233232 0.580597 0.887597
Si Si5 0.000000 0.080700 0.055188
Si Si6 0.328523 0.726564 0.623932
O O1 0.913912 0.750000 0.250000
O O2 0.877183 0.630058 0.288818
O O3 0.886477 0.754114 0.337451
O O4 0.000000 0.685482 0.309607
O O5 0.829117 0.500000 0.725133
O O6 0.750000 0.611750 0.750000
O O7 0.771367 0.584850 0.661680
O O8 0.348887 0.157562 0.500000
O O9 0.291081 0.097894 0.427525
O O10 0.429298 0.121535 0.427069
O O11 0.343950 0.231482 0.423963
O O12 0.201481 0.500000 0.896362
O O13 0.169722 0.640533 0.887678
O O14 0.000000 0.000000 0.076267
O O15 0.000000 0.077137 0.000000
O O16 0.250000 0.750000 0.642935
#
# Coordination Sequence:
#
# PCOD8284680 Si02
#       6
#    32  32  32  32  16  32
#     4  11  23  36  55  83 110 142 185 235 284 332
#     4  10  20  35  57  81 108 145 186 226 272 331
#     4  10  20  33  52  80 112 146 182 224 274 336
#     4  10  20  34  52  79 105 138 187 226 270 325
#     4   9  18  32  50  76 110 149 181 213 275 342
#     4  10  20  35  55  78 106 147 182 227 271 337
#
# _framework density 17.770018
#
# number of rings (size 3 to 8) (size 9 to 14) (size 15 to 20)
#    0.000    1.909    3.636    1.636    1.273    4.727 
#    0.000    0.000    0.000    1.636    0.000    0.000 
#    0.000    2.182    0.000    0.000    0.000    0.000 
#
# Total GULP energy -545597.534910 kJ/mol
# GULP energy per Si atom -12399.943975 kJ/mol
# Density = 1.772957 g / cm^3
# Si number density = 17.770018 Si / 1000 Ang^3
#
#
#
# Elastic Constant Matrix: (Units=GPa)
#
#
# Indices 1 2 3 4 5 6 
#
# 1 104.6836 70.7991 44.6250 0.0000 0.0000 0.0000
# 2 70.7991 162.8044 35.9795 0.0000 0.0000 0.0000
# 3 44.6250 35.9795 91.2172 0.0000 0.0000 0.0000
# 4 0.0000 0.0000 0.0000 20.3062 0.0000 0.0000
# 5 0.0000 0.0000 0.0000 0.0000 18.8708 0.0000
# 6 0.0000 0.0000 0.0000 0.0000 0.0000 23.2934
#
#
#
# Elastic Compliance Matrix: (Units=1/GPa)
#
#
# Indices 1 2 3 4 5 6 
#
# 1 0.015672 -0.005610 -0.005454 0.000000 0.000000 0.000000
# 2 -0.005610 0.008737 -0.000702 0.000000 0.000000 0.000000
# 3 -0.005454 -0.000702 0.013908 0.000000 0.000000 0.000000
# 4 0.000000 0.000000 0.000000 0.049246 0.000000 0.000000
# 5 0.000000 0.000000 0.000000 0.000000 0.052992 0.000000
# 6 0.000000 0.000000 0.000000 0.000000 0.000000 0.042931
#
#
# Mechanical properties :
#
#
# Convention : Reuss Voigt Hill
#
# Bulk Modulus (GPa) = 67.63562 73.50138 70.56850
# Shear Modulus (GPa) = 23.59106 26.31418 24.95262
#
# Velocity S-wave (km/s) = 3.64755 3.85232 3.75133
# Velocity P-wave (km/s) = 7.47554 7.82557 7.65256
#
# Compressibility (1/GPa) = 0.01478511
#
# Stress axis : x y z
#
# Youngs Moduli (GPa) = 63.80980 114.45613 71.90157
#
# Poissons Ratio (x) = 0.64207 0.39216
# Poissons Ratio (y) = 0.35796 0.05046
# Poissons Ratio (z) = 0.34802 0.08032
#
# Static dielectric constant tensor:
#      x y z
#    x 3.298130 0.000000 0.000000 
#    y 0.000000 3.764340 0.000000 
#    z 0.000000 0.000000 3.244220 
# 
# 
# High freq. dielectric constant tensor:
#      x y z
#    x 1.664830 0.000000 0.000000 
#    y 0.000000 1.695920 0.000000 
#    z 0.000000 0.000000 1.690890 
# 
# From -- ./inp_files/23600.got.cif
#   From: 2010.03.12/outbox.cif.g09.slc.cpg/sg69_12_cif.got.tgz:23600.got - 2010.04.10 23:52:46.
