data_PCOD8284481
_publ_section_title
;
Structure prediction by ZEFSAII (Michael W. Deem and Ramdas Pophale) SiO2 
 PCOD8284481
Probable space group: F M M M
;
_chemical_formula_sum "Si O2"
_cell_formula_units_Z 144
_cell_length_a 13.097984
_cell_length_b 18.294739
_cell_length_c 30.633265
_cell_angle_alpha 90.000000
_cell_angle_beta 90.000000
_cell_angle_gamma 90.000000
_cell_volume 7340.471579
_symmetry_space_group_name_H-M "F M M M"
_symmetry_group_IT_number 69
_symmetry_cell_setting 'orthorhombic'
loop_
_space_group_symop_operation_xyz
x,y,z
-x,-y,z
x,-y,-z
-x,y,-z
-x,-y,-z
x,y,-z
-x,y,z
x,-y,z
x,1/2+y,1/2+z
-x,1/2-y,1/2+z
x,1/2-y,1/2-z
-x,1/2+y,1/2-z
-x,1/2-y,1/2-z
x,1/2+y,1/2-z
-x,1/2+y,1/2+z
x,1/2-y,1/2+z
1/2+x,y,1/2+z
1/2-x,-y,1/2+z
1/2+x,-y,1/2-z
1/2-x,y,1/2-z
1/2-x,-y,1/2-z
1/2+x,y,1/2-z
1/2-x,y,1/2+z
1/2+x,-y,1/2+z
1/2+x,1/2+y,z
1/2-x,1/2-y,z
1/2+x,1/2-y,-z
1/2-x,1/2+y,-z
1/2-x,1/2-y,-z
1/2+x,1/2+y,-z
1/2-x,1/2+y,z
1/2+x,1/2-y,z
loop_
_atom_site_type_symbol
_atom_site_label
_atom_site_fract_x
_atom_site_fract_y
_atom_site_fract_z
Si Si1 0.279298 0.167307 0.810296
Si Si2 0.384489 0.915530 0.265042
Si Si3 0.000000 0.417148 0.952742
Si Si4 0.819213 0.842922 0.589593
Si Si5 0.615728 0.311218 0.051552
O O1 0.250000 0.250000 0.797507
O O2 0.363522 0.135057 0.777188
O O3 0.180612 0.114861 0.805775
O O4 0.323442 0.164614 0.858609
O O5 0.500000 0.907165 0.279531
O O6 0.356877 0.000000 0.254770
O O7 0.102264 0.404473 0.924922
O O8 0.000000 0.500000 0.964952
O O9 0.000000 0.374390 0.000000
O O10 0.703451 0.861894 0.573624
O O11 0.862551 0.769800 0.568013
O O12 0.500000 0.334974 0.065001
O O13 0.628913 0.315309 0.000000
#
# Coordination Sequence:
#
# PCOD8284481 Si02
#       5
#    32  32  16  32  32
#     4  11  22  37  58  91 118 146 194 250 302 355
#     4  10  23  42  62  80 112 161 199 238 299 369
#     4  11  24  40  60  88 125 168 207 247 296 359
#     4  11  21  36  56  89 122 153 195 247 300 354
#     4  10  19  34  59  85 118 160 195 238 297 359
#
# _framework density 19.617269
#
# number of rings (size 3 to 8) (size 9 to 14) (size 15 to 20)
#    0.000    1.444    3.333    5.333    1.556    4.444 
#    0.000    0.000    0.000    0.667    0.000    3.111 
#    0.000    0.000    0.000    0.000    0.000    0.000 
#
# Total GULP energy -446154.223885 kJ/mol
# GULP energy per Si atom -12393.172886 kJ/mol
# Density = 1.957262 g / cm^3
# Si number density = 19.617269 Si / 1000 Ang^3
#
#
#
# Elastic Constant Matrix: (Units=GPa)
#
#
# Indices 1 2 3 4 5 6 
#
# 1 139.2856 26.5273 7.9906 0.0000 0.0000 0.0000
# 2 26.5273 84.3380 18.5018 0.0000 0.0000 0.0000
# 3 7.9906 18.5018 43.5410 0.0000 0.0000 0.0000
# 4 0.0000 0.0000 0.0000 7.7605 0.0000 0.0000
# 5 0.0000 0.0000 0.0000 0.0000 10.0425 0.0000
# 6 0.0000 0.0000 0.0000 0.0000 0.0000 20.8295
#
#
#
# Elastic Compliance Matrix: (Units=1/GPa)
#
#
# Indices 1 2 3 4 5 6 
#
# 1 0.007644 -0.002312 -0.000420 0.000000 0.000000 0.000000
# 2 -0.002312 0.013775 -0.005429 0.000000 0.000000 0.000000
# 3 -0.000420 -0.005429 0.025351 0.000000 0.000000 0.000000
# 4 0.000000 0.000000 0.000000 0.128858 0.000000 0.000000
# 5 0.000000 0.000000 0.000000 0.000000 0.099577 0.000000
# 6 0.000000 0.000000 0.000000 0.000000 0.000000 0.048009
#
#
# Mechanical properties :
#
#
# Convention : Reuss Voigt Hill
#
# Bulk Modulus (GPa) = 32.84393 41.46712 37.15552
# Shear Modulus (GPa) = 14.29856 22.00283 18.15069
#
# Velocity S-wave (km/s) = 2.70270 3.35267 3.04508
# Velocity P-wave (km/s) = 5.14958 6.01425 5.59863
#
# Compressibility (1/GPa) = 0.03044702
#
# Stress axis : x y z
#
# Youngs Moduli (GPa) = 130.82240 72.59359 39.44618
#
# Poissons Ratio (x) = 0.16784 0.01658
# Poissons Ratio (y) = 0.30247 0.21416
# Poissons Ratio (z) = 0.05499 0.39413
#
# Static dielectric constant tensor:
#      x y z
#    x 3.690200 0.000000 0.000000 
#    y 0.000000 3.470730 0.000000 
#    z 0.000000 0.000000 3.528320 
# 
# 
# High freq. dielectric constant tensor:
#      x y z
#    x 1.780900 0.000000 0.000000 
#    y 0.000000 1.739190 0.000000 
#    z 0.000000 0.000000 1.767980 
# 
# From -- ./inp_files/45623.got.cif
#   From: 2010.03.12/outbox.cif.g09.slc.cpg/sg69_23_cif.got.tgz:45623.got - 2010.04.10 23:52:46.
