data_PCOD8284877
_publ_section_title
;
Structure prediction by ZEFSAII (Michael W. Deem and Ramdas Pophale) SiO2 
 PCOD8284877
Probable space group: F M M M
;
_chemical_formula_sum "Si O2"
_cell_formula_units_Z 160
_cell_length_a 16.308616
_cell_length_b 27.871043
_cell_length_c 17.316167
_cell_angle_alpha 90.000000
_cell_angle_beta 90.000000
_cell_angle_gamma 90.000000
_cell_volume 7870.858302
_symmetry_space_group_name_H-M "F M M M"
_symmetry_group_IT_number 69
_symmetry_cell_setting 'orthorhombic'
loop_
_space_group_symop_operation_xyz
x,y,z
-x,-y,z
x,-y,-z
-x,y,-z
-x,-y,-z
x,y,-z
-x,y,z
x,-y,z
x,1/2+y,1/2+z
-x,1/2-y,1/2+z
x,1/2-y,1/2-z
-x,1/2+y,1/2-z
-x,1/2-y,1/2-z
x,1/2+y,1/2-z
-x,1/2+y,1/2+z
x,1/2-y,1/2+z
1/2+x,y,1/2+z
1/2-x,-y,1/2+z
1/2+x,-y,1/2-z
1/2-x,y,1/2-z
1/2-x,-y,1/2-z
1/2+x,y,1/2-z
1/2-x,y,1/2+z
1/2+x,-y,1/2+z
1/2+x,1/2+y,z
1/2-x,1/2-y,z
1/2+x,1/2-y,-z
1/2-x,1/2+y,-z
1/2-x,1/2-y,-z
1/2+x,1/2+y,-z
1/2-x,1/2+y,z
1/2+x,1/2-y,z
loop_
_atom_site_type_symbol
_atom_site_label
_atom_site_fract_x
_atom_site_fract_y
_atom_site_fract_z
Si Si1 0.823747 0.881253 0.196699
Si Si2 0.828575 0.219205 0.412156
Si Si3 0.590049 0.686418 0.913083
Si Si4 0.724651 0.055266 0.911686
Si Si5 0.404690 0.124200 0.152884
O O1 0.750000 0.863685 0.250000
O O2 0.841496 0.838042 0.138950
O O3 0.797323 0.927389 0.145914
O O4 0.898983 0.890687 0.256044
O O5 0.811604 0.201426 0.500000
O O6 0.750000 0.250000 0.382027
O O7 0.904369 0.256097 0.408860
O O8 0.854756 0.173861 0.360581
O O9 0.500000 0.671021 0.884401
O O10 0.605123 0.668454 0.000000
O O11 0.639472 0.083382 0.897717
O O12 0.707581 0.000000 0.893224
O O13 0.753135 0.062684 0.000000
O O14 0.500000 0.128457 0.128582
#
# Coordination Sequence:
#
# PCOD8284877 Si02
#       5
#    32  32  32  32  32
#     4  10  21  37  58  83 113 149 190 233 281 341
#     4  10  20  35  56  83 117 158 201 237 274 329
#     4  10  20  35  57  83 112 148 190 236 282 327
#     4  10  22  41  64  86 109 145 194 243 289 342
#     4  11  23  37  57  88 124 156 186 233 297 354
#
# _framework density 20.328150000000001
#
# number of rings (size 3 to 8) (size 9 to 14) (size 15 to 20)
#    0.000    1.800    0.000    4.800    0.000    8.800 
#    0.000    7.000    0.000    1.800    0.000    7.000 
#    0.000    0.000    0.000    0.000    0.000    0.000 
#
# Total GULP energy -495738.188131 kJ/mol
# GULP energy per Si atom -12393.454703 kJ/mol
# Density = 2.028188 g / cm^3
# Si number density = 20.328150 Si / 1000 Ang^3
#
#
#
# Elastic Constant Matrix: (Units=GPa)
#
#
# Indices 1 2 3 4 5 6 
#
# 1 90.1073 55.4661 52.5010 0.0000 0.0000 0.0000
# 2 55.4661 133.1016 60.7545 0.0000 0.0000 0.0000
# 3 52.5010 60.7545 107.6368 0.0000 0.0000 0.0000
# 4 0.0000 0.0000 0.0000 20.2958 0.0000 0.0000
# 5 0.0000 0.0000 0.0000 0.0000 25.4864 0.0000
# 6 0.0000 0.0000 0.0000 0.0000 0.0000 15.5362
#
#
#
# Elastic Compliance Matrix: (Units=1/GPa)
#
#
# Indices 1 2 3 4 5 6 
#
# 1 0.017317 -0.004527 -0.005891 0.000000 0.000000 0.000000
# 2 -0.004527 0.011304 -0.004172 0.000000 0.000000 0.000000
# 3 -0.005891 -0.004172 0.014519 0.000000 0.000000 0.000000
# 4 0.000000 0.000000 0.000000 0.049271 0.000000 0.000000
# 5 0.000000 0.000000 0.000000 0.000000 0.039237 0.000000
# 6 0.000000 0.000000 0.000000 0.000000 0.000000 0.064366
#
#
# Mechanical properties :
#
#
# Convention : Reuss Voigt Hill
#
# Bulk Modulus (GPa) = 71.64000 74.25435 72.94717
# Shear Modulus (GPa) = 21.75343 23.07195 22.41269
#
# Velocity S-wave (km/s) = 3.27481 3.37259 3.32406
# Velocity P-wave (km/s) = 7.04396 7.19535 7.12006
#
# Compressibility (1/GPa) = 0.01395868
#
# Stress axis : x y z
#
# Youngs Moduli (GPa) = 57.74575 88.46326 68.87531
#
# Poissons Ratio (x) = 0.40051 0.40576
# Poissons Ratio (y) = 0.26144 0.28736
# Poissons Ratio (z) = 0.34020 0.36909
#
# Static dielectric constant tensor:
#      x y z
#    x 3.753370 0.000000 0.000000 
#    y 0.000000 3.485140 0.000000 
#    z 0.000000 0.000000 3.974770 
# 
# 
# High freq. dielectric constant tensor:
#      x y z
#    x 1.789520 0.000000 0.000000 
#    y 0.000000 1.777560 0.000000 
#    z 0.000000 0.000000 1.803210 
# 
# From -- ./inp_files/23148.got.cif
#   From: 2010.03.12/outbox.cif.g09.slc.cpg/sg69_12_cif.got.tgz:23148.got - 2010.04.10 23:52:46.
