data_PCOD8284763
_publ_section_title
;
Structure prediction by ZEFSAII (Michael W. Deem and Ramdas Pophale) SiO2 
 PCOD8284763
Probable space group: F M M M
;
_chemical_formula_sum "Si O2"
_cell_formula_units_Z 144
_cell_length_a 31.190131
_cell_length_b 18.298504
_cell_length_c 13.909824
_cell_angle_alpha 90.000000
_cell_angle_beta 90.000000
_cell_angle_gamma 90.000000
_cell_volume 7938.791921
_symmetry_space_group_name_H-M "F M M M"
_symmetry_group_IT_number 69
_symmetry_cell_setting 'orthorhombic'
loop_
_space_group_symop_operation_xyz
x,y,z
-x,-y,z
x,-y,-z
-x,y,-z
-x,-y,-z
x,y,-z
-x,y,z
x,-y,z
x,1/2+y,1/2+z
-x,1/2-y,1/2+z
x,1/2-y,1/2-z
-x,1/2+y,1/2-z
-x,1/2-y,1/2-z
x,1/2+y,1/2-z
-x,1/2+y,1/2+z
x,1/2-y,1/2+z
1/2+x,y,1/2+z
1/2-x,-y,1/2+z
1/2+x,-y,1/2-z
1/2-x,y,1/2-z
1/2-x,-y,1/2-z
1/2+x,y,1/2-z
1/2-x,y,1/2+z
1/2+x,-y,1/2+z
1/2+x,1/2+y,z
1/2-x,1/2-y,z
1/2+x,1/2-y,-z
1/2-x,1/2+y,-z
1/2-x,1/2-y,-z
1/2+x,1/2+y,-z
1/2-x,1/2+y,z
1/2+x,1/2-y,z
loop_
_atom_site_type_symbol
_atom_site_label
_atom_site_fract_x
_atom_site_fract_y
_atom_site_fract_z
Si Si1 0.083786 0.640091 0.781757
Si Si2 0.251704 0.163096 0.394634
Si Si3 0.449564 0.500000 0.391360
Si Si4 0.179326 0.336454 0.753210
Si Si5 0.549837 0.723343 0.110396
O O1 0.064501 0.570285 0.832502
O O2 0.133696 0.624480 0.761333
O O3 0.060309 0.654586 0.679368
O O4 0.078016 0.708381 0.853954
O O5 0.252207 0.128114 0.500000
O O6 0.250000 0.250000 0.396624
O O7 0.208585 0.136902 0.341942
O O8 0.295356 0.137871 0.342237
O O9 0.500000 0.500000 0.399543
O O10 0.430100 0.500000 0.500000
O O11 0.171891 0.250000 0.750000
O O12 0.500000 0.744290 0.119650
O O13 0.561811 0.704312 0.000000
#
# Coordination Sequence:
#
# PCOD8284763 Si02
#       5
#    32  32  16  32  32
#     4  11  20  35  55  79 109 140 177 228 268 316
#     4   8  15  26  44  69 105 142 167 206 261 313
#     4  11  24  40  57  78 107 145 182 220 275 333
#     4   9  16  29  45  75 107 133 174 215 260 313
#     4  10  20  34  54  79 104 135 176 223 277 325
#
# _framework density 18.138779
#
# number of rings (size 3 to 8) (size 9 to 14) (size 15 to 20)
#    0.000    2.333    2.222    4.667    0.000    4.444 
#    0.000    0.556    0.000    4.667    0.000    1.556 
#    0.000    0.000    0.000    0.000    0.000    0.000 
#
# Total GULP energy -446261.304423 kJ/mol
# GULP energy per Si atom -12396.147345 kJ/mol
# Density = 1.809749 g / cm^3
# Si number density = 18.138779 Si / 1000 Ang^3
#
#
#
# Elastic Constant Matrix: (Units=GPa)
#
#
# Indices 1 2 3 4 5 6 
#
# 1 121.8132 16.7601 55.9959 0.0000 0.0000 0.0000
# 2 16.7601 63.1000 45.2140 0.0000 0.0000 0.0000
# 3 55.9959 45.2140 184.5145 0.0000 0.0000 0.0000
# 4 0.0000 0.0000 0.0000 -771.6003 0.0000 0.0000
# 5 0.0000 0.0000 0.0000 0.0000 11.7400 0.0000
# 6 0.0000 0.0000 0.0000 0.0000 0.0000 46.8544
#
#
#
# Elastic Compliance Matrix: (Units=1/GPa)
#
#
# Indices 1 2 3 4 5 6 
#
# 1 0.009556 -0.000558 -0.002763 0.000000 0.000000 0.000000
# 2 -0.000558 0.019256 -0.004549 0.000000 0.000000 0.000000
# 3 -0.002763 -0.004549 0.007373 0.000000 0.000000 0.000000
# 4 0.000000 0.000000 0.000000 -0.001296 0.000000 0.000000
# 5 0.000000 0.000000 0.000000 0.000000 0.085179 0.000000
# 6 0.000000 0.000000 0.000000 0.000000 0.000000 0.021343
#
#
# Mechanical properties :
#
#
# Convention : Reuss Voigt Hill
#
# Bulk Modulus (GPa) = 48.91462 67.26307 58.08885
# Shear Modulus (GPa) = 30.49402 -125.83732 -47.67165
#
# Velocity S-wave (km/s) = 4.10463 -8.33819 -5.13212
# Velocity P-wave (km/s) = 7.03487 7.45235 1.73898
#
# Compressibility (1/GPa) = 0.02044379
#
# Stress axis : x y z
#
# Youngs Moduli (GPa) = 104.64226 51.93253 135.63073
#
# Poissons Ratio (x) = 0.02899 0.37480
# Poissons Ratio (y) = 0.05841 0.61700
# Poissons Ratio (z) = 0.28916 0.23625
#
# Static dielectric constant tensor:
#      x y z
#    x 3.479860 0.000000 0.000000 
#    y 0.000000 2.826820 0.000000 
#    z 0.000000 0.000000 3.862580 
# 
# 
# High freq. dielectric constant tensor:
#      x y z
#    x 1.713910 0.000000 0.000000 
#    y 0.000000 1.642580 0.000000 
#    z 0.000000 0.000000 1.716420 
# 
# From -- ./inp_files/19441.got.cif
#   From: 2010.03.12/outbox.cif.g09.slc.cpg/sg69_10_cif.got.tgz:19441.got - 2010.04.10 23:52:46.
