data_PCOD8284681
_publ_section_title
;
Structure prediction by ZEFSAII (Michael W. Deem and Ramdas Pophale) SiO2 
 PCOD8284681
Probable space group: F M M M
;
_chemical_formula_sum "Si O2"
_cell_formula_units_Z 160
_cell_length_a 14.973272
_cell_length_b 26.807117
_cell_length_c 19.335253
_cell_angle_alpha 90.000000
_cell_angle_beta 90.000000
_cell_angle_gamma 90.000000
_cell_volume 7760.982120
_symmetry_space_group_name_H-M "F M M M"
_symmetry_group_IT_number 69
_symmetry_cell_setting 'orthorhombic'
loop_
_space_group_symop_operation_xyz
x,y,z
-x,-y,z
x,-y,-z
-x,y,-z
-x,-y,-z
x,y,-z
-x,y,z
x,-y,z
x,1/2+y,1/2+z
-x,1/2-y,1/2+z
x,1/2-y,1/2-z
-x,1/2+y,1/2-z
-x,1/2-y,1/2-z
x,1/2+y,1/2-z
-x,1/2+y,1/2+z
x,1/2-y,1/2+z
1/2+x,y,1/2+z
1/2-x,-y,1/2+z
1/2+x,-y,1/2-z
1/2-x,y,1/2-z
1/2-x,-y,1/2-z
1/2+x,y,1/2-z
1/2-x,y,1/2+z
1/2+x,-y,1/2+z
1/2+x,1/2+y,z
1/2-x,1/2-y,z
1/2+x,1/2-y,-z
1/2-x,1/2+y,-z
1/2-x,1/2-y,-z
1/2+x,1/2+y,-z
1/2-x,1/2+y,z
1/2+x,1/2-y,z
loop_
_atom_site_type_symbol
_atom_site_label
_atom_site_fract_x
_atom_site_fract_y
_atom_site_fract_z
Si Si1 0.330053 0.711390 0.576640
Si Si2 0.898492 0.057096 0.690970
Si Si3 0.105195 0.886435 0.168488
Si Si4 0.400572 0.724323 0.186034
Si Si5 0.768664 0.100249 0.418419
O O1 0.369933 0.711338 0.500000
O O2 0.250000 0.750000 0.585225
O O3 0.405804 0.734335 0.625535
O O4 0.298418 0.656670 0.597176
O O5 0.871050 0.090725 0.756717
O O6 0.837276 0.066091 0.624062
O O7 0.000000 0.069264 0.669004
O O8 0.888328 0.000000 0.714667
O O9 0.139372 0.829144 0.166110
O O10 0.168041 0.911022 0.109423
O O11 0.000000 0.893973 0.149767
O O12 0.500000 0.711268 0.210961
O O13 0.347589 0.750000 0.250000
O O14 0.772125 0.087394 0.500000
#
# Coordination Sequence:
#
# PCOD8284681 Si02
#       5
#    32  32  32  32  32
#     4  10  20  35  52  77 116 158 195 230 279 341
#     4  10  23  44  67  89 116 153 198 251 310 364
#     4  10  21  38  60  87 119 156 198 244 296 358
#     4  10  20  33  52  80 112 148 195 246 291 339
#     4  11  23  38  60  90 123 159 202 249 296 354
#
# _framework density 20.615947999999999
#
# number of rings (size 3 to 8) (size 9 to 14) (size 15 to 20)
#    0.000    1.800    2.000    1.800    0.000    6.000 
#    0.000    5.000    0.000    0.000    0.000    4.200 
#    0.000    0.000    0.000    0.000    0.000    0.000 
#
# Total GULP energy -495715.869820 kJ/mol
# GULP energy per Si atom -12392.896746 kJ/mol
# Density = 2.056903 g / cm^3
# Si number density = 20.615948 Si / 1000 Ang^3
#
#
#
# Elastic Constant Matrix: (Units=GPa)
#
#
# Indices 1 2 3 4 5 6 
#
# 1 85.2931 26.9313 59.6589 0.0000 0.0000 0.0000
# 2 26.9313 62.1932 35.0282 0.0000 0.0000 0.0000
# 3 59.6589 35.0282 131.9650 0.0000 0.0000 0.0000
# 4 0.0000 0.0000 0.0000 25.5858 0.0000 0.0000
# 5 0.0000 0.0000 0.0000 0.0000 35.3664 0.0000
# 6 0.0000 0.0000 0.0000 0.0000 0.0000 24.2717
#
#
#
# Elastic Compliance Matrix: (Units=1/GPa)
#
#
# Indices 1 2 3 4 5 6 
#
# 1 0.017859 -0.003746 -0.007079 0.000000 0.000000 0.000000
# 2 -0.003746 0.019691 -0.003533 0.000000 0.000000 0.000000
# 3 -0.007079 -0.003533 0.011716 0.000000 0.000000 0.000000
# 4 0.000000 0.000000 0.000000 0.039084 0.000000 0.000000
# 5 0.000000 0.000000 0.000000 0.000000 0.028275 0.000000
# 6 0.000000 0.000000 0.000000 0.000000 0.000000 0.041200
#
#
# Mechanical properties :
#
#
# Convention : Reuss Voigt Hill
#
# Bulk Modulus (GPa) = 48.66492 58.07646 53.37069
# Shear Modulus (GPa) = 25.85417 27.56695 26.71056
#
# Velocity S-wave (km/s) = 3.54515 3.66070 3.60339
# Velocity P-wave (km/s) = 6.35721 6.78965 6.57699
#
# Compressibility (1/GPa) = 0.02054868
#
# Stress axis : x y z
#
# Youngs Moduli (GPa) = 55.99489 50.78456 85.35355
#
# Poissons Ratio (x) = 0.19025 0.60424
# Poissons Ratio (y) = 0.20977 0.30156
# Poissons Ratio (z) = 0.39640 0.17943
#
# Static dielectric constant tensor:
#      x y z
#    x 3.607760 0.000000 0.000000 
#    y 0.000000 3.835650 0.000000 
#    z 0.000000 0.000000 3.748610 
# 
# 
# High freq. dielectric constant tensor:
#      x y z
#    x 1.802430 0.000000 0.000000 
#    y 0.000000 1.802990 0.000000 
#    z 0.000000 0.000000 1.803700 
# 
# From -- ./inp_files/23089.got.cif
#   From: 2010.03.12/outbox.cif.g09.slc.cpg/sg69_12_cif.got.tgz:23089.got - 2010.04.10 23:52:46.
