data_PCOD8284922
_publ_section_title
;
Structure prediction by ZEFSAII (Michael W. Deem and Ramdas Pophale) SiO2 
 PCOD8284922
Probable space group: F M M M
;
_chemical_formula_sum "Si O2"
_cell_formula_units_Z 144
_cell_length_a 13.949529
_cell_length_b 30.181967
_cell_length_c 18.564587
_cell_angle_alpha 90.000000
_cell_angle_beta 90.000000
_cell_angle_gamma 90.000000
_cell_volume 7816.140835
_symmetry_space_group_name_H-M "F M M M"
_symmetry_group_IT_number 69
_symmetry_cell_setting 'orthorhombic'
loop_
_space_group_symop_operation_xyz
x,y,z
-x,-y,z
x,-y,-z
-x,y,-z
-x,-y,-z
x,y,-z
-x,y,z
x,-y,z
x,1/2+y,1/2+z
-x,1/2-y,1/2+z
x,1/2-y,1/2-z
-x,1/2+y,1/2-z
-x,1/2-y,1/2-z
x,1/2+y,1/2-z
-x,1/2+y,1/2+z
x,1/2-y,1/2+z
1/2+x,y,1/2+z
1/2-x,-y,1/2+z
1/2+x,-y,1/2-z
1/2-x,y,1/2-z
1/2-x,-y,1/2-z
1/2+x,y,1/2-z
1/2-x,y,1/2+z
1/2+x,-y,1/2+z
1/2+x,1/2+y,z
1/2-x,1/2-y,z
1/2+x,1/2-y,-z
1/2-x,1/2+y,-z
1/2-x,1/2-y,-z
1/2+x,1/2+y,-z
1/2-x,1/2+y,z
1/2+x,1/2-y,z
loop_
_atom_site_type_symbol
_atom_site_label
_atom_site_fract_x
_atom_site_fract_y
_atom_site_fract_z
Si Si1 0.206578 0.051054 0.173245
Si Si2 0.500000 0.373953 0.664787
Si Si3 0.697052 0.125377 0.085004
Si Si4 0.000000 0.297870 0.716644
Si Si5 0.000000 0.949491 0.223061
Si Si6 0.789342 0.201272 0.828110
O O1 0.250000 0.065363 0.250000
O O2 0.252867 0.080403 0.111351
O O3 0.092734 0.060222 0.174182
O O4 0.230428 0.000000 0.156342
O O5 0.409820 0.370852 0.613347
O O6 0.500000 0.334324 0.721418
O O7 0.500000 0.420652 0.705229
O O8 0.754799 0.168141 0.110942
O O9 0.696304 0.124617 0.000000
O O10 0.000000 0.250000 0.750000
O O11 0.095408 0.301659 0.668711
O O12 0.000000 0.000000 0.250793
O O13 0.750000 0.186014 0.750000
O O14 0.750000 0.250000 0.846230
#
# Coordination Sequence:
#
# PCOD8284922 Si02
#       6
#    32  16  32  16  16  32
#     4  10  20  38  62  86 114 150 196 245 288 337
#     4  12  21  36  60  85 119 152 190 242 289 344
#     4  12  25  39  56  86 125 160 190 229 292 358
#     4  12  20  35  65  95 111 139 202 252 288 332
#     4  10  20  35  63  93 111 139 198 254 290 332
#     4  11  21  39  63  89 116 152 195 246 289 335
#
# _framework density 18.423414000000001
#
# number of rings (size 3 to 8) (size 9 to 14) (size 15 to 20)
#    0.000    0.889    6.667    2.333    0.000    0.889 
#    0.000    2.222    0.000    4.000    0.000    0.000 
#    0.000    0.000    0.000    0.000    0.000    0.000 
#
# Total GULP energy -446541.883227 kJ/mol
# GULP energy per Si atom -12403.941201 kJ/mol
# Density = 1.838148 g / cm^3
# Si number density = 18.423414 Si / 1000 Ang^3
#
#
#
# Elastic Constant Matrix: (Units=GPa)
#
#
# Indices 1 2 3 4 5 6 
#
# 1 185.6618 65.2796 63.2911 0.0000 0.0000 0.0000
# 2 65.2796 124.8958 78.4243 0.0000 0.0000 0.0000
# 3 63.2911 78.4243 107.5945 0.0000 0.0000 0.0000
# 4 0.0000 0.0000 0.0000 22.5895 0.0000 0.0000
# 5 0.0000 0.0000 0.0000 0.0000 7.6241 0.0000
# 6 0.0000 0.0000 0.0000 0.0000 0.0000 26.5464
#
#
#
# Elastic Compliance Matrix: (Units=1/GPa)
#
#
# Indices 1 2 3 4 5 6 
#
# 1 0.006992 -0.001977 -0.002672 0.000000 0.000000 0.000000
# 2 -0.001977 0.015323 -0.010006 0.000000 0.000000 0.000000
# 3 -0.002672 -0.010006 0.018159 0.000000 0.000000 0.000000
# 4 0.000000 0.000000 0.000000 0.044268 0.000000 0.000000
# 5 0.000000 0.000000 0.000000 0.000000 0.131162 0.000000
# 6 0.000000 0.000000 0.000000 0.000000 0.000000 0.037670
#
#
# Mechanical properties :
#
#
# Convention : Reuss Voigt Hill
#
# Bulk Modulus (GPa) = 89.56897 92.46022 91.01459
# Shear Modulus (GPa) = 17.44560 25.42914 21.43737
#
# Velocity S-wave (km/s) = 3.08055 3.71922 3.41485
# Velocity P-wave (km/s) = 7.83425 8.29088 8.06580
#
# Compressibility (1/GPa) = 0.01116458
#
# Stress axis : x y z
#
# Youngs Moduli (GPa) = 143.01880 65.26332 55.06869
#
# Poissons Ratio (x) = 0.12900 0.14716
# Poissons Ratio (y) = 0.28269 0.55100
# Poissons Ratio (z) = 0.38219 0.65301
#
# Static dielectric constant tensor:
#      x y z
#    x 3.830400 0.000000 0.000000 
#    y 0.000000 3.569760 0.000000 
#    z 0.000000 0.000000 3.039360 
# 
# 
# High freq. dielectric constant tensor:
#      x y z
#    x 1.742030 0.000000 0.000000 
#    y 0.000000 1.734740 0.000000 
#    z 0.000000 0.000000 1.672460 
# 
# From -- ./inp_files/21796.got.cif
#   From: 2010.03.12/outbox.cif.g09.slc.cpg/sg69_11_cif.got.tgz:21796.got - 2010.04.10 23:52:46.
