data_PCOD8284715
_publ_section_title
;
Structure prediction by ZEFSAII (Michael W. Deem and Ramdas Pophale) SiO2 
 PCOD8284715
Probable space group: F M M M
;
_chemical_formula_sum "Si O2"
_cell_formula_units_Z 192
_cell_length_a 28.152858
_cell_length_b 15.963272
_cell_length_c 24.581908
_cell_angle_alpha 90.000000
_cell_angle_beta 90.000000
_cell_angle_gamma 90.000000
_cell_volume 11047.397797
_symmetry_space_group_name_H-M "F M M M"
_symmetry_group_IT_number 69
_symmetry_cell_setting 'orthorhombic'
loop_
_space_group_symop_operation_xyz
x,y,z
-x,-y,z
x,-y,-z
-x,y,-z
-x,-y,-z
x,y,-z
-x,y,z
x,-y,z
x,1/2+y,1/2+z
-x,1/2-y,1/2+z
x,1/2-y,1/2-z
-x,1/2+y,1/2-z
-x,1/2-y,1/2-z
x,1/2+y,1/2-z
-x,1/2+y,1/2+z
x,1/2-y,1/2+z
1/2+x,y,1/2+z
1/2-x,-y,1/2+z
1/2+x,-y,1/2-z
1/2-x,y,1/2-z
1/2-x,-y,1/2-z
1/2+x,y,1/2-z
1/2-x,y,1/2+z
1/2+x,-y,1/2+z
1/2+x,1/2+y,z
1/2-x,1/2-y,z
1/2+x,1/2-y,-z
1/2-x,1/2+y,-z
1/2-x,1/2-y,-z
1/2+x,1/2+y,-z
1/2-x,1/2+y,z
1/2+x,1/2-y,z
loop_
_atom_site_type_symbol
_atom_site_label
_atom_site_fract_x
_atom_site_fract_y
_atom_site_fract_z
Si Si1 0.714756 0.500000 0.935721
Si Si2 0.555214 0.863377 0.365875
Si Si3 0.630952 0.403525 0.561720
Si Si4 0.444104 0.593952 0.252332
Si Si5 0.055010 0.171072 0.362576
Si Si6 0.269302 0.838090 0.064708
Si Si7 0.605131 0.500000 0.935611
O O1 0.738829 0.584184 0.911343
O O2 0.659985 0.500000 0.919274
O O3 0.721803 0.500000 0.000000
O O4 0.500000 0.888530 0.367648
O O5 0.577621 0.881241 0.306197
O O6 0.562880 0.766534 0.379696
O O7 0.581919 0.916562 0.411337
O O8 0.617751 0.380039 0.500000
O O9 0.646221 0.500000 0.566202
O O10 0.584794 0.387031 0.597539
O O11 0.675692 0.348512 0.582089
O O12 0.500000 0.602217 0.245870
O O13 0.428446 0.500000 0.267817
O O14 0.427256 0.655866 0.300474
O O15 0.000000 0.144404 0.368010
O O16 0.250000 0.750000 0.088685
O O17 0.264913 0.838206 0.000000
O O18 0.597085 0.500000 0.000000
#
# Coordination Sequence:
#
# PCOD8284715 Si02
#       7
#    16  32  32  32  32  32  16
#     4   9  18  33  50  74 101 127 168 217 258 304
#     4  10  20  35  51  72 105 141 176 213 254 306
#     4  10  20  34  51  73 105 140 172 209 263 324
#     4   9  16  31  54  74  97 130 173 222 263 297
#     4  10  21  33  50  77 105 135 177 222 260 302
#     4   9  17  31  52  73  97 131 171 218 265 309
#     4  11  23  34  51  77 108 142 174 209 261 328
#
# _framework density 17.379659
#
# number of rings (size 3 to 8) (size 9 to 14) (size 15 to 20)
#    0.000    2.333    1.667    1.250    2.333    4.667 
#    0.000    2.500    0.000    0.000    0.000    2.333 
#    0.000    0.000    0.000    0.000    0.000    0.000 
#
# Total GULP energy -595132.886171 kJ/mol
# GULP energy per Si atom -12398.601795 kJ/mol
# Density = 1.734010 g / cm^3
# Si number density = 17.379659 Si / 1000 Ang^3
#
#
#
# Elastic Constant Matrix: (Units=GPa)
#
#
# Indices 1 2 3 4 5 6 
#
# 1 80.0645 41.8281 45.2037 0.0000 0.0000 0.0000
# 2 41.8281 92.7362 30.4906 0.0000 0.0000 0.0000
# 3 45.2037 30.4906 78.8979 0.0000 0.0000 0.0000
# 4 0.0000 0.0000 0.0000 23.3087 0.0000 0.0000
# 5 0.0000 0.0000 0.0000 0.0000 0.3069 0.0000
# 6 0.0000 0.0000 0.0000 0.0000 0.0000 28.3958
#
#
#
# Elastic Compliance Matrix: (Units=1/GPa)
#
#
# Indices 1 2 3 4 5 6 
#
# 1 0.021351 -0.006425 -0.009750 0.000000 0.000000 0.000000
# 2 -0.006425 0.014286 -0.001840 0.000000 0.000000 0.000000
# 3 -0.009750 -0.001840 0.018972 0.000000 0.000000 0.000000
# 4 0.000000 0.000000 0.000000 0.042902 0.000000 0.000000
# 5 0.000000 0.000000 0.000000 0.000000 3.258830 0.000000
# 6 0.000000 0.000000 0.000000 0.000000 0.000000 0.035216
#
#
# Mechanical properties :
#
#
# Convention : Reuss Voigt Hill
#
# Bulk Modulus (GPa) = 53.82227 54.08262 53.95245
# Shear Modulus (GPa) = 1.45612 19.34735 10.40173
#
# Velocity S-wave (km/s) = 0.91632 3.34011 2.44908
# Velocity P-wave (km/s) = 5.67056 6.78683 6.25365
#
# Compressibility (1/GPa) = 0.01857967
#
# Stress axis : x y z
#
# Youngs Moduli (GPa) = 46.83591 69.99844 52.70949
#
# Poissons Ratio (x) = 0.44971 0.51392
# Poissons Ratio (y) = 0.30090 0.09699
# Poissons Ratio (z) = 0.45665 0.12880
#
# Static dielectric constant tensor:
#      x y z
#    x 3.048730 0.000000 0.000000 
#    y 0.000000 3.393770 0.000000 
#    z 0.000000 0.000000 3.062040 
# 
# 
# High freq. dielectric constant tensor:
#      x y z
#    x 1.647400 0.000000 0.000000 
#    y 0.000000 1.687850 0.000000 
#    z 0.000000 0.000000 1.641860 
# 
# From -- ./inp_files/19824.got.cif
#   From: 2010.03.12/outbox.cif.g09.slc.cpg/sg69_10_cif.got.tgz:19824.got - 2010.04.10 23:52:46.
