data_PCOD8284080
_publ_section_title
;
Structure prediction by ZEFSAII (Michael W. Deem and Ramdas Pophale) SiO2 
 PCOD8284080
Probable space group: F M M M
;
_chemical_formula_sum "Si O2"
_cell_formula_units_Z 160
_cell_length_a 28.028441
_cell_length_b 20.053455
_cell_length_c 18.137730
_cell_angle_alpha 90.000000
_cell_angle_beta 90.000000
_cell_angle_gamma 90.000000
_cell_volume 10194.620945
_symmetry_space_group_name_H-M "F M M M"
_symmetry_group_IT_number 69
_symmetry_cell_setting 'orthorhombic'
loop_
_space_group_symop_operation_xyz
x,y,z
-x,-y,z
x,-y,-z
-x,y,-z
-x,-y,-z
x,y,-z
-x,y,z
x,-y,z
x,1/2+y,1/2+z
-x,1/2-y,1/2+z
x,1/2-y,1/2-z
-x,1/2+y,1/2-z
-x,1/2-y,1/2-z
x,1/2+y,1/2-z
-x,1/2+y,1/2+z
x,1/2-y,1/2+z
1/2+x,y,1/2+z
1/2-x,-y,1/2+z
1/2+x,-y,1/2-z
1/2-x,y,1/2-z
1/2-x,-y,1/2-z
1/2+x,y,1/2-z
1/2-x,y,1/2+z
1/2+x,-y,1/2+z
1/2+x,1/2+y,z
1/2-x,1/2-y,z
1/2+x,1/2-y,-z
1/2-x,1/2+y,-z
1/2-x,1/2-y,-z
1/2+x,1/2+y,-z
1/2-x,1/2+y,z
1/2+x,1/2-y,z
loop_
_atom_site_type_symbol
_atom_site_label
_atom_site_fract_x
_atom_site_fract_y
_atom_site_fract_z
Si Si1 0.053939 0.576581 0.586509
Si Si2 0.193592 0.000000 0.914017
Si Si3 0.353770 0.635031 0.860485
Si Si4 0.694375 0.737816 0.419069
Si Si5 0.281493 0.000000 0.177544
Si Si6 0.696859 0.640816 0.714405
O O1 0.062681 0.585402 0.500000
O O2 0.064195 0.500000 0.608654
O O3 0.089436 0.625866 0.629814
O O4 0.000000 0.596397 0.607777
O O5 0.171635 0.065686 0.878702
O O6 0.249763 0.000000 0.896530
O O7 0.183600 0.000000 0.000000
O O8 0.334308 0.692998 0.913036
O O9 0.342241 0.654666 0.776703
O O10 0.681389 0.707377 0.500000
O O11 0.750000 0.750000 0.415339
O O12 0.682606 0.689508 0.351677
O O13 0.250000 0.000000 0.250000
O O14 0.312070 0.932593 0.180350
O O15 0.750000 0.651572 0.750000
#
# Coordination Sequence:
#
# PCOD8284080 Si02
#       6
#    32  16  32  32  16  32
#     4   9  18  32  50  76 107 133 165 213 264 311
#     4  12  20  28  47  73  98 128 172 209 242 299
#     4  12  20  31  52  73 102 137 167 205 253 312
#     4  11  22  33  47  70  99 136 180 214 245 301
#     4  10  18  34  44  64  94 132 163 209 242 291
#     4  11  20  34  50  67 100 134 171 209 253 296
#
# _framework density 15.694551000000001
#
# number of rings (size 3 to 8) (size 9 to 14) (size 15 to 20)
#    0.000    1.200    7.000    3.000    0.000    2.400 
#    0.000    0.000    0.000    2.400    0.000    0.000 
#    0.000    0.000    0.000    2.200    0.000    0.200 
#
# Total GULP energy -495823.313728 kJ/mol
# GULP energy per Si atom -12395.582843 kJ/mol
# Density = 1.565883 g / cm^3
# Si number density = 15.694551 Si / 1000 Ang^3
#
#
#
# Elastic Constant Matrix: (Units=GPa)
#
#
# Indices 1 2 3 4 5 6 
#
# 1 97.4822 29.6986 37.7060 0.0000 0.0000 0.0000
# 2 29.6986 84.2382 40.7102 0.0000 0.0000 0.0000
# 3 37.7060 40.7102 113.8294 0.0000 0.0000 0.0000
# 4 0.0000 0.0000 0.0000 22.5813 0.0000 0.0000
# 5 0.0000 0.0000 0.0000 0.0000 22.2901 0.0000
# 6 0.0000 0.0000 0.0000 0.0000 0.0000 21.6502
#
#
#
# Elastic Compliance Matrix: (Units=1/GPa)
#
#
# Indices 1 2 3 4 5 6 
#
# 1 0.012312 -0.002865 -0.003054 0.000000 0.000000 0.000000
# 2 -0.002865 0.015018 -0.004422 0.000000 0.000000 0.000000
# 3 -0.003054 -0.004422 0.011378 0.000000 0.000000 0.000000
# 4 0.000000 0.000000 0.000000 0.044284 0.000000 0.000000
# 5 0.000000 0.000000 0.000000 0.000000 0.044863 0.000000
# 6 0.000000 0.000000 0.000000 0.000000 0.000000 0.046189
#
#
# Mechanical properties :
#
#
# Convention : Reuss Voigt Hill
#
# Bulk Modulus (GPa) = 55.47251 56.86438 56.16844
# Shear Modulus (GPa) = 24.90833 25.79998 25.35416
#
# Velocity S-wave (km/s) = 3.98813 4.05888 4.02366
# Velocity P-wave (km/s) = 7.52520 7.63391 7.57975
#
# Compressibility (1/GPa) = 0.01802695
#
# Stress axis : x y z
#
# Youngs Moduli (GPa) = 81.21938 66.58565 87.88723
#
# Poissons Ratio (x) = 0.19076 0.26839
# Poissons Ratio (y) = 0.23269 0.38865
# Poissons Ratio (z) = 0.24803 0.29445
#
# Static dielectric constant tensor:
#      x y z
#    x 2.889770 0.000000 0.000000 
#    y 0.000000 3.314020 0.000000 
#    z 0.000000 0.000000 3.211000 
# 
# 
# High freq. dielectric constant tensor:
#      x y z
#    x 1.560210 0.000000 0.000000 
#    y 0.000000 1.604840 0.000000 
#    z 0.000000 0.000000 1.603000 
# 
# From -- ./inp_files/26887.got.cif
#   From: 2010.03.12/outbox.cif.g09.slc.cpg/sg69_14_cif.got.tgz:26887.got - 2010.04.10 23:52:46.
