data_PCOD8284325
_publ_section_title
;
Structure prediction by ZEFSAII (Michael W. Deem and Ramdas Pophale) SiO2 
 PCOD8284325
Probable space group: F M M M
;
_chemical_formula_sum "Si O2"
_cell_formula_units_Z 208
_cell_length_a 17.385085
_cell_length_b 23.184413
_cell_length_c 28.915615
_cell_angle_alpha 90.000000
_cell_angle_beta 90.000000
_cell_angle_gamma 90.000000
_cell_volume 11654.814259
_symmetry_space_group_name_H-M "F M M M"
_symmetry_group_IT_number 69
_symmetry_cell_setting 'orthorhombic'
loop_
_space_group_symop_operation_xyz
x,y,z
-x,-y,z
x,-y,-z
-x,y,-z
-x,-y,-z
x,y,-z
-x,y,z
x,-y,z
x,1/2+y,1/2+z
-x,1/2-y,1/2+z
x,1/2-y,1/2-z
-x,1/2+y,1/2-z
-x,1/2-y,1/2-z
x,1/2+y,1/2-z
-x,1/2+y,1/2+z
x,1/2-y,1/2+z
1/2+x,y,1/2+z
1/2-x,-y,1/2+z
1/2+x,-y,1/2-z
1/2-x,y,1/2-z
1/2-x,-y,1/2-z
1/2+x,y,1/2-z
1/2-x,y,1/2+z
1/2+x,-y,1/2+z
1/2+x,1/2+y,z
1/2-x,1/2-y,z
1/2+x,1/2-y,-z
1/2-x,1/2+y,-z
1/2-x,1/2-y,-z
1/2+x,1/2+y,-z
1/2-x,1/2+y,z
1/2+x,1/2-y,z
loop_
_atom_site_type_symbol
_atom_site_label
_atom_site_fract_x
_atom_site_fract_y
_atom_site_fract_z
Si Si1 0.626557 0.389695 0.228294
Si Si2 0.910807 0.125014 0.446240
Si Si3 0.913230 0.768326 0.799389
Si Si4 0.682509 0.290519 0.379101
Si Si5 0.917525 0.500000 0.679235
Si Si6 0.746372 0.000000 0.634356
Si Si7 0.288796 0.609579 0.685004
Si Si8 0.343373 0.500000 0.446901
O O1 0.586048 0.337493 0.201732
O O2 0.581076 0.446087 0.213591
O O3 0.632437 0.383107 0.284451
O O4 0.714553 0.397687 0.215790
O O5 0.894048 0.137020 0.500000
O O6 0.863492 0.173767 0.418055
O O7 0.890194 0.058474 0.434033
O O8 0.000000 0.133932 0.434152
O O9 0.873674 0.750000 0.750000
O O10 0.872110 0.747190 0.845840
O O11 0.000000 0.744236 0.801066
O O12 0.750000 0.250000 0.401124
O O13 0.725707 0.335130 0.346330
O O14 0.845444 0.500000 0.643838
O O15 0.000000 0.500000 0.652019
O O16 0.794430 0.946589 0.653748
O O17 0.761149 0.000000 0.579384
O O18 0.320979 0.500000 0.500000
#
# Coordination Sequence:
#
# PCOD8284325 Si02
#       8
#    32  32  32  32  16  16  32  16
#     4  10  19  34  52  72 104 144 189 228 268 318
#     4  10  22  41  62  86 117 146 178 230 293 351
#     4  11  22  33  48  74 109 147 184 225 269 322
#     4  12  22  35  57  81 110 146 192 228 274 332
#     4  10  21  35  53  76 107 149 192 232 281 329
#     4  10  19  35  57  82 111 139 184 234 279 337
#     4  10  19  32  54  77 102 142 182 229 273 316
#     4  10  19  35  65  94 113 141 180 226 287 353
#
# _framework density 17.846703000000002
#
# number of rings (size 3 to 8) (size 9 to 14) (size 15 to 20)
#    0.000    1.538    4.615    1.615    0.000    3.385 
#    0.000    0.000    0.000    0.231    0.000    0.000 
#    0.000    0.000    0.000    0.000    0.000    0.308 
#
# Total GULP energy -644232.575119 kJ/mol
# GULP energy per Si atom -12389.087983 kJ/mol
# Density = 1.780608 g / cm^3
# Si number density = 17.846703 Si / 1000 Ang^3
#
#
#
# Elastic Constant Matrix: (Units=GPa)
#
#
# Indices 1 2 3 4 5 6 
#
# 1 94.6772 41.6366 51.6967 0.0000 0.0000 0.0000
# 2 41.6366 135.0748 44.9760 0.0000 0.0000 0.0000
# 3 51.6967 44.9760 87.3357 0.0000 0.0000 0.0000
# 4 0.0000 0.0000 0.0000 28.2183 0.0000 0.0000
# 5 0.0000 0.0000 0.0000 0.0000 21.6180 0.0000
# 6 0.0000 0.0000 0.0000 0.0000 0.0000 -60.3197
#
#
#
# Elastic Compliance Matrix: (Units=1/GPa)
#
#
# Indices 1 2 3 4 5 6 
#
# 1 0.016113 -0.002162 -0.008425 0.000000 0.000000 0.000000
# 2 -0.002162 0.009225 -0.003471 0.000000 0.000000 0.000000
# 3 -0.008425 -0.003471 0.018224 0.000000 0.000000 0.000000
# 4 0.000000 0.000000 0.000000 0.035438 0.000000 0.000000
# 5 0.000000 0.000000 0.000000 0.000000 0.046258 0.000000
# 6 0.000000 0.000000 0.000000 0.000000 0.000000 -0.016578
#
#
# Mechanical properties :
#
#
# Convention : Reuss Voigt Hill
#
# Bulk Modulus (GPa) = 64.73424 65.96737 65.35080
# Shear Modulus (GPa) = 35.22499 9.82189 22.52344
#
# Velocity S-wave (km/s) = 4.44751 2.34849 3.55639
# Velocity P-wave (km/s) = 7.91991 6.66314 7.31855
#
# Compressibility (1/GPa) = 0.01544778
#
# Stress axis : x y z
#
# Youngs Moduli (GPa) = 62.06205 108.39522 54.87119
#
# Poissons Ratio (x) = 0.23431 0.46226
# Poissons Ratio (y) = 0.13416 0.19048
# Poissons Ratio (z) = 0.52284 0.37628
#
# Static dielectric constant tensor:
#      x y z
#    x 3.189030 0.000000 0.000000 
#    y 0.000000 3.521710 0.000000 
#    z 0.000000 0.000000 3.701250 
# 
# 
# High freq. dielectric constant tensor:
#      x y z
#    x 1.681400 0.000000 0.000000 
#    y 0.000000 1.708110 0.000000 
#    z 0.000000 0.000000 1.668720 
# 
# From -- ./inp_files/42143.got.cif
#   From: 2010.03.12/outbox.cif.g09.slc.cpg/sg69_22_cif.got.tgz:42143.got - 2010.04.10 23:52:46.
