data_PCOD8284953
_publ_section_title
;
Structure prediction by ZEFSAII (Michael W. Deem and Ramdas Pophale) SiO2 
 PCOD8284953
Probable space group: F M M M
;
_chemical_formula_sum "Si O2"
_cell_formula_units_Z 160
_cell_length_a 32.277097
_cell_length_b 17.525403
_cell_length_c 15.259716
_cell_angle_alpha 90.000000
_cell_angle_beta 90.000000
_cell_angle_gamma 90.000000
_cell_volume 8631.950313
_symmetry_space_group_name_H-M "F M M M"
_symmetry_group_IT_number 69
_symmetry_cell_setting 'orthorhombic'
loop_
_space_group_symop_operation_xyz
x,y,z
-x,-y,z
x,-y,-z
-x,y,-z
-x,-y,-z
x,y,-z
-x,y,z
x,-y,z
x,1/2+y,1/2+z
-x,1/2-y,1/2+z
x,1/2-y,1/2-z
-x,1/2+y,1/2-z
-x,1/2-y,1/2-z
x,1/2+y,1/2-z
-x,1/2+y,1/2+z
x,1/2-y,1/2+z
1/2+x,y,1/2+z
1/2-x,-y,1/2+z
1/2+x,-y,1/2-z
1/2-x,y,1/2-z
1/2-x,-y,1/2-z
1/2+x,y,1/2-z
1/2-x,y,1/2+z
1/2+x,-y,1/2+z
1/2+x,1/2+y,z
1/2-x,1/2-y,z
1/2+x,1/2-y,-z
1/2-x,1/2+y,-z
1/2-x,1/2-y,-z
1/2+x,1/2+y,-z
1/2-x,1/2+y,z
1/2+x,1/2-y,z
loop_
_atom_site_type_symbol
_atom_site_label
_atom_site_fract_x
_atom_site_fract_y
_atom_site_fract_z
Si Si1 0.000000 0.408893 0.748365
Si Si2 0.500000 0.800679 0.903798
Si Si3 0.298690 0.584087 0.261303
Si Si4 0.846353 0.850602 0.902434
Si Si5 0.567999 0.304612 0.171536
Si Si6 0.208602 0.207957 0.402099
O O1 0.000000 0.376661 0.846339
O O2 0.041115 0.376705 0.702667
O O3 0.000000 0.500000 0.746946
O O4 0.540415 0.748690 0.890273
O O5 0.500000 0.834019 0.000000
O O6 0.313204 0.500000 0.291168
O O7 0.250000 0.586257 0.250000
O O8 0.321392 0.601244 0.169586
O O9 0.308955 0.642752 0.338547
O O10 0.894384 0.843233 0.879393
O O11 0.828824 0.765953 0.905768
O O12 0.841798 0.888111 0.000000
O O13 0.583940 0.250000 0.250000
O O14 0.218277 0.175278 0.500000
O O15 0.250000 0.250000 0.365039
#
# Coordination Sequence:
#
# PCOD8284953 Si02
#       6
#    16  16  32  32  32  32
#     4   9  19  34  54  82 115 151 186 220 279 343
#     4   9  17  32  56  84 115 143 180 230 280 328
#     4  11  23  36  53  77 110 148 177 221 286 341
#     4  11  22  36  59  85 109 144 194 241 281 331
#     4   9  18  34  56  81 109 149 190 231 275 328
#     4  10  20  36  58  81 103 135 182 233 279 330
#
# _framework density 18.535786999999999
#
# number of rings (size 3 to 8) (size 9 to 14) (size 15 to 20)
#    0.000    2.000    2.000    3.600    0.000    1.800 
#    0.000    2.000    0.000   10.200    0.000    5.600 
#    0.000    0.000    0.000    0.000    0.000    0.000 
#
# Total GULP energy -495808.773990 kJ/mol
# GULP energy per Si atom -12395.219350 kJ/mol
# Density = 1.849360 g / cm^3
# Si number density = 18.535787 Si / 1000 Ang^3
#
#
#
# Elastic Constant Matrix: (Units=GPa)
#
#
# Indices 1 2 3 4 5 6 
#
# 1 105.7663 30.5245 44.3925 0.0000 0.0000 0.0000
# 2 30.5245 117.6803 54.5511 0.0000 0.0000 0.0000
# 3 44.3925 54.5511 126.5794 0.0000 0.0000 0.0000
# 4 0.0000 0.0000 0.0000 12.7410 0.0000 0.0000
# 5 0.0000 0.0000 0.0000 0.0000 23.5547 0.0000
# 6 0.0000 0.0000 0.0000 0.0000 0.0000 51.5024
#
#
#
# Elastic Compliance Matrix: (Units=1/GPa)
#
#
# Indices 1 2 3 4 5 6 
#
# 1 0.011259 -0.001362 -0.003362 0.000000 0.000000 0.000000
# 2 -0.001362 0.010784 -0.004170 0.000000 0.000000 0.000000
# 3 -0.003362 -0.004170 0.010876 0.000000 0.000000 0.000000
# 4 0.000000 0.000000 0.000000 0.078487 0.000000 0.000000
# 5 0.000000 0.000000 0.000000 0.000000 0.042454 0.000000
# 6 0.000000 0.000000 0.000000 0.000000 0.000000 0.019417
#
#
# Mechanical properties :
#
#
# Convention : Reuss Voigt Hill
#
# Bulk Modulus (GPa) = 66.08523 67.66245 66.87384
# Shear Modulus (GPa) = 25.49626 32.26348 28.87987
#
# Velocity S-wave (km/s) = 3.71282 4.17658 3.95151
# Velocity P-wave (km/s) = 7.35596 7.73572 7.54823
#
# Compressibility (1/GPa) = 0.01513197
#
# Stress axis : x y z
#
# Youngs Moduli (GPa) = 88.81916 92.73172 91.94479
#
# Poissons Ratio (x) = 0.12631 0.30908
# Poissons Ratio (y) = 0.12098 0.38338
# Poissons Ratio (z) = 0.29857 0.38666
#
# Static dielectric constant tensor:
#      x y z
#    x 3.341710 0.000000 0.000000 
#    y 0.000000 3.341840 0.000000 
#    z 0.000000 0.000000 3.641810 
# 
# 
# High freq. dielectric constant tensor:
#      x y z
#    x 1.719730 0.000000 0.000000 
#    y 0.000000 1.700650 0.000000 
#    z 0.000000 0.000000 1.725890 
# 
# From -- ./inp_files/15658.got.cif
#   From: 2010.03.12/outbox.cif.g09.slc.cpg/sg69_8_cif.got.tgz:15658.got - 2010.04.10 23:52:46.
