data_PCOD8284798
_publ_section_title
;
Structure prediction by ZEFSAII (Michael W. Deem and Ramdas Pophale) SiO2 
 PCOD8284798
Probable space group: F M M M
;
_chemical_formula_sum "Si O2"
_cell_formula_units_Z 160
_cell_length_a 16.634984
_cell_length_b 16.111692
_cell_length_c 29.018970
_cell_angle_alpha 90.000000
_cell_angle_beta 90.000000
_cell_angle_gamma 90.000000
_cell_volume 7777.598717
_symmetry_space_group_name_H-M "F M M M"
_symmetry_group_IT_number 69
_symmetry_cell_setting 'orthorhombic'
loop_
_space_group_symop_operation_xyz
x,y,z
-x,-y,z
x,-y,-z
-x,y,-z
-x,-y,-z
x,y,-z
-x,y,z
x,-y,z
x,1/2+y,1/2+z
-x,1/2-y,1/2+z
x,1/2-y,1/2-z
-x,1/2+y,1/2-z
-x,1/2-y,1/2-z
x,1/2+y,1/2-z
-x,1/2+y,1/2+z
x,1/2-y,1/2+z
1/2+x,y,1/2+z
1/2-x,-y,1/2+z
1/2+x,-y,1/2-z
1/2-x,y,1/2-z
1/2-x,-y,1/2-z
1/2+x,y,1/2-z
1/2-x,y,1/2+z
1/2+x,-y,1/2+z
1/2+x,1/2+y,z
1/2-x,1/2-y,z
1/2+x,1/2-y,-z
1/2-x,1/2+y,-z
1/2-x,1/2-y,-z
1/2+x,1/2+y,-z
1/2-x,1/2+y,z
1/2+x,1/2-y,z
loop_
_atom_site_type_symbol
_atom_site_label
_atom_site_fract_x
_atom_site_fract_y
_atom_site_fract_z
Si Si1 0.095336 0.644720 0.551032
Si Si2 0.906009 0.404464 0.144707
Si Si3 0.341594 0.660455 0.265282
Si Si4 0.907005 0.000000 0.784186
Si Si5 0.903545 0.500000 0.385704
Si Si6 0.095506 0.170132 0.550614
O O1 0.122293 0.615996 0.500000
O O2 0.130953 0.581345 0.588524
O O3 0.127891 0.737170 0.560981
O O4 0.000000 0.644657 0.554140
O O5 0.891436 0.500000 0.156905
O O6 0.853892 0.348233 0.179708
O O7 0.875355 0.388348 0.092399
O O8 0.000000 0.380932 0.149848
O O9 0.377331 0.750000 0.250000
O O10 0.250000 0.654655 0.250000
O O11 0.387247 0.583812 0.242529
O O12 0.865577 0.000000 0.834543
O O13 0.000000 0.000000 0.793254
O O14 0.000000 0.500000 0.386255
O O15 0.127468 0.139843 0.500000
O O16 0.000000 0.170592 0.548598
#
# Coordination Sequence:
#
# PCOD8284798 Si02
#       6
#    32  32  32  16  16  32
#     4   8  13  23  39  63 101 144 178 211 263 332
#     4  10  20  34  56  85 114 147 189 240 296 343
#     4  11  25  43  61  81 112 157 204 241 290 351
#     4  11  23  38  59  90 119 143 186 248 304 349
#     4   9  17  25  40  71 106 138 173 216 275 334
#     4   8  15  27  45  74 112 148 182 225 280 342
#
# _framework density 20.571902999999999
#
# number of rings (size 3 to 8) (size 9 to 14) (size 15 to 20)
#    0.000    2.600    1.000    2.400    2.800    3.200 
#    0.000    2.000    0.000    0.000    0.000    5.600 
#    0.000    0.000    0.000    0.000    0.000    0.200 
#
# Total GULP energy -495713.972388 kJ/mol
# GULP energy per Si atom -12392.849310 kJ/mol
# Density = 2.052508 g / cm^3
# Si number density = 20.571903 Si / 1000 Ang^3
#
#
#
# Elastic Constant Matrix: (Units=GPa)
#
#
# Indices 1 2 3 4 5 6 
#
# 1 24.8579 17.8909 24.7994 0.0000 0.0000 0.0000
# 2 17.8909 116.0635 66.0701 0.0000 0.0000 0.0000
# 3 24.7994 66.0701 174.5846 0.0000 0.0000 0.0000
# 4 0.0000 0.0000 0.0000 41.4204 0.0000 0.0000
# 5 0.0000 0.0000 0.0000 0.0000 5.9775 0.0000
# 6 0.0000 0.0000 0.0000 0.0000 0.0000 9.6347
#
#
#
# Elastic Compliance Matrix: (Units=1/GPa)
#
#
# Indices 1 2 3 4 5 6 
#
# 1 0.048684 -0.004547 -0.005194 0.000000 0.000000 0.000000
# 2 -0.004547 0.011407 -0.003671 0.000000 0.000000 0.000000
# 3 -0.005194 -0.003671 0.007855 0.000000 0.000000 0.000000
# 4 0.000000 0.000000 0.000000 0.024143 0.000000 0.000000
# 5 0.000000 0.000000 0.000000 0.000000 0.167294 0.000000
# 6 0.000000 0.000000 0.000000 0.000000 0.000000 0.103792
#
#
# Mechanical properties :
#
#
# Convention : Reuss Voigt Hill
#
# Bulk Modulus (GPa) = 24.31916 59.22517 41.77217
# Shear Modulus (GPa) = 12.38524 25.18956 18.78740
#
# Velocity S-wave (km/s) = 2.45633 3.50303 3.02529
# Velocity P-wave (km/s) = 4.46004 6.72410 5.70550
#
# Compressibility (1/GPa) = 0.04111983
#
# Stress axis : x y z
#
# Youngs Moduli (GPa) = 20.54074 87.66881 127.30884
#
# Poissons Ratio (x) = 0.39867 0.66130
# Poissons Ratio (y) = 0.09341 0.46732
# Poissons Ratio (z) = 0.10670 0.32181
#
# Static dielectric constant tensor:
#      x y z
#    x 3.472330 0.000000 0.000000 
#    y 0.000000 4.036220 0.000000 
#    z 0.000000 0.000000 4.198430 
# 
# 
# High freq. dielectric constant tensor:
#      x y z
#    x 1.739420 0.000000 0.000000 
#    y 0.000000 1.808490 0.000000 
#    z 0.000000 0.000000 1.823280 
# 
# From -- ./inp_files/41771.got.cif
#   From: 2010.03.12/outbox.cif.g09.slc.cpg/sg69_21_cif.got.tgz:41771.got - 2010.04.10 23:52:46.
