data_PCOD8284620
_publ_section_title
;
Structure prediction by ZEFSAII (Michael W. Deem and Ramdas Pophale) SiO2 
 PCOD8284620
Probable space group: F M M M
;
_chemical_formula_sum "Si O2"
_cell_formula_units_Z 160
_cell_length_a 22.557822
_cell_length_b 22.253679
_cell_length_c 18.044073
_cell_angle_alpha 90.000000
_cell_angle_beta 90.000000
_cell_angle_gamma 90.000000
_cell_volume 9058.025940
_symmetry_space_group_name_H-M "F M M M"
_symmetry_group_IT_number 69
_symmetry_cell_setting 'orthorhombic'
loop_
_space_group_symop_operation_xyz
x,y,z
-x,-y,z
x,-y,-z
-x,y,-z
-x,-y,-z
x,y,-z
-x,y,z
x,-y,z
x,1/2+y,1/2+z
-x,1/2-y,1/2+z
x,1/2-y,1/2-z
-x,1/2+y,1/2-z
-x,1/2-y,1/2-z
x,1/2+y,1/2-z
-x,1/2+y,1/2+z
x,1/2-y,1/2+z
1/2+x,y,1/2+z
1/2-x,-y,1/2+z
1/2+x,-y,1/2-z
1/2-x,y,1/2-z
1/2-x,-y,1/2-z
1/2+x,y,1/2-z
1/2-x,y,1/2+z
1/2+x,-y,1/2+z
1/2+x,1/2+y,z
1/2-x,1/2-y,z
1/2+x,1/2-y,-z
1/2-x,1/2+y,-z
1/2-x,1/2-y,-z
1/2+x,1/2+y,-z
1/2-x,1/2+y,z
1/2+x,1/2-y,z
loop_
_atom_site_type_symbol
_atom_site_label
_atom_site_fract_x
_atom_site_fract_y
_atom_site_fract_z
Si Si1 0.871934 0.115844 0.918203
Si Si2 0.632335 0.928925 0.000000
Si Si3 0.567176 0.763241 0.585354
Si Si4 0.930388 0.133925 0.364274
Si Si5 0.230930 0.571582 0.500000
Si Si6 0.067056 0.932302 0.780219
O O1 0.886298 0.184394 0.894156
O O2 0.801568 0.101414 0.927589
O O3 0.896179 0.071922 0.855743
O O4 0.902143 0.104209 0.000000
O O5 0.603496 0.902321 0.073047
O O6 0.701090 0.910169 0.000000
O O7 0.623931 0.000000 0.000000
O O8 0.572374 0.743862 0.500000
O O9 0.500000 0.784833 0.603528
O O10 0.583864 0.704733 0.633075
O O11 0.908100 0.110824 0.284325
O O12 0.000000 0.121473 0.375527
O O13 0.221355 0.500000 0.500000
O O14 0.000000 0.914199 0.799296
O O15 0.071522 0.000000 0.750281
#
# Coordination Sequence:
#
# PCOD8284620 Si02
#       6
#    32  16  32  32  16  32
#     4   9  19  34  54  73 103 141 174 215 259 297
#     4  11  21  35  55  76  99 137 184 218 255 313
#     4   9  16  30  52  79 106 136 176 210 250 317
#     4  10  20  34  53  78 110 138 164 213 269 314
#     4   9  20  36  53  74 100 136 183 222 252 301
#     4  10  20  32  49  79 111 137 172 213 258 316
#
# _framework density 17.663893000000002
#
# number of rings (size 3 to 8) (size 9 to 14) (size 15 to 20)
#    0.600    1.800    1.000    2.100    0.000    3.600 
#    0.000    7.000    0.000    3.600    0.000    2.800 
#    0.000    0.000    0.000    0.000    0.000    0.000 
#
# Total GULP energy -495769.984639 kJ/mol
# GULP energy per Si atom -12394.249616 kJ/mol
# Density = 1.762369 g / cm^3
# Si number density = 17.663893 Si / 1000 Ang^3
#
#
#
# Elastic Constant Matrix: (Units=GPa)
#
#
# Indices 1 2 3 4 5 6 
#
# 1 83.0689 42.8510 39.3804 0.0000 0.0000 0.0000
# 2 42.8510 96.2469 35.4934 0.0000 0.0000 0.0000
# 3 39.3804 35.4934 91.7963 0.0000 0.0000 0.0000
# 4 0.0000 0.0000 0.0000 31.2483 0.0000 0.0000
# 5 0.0000 0.0000 0.0000 0.0000 10.1818 0.0000
# 6 0.0000 0.0000 0.0000 0.0000 0.0000 24.6119
#
#
#
# Elastic Compliance Matrix: (Units=1/GPa)
#
#
# Indices 1 2 3 4 5 6 
#
# 1 0.017566 -0.005880 -0.005262 0.000000 0.000000 0.000000
# 2 -0.005880 0.014086 -0.002924 0.000000 0.000000 0.000000
# 3 -0.005262 -0.002924 0.014282 0.000000 0.000000 0.000000
# 4 0.000000 0.000000 0.000000 0.032002 0.000000 0.000000
# 5 0.000000 0.000000 0.000000 0.000000 0.098214 0.000000
# 6 0.000000 0.000000 0.000000 0.000000 0.000000 0.040631
#
#
# Mechanical properties :
#
#
# Convention : Reuss Voigt Hill
#
# Bulk Modulus (GPa) = 56.17540 56.28463 56.23001
# Shear Modulus (GPa) = 19.93246 23.43424 21.68335
#
# Velocity S-wave (km/s) = 3.36285 3.64631 3.50744
# Velocity P-wave (km/s) = 6.85199 7.04704 6.95020
#
# Compressibility (1/GPa) = 0.01780139
#
# Stress axis : x y z
#
# Youngs Moduli (GPa) = 56.92769 70.99150 70.01969
#
# Poissons Ratio (x) = 0.41745 0.36846
# Poissons Ratio (y) = 0.33475 0.20473
# Poissons Ratio (z) = 0.29957 0.20757
#
# Static dielectric constant tensor:
#      x y z
#    x 3.062310 0.000000 0.000000 
#    y 0.000000 3.314590 0.000000 
#    z 0.000000 0.000000 3.202310 
# 
# 
# High freq. dielectric constant tensor:
#      x y z
#    x 1.647810 0.000000 0.000000 
#    y 0.000000 1.694230 0.000000 
#    z 0.000000 0.000000 1.676230 
# 
# From -- ./inp_files/25833.got.cif
#   From: 2010.03.12/outbox.cif.g09.slc.cpg/sg69_13_cif.got.tgz:25833.got - 2010.04.10 23:52:46.
