data_PCOD8284641
_publ_section_title
;
Structure prediction by ZEFSAII (Michael W. Deem and Ramdas Pophale) SiO2 
 PCOD8284641
Probable space group: F M M M
;
_chemical_formula_sum "Si O2"
_cell_formula_units_Z 144
_cell_length_a 27.417218
_cell_length_b 16.469402
_cell_length_c 16.415337
_cell_angle_alpha 90.000000
_cell_angle_beta 90.000000
_cell_angle_gamma 90.000000
_cell_volume 7412.266382
_symmetry_space_group_name_H-M "F M M M"
_symmetry_group_IT_number 69
_symmetry_cell_setting 'orthorhombic'
loop_
_space_group_symop_operation_xyz
x,y,z
-x,-y,z
x,-y,-z
-x,y,-z
-x,-y,-z
x,y,-z
-x,y,z
x,-y,z
x,1/2+y,1/2+z
-x,1/2-y,1/2+z
x,1/2-y,1/2-z
-x,1/2+y,1/2-z
-x,1/2-y,1/2-z
x,1/2+y,1/2-z
-x,1/2+y,1/2+z
x,1/2-y,1/2+z
1/2+x,y,1/2+z
1/2-x,-y,1/2+z
1/2+x,-y,1/2-z
1/2-x,y,1/2-z
1/2-x,-y,1/2-z
1/2+x,y,1/2-z
1/2-x,y,1/2+z
1/2+x,-y,1/2+z
1/2+x,1/2+y,z
1/2-x,1/2-y,z
1/2+x,1/2-y,-z
1/2-x,1/2+y,-z
1/2-x,1/2-y,-z
1/2+x,1/2+y,-z
1/2-x,1/2+y,z
1/2+x,1/2-y,z
loop_
_atom_site_type_symbol
_atom_site_label
_atom_site_fract_x
_atom_site_fract_y
_atom_site_fract_z
Si Si1 0.943925 0.167792 0.295760
Si Si2 0.869312 0.094364 0.407402
Si Si3 0.944254 0.402442 0.500000
Si Si4 0.196421 0.904588 0.740580
Si Si5 0.392486 0.092401 0.341354
O O1 0.927342 0.250000 0.250000
O O2 0.913955 0.151379 0.378427
O O3 0.932206 0.096385 0.231294
O O4 0.000000 0.169491 0.320625
O O5 0.855687 0.116785 0.500000
O O6 0.822527 0.112822 0.350744
O O7 0.884750 0.000000 0.399666
O O8 0.945492 0.500000 0.500000
O O9 0.915233 0.365936 0.578046
O O10 0.000000 0.369671 0.500000
O O11 0.250000 0.864461 0.750000
O O12 0.158383 0.867904 0.807986
O O13 0.199688 0.000000 0.756754
O O14 0.382415 0.000000 0.363883
#
# Coordination Sequence:
#
# PCOD8284641 Si02
#       5
#    32  32  16  32  32
#     4  10  20  33  48  70  99 133 168 199 245 302
#     4   9  18  33  53  77 102 130 169 213 254 298
#     4   9  16  26  42  66  92 117 153 199 240 279
#     4   8  14  27  47  72 101 129 159 201 252 297
#     4   9  17  30  48  69  94 126 164 200 238 288
#
# _framework density 19.427257000000001
#
# number of rings (size 3 to 8) (size 9 to 14) (size 15 to 20)
#    0.000    3.000    0.000    2.667    0.000    3.111 
#    4.000    1.111    0.000   10.667    0.000    6.222 
#    0.000    0.000    0.000    0.000    0.000    0.000 
#
# Total GULP energy -446067.213510 kJ/mol
# GULP energy per Si atom -12390.755931 kJ/mol
# Density = 1.938304 g / cm^3
# Si number density = 19.427257 Si / 1000 Ang^3
#
#
#
# Elastic Constant Matrix: (Units=GPa)
#
#
# Indices 1 2 3 4 5 6 
#
# 1 163.4009 31.0861 92.9421 0.0000 0.0000 0.0000
# 2 31.0861 19.5266 14.0489 0.0000 0.0000 0.0000
# 3 92.9421 14.0489 167.6454 0.0000 0.0000 0.0000
# 4 0.0000 0.0000 0.0000 17.6269 0.0000 0.0000
# 5 0.0000 0.0000 0.0000 0.0000 23.2079 0.0000
# 6 0.0000 0.0000 0.0000 0.0000 0.0000 11.8127
#
#
#
# Elastic Compliance Matrix: (Units=1/GPa)
#
#
# Indices 1 2 3 4 5 6 
#
# 1 0.012152 -0.015428 -0.005444 0.000000 0.000000 0.000000
# 2 -0.015428 0.074087 0.002345 0.000000 0.000000 0.000000
# 3 -0.005444 0.002345 0.008787 0.000000 0.000000 0.000000
# 4 0.000000 0.000000 0.000000 0.056731 0.000000 0.000000
# 5 0.000000 0.000000 0.000000 0.000000 0.043089 0.000000
# 6 0.000000 0.000000 0.000000 0.000000 0.000000 0.084654
#
#
# Mechanical properties :
#
#
# Convention : Reuss Voigt Hill
#
# Bulk Modulus (GPa) = 17.25026 69.63635 43.44331
# Shear Modulus (GPa) = 14.88637 24.69588 19.79113
#
# Velocity S-wave (km/s) = 2.77115 3.56925 3.19522
# Velocity P-wave (km/s) = 4.37467 7.27383 6.00193
#
# Compressibility (1/GPa) = 0.05797015
#
# Stress axis : x y z
#
# Youngs Moduli (GPa) = 82.29412 13.49769 113.81054
#
# Poissons Ratio (x) = 0.20825 0.61957
# Poissons Ratio (y) = 1.26966 -0.26687
# Poissons Ratio (z) = 0.44800 -0.03165
#
# Static dielectric constant tensor:
#      x y z
#    x 3.790590 0.000000 0.000000 
#    y 0.000000 3.164320 0.000000 
#    z 0.000000 0.000000 3.659380 
# 
# 
# High freq. dielectric constant tensor:
#      x y z
#    x 1.749980 0.000000 0.000000 
#    y 0.000000 1.714450 0.000000 
#    z 0.000000 0.000000 1.755200 
# 
# From -- ./inp_files/23049.got.cif
#   From: 2010.03.12/outbox.cif.g09.slc.cpg/sg69_12_cif.got.tgz:23049.got - 2010.04.10 23:52:46.
