data_PCOD8284279
_publ_section_title
;
Structure prediction by ZEFSAII (Michael W. Deem and Ramdas Pophale) SiO2 
 PCOD8284279
Probable space group: F M M M
;
_chemical_formula_sum "Si O2"
_cell_formula_units_Z 160
_cell_length_a 16.464314
_cell_length_b 17.139807
_cell_length_c 27.037422
_cell_angle_alpha 90.000000
_cell_angle_beta 90.000000
_cell_angle_gamma 90.000000
_cell_volume 7629.829745
_symmetry_space_group_name_H-M "F M M M"
_symmetry_group_IT_number 69
_symmetry_cell_setting 'orthorhombic'
loop_
_space_group_symop_operation_xyz
x,y,z
-x,-y,z
x,-y,-z
-x,y,-z
-x,-y,-z
x,y,-z
-x,y,z
x,-y,z
x,1/2+y,1/2+z
-x,1/2-y,1/2+z
x,1/2-y,1/2-z
-x,1/2+y,1/2-z
-x,1/2-y,1/2-z
x,1/2+y,1/2-z
-x,1/2+y,1/2+z
x,1/2-y,1/2+z
1/2+x,y,1/2+z
1/2-x,-y,1/2+z
1/2+x,-y,1/2-z
1/2-x,y,1/2-z
1/2-x,-y,1/2-z
1/2+x,y,1/2-z
1/2-x,y,1/2+z
1/2+x,-y,1/2+z
1/2+x,1/2+y,z
1/2-x,1/2-y,z
1/2+x,1/2-y,-z
1/2-x,1/2+y,-z
1/2-x,1/2-y,-z
1/2+x,1/2+y,-z
1/2-x,1/2+y,z
1/2+x,1/2-y,z
loop_
_atom_site_type_symbol
_atom_site_label
_atom_site_fract_x
_atom_site_fract_y
_atom_site_fract_z
Si Si1 0.907301 0.584985 0.180602
Si Si2 0.096418 0.185707 0.593429
Si Si3 0.667156 0.090632 0.278111
Si Si4 0.903322 0.855718 0.878294
Si Si5 0.596947 0.910458 0.000000
Si Si6 0.403878 0.500000 0.055437
O O1 0.863876 0.500000 0.174632
O O2 0.866524 0.645977 0.142944
O O3 0.901536 0.611358 0.237564
O O4 0.000000 0.576567 0.165349
O O5 0.122371 0.276118 0.593890
O O6 0.131185 0.137280 0.547043
O O7 0.000000 0.181618 0.592528
O O8 0.750000 0.114720 0.250000
O O9 0.646985 0.139799 0.327062
O O10 0.666181 0.000000 0.293308
O O11 0.000000 0.859832 0.866878
O O12 0.874792 0.923819 0.914998
O O13 0.500000 0.911790 0.000000
O O14 0.629504 0.000000 0.000000
O O15 0.500000 0.500000 0.051314
O O16 0.366183 0.500000 0.000000
#
# Coordination Sequence:
#
# PCOD8284279 Si02
#       6
#    32  32  32  32  16  16
#     4   9  17  31  51  73 100 133 171 212 264 323
#     4   9  18  29  46  75 105 135 170 217 266 317
#     4  10  20  34  52  75 100 139 181 222 268 324
#     4  10  19  32  51  77 110 141 179 225 273 323
#     4   9  16  28  48  75 110 143 177 220 274 327
#     4   9  18  30  49  76 106 142 180 220 264 317
#
# _framework density 20.970324000000002
#
# number of rings (size 3 to 8) (size 9 to 14) (size 15 to 20)
#    0.000    2.600    1.000    1.200    1.400    4.000 
#    0.000    5.000    0.000    0.000    2.600    1.400 
#    0.000    0.000    0.000    0.000    0.000    0.200 
#
# Total GULP energy -495688.404043 kJ/mol
# GULP energy per Si atom -12392.210101 kJ/mol
# Density = 2.092259 g / cm^3
# Si number density = 20.970324 Si / 1000 Ang^3
#
#
#
# Elastic Constant Matrix: (Units=GPa)
#
#
# Indices 1 2 3 4 5 6 
#
# 1 24.1006 16.9218 18.2872 0.0000 0.0000 0.0000
# 2 16.9218 174.3065 105.1911 0.0000 0.0000 0.0000
# 3 18.2872 105.1911 179.6390 0.0000 0.0000 0.0000
# 4 0.0000 0.0000 0.0000 40.3647 0.0000 0.0000
# 5 0.0000 0.0000 0.0000 0.0000 14.8181 0.0000
# 6 0.0000 0.0000 0.0000 0.0000 0.0000 8.7460
#
#
#
# Elastic Compliance Matrix: (Units=1/GPa)
#
#
# Indices 1 2 3 4 5 6 
#
# 1 0.045669 -0.002518 -0.003175 0.000000 0.000000 0.000000
# 2 -0.002518 0.009011 -0.005020 0.000000 0.000000 0.000000
# 3 -0.003175 -0.005020 0.008830 0.000000 0.000000 0.000000
# 4 0.000000 0.000000 0.000000 0.024774 0.000000 0.000000
# 5 0.000000 0.000000 0.000000 0.000000 0.067485 0.000000
# 6 0.000000 0.000000 0.000000 0.000000 0.000000 0.114338
#
#
# Mechanical properties :
#
#
# Convention : Reuss Voigt Hill
#
# Bulk Modulus (GPa) = 23.76170 73.20513 48.48342
# Shear Modulus (GPa) = 16.36331 28.62882 22.49607
#
# Velocity S-wave (km/s) = 2.79643 3.69888 3.27885
# Velocity P-wave (km/s) = 4.66716 7.29568 6.12411
#
# Compressibility (1/GPa) = 0.04208454
#
# Stress axis : x y z
#
# Youngs Moduli (GPa) = 21.89647 110.97382 113.25439
#
# Poissons Ratio (x) = 0.27939 0.35957
# Poissons Ratio (y) = 0.05513 0.56858
# Poissons Ratio (z) = 0.06952 0.55713
#
# Static dielectric constant tensor:
#      x y z
#    x 3.266730 0.000000 0.000000 
#    y 0.000000 3.949180 0.000000 
#    z 0.000000 0.000000 4.023510 
# 
# 
# High freq. dielectric constant tensor:
#      x y z
#    x 1.766210 0.000000 0.000000 
#    y 0.000000 1.820910 0.000000 
#    z 0.000000 0.000000 1.830800 
# 
# From -- ./inp_files/32643.got.cif
#   From: 2010.03.12/outbox.cif.g09.slc.cpg/sg69_17_cif.got.tgz:32643.got - 2010.04.10 23:52:46.
