data_PCOD8284438
_publ_section_title
;
Structure prediction by ZEFSAII (Michael W. Deem and Ramdas Pophale) SiO2 
 PCOD8284438
Probable space group: F M M M
;
_chemical_formula_sum "Si O2"
_cell_formula_units_Z 160
_cell_length_a 18.885884
_cell_length_b 25.401889
_cell_length_c 18.046015
_cell_angle_alpha 90.000000
_cell_angle_beta 90.000000
_cell_angle_gamma 90.000000
_cell_volume 8657.343427
_symmetry_space_group_name_H-M "F M M M"
_symmetry_group_IT_number 69
_symmetry_cell_setting 'orthorhombic'
loop_
_space_group_symop_operation_xyz
x,y,z
-x,-y,z
x,-y,-z
-x,y,-z
-x,-y,-z
x,y,-z
-x,y,z
x,-y,z
x,1/2+y,1/2+z
-x,1/2-y,1/2+z
x,1/2-y,1/2-z
-x,1/2+y,1/2-z
-x,1/2-y,1/2-z
x,1/2+y,1/2-z
-x,1/2+y,1/2+z
x,1/2-y,1/2+z
1/2+x,y,1/2+z
1/2-x,-y,1/2+z
1/2+x,-y,1/2-z
1/2-x,y,1/2-z
1/2-x,-y,1/2-z
1/2+x,y,1/2-z
1/2-x,y,1/2+z
1/2+x,-y,1/2+z
1/2+x,1/2+y,z
1/2-x,1/2-y,z
1/2+x,1/2-y,-z
1/2-x,1/2+y,-z
1/2-x,1/2-y,-z
1/2+x,1/2+y,-z
1/2-x,1/2+y,z
1/2+x,1/2-y,z
loop_
_atom_site_type_symbol
_atom_site_label
_atom_site_fract_x
_atom_site_fract_y
_atom_site_fract_z
Si Si1 0.420124 0.209024 0.311199
Si Si2 0.079787 0.500000 0.323233
Si Si3 0.275187 0.898722 0.165871
Si Si4 0.921314 0.101737 0.725324
Si Si5 0.715646 0.500000 0.087161
Si Si6 0.204375 0.697845 0.583891
O O1 0.500000 0.224756 0.333955
O O2 0.391060 0.250000 0.250000
O O3 0.416573 0.150470 0.280357
O O4 0.372660 0.211991 0.384308
O O5 0.094799 0.449554 0.273312
O O6 0.132695 0.500000 0.392435
O O7 0.000000 0.500000 0.354951
O O8 0.250000 0.905720 0.250000
O O9 0.360948 0.893656 0.162578
O O10 0.253869 0.948831 0.118528
O O11 0.241608 0.846426 0.132655
O O12 0.000000 0.098872 0.688654
O O13 0.723252 0.500000 0.000000
O O14 0.195394 0.677393 0.500000
O O15 0.250000 0.750000 0.586938
#
# Coordination Sequence:
#
# PCOD8284438 Si02
#       6
#    32  16  32  32  16  32
#     4  10  20  35  57  85 113 148 192 232 280 342
#     4  10  19  34  54  81 116 148 183 227 285 344
#     4  12  21  37  63  84 110 152 195 235 280 339
#     4  10  20  34  56  86 111 139 188 241 278 325
#     4  12  24  37  56  85 120 151 187 236 289 343
#     4  11  24  38  56  86 120 151 188 237 292 343
#
# _framework density 18.48142
#
# number of rings (size 3 to 8) (size 9 to 14) (size 15 to 20)
#    0.000    1.200    4.000    2.700    0.000    0.600 
#    0.000    0.000    0.000   10.200    0.000    0.000 
#    0.000    0.000    0.000    0.000    0.000    0.000 
#
# Total GULP energy -496086.188541 kJ/mol
# GULP energy per Si atom -12402.154714 kJ/mol
# Density = 1.843936 g / cm^3
# Si number density = 18.481420 Si / 1000 Ang^3
#
#
#
# Elastic Constant Matrix: (Units=GPa)
#
#
# Indices 1 2 3 4 5 6 
#
# 1 146.5532 18.1715 65.4337 0.0000 0.0000 0.0000
# 2 18.1715 92.5258 35.3654 0.0000 0.0000 0.0000
# 3 65.4337 35.3654 112.4849 0.0000 0.0000 0.0000
# 4 0.0000 0.0000 0.0000 23.2954 0.0000 0.0000
# 5 0.0000 0.0000 0.0000 0.0000 16.8088 0.0000
# 6 0.0000 0.0000 0.0000 0.0000 0.0000 27.6607
#
#
#
# Elastic Compliance Matrix: (Units=1/GPa)
#
#
# Indices 1 2 3 4 5 6 
#
# 1 0.009223 0.000272 -0.005451 0.000000 0.000000 0.000000
# 2 0.000272 0.012292 -0.004023 0.000000 0.000000 0.000000
# 3 -0.005451 -0.004023 0.013326 0.000000 0.000000 0.000000
# 4 0.000000 0.000000 0.000000 0.042927 0.000000 0.000000
# 5 0.000000 0.000000 0.000000 0.000000 0.059493 0.000000
# 6 0.000000 0.000000 0.000000 0.000000 0.000000 0.036152
#
#
# Mechanical properties :
#
#
# Convention : Reuss Voigt Hill
#
# Bulk Modulus (GPa) = 60.83577 65.50057 63.16817
# Shear Modulus (GPa) = 25.34261 29.05918 27.20090
#
# Velocity S-wave (km/s) = 3.70705 3.96958 3.84056
# Velocity P-wave (km/s) = 7.16322 7.51854 7.34303
#
# Compressibility (1/GPa) = 0.01643770
#
# Stress axis : x y z
#
# Youngs Moduli (GPa) = 108.41893 81.35378 75.04277
#
# Poissons Ratio (x) = -0.02213 0.40905
# Poissons Ratio (y) = -0.02949 0.30189
# Poissons Ratio (z) = 0.59098 0.32727
#
# Static dielectric constant tensor:
#      x y z
#    x 3.904990 0.000000 0.000000 
#    y 0.000000 3.490250 0.000000 
#    z 0.000000 0.000000 3.234410 
# 
# 
# High freq. dielectric constant tensor:
#      x y z
#    x 1.736100 0.000000 0.000000 
#    y 0.000000 1.741460 0.000000 
#    z 0.000000 0.000000 1.682850 
# 
# From -- ./inp_files/23223.got.cif
#   From: 2010.03.12/outbox.cif.g09.slc.cpg/sg69_12_cif.got.tgz:23223.got - 2010.04.10 23:52:46.
