data_PCOD8284740
_publ_section_title
;
Structure prediction by ZEFSAII (Michael W. Deem and Ramdas Pophale) SiO2 
 PCOD8284740
Probable space group: F M M M
;
_chemical_formula_sum "Si O2"
_cell_formula_units_Z 128
_cell_length_a 8.977792
_cell_length_b 34.051729
_cell_length_c 25.302231
_cell_angle_alpha 90.000000
_cell_angle_beta 90.000000
_cell_angle_gamma 90.000000
_cell_volume 7735.128345
_symmetry_space_group_name_H-M "F M M M"
_symmetry_group_IT_number 69
_symmetry_cell_setting 'orthorhombic'
loop_
_space_group_symop_operation_xyz
x,y,z
-x,-y,z
x,-y,-z
-x,y,-z
-x,-y,-z
x,y,-z
-x,y,z
x,-y,z
x,1/2+y,1/2+z
-x,1/2-y,1/2+z
x,1/2-y,1/2-z
-x,1/2+y,1/2-z
-x,1/2-y,1/2-z
x,1/2+y,1/2-z
-x,1/2+y,1/2+z
x,1/2-y,1/2+z
1/2+x,y,1/2+z
1/2-x,-y,1/2+z
1/2+x,-y,1/2-z
1/2-x,y,1/2-z
1/2-x,-y,1/2-z
1/2+x,y,1/2-z
1/2-x,y,1/2+z
1/2+x,-y,1/2+z
1/2+x,1/2+y,z
1/2-x,1/2-y,z
1/2+x,1/2-y,-z
1/2-x,1/2+y,-z
1/2-x,1/2-y,-z
1/2+x,1/2+y,-z
1/2-x,1/2+y,z
1/2+x,1/2-y,z
loop_
_atom_site_type_symbol
_atom_site_label
_atom_site_fract_x
_atom_site_fract_y
_atom_site_fract_z
Si Si1 0.168721 0.000000 0.937203
Si Si2 0.672234 0.661841 0.407135
Si Si3 0.825501 0.709295 0.196273
Si Si4 0.327487 0.076725 0.060382
Si Si5 0.676192 0.792288 0.500000
O O1 0.242812 0.039546 0.914220
O O2 0.000000 0.000000 0.918664
O O3 0.189288 0.000000 0.000000
O O4 0.500000 0.668097 0.423957
O O5 0.703940 0.677146 0.348490
O O6 0.712869 0.615764 0.406903
O O7 0.775691 0.684588 0.447887
O O8 0.750000 0.693668 0.250000
O O9 0.750000 0.750000 0.178449
O O10 0.000000 0.716492 0.205677
O O11 0.500000 0.066478 0.063503
O O12 0.277628 0.084275 0.000000
O O13 0.500000 0.787216 0.500000
O O14 0.750000 0.750000 0.500000
#
# Coordination Sequence:
#
# PCOD8284740 Si02
#       5
#    16  32  32  32  16
#     4   9  17  27  41  65  98 127 158 195 232 278
#     4  10  20  35  52  72  98 129 164 203 243 291
#     4  10  20  34  53  72  95 125 163 207 249 287
#     4   9  16  29  48  67  93 128 162 193 232 286
#     4  12  24  34  48  69  98 133 164 198 241 292
#
# _framework density 16.547882999999999
#
# number of rings (size 3 to 8) (size 9 to 14) (size 15 to 20)
#    0.000    2.125    1.250    3.750    0.000    6.500 
#    0.000    0.000    0.000    0.000    0.000    0.875 
#    0.000    0.000    0.000    0.000    0.000    0.000 
#
# Total GULP energy -396827.127400 kJ/mol
# GULP energy per Si atom -12400.847731 kJ/mol
# Density = 1.651022 g / cm^3
# Si number density = 16.547883 Si / 1000 Ang^3
#
#
#
# Elastic Constant Matrix: (Units=GPa)
#
#
# Indices 1 2 3 4 5 6 
#
# 1 108.3932 72.9137 46.8785 0.0000 0.0000 0.0000
# 2 72.9137 156.5477 65.0163 0.0000 0.0000 0.0000
# 3 46.8785 65.0163 79.5701 0.0000 0.0000 0.0000
# 4 0.0000 0.0000 0.0000 16.0304 0.0000 0.0000
# 5 0.0000 0.0000 0.0000 0.0000 19.9027 0.0000
# 6 0.0000 0.0000 0.0000 0.0000 0.0000 24.2474
#
#
#
# Elastic Compliance Matrix: (Units=1/GPa)
#
#
# Indices 1 2 3 4 5 6 
#
# 1 0.014452 -0.004836 -0.004563 0.000000 0.000000 0.000000
# 2 -0.004836 0.011287 -0.006374 0.000000 0.000000 0.000000
# 3 -0.004563 -0.006374 0.020464 0.000000 0.000000 0.000000
# 4 0.000000 0.000000 0.000000 0.062382 0.000000 0.000000
# 5 0.000000 0.000000 0.000000 0.000000 0.050244 0.000000
# 6 0.000000 0.000000 0.000000 0.000000 0.000000 0.041242
#
#
# Mechanical properties :
#
#
# Convention : Reuss Voigt Hill
#
# Bulk Modulus (GPa) = 68.22295 79.34757 73.78526
# Shear Modulus (GPa) = 21.14145 22.68292 21.91219
#
# Velocity S-wave (km/s) = 3.57822 3.70637 3.64286
# Velocity P-wave (km/s) = 7.64125 8.14682 7.89808
#
# Compressibility (1/GPa) = 0.01465782
#
# Stress axis : x y z
#
# Youngs Moduli (GPa) = 69.19309 88.59406 48.86736
#
# Poissons Ratio (x) = 0.42847 0.22297
# Poissons Ratio (y) = 0.33464 0.31146
# Poissons Ratio (z) = 0.31572 0.56466
#
# Static dielectric constant tensor:
#      x y z
#    x 3.185570 0.000000 0.000000 
#    y 0.000000 3.260040 0.000000 
#    z 0.000000 0.000000 2.884070 
# 
# 
# High freq. dielectric constant tensor:
#      x y z
#    x 1.645040 0.000000 0.000000 
#    y 0.000000 1.643910 0.000000 
#    z 0.000000 0.000000 1.599540 
# 
# From -- ./inp_files/4774.got.cif
#   From: 2010.03.12/outbox.cif.g09.slc.cpg/sg69_3_cif.got.tgz:4774.got - 2010.04.10 23:52:46.
