data_PCOD8284467
_publ_section_title
;
Structure prediction by ZEFSAII (Michael W. Deem and Ramdas Pophale) SiO2 
 PCOD8284467
Probable space group: F M M M
;
_chemical_formula_sum "Si O2"
_cell_formula_units_Z 224
_cell_length_a 15.228500
_cell_length_b 33.084840
_cell_length_c 22.153229
_cell_angle_alpha 90.000000
_cell_angle_beta 90.000000
_cell_angle_gamma 90.000000
_cell_volume 11161.516439
_symmetry_space_group_name_H-M "F M M M"
_symmetry_group_IT_number 69
_symmetry_cell_setting 'orthorhombic'
loop_
_space_group_symop_operation_xyz
x,y,z
-x,-y,z
x,-y,-z
-x,y,-z
-x,-y,-z
x,y,-z
-x,y,z
x,-y,z
x,1/2+y,1/2+z
-x,1/2-y,1/2+z
x,1/2-y,1/2-z
-x,1/2+y,1/2-z
-x,1/2-y,1/2-z
x,1/2+y,1/2-z
-x,1/2+y,1/2+z
x,1/2-y,1/2+z
1/2+x,y,1/2+z
1/2-x,-y,1/2+z
1/2+x,-y,1/2-z
1/2-x,y,1/2-z
1/2-x,-y,1/2-z
1/2+x,y,1/2-z
1/2-x,y,1/2+z
1/2+x,-y,1/2+z
1/2+x,1/2+y,z
1/2-x,1/2-y,z
1/2+x,1/2-y,-z
1/2-x,1/2+y,-z
1/2-x,1/2-y,-z
1/2+x,1/2+y,-z
1/2-x,1/2+y,z
1/2+x,1/2-y,z
loop_
_atom_site_type_symbol
_atom_site_label
_atom_site_fract_x
_atom_site_fract_y
_atom_site_fract_z
Si Si1 0.098106 0.674984 0.170192
Si Si2 0.742375 0.454467 0.430272
Si Si3 0.396675 0.385811 0.569193
Si Si4 0.898095 0.662478 0.300364
Si Si5 0.602961 0.137739 0.500000
Si Si6 0.347736 0.741773 0.869430
Si Si7 0.102514 0.589309 0.616865
Si Si8 0.395517 0.726451 0.000000
O O1 0.138763 0.650073 0.113551
O O2 0.147380 0.665650 0.234085
O O3 0.095104 0.723243 0.161502
O O4 0.000000 0.658578 0.175569
O O5 0.771662 0.449492 0.500000
O O6 0.710256 0.500000 0.417506
O O7 0.660159 0.425513 0.414963
O O8 0.827419 0.447200 0.386111
O O9 0.379812 0.371915 0.500000
O O10 0.500000 0.395760 0.578378
O O11 0.868700 0.696676 0.347626
O O12 0.880648 0.617518 0.325271
O O13 0.000000 0.670605 0.292505
O O14 0.500000 0.143402 0.500000
O O15 0.633098 0.114885 0.559264
O O16 0.645837 0.181750 0.500000
O O17 0.250000 0.750000 0.849353
O O18 0.360621 0.748376 0.940622
O O19 0.000000 0.574853 0.613621
O O20 0.500000 0.727048 0.000000
#
# Coordination Sequence:
#
# PCOD8284467 Si02
#       8
#    32  32  32  32  16  32  32  16
#     4  10  22  39  59  81 109 150 199 246 287 333
#     4  10  21  36  58  90 121 147 180 228 287 351
#     4   9  20  39  61  85 113 147 189 240 295 345
#     4  10  21  39  59  78 109 157 201 236 280 340
#     4   9  16  29  52  77 104 144 192 231 273 327
#     4  12  25  36  51  83 119 151 194 245 291 335
#     4  10  19  34  57  84 116 154 190 229 278 338
#     4  11  21  37  57  76 108 154 199 238 284 341
#
# _framework density 20.068957000000001
#
# number of rings (size 3 to 8) (size 9 to 14) (size 15 to 20)
#    0.000    1.857    2.143    1.929    3.000    2.857 
#    0.000    2.143    0.000    1.714    0.000    4.000 
#    0.000    0.000    0.000    0.000    0.000    0.000 
#
# Total GULP energy -694015.075163 kJ/mol
# GULP energy per Si atom -12393.126342 kJ/mol
# Density = 2.002328 g / cm^3
# Si number density = 20.068957 Si / 1000 Ang^3
#
#
#
# Elastic Constant Matrix: (Units=GPa)
#
#
# Indices 1 2 3 4 5 6 
#
# 1 60.7850 28.7569 19.3117 0.0000 0.0000 0.0000
# 2 28.7569 78.2363 26.9799 0.0000 0.0000 0.0000
# 3 19.3117 26.9799 116.5995 0.0000 0.0000 0.0000
# 4 0.0000 0.0000 0.0000 257.3580 0.0000 0.0000
# 5 0.0000 0.0000 0.0000 0.0000 12.7831 0.0000
# 6 0.0000 0.0000 0.0000 0.0000 0.0000 29.3724
#
#
#
# Elastic Compliance Matrix: (Units=1/GPa)
#
#
# Indices 1 2 3 4 5 6 
#
# 1 0.020246 -0.006830 -0.001773 0.000000 0.000000 0.000000
# 2 -0.006830 0.016195 -0.002616 0.000000 0.000000 0.000000
# 3 -0.001773 -0.002616 0.009475 0.000000 0.000000 0.000000
# 4 0.000000 0.000000 0.000000 0.003886 0.000000 0.000000
# 5 0.000000 0.000000 0.000000 0.000000 0.078228 0.000000
# 6 0.000000 0.000000 0.000000 0.000000 0.000000 0.034046
#
#
# Mechanical properties :
#
#
# Convention : Reuss Voigt Hill
#
# Bulk Modulus (GPa) = 42.59372 45.07973 43.83673
# Shear Modulus (GPa) = 25.99574 71.94086 48.96830
#
# Velocity S-wave (km/s) = 3.60296 5.99372 4.94500
# Velocity P-wave (km/s) = 6.21113 8.39111 7.38204
#
# Compressibility (1/GPa) = 0.02347764
#
# Stress axis : x y z
#
# Youngs Moduli (GPa) = 49.39237 61.74931 105.53776
#
# Poissons Ratio (x) = 0.42177 0.18709
# Poissons Ratio (y) = 0.33737 0.27608
# Poissons Ratio (z) = 0.08756 0.16153
#
# Static dielectric constant tensor:
#      x y z
#    x 3.552110 0.000000 0.000000 
#    y 0.000000 3.586040 0.000000 
#    z 0.000000 0.000000 3.960230 
# 
# 
# High freq. dielectric constant tensor:
#      x y z
#    x 1.778200 0.000000 0.000000 
#    y 0.000000 1.762180 0.000000 
#    z 0.000000 0.000000 1.780010 
# 
# From -- ./inp_files/31235.got.cif
#   From: 2010.03.12/outbox.cif.g09.slc.cpg/sg69_16_cif.got.tgz:31235.got - 2010.04.10 23:52:46.
