data_PCOD8284734
_publ_section_title
;
Structure prediction by ZEFSAII (Michael W. Deem and Ramdas Pophale) SiO2 
 PCOD8284734
Probable space group: F M M M
;
_chemical_formula_sum "Si O2"
_cell_formula_units_Z 112
_cell_length_a 22.614631
_cell_length_b 26.320949
_cell_length_c 9.425178
_cell_angle_alpha 90.000000
_cell_angle_beta 90.000000
_cell_angle_gamma 90.000000
_cell_volume 5610.229279
_symmetry_space_group_name_H-M "F M M M"
_symmetry_group_IT_number 69
_symmetry_cell_setting 'orthorhombic'
loop_
_space_group_symop_operation_xyz
x,y,z
-x,-y,z
x,-y,-z
-x,y,-z
-x,-y,-z
x,y,-z
-x,y,z
x,-y,z
x,1/2+y,1/2+z
-x,1/2-y,1/2+z
x,1/2-y,1/2-z
-x,1/2+y,1/2-z
-x,1/2-y,1/2-z
x,1/2+y,1/2-z
-x,1/2+y,1/2+z
x,1/2-y,1/2+z
1/2+x,y,1/2+z
1/2-x,-y,1/2+z
1/2+x,-y,1/2-z
1/2-x,y,1/2-z
1/2-x,-y,1/2-z
1/2+x,y,1/2-z
1/2-x,y,1/2+z
1/2+x,-y,1/2+z
1/2+x,1/2+y,z
1/2-x,1/2-y,z
1/2+x,1/2-y,-z
1/2-x,1/2+y,-z
1/2-x,1/2-y,-z
1/2+x,1/2+y,-z
1/2-x,1/2+y,z
1/2+x,1/2-y,z
loop_
_atom_site_type_symbol
_atom_site_label
_atom_site_fract_x
_atom_site_fract_y
_atom_site_fract_z
Si Si1 0.838043 0.703220 0.839051
Si Si2 0.750000 0.378520 0.250000
Si Si3 0.568639 0.145198 0.332149
Si Si4 0.645943 0.944741 0.659835
O O1 0.810333 0.750000 0.750000
O O2 0.791045 0.657222 0.847441
O O3 0.898274 0.688590 0.756746
O O4 0.852831 0.719694 0.000000
O O5 0.708391 0.415375 0.158963
O O6 0.581180 0.152745 0.500000
O O7 0.500000 0.147952 0.295660
O O8 0.594171 0.090959 0.276737
O O9 0.628703 0.956011 0.500000
O O10 0.648946 0.000000 0.739335
#
# Coordination Sequence:
#
# PCOD8284734 Si02
#       4
#    32  16  32  32
#     4  11  23  37  56  80 107 141 180 223 271 322
#     4  10  20  34  52  76 110 144 178 214 262 320
#     4   9  19  36  56  79 109 143 180 222 266 315
#     4   9  17  30  51  79 108 139 177 219 260 306
#
# _framework density 19.963533000000002
#
# number of rings (size 3 to 8) (size 9 to 14) (size 15 to 20)
#    0.000    2.286    0.000    2.571    0.000    6.286 
#    0.000    2.857    0.000    7.714    0.000    8.000 
#    0.000    0.000    0.000    0.000    0.000    0.000 
#
# Total GULP energy -346967.254060 kJ/mol
# GULP energy per Si atom -12391.687645 kJ/mol
# Density = 1.991810 g / cm^3
# Si number density = 19.963533 Si / 1000 Ang^3
#
#
#
# Elastic Constant Matrix: (Units=GPa)
#
#
# Indices 1 2 3 4 5 6 
#
# 1 102.2790 19.9907 24.3689 -0.0001 0.0001 0.0001
# 2 19.9907 102.2841 32.9355 -0.0001 0.0001 0.0001
# 3 24.3689 32.9355 87.9548 -0.0006 0.0007 0.0004
# 4 -0.0001 -0.0001 -0.0006 20.1529 0.0003 0.0002
# 5 0.0001 0.0001 0.0007 0.0003 19.5787 -0.0002
# 6 0.0001 0.0001 0.0004 0.0002 -0.0002 14.4520
#
#
#
# Elastic Compliance Matrix: (Units=1/GPa)
#
#
# Indices 1 2 3 4 5 6 
#
# 1 0.010614 -0.001282 -0.002461 0.000000 0.000000 0.000000
# 2 -0.001282 0.011272 -0.003866 0.000000 0.000000 0.000000
# 3 -0.002461 -0.003866 0.013499 0.000000 0.000000 0.000000
# 4 0.000000 0.000000 0.000000 0.049621 -0.000001 -0.000001
# 5 0.000000 0.000000 0.000000 -0.000001 0.051076 0.000001
# 6 0.000000 0.000000 0.000000 -0.000001 0.000001 0.069194
#
#
# Mechanical properties :
#
#
# Convention : Reuss Voigt Hill
#
# Bulk Modulus (GPa) = 49.58364 49.67868 49.63116
# Shear Modulus (GPa) = 22.00553 25.18489 23.59521
#
# Velocity S-wave (km/s) = 3.32367 3.55568 3.44163
# Velocity P-wave (km/s) = 6.29445 6.46497 6.38028
#
# Compressibility (1/GPa) = 0.02016794
#
# Stress axis : x y z
#
# Youngs Moduli (GPa) = 94.21478 88.71522 74.08076
#
# Poissons Ratio (x) = 0.11374 0.18229
# Poissons Ratio (y) = 0.12079 0.28637
# Poissons Ratio (z) = 0.23183 0.34295
#
# Static dielectric constant tensor:
#      x y z
#    x 3.535340 0.000000 0.000000 
#    y 0.000000 4.246300 0.000000 
#    z 0.000000 0.000000 3.240660 
# 
# 
# High freq. dielectric constant tensor:
#      x y z
#    x 1.774840 0.000000 0.000000 
#    y 0.000000 1.794850 0.000000 
#    z 0.000000 0.000000 1.742080 
# 
# From -- ./inp_files/3712.got.cif
#   From: 2010.03.12/outbox.cif.g09.slc.cpg/sg69_2_cif.got.tgz:3712.got - 2010.04.10 23:52:46.
