data_PCOD8284692
_publ_section_title
;
Structure prediction by ZEFSAII (Michael W. Deem and Ramdas Pophale) SiO2 
 PCOD8284692
Probable space group: F M M M
;
_chemical_formula_sum "Si O2"
_cell_formula_units_Z 192
_cell_length_a 29.443978
_cell_length_b 17.176561
_cell_length_c 18.596878
_cell_angle_alpha 90.000000
_cell_angle_beta 90.000000
_cell_angle_gamma 90.000000
_cell_volume 9405.301946
_symmetry_space_group_name_H-M "F M M M"
_symmetry_group_IT_number 69
_symmetry_cell_setting 'orthorhombic'
loop_
_space_group_symop_operation_xyz
x,y,z
-x,-y,z
x,-y,-z
-x,y,-z
-x,-y,-z
x,y,-z
-x,y,z
x,-y,z
x,1/2+y,1/2+z
-x,1/2-y,1/2+z
x,1/2-y,1/2-z
-x,1/2+y,1/2-z
-x,1/2-y,1/2-z
x,1/2+y,1/2-z
-x,1/2+y,1/2+z
x,1/2-y,1/2+z
1/2+x,y,1/2+z
1/2-x,-y,1/2+z
1/2+x,-y,1/2-z
1/2-x,y,1/2-z
1/2-x,-y,1/2-z
1/2+x,y,1/2-z
1/2-x,y,1/2+z
1/2+x,-y,1/2+z
1/2+x,1/2+y,z
1/2-x,1/2-y,z
1/2+x,1/2-y,-z
1/2-x,1/2+y,-z
1/2-x,1/2-y,-z
1/2+x,1/2+y,-z
1/2-x,1/2+y,z
1/2+x,1/2-y,z
loop_
_atom_site_type_symbol
_atom_site_label
_atom_site_fract_x
_atom_site_fract_y
_atom_site_fract_z
Si Si1 0.500000 0.913474 0.887564
Si Si2 0.599222 0.621745 0.423529
Si Si3 0.340617 0.592276 0.154051
Si Si4 0.329091 0.086520 0.814002
Si Si5 0.246273 0.407956 0.919378
Si Si6 0.913806 0.298607 0.417500
Si Si7 0.500000 0.248420 0.666923
O O1 0.453535 0.902565 0.932432
O O2 0.500000 0.841877 0.834529
O O3 0.500000 0.000000 0.851889
O O4 0.621677 0.596348 0.500000
O O5 0.623095 0.580571 0.356263
O O6 0.608198 0.713471 0.413738
O O7 0.351059 0.500000 0.153256
O O8 0.335690 0.625779 0.235795
O O9 0.295455 0.613637 0.110685
O O10 0.381318 0.635922 0.114783
O O11 0.291661 0.128692 0.865163
O O12 0.311099 0.000000 0.797350
O O13 0.239414 0.500000 0.922888
O O14 0.241044 0.372808 0.000000
O O15 0.926205 0.319990 0.500000
O O16 0.958111 0.296055 0.368270
O O17 0.500000 0.250000 0.750000
#
# Coordination Sequence:
#
# PCOD8284692 Si02
#       7
#    16  32  32  32  32  32  16
#     4  10  21  36  59  87 118 150 193 240 288 352
#     4  10  21  36  55  82 116 153 190 235 298 366
#     4  10  21  36  58  85 115 152 200 251 295 345
#     4  10  20  33  53  84 118 150 188 241 300 358
#     4   9  17  32  55  81 112 151 193 241 301 362
#     4  10  22  40  61  83 113 154 197 240 290 355
#     4  10  23  41  64  87 118 161 192 239 297 352
#
# _framework density 20.414016
#
# number of rings (size 3 to 8) (size 9 to 14) (size 15 to 20)
#    0.000    2.167    0.000    2.500    4.667    7.333 
#    0.000    1.250    0.000    6.000    0.000    0.000 
#    0.000    0.000    0.000    0.000    0.000    0.000 
#
# Total GULP energy -594650.710066 kJ/mol
# GULP energy per Si atom -12388.556460 kJ/mol
# Density = 2.036755 g / cm^3
# Si number density = 20.414016 Si / 1000 Ang^3
#
#
#
# Elastic Constant Matrix: (Units=GPa)
#
#
# Indices 1 2 3 4 5 6 
#
# 1 122.3925 38.5666 74.7119 0.0000 0.0000 0.0000
# 2 38.5666 67.3712 31.0374 0.0000 0.0000 0.0000
# 3 74.7119 31.0374 195.0896 0.0000 0.0000 0.0000
# 4 0.0000 0.0000 0.0000 17.6618 0.0000 0.0000
# 5 0.0000 0.0000 0.0000 0.0000 -46.5206 0.0000
# 6 0.0000 0.0000 0.0000 0.0000 0.0000 16.0715
#
#
#
# Elastic Compliance Matrix: (Units=1/GPa)
#
#
# Indices 1 2 3 4 5 6 
#
# 1 0.012139 -0.005188 -0.003823 0.000000 0.000000 0.000000
# 2 -0.005188 0.018234 -0.000914 0.000000 0.000000 0.000000
# 3 -0.003823 -0.000914 0.006736 0.000000 0.000000 0.000000
# 4 0.000000 0.000000 0.000000 0.056619 0.000000 0.000000
# 5 0.000000 0.000000 0.000000 0.000000 -0.021496 0.000000
# 6 0.000000 0.000000 0.000000 0.000000 0.000000 0.062222
#
#
# Mechanical properties :
#
#
# Convention : Reuss Voigt Hill
#
# Bulk Modulus (GPa) = 57.94433 74.83170 66.38802
# Shear Modulus (GPa) = 31.23887 13.47838 22.35862
#
# Velocity S-wave (km/s) = 3.91610 2.57232 3.31306
# Velocity P-wave (km/s) = 6.99243 6.74975 6.87216
#
# Compressibility (1/GPa) = 0.01725794
#
# Stress axis : x y z
#
# Youngs Moduli (GPa) = 82.37902 54.84284 148.46590
#
# Poissons Ratio (x) = 0.28450 0.56766
# Poissons Ratio (y) = 0.42734 0.13574
# Poissons Ratio (z) = 0.31497 0.05014
#
# Static dielectric constant tensor:
#      x y z
#    x 3.682850 0.000000 0.000000 
#    y 0.000000 4.350020 0.000000 
#    z 0.000000 0.000000 3.921040 
# 
# 
# High freq. dielectric constant tensor:
#      x y z
#    x 1.799380 0.000000 0.000000 
#    y 0.000000 1.765000 0.000000 
#    z 0.000000 0.000000 1.813550 
# 
# From -- ./inp_files/27778.got.cif
#   From: 2010.03.12/outbox.cif.g09.slc.cpg/sg69_14_cif.got.tgz:27778.got - 2010.04.10 23:52:46.
