data_PCOD8284473
_publ_section_title
;
Structure prediction by ZEFSAII (Michael W. Deem and Ramdas Pophale) SiO2 
 PCOD8284473
Probable space group: F M M M
;
_chemical_formula_sum "Si O2"
_cell_formula_units_Z 144
_cell_length_a 17.569441
_cell_length_b 16.170886
_cell_length_c 23.966048
_cell_angle_alpha 90.000000
_cell_angle_beta 90.000000
_cell_angle_gamma 90.000000
_cell_volume 6809.076041
_symmetry_space_group_name_H-M "F M M M"
_symmetry_group_IT_number 69
_symmetry_cell_setting 'orthorhombic'
loop_
_space_group_symop_operation_xyz
x,y,z
-x,-y,z
x,-y,-z
-x,y,-z
-x,-y,-z
x,y,-z
-x,y,z
x,-y,z
x,1/2+y,1/2+z
-x,1/2-y,1/2+z
x,1/2-y,1/2-z
-x,1/2+y,1/2-z
-x,1/2-y,1/2-z
x,1/2+y,1/2-z
-x,1/2+y,1/2+z
x,1/2-y,1/2+z
1/2+x,y,1/2+z
1/2-x,-y,1/2+z
1/2+x,-y,1/2-z
1/2-x,y,1/2-z
1/2-x,-y,1/2-z
1/2+x,y,1/2-z
1/2-x,y,1/2+z
1/2+x,-y,1/2+z
1/2+x,1/2+y,z
1/2-x,1/2-y,z
1/2+x,1/2-y,-z
1/2-x,1/2+y,-z
1/2-x,1/2-y,-z
1/2+x,1/2+y,-z
1/2-x,1/2+y,z
1/2+x,1/2-y,z
loop_
_atom_site_type_symbol
_atom_site_label
_atom_site_fract_x
_atom_site_fract_y
_atom_site_fract_z
Si Si1 0.638905 0.904663 0.629320
Si Si2 0.911770 0.598006 0.136522
Si Si3 0.500000 0.099203 0.438450
Si Si4 0.335444 0.098461 0.250313
Si Si5 0.778471 0.843053 0.435661
O O1 0.574607 0.862894 0.591050
O O2 0.631239 0.866227 0.691391
O O3 0.721869 0.897741 0.601687
O O4 0.618957 0.000000 0.634726
O O5 0.899272 0.500000 0.130341
O O6 0.884105 0.629583 0.197506
O O7 0.863131 0.645100 0.089094
O O8 0.000000 0.621682 0.128702
O O9 0.500000 0.136446 0.500000
O O10 0.500000 0.000000 0.440016
O O11 0.250000 0.133345 0.250000
O O12 0.334478 0.000000 0.250731
O O13 0.777664 0.872718 0.500000
O O14 0.750000 0.750000 0.430439
#
# Coordination Sequence:
#
# PCOD8284473 Si02
#       5
#    32  32  16  32  32
#     4  10  19  34  58  84 112 147 189 239 288 345
#     4  10  21  38  63  94 123 152 195 250 301 357
#     4   9  18  30  48  80 111 136 178 234 283 328
#     4   9  16  30  55  87 116 145 185 233 290 345
#     4  11  24  41  58  80 113 157 203 244 297 360
#
# _framework density 21.148243000000001
#
# number of rings (size 3 to 8) (size 9 to 14) (size 15 to 20)
#    0.000    2.111    2.222    1.333    1.556    3.111 
#    2.000    3.333    0.000    1.333    0.000    0.000 
#    0.000    0.000    0.000    0.000    0.000    0.000 
#
# Total GULP energy -446268.590214 kJ/mol
# GULP energy per Si atom -12396.349728 kJ/mol
# Density = 2.110011 g / cm^3
# Si number density = 21.148243 Si / 1000 Ang^3
#
#
#
# Elastic Constant Matrix: (Units=GPa)
#
#
# Indices 1 2 3 4 5 6 
#
# 1 154.7815 17.8117 64.9442 0.0000 0.0000 0.0000
# 2 17.8117 22.0467 21.7860 0.0000 0.0000 0.0000
# 3 64.9442 21.7860 174.5188 0.0000 0.0000 0.0000
# 4 0.0000 0.0000 0.0000 12.9467 0.0000 0.0000
# 5 0.0000 0.0000 0.0000 0.0000 45.3875 0.0000
# 6 0.0000 0.0000 0.0000 0.0000 0.0000 16.2237
#
#
#
# Elastic Compliance Matrix: (Units=1/GPa)
#
#
# Indices 1 2 3 4 5 6 
#
# 1 0.007953 -0.003993 -0.002461 0.000000 0.000000 0.000000
# 2 -0.003993 0.053746 -0.005223 0.000000 0.000000 0.000000
# 3 -0.002461 -0.005223 0.007298 0.000000 0.000000 0.000000
# 4 0.000000 0.000000 0.000000 0.077240 0.000000 0.000000
# 5 0.000000 0.000000 0.000000 0.000000 0.022033 0.000000
# 6 0.000000 0.000000 0.000000 0.000000 0.000000 0.061638
#
#
# Mechanical properties :
#
#
# Convention : Reuss Voigt Hill
#
# Bulk Modulus (GPa) = 21.90983 62.27010 42.08996
# Shear Modulus (GPa) = 18.62359 31.36523 24.99441
#
# Velocity S-wave (km/s) = 2.97075 3.85530 3.44156
# Velocity P-wave (km/s) = 4.70635 7.02327 5.97813
#
# Compressibility (1/GPa) = 0.04564161
#
# Stress axis : x y z
#
# Youngs Moduli (GPa) = 125.74076 18.60599 137.02520
#
# Poissons Ratio (x) = 0.07430 0.33722
# Poissons Ratio (y) = 0.50212 0.71573
# Poissons Ratio (z) = 0.30945 0.09719
#
# Static dielectric constant tensor:
#      x y z
#    x 3.931200 0.000000 0.000000 
#    y 0.000000 3.211290 0.000000 
#    z 0.000000 0.000000 4.233180 
# 
# 
# High freq. dielectric constant tensor:
#      x y z
#    x 1.832940 0.000000 0.000000 
#    y 0.000000 1.776600 0.000000 
#    z 0.000000 0.000000 1.847210 
# 
# From -- ./inp_files/36478.got.cif
#   From: 2010.03.12/outbox.cif.g09.slc.cpg/sg69_19_cif.got.tgz:36478.got - 2010.04.10 23:52:46.
