data_PCOD8284807
_publ_section_title
;
Structure prediction by ZEFSAII (Michael W. Deem and Ramdas Pophale) SiO2 
 PCOD8284807
Probable space group: F M M M
;
_chemical_formula_sum "Si O2"
_cell_formula_units_Z 240
_cell_length_a 29.222255
_cell_length_b 19.311815
_cell_length_c 21.008970
_cell_angle_alpha 90.000000
_cell_angle_beta 90.000000
_cell_angle_gamma 90.000000
_cell_volume 11856.092514
_symmetry_space_group_name_H-M "F M M M"
_symmetry_group_IT_number 69
_symmetry_cell_setting 'orthorhombic'
loop_
_space_group_symop_operation_xyz
x,y,z
-x,-y,z
x,-y,-z
-x,y,-z
-x,-y,-z
x,y,-z
-x,y,z
x,-y,z
x,1/2+y,1/2+z
-x,1/2-y,1/2+z
x,1/2-y,1/2-z
-x,1/2+y,1/2-z
-x,1/2-y,1/2-z
x,1/2+y,1/2-z
-x,1/2+y,1/2+z
x,1/2-y,1/2+z
1/2+x,y,1/2+z
1/2-x,-y,1/2+z
1/2+x,-y,1/2-z
1/2-x,y,1/2-z
1/2-x,-y,1/2-z
1/2+x,y,1/2-z
1/2-x,y,1/2+z
1/2+x,-y,1/2+z
1/2+x,1/2+y,z
1/2-x,1/2-y,z
1/2+x,1/2-y,-z
1/2-x,1/2+y,-z
1/2-x,1/2-y,-z
1/2+x,1/2+y,-z
1/2-x,1/2+y,z
1/2+x,1/2-y,z
loop_
_atom_site_type_symbol
_atom_site_label
_atom_site_fract_x
_atom_site_fract_y
_atom_site_fract_z
Si Si1 0.550462 0.418287 0.234676
Si Si2 0.915756 0.168540 0.926651
Si Si3 0.118889 0.189925 0.573457
Si Si4 0.222923 0.321325 0.925201
Si Si5 0.633433 0.078274 0.651430
Si Si6 0.500000 0.079460 0.576055
Si Si7 0.948746 0.580688 0.878312
Si Si8 0.763787 0.920470 0.180894
O O1 0.500000 0.398823 0.205152
O O2 0.555419 0.500000 0.238417
O O3 0.594361 0.388395 0.197465
O O4 0.553086 0.390367 0.306645
O O5 0.909294 0.245138 0.896084
O O6 0.869229 0.124885 0.912715
O O7 0.956511 0.121825 0.896681
O O8 0.926203 0.176163 0.000000
O O9 0.125101 0.207244 0.500000
O O10 0.170612 0.184900 0.599975
O O11 0.089853 0.120350 0.581837
O O12 0.250000 0.250000 0.914770
O O13 0.244991 0.379186 0.879739
O O14 0.225632 0.343939 0.000000
O O15 0.681805 0.084643 0.684153
O O16 0.621806 0.000000 0.632302
O O17 0.500000 0.076242 0.500000
O O18 0.500000 0.000000 0.602967
O O19 0.936424 0.500000 0.882806
O O20 0.000000 0.593717 0.906033
O O21 0.750000 0.890051 0.250000
O O22 0.747213 0.000000 0.173470
#
# Coordination Sequence:
#
# PCOD8284807 Si02
#       8
#    32  32  32  32  32  16  32  32
#     4   8  16  32  54  80 109 145 187 229 279 337
#     4  10  21  36  53  79 118 154 189 237 280 338
#     4  10  22  37  58  85 111 150 194 236 299 354
#     4  10  22  42  65  87 116 158 207 257 309 372
#     4  10  20  34  57  85 112 150 193 232 286 349
#     4   9  18  32  52  80 114 157 197 229 278 337
#     4   9  19  36  58  83 114 153 194 238 289 346
#     4  10  23  40  60  91 124 155 197 254 317 372
#
# _framework density 20.242757999999998
#
# number of rings (size 3 to 8) (size 9 to 14) (size 15 to 20)
#    0.000    2.467    0.000    2.000    3.733    4.000 
#    0.000    4.000    0.000    1.600    0.000    0.000 
#    0.000    0.000    0.000    0.000    0.000    0.000 
#
# Total GULP energy -743463.241598 kJ/mol
# GULP energy per Si atom -12391.054027 kJ/mol
# Density = 2.019668 g / cm^3
# Si number density = 20.242758 Si / 1000 Ang^3
#
#
#
# Elastic Constant Matrix: (Units=GPa)
#
#
# Indices 1 2 3 4 5 6 
#
# 1 123.5333 61.2583 31.4923 0.0000 0.0000 0.0000
# 2 61.2583 105.3533 36.3863 0.0000 0.0000 0.0000
# 3 31.4923 36.3863 53.3867 0.0000 0.0000 0.0000
# 4 0.0000 0.0000 0.0000 22.0200 0.0000 0.0000
# 5 0.0000 0.0000 0.0000 0.0000 30.7875 0.0000
# 6 0.0000 0.0000 0.0000 0.0000 0.0000 24.6081
#
#
#
# Elastic Compliance Matrix: (Units=1/GPa)
#
#
# Indices 1 2 3 4 5 6 
#
# 1 0.011724 -0.005792 -0.002968 0.000000 0.000000 0.000000
# 2 -0.005792 0.015275 -0.006995 0.000000 0.000000 0.000000
# 3 -0.002968 -0.006995 0.025250 0.000000 0.000000 0.000000
# 4 0.000000 0.000000 0.000000 0.045413 0.000000 0.000000
# 5 0.000000 0.000000 0.000000 0.000000 0.032481 0.000000
# 6 0.000000 0.000000 0.000000 0.000000 0.000000 0.040637
#
#
# Mechanical properties :
#
#
# Convention : Reuss Voigt Hill
#
# Bulk Modulus (GPa) = 48.21761 60.06079 54.13920
# Shear Modulus (GPa) = 23.90040 25.69222 24.79631
#
# Velocity S-wave (km/s) = 3.43984 3.56646 3.50372
# Velocity P-wave (km/s) = 6.29667 6.83331 6.57047
#
# Compressibility (1/GPa) = 0.02073931
#
# Stress axis : x y z
#
# Youngs Moduli (GPa) = 85.29748 65.46564 39.60474
#
# Poissons Ratio (x) = 0.37915 0.11756
# Poissons Ratio (y) = 0.49401 0.27702
# Poissons Ratio (z) = 0.25319 0.45790
#
# Static dielectric constant tensor:
#      x y z
#    x 3.903940 0.000000 0.000000 
#    y 0.000000 3.617220 0.000000 
#    z 0.000000 0.000000 3.696710 
# 
# 
# High freq. dielectric constant tensor:
#      x y z
#    x 1.800680 0.000000 0.000000 
#    y 0.000000 1.774620 0.000000 
#    z 0.000000 0.000000 1.783970 
# 
# From -- ./inp_files/33558.got.cif
#   From: 2010.03.12/outbox.cif.g09.slc.cpg/sg69_17_cif.got.tgz:33558.got - 2010.04.10 23:52:46.
