data_PCOD8284999
_publ_section_title
;
Structure prediction by ZEFSAII (Michael W. Deem and Ramdas Pophale) SiO2 
 PCOD8284999
Probable space group: F M M M
;
_chemical_formula_sum "Si O2"
_cell_formula_units_Z 176
_cell_length_a 26.251247
_cell_length_b 19.310213
_cell_length_c 18.108434
_cell_angle_alpha 90.000000
_cell_angle_beta 90.000000
_cell_angle_gamma 90.000000
_cell_volume 9179.476136
_symmetry_space_group_name_H-M "F M M M"
_symmetry_group_IT_number 69
_symmetry_cell_setting 'orthorhombic'
loop_
_space_group_symop_operation_xyz
x,y,z
-x,-y,z
x,-y,-z
-x,y,-z
-x,-y,-z
x,y,-z
-x,y,z
x,-y,z
x,1/2+y,1/2+z
-x,1/2-y,1/2+z
x,1/2-y,1/2-z
-x,1/2+y,1/2-z
-x,1/2-y,1/2-z
x,1/2+y,1/2-z
-x,1/2+y,1/2+z
x,1/2-y,1/2+z
1/2+x,y,1/2+z
1/2-x,-y,1/2+z
1/2+x,-y,1/2-z
1/2-x,y,1/2-z
1/2-x,-y,1/2-z
1/2+x,y,1/2-z
1/2-x,y,1/2+z
1/2+x,-y,1/2+z
1/2+x,1/2+y,z
1/2-x,1/2-y,z
1/2+x,1/2-y,-z
1/2-x,1/2+y,-z
1/2-x,1/2-y,-z
1/2+x,1/2+y,-z
1/2-x,1/2+y,z
1/2+x,1/2-y,z
loop_
_atom_site_type_symbol
_atom_site_label
_atom_site_fract_x
_atom_site_fract_y
_atom_site_fract_z
Si Si1 0.058887 0.702874 0.082985
Si Si2 0.444073 0.421134 0.000000
Si Si3 0.721466 0.319208 0.087140
Si Si4 0.105406 0.343162 0.622361
Si Si5 0.876863 0.828420 0.278764
Si Si6 0.283273 0.922830 0.178673
O O1 0.067659 0.784078 0.093068
O O2 0.088760 0.664163 0.148257
O O3 0.000000 0.684725 0.092067
O O4 0.077489 0.680847 0.000000
O O5 0.408997 0.407468 0.928363
O O6 0.456777 0.500000 0.000000
O O7 0.500000 0.383150 0.000000
O O8 0.750000 0.250000 0.116540
O O9 0.663721 0.317704 0.115742
O O10 0.750002 0.388132 0.114215
O O11 0.721545 0.320731 0.000000
O O12 0.095164 0.363465 0.708069
O O13 0.865400 0.750000 0.250000
O O14 0.827117 0.870156 0.299285
O O15 0.250000 0.933700 0.250000
O O16 0.302188 0.000000 0.153030
#
# Coordination Sequence:
#
# PCOD8284999 Si02
#       6
#    32  16  32  32  32  32
#     4  10  20  36  60  89 121 150 190 252 309 354
#     4  11  24  38  55  80 114 160 202 239 298 365
#     4  11  22  37  60  89 118 155 203 245 291 353
#     4  11  20  36  57  83 114 157 194 246 299 346
#     4  10  22  37  62  92 117 157 206 248 295 358
#     4  11  24  39  58  86 121 162 197 237 297 355
#
# _framework density 19.173207999999999
#
# number of rings (size 3 to 8) (size 9 to 14) (size 15 to 20)
#    0.000    1.364    3.636    2.727    0.000    8.000 
#    0.000    0.000    0.000    0.545    0.000    1.273 
#    0.000    0.000    0.000    0.000    0.000    0.000 
#
# Total GULP energy -545262.968623 kJ/mol
# GULP energy per Si atom -12392.340196 kJ/mol
# Density = 1.912957 g / cm^3
# Si number density = 19.173208 Si / 1000 Ang^3
#
#
#
# Elastic Constant Matrix: (Units=GPa)
#
#
# Indices 1 2 3 4 5 6 
#
# 1 94.7016 33.3561 54.5008 0.0000 0.0000 0.0000
# 2 33.3561 61.5137 32.3194 0.0000 0.0000 0.0000
# 3 54.5008 32.3194 155.6764 0.0000 0.0000 0.0000
# 4 0.0000 0.0000 0.0000 20.5835 0.0000 0.0000
# 5 0.0000 0.0000 0.0000 0.0000 30.2334 0.0000
# 6 0.0000 0.0000 0.0000 0.0000 0.0000 18.6294
#
#
#
# Elastic Compliance Matrix: (Units=1/GPa)
#
#
# Indices 1 2 3 4 5 6 
#
# 1 0.014980 -0.006025 -0.003994 0.000000 0.000000 0.000000
# 2 -0.006025 0.020670 -0.002182 0.000000 0.000000 0.000000
# 3 -0.003994 -0.002182 0.008275 0.000000 0.000000 0.000000
# 4 0.000000 0.000000 0.000000 0.048583 0.000000 0.000000
# 5 0.000000 0.000000 0.000000 0.000000 0.033076 0.000000
# 6 0.000000 0.000000 0.000000 0.000000 0.000000 0.053679
#
#
# Mechanical properties :
#
#
# Convention : Reuss Voigt Hill
#
# Bulk Modulus (GPa) = 51.21918 61.36048 56.28983
# Shear Modulus (GPa) = 23.79029 26.67029 25.23029
#
# Velocity S-wave (km/s) = 3.52633 3.73368 3.63149
# Velocity P-wave (km/s) = 6.58422 7.11758 6.85609
#
# Compressibility (1/GPa) = 0.01952393
#
# Stress axis : x y z
#
# Youngs Moduli (GPa) = 66.75665 48.37960 120.85065
#
# Poissons Ratio (x) = 0.29147 0.48262
# Poissons Ratio (y) = 0.40219 0.26370
# Poissons Ratio (z) = 0.26659 0.10557
#
# Static dielectric constant tensor:
#      x y z
#    x 3.493080 0.000000 0.000000 
#    y 0.000000 3.470710 0.000000 
#    z 0.000000 0.000000 4.062430 
# 
# 
# High freq. dielectric constant tensor:
#      x y z
#    x 1.745550 0.000000 0.000000 
#    y 0.000000 1.716500 0.000000 
#    z 0.000000 0.000000 1.766970 
# 
# From -- ./inp_files/26768.got.cif
#   From: 2010.03.12/outbox.cif.g09.slc.cpg/sg69_14_cif.got.tgz:26768.got - 2010.04.10 23:52:46.
