data_PCOD8284451
_publ_section_title
;
Structure prediction by ZEFSAII (Michael W. Deem and Ramdas Pophale) SiO2 
 PCOD8284451
Probable space group: F M M M
;
_chemical_formula_sum "Si O2"
_cell_formula_units_Z 192
_cell_length_a 16.825560
_cell_length_b 34.113066
_cell_length_c 18.032452
_cell_angle_alpha 90.000000
_cell_angle_beta 90.000000
_cell_angle_gamma 90.000000
_cell_volume 10350.112419
_symmetry_space_group_name_H-M "F M M M"
_symmetry_group_IT_number 69
_symmetry_cell_setting 'orthorhombic'
loop_
_space_group_symop_operation_xyz
x,y,z
-x,-y,z
x,-y,-z
-x,y,-z
-x,-y,-z
x,y,-z
-x,y,z
x,-y,z
x,1/2+y,1/2+z
-x,1/2-y,1/2+z
x,1/2-y,1/2-z
-x,1/2+y,1/2-z
-x,1/2-y,1/2-z
x,1/2+y,1/2-z
-x,1/2+y,1/2+z
x,1/2-y,1/2+z
1/2+x,y,1/2+z
1/2-x,-y,1/2+z
1/2+x,-y,1/2-z
1/2-x,y,1/2-z
1/2-x,-y,1/2-z
1/2+x,y,1/2-z
1/2-x,y,1/2+z
1/2+x,-y,1/2+z
1/2+x,1/2+y,z
1/2-x,1/2-y,z
1/2+x,1/2-y,-z
1/2-x,1/2+y,-z
1/2-x,1/2-y,-z
1/2+x,1/2+y,-z
1/2-x,1/2+y,z
1/2+x,1/2-y,z
loop_
_atom_site_type_symbol
_atom_site_label
_atom_site_fract_x
_atom_site_fract_y
_atom_site_fract_z
Si Si1 0.500000 0.454332 0.211944
Si Si2 0.348227 0.355542 0.852557
Si Si3 0.160484 0.736183 0.672071
Si Si4 0.000000 0.393425 0.584981
Si Si5 0.662695 0.918964 0.229233
Si Si6 0.685719 0.624441 0.585478
Si Si7 0.086494 0.301907 0.086985
O O1 0.500000 0.500000 0.196000
O O2 0.500000 0.432918 0.133113
O O3 0.416780 0.444401 0.254406
O O4 0.347672 0.309915 0.835357
O O5 0.426290 0.366075 0.897061
O O6 0.341542 0.378298 0.774599
O O7 0.278969 0.368066 0.908402
O O8 0.123494 0.750000 0.750000
O O9 0.250000 0.750000 0.666057
O O10 0.113027 0.758239 0.607937
O O11 0.000000 0.406847 0.500000
O O12 0.750000 0.938700 0.250000
O O13 0.659847 0.910559 0.140830
O O14 0.663833 0.613592 0.500000
O O15 0.644292 0.663996 0.615249
O O16 0.000000 0.310657 0.121196
O O17 0.083515 0.303321 0.000000
#
# Coordination Sequence:
#
# PCOD8284451 Si02
#       7
#    16  32  32  16  32  32  32
#     4  10  22  41  65  95 120 146 181 217 279 355
#     4  10  20  36  55  79 110 151 193 241 288 336
#     4  11  22  35  52  72 102 148 197 246 288 331
#     4  10  22  39  61  90 117 143 182 234 287 342
#     4   9  20  37  60  85 115 149 187 230 277 339
#     4  10  19  34  56  78 106 149 196 238 278 328
#     4  10  22  35  46  69 103 141 189 239 285 327
#
# _framework density 18.550522999999998
#
# number of rings (size 3 to 8) (size 9 to 14) (size 15 to 20)
#    0.000    2.000    1.667    1.500    7.000    2.500 
#    3.000    0.000    0.000    1.000    0.000    0.000 
#    0.000    0.000    0.000    0.000    0.000    0.000 
#
# Total GULP energy -594946.496038 kJ/mol
# GULP energy per Si atom -12394.718667 kJ/mol
# Density = 1.850830 g / cm^3
# Si number density = 18.550523 Si / 1000 Ang^3
#
#
#
# Elastic Constant Matrix: (Units=GPa)
#
#
# Indices 1 2 3 4 5 6 
#
# 1 137.4267 47.3167 33.0064 0.0000 0.0000 0.0000
# 2 47.3167 102.8519 34.3302 0.0000 0.0000 0.0000
# 3 33.0064 34.3302 89.3134 0.0000 0.0000 0.0000
# 4 0.0000 0.0000 0.0000 19.5945 0.0000 0.0000
# 5 0.0000 0.0000 0.0000 0.0000 24.6279 0.0000
# 6 0.0000 0.0000 0.0000 0.0000 0.0000 21.1689
#
#
#
# Elastic Compliance Matrix: (Units=1/GPa)
#
#
# Indices 1 2 3 4 5 6 
#
# 1 0.008940 -0.003453 -0.001977 0.000000 0.000000 0.000000
# 2 -0.003453 0.012488 -0.003524 0.000000 0.000000 0.000000
# 3 -0.001977 -0.003524 0.013281 0.000000 0.000000 0.000000
# 4 0.000000 0.000000 0.000000 0.051035 0.000000 0.000000
# 5 0.000000 0.000000 0.000000 0.000000 0.040604 0.000000
# 6 0.000000 0.000000 0.000000 0.000000 0.000000 0.047239
#
#
# Mechanical properties :
#
#
# Convention : Reuss Voigt Hill
#
# Bulk Modulus (GPa) = 59.51638 62.09984 60.80811
# Shear Modulus (GPa) = 25.36842 27.40750 26.38796
#
# Velocity S-wave (km/s) = 3.70203 3.84793 3.77568
# Velocity P-wave (km/s) = 7.10115 7.30006 7.20129
#
# Compressibility (1/GPa) = 0.01680210
#
# Stress axis : x y z
#
# Youngs Moduli (GPa) = 111.85314 80.07986 75.29285
#
# Poissons Ratio (x) = 0.27653 0.14882
# Poissons Ratio (y) = 0.38625 0.26532
# Poissons Ratio (z) = 0.22109 0.28218
#
# Static dielectric constant tensor:
#      x y z
#    x 3.937480 0.000000 0.000000 
#    y 0.000000 16.249730 0.000000 
#    z 0.000000 0.000000 3.403860 
# 
# 
# High freq. dielectric constant tensor:
#      x y z
#    x 1.739970 0.000000 0.000000 
#    y 0.000000 1.686190 0.000000 
#    z 0.000000 0.000000 1.720860 
# 
# From -- ./inp_files/23705.got.cif
#   From: 2010.03.12/outbox.cif.g09.slc.cpg/sg69_12_cif.got.tgz:23705.got - 2010.04.10 23:52:46.
