data_PCOD8284699
_publ_section_title
;
Structure prediction by ZEFSAII (Michael W. Deem and Ramdas Pophale) SiO2 
 PCOD8284699
Probable space group: F M M M
;
_chemical_formula_sum "Si O2"
_cell_formula_units_Z 160
_cell_length_a 30.272943
_cell_length_b 28.047286
_cell_length_c 10.113898
_cell_angle_alpha 90.000000
_cell_angle_beta 90.000000
_cell_angle_gamma 90.000000
_cell_volume 8587.446722
_symmetry_space_group_name_H-M "F M M M"
_symmetry_group_IT_number 69
_symmetry_cell_setting 'orthorhombic'
loop_
_space_group_symop_operation_xyz
x,y,z
-x,-y,z
x,-y,-z
-x,y,-z
-x,-y,-z
x,y,-z
-x,y,z
x,-y,z
x,1/2+y,1/2+z
-x,1/2-y,1/2+z
x,1/2-y,1/2-z
-x,1/2+y,1/2-z
-x,1/2-y,1/2-z
x,1/2+y,1/2-z
-x,1/2+y,1/2+z
x,1/2-y,1/2+z
1/2+x,y,1/2+z
1/2-x,-y,1/2+z
1/2+x,-y,1/2-z
1/2-x,y,1/2-z
1/2-x,-y,1/2-z
1/2+x,y,1/2-z
1/2-x,y,1/2+z
1/2+x,-y,1/2+z
1/2+x,1/2+y,z
1/2-x,1/2-y,z
1/2+x,1/2-y,-z
1/2-x,1/2+y,-z
1/2-x,1/2-y,-z
1/2+x,1/2+y,-z
1/2-x,1/2+y,z
1/2+x,1/2-y,z
loop_
_atom_site_type_symbol
_atom_site_label
_atom_site_fract_x
_atom_site_fract_y
_atom_site_fract_z
Si Si1 0.803521 0.310415 0.000000
Si Si2 0.209838 0.800162 0.000000
Si Si3 0.789522 0.055547 0.847731
Si Si4 0.616298 0.897892 0.653773
Si Si5 0.450563 0.056332 0.853262
Si Si6 0.352535 0.805065 0.739075
O O1 0.787070 0.256331 0.000000
O O2 0.754390 0.332983 0.000000
O O3 0.832936 0.323580 0.875858
O O4 0.185057 0.814139 0.867828
O O5 0.750000 0.072123 0.750000
O O6 0.833924 0.084967 0.814145
O O7 0.800368 0.000000 0.823794
O O8 0.775162 0.064363 0.000000
O O9 0.604906 0.905247 0.500000
O O10 0.581959 0.927052 0.739412
O O11 0.609348 0.841979 0.695806
O O12 0.500000 0.075476 0.823488
O O13 0.450712 0.000000 0.851916
O O14 0.435627 0.074162 0.000000
O O15 0.369271 0.750000 0.750000
#
# Coordination Sequence:
#
# PCOD8284699 Si02
#       6
#    16  16  32  32  32  32
#     4   9  18  28  50  68  92 143 196 238 284 327
#     4   9  16  32  46  68 100 137 188 246 288 319
#     4   9  19  35  52  73 106 146 185 225 268 321
#     4  11  22  36  55  84 114 147 188 232 280 332
#     4   9  20  40  65  92 118 140 170 220 280 342
#     4  10  20  34  49  73 108 146 189 236 285 331
#
# _framework density 18.631847
#
# number of rings (size 3 to 8) (size 9 to 14) (size 15 to 20)
#    0.000    2.400    1.000    1.800    1.400    6.400 
#    0.000    3.000    0.000    0.600    0.000    0.000 
#    0.000    0.000    0.000    0.000    0.000    0.000 
#
# Total GULP energy -495627.769265 kJ/mol
# GULP energy per Si atom -12390.694232 kJ/mol
# Density = 1.858944 g / cm^3
# Si number density = 18.631847 Si / 1000 Ang^3
#
#
#
# Elastic Constant Matrix: (Units=GPa)
#
#
# Indices 1 2 3 4 5 6 
#
# 1 80.9044 30.6469 65.1201 0.0001 -0.0022 -0.0009
# 2 30.6469 60.2864 33.2703 -0.0028 -0.0002 -0.0023
# 3 65.1201 33.2703 156.7802 -0.0075 0.0017 -0.0072
# 4 0.0001 -0.0028 -0.0075 24.3660 0.0014 -0.0040
# 5 -0.0022 -0.0002 0.0017 0.0014 31.6939 0.0045
# 6 -0.0009 -0.0023 -0.0072 -0.0040 0.0045 7.1000
#
#
#
# Elastic Compliance Matrix: (Units=1/GPa)
#
#
# Indices 1 2 3 4 5 6 
#
# 1 0.020603 -0.006514 -0.007175 -0.000003 0.000002 -0.000007
# 2 -0.006514 0.020847 -0.001718 0.000002 0.000000 0.000004
# 3 -0.007175 -0.001718 0.009723 0.000003 -0.000001 0.000008
# 4 -0.000003 0.000002 0.000003 0.041041 -0.000002 0.000023
# 5 0.000002 0.000000 -0.000001 -0.000002 0.031552 -0.000020
# 6 -0.000007 0.000004 0.000008 0.000023 -0.000020 0.140846
#
#
# Mechanical properties :
#
#
# Convention : Reuss Voigt Hill
#
# Bulk Modulus (GPa) = 49.11965 61.78284 55.45124
# Shear Modulus (GPa) = 16.54458 23.89423 20.21941
#
# Velocity S-wave (km/s) = 2.98312 3.58500 3.29782
# Velocity P-wave (km/s) = 6.18756 7.09705 6.65785
#
# Compressibility (1/GPa) = 0.02035845
#
# Stress axis : x y z
#
# Youngs Moduli (GPa) = 48.53601 47.96822 102.84464
#
# Poissons Ratio (x) = 0.31246 0.73796
# Poissons Ratio (y) = 0.31616 0.17673
# Poissons Ratio (z) = 0.34827 0.08243
#
# Static dielectric constant tensor:
#      x y z
#    x 3.206510 0.000000 0.000000 
#    y 0.000000 3.687980 -0.000010 
#    z 0.000000 -0.000010 3.691940 
# 
# 
# High freq. dielectric constant tensor:
#      x y z
#    x 1.682770 0.000000 0.000000 
#    y 0.000000 1.723050 0.000000 
#    z 0.000000 0.000000 1.741360 
# 
# From -- ./inp_files/5767.got.cif
#   From: 2010.03.12/outbox.cif.g09.slc.cpg/sg69_3_cif.got.tgz:5767.got - 2010.04.10 23:52:46.
