data_PCOD8284383
_publ_section_title
;
Structure prediction by ZEFSAII (Michael W. Deem and Ramdas Pophale) SiO2 
 PCOD8284383
Probable space group: F M M M
;
_chemical_formula_sum "Si O2"
_cell_formula_units_Z 192
_cell_length_a 16.956922
_cell_length_b 17.526670
_cell_length_c 34.246628
_cell_angle_alpha 90.000000
_cell_angle_beta 90.000000
_cell_angle_gamma 90.000000
_cell_volume 10178.042229
_symmetry_space_group_name_H-M "F M M M"
_symmetry_group_IT_number 69
_symmetry_cell_setting 'orthorhombic'
loop_
_space_group_symop_operation_xyz
x,y,z
-x,-y,z
x,-y,-z
-x,y,-z
-x,-y,-z
x,y,-z
-x,y,z
x,-y,z
x,1/2+y,1/2+z
-x,1/2-y,1/2+z
x,1/2-y,1/2-z
-x,1/2+y,1/2-z
-x,1/2-y,1/2-z
x,1/2+y,1/2-z
-x,1/2+y,1/2+z
x,1/2-y,1/2+z
1/2+x,y,1/2+z
1/2-x,-y,1/2+z
1/2+x,-y,1/2-z
1/2-x,y,1/2-z
1/2-x,-y,1/2-z
1/2+x,y,1/2-z
1/2-x,y,1/2+z
1/2+x,-y,1/2+z
1/2+x,1/2+y,z
1/2-x,1/2-y,z
1/2+x,1/2-y,-z
1/2-x,1/2+y,-z
1/2-x,1/2-y,-z
1/2+x,1/2+y,-z
1/2-x,1/2+y,z
1/2+x,1/2-y,z
loop_
_atom_site_type_symbol
_atom_site_label
_atom_site_fract_x
_atom_site_fract_y
_atom_site_fract_z
Si Si1 0.588636 0.409710 0.683071
Si Si2 0.193708 0.590534 0.887629
Si Si3 0.150852 0.089976 0.846060
Si Si4 0.159690 0.085084 0.239379
Si Si5 0.831730 0.796302 0.545226
Si Si6 0.000000 0.411074 0.605707
Si Si7 0.000000 0.283901 0.545146
O O1 0.500000 0.385994 0.675256
O O2 0.602829 0.500000 0.685733
O O3 0.635678 0.378344 0.645987
O O4 0.615802 0.372749 0.724529
O O5 0.188617 0.500000 0.893723
O O6 0.278682 0.619772 0.873157
O O7 0.172246 0.627736 0.928880
O O8 0.149157 0.127386 0.802498
O O9 0.072829 0.113613 0.868062
O O10 0.162165 0.000000 0.840647
O O11 0.250000 0.080999 0.250000
O O12 0.123790 0.000000 0.235297
O O13 0.833537 0.820688 0.500000
O O14 0.750000 0.750000 0.553448
O O15 0.916462 0.757178 0.556019
O O16 0.000000 0.500000 0.594875
O O17 0.000000 0.365690 0.565668
O O18 0.000000 0.302912 0.500000
#
# Coordination Sequence:
#
# PCOD8284383 Si02
#       7
#    32  32  32  32  32  16  16
#     4   9  17  26  41  70 106 141 175 214 259 307
#     4  10  19  33  54  80 111 140 175 224 271 312
#     4   9  17  28  45  76 112 142 173 217 267 312
#     4   9  14  24  40  63 103 145 173 207 261 310
#     4  10  22  40  60  81 107 141 180 219 264 327
#     4  10  20  33  54  84 112 135 171 224 273 313
#     4  10  22  41  61  81 107 140 180 219 261 325
#
# _framework density 18.864139999999999
#
# number of rings (size 3 to 8) (size 9 to 14) (size 15 to 20)
#    0.000    2.500    1.667    1.000    2.333    0.500 
#    0.000    0.000    0.000    7.500    0.000    9.333 
#    0.000    0.000    0.000    0.000    0.000    0.000 
#
# Total GULP energy -594708.855548 kJ/mol
# GULP energy per Si atom -12389.767824 kJ/mol
# Density = 1.882120 g / cm^3
# Si number density = 18.864140 Si / 1000 Ang^3
#
#
#
# Elastic Constant Matrix: (Units=GPa)
#
#
# Indices 1 2 3 4 5 6 
#
# 1 155.6758 32.9780 61.6431 0.0000 0.0000 0.0000
# 2 32.9780 39.0374 55.9836 0.0000 0.0000 0.0000
# 3 61.6431 55.9836 142.8997 0.0000 0.0000 0.0000
# 4 0.0000 0.0000 0.0000 10.8961 0.0000 0.0000
# 5 0.0000 0.0000 0.0000 0.0000 14.5940 0.0000
# 6 0.0000 0.0000 0.0000 0.0000 0.0000 43.4577
#
#
#
# Elastic Compliance Matrix: (Units=1/GPa)
#
#
# Indices 1 2 3 4 5 6 
#
# 1 0.008030 -0.004145 -0.001840 0.000000 0.000000 0.000000
# 2 -0.004145 0.060602 -0.021954 0.000000 0.000000 0.000000
# 3 -0.001840 -0.021954 0.016393 0.000000 0.000000 0.000000
# 4 0.000000 0.000000 0.000000 0.091776 0.000000 0.000000
# 5 0.000000 0.000000 0.000000 0.000000 0.068521 0.000000
# 6 0.000000 0.000000 0.000000 0.000000 0.000000 0.023011
#
#
# Mechanical properties :
#
#
# Convention : Reuss Voigt Hill
#
# Bulk Modulus (GPa) = 34.30886 70.98025 52.64455
# Shear Modulus (GPa) = 14.97332 26.25676 20.61504
#
# Velocity S-wave (km/s) = 2.82040 3.73485 3.30936
# Velocity P-wave (km/s) = 5.36964 7.50384 6.52459
#
# Compressibility (1/GPa) = 0.02914699
#
# Stress axis : x y z
#
# Youngs Moduli (GPa) = 124.52816 16.50108 61.00275
#
# Poissons Ratio (x) = 0.06839 0.11226
# Poissons Ratio (y) = 0.51612 1.33926
# Poissons Ratio (z) = 0.22917 0.36227
#
# Static dielectric constant tensor:
#      x y z
#    x 3.718260 0.000000 0.000000 
#    y 0.000000 2.815510 0.000000 
#    z 0.000000 0.000000 3.681910 
# 
# 
# High freq. dielectric constant tensor:
#      x y z
#    x 1.751470 0.000000 0.000000 
#    y 0.000000 1.663830 0.000000 
#    z 0.000000 0.000000 1.751590 
# 
# From -- ./inp_files/23703.got.cif
#   From: 2010.03.12/outbox.cif.g09.slc.cpg/sg69_12_cif.got.tgz:23703.got - 2010.04.10 23:52:46.
