data_PCOD8284512
_publ_section_title
;
Structure prediction by ZEFSAII (Michael W. Deem and Ramdas Pophale) SiO2 
 PCOD8284512
Probable space group: F M M M
;
_chemical_formula_sum "Si O2"
_cell_formula_units_Z 192
_cell_length_a 19.393637
_cell_length_b 24.954032
_cell_length_c 19.765634
_cell_angle_alpha 90.000000
_cell_angle_beta 90.000000
_cell_angle_gamma 90.000000
_cell_volume 9565.567472
_symmetry_space_group_name_H-M "F M M M"
_symmetry_group_IT_number 69
_symmetry_cell_setting 'orthorhombic'
loop_
_space_group_symop_operation_xyz
x,y,z
-x,-y,z
x,-y,-z
-x,y,-z
-x,-y,-z
x,y,-z
-x,y,z
x,-y,z
x,1/2+y,1/2+z
-x,1/2-y,1/2+z
x,1/2-y,1/2-z
-x,1/2+y,1/2-z
-x,1/2-y,1/2-z
x,1/2+y,1/2-z
-x,1/2+y,1/2+z
x,1/2-y,1/2+z
1/2+x,y,1/2+z
1/2-x,-y,1/2+z
1/2+x,-y,1/2-z
1/2-x,y,1/2-z
1/2-x,-y,1/2-z
1/2+x,y,1/2-z
1/2-x,y,1/2+z
1/2+x,-y,1/2+z
1/2+x,1/2+y,z
1/2-x,1/2-y,z
1/2+x,1/2-y,-z
1/2-x,1/2+y,-z
1/2-x,1/2-y,-z
1/2+x,1/2+y,-z
1/2-x,1/2+y,z
1/2+x,1/2-y,z
loop_
_atom_site_type_symbol
_atom_site_label
_atom_site_fract_x
_atom_site_fract_y
_atom_site_fract_z
Si Si1 0.821168 0.941129 0.576496
Si Si2 0.424223 0.632556 0.208930
Si Si3 0.713629 0.804849 0.425947
Si Si4 0.577878 0.644724 0.635709
Si Si5 0.922555 0.731911 0.377190
Si Si6 0.720459 0.896506 0.325668
O O1 0.793248 0.933867 0.500000
O O2 0.874713 0.893284 0.590247
O O3 0.757144 0.942285 0.629883
O O4 0.856512 0.000000 0.583985
O O5 0.500000 0.611189 0.185366
O O6 0.415825 0.624342 0.288222
O O7 0.418708 0.696217 0.191770
O O8 0.362957 0.597576 0.174619
O O9 0.734900 0.827421 0.500000
O O10 0.750000 0.750000 0.409462
O O11 0.630942 0.795867 0.428202
O O12 0.740268 0.842704 0.366237
O O13 0.500000 0.639036 0.608624
O O14 0.600680 0.706827 0.634194
O O15 0.000000 0.729672 0.407478
O O16 0.750000 0.893694 0.250000
#
# Coordination Sequence:
#
# PCOD8284512 Si02
#       6
#    32  32  32  32  32  32
#     4  11  25  43  61  83 114 152 197 250 303 351
#     4   9  18  34  56  88 124 151 185 232 286 342
#     4  10  21  34  50  77 118 156 190 233 282 340
#     4  10  19  35  58  85 118 157 197 236 286 347
#     4   9  18  31  53  83 118 157 193 229 274 340
#     4  11  21  37  60  86 109 148 194 242 291 348
#
# _framework density 20.071992999999999
#
# number of rings (size 3 to 8) (size 9 to 14) (size 15 to 20)
#    0.000    2.000    1.667    2.000    0.000    5.667 
#    0.000    2.500    0.000    2.000    0.000    1.167 
#    0.000    0.000    0.000    0.000    0.000    0.000 
#
# Total GULP energy -594660.699954 kJ/mol
# GULP energy per Si atom -12388.764582 kJ/mol
# Density = 2.002631 g / cm^3
# Si number density = 20.071993 Si / 1000 Ang^3
#
#
#
# Elastic Constant Matrix: (Units=GPa)
#
#
# Indices 1 2 3 4 5 6 
#
# 1 91.4335 39.7352 32.5184 0.0000 0.0000 0.0000
# 2 39.7352 64.3691 32.3035 0.0000 0.0000 0.0000
# 3 32.5184 32.3035 118.2255 0.0000 0.0000 0.0000
# 4 0.0000 0.0000 0.0000 21.9255 0.0000 0.0000
# 5 0.0000 0.0000 0.0000 0.0000 15.8514 0.0000
# 6 0.0000 0.0000 0.0000 0.0000 0.0000 22.0384
#
#
#
# Elastic Compliance Matrix: (Units=1/GPa)
#
#
# Indices 1 2 3 4 5 6 
#
# 1 0.015301 -0.008499 -0.001886 0.000000 0.000000 0.000000
# 2 -0.008499 0.022725 -0.003872 0.000000 0.000000 0.000000
# 3 -0.001886 -0.003872 0.010035 0.000000 0.000000 0.000000
# 4 0.000000 0.000000 0.000000 0.045609 0.000000 0.000000
# 5 0.000000 0.000000 0.000000 0.000000 0.063086 0.000000
# 6 0.000000 0.000000 0.000000 0.000000 0.000000 0.045375
#
#
# Mechanical properties :
#
#
# Convention : Reuss Voigt Hill
#
# Bulk Modulus (GPa) = 51.15777 53.68248 52.42013
# Shear Modulus (GPa) = 21.08275 23.26113 22.17194
#
# Velocity S-wave (km/s) = 3.24444 3.40793 3.32719
# Velocity P-wave (km/s) = 6.29108 6.50295 6.39789
#
# Compressibility (1/GPa) = 0.01954737
#
# Stress axis : x y z
#
# Youngs Moduli (GPa) = 65.35419 44.00508 99.64975
#
# Poissons Ratio (x) = 0.37399 0.18799
# Poissons Ratio (y) = 0.55543 0.38580
# Poissons Ratio (z) = 0.12329 0.17037
#
# Static dielectric constant tensor:
#      x y z
#    x 4.017450 0.000000 0.000000 
#    y 0.000000 3.427150 0.000000 
#    z 0.000000 0.000000 3.569400 
# 
# 
# High freq. dielectric constant tensor:
#      x y z
#    x 1.795390 0.000000 0.000000 
#    y 0.000000 1.753200 0.000000 
#    z 0.000000 0.000000 1.776470 
# 
# From -- ./inp_files/32072.got.cif
#   From: 2010.03.12/outbox.cif.g09.slc.cpg/sg69_17_cif.got.tgz:32072.got - 2010.04.10 23:52:46.
