data_PCOD8284879
_publ_section_title
;
Structure prediction by ZEFSAII (Michael W. Deem and Ramdas Pophale) SiO2 
 PCOD8284879
Probable space group: F M M M
;
_chemical_formula_sum "Si O2"
_cell_formula_units_Z 176
_cell_length_a 17.563375
_cell_length_b 18.615009
_cell_length_c 27.532543
_cell_angle_alpha 90.000000
_cell_angle_beta 90.000000
_cell_angle_gamma 90.000000
_cell_volume 9001.555238
_symmetry_space_group_name_H-M "F M M M"
_symmetry_group_IT_number 69
_symmetry_cell_setting 'orthorhombic'
loop_
_space_group_symop_operation_xyz
x,y,z
-x,-y,z
x,-y,-z
-x,y,-z
-x,-y,-z
x,y,-z
-x,y,z
x,-y,z
x,1/2+y,1/2+z
-x,1/2-y,1/2+z
x,1/2-y,1/2-z
-x,1/2+y,1/2-z
-x,1/2-y,1/2-z
x,1/2+y,1/2-z
-x,1/2+y,1/2+z
x,1/2-y,1/2+z
1/2+x,y,1/2+z
1/2-x,-y,1/2+z
1/2+x,-y,1/2-z
1/2-x,y,1/2-z
1/2-x,-y,1/2-z
1/2+x,y,1/2-z
1/2-x,y,1/2+z
1/2+x,-y,1/2+z
1/2+x,1/2+y,z
1/2-x,1/2-y,z
1/2+x,1/2-y,-z
1/2-x,1/2+y,-z
1/2-x,1/2-y,-z
1/2+x,1/2+y,-z
1/2-x,1/2+y,z
1/2+x,1/2-y,z
loop_
_atom_site_type_symbol
_atom_site_label
_atom_site_fract_x
_atom_site_fract_y
_atom_site_fract_z
Si Si1 0.587931 0.179883 0.723621
Si Si2 0.134790 0.848990 0.884169
Si Si3 0.334599 0.720968 0.552265
Si Si4 0.199895 0.084592 0.396121
Si Si5 0.500000 0.084166 0.444495
Si Si6 0.415956 0.416469 0.312034
O O1 0.500000 0.194483 0.712510
O O2 0.623740 0.250000 0.750000
O O3 0.626182 0.159557 0.673117
O O4 0.603156 0.114020 0.759286
O O5 0.126982 0.768557 0.905894
O O6 0.213518 0.891155 0.890394
O O7 0.073037 0.895023 0.912818
O O8 0.375477 0.732121 0.500000
O O9 0.250000 0.750000 0.548294
O O10 0.337116 0.635392 0.562746
O O11 0.151519 0.103836 0.348377
O O12 0.194136 0.000000 0.410032
O O13 0.500000 0.116815 0.500000
O O14 0.500000 0.000000 0.450124
O O15 0.500000 0.388341 0.329906
O O16 0.419889 0.500000 0.304717
#
# Coordination Sequence:
#
# PCOD8284879 Si02
#       6
#    32  32  32  32  16  32
#     4  10  20  35  56  84 115 155 201 243 284 343
#     4  11  21  38  59  87 120 158 196 246 296 355
#     4   9  19  36  57  80 110 147 191 240 291 347
#     4  10  21  37  59  88 118 153 198 247 301 354
#     4  11  24  40  59  88 125 161 198 241 295 364
#     4   9  19  36  56  79 111 151 190 235 292 350
#
# _framework density 19.552177
#
# number of rings (size 3 to 8) (size 9 to 14) (size 15 to 20)
#    0.000    2.091    0.909    2.182    0.000    3.273 
#    1.636    2.727    0.000    0.000    0.000    2.545 
#    0.000    0.000    0.000    0.000    0.000    0.000 
#
# Total GULP energy -545190.124320 kJ/mol
# GULP energy per Si atom -12390.684644 kJ/mol
# Density = 1.950768 g / cm^3
# Si number density = 19.552177 Si / 1000 Ang^3
#
#
#
# Elastic Constant Matrix: (Units=GPa)
#
#
# Indices 1 2 3 4 5 6 
#
# 1 85.0139 30.6045 44.0989 0.0000 0.0000 0.0000
# 2 30.6045 97.2454 49.5001 0.0000 0.0000 0.0000
# 3 44.0989 49.5001 129.8882 0.0000 0.0000 0.0000
# 4 0.0000 0.0000 0.0000 25.9320 0.0000 0.0000
# 5 0.0000 0.0000 0.0000 0.0000 -4.6859 0.0000
# 6 0.0000 0.0000 0.0000 0.0000 0.0000 19.2679
#
#
#
# Elastic Compliance Matrix: (Units=1/GPa)
#
#
# Indices 1 2 3 4 5 6 
#
# 1 0.014790 -0.002604 -0.004029 0.000000 0.000000 0.000000
# 2 -0.002604 0.013217 -0.004153 0.000000 0.000000 0.000000
# 3 -0.004029 -0.004153 0.010650 0.000000 0.000000 0.000000
# 4 0.000000 0.000000 0.000000 0.038562 0.000000 0.000000
# 5 0.000000 0.000000 0.000000 0.000000 -0.213404 0.000000
# 6 0.000000 0.000000 0.000000 0.000000 0.000000 0.051900
#
#
# Mechanical properties :
#
#
# Convention : Reuss Voigt Hill
#
# Bulk Modulus (GPa) = 58.53155 62.28383 60.40769
# Shear Modulus (GPa) = -87.68913 20.63240 -33.52836
#
# Velocity S-wave (km/s) = -6.70419 3.25198 -4.14552
# Velocity P-wave (km/s) = 5.47057 6.78416 2.83705
#
# Compressibility (1/GPa) = 0.01708480
#
# Stress axis : x y z
#
# Youngs Moduli (GPa) = 67.61252 75.66264 93.90095
#
# Poissons Ratio (x) = 0.19700 0.37834
# Poissons Ratio (y) = 0.17604 0.38995
# Poissons Ratio (z) = 0.27242 0.31421
#
# Static dielectric constant tensor:
#      x y z
#    x 3.640200 0.000000 0.000000 
#    y 0.000000 3.755010 0.000000 
#    z 0.000000 0.000000 3.794480 
# 
# 
# High freq. dielectric constant tensor:
#      x y z
#    x 1.748510 0.000000 0.000000 
#    y 0.000000 1.772400 0.000000 
#    z 0.000000 0.000000 1.766650 
# 
# From -- ./inp_files/41799.got.cif
#   From: 2010.03.12/outbox.cif.g09.slc.cpg/sg69_21_cif.got.tgz:41799.got - 2010.04.10 23:52:46.
