data_PCOD8284331
_publ_section_title
;
Structure prediction by ZEFSAII (Michael W. Deem and Ramdas Pophale) SiO2 
 PCOD8284331
Probable space group: F M M M
;
_chemical_formula_sum "Si O2"
_cell_formula_units_Z 240
_cell_length_a 21.499115
_cell_length_b 22.061690
_cell_length_c 27.065913
_cell_angle_alpha 90.000000
_cell_angle_beta 90.000000
_cell_angle_gamma 90.000000
_cell_volume 12837.546866
_symmetry_space_group_name_H-M "F M M M"
_symmetry_group_IT_number 69
_symmetry_cell_setting 'orthorhombic'
loop_
_space_group_symop_operation_xyz
x,y,z
-x,-y,z
x,-y,-z
-x,y,-z
-x,-y,-z
x,y,-z
-x,y,z
x,-y,z
x,1/2+y,1/2+z
-x,1/2-y,1/2+z
x,1/2-y,1/2-z
-x,1/2+y,1/2-z
-x,1/2-y,1/2-z
x,1/2+y,1/2-z
-x,1/2+y,1/2+z
x,1/2-y,1/2+z
1/2+x,y,1/2+z
1/2-x,-y,1/2+z
1/2+x,-y,1/2-z
1/2-x,y,1/2-z
1/2-x,-y,1/2-z
1/2+x,y,1/2-z
1/2-x,y,1/2+z
1/2+x,-y,1/2+z
1/2+x,1/2+y,z
1/2-x,1/2-y,z
1/2+x,1/2-y,-z
1/2-x,1/2+y,-z
1/2-x,1/2-y,-z
1/2+x,1/2+y,-z
1/2-x,1/2+y,z
1/2+x,1/2-y,z
loop_
_atom_site_type_symbol
_atom_site_label
_atom_site_fract_x
_atom_site_fract_y
_atom_site_fract_z
Si Si1 0.771958 0.430714 0.442637
Si Si2 0.427425 0.865103 0.808845
Si Si3 0.500000 0.070109 0.441310
Si Si4 0.929610 0.168794 0.554427
Si Si5 0.428827 0.067803 0.288598
Si Si6 0.861456 0.930604 0.397554
Si Si7 0.384304 0.618528 0.884154
Si Si8 0.572087 0.253901 0.139139
O O1 0.760891 0.410619 0.500000
O O2 0.795911 0.500000 0.442166
O O3 0.711419 0.424300 0.408518
O O4 0.822117 0.388098 0.416065
O O5 0.500000 0.881618 0.819767
O O6 0.409051 0.884388 0.753521
O O7 0.381863 0.901129 0.845648
O O8 0.417428 0.792281 0.814684
O O9 0.500000 0.074154 0.500000
O O10 0.440058 0.105043 0.421533
O O11 0.500000 0.000000 0.423607
O O12 0.923391 0.195669 0.500000
O O13 0.895054 0.104690 0.558071
O O14 0.902395 0.219072 0.590841
O O15 0.000000 0.155871 0.570307
O O16 0.500000 0.080356 0.305018
O O17 0.385784 0.073810 0.336982
O O18 0.421188 0.000000 0.267166
O O19 0.882854 0.000000 0.398416
O O20 0.388030 0.685011 0.858893
O O21 0.500000 0.272381 0.135050
#
# Coordination Sequence:
#
# PCOD8284331 Si02
#       8
#    32  32  16  32  32  32  32  32
#     4  10  22  38  54  75 108 147 184 226 275 325
#     4   9  19  35  57  82 113 143 174 218 274 333
#     4  11  22  34  52  77 104 136 181 234 280 322
#     4   9  18  31  49  75 107 137 170 223 279 325
#     4  10  19  32  54  85 114 139 173 226 282 324
#     4  10  19  34  55  77 104 140 182 224 270 327
#     4  12  21  35  54  78 108 144 185 227 271 320
#     4   9  18  34  51  77 109 142 181 220 269 322
#
# _framework density 18.695160000000001
#
# number of rings (size 3 to 8) (size 9 to 14) (size 15 to 20)
#    0.000    2.067    1.333    3.600    0.000    5.067 
#    0.000    6.000    0.000    6.400    0.000    3.733 
#    0.000    0.000    0.000    0.000    0.000    0.000 
#
# Total GULP energy -743733.732221 kJ/mol
# GULP energy per Si atom -12395.562204 kJ/mol
# Density = 1.865261 g / cm^3
# Si number density = 18.695160 Si / 1000 Ang^3
#
#
#
# Elastic Constant Matrix: (Units=GPa)
#
#
# Indices 1 2 3 4 5 6 
#
# 1 60.3964 27.9592 27.2812 0.0000 0.0000 0.0000
# 2 27.9592 102.4377 26.5071 0.0000 0.0000 0.0000
# 3 27.2812 26.5071 99.0920 0.0000 0.0000 0.0000
# 4 0.0000 0.0000 0.0000 25.4150 0.0000 0.0000
# 5 0.0000 0.0000 0.0000 0.0000 22.2436 0.0000
# 6 0.0000 0.0000 0.0000 0.0000 0.0000 22.1510
#
#
#
# Elastic Compliance Matrix: (Units=1/GPa)
#
#
# Indices 1 2 3 4 5 6 
#
# 1 0.020658 -0.004476 -0.004490 0.000000 0.000000 0.000000
# 2 -0.004476 0.011458 -0.001833 0.000000 0.000000 0.000000
# 3 -0.004490 -0.001833 0.011818 0.000000 0.000000 0.000000
# 4 0.000000 0.000000 0.000000 0.039347 0.000000 0.000000
# 5 0.000000 0.000000 0.000000 0.000000 0.044957 0.000000
# 6 0.000000 0.000000 0.000000 0.000000 0.000000 0.045145
#
#
# Mechanical properties :
#
#
# Convention : Reuss Voigt Hill
#
# Bulk Modulus (GPa) = 44.77110 47.26900 46.02005
# Shear Modulus (GPa) = 24.70049 25.97382 25.33715
#
# Velocity S-wave (km/s) = 3.63881 3.73142 3.68541
# Velocity P-wave (km/s) = 6.45403 6.62598 6.54057
#
# Compressibility (1/GPa) = 0.02233584
#
# Stress axis : x y z
#
# Youngs Moduli (GPa) = 48.40824 87.27500 84.61694
#
# Poissons Ratio (x) = 0.39068 0.37992
# Poissons Ratio (y) = 0.21670 0.15507
# Poissons Ratio (z) = 0.21735 0.15994
#
# Static dielectric constant tensor:
#      x y z
#    x 3.150950 0.000000 0.000000 
#    y 0.000000 3.514320 0.000000 
#    z 0.000000 0.000000 3.474410 
# 
# 
# High freq. dielectric constant tensor:
#      x y z
#    x 1.689830 0.000000 0.000000 
#    y 0.000000 1.727790 0.000000 
#    z 0.000000 0.000000 1.732490 
# 
# From -- ./inp_files/42831.got.cif
#   From: 2010.03.12/outbox.cif.g09.slc.cpg/sg69_22_cif.got.tgz:42831.got - 2010.04.10 23:52:46.
