data_PCOD8284793
_publ_section_title
;
Structure prediction by ZEFSAII (Michael W. Deem and Ramdas Pophale) SiO2 
 PCOD8284793
Probable space group: F M M M
;
_chemical_formula_sum "Si O2"
_cell_formula_units_Z 152
_cell_length_a 29.454049
_cell_length_b 12.709564
_cell_length_c 23.128816
_cell_angle_alpha 90.000000
_cell_angle_beta 90.000000
_cell_angle_gamma 90.000000
_cell_volume 8658.228806
_symmetry_space_group_name_H-M "F M M M"
_symmetry_group_IT_number 69
_symmetry_cell_setting 'orthorhombic'
loop_
_space_group_symop_operation_xyz
x,y,z
-x,-y,z
x,-y,-z
-x,y,-z
-x,-y,-z
x,y,-z
-x,y,z
x,-y,z
x,1/2+y,1/2+z
-x,1/2-y,1/2+z
x,1/2-y,1/2-z
-x,1/2+y,1/2-z
-x,1/2-y,1/2-z
x,1/2+y,1/2-z
-x,1/2+y,1/2+z
x,1/2-y,1/2+z
1/2+x,y,1/2+z
1/2-x,-y,1/2+z
1/2+x,-y,1/2-z
1/2-x,y,1/2-z
1/2-x,-y,1/2-z
1/2+x,y,1/2-z
1/2-x,y,1/2+z
1/2+x,-y,1/2+z
1/2+x,1/2+y,z
1/2-x,1/2-y,z
1/2+x,1/2-y,-z
1/2-x,1/2+y,-z
1/2-x,1/2-y,-z
1/2+x,1/2+y,-z
1/2-x,1/2+y,z
1/2+x,1/2-y,z
loop_
_atom_site_type_symbol
_atom_site_label
_atom_site_fract_x
_atom_site_fract_y
_atom_site_fract_z
Si Si1 0.322794 0.878169 0.681333
Si Si2 0.895872 0.250000 0.750000
Si Si3 0.621533 0.620052 0.434690
Si Si4 0.550999 0.624594 0.659125
Si Si5 0.250000 0.250000 0.750000
Si Si6 0.801395 0.716420 0.434599
O O1 0.366432 0.814976 0.703769
O O2 0.278843 0.826789 0.709887
O O3 0.317606 0.870419 0.611692
O O4 0.326978 0.000000 0.698956
O O5 0.927919 0.332202 0.782130
O O6 0.604045 0.632468 0.500000
O O7 0.632882 0.500000 0.418977
O O8 0.581114 0.663964 0.394860
O O9 0.668302 0.680494 0.424164
O O10 0.500000 0.668057 0.650596
O O11 0.550736 0.500000 0.663337
O O12 0.807616 0.671945 0.500000
O O13 0.750000 0.750000 0.423410
#
# Coordination Sequence:
#
# PCOD8284793 Si02
#       6
#    32  16  32  32   8  32
#     4  11  22  36  56  78 104 144 185 219 264 319
#     4  11  21  37  51  76 112 146 172 218 266 320
#     4   9  18  34  55  79 109 141 174 220 275 323
#     4  10  20  34  56  83 107 137 177 221 271 324
#     4  10  22  40  52  78 110 140 172 230 270 314
#     4  10  20  36  54  78 109 142 183 225 266 312
#
# _framework density 17.555554000000001
#
# number of rings (size 3 to 8) (size 9 to 14) (size 15 to 20)
#    0.000    1.895    3.158    1.263    0.000    1.684 
#    0.000    4.211    0.000    0.000    0.000    0.000 
#    0.000    3.368    0.000    0.000    0.000    0.000 
#
# Total GULP energy -471196.358215 kJ/mol
# GULP energy per Si atom -12399.904164 kJ/mol
# Density = 1.751560 g / cm^3
# Si number density = 17.555554 Si / 1000 Ang^3
#
#
#
# Elastic Constant Matrix: (Units=GPa)
#
#
# Indices 1 2 3 4 5 6 
#
# 1 135.2404 29.6999 56.0414 0.0000 0.0000 0.0000
# 2 29.6999 56.8965 29.4307 0.0000 0.0000 0.0000
# 3 56.0414 29.4307 109.8215 0.0000 0.0000 0.0000
# 4 0.0000 0.0000 0.0000 22.6747 0.0000 0.0000
# 5 0.0000 0.0000 0.0000 0.0000 16.6702 0.0000
# 6 0.0000 0.0000 0.0000 0.0000 0.0000 23.8900
#
#
#
# Elastic Compliance Matrix: (Units=1/GPa)
#
#
# Indices 1 2 3 4 5 6 
#
# 1 0.009780 -0.002930 -0.004206 0.000000 0.000000 0.000000
# 2 -0.002930 0.021282 -0.004208 0.000000 0.000000 0.000000
# 3 -0.004206 -0.004208 0.012380 0.000000 0.000000 0.000000
# 4 0.000000 0.000000 0.000000 0.044102 0.000000 0.000000
# 5 0.000000 0.000000 0.000000 0.000000 0.059987 0.000000
# 6 0.000000 0.000000 0.000000 0.000000 0.000000 0.041859
#
#
# Mechanical properties :
#
#
# Convention : Reuss Voigt Hill
#
# Bulk Modulus (GPa) = 48.18264 59.14470 53.66367
# Shear Modulus (GPa) = 22.83152 25.09941 23.96546
#
# Velocity S-wave (km/s) = 3.61020 3.78526 3.69876
# Velocity P-wave (km/s) = 6.69951 7.27100 6.99110
#
# Compressibility (1/GPa) = 0.02075436
#
# Stress axis : x y z
#
# Youngs Moduli (GPa) = 102.24463 46.98833 80.77808
#
# Poissons Ratio (x) = 0.13767 0.33973
# Poissons Ratio (y) = 0.29956 0.33993
# Poissons Ratio (z) = 0.43002 0.19773
#
# Static dielectric constant tensor:
#      x y z
#    x 3.388180 0.000000 0.000000 
#    y 0.000000 3.072200 0.000000 
#    z 0.000000 0.000000 3.471760 
# 
# 
# High freq. dielectric constant tensor:
#      x y z
#    x 1.681210 0.000000 0.000000 
#    y 0.000000 1.659820 0.000000 
#    z 0.000000 0.000000 1.692420 
# 
# From -- ./inp_files/38856.got.cif
#   From: 2010.03.12/outbox.cif.g09.slc.cpg/sg69_20_cif.got.tgz:38856.got - 2010.04.10 23:52:46.
