data_PCOD8284271
_publ_section_title
;
Structure prediction by ZEFSAII (Michael W. Deem and Ramdas Pophale) SiO2 
 PCOD8284271
Probable space group: F M M M
;
_chemical_formula_sum "Si O2"
_cell_formula_units_Z 96
_cell_length_a 19.149971
_cell_length_b 30.648753
_cell_length_c 8.660323
_cell_angle_alpha 90.000000
_cell_angle_beta 90.000000
_cell_angle_gamma 90.000000
_cell_volume 5082.940428
_symmetry_space_group_name_H-M "F M M M"
_symmetry_group_IT_number 69
_symmetry_cell_setting 'orthorhombic'
loop_
_space_group_symop_operation_xyz
x,y,z
-x,-y,z
x,-y,-z
-x,y,-z
-x,-y,-z
x,y,-z
-x,y,z
x,-y,z
x,1/2+y,1/2+z
-x,1/2-y,1/2+z
x,1/2-y,1/2-z
-x,1/2+y,1/2-z
-x,1/2-y,1/2-z
x,1/2+y,1/2-z
-x,1/2+y,1/2+z
x,1/2-y,1/2+z
1/2+x,y,1/2+z
1/2-x,-y,1/2+z
1/2+x,-y,1/2-z
1/2-x,y,1/2-z
1/2-x,-y,1/2-z
1/2+x,y,1/2-z
1/2-x,y,1/2+z
1/2+x,-y,1/2+z
1/2+x,1/2+y,z
1/2-x,1/2-y,z
1/2+x,1/2-y,-z
1/2-x,1/2+y,-z
1/2-x,1/2-y,-z
1/2+x,1/2+y,-z
1/2-x,1/2+y,z
1/2+x,1/2-y,z
loop_
_atom_site_type_symbol
_atom_site_label
_atom_site_fract_x
_atom_site_fract_y
_atom_site_fract_z
Si Si1 0.578087 0.625185 0.183547
Si Si2 0.176221 0.049068 0.817317
Si Si3 0.325179 0.296161 0.816550
O O1 0.500000 0.626249 0.253180
O O2 0.616680 0.581673 0.245046
O O3 0.619482 0.667876 0.239913
O O4 0.575167 0.624344 0.000000
O O5 0.250000 0.064426 0.750000
O O6 0.157565 0.000000 0.762165
O O7 0.181897 0.051580 0.000000
O O8 0.350791 0.250000 0.750000
O O9 0.250000 0.309191 0.750000
O O10 0.319859 0.293376 0.000000
#
# Coordination Sequence:
#
# PCOD8284271 Si02
#       3
#    32  32  32
#     4   9  18  31  47  70  98 125 154 191 234 276
#     4   9  17  30  50  73  95 122 156 193 231 273
#     4  10  19  32  51  71  93 122 156 195 234 274
#
# _framework density 18.886706
#
# number of rings (size 3 to 8) (size 9 to 14) (size 15 to 20)
#    0.000    2.667    0.000    3.000    0.000    1.333 
#    0.000    5.000    0.000    8.000    0.000    4.667 
#    0.000    0.000    0.000    0.000    0.000    0.000 
#
# Total GULP energy -297576.598804 kJ/mol
# GULP energy per Si atom -12399.024950 kJ/mol
# Density = 1.884372 g / cm^3
# Si number density = 18.886706 Si / 1000 Ang^3
#
#
#
# Elastic Constant Matrix: (Units=GPa)
#
#
# Indices 1 2 3 4 5 6 
#
# 1 179.5191 122.4664 20.8991 0.0000 0.0009 0.0000
# 2 122.4664 165.9941 23.1072 0.0000 -0.0002 0.0000
# 3 20.8991 23.1072 34.1465 0.0001 0.0010 0.0000
# 4 0.0000 0.0000 0.0001 18.9337 0.0000 -0.0001
# 5 0.0009 -0.0002 0.0010 0.0000 20.8474 0.0000
# 6 0.0000 0.0000 0.0000 -0.0001 0.0000 25.2621
#
#
#
# Elastic Compliance Matrix: (Units=1/GPa)
#
#
# Indices 1 2 3 4 5 6 
#
# 1 0.011276 -0.008123 -0.001404 0.000000 0.000000 0.000000
# 2 -0.008123 0.012503 -0.003489 0.000000 0.000001 0.000000
# 3 -0.001404 -0.003489 0.032506 0.000000 -0.000002 0.000000
# 4 0.000000 0.000000 0.000000 0.052816 0.000000 0.000000
# 5 0.000000 0.000001 -0.000002 0.000000 0.047968 0.000000
# 6 0.000000 0.000000 0.000000 0.000000 0.000000 0.039585
#
#
# Mechanical properties :
#
#
# Convention : Reuss Voigt Hill
#
# Bulk Modulus (GPa) = 33.05592 79.17835 56.11714
# Shear Modulus (GPa) = 21.48037 27.22110 24.35073
#
# Velocity S-wave (km/s) = 3.37609 3.80054 3.59459
# Velocity P-wave (km/s) = 5.72167 7.82768 6.85602
#
# Compressibility (1/GPa) = 0.03025176
#
# Stress axis : x y z
#
# Youngs Moduli (GPa) = 88.68687 79.97891 30.76352
#
# Poissons Ratio (x) = 0.64970 0.04319
# Poissons Ratio (y) = 0.72044 0.10734
# Poissons Ratio (z) = 0.12451 0.27906
#
# Static dielectric constant tensor:
#      x y z
#    x 3.733220 0.000000 0.000000 
#    y 0.000000 3.796260 0.000000 
#    z 0.000000 0.000000 3.133680 
# 
# 
# High freq. dielectric constant tensor:
#      x y z
#    x 1.730880 0.000000 0.000000 
#    y 0.000000 1.749780 0.000000 
#    z 0.000000 0.000000 1.701500 
# 
# From -- ./inp_files/2827.got.cif
#   From: 2010.03.12/outbox.cif.g09.slc.cpg/sg69_2_cif.got.tgz:2827.got - 2010.04.10 23:52:46.
