data_PCOD8284605
_publ_section_title
;
Structure prediction by ZEFSAII (Michael W. Deem and Ramdas Pophale) SiO2 
 PCOD8284605
Probable space group: F M M M
;
_chemical_formula_sum "Si O2"
_cell_formula_units_Z 176
_cell_length_a 32.126770
_cell_length_b 13.090682
_cell_length_c 23.863613
_cell_angle_alpha 90.000000
_cell_angle_beta 90.000000
_cell_angle_gamma 90.000000
_cell_volume 10036.112816
_symmetry_space_group_name_H-M "F M M M"
_symmetry_group_IT_number 69
_symmetry_cell_setting 'orthorhombic'
loop_
_space_group_symop_operation_xyz
x,y,z
-x,-y,z
x,-y,-z
-x,y,-z
-x,-y,-z
x,y,-z
-x,y,z
x,-y,z
x,1/2+y,1/2+z
-x,1/2-y,1/2+z
x,1/2-y,1/2-z
-x,1/2+y,1/2-z
-x,1/2-y,1/2-z
x,1/2+y,1/2-z
-x,1/2+y,1/2+z
x,1/2-y,1/2+z
1/2+x,y,1/2+z
1/2-x,-y,1/2+z
1/2+x,-y,1/2-z
1/2-x,y,1/2-z
1/2-x,-y,1/2-z
1/2+x,y,1/2-z
1/2-x,y,1/2+z
1/2+x,-y,1/2+z
1/2+x,1/2+y,z
1/2-x,1/2-y,z
1/2+x,1/2-y,-z
1/2-x,1/2+y,-z
1/2-x,1/2-y,-z
1/2+x,1/2+y,-z
1/2-x,1/2+y,z
1/2+x,1/2-y,z
loop_
_atom_site_type_symbol
_atom_site_label
_atom_site_fract_x
_atom_site_fract_y
_atom_site_fract_z
Si Si1 0.785824 0.885029 0.288664
Si Si2 0.857638 0.750000 0.250000
Si Si3 0.453409 0.121180 0.437552
Si Si4 0.225348 0.112726 0.415869
Si Si5 0.383495 0.620426 0.852760
Si Si6 0.815349 0.684745 0.560629
O O1 0.750000 0.835919 0.250000
O O2 0.829061 0.825691 0.285687
O O3 0.767386 0.879345 0.350064
O O4 0.795386 0.000000 0.268704
O O5 0.884759 0.684852 0.294755
O O6 0.442050 0.162545 0.500000
O O7 0.500000 0.157245 0.421254
O O8 0.421517 0.162432 0.390786
O O9 0.451011 0.000000 0.438682
O O10 0.190194 0.192834 0.434630
O O11 0.270052 0.134061 0.442232
O O12 0.209826 0.000000 0.433806
O O13 0.387400 0.500000 0.838795
O O14 0.341379 0.638728 0.888026
O O15 0.836815 0.661283 0.500000
#
# Coordination Sequence:
#
# PCOD8284605 Si02
#       6
#    32  16  32  32  32  32
#     4  10  20  32  48  65  88 130 178 220 257 296
#     4  12  21  34  49  70 104 130 170 216 255 301
#     4   8  15  31  56  83 108 133 162 200 252 314
#     4  10  20  34  47  65  97 135 173 214 260 308
#     4  11  22  35  53  77 104 136 170 210 261 310
#     4  11  22  34  49  73 101 130 171 219 264 312
#
# _framework density 17.536670999999998
#
# number of rings (size 3 to 8) (size 9 to 14) (size 15 to 20)
#    0.000    1.818    1.818    4.636    2.545    4.727 
#    0.000    0.455    0.000    0.000    0.000    0.000 
#    0.000    2.182    0.000   20.182    0.000    1.636 
#
# Total GULP energy -545396.935622 kJ/mol
# GULP energy per Si atom -12395.384900 kJ/mol
# Density = 1.749676 g / cm^3
# Si number density = 17.536671 Si / 1000 Ang^3
#
#
#
# Elastic Constant Matrix: (Units=GPa)
#
#
# Indices 1 2 3 4 5 6 
#
# 1 74.1168 20.6938 36.6450 0.0000 0.0000 0.0000
# 2 20.6938 82.8021 35.0465 0.0000 0.0000 0.0000
# 3 36.6450 35.0465 119.7408 0.0000 0.0000 0.0000
# 4 0.0000 0.0000 0.0000 8.3450 0.0000 0.0000
# 5 0.0000 0.0000 0.0000 0.0000 25.3614 0.0000
# 6 0.0000 0.0000 0.0000 0.0000 0.0000 11.3589
#
#
#
# Elastic Compliance Matrix: (Units=1/GPa)
#
#
# Indices 1 2 3 4 5 6 
#
# 1 0.016252 -0.002233 -0.004320 0.000000 0.000000 0.000000
# 2 -0.002233 0.014092 -0.003441 0.000000 0.000000 0.000000
# 3 -0.004320 -0.003441 0.010681 0.000000 0.000000 0.000000
# 4 0.000000 0.000000 0.000000 0.119832 0.000000 0.000000
# 5 0.000000 0.000000 0.000000 0.000000 0.039430 0.000000
# 6 0.000000 0.000000 0.000000 0.000000 0.000000 0.088036
#
#
# Mechanical properties :
#
#
# Convention : Reuss Voigt Hill
#
# Bulk Modulus (GPa) = 47.53861 51.27002 49.40431
# Shear Modulus (GPa) = 15.85682 21.29803 18.57743
#
# Velocity S-wave (km/s) = 3.01027 3.48873 3.25829
# Velocity P-wave (km/s) = 6.26492 6.74742 6.51064
#
# Compressibility (1/GPa) = 0.02103553
#
# Stress axis : x y z
#
# Youngs Moduli (GPa) = 61.53233 70.96474 93.62802
#
# Poissons Ratio (x) = 0.15847 0.40447
# Poissons Ratio (y) = 0.13741 0.32217
# Poissons Ratio (z) = 0.26582 0.24419
#
# Static dielectric constant tensor:
#      x y z
#    x 3.082190 0.000000 0.000000 
#    y 0.000000 3.357720 0.000000 
#    z 0.000000 0.000000 3.428330 
# 
# 
# High freq. dielectric constant tensor:
#      x y z
#    x 1.635230 0.000000 0.000000 
#    y 0.000000 1.668310 0.000000 
#    z 0.000000 0.000000 1.693640 
# 
# From -- ./inp_files/38960.got.cif
#   From: 2010.03.12/outbox.cif.g09.slc.cpg/sg69_20_cif.got.tgz:38960.got - 2010.04.10 23:52:46.
