data_PCOD8284008
_publ_section_title
;
Structure prediction by ZEFSAII (Michael W. Deem and Ramdas Pophale) SiO2 
 PCOD8284008
Probable space group: F M M M
;
_chemical_formula_sum "Si O2"
_cell_formula_units_Z 160
_cell_length_a 16.382235
_cell_length_b 30.312585
_cell_length_c 17.780605
_cell_angle_alpha 90.000000
_cell_angle_beta 90.000000
_cell_angle_gamma 90.000000
_cell_volume 8829.633136
_symmetry_space_group_name_H-M "F M M M"
_symmetry_group_IT_number 69
_symmetry_cell_setting 'orthorhombic'
loop_
_space_group_symop_operation_xyz
x,y,z
-x,-y,z
x,-y,-z
-x,y,-z
-x,-y,-z
x,y,-z
-x,y,z
x,-y,z
x,1/2+y,1/2+z
-x,1/2-y,1/2+z
x,1/2-y,1/2-z
-x,1/2+y,1/2-z
-x,1/2-y,1/2-z
x,1/2+y,1/2-z
-x,1/2+y,1/2+z
x,1/2-y,1/2+z
1/2+x,y,1/2+z
1/2-x,-y,1/2+z
1/2+x,-y,1/2-z
1/2-x,y,1/2-z
1/2-x,-y,1/2-z
1/2+x,y,1/2-z
1/2-x,y,1/2+z
1/2+x,-y,1/2+z
1/2+x,1/2+y,z
1/2-x,1/2-y,z
1/2+x,1/2-y,-z
1/2-x,1/2+y,-z
1/2-x,1/2-y,-z
1/2+x,1/2+y,-z
1/2-x,1/2+y,z
1/2+x,1/2-y,z
loop_
_atom_site_type_symbol
_atom_site_label
_atom_site_fract_x
_atom_site_fract_y
_atom_site_fract_z
Si Si1 0.407393 0.755890 0.585760
Si Si2 0.500000 0.051340 0.228718
Si Si3 0.139034 0.163912 0.635492
Si Si4 0.339426 0.896497 0.272023
Si Si5 0.000000 0.898518 0.417234
Si Si6 0.183534 0.156847 0.085124
O O1 0.385904 0.742396 0.500000
O O2 0.500000 0.771610 0.592881
O O3 0.392535 0.714010 0.639443
O O4 0.353509 0.796858 0.612823
O O5 0.584147 0.070754 0.262474
O O6 0.500000 0.060557 0.139811
O O7 0.500000 0.000000 0.245700
O O8 0.150727 0.147143 0.720764
O O9 0.220092 0.162198 0.586616
O O10 0.077787 0.132226 0.592375
O O11 0.250000 0.917862 0.250000
O O12 0.343244 0.882340 0.359172
O O13 0.000000 0.919524 0.500000
O O14 0.154787 0.145359 0.000000
#
# Coordination Sequence:
#
# PCOD8284008 Si02
#       6
#    32  16  32  32  16  32
#     4  10  19  29  44  72 107 143 181 219 255 291
#     4  10  22  39  60  83 105 134 166 204 268 331
#     4  10  18  32  51  75 106 142 177 215 256 303
#     4   9  21  38  56  80 106 134 174 216 260 313
#     4  10  18  31  55  82 108 133 165 210 260 315
#     4  10  20  33  51  73 103 144 184 219 254 291
#
# _framework density 18.120798000000001
#
# number of rings (size 3 to 8) (size 9 to 14) (size 15 to 20)
#    0.000    2.200    1.000    2.400    1.400    3.000 
#    0.000    4.000    0.000    1.200    0.000    0.000 
#    0.000    0.000    0.000    0.000    0.000    0.000 
#
# Total GULP energy -495914.127013 kJ/mol
# GULP energy per Si atom -12397.853175 kJ/mol
# Density = 1.807955 g / cm^3
# Si number density = 18.120798 Si / 1000 Ang^3
#
#
#
# Elastic Constant Matrix: (Units=GPa)
#
#
# Indices 1 2 3 4 5 6 
#
# 1 128.2637 55.6493 30.7909 0.0000 0.0000 0.0000
# 2 55.6493 94.4304 35.5534 0.0000 0.0000 0.0000
# 3 30.7909 35.5534 87.8992 0.0000 0.0000 0.0000
# 4 0.0000 0.0000 0.0000 12.8163 0.0000 0.0000
# 5 0.0000 0.0000 0.0000 0.0000 25.5858 0.0000
# 6 0.0000 0.0000 0.0000 0.0000 0.0000 20.0070
#
#
#
# Elastic Compliance Matrix: (Units=1/GPa)
#
#
# Indices 1 2 3 4 5 6 
#
# 1 0.010619 -0.005730 -0.001402 0.000000 0.000000 0.000000
# 2 -0.005730 0.015584 -0.004296 0.000000 0.000000 0.000000
# 3 -0.001402 -0.004296 0.013606 0.000000 0.000000 0.000000
# 4 0.000000 0.000000 0.000000 0.078025 0.000000 0.000000
# 5 0.000000 0.000000 0.000000 0.000000 0.039084 0.000000
# 6 0.000000 0.000000 0.000000 0.000000 0.000000 0.049983
#
#
# Mechanical properties :
#
#
# Convention : Reuss Voigt Hill
#
# Bulk Modulus (GPa) = 58.99037 61.62005 60.30521
# Shear Modulus (GPa) = 21.23965 24.25513 22.74739
#
# Velocity S-wave (km/s) = 3.42733 3.66255 3.54689
# Velocity P-wave (km/s) = 6.94887 7.20866 7.07995
#
# Compressibility (1/GPa) = 0.01695192
#
# Stress axis : x y z
#
# Youngs Moduli (GPa) = 94.16961 64.16750 73.49926
#
# Poissons Ratio (x) = 0.36769 0.10306
# Poissons Ratio (y) = 0.53960 0.31577
# Poissons Ratio (z) = 0.13204 0.27568
#
# Static dielectric constant tensor:
#      x y z
#    x 3.642710 0.000000 0.000000 
#    y 0.000000 2.931630 0.000000 
#    z 0.000000 0.000000 3.304290 
# 
# 
# High freq. dielectric constant tensor:
#      x y z
#    x 1.723980 0.000000 0.000000 
#    y 0.000000 1.660740 0.000000 
#    z 0.000000 0.000000 1.697580 
# 
# From -- ./inp_files/19596.got.cif
#   From: 2010.03.12/outbox.cif.g09.slc.cpg/sg69_10_cif.got.tgz:19596.got - 2010.04.10 23:52:46.
