data_PCOD8284701
_publ_section_title
;
Structure prediction by ZEFSAII (Michael W. Deem and Ramdas Pophale) SiO2 
 PCOD8284701
Probable space group: F M M M
;
_chemical_formula_sum "Si O2"
_cell_formula_units_Z 128
_cell_length_a 8.192989
_cell_length_b 36.693944
_cell_length_c 25.951428
_cell_angle_alpha 90.000000
_cell_angle_beta 90.000000
_cell_angle_gamma 90.000000
_cell_volume 7801.857719
_symmetry_space_group_name_H-M "F M M M"
_symmetry_group_IT_number 69
_symmetry_cell_setting 'orthorhombic'
loop_
_space_group_symop_operation_xyz
x,y,z
-x,-y,z
x,-y,-z
-x,y,-z
-x,-y,-z
x,y,-z
-x,y,z
x,-y,z
x,1/2+y,1/2+z
-x,1/2-y,1/2+z
x,1/2-y,1/2-z
-x,1/2+y,1/2-z
-x,1/2-y,1/2-z
x,1/2+y,1/2-z
-x,1/2+y,1/2+z
x,1/2-y,1/2+z
1/2+x,y,1/2+z
1/2-x,-y,1/2+z
1/2+x,-y,1/2-z
1/2-x,y,1/2-z
1/2-x,-y,1/2-z
1/2+x,y,1/2-z
1/2-x,y,1/2+z
1/2+x,-y,1/2+z
1/2+x,1/2+y,z
1/2-x,1/2-y,z
1/2+x,1/2-y,-z
1/2-x,1/2+y,-z
1/2-x,1/2-y,-z
1/2+x,1/2+y,-z
1/2-x,1/2+y,z
1/2+x,1/2-y,z
loop_
_atom_site_type_symbol
_atom_site_label
_atom_site_fract_x
_atom_site_fract_y
_atom_site_fract_z
Si Si1 0.000000 0.040703 0.939012
Si Si2 0.688794 0.666730 0.403234
Si Si3 0.808133 0.709408 0.194384
Si Si4 0.313323 0.087214 0.060505
Si Si5 0.685987 0.790333 0.500000
O O1 0.829896 0.059701 0.921020
O O2 0.000000 0.000000 0.915591
O O3 0.000000 0.039162 0.000000
O O4 0.500000 0.675919 0.407131
O O5 0.760234 0.681722 0.349067
O O6 0.720390 0.623683 0.407183
O O7 0.770539 0.687381 0.449708
O O8 0.750000 0.695538 0.250000
O O9 0.750000 0.750000 0.181751
O O10 0.000000 0.709487 0.194623
O O11 0.500000 0.072594 0.071356
O O12 0.295847 0.095959 0.000000
O O13 0.500000 0.783984 0.500000
O O14 0.750000 0.750000 0.500000
#
# Coordination Sequence:
#
# PCOD8284701 Si02
#       5
#    16  32  32  32  16
#     4   9  18  30  46  70 102 131 166 198 226 292
#     4  10  20  34  50  68  95 128 163 207 248 295
#     4  10  20  34  50  67  91 125 165 209 256 295
#     4   9  17  30  48  69  98 132 163 196 244 290
#     4  12  24  32  46  68  94 127 166 207 247 291
#
# _framework density 16.40635
#
# number of rings (size 3 to 8) (size 9 to 14) (size 15 to 20)
#    0.000    2.125    1.250    3.375    1.750    4.500 
#    0.000    2.500    0.000    0.000    0.000    0.000 
#    0.000    1.000    0.500    0.000    0.000    0.000 
#
# Total GULP energy -396600.613402 kJ/mol
# GULP energy per Si atom -12393.769169 kJ/mol
# Density = 1.636901 g / cm^3
# Si number density = 16.406350 Si / 1000 Ang^3
#
#
#
# Elastic Constant Matrix: (Units=GPa)
#
#
# Indices 1 2 3 4 5 6 
#
# 1 101.7925 72.0486 47.7612 0.0000 0.0000 0.0000
# 2 72.0486 100.8829 49.0704 0.0000 0.0000 0.0000
# 3 47.7612 49.0704 91.9268 0.0000 0.0000 0.0000
# 4 0.0000 0.0000 0.0000 83.1896 0.0000 0.0000
# 5 0.0000 0.0000 0.0000 0.0000 14.8748 0.0000
# 6 0.0000 0.0000 0.0000 0.0000 0.0000 28.4693
#
#
#
# Elastic Compliance Matrix: (Units=1/GPa)
#
#
# Indices 1 2 3 4 5 6 
#
# 1 0.020850 -0.012996 -0.003896 0.000000 0.000000 0.000000
# 2 -0.012996 0.021489 -0.004719 0.000000 0.000000 0.000000
# 3 -0.003896 -0.004719 0.015421 0.000000 0.000000 0.000000
# 4 0.000000 0.000000 0.000000 0.012021 0.000000 0.000000
# 5 0.000000 0.000000 0.000000 0.000000 0.067228 0.000000
# 6 0.000000 0.000000 0.000000 0.000000 0.000000 0.035126
#
#
# Mechanical properties :
#
#
# Convention : Reuss Voigt Hill
#
# Bulk Modulus (GPa) = 68.77680 70.26250 69.51965
# Shear Modulus (GPa) = 22.70640 33.68821 28.19731
#
# Velocity S-wave (km/s) = 3.72425 4.53632 4.15020
# Velocity P-wave (km/s) = 7.77851 8.38791 8.08895
#
# Compressibility (1/GPa) = 0.01453979
#
# Stress axis : x y z
#
# Youngs Moduli (GPa) = 47.96096 46.53501 64.84624
#
# Poissons Ratio (x) = 0.60477 0.25262
# Poissons Ratio (y) = 0.62330 0.30599
# Poissons Ratio (z) = 0.18684 0.21959
#
# Static dielectric constant tensor:
#      x y z
#    x 3.351290 0.000000 0.000000 
#    y 0.000000 3.631260 0.000000 
#    z 0.000000 0.000000 3.427370 
# 
# 
# High freq. dielectric constant tensor:
#      x y z
#    x 1.650280 0.000000 0.000000 
#    y 0.000000 1.616850 0.000000 
#    z 0.000000 0.000000 1.602050 
# 
# From -- ./inp_files/4772.got.cif
#   From: 2010.03.12/outbox.cif.g09.slc.cpg/sg69_3_cif.got.tgz:4772.got - 2010.04.10 23:52:46.
