data_PCOD8284819
_publ_section_title
;
Structure prediction by ZEFSAII (Michael W. Deem and Ramdas Pophale) SiO2 
 PCOD8284819
Probable space group: F M M M
;
_chemical_formula_sum "Si O2"
_cell_formula_units_Z 192
_cell_length_a 22.710753
_cell_length_b 14.943941
_cell_length_c 28.207375
_cell_angle_alpha 90.000000
_cell_angle_beta 90.000000
_cell_angle_gamma 90.000000
_cell_volume 9573.248899
_symmetry_space_group_name_H-M "F M M M"
_symmetry_group_IT_number 69
_symmetry_cell_setting 'orthorhombic'
loop_
_space_group_symop_operation_xyz
x,y,z
-x,-y,z
x,-y,-z
-x,y,-z
-x,-y,-z
x,y,-z
-x,y,z
x,-y,z
x,1/2+y,1/2+z
-x,1/2-y,1/2+z
x,1/2-y,1/2-z
-x,1/2+y,1/2-z
-x,1/2-y,1/2-z
x,1/2+y,1/2-z
-x,1/2+y,1/2+z
x,1/2-y,1/2+z
1/2+x,y,1/2+z
1/2-x,-y,1/2+z
1/2+x,-y,1/2-z
1/2-x,y,1/2-z
1/2-x,-y,1/2-z
1/2+x,y,1/2-z
1/2-x,y,1/2+z
1/2+x,-y,1/2+z
1/2+x,1/2+y,z
1/2-x,1/2-y,z
1/2+x,1/2-y,-z
1/2-x,1/2+y,-z
1/2-x,1/2-y,-z
1/2+x,1/2+y,-z
1/2-x,1/2+y,z
1/2+x,1/2-y,z
loop_
_atom_site_type_symbol
_atom_site_label
_atom_site_fract_x
_atom_site_fract_y
_atom_site_fract_z
Si Si1 0.930880 0.648475 0.237428
Si Si2 0.655585 0.402440 0.946077
Si Si3 0.733143 0.345198 0.608429
Si Si4 0.229408 0.000000 0.323268
Si Si5 0.067951 0.097130 0.633820
Si Si6 0.379109 0.789299 0.054581
Si Si7 0.652835 0.500000 0.770053
O O1 0.918028 0.750000 0.250000
O O2 0.908890 0.636843 0.183321
O O3 0.890321 0.586331 0.271152
O O4 0.000000 0.624004 0.244733
O O5 0.624754 0.500000 0.936804
O O6 0.712707 0.397504 0.913875
O O7 0.613126 0.317720 0.936119
O O8 0.677322 0.395597 0.000000
O O9 0.750000 0.250000 0.632143
O O10 0.708460 0.410755 0.648749
O O11 0.686120 0.323782 0.567209
O O12 0.300920 0.000000 0.314125
O O13 0.193457 0.000000 0.275626
O O14 0.075977 0.162480 0.589453
O O15 0.000000 0.081592 0.640322
O O16 0.098304 0.000000 0.624650
O O17 0.393172 0.813511 0.000000
#
# Coordination Sequence:
#
# PCOD8284819 Si02
#       7
#    32  32  32  16  32  32  16
#     4  10  21  40  67  90 108 144 197 250 306 362
#     4   9  17  32  53  76 106 144 187 236 279 320
#     4  10  20  35  53  75 110 148 190 236 276 327
#     4  11  24  36  51  82 117 157 191 226 293 366
#     4  10  21  38  60  85 117 151 186 239 302 353
#     4  10  21  34  55  86 116 157 203 237 280 341
#     4  11  23  38  56  82 118 148 186 234 293 368
#
# _framework density 20.055886000000001
#
# number of rings (size 3 to 8) (size 9 to 14) (size 15 to 20)
#    0.000    2.000    1.667    1.750    1.167    6.667 
#    0.000    2.500    0.000    0.500    0.000    2.333 
#    0.000    0.000    0.000    0.000    0.000    1.333 
#
# Total GULP energy -594880.033466 kJ/mol
# GULP energy per Si atom -12393.334031 kJ/mol
# Density = 2.001024 g / cm^3
# Si number density = 20.055886 Si / 1000 Ang^3
#
#
#
# Elastic Constant Matrix: (Units=GPa)
#
#
# Indices 1 2 3 4 5 6 
#
# 1 41.0931 31.9457 6.1576 0.0000 0.0000 0.0000
# 2 31.9457 173.7007 53.1363 0.0000 0.0000 0.0000
# 3 6.1576 53.1363 69.7480 0.0000 0.0000 0.0000
# 4 0.0000 0.0000 0.0000 30.4036 0.0000 0.0000
# 5 0.0000 0.0000 0.0000 0.0000 25.2271 0.0000
# 6 0.0000 0.0000 0.0000 0.0000 0.0000 26.2259
#
#
#
# Elastic Compliance Matrix: (Units=1/GPa)
#
#
# Indices 1 2 3 4 5 6 
#
# 1 0.028593 -0.005850 0.001932 0.000000 0.000000 0.000000
# 2 -0.005850 0.008703 -0.006114 0.000000 0.000000 0.000000
# 3 0.001932 -0.006114 0.018825 0.000000 0.000000 0.000000
# 4 0.000000 0.000000 0.000000 0.032891 0.000000 0.000000
# 5 0.000000 0.000000 0.000000 0.000000 0.039640 0.000000
# 6 0.000000 0.000000 0.000000 0.000000 0.000000 0.038130
#
#
# Mechanical properties :
#
#
# Convention : Reuss Voigt Hill
#
# Bulk Modulus (GPa) = 27.73321 51.89125 39.81223
# Shear Modulus (GPa) = 25.14284 29.25813 27.20048
#
# Velocity S-wave (km/s) = 3.54452 3.82361 3.68670
# Velocity P-wave (km/s) = 5.53258 6.73964 6.16572
#
# Compressibility (1/GPa) = 0.03605786
#
# Stress axis : x y z
#
# Youngs Moduli (GPa) = 34.97356 114.90095 53.12222
#
# Poissons Ratio (x) = 0.67213 -0.10264
# Poissons Ratio (y) = 0.20458 0.32478
# Poissons Ratio (z) = -0.06758 0.70249
#
# Static dielectric constant tensor:
#      x y z
#    x 3.502680 0.000000 0.000000 
#    y 0.000000 4.014800 0.000000 
#    z 0.000000 0.000000 3.521510 
# 
# 
# High freq. dielectric constant tensor:
#      x y z
#    x 1.760860 0.000000 0.000000 
#    y 0.000000 1.801880 0.000000 
#    z 0.000000 0.000000 1.771650 
# 
# From -- ./inp_files/43215.got.cif
#   From: 2010.03.12/outbox.cif.g09.slc.cpg/sg69_22_cif.got.tgz:43215.got - 2010.04.10 23:52:46.
