data_PCOD8284157
_publ_section_title
;
Structure prediction by ZEFSAII (Michael W. Deem and Ramdas Pophale) SiO2 
 PCOD8284157
Probable space group: F M M M
;
_chemical_formula_sum "Si O2"
_cell_formula_units_Z 160
_cell_length_a 17.297064
_cell_length_b 23.195888
_cell_length_c 20.535447
_cell_angle_alpha 90.000000
_cell_angle_beta 90.000000
_cell_angle_gamma 90.000000
_cell_volume 8239.247637
_symmetry_space_group_name_H-M "F M M M"
_symmetry_group_IT_number 69
_symmetry_cell_setting 'orthorhombic'
loop_
_space_group_symop_operation_xyz
x,y,z
-x,-y,z
x,-y,-z
-x,y,-z
-x,-y,-z
x,y,-z
-x,y,z
x,-y,z
x,1/2+y,1/2+z
-x,1/2-y,1/2+z
x,1/2-y,1/2-z
-x,1/2+y,1/2-z
-x,1/2-y,1/2-z
x,1/2+y,1/2-z
-x,1/2+y,1/2+z
x,1/2-y,1/2+z
1/2+x,y,1/2+z
1/2-x,-y,1/2+z
1/2+x,-y,1/2-z
1/2-x,y,1/2-z
1/2-x,-y,1/2-z
1/2+x,y,1/2-z
1/2-x,y,1/2+z
1/2+x,-y,1/2+z
1/2+x,1/2+y,z
1/2-x,1/2-y,z
1/2+x,1/2-y,-z
1/2-x,1/2+y,-z
1/2-x,1/2-y,-z
1/2+x,1/2+y,-z
1/2-x,1/2+y,z
1/2+x,1/2-y,z
loop_
_atom_site_type_symbol
_atom_site_label
_atom_site_fract_x
_atom_site_fract_y
_atom_site_fract_z
Si Si1 0.309930 0.064701 0.882791
Si Si2 0.911600 0.258065 0.672571
Si Si3 0.694112 0.358372 0.811634
Si Si4 0.087665 0.660009 0.928919
Si Si5 0.085266 0.937422 0.258264
O O1 0.233156 0.100754 0.865370
O O2 0.359571 0.102779 0.932645
O O3 0.358963 0.057378 0.818522
O O4 0.290542 0.000000 0.910138
O O5 0.907407 0.250000 0.750000
O O6 0.842344 0.301937 0.654043
O O7 0.888043 0.200910 0.631637
O O8 0.000000 0.276227 0.652840
O O9 0.750000 0.343897 0.750000
O O10 0.616130 0.390152 0.790485
O O11 0.000000 0.639704 0.918461
O O12 0.096596 0.690859 0.000000
O O13 0.000000 0.918049 0.281248
O O14 0.082756 0.000000 0.223532
#
# Coordination Sequence:
#
# PCOD8284157 Si02
#       5
#    32  32  32  32  32
#     4  10  20  33  50  74 105 140 178 219 265 318
#     4  10  20  35  56  80 106 141 185 228 269 318
#     4  10  19  30  48  75 109 141 174 218 269 318
#     4  10  22  39  57  78 105 137 176 222 268 316
#     4   9  16  27  46  73 105 140 178 220 265 313
#
# _framework density 19.419248
#
# number of rings (size 3 to 8) (size 9 to 14) (size 15 to 20)
#    0.000    2.200    0.000    4.200    0.000    8.400 
#    0.000    3.000    0.000    0.000    0.000    0.000 
#    0.000    0.000    0.000   18.000    0.000    6.000 
#
# Total GULP energy -495545.558404 kJ/mol
# GULP energy per Si atom -12388.638960 kJ/mol
# Density = 1.937505 g / cm^3
# Si number density = 19.419248 Si / 1000 Ang^3
#
#
#
# Elastic Constant Matrix: (Units=GPa)
#
#
# Indices 1 2 3 4 5 6 
#
# 1 87.4656 58.7719 9.6602 0.0000 0.0000 0.0000
# 2 58.7719 117.2594 40.1142 0.0000 0.0000 0.0000
# 3 9.6602 40.1142 72.5596 0.0000 0.0000 0.0000
# 4 0.0000 0.0000 0.0000 -11.8315 0.0000 0.0000
# 5 0.0000 0.0000 0.0000 0.0000 14.1297 0.0000
# 6 0.0000 0.0000 0.0000 0.0000 0.0000 32.9235
#
#
#
# Elastic Compliance Matrix: (Units=1/GPa)
#
#
# Indices 1 2 3 4 5 6 
#
# 1 0.017808 -0.010007 0.003162 0.000000 0.000000 0.000000
# 2 -0.010007 0.016141 -0.007591 0.000000 0.000000 0.000000
# 3 0.003162 -0.007591 0.017558 0.000000 0.000000 0.000000
# 4 0.000000 0.000000 0.000000 -0.084520 0.000000 0.000000
# 5 0.000000 0.000000 0.000000 0.000000 0.070773 0.000000
# 6 0.000000 0.000000 0.000000 0.000000 0.000000 0.030373
#
#
# Mechanical properties :
#
#
# Convention : Reuss Voigt Hill
#
# Bulk Modulus (GPa) = 44.18316 54.93081 49.55699
# Shear Modulus (GPa) = 47.82386 18.29357 33.05871
#
# Velocity S-wave (km/s) = 4.96795 3.07258 4.13045
# Velocity P-wave (km/s) = 7.46385 6.39812 6.95143
#
# Compressibility (1/GPa) = 0.02263306
#
# Stress axis : x y z
#
# Youngs Moduli (GPa) = 56.15385 61.95498 56.95568
#
# Poissons Ratio (x) = 0.62000 -0.18007
# Poissons Ratio (y) = 0.56195 0.43235
# Poissons Ratio (z) = -0.17754 0.47030
#
# Static dielectric constant tensor:
#      x y z
#    x 3.706450 0.000000 0.000000 
#    y 0.000000 3.957560 0.000000 
#    z 0.000000 0.000000 3.178340 
# 
# 
# High freq. dielectric constant tensor:
#      x y z
#    x 1.763660 0.000000 0.000000 
#    y 0.000000 1.762500 0.000000 
#    z 0.000000 0.000000 1.705210 
# 
# From -- ./inp_files/24576.got.cif
#   From: 2010.03.12/outbox.cif.g09.slc.cpg/sg69_13_cif.got.tgz:24576.got - 2010.04.10 23:52:46.
