data_PCOD8284159
_publ_section_title
;
Structure prediction by ZEFSAII (Michael W. Deem and Ramdas Pophale) SiO2 
 PCOD8284159
Probable space group: F M M M
;
_chemical_formula_sum "Si O2"
_cell_formula_units_Z 160
_cell_length_a 15.123614
_cell_length_b 20.161696
_cell_length_c 28.585265
_cell_angle_alpha 90.000000
_cell_angle_beta 90.000000
_cell_angle_gamma 90.000000
_cell_volume 8716.153483
_symmetry_space_group_name_H-M "F M M M"
_symmetry_group_IT_number 69
_symmetry_cell_setting 'orthorhombic'
loop_
_space_group_symop_operation_xyz
x,y,z
-x,-y,z
x,-y,-z
-x,y,-z
-x,-y,-z
x,y,-z
-x,y,z
x,-y,z
x,1/2+y,1/2+z
-x,1/2-y,1/2+z
x,1/2-y,1/2-z
-x,1/2+y,1/2-z
-x,1/2-y,1/2-z
x,1/2+y,1/2-z
-x,1/2+y,1/2+z
x,1/2-y,1/2+z
1/2+x,y,1/2+z
1/2-x,-y,1/2+z
1/2+x,-y,1/2-z
1/2-x,y,1/2-z
1/2-x,-y,1/2-z
1/2+x,y,1/2-z
1/2-x,y,1/2+z
1/2+x,-y,1/2+z
1/2+x,1/2+y,z
1/2-x,1/2-y,z
1/2+x,1/2-y,-z
1/2-x,1/2+y,-z
1/2-x,1/2-y,-z
1/2+x,1/2+y,-z
1/2-x,1/2+y,z
1/2+x,1/2-y,z
loop_
_atom_site_type_symbol
_atom_site_label
_atom_site_fract_x
_atom_site_fract_y
_atom_site_fract_z
Si Si1 0.262433 0.172001 0.551635
Si Si2 0.898810 0.808441 0.128393
Si Si3 0.100733 0.427529 0.197591
Si Si4 0.101275 0.153759 0.390129
Si Si5 0.849724 0.180592 0.233171
O O1 0.286235 0.143967 0.500000
O O2 0.250000 0.250000 0.548907
O O3 0.341921 0.155819 0.587665
O O4 0.168791 0.139737 0.567378
O O5 0.892454 0.729639 0.125435
O O6 0.857760 0.829452 0.177885
O O7 0.000000 0.832632 0.123858
O O8 0.147124 0.500000 0.204419
O O9 0.139917 0.389009 0.152939
O O10 0.105433 0.383460 0.244091
O O11 0.000000 0.439974 0.185612
O O12 0.000000 0.136174 0.404739
O O13 0.895430 0.250000 0.250000
O O14 0.750000 0.181711 0.250000
#
# Coordination Sequence:
#
# PCOD8284159 Si02
#       5
#    32  32  32  32  32
#     4   9  18  31  48  71 100 129 164 216 268 310
#     4  10  19  30  49  74 101 135 175 211 254 314
#     4  10  20  33  49  72 105 140 173 214 261 311
#     4   9  17  30  49  72 100 135 172 208 256 315
#     4  11  21  31  51  75 102 140 176 218 262 312
#
# _framework density 18.356719999999999
#
# number of rings (size 3 to 8) (size 9 to 14) (size 15 to 20)
#    0.000    2.200    2.000    1.800    5.600    2.000 
#    0.000    4.000    0.000    0.600    0.000    2.800 
#    0.000    0.000    0.000    8.600    0.000    2.600 
#
# Total GULP energy -495738.222712 kJ/mol
# GULP energy per Si atom -12393.455568 kJ/mol
# Density = 1.831494 g / cm^3
# Si number density = 18.356720 Si / 1000 Ang^3
#
#
#
# Elastic Constant Matrix: (Units=GPa)
#
#
# Indices 1 2 3 4 5 6 
#
# 1 109.5659 21.8197 71.2590 0.0000 0.0000 0.0000
# 2 21.8197 63.5898 32.6704 0.0000 0.0000 0.0000
# 3 71.2590 32.6704 177.8195 0.0000 0.0000 0.0000
# 4 0.0000 0.0000 0.0000 8.4707 0.0000 0.0000
# 5 0.0000 0.0000 0.0000 0.0000 25.1727 0.0000
# 6 0.0000 0.0000 0.0000 0.0000 0.0000 10.8616
#
#
#
# Elastic Compliance Matrix: (Units=1/GPa)
#
#
# Indices 1 2 3 4 5 6 
#
# 1 0.012549 -0.001902 -0.004679 0.000000 0.000000 0.000000
# 2 -0.001902 0.017653 -0.002481 0.000000 0.000000 0.000000
# 3 -0.004679 -0.002481 0.007955 0.000000 0.000000 0.000000
# 4 0.000000 0.000000 0.000000 0.118054 0.000000 0.000000
# 5 0.000000 0.000000 0.000000 0.000000 0.039726 0.000000
# 6 0.000000 0.000000 0.000000 0.000000 0.000000 0.092067
#
#
# Mechanical properties :
#
#
# Convention : Reuss Voigt Hill
#
# Bulk Modulus (GPa) = 49.92030 66.94150 58.43090
# Shear Modulus (GPa) = 15.98431 23.91606 19.95019
#
# Velocity S-wave (km/s) = 2.95407 3.61342 3.30025
# Velocity P-wave (km/s) = 6.23610 7.34542 6.81338
#
# Compressibility (1/GPa) = 0.02003193
#
# Stress axis : x y z
#
# Youngs Moduli (GPa) = 79.68708 56.64715 125.71032
#
# Poissons Ratio (x) = 0.10773 0.58826
# Poissons Ratio (y) = 0.15155 0.31192
# Poissons Ratio (z) = 0.37289 0.14056
#
# Static dielectric constant tensor:
#      x y z
#    x 3.706010 0.000000 0.000000 
#    y 0.000000 3.463310 0.000000 
#    z 0.000000 0.000000 3.579770 
# 
# 
# High freq. dielectric constant tensor:
#      x y z
#    x 1.711940 0.000000 0.000000 
#    y 0.000000 1.664580 0.000000 
#    z 0.000000 0.000000 1.709930 
# 
# From -- ./inp_files/17998.got.cif
#   From: 2010.03.12/outbox.cif.g09.slc.cpg/sg69_9_cif.got.tgz:17998.got - 2010.04.10 23:52:46.
