data_PCOD8284846
_publ_section_title
;
Structure prediction by ZEFSAII (Michael W. Deem and Ramdas Pophale) SiO2 
 PCOD8284846
Probable space group: F M M M
;
_chemical_formula_sum "Si O2"
_cell_formula_units_Z 120
_cell_length_a 13.109246
_cell_length_b 35.773181
_cell_length_c 13.350950
_cell_angle_alpha 90.000000
_cell_angle_beta 90.000000
_cell_angle_gamma 90.000000
_cell_volume 6261.053901
_symmetry_space_group_name_H-M "F M M M"
_symmetry_group_IT_number 69
_symmetry_cell_setting 'orthorhombic'
loop_
_space_group_symop_operation_xyz
x,y,z
-x,-y,z
x,-y,-z
-x,y,-z
-x,-y,-z
x,y,-z
-x,y,z
x,-y,z
x,1/2+y,1/2+z
-x,1/2-y,1/2+z
x,1/2-y,1/2-z
-x,1/2+y,1/2-z
-x,1/2-y,1/2-z
x,1/2+y,1/2-z
-x,1/2+y,1/2+z
x,1/2-y,1/2+z
1/2+x,y,1/2+z
1/2-x,-y,1/2+z
1/2+x,-y,1/2-z
1/2-x,y,1/2-z
1/2-x,-y,1/2-z
1/2+x,y,1/2-z
1/2-x,y,1/2+z
1/2+x,-y,1/2+z
1/2+x,1/2+y,z
1/2-x,1/2-y,z
1/2+x,1/2-y,-z
1/2-x,1/2+y,-z
1/2-x,1/2-y,-z
1/2+x,1/2+y,-z
1/2-x,1/2+y,z
1/2+x,1/2-y,z
loop_
_atom_site_type_symbol
_atom_site_label
_atom_site_fract_x
_atom_site_fract_y
_atom_site_fract_z
Si Si1 0.750000 0.750000 0.250000
Si Si2 0.879594 0.000000 0.111843
Si Si3 0.883761 0.078633 0.194752
Si Si4 0.192204 0.112847 0.386434
Si Si5 0.118081 0.304395 0.884023
O O1 0.822551 0.725536 0.180847
O O2 0.844417 0.036800 0.171508
O O3 0.000000 0.000000 0.103103
O O4 0.831481 0.000000 0.000000
O O5 0.871611 0.085565 0.313547
O O6 0.813226 0.107528 0.132993
O O7 0.000000 0.084932 0.160409
O O8 0.162871 0.102533 0.500000
O O9 0.165358 0.155279 0.361572
O O10 0.000000 0.304733 0.852090
O O11 0.130553 0.293654 0.000000
#
# Coordination Sequence:
#
# PCOD8284846 Si02
#       5
#     8  16  32  32  32
#     4  12  20  36  64  88 104 138 192 224 248 312
#     4   9  18  33  53  77 108 143 177 224 283 323
#     4  10  20  35  55  79 106 141 185 226 267 321
#     4  10  21  36  55  80 109 142 178 219 270 323
#     4  10  22  39  57  81 115 147 174 216 274 322
#
# _framework density 19.166101000000001
#
# number of rings (size 3 to 8) (size 9 to 14) (size 15 to 20)
#    0.000    2.000    0.000    4.000    0.000    5.333 
#    0.000    3.333    0.000    5.600    0.000    0.000 
#    0.000    0.000    0.000    0.000    0.000    0.000 
#
# Total GULP energy -371992.305920 kJ/mol
# GULP energy per Si atom -12399.743531 kJ/mol
# Density = 1.912248 g / cm^3
# Si number density = 19.166101 Si / 1000 Ang^3
#
#
#
# Elastic Constant Matrix: (Units=GPa)
#
#
# Indices 1 2 3 4 5 6 
#
# 1 132.4271 80.1298 36.0565 0.0000 0.0000 0.0000
# 2 80.1298 149.1316 92.7498 0.0000 0.0000 0.0000
# 3 36.0565 92.7498 128.5017 0.0000 0.0000 0.0000
# 4 0.0000 0.0000 0.0000 70.1551 0.0000 0.0000
# 5 0.0000 0.0000 0.0000 0.0000 26.9092 0.0000
# 6 0.0000 0.0000 0.0000 0.0000 0.0000 28.5024
#
#
#
# Elastic Compliance Matrix: (Units=1/GPa)
#
#
# Indices 1 2 3 4 5 6 
#
# 1 0.011535 -0.007594 0.002244 0.000000 0.000000 0.000000
# 2 -0.007594 0.017167 -0.010260 0.000000 0.000000 0.000000
# 3 0.002244 -0.010260 0.014557 0.000000 0.000000 0.000000
# 4 0.000000 0.000000 0.000000 0.014254 0.000000 0.000000
# 5 0.000000 0.000000 0.000000 0.000000 0.037162 0.000000
# 6 0.000000 0.000000 0.000000 0.000000 0.000000 0.035085
#
#
# Mechanical properties :
#
#
# Convention : Reuss Voigt Hill
#
# Bulk Modulus (GPa) = 83.05001 91.99251 87.52126
# Shear Modulus (GPa) = 30.30452 38.52164 34.41308
#
# Velocity S-wave (km/s) = 3.98068 4.48804 4.24195
# Velocity P-wave (km/s) = 8.03452 8.65785 8.35200
#
# Compressibility (1/GPa) = 0.01204094
#
# Stress axis : x y z
#
# Youngs Moduli (GPa) = 86.69166 58.25285 68.69328
#
# Poissons Ratio (x) = 0.44236 -0.15417
# Poissons Ratio (y) = 0.65832 0.70477
# Poissons Ratio (z) = -0.19457 0.59766
#
# Static dielectric constant tensor:
#      x y z
#    x 3.525790 0.000000 0.000000 
#    y 0.000000 3.540900 0.000000 
#    z 0.000000 0.000000 3.639660 
# 
# 
# High freq. dielectric constant tensor:
#      x y z
#    x 1.746220 0.000000 0.000000 
#    y 0.000000 1.744010 0.000000 
#    z 0.000000 0.000000 1.752600 
# 
# From -- ./inp_files/14435.got.cif
#   From: 2010.03.12/outbox.cif.g09.slc.cpg/sg69_8_cif.got.tgz:14435.got - 2010.04.10 23:52:46.
