data_PCOD8284221
_publ_section_title
;
Structure prediction by ZEFSAII (Michael W. Deem and Ramdas Pophale) SiO2 
 PCOD8284221
Probable space group: F M M M
;
_chemical_formula_sum "Si O2"
_cell_formula_units_Z 128
_cell_length_a 7.913680
_cell_length_b 25.216149
_cell_length_c 37.109836
_cell_angle_alpha 90.000000
_cell_angle_beta 90.000000
_cell_angle_gamma 90.000000
_cell_volume 7405.361811
_symmetry_space_group_name_H-M "F M M M"
_symmetry_group_IT_number 69
_symmetry_cell_setting 'orthorhombic'
loop_
_space_group_symop_operation_xyz
x,y,z
-x,-y,z
x,-y,-z
-x,y,-z
-x,-y,-z
x,y,-z
-x,y,z
x,-y,z
x,1/2+y,1/2+z
-x,1/2-y,1/2+z
x,1/2-y,1/2-z
-x,1/2+y,1/2-z
-x,1/2-y,1/2-z
x,1/2+y,1/2-z
-x,1/2+y,1/2+z
x,1/2-y,1/2+z
1/2+x,y,1/2+z
1/2-x,-y,1/2+z
1/2+x,-y,1/2-z
1/2-x,y,1/2-z
1/2-x,-y,1/2-z
1/2+x,y,1/2-z
1/2-x,y,1/2+z
1/2+x,-y,1/2+z
1/2+x,1/2+y,z
1/2-x,1/2-y,z
1/2+x,1/2-y,-z
1/2-x,1/2+y,-z
1/2-x,1/2-y,-z
1/2+x,1/2+y,-z
1/2-x,1/2+y,z
1/2+x,1/2-y,z
loop_
_atom_site_type_symbol
_atom_site_label
_atom_site_fract_x
_atom_site_fract_y
_atom_site_fract_z
Si Si1 0.500000 0.937096 0.459785
Si Si2 0.810286 0.438386 0.911480
Si Si3 0.301310 0.000000 0.708979
Si Si4 0.697456 0.809939 0.209995
Si Si5 0.805780 0.596730 0.662482
O O1 0.500000 0.912725 0.500000
O O2 0.670745 0.917426 0.439841
O O3 0.500000 0.000000 0.461958
O O4 0.775822 0.500000 0.902394
O O5 0.796144 0.404843 0.874811
O O6 0.000000 0.430427 0.927317
O O7 0.250000 0.000000 0.750000
O O8 0.229101 0.947567 0.689454
O O9 0.500000 0.000000 0.706381
O O10 0.500000 0.817154 0.205432
O O11 0.750000 0.827741 0.250000
O O12 0.750000 0.750000 0.202343
O O13 0.790373 0.845979 0.180711
O O14 0.000000 0.584542 0.653432
#
# Coordination Sequence:
#
# PCOD8284221 Si02
#       5
#    16  32  16  32  32
#     4   9  18  32  50  72 106 141 172 212 252 308
#     4  10  19  31  50  75 103 140 178 210 259 311
#     4  10  22  32  46  68  98 133 174 215 259 307
#     4  11  22  37  53  72  96 133 178 225 276 320
#     4  11  20  34  52  72 101 139 173 219 266 311
#
# _framework density 17.284773999999999
#
# number of rings (size 3 to 8) (size 9 to 14) (size 15 to 20)
#    0.000    1.625    2.500    4.500    0.000    4.500 
#    0.000    2.500    0.000    0.000    0.000    0.000 
#    0.000    1.000    0.500    0.000    0.000    0.000 
#
# Total GULP energy -396864.467429 kJ/mol
# GULP energy per Si atom -12402.014607 kJ/mol
# Density = 1.724543 g / cm^3
# Si number density = 17.284774 Si / 1000 Ang^3
#
#
#
# Elastic Constant Matrix: (Units=GPa)
#
#
# Indices 1 2 3 4 5 6 
#
# 1 105.3425 16.0329 44.8842 0.0000 0.0000 0.0000
# 2 16.0329 54.3235 37.7201 0.0000 0.0000 0.0000
# 3 44.8842 37.7201 130.7526 0.0000 0.0000 0.0000
# 4 0.0000 0.0000 0.0000 12.0458 0.0000 0.0000
# 5 0.0000 0.0000 0.0000 0.0000 23.8747 0.0000
# 6 0.0000 0.0000 0.0000 0.0000 0.0000 19.5241
#
#
#
# Elastic Compliance Matrix: (Units=1/GPa)
#
#
# Indices 1 2 3 4 5 6 
#
# 1 0.011146 -0.000791 -0.003598 0.000000 0.000000 0.000000
# 2 -0.000791 0.023075 -0.006385 0.000000 0.000000 0.000000
# 3 -0.003598 -0.006385 0.010725 0.000000 0.000000 0.000000
# 4 0.000000 0.000000 0.000000 0.083016 0.000000 0.000000
# 5 0.000000 0.000000 0.000000 0.000000 0.041885 0.000000
# 6 0.000000 0.000000 0.000000 0.000000 0.000000 0.051219
#
#
# Mechanical properties :
#
#
# Convention : Reuss Voigt Hill
#
# Bulk Modulus (GPa) = 42.73919 54.18811 48.46365
# Shear Modulus (GPa) = 19.96678 23.87435 21.92057
#
# Velocity S-wave (km/s) = 3.40246 3.72053 3.56504
# Velocity P-wave (km/s) = 6.34159 7.06220 6.71158
#
# Compressibility (1/GPa) = 0.02339773
#
# Stress axis : x y z
#
# Youngs Moduli (GPa) = 89.71587 43.33605 93.23876
#
# Poissons Ratio (x) = 0.03430 0.33547
# Poissons Ratio (y) = 0.07100 0.59535
# Poissons Ratio (z) = 0.32279 0.27671
#
# Static dielectric constant tensor:
#      x y z
#    x 3.364690 0.000000 0.000000 
#    y 0.000000 2.810930 0.000000 
#    z 0.000000 0.000000 3.039490 
# 
# 
# High freq. dielectric constant tensor:
#      x y z
#    x 1.685580 0.000000 0.000000 
#    y 0.000000 1.628210 0.000000 
#    z 0.000000 0.000000 1.653320 
# 
# From -- ./inp_files/4773.got.cif
#   From: 2010.03.12/outbox.cif.g09.slc.cpg/sg69_3_cif.got.tgz:4773.got - 2010.04.10 23:52:46.
