data_PCOD8284708
_publ_section_title
;
Structure prediction by ZEFSAII (Michael W. Deem and Ramdas Pophale) SiO2 
 PCOD8284708
Probable space group: F M M M
;
_chemical_formula_sum "Si O2"
_cell_formula_units_Z 144
_cell_length_a 27.166624
_cell_length_b 17.142585
_cell_length_c 18.820919
_cell_angle_alpha 90.000000
_cell_angle_beta 90.000000
_cell_angle_gamma 90.000000
_cell_volume 8765.017936
_symmetry_space_group_name_H-M "F M M M"
_symmetry_group_IT_number 69
_symmetry_cell_setting 'orthorhombic'
loop_
_space_group_symop_operation_xyz
x,y,z
-x,-y,z
x,-y,-z
-x,y,-z
-x,-y,-z
x,y,-z
-x,y,z
x,-y,z
x,1/2+y,1/2+z
-x,1/2-y,1/2+z
x,1/2-y,1/2-z
-x,1/2+y,1/2-z
-x,1/2-y,1/2-z
x,1/2+y,1/2-z
-x,1/2+y,1/2+z
x,1/2-y,1/2+z
1/2+x,y,1/2+z
1/2-x,-y,1/2+z
1/2+x,-y,1/2-z
1/2-x,y,1/2-z
1/2-x,-y,1/2-z
1/2+x,y,1/2-z
1/2-x,y,1/2+z
1/2+x,-y,1/2+z
1/2+x,1/2+y,z
1/2-x,1/2-y,z
1/2+x,1/2-y,-z
1/2-x,1/2+y,-z
1/2-x,1/2-y,-z
1/2+x,1/2+y,-z
1/2-x,1/2+y,z
1/2+x,1/2-y,z
loop_
_atom_site_type_symbol
_atom_site_label
_atom_site_fract_x
_atom_site_fract_y
_atom_site_fract_z
Si Si1 0.720542 0.409827 0.821438
Si Si2 0.286051 0.822429 0.078953
Si Si3 0.553001 0.500000 0.916828
Si Si4 0.142994 0.273225 0.670236
Si Si5 0.058058 0.331822 0.582305
O O1 0.703298 0.500000 0.820845
O O2 0.750000 0.387245 0.750000
O O3 0.757669 0.396135 0.887214
O O4 0.673472 0.353990 0.831157
O O5 0.250000 0.750000 0.073022
O O6 0.330201 0.797758 0.130441
O O7 0.305023 0.845447 0.000000
O O8 0.500000 0.500000 0.878126
O O9 0.579335 0.581331 0.897914
O O10 0.542920 0.500000 0.000000
O O11 0.132145 0.250000 0.750000
O O12 0.090124 0.276677 0.631848
O O13 0.068287 0.312053 0.500000
O O14 0.000000 0.323628 0.599010
#
# Coordination Sequence:
#
# PCOD8284708 Si02
#       5
#    32  32  16  32  32
#     4  10  20  34  51  71  97 130 167 206 250 297
#     4   9  18  32  49  69  96 129 163 200 242 290
#     4   7  12  26  46  66  91 122 149 187 246 293
#     4  11  20  31  51  73  98 135 167 203 245 299
#     4   9  18  32  49  71 101 130 160 204 251 296
#
# _framework density 16.428946
#
# number of rings (size 3 to 8) (size 9 to 14) (size 15 to 20)
#    0.000    2.556    2.222    2.000    1.556    1.778 
#    0.000    0.000    0.000    0.000    0.000    0.000 
#    0.000    0.000    0.000    7.556    0.000    0.000 
#
# Total GULP energy -446006.277340 kJ/mol
# GULP energy per Si atom -12389.063259 kJ/mol
# Density = 1.639155 g / cm^3
# Si number density = 16.428946 Si / 1000 Ang^3
#
#
#
# Elastic Constant Matrix: (Units=GPa)
#
#
# Indices 1 2 3 4 5 6 
#
# 1 84.1078 29.5355 50.4626 0.0000 0.0000 0.0000
# 2 29.5355 49.6724 25.5698 0.0000 0.0000 0.0000
# 3 50.4626 25.5698 119.6592 0.0000 0.0000 0.0000
# 4 0.0000 0.0000 0.0000 19.7094 0.0000 0.0000
# 5 0.0000 0.0000 0.0000 0.0000 28.8939 0.0000
# 6 0.0000 0.0000 0.0000 0.0000 0.0000 316.6970
#
#
#
# Elastic Compliance Matrix: (Units=1/GPa)
#
#
# Indices 1 2 3 4 5 6 
#
# 1 0.018224 -0.007730 -0.006034 0.000000 0.000000 0.000000
# 2 -0.007730 0.025899 -0.002274 0.000000 0.000000 0.000000
# 3 -0.006034 -0.002274 0.011388 0.000000 0.000000 0.000000
# 4 0.000000 0.000000 0.000000 0.050737 0.000000 0.000000
# 5 0.000000 0.000000 0.000000 0.000000 0.034609 0.000000
# 6 0.000000 0.000000 0.000000 0.000000 0.000000 0.003158
#
#
# Mechanical properties :
#
#
# Convention : Reuss Voigt Hill
#
# Bulk Modulus (GPa) = 42.67232 51.61944 47.14588
# Shear Modulus (GPa) = 27.18830 82.91816 55.05323
#
# Velocity S-wave (km/s) = 4.07246 7.11199 5.79505
# Velocity P-wave (km/s) = 6.93855 9.94628 8.57531
#
# Compressibility (1/GPa) = 0.02343440
#
# Stress axis : x y z
#
# Youngs Moduli (GPa) = 54.87246 38.61136 87.81529
#
# Poissons Ratio (x) = 0.29848 0.52984
# Poissons Ratio (y) = 0.42418 0.19972
# Poissons Ratio (z) = 0.33108 0.08782
#
# Static dielectric constant tensor:
#      x y z
#    x 2.876860 0.000000 0.000000 
#    y 0.000000 3.037150 0.000000 
#    z 0.000000 0.000000 3.165790 
# 
# 
# High freq. dielectric constant tensor:
#      x y z
#    x 1.613870 0.000000 0.000000 
#    y 0.000000 1.612590 0.000000 
#    z 0.000000 0.000000 1.631610 
# 
# From -- ./inp_files/15514.got.cif
#   From: 2010.03.12/outbox.cif.g09.slc.cpg/sg69_8_cif.got.tgz:15514.got - 2010.04.10 23:52:46.
