data_PCOD8284371
_publ_section_title
;
Structure prediction by ZEFSAII (Michael W. Deem and Ramdas Pophale) SiO2 
 PCOD8284371
Probable space group: F M M M
;
_chemical_formula_sum "Si O2"
_cell_formula_units_Z 160
_cell_length_a 14.468581
_cell_length_b 31.101311
_cell_length_c 18.471938
_cell_angle_alpha 90.000000
_cell_angle_beta 90.000000
_cell_angle_gamma 90.000000
_cell_volume 8312.221321
_symmetry_space_group_name_H-M "F M M M"
_symmetry_group_IT_number 69
_symmetry_cell_setting 'orthorhombic'
loop_
_space_group_symop_operation_xyz
x,y,z
-x,-y,z
x,-y,-z
-x,y,-z
-x,-y,-z
x,y,-z
-x,y,z
x,-y,z
x,1/2+y,1/2+z
-x,1/2-y,1/2+z
x,1/2-y,1/2-z
-x,1/2+y,1/2-z
-x,1/2-y,1/2-z
x,1/2+y,1/2-z
-x,1/2+y,1/2+z
x,1/2-y,1/2+z
1/2+x,y,1/2+z
1/2-x,-y,1/2+z
1/2+x,-y,1/2-z
1/2-x,y,1/2-z
1/2-x,-y,1/2-z
1/2+x,y,1/2-z
1/2-x,y,1/2+z
1/2+x,-y,1/2+z
1/2+x,1/2+y,z
1/2-x,1/2-y,z
1/2+x,1/2-y,-z
1/2-x,1/2+y,-z
1/2-x,1/2-y,-z
1/2+x,1/2+y,-z
1/2-x,1/2+y,z
1/2+x,1/2-y,z
loop_
_atom_site_type_symbol
_atom_site_label
_atom_site_fract_x
_atom_site_fract_y
_atom_site_fract_z
Si Si1 0.500000 0.164518 0.157187
Si Si2 0.698461 0.048604 0.175488
Si Si3 0.864907 0.828552 0.081590
Si Si4 0.000000 0.753257 0.082021
Si Si5 0.319656 0.371770 0.583340
Si Si6 0.000000 0.546623 0.764723
Si Si7 0.500000 0.130445 0.315113
O O1 0.500000 0.214647 0.138351
O O2 0.589990 0.141458 0.126497
O O3 0.500000 0.159798 0.243407
O O4 0.750000 0.060306 0.250000
O O5 0.724372 0.084012 0.115040
O O6 0.588521 0.052197 0.184575
O O7 0.726034 0.000000 0.150726
O O8 0.906618 0.780993 0.095914
O O9 0.754354 0.832547 0.091159
O O10 0.908962 0.861010 0.138525
O O11 0.892611 0.842319 0.000000
O O12 0.000000 0.734918 0.000000
O O13 0.345253 0.379596 0.500000
O O14 0.000000 0.580181 0.700154
O O15 0.000000 0.500000 0.726822
#
# Coordination Sequence:
#
# PCOD8284371 Si02
#       7
#    16  32  32  16  32  16  16
#     4  12  24  34  58  88 114 152 188 238 282 327
#     4  10  20  35  56  81 112 148 189 230 278 337
#     4   9  21  38  60  81 108 152 190 233 289 343
#     4   9  19  40  59  81 115 148 190 234 285 344
#     4  11  22  37  56  84 117 150 190 229 282 343
#     4  10  19  33  53  82 112 148 187 221 279 336
#     4  11  19  36  61  83 113 144 189 245 275 335
#
# _framework density 19.248766
#
# number of rings (size 3 to 8) (size 9 to 14) (size 15 to 20)
#    0.000    1.800    2.000    3.000    0.000    2.800 
#    0.000    3.000    0.000   10.200    0.000    0.000 
#    0.000    0.000    0.000    0.000    0.000    0.000 
#
# Total GULP energy -495857.113090 kJ/mol
# GULP energy per Si atom -12396.427827 kJ/mol
# Density = 1.920495 g / cm^3
# Si number density = 19.248766 Si / 1000 Ang^3
#
#
#
# Elastic Constant Matrix: (Units=GPa)
#
#
# Indices 1 2 3 4 5 6 
#
# 1 92.4503 24.9976 32.8915 0.0000 0.0000 0.0000
# 2 24.9976 132.9770 55.0000 0.0000 0.0000 0.0000
# 3 32.8915 55.0000 105.8103 0.0000 0.0000 0.0000
# 4 0.0000 0.0000 0.0000 18.0294 0.0000 0.0000
# 5 0.0000 0.0000 0.0000 0.0000 -309.7569 0.0000
# 6 0.0000 0.0000 0.0000 0.0000 0.0000 21.2940
#
#
#
# Elastic Compliance Matrix: (Units=1/GPa)
#
#
# Indices 1 2 3 4 5 6 
#
# 1 0.012251 -0.000927 -0.003326 0.000000 0.000000 0.000000
# 2 -0.000927 0.009650 -0.004728 0.000000 0.000000 0.000000
# 3 -0.003326 -0.004728 0.012942 0.000000 0.000000 0.000000
# 4 0.000000 0.000000 0.000000 0.055465 0.000000 0.000000
# 5 0.000000 0.000000 0.000000 0.000000 -0.003228 0.000000
# 6 0.000000 0.000000 0.000000 0.000000 0.000000 0.046961
#
#
# Mechanical properties :
#
#
# Convention : Reuss Voigt Hill
#
# Bulk Modulus (GPa) = 59.23986 61.89066 60.56526
# Shear Modulus (GPa) = 31.71984 -39.53013 -3.90515
#
# Velocity S-wave (km/s) = 4.06382 -4.53663 -1.42590
# Velocity P-wave (km/s) = 7.27065 2.18666 5.36860
#
# Compressibility (1/GPa) = 0.01688053
#
# Stress axis : x y z
#
# Youngs Moduli (GPa) = 81.62791 103.62891 77.26594
#
# Poissons Ratio (x) = 0.09608 0.25700
# Poissons Ratio (y) = 0.07568 0.36529
# Poissons Ratio (z) = 0.27151 0.48993
#
# Static dielectric constant tensor:
#      x y z
#    x 3.687670 0.000000 0.000000 
#    y 0.000000 3.643170 0.000000 
#    z 0.000000 0.000000 3.455920 
# 
# 
# High freq. dielectric constant tensor:
#      x y z
#    x 1.757340 0.000000 0.000000 
#    y 0.000000 1.748620 0.000000 
#    z 0.000000 0.000000 1.738750 
# 
# From -- ./inp_files/21912.got.cif
#   From: 2010.03.12/outbox.cif.g09.slc.cpg/sg69_11_cif.got.tgz:21912.got - 2010.04.10 23:52:46.
