data_PCOD8284745
_publ_section_title
;
Structure prediction by ZEFSAII (Michael W. Deem and Ramdas Pophale) SiO2 
 PCOD8284745
Probable space group: F M M M
;
_chemical_formula_sum "Si O2"
_cell_formula_units_Z 176
_cell_length_a 14.786015
_cell_length_b 33.336621
_cell_length_c 18.826809
_cell_angle_alpha 90.000000
_cell_angle_beta 90.000000
_cell_angle_gamma 90.000000
_cell_volume 9280.031208
_symmetry_space_group_name_H-M "F M M M"
_symmetry_group_IT_number 69
_symmetry_cell_setting 'orthorhombic'
loop_
_space_group_symop_operation_xyz
x,y,z
-x,-y,z
x,-y,-z
-x,y,-z
-x,-y,-z
x,y,-z
-x,y,z
x,-y,z
x,1/2+y,1/2+z
-x,1/2-y,1/2+z
x,1/2-y,1/2-z
-x,1/2+y,1/2-z
-x,1/2-y,1/2-z
x,1/2+y,1/2-z
-x,1/2+y,1/2+z
x,1/2-y,1/2+z
1/2+x,y,1/2+z
1/2-x,-y,1/2+z
1/2+x,-y,1/2-z
1/2-x,y,1/2-z
1/2-x,-y,1/2-z
1/2+x,y,1/2-z
1/2-x,y,1/2+z
1/2+x,-y,1/2+z
1/2+x,1/2+y,z
1/2-x,1/2-y,z
1/2+x,1/2-y,-z
1/2-x,1/2+y,-z
1/2-x,1/2-y,-z
1/2+x,1/2+y,-z
1/2-x,1/2+y,z
1/2+x,1/2-y,z
loop_
_atom_site_type_symbol
_atom_site_label
_atom_site_fract_x
_atom_site_fract_y
_atom_site_fract_z
Si Si1 0.265738 0.373367 0.079761
Si Si2 0.106462 0.500000 0.080133
Si Si3 0.894648 0.416740 0.146363
Si Si4 0.600501 0.289391 0.218366
Si Si5 0.106115 0.377375 0.292527
Si Si6 0.818566 0.715624 0.577736
O O1 0.164511 0.386650 0.099437
O O2 0.338504 0.390490 0.137111
O O3 0.262920 0.325522 0.080439
O O4 0.290871 0.388807 0.000000
O O5 0.137208 0.538575 0.125407
O O6 0.000000 0.500000 0.072102
O O7 0.148805 0.500000 0.000000
O O8 0.876581 0.409653 0.230345
O O9 0.000000 0.409082 0.128222
O O10 0.500000 0.288691 0.249704
O O11 0.652862 0.250000 0.250000
O O12 0.641559 0.333507 0.236364
O O13 0.599135 0.285412 0.132939
O O14 0.000000 0.374580 0.312905
O O15 0.860160 0.723489 0.500000
O O16 0.750000 0.750000 0.600640
#
# Coordination Sequence:
#
# PCOD8284745 Si02
#       6
#    32  16  32  32  32  32
#     4  10  20  34  53  76 105 142 182 223 268 323
#     4   9  18  34  57  84 112 144 179 215 270 342
#     4  10  20  35  57  83 112 139 171 221 276 330
#     4   9  18  31  49  71  94 127 174 220 264 312
#     4   9  19  35  53  76 106 140 180 226 269 317
#     4   9  19  33  46  66  97 133 174 215 260 314
#
# _framework density 18.965454000000001
#
# number of rings (size 3 to 8) (size 9 to 14) (size 15 to 20)
#    0.000    2.636    0.000    1.091    2.545    2.182 
#    0.000    5.455    0.000    3.273    0.000    0.000 
#    0.000    5.818    0.000    0.000    0.000    0.000 
#
# Total GULP energy -545146.338908 kJ/mol
# GULP energy per Si atom -12389.689521 kJ/mol
# Density = 1.892229 g / cm^3
# Si number density = 18.965454 Si / 1000 Ang^3
#
#
#
# Elastic Constant Matrix: (Units=GPa)
#
#
# Indices 1 2 3 4 5 6 
#
# 1 57.9883 30.8262 41.5671 0.0000 0.0000 0.0000
# 2 30.8262 84.7446 64.6777 0.0000 0.0000 0.0000
# 3 41.5671 64.6777 138.3883 0.0000 0.0000 0.0000
# 4 0.0000 0.0000 0.0000 31.3170 0.0000 0.0000
# 5 0.0000 0.0000 0.0000 0.0000 27.6274 0.0000
# 6 0.0000 0.0000 0.0000 0.0000 0.0000 15.3775
#
#
#
# Elastic Compliance Matrix: (Units=1/GPa)
#
#
# Indices 1 2 3 4 5 6 
#
# 1 0.023191 -0.004849 -0.004700 0.000000 0.000000 0.000000
# 2 -0.004849 0.019357 -0.007590 0.000000 0.000000 0.000000
# 3 -0.004700 -0.007590 0.012185 0.000000 0.000000 0.000000
# 4 0.000000 0.000000 0.000000 0.031932 0.000000 0.000000
# 5 0.000000 0.000000 0.000000 0.000000 0.036196 0.000000
# 6 0.000000 0.000000 0.000000 0.000000 0.000000 0.065030
#
#
# Mechanical properties :
#
#
# Convention : Reuss Voigt Hill
#
# Bulk Modulus (GPa) = 48.88678 61.69590 55.29134
# Shear Modulus (GPa) = 21.83525 24.46772 23.15148
#
# Velocity S-wave (km/s) = 3.39679 3.59572 3.49767
# Velocity P-wave (km/s) = 6.42004 7.05976 6.74749
#
# Compressibility (1/GPa) = 0.02045543
#
# Stress axis : x y z
#
# Youngs Moduli (GPa) = 43.11945 51.66088 82.06791
#
# Poissons Ratio (x) = 0.25052 0.38568
# Poissons Ratio (y) = 0.20910 0.62291
# Poissons Ratio (z) = 0.20264 0.39212
#
# Static dielectric constant tensor:
#      x y z
#    x 3.230860 0.000000 0.000000 
#    y 0.000000 3.594310 0.000000 
#    z 0.000000 0.000000 3.698080 
# 
# 
# High freq. dielectric constant tensor:
#      x y z
#    x 1.711010 0.000000 0.000000 
#    y 0.000000 1.725510 0.000000 
#    z 0.000000 0.000000 1.744290 
# 
# From -- ./inp_files/23597.got.cif
#   From: 2010.03.12/outbox.cif.g09.slc.cpg/sg69_12_cif.got.tgz:23597.got - 2010.04.10 23:52:46.
