data_PCOD8284450
_publ_section_title
;
Structure prediction by ZEFSAII (Michael W. Deem and Ramdas Pophale) SiO2 
 PCOD8284450
Probable space group: F M M M
;
_chemical_formula_sum "Si O2"
_cell_formula_units_Z 128
_cell_length_a 14.269387
_cell_length_b 28.252709
_cell_length_c 16.742932
_cell_angle_alpha 90.000000
_cell_angle_beta 90.000000
_cell_angle_gamma 90.000000
_cell_volume 6749.893589
_symmetry_space_group_name_H-M "F M M M"
_symmetry_group_IT_number 69
_symmetry_cell_setting 'orthorhombic'
loop_
_space_group_symop_operation_xyz
x,y,z
-x,-y,z
x,-y,-z
-x,y,-z
-x,-y,-z
x,y,-z
-x,y,z
x,-y,z
x,1/2+y,1/2+z
-x,1/2-y,1/2+z
x,1/2-y,1/2-z
-x,1/2+y,1/2-z
-x,1/2-y,1/2-z
x,1/2+y,1/2-z
-x,1/2+y,1/2+z
x,1/2-y,1/2+z
1/2+x,y,1/2+z
1/2-x,-y,1/2+z
1/2+x,-y,1/2-z
1/2-x,y,1/2-z
1/2-x,-y,1/2-z
1/2+x,y,1/2-z
1/2-x,y,1/2+z
1/2+x,-y,1/2+z
1/2+x,1/2+y,z
1/2-x,1/2-y,z
1/2+x,1/2-y,-z
1/2-x,1/2+y,-z
1/2-x,1/2-y,-z
1/2+x,1/2+y,-z
1/2-x,1/2+y,z
1/2+x,1/2-y,z
loop_
_atom_site_type_symbol
_atom_site_label
_atom_site_fract_x
_atom_site_fract_y
_atom_site_fract_z
Si Si1 0.602086 0.000000 0.636687
Si Si2 0.250318 0.675624 0.656200
Si Si3 0.656939 0.000000 0.198207
Si Si4 0.391252 0.750044 0.405604
Si Si5 0.742111 0.428401 0.591720
O O1 0.578760 0.000000 0.732988
O O2 0.658468 0.953343 0.609911
O O3 0.500000 0.000000 0.594922
O O4 0.250000 0.666892 0.750000
O O5 0.343895 0.703579 0.631564
O O6 0.157049 0.703652 0.631108
O O7 0.249513 0.626277 0.611186
O O8 0.750000 0.000000 0.250000
O O9 0.658220 0.046984 0.142641
O O10 0.375882 0.749795 0.500000
O O11 0.500000 0.750341 0.381914
O O12 0.715201 0.435078 0.500000
#
# Coordination Sequence:
#
# PCOD8284450 Si02
#       5
#    16  32  16  32  32
#     4  10  20  34  54  82 112 136 166 216 272 322
#     4  11  21  35  56  80 109 144 182 223 269 322
#     4   8  16  33  52  74 102 133 169 204 250 308
#     4  10  21  37  56  79 108 141 180 227 274 321
#     4  10  19  34  56  77 103 140 178 215 257 313
#
# _framework density 18.963263000000001
#
# number of rings (size 3 to 8) (size 9 to 14) (size 15 to 20)
#    0.000    2.250    0.000    8.250    0.000    4.000 
#    0.000    3.750    0.000    3.000    0.000    0.000 
#    0.000    0.000    0.000    0.000    0.000    0.000 
#
# Total GULP energy -396653.978785 kJ/mol
# GULP energy per Si atom -12395.436837 kJ/mol
# Density = 1.892010 g / cm^3
# Si number density = 18.963263 Si / 1000 Ang^3
#
#
#
# Elastic Constant Matrix: (Units=GPa)
#
#
# Indices 1 2 3 4 5 6 
#
# 1 78.2599 18.3678 7.5688 0.0000 0.0000 0.0000
# 2 18.3678 140.2371 24.4133 0.0000 0.0000 0.0000
# 3 7.5688 24.4133 127.5007 0.0000 0.0000 0.0000
# 4 0.0000 0.0000 0.0000 38.0372 0.0000 0.0000
# 5 0.0000 0.0000 0.0000 0.0000 19.7873 0.0000
# 6 0.0000 0.0000 0.0000 0.0000 0.0000 14.0756
#
#
#
# Elastic Compliance Matrix: (Units=1/GPa)
#
#
# Indices 1 2 3 4 5 6 
#
# 1 0.013210 -0.001649 -0.000469 0.000000 0.000000 0.000000
# 2 -0.001649 0.007582 -0.001354 0.000000 0.000000 0.000000
# 3 -0.000469 -0.001354 0.008130 0.000000 0.000000 0.000000
# 4 0.000000 0.000000 0.000000 0.026290 0.000000 0.000000
# 5 0.000000 0.000000 0.000000 0.000000 0.050538 0.000000
# 6 0.000000 0.000000 0.000000 0.000000 0.000000 0.071045
#
#
# Mechanical properties :
#
#
# Convention : Reuss Voigt Hill
#
# Bulk Modulus (GPa) = 45.49494 49.63305 47.56400
# Shear Modulus (GPa) = 26.16921 34.08988 30.12955
#
# Velocity S-wave (km/s) = 3.71886 4.24451 3.99035
# Velocity P-wave (km/s) = 6.51790 7.08881 6.80934
#
# Compressibility (1/GPa) = 0.02198047
#
# Stress axis : x y z
#
# Youngs Moduli (GPa) = 75.69910 131.88395 122.99883
#
# Poissons Ratio (x) = 0.21743 0.05763
# Poissons Ratio (y) = 0.12480 0.16654
# Poissons Ratio (z) = 0.03547 0.17857
#
# Static dielectric constant tensor:
#      x y z
#    x 3.483060 0.000000 0.000000 
#    y 0.000000 3.439470 0.000000 
#    z 0.000000 0.000000 4.160570 
# 
# 
# High freq. dielectric constant tensor:
#      x y z
#    x 1.713310 0.000000 0.000000 
#    y 0.000000 1.739510 0.000000 
#    z 0.000000 0.000000 1.763060 
# 
# From -- ./inp_files/18645.got.cif
#   From: 2010.03.12/outbox.cif.g09.slc.cpg/sg69_10_cif.got.tgz:18645.got - 2010.04.10 23:52:46.
