data_PCOD8284056
_publ_section_title
;
Structure prediction by ZEFSAII (Michael W. Deem and Ramdas Pophale) SiO2 
 PCOD8284056
Probable space group: F M M M
;
_chemical_formula_sum "Si O2"
_cell_formula_units_Z 128
_cell_length_a 29.500569
_cell_length_b 17.187322
_cell_length_c 13.984095
_cell_angle_alpha 90.000000
_cell_angle_beta 90.000000
_cell_angle_gamma 90.000000
_cell_volume 7090.436496
_symmetry_space_group_name_H-M "F M M M"
_symmetry_group_IT_number 69
_symmetry_cell_setting 'orthorhombic'
loop_
_space_group_symop_operation_xyz
x,y,z
-x,-y,z
x,-y,-z
-x,y,-z
-x,-y,-z
x,y,-z
-x,y,z
x,-y,z
x,1/2+y,1/2+z
-x,1/2-y,1/2+z
x,1/2-y,1/2-z
-x,1/2+y,1/2-z
-x,1/2-y,1/2-z
x,1/2+y,1/2-z
-x,1/2+y,1/2+z
x,1/2-y,1/2+z
1/2+x,y,1/2+z
1/2-x,-y,1/2+z
1/2+x,-y,1/2-z
1/2-x,y,1/2-z
1/2-x,-y,1/2-z
1/2+x,y,1/2-z
1/2-x,y,1/2+z
1/2+x,-y,1/2+z
1/2+x,1/2+y,z
1/2-x,1/2-y,z
1/2+x,1/2-y,-z
1/2-x,1/2+y,-z
1/2-x,1/2-y,-z
1/2+x,1/2+y,-z
1/2-x,1/2+y,z
1/2+x,1/2-y,z
loop_
_atom_site_type_symbol
_atom_site_label
_atom_site_fract_x
_atom_site_fract_y
_atom_site_fract_z
Si Si1 0.552162 0.757359 0.500000
Si Si2 0.852068 0.413178 0.810598
Si Si3 0.911968 0.087630 0.500000
Si Si4 0.116300 0.305945 0.336337
Si Si5 0.297412 0.782972 0.108536
O O1 0.500000 0.780841 0.500000
O O2 0.554884 0.662427 0.500000
O O3 0.574978 0.799174 0.409323
O O4 0.833551 0.500000 0.800242
O O5 0.879070 0.391387 0.712653
O O6 0.809637 0.355180 0.822680
O O7 0.882528 0.403455 0.904828
O O8 0.934945 0.000000 0.500000
O O9 0.104135 0.250000 0.250000
O O10 0.163516 0.282427 0.386776
O O11 0.250000 0.750000 0.146799
O O12 0.292296 0.812530 0.000000
#
# Coordination Sequence:
#
# PCOD8284056 Si02
#       5
#    16  32  16  32  32
#     4  12  22  37  59  84 114 151 190 233 286 348
#     4  10  19  34  59  82 114 150 184 232 288 335
#     4  10  18  35  56  85 115 140 178 238 297 332
#     4  10  19  36  55  81 112 144 192 234 277 340
#     4  10  18  32  57  83 110 148 187 230 280 341
#
# _framework density 18.052485000000001
#
# number of rings (size 3 to 8) (size 9 to 14) (size 15 to 20)
#    0.000    1.750    7.500    0.000    0.000    5.250 
#    0.000    3.125    0.000    3.000    0.000    0.000 
#    0.000    0.000    0.000    0.000    0.000    0.000 
#
# Total GULP energy -396533.298782 kJ/mol
# GULP energy per Si atom -12391.665587 kJ/mol
# Density = 1.801140 g / cm^3
# Si number density = 18.052485 Si / 1000 Ang^3
#
#
#
# Elastic Constant Matrix: (Units=GPa)
#
#
# Indices 1 2 3 4 5 6 
#
# 1 131.6202 43.5028 49.1150 0.0000 0.0000 0.0000
# 2 43.5028 102.4642 41.6774 0.0000 0.0000 0.0000
# 3 49.1150 41.6774 99.7185 0.0000 0.0000 0.0000
# 4 0.0000 0.0000 0.0000 18.4461 0.0000 0.0000
# 5 0.0000 0.0000 0.0000 0.0000 -4.2761 0.0000
# 6 0.0000 0.0000 0.0000 0.0000 0.0000 19.2081
#
#
#
# Elastic Compliance Matrix: (Units=1/GPa)
#
#
# Indices 1 2 3 4 5 6 
#
# 1 0.009879 -0.002669 -0.003750 0.000000 0.000000 0.000000
# 2 -0.002669 0.012479 -0.003901 0.000000 0.000000 0.000000
# 3 -0.003750 -0.003901 0.013506 0.000000 0.000000 0.000000
# 4 0.000000 0.000000 0.000000 0.054212 0.000000 0.000000
# 5 0.000000 0.000000 0.000000 0.000000 -0.233859 0.000000
# 6 0.000000 0.000000 0.000000 0.000000 0.000000 0.052061
#
#
# Mechanical properties :
#
#
# Convention : Reuss Voigt Hill
#
# Bulk Modulus (GPa) = 65.68782 66.93257 66.31020
# Shear Modulus (GPa) = -75.75168 19.97615 -27.88777
#
# Velocity S-wave (km/s) = -6.48483 3.33011 -3.93468
# Velocity P-wave (km/s) = 4.42770 7.20717 4.02112
#
# Compressibility (1/GPa) = 0.01522352
#
# Stress axis : x y z
#
# Youngs Moduli (GPa) = 101.22247 80.13152 74.04129
#
# Poissons Ratio (x) = 0.21386 0.27768
# Poissons Ratio (y) = 0.27015 0.28886
# Poissons Ratio (z) = 0.37963 0.31261
#
# Static dielectric constant tensor:
#      x y z
#    x 3.046190 0.000000 0.000000 
#    y 0.000000 3.579640 0.000000 
#    z 0.000000 0.000000 3.792860 
# 
# 
# High freq. dielectric constant tensor:
#      x y z
#    x 1.667910 0.000000 0.000000 
#    y 0.000000 1.681210 0.000000 
#    z 0.000000 0.000000 1.715830 
# 
# From -- ./inp_files/18628.got.cif
#   From: 2010.03.12/outbox.cif.g09.slc.cpg/sg69_10_cif.got.tgz:18628.got - 2010.04.10 23:52:46.
