data_PCOD8284307
_publ_section_title
;
Structure prediction by ZEFSAII (Michael W. Deem and Ramdas Pophale) SiO2 
 PCOD8284307
Probable space group: F M M M
;
_chemical_formula_sum "Si O2"
_cell_formula_units_Z 176
_cell_length_a 17.374244
_cell_length_b 15.794633
_cell_length_c 32.621480
_cell_angle_alpha 90.000000
_cell_angle_beta 90.000000
_cell_angle_gamma 90.000000
_cell_volume 8951.980266
_symmetry_space_group_name_H-M "F M M M"
_symmetry_group_IT_number 69
_symmetry_cell_setting 'orthorhombic'
loop_
_space_group_symop_operation_xyz
x,y,z
-x,-y,z
x,-y,-z
-x,y,-z
-x,-y,-z
x,y,-z
-x,y,z
x,-y,z
x,1/2+y,1/2+z
-x,1/2-y,1/2+z
x,1/2-y,1/2-z
-x,1/2+y,1/2-z
-x,1/2-y,1/2-z
x,1/2+y,1/2-z
-x,1/2+y,1/2+z
x,1/2-y,1/2+z
1/2+x,y,1/2+z
1/2-x,-y,1/2+z
1/2+x,-y,1/2-z
1/2-x,y,1/2-z
1/2-x,-y,1/2-z
1/2+x,y,1/2-z
1/2-x,y,1/2+z
1/2+x,-y,1/2+z
1/2+x,1/2+y,z
1/2-x,1/2-y,z
1/2+x,1/2-y,-z
1/2-x,1/2+y,-z
1/2-x,1/2-y,-z
1/2+x,1/2+y,-z
1/2-x,1/2+y,z
1/2+x,1/2-y,z
loop_
_atom_site_type_symbol
_atom_site_label
_atom_site_fract_x
_atom_site_fract_y
_atom_site_fract_z
Si Si1 0.587901 0.597544 0.691042
Si Si2 0.341319 0.404059 0.138722
Si Si3 0.411456 0.788729 0.576208
Si Si4 0.826573 0.099198 0.769721
Si Si5 0.591178 0.097615 0.500000
Si Si6 0.806370 0.823863 0.624208
O O1 0.500000 0.615433 0.681178
O O2 0.610457 0.500000 0.683090
O O3 0.603716 0.620434 0.738655
O O4 0.635778 0.654893 0.660440
O O5 0.370378 0.500000 0.137020
O O6 0.404999 0.347421 0.116175
O O7 0.340802 0.365662 0.184819
O O8 0.255729 0.399437 0.117041
O O9 0.500000 0.759318 0.569632
O O10 0.380985 0.847051 0.538860
O O11 0.355767 0.706230 0.583809
O O12 0.750000 0.139968 0.750000
O O13 0.813463 0.000000 0.775376
O O14 0.500000 0.090337 0.500000
O O15 0.624445 0.000000 0.500000
O O16 0.750000 0.750000 0.639619
#
# Coordination Sequence:
#
# PCOD8284307 Si02
#       6
#    32  32  32  32  16  32
#     4  10  19  32  53  78 102 136 188 240 275 309
#     4  10  19  33  55  78 104 140 184 226 265 315
#     4  10  21  36  55  81 108 135 168 215 275 329
#     4   9  16  29  50  73 100 139 185 228 264 302
#     4   9  18  36  61  84 107 137 175 217 266 327
#     4  10  20  34  50  74 107 143 174 209 263 327
#
# _framework density 19.660454999999999
#
# number of rings (size 3 to 8) (size 9 to 14) (size 15 to 20)
#    0.000    2.273    1.818    1.636    0.000    1.818 
#    0.000   12.273    0.000    5.455    0.000    1.909 
#    0.000   10.182    0.000    0.000    0.000    1.091 
#
# Total GULP energy -545085.264979 kJ/mol
# GULP energy per Si atom -12388.301477 kJ/mol
# Density = 1.961571 g / cm^3
# Si number density = 19.660455 Si / 1000 Ang^3
#
#
#
# Elastic Constant Matrix: (Units=GPa)
#
#
# Indices 1 2 3 4 5 6 
#
# 1 75.7441 20.5547 27.2239 0.0000 0.0000 0.0000
# 2 20.5547 36.7842 23.2541 0.0000 0.0000 0.0000
# 3 27.2239 23.2541 105.8568 0.0000 0.0000 0.0000
# 4 0.0000 0.0000 0.0000 29.0459 0.0000 0.0000
# 5 0.0000 0.0000 0.0000 0.0000 24.8224 0.0000
# 6 0.0000 0.0000 0.0000 0.0000 0.0000 28.8458
#
#
#
# Elastic Compliance Matrix: (Units=1/GPa)
#
#
# Indices 1 2 3 4 5 6 
#
# 1 0.016119 -0.007417 -0.002516 0.000000 0.000000 0.000000
# 2 -0.007417 0.034982 -0.005777 0.000000 0.000000 0.000000
# 3 -0.002516 -0.005777 0.011363 0.000000 0.000000 0.000000
# 4 0.000000 0.000000 0.000000 0.034428 0.000000 0.000000
# 5 0.000000 0.000000 0.000000 0.000000 0.040286 0.000000
# 6 0.000000 0.000000 0.000000 0.000000 0.000000 0.034667
#
#
# Mechanical properties :
#
#
# Convention : Reuss Voigt Hill
#
# Bulk Modulus (GPa) = 32.21223 40.05003 36.13113
# Shear Modulus (GPa) = 23.40663 26.36632 24.88647
#
# Velocity S-wave (km/s) = 3.45417 3.66605 3.56169
# Velocity P-wave (km/s) = 5.68579 6.19153 5.94404
#
# Compressibility (1/GPa) = 0.03104411
#
# Stress axis : x y z
#
# Youngs Moduli (GPa) = 62.03701 28.58594 88.00502
#
# Poissons Ratio (x) = 0.21201 0.22145
# Poissons Ratio (y) = 0.46011 0.50843
# Poissons Ratio (z) = 0.15610 0.16515
#
# Static dielectric constant tensor:
#      x y z
#    x 3.571190 0.000000 0.000000 
#    y 0.000000 3.698900 0.000000 
#    z 0.000000 0.000000 3.592850 
# 
# 
# High freq. dielectric constant tensor:
#      x y z
#    x 1.759360 0.000000 0.000000 
#    y 0.000000 1.751150 0.000000 
#    z 0.000000 0.000000 1.748170 
# 
# From -- ./inp_files/46358.got.cif
#   From: 2010.03.12/outbox.cif.g09.slc.cpg/sg69_24_cif.got.tgz:46358.got - 2010.04.10 23:52:46.
