data_PCOD8284143
_publ_section_title
;
Structure prediction by ZEFSAII (Michael W. Deem and Ramdas Pophale) SiO2 
 PCOD8284143
Probable space group: F M M M
;
_chemical_formula_sum "Si O2"
_cell_formula_units_Z 144
_cell_length_a 32.771966
_cell_length_b 27.667055
_cell_length_c 9.618137
_cell_angle_alpha 90.000000
_cell_angle_beta 90.000000
_cell_angle_gamma 90.000000
_cell_volume 8720.801230
_symmetry_space_group_name_H-M "F M M M"
_symmetry_group_IT_number 69
_symmetry_cell_setting 'orthorhombic'
loop_
_space_group_symop_operation_xyz
x,y,z
-x,-y,z
x,-y,-z
-x,y,-z
-x,-y,-z
x,y,-z
-x,y,z
x,-y,z
x,1/2+y,1/2+z
-x,1/2-y,1/2+z
x,1/2-y,1/2-z
-x,1/2+y,1/2-z
-x,1/2-y,1/2-z
x,1/2+y,1/2-z
-x,1/2+y,1/2+z
x,1/2-y,1/2+z
1/2+x,y,1/2+z
1/2-x,-y,1/2+z
1/2+x,-y,1/2-z
1/2-x,y,1/2-z
1/2-x,-y,1/2-z
1/2+x,y,1/2-z
1/2-x,y,1/2+z
1/2+x,-y,1/2+z
1/2+x,1/2+y,z
1/2-x,1/2-y,z
1/2+x,1/2-y,-z
1/2-x,1/2+y,-z
1/2-x,1/2-y,-z
1/2+x,1/2+y,-z
1/2-x,1/2+y,z
1/2+x,1/2-y,z
loop_
_atom_site_type_symbol
_atom_site_label
_atom_site_fract_x
_atom_site_fract_y
_atom_site_fract_z
Si Si1 0.689012 0.056919 0.500000
Si Si2 0.000000 0.946851 0.335590
Si Si3 0.574814 0.116708 0.158223
Si Si4 0.452554 0.202066 0.337054
Si Si5 0.221020 0.443435 0.000000
Si Si6 0.346112 0.556951 0.286367
O O1 0.734171 0.081561 0.500000
O O2 0.661760 0.072765 0.370670
O O3 0.695630 0.000000 0.500000
O O4 0.040184 0.919231 0.284901
O O5 0.000000 0.951553 0.500000
O O6 0.000000 0.000000 0.266720
O O7 0.575495 0.161363 0.264951
O O8 0.617143 0.088293 0.154992
O O9 0.565278 0.134337 0.000000
O O10 0.440825 0.208491 0.500000
O O11 0.500000 0.187741 0.321977
O O12 0.443219 0.250000 0.250000
O O13 0.195382 0.428457 0.135108
O O14 0.228265 0.500000 0.000000
O O15 0.356113 0.500000 0.305960
#
# Coordination Sequence:
#
# PCOD8284143 Si02
#       6
#    16  16  32  32  16  32
#     4   9  18  30  46  67  96 135 174 215 262 303
#     4   9  18  30  46  67  96 139 180 209 232 277
#     4  11  20  32  50  73 102 135 175 210 248 294
#     4  10  21  37  57  77  99 126 164 211 262 308
#     4   9  16  30  48  67  94 133 178 215 254 299
#     4  10  19  30  46  71 103 139 175 215 251 292
#
# _framework density 16.512243999999999
#
# number of rings (size 3 to 8) (size 9 to 14) (size 15 to 20)
#    0.000    2.111    2.222    2.000    1.556    4.444 
#    0.000    0.000    0.000    0.667    0.000    0.000 
#    0.000    5.333    0.000    0.000    0.000    0.000 
#
# Total GULP energy -446275.772912 kJ/mol
# GULP energy per Si atom -12396.549248 kJ/mol
# Density = 1.647466 g / cm^3
# Si number density = 16.512244 Si / 1000 Ang^3
#
#
#
# Elastic Constant Matrix: (Units=GPa)
#
#
# Indices 1 2 3 4 5 6 
#
# 1 65.7805 26.3486 14.8968 -0.0016 -0.0084 0.0003
# 2 26.3486 74.0267 36.4362 0.0092 0.0291 -0.0020
# 3 14.8968 36.4362 112.0014 0.0061 0.0460 -0.0033
# 4 -0.0016 0.0092 0.0061 23.0913 0.0376 -0.0023
# 5 -0.0084 0.0291 0.0460 0.0376 -66.1705 -0.0010
# 6 0.0003 -0.0020 -0.0033 -0.0023 -0.0010 3.9596
#
#
#
# Elastic Compliance Matrix: (Units=1/GPa)
#
#
# Indices 1 2 3 4 5 6 
#
# 1 0.017742 -0.006136 -0.000364 0.000004 -0.000005 -0.000005
# 2 -0.006136 0.018206 -0.005107 -0.000006 0.000005 0.000005
# 3 -0.000364 -0.005107 0.010638 -0.000001 0.000005 0.000006
# 4 0.000004 -0.000006 -0.000001 0.043306 0.000025 0.000025
# 5 -0.000005 0.000005 0.000005 0.000025 -0.015112 -0.000004
# 6 -0.000005 0.000005 0.000006 0.000025 -0.000004 0.252549
#
#
# Mechanical properties :
#
#
# Convention : Reuss Voigt Hill
#
# Bulk Modulus (GPa) = 42.78299 45.24130 44.01215
# Shear Modulus (GPa) = 13.95349 3.78455 8.86902
#
# Velocity S-wave (km/s) = 2.91011 1.51557 2.32009
# Velocity P-wave (km/s) = 6.10391 5.52455 5.82145
#
# Compressibility (1/GPa) = 0.02337377
#
# Stress axis : x y z
#
# Youngs Moduli (GPa) = 56.36259 54.92624 94.00152
#
# Poissons Ratio (x) = 0.33703 0.03418
# Poissons Ratio (y) = 0.34585 0.48004
# Poissons Ratio (z) = 0.02049 0.28049
#
# Static dielectric constant tensor:
#      x y z
#    x 3.060570 0.000000 0.000020 
#    y 0.000000 2.831260 0.000090 
#    z 0.000020 0.000090 9.962480 
# 
# 
# High freq. dielectric constant tensor:
#      x y z
#    x 1.628660 0.000000 0.000000 
#    y 0.000000 1.594210 0.000000 
#    z 0.000000 0.000000 1.645090 
# 
# From -- ./inp_files/5663.got.cif
#   From: 2010.03.12/outbox.cif.g09.slc.cpg/sg69_3_cif.got.tgz:5663.got - 2010.04.10 23:52:46.
