data_PCOD8284967
_publ_section_title
;
Structure prediction by ZEFSAII (Michael W. Deem and Ramdas Pophale) SiO2 
 PCOD8284967
Probable space group: F M M M
;
_chemical_formula_sum "Si O2"
_cell_formula_units_Z 176
_cell_length_a 27.335411
_cell_length_b 17.079237
_cell_length_c 17.599168
_cell_angle_alpha 90.000000
_cell_angle_beta 90.000000
_cell_angle_gamma 90.000000
_cell_volume 8216.487714
_symmetry_space_group_name_H-M "F M M M"
_symmetry_group_IT_number 69
_symmetry_cell_setting 'orthorhombic'
loop_
_space_group_symop_operation_xyz
x,y,z
-x,-y,z
x,-y,-z
-x,y,-z
-x,-y,-z
x,y,-z
-x,y,z
x,-y,z
x,1/2+y,1/2+z
-x,1/2-y,1/2+z
x,1/2-y,1/2-z
-x,1/2+y,1/2-z
-x,1/2-y,1/2-z
x,1/2+y,1/2-z
-x,1/2+y,1/2+z
x,1/2-y,1/2+z
1/2+x,y,1/2+z
1/2-x,-y,1/2+z
1/2+x,-y,1/2-z
1/2-x,y,1/2-z
1/2-x,-y,1/2-z
1/2+x,y,1/2-z
1/2-x,y,1/2+z
1/2+x,-y,1/2+z
1/2+x,1/2+y,z
1/2-x,1/2-y,z
1/2+x,1/2-y,-z
1/2-x,1/2+y,-z
1/2-x,1/2-y,-z
1/2+x,1/2+y,-z
1/2-x,1/2+y,z
1/2+x,1/2-y,z
loop_
_atom_site_type_symbol
_atom_site_label
_atom_site_fract_x
_atom_site_fract_y
_atom_site_fract_z
Si Si1 0.823813 0.681708 0.086183
Si Si2 0.945743 0.000000 0.418403
Si Si3 0.756795 0.088348 0.835267
Si Si4 0.944216 0.174560 0.155938
Si Si5 0.082041 0.847988 0.671500
Si Si6 0.653823 0.360922 0.915521
O O1 0.771397 0.645022 0.106333
O O2 0.860963 0.649705 0.149744
O O3 0.823550 0.774658 0.092265
O O4 0.838327 0.656743 0.000000
O O5 0.939710 0.076607 0.367842
O O6 0.915615 0.000000 0.500000
O O7 0.000000 0.000000 0.446578
O O8 0.750000 0.120381 0.750000
O O9 0.814344 0.087274 0.857445
O O10 0.736036 0.000000 0.841154
O O11 0.926595 0.148709 0.238996
O O12 0.943124 0.268060 0.142077
O O13 0.904510 0.134910 0.100669
O O14 0.000000 0.145585 0.140222
O O15 0.661024 0.394029 0.000000
#
# Coordination Sequence:
#
# PCOD8284967 Si02
#       6
#    32  16  32  32  32  32
#     4  10  21  37  60  89 120 158 197 239 296 365
#     4  11  22  34  52  84 128 167 193 239 315 377
#     4  11  24  40  60  87 120 155 198 244 301 364
#     4  10  20  38  63  87 115 162 217 259 298 351
#     4  10  20  36  58  86 124 160 204 250 297 364
#     4  10  22  40  61  88 120 155 199 251 302 352
#
# _framework density 21.420345999999999
#
# number of rings (size 3 to 8) (size 9 to 14) (size 15 to 20)
#    0.000    1.727    0.000    4.909    1.273    6.909 
#    1.636    0.000    0.000    0.000    0.000    1.273 
#    0.000    0.000    0.000    0.000    0.000    0.000 
#
# Total GULP energy -545350.702370 kJ/mol
# GULP energy per Si atom -12394.334145 kJ/mol
# Density = 2.137159 g / cm^3
# Si number density = 21.420346 Si / 1000 Ang^3
#
#
#
# Elastic Constant Matrix: (Units=GPa)
#
#
# Indices 1 2 3 4 5 6 
#
# 1 134.8521 19.3406 51.9027 0.0000 0.0000 0.0000
# 2 19.3406 66.4874 44.9161 0.0000 0.0000 0.0000
# 3 51.9027 44.9161 124.1508 0.0000 0.0000 0.0000
# 4 0.0000 0.0000 0.0000 13.6047 0.0000 0.0000
# 5 0.0000 0.0000 0.0000 0.0000 31.9867 0.0000
# 6 0.0000 0.0000 0.0000 0.0000 0.0000 19.5376
#
#
#
# Elastic Compliance Matrix: (Units=1/GPa)
#
#
# Indices 1 2 3 4 5 6 
#
# 1 0.008838 -0.000099 -0.003659 0.000000 0.000000 0.000000
# 2 -0.000099 0.019907 -0.007161 0.000000 0.000000 0.000000
# 3 -0.003659 -0.007161 0.012175 0.000000 0.000000 0.000000
# 4 0.000000 0.000000 0.000000 0.073504 0.000000 0.000000
# 5 0.000000 0.000000 0.000000 0.000000 0.031263 0.000000
# 6 0.000000 0.000000 0.000000 0.000000 0.000000 0.051183
#
#
# Mechanical properties :
#
#
# Convention : Reuss Voigt Hill
#
# Bulk Modulus (GPa) = 52.40413 61.97880 57.19147
# Shear Modulus (GPa) = 22.21554 26.98121 24.59837
#
# Velocity S-wave (km/s) = 3.22393 3.55294 3.39243
# Velocity P-wave (km/s) = 6.19484 6.76968 6.48863
#
# Compressibility (1/GPa) = 0.01908247
#
# Stress axis : x y z
#
# Youngs Moduli (GPa) = 113.14723 50.23455 82.13544
#
# Poissons Ratio (x) = 0.00497 0.30054
# Poissons Ratio (y) = 0.01120 0.58813
# Poissons Ratio (z) = 0.41401 0.35971
#
# Static dielectric constant tensor:
#      x y z
#    x 3.894090 0.000000 0.000000 
#    y 0.000000 3.570370 0.000000 
#    z 0.000000 0.000000 3.877450 
# 
# 
# High freq. dielectric constant tensor:
#      x y z
#    x 1.841990 0.000000 0.000000 
#    y 0.000000 1.820600 0.000000 
#    z 0.000000 0.000000 1.844620 
# 
# From -- ./inp_files/26782.got.cif
#   From: 2010.03.12/outbox.cif.g09.slc.cpg/sg69_14_cif.got.tgz:26782.got - 2010.04.10 23:52:46.
