data_PCOD8284471
_publ_section_title
;
Structure prediction by ZEFSAII (Michael W. Deem and Ramdas Pophale) SiO2 
 PCOD8284471
Probable space group: F M M M
;
_chemical_formula_sum "Si O2"
_cell_formula_units_Z 128
_cell_length_a 23.482758
_cell_length_b 17.637983
_cell_length_c 16.920324
_cell_angle_alpha 90.000000
_cell_angle_beta 90.000000
_cell_angle_gamma 90.000000
_cell_volume 7008.203387
_symmetry_space_group_name_H-M "F M M M"
_symmetry_group_IT_number 69
_symmetry_cell_setting 'orthorhombic'
loop_
_space_group_symop_operation_xyz
x,y,z
-x,-y,z
x,-y,-z
-x,y,-z
-x,-y,-z
x,y,-z
-x,y,z
x,-y,z
x,1/2+y,1/2+z
-x,1/2-y,1/2+z
x,1/2-y,1/2-z
-x,1/2+y,1/2-z
-x,1/2-y,1/2-z
x,1/2+y,1/2-z
-x,1/2+y,1/2+z
x,1/2-y,1/2+z
1/2+x,y,1/2+z
1/2-x,-y,1/2+z
1/2+x,-y,1/2-z
1/2-x,y,1/2-z
1/2-x,-y,1/2-z
1/2+x,y,1/2-z
1/2-x,y,1/2+z
1/2+x,-y,1/2+z
1/2+x,1/2+y,z
1/2-x,1/2-y,z
1/2+x,1/2-y,-z
1/2-x,1/2+y,-z
1/2-x,1/2-y,-z
1/2+x,1/2+y,-z
1/2-x,1/2+y,z
1/2+x,1/2-y,z
loop_
_atom_site_type_symbol
_atom_site_label
_atom_site_fract_x
_atom_site_fract_y
_atom_site_fract_z
Si Si1 0.736577 0.000000 0.157926
Si Si2 0.137837 0.083802 0.409064
Si Si3 0.360838 0.000000 0.593074
Si Si4 0.933908 0.784537 0.665504
Si Si5 0.562653 0.632212 0.091545
O O1 0.750000 0.000000 0.250000
O O2 0.700804 0.074794 0.130647
O O3 0.795293 0.000000 0.112394
O O4 0.142945 0.112170 0.500000
O O5 0.102182 0.141540 0.355855
O O6 0.108343 0.000000 0.407290
O O7 0.392103 0.074082 0.630006
O O8 0.367288 0.000000 0.500000
O O9 0.916912 0.750000 0.750000
O O10 0.918295 0.718908 0.603110
O O11 0.000000 0.807851 0.662010
O O12 0.500000 0.620043 0.131167
O O13 0.557931 0.614600 0.000000
#
# Coordination Sequence:
#
# PCOD8284471 Si02
#       5
#    16  32  16  32  32
#     4  10  22  37  60  84 109 152 196 253 297 337
#     4   9  20  39  62  85 117 153 199 247 288 355
#     4  10  19  34  58  80 108 149 188 228 279 343
#     4  10  21  36  56  86 121 152 185 235 295 350
#     4   9  18  32  54  84 113 142 179 225 283 351
#
# _framework density 18.264309999999998
#
# number of rings (size 3 to 8) (size 9 to 14) (size 15 to 20)
#    0.750    1.750    0.000    1.875    3.500    3.500 
#    0.000    2.500    0.000    4.500    0.000    0.000 
#    0.000    0.000    0.000    0.000    0.000    0.000 
#
# Total GULP energy -396492.778140 kJ/mol
# GULP energy per Si atom -12390.399317 kJ/mol
# Density = 1.822274 g / cm^3
# Si number density = 18.264310 Si / 1000 Ang^3
#
#
#
# Elastic Constant Matrix: (Units=GPa)
#
#
# Indices 1 2 3 4 5 6 
#
# 1 126.9076 81.8961 39.9919 0.0000 0.0000 0.0000
# 2 81.8961 116.4214 39.5805 0.0000 0.0000 0.0000
# 3 39.9919 39.5805 81.9540 0.0000 0.0000 0.0000
# 4 0.0000 0.0000 0.0000 27.1929 0.0000 0.0000
# 5 0.0000 0.0000 0.0000 0.0000 26.3705 0.0000
# 6 0.0000 0.0000 0.0000 0.0000 0.0000 16.7656
#
#
#
# Elastic Compliance Matrix: (Units=1/GPa)
#
#
# Indices 1 2 3 4 5 6 
#
# 1 0.014894 -0.009579 -0.002642 0.000000 0.000000 0.000000
# 2 -0.009579 0.016437 -0.003264 0.000000 0.000000 0.000000
# 3 -0.002642 -0.003264 0.015068 0.000000 0.000000 0.000000
# 4 0.000000 0.000000 0.000000 0.036774 0.000000 0.000000
# 5 0.000000 0.000000 0.000000 0.000000 0.037921 0.000000
# 6 0.000000 0.000000 0.000000 0.000000 0.000000 0.059646
#
#
# Mechanical properties :
#
#
# Convention : Reuss Voigt Hill
#
# Bulk Modulus (GPa) = 64.81257 72.02445 68.41851
# Shear Modulus (GPa) = 23.05716 24.98675 24.02195
#
# Velocity S-wave (km/s) = 3.55690 3.70275 3.63056
# Velocity P-wave (km/s) = 7.24097 7.60267 7.42403
#
# Compressibility (1/GPa) = 0.01542911
#
# Stress axis : x y z
#
# Youngs Moduli (GPa) = 67.14328 60.83687 66.36755
#
# Poissons Ratio (x) = 0.58274 0.17532
# Poissons Ratio (y) = 0.64315 0.21665
# Poissons Ratio (z) = 0.17737 0.19860
#
# Static dielectric constant tensor:
#      x y z
#    x 4.305880 0.000000 0.000000 
#    y 0.000000 3.415180 0.000000 
#    z 0.000000 0.000000 3.584650 
# 
# 
# High freq. dielectric constant tensor:
#      x y z
#    x 1.694630 0.000000 0.000000 
#    y 0.000000 1.702140 0.000000 
#    z 0.000000 0.000000 1.705700 
# 
# From -- ./inp_files/25541.got.cif
#   From: 2010.03.12/outbox.cif.g09.slc.cpg/sg69_13_cif.got.tgz:25541.got - 2010.04.10 23:52:46.
