data_PCOD8284105
_publ_section_title
;
Structure prediction by ZEFSAII (Michael W. Deem and Ramdas Pophale) SiO2 
 PCOD8284105
Probable space group: F M M M
;
_chemical_formula_sum "Si O2"
_cell_formula_units_Z 88
_cell_length_a 13.883322
_cell_length_b 23.170757
_cell_length_c 14.985318
_cell_angle_alpha 90.000000
_cell_angle_beta 90.000000
_cell_angle_gamma 90.000000
_cell_volume 4820.583197
_symmetry_space_group_name_H-M "F M M M"
_symmetry_group_IT_number 69
_symmetry_cell_setting 'orthorhombic'
loop_
_space_group_symop_operation_xyz
x,y,z
-x,-y,z
x,-y,-z
-x,y,-z
-x,-y,-z
x,y,-z
-x,y,z
x,-y,z
x,1/2+y,1/2+z
-x,1/2-y,1/2+z
x,1/2-y,1/2-z
-x,1/2+y,1/2-z
-x,1/2-y,1/2-z
x,1/2+y,1/2-z
-x,1/2+y,1/2+z
x,1/2-y,1/2+z
1/2+x,y,1/2+z
1/2-x,-y,1/2+z
1/2+x,-y,1/2-z
1/2-x,y,1/2-z
1/2-x,-y,1/2-z
1/2+x,y,1/2-z
1/2-x,y,1/2+z
1/2+x,-y,1/2+z
1/2+x,1/2+y,z
1/2-x,1/2-y,z
1/2+x,1/2-y,-z
1/2-x,1/2+y,-z
1/2-x,1/2-y,-z
1/2+x,1/2+y,-z
1/2-x,1/2+y,z
1/2+x,1/2-y,z
loop_
_atom_site_type_symbol
_atom_site_label
_atom_site_fract_x
_atom_site_fract_y
_atom_site_fract_z
Si Si1 0.709517 0.315608 0.000000
Si Si2 0.000000 0.781139 0.000000
Si Si3 0.500000 0.172268 0.898240
Si Si4 0.111562 0.000000 0.605637
Si Si5 0.807885 0.879190 0.659540
O O1 0.750000 0.250000 0.000000
O O2 0.742593 0.350790 0.915116
O O3 0.594478 0.319786 0.000000
O O4 0.000000 0.741172 0.088970
O O5 0.408739 0.154499 0.839898
O O6 0.500000 0.143309 0.000000
O O7 0.170053 0.945893 0.642884
O O8 0.114278 0.000000 0.500000
O O9 0.000000 0.000000 0.638817
O O10 0.750000 0.870815 0.750000
#
# Coordination Sequence:
#
# PCOD8284105 Si02
#       5
#    16   8  16  16  32
#     4  12  22  43  63  95 135 173 214 271 325 376
#     4  10  22  40  68  84 134 180 218 260 314 392
#     4  10  18  42  68  91 124 175 226 256 303 398
#     4  11  21  40  74  95 123 173 219 269 321 385
#     4  12  24  39  68 101 130 166 219 273 325 379
#
# _framework density 18.255053
#
# number of rings (size 3 to 8) (size 9 to 14) (size 15 to 20)
#    0.545    0.182    9.091    0.545    0.000    2.182 
#    0.000    1.818    0.000    1.091    0.000    0.000 
#    0.000    0.000    0.000    0.000    0.000    0.000 
#
# Total GULP energy -272723.611159 kJ/mol
# GULP energy per Si atom -12396.527780 kJ/mol
# Density = 1.821350 g / cm^3
# Si number density = 18.255053 Si / 1000 Ang^3
#
#
#
# Elastic Constant Matrix: (Units=GPa)
#
#
# Indices 1 2 3 4 5 6 
#
# 1 197.1829 70.4560 81.8119 0.0000 0.0000 0.0000
# 2 70.4560 111.8747 56.7549 0.0000 0.0000 0.0000
# 3 81.8119 56.7549 138.4322 0.0000 0.0000 0.0000
# 4 0.0000 0.0000 0.0000 24.5107 0.0000 0.0000
# 5 0.0000 0.0000 0.0000 0.0000 39.5093 0.0000
# 6 0.0000 0.0000 0.0000 0.0000 0.0000 46.2644
#
#
#
# Elastic Compliance Matrix: (Units=1/GPa)
#
#
# Indices 1 2 3 4 5 6 
#
# 1 0.007493 -0.003122 -0.003149 0.000000 0.000000 0.000000
# 2 -0.003122 0.012586 -0.003315 0.000000 0.000000 0.000000
# 3 -0.003149 -0.003315 0.010444 0.000000 0.000000 0.000000
# 4 0.000000 0.000000 0.000000 0.040799 0.000000 0.000000
# 5 0.000000 0.000000 0.000000 0.000000 0.025310 0.000000
# 6 0.000000 0.000000 0.000000 0.000000 0.000000 0.021615
#
#
# Mechanical properties :
#
#
# Convention : Reuss Voigt Hill
#
# Bulk Modulus (GPa) = 88.08882 96.17060 92.12971
# Shear Modulus (GPa) = 35.41010 37.95468 36.68239
#
# Velocity S-wave (km/s) = 4.40903 4.56470 4.48754
# Velocity P-wave (km/s) = 8.61850 8.97652 8.79933
#
# Compressibility (1/GPa) = 0.01135218
#
# Stress axis : x y z
#
# Youngs Moduli (GPa) = 133.45395 79.45036 95.75125
#
# Poissons Ratio (x) = 0.24803 0.30148
# Poissons Ratio (y) = 0.41661 0.31745
# Poissons Ratio (z) = 0.42018 0.26340
#
# Static dielectric constant tensor:
#      x y z
#    x 3.154910 0.000000 0.000000 
#    y 0.000000 3.464480 0.000000 
#    z 0.000000 0.000000 3.128290 
# 
# 
# High freq. dielectric constant tensor:
#      x y z
#    x 1.723350 0.000000 0.000000 
#    y 0.000000 1.711250 0.000000 
#    z 0.000000 0.000000 1.688740 
# 
# From -- ./inp_files/7156.got.cif
#   From: 2010.03.12/outbox.cif.g09.slc.cpg/sg69_4_cif.got.tgz:7156.got - 2010.04.10 23:52:46.
