data_PCOD8284156
_publ_section_title
;
Structure prediction by ZEFSAII (Michael W. Deem and Ramdas Pophale) SiO2 
 PCOD8284156
Probable space group: F M M M
;
_chemical_formula_sum "Si O2"
_cell_formula_units_Z 192
_cell_length_a 21.031250
_cell_length_b 27.335112
_cell_length_c 14.600158
_cell_angle_alpha 90.000000
_cell_angle_beta 90.000000
_cell_angle_gamma 90.000000
_cell_volume 8393.507817
_symmetry_space_group_name_H-M "F M M M"
_symmetry_group_IT_number 69
_symmetry_cell_setting 'orthorhombic'
loop_
_space_group_symop_operation_xyz
x,y,z
-x,-y,z
x,-y,-z
-x,y,-z
-x,-y,-z
x,y,-z
-x,y,z
x,-y,z
x,1/2+y,1/2+z
-x,1/2-y,1/2+z
x,1/2-y,1/2-z
-x,1/2+y,1/2-z
-x,1/2-y,1/2-z
x,1/2+y,1/2-z
-x,1/2+y,1/2+z
x,1/2-y,1/2+z
1/2+x,y,1/2+z
1/2-x,-y,1/2+z
1/2+x,-y,1/2-z
1/2-x,y,1/2-z
1/2-x,-y,1/2-z
1/2+x,y,1/2-z
1/2-x,y,1/2+z
1/2+x,-y,1/2+z
1/2+x,1/2+y,z
1/2-x,1/2-y,z
1/2+x,1/2-y,-z
1/2-x,1/2+y,-z
1/2-x,1/2-y,-z
1/2+x,1/2+y,-z
1/2-x,1/2+y,z
1/2+x,1/2-y,z
loop_
_atom_site_type_symbol
_atom_site_label
_atom_site_fract_x
_atom_site_fract_y
_atom_site_fract_z
Si Si1 0.070493 0.445062 0.108785
Si Si2 0.068090 0.728266 0.649964
Si Si3 0.690349 0.615608 0.390845
Si Si4 0.810662 0.226177 0.649425
Si Si5 0.571535 0.380185 0.892466
Si Si6 0.312562 0.945166 0.391082
O O1 0.082344 0.500000 0.145717
O O2 0.125655 0.409596 0.146542
O O3 0.000000 0.426602 0.139957
O O4 0.074189 0.445919 0.000000
O O5 0.060511 0.750000 0.750000
O O6 0.124329 0.757652 0.597200
O O7 0.085204 0.671000 0.657732
O O8 0.000000 0.734306 0.597820
O O9 0.689793 0.621547 0.500000
O O10 0.695918 0.668261 0.344414
O O11 0.750326 0.583853 0.356870
O O12 0.814239 0.250000 0.750000
O O13 0.750000 0.250000 0.597622
O O14 0.500000 0.399519 0.871219
O O15 0.622798 0.419330 0.855417
O O16 0.580731 0.371126 0.000000
O O17 0.312587 0.947023 0.500000
O O18 0.310475 0.000000 0.350724
#
# Coordination Sequence:
#
# PCOD8284156 Si02
#       6
#    32  32  32  32  32  32
#     4   8  14  26  45  71 104 135 159 190 237 291
#     4   9  18  33  51  70  93 127 169 206 244 289
#     4  10  19  30  48  74 101 129 164 204 240 281
#     4  10  21  35  49  68  95 129 168 206 247 292
#     4   9  17  29  47  73 103 131 161 200 241 282
#     4   9  17  29  46  71 104 135 160 192 238 292
#
# _framework density 22.874824
#
# number of rings (size 3 to 8) (size 9 to 14) (size 15 to 20)
#    0.000    2.833    0.000    2.000    0.000    4.000 
#    0.000    1.667    0.000    0.000    0.000   42.000 
#    0.000    2.667    0.000    0.000    0.000    1.167 
#
# Total GULP energy -594851.468182 kJ/mol
# GULP energy per Si atom -12392.738920 kJ/mol
# Density = 2.282276 g / cm^3
# Si number density = 22.874824 Si / 1000 Ang^3
#
#
#
# Elastic Constant Matrix: (Units=GPa)
#
#
# Indices 1 2 3 4 5 6 
#
# 1 252.0606 133.3501 1.2962 0.0000 0.0000 0.0000
# 2 133.3501 220.1644 20.3148 0.0000 0.0000 0.0000
# 3 1.2962 20.3148 27.6504 0.0000 0.0000 0.0000
# 4 0.0000 0.0000 0.0000 13.1880 0.0000 0.0000
# 5 0.0000 0.0000 0.0000 0.0000 -3.6754 0.0000
# 6 0.0000 0.0000 0.0000 0.0000 0.0000 48.9358
#
#
#
# Elastic Compliance Matrix: (Units=1/GPa)
#
#
# Indices 1 2 3 4 5 6 
#
# 1 0.006003 -0.003872 0.002564 0.000000 0.000000 0.000000
# 2 -0.003872 0.007370 -0.005234 0.000000 0.000000 0.000000
# 3 0.002564 -0.005234 0.039891 0.000000 0.000000 0.000000
# 4 0.000000 0.000000 0.000000 0.075826 0.000000 0.000000
# 5 0.000000 0.000000 0.000000 0.000000 -0.272077 0.000000
# 6 0.000000 0.000000 0.000000 0.000000 0.000000 0.020435
#
#
# Mechanical properties :
#
#
# Convention : Reuss Voigt Hill
#
# Bulk Modulus (GPa) = 24.88834 89.97753 57.43293
# Shear Modulus (GPa) = -52.04296 34.68396 -8.67950
#
# Velocity S-wave (km/s) = -4.77500 3.89813 -1.95002
# Velocity P-wave (km/s) = 4.41553 7.72533 4.48240
#
# Compressibility (1/GPa) = 0.04017946
#
# Stress axis : x y z
#
# Youngs Moduli (GPa) = 166.59123 135.67871 25.06843
#
# Poissons Ratio (x) = 0.52539 -0.06427
# Poissons Ratio (y) = 0.64509 0.13120
# Poissons Ratio (z) = -0.42707 0.71008
#
# Static dielectric constant tensor:
#      x y z
#    x 6.983010 0.000000 0.000000 
#    y 0.000000 4.108620 0.000000 
#    z 0.000000 0.000000 3.626740 
# 
# 
# High freq. dielectric constant tensor:
#      x y z
#    x 1.933090 0.000000 0.000000 
#    y 0.000000 1.898950 0.000000 
#    z 0.000000 0.000000 1.857430 
# 
# From -- ./inp_files/32825.got.cif
#   From: 2010.03.12/outbox.cif.g09.slc.cpg/sg69_17_cif.got.tgz:32825.got - 2010.04.10 23:52:46.
