data_PCOD8284003
_publ_section_title
;
Structure prediction by ZEFSAII (Michael W. Deem and Ramdas Pophale) SiO2 
 PCOD8284003
Probable space group: F M M M
;
_chemical_formula_sum "Si O2"
_cell_formula_units_Z 144
_cell_length_a 18.861494
_cell_length_b 22.421432
_cell_length_c 15.882579
_cell_angle_alpha 90.000000
_cell_angle_beta 90.000000
_cell_angle_gamma 90.000000
_cell_volume 6716.769741
_symmetry_space_group_name_H-M "F M M M"
_symmetry_group_IT_number 69
_symmetry_cell_setting 'orthorhombic'
loop_
_space_group_symop_operation_xyz
x,y,z
-x,-y,z
x,-y,-z
-x,y,-z
-x,-y,-z
x,y,-z
-x,y,z
x,-y,z
x,1/2+y,1/2+z
-x,1/2-y,1/2+z
x,1/2-y,1/2-z
-x,1/2+y,1/2-z
-x,1/2-y,1/2-z
x,1/2+y,1/2-z
-x,1/2+y,1/2+z
x,1/2-y,1/2+z
1/2+x,y,1/2+z
1/2-x,-y,1/2+z
1/2+x,-y,1/2-z
1/2-x,y,1/2-z
1/2-x,-y,1/2-z
1/2+x,y,1/2-z
1/2-x,y,1/2+z
1/2+x,-y,1/2+z
1/2+x,1/2+y,z
1/2-x,1/2-y,z
1/2+x,1/2-y,-z
1/2-x,1/2+y,-z
1/2-x,1/2-y,-z
1/2+x,1/2+y,-z
1/2-x,1/2+y,z
1/2+x,1/2-y,z
loop_
_atom_site_type_symbol
_atom_site_label
_atom_site_fract_x
_atom_site_fract_y
_atom_site_fract_z
Si Si1 0.788755 0.931029 0.661493
Si Si2 0.578827 0.270419 0.900011
Si Si3 0.580513 0.500000 0.899551
Si Si4 0.417671 0.862852 0.900965
Si Si5 0.155810 0.616066 0.404770
O O1 0.750000 0.920330 0.750000
O O2 0.868568 0.906200 0.655357
O O3 0.740393 0.892970 0.596839
O O4 0.789894 0.000000 0.635750
O O5 0.500000 0.286736 0.868262
O O6 0.600113 0.204311 0.869372
O O7 0.631606 0.321183 0.862623
O O8 0.580335 0.268155 0.000000
O O9 0.500000 0.500000 0.869334
O O10 0.618615 0.558575 0.860537
O O11 0.587874 0.500000 0.000000
O O12 0.500000 0.878061 0.883265
O O13 0.401272 0.871576 0.000000
O O14 0.128362 0.618711 0.500000
#
# Coordination Sequence:
#
# PCOD8284003 Si02
#       5
#    32  32  16  32  32
#     4  11  24  40  55  75 114 151 184 234 294 346
#     4   8  15  30  54  85 117 143 175 228 285 332
#     4   9  16  26  45  76 107 137 177 218 254 308
#     4   9  19  38  64  89 111 144 194 243 283 331
#     4  10  18  31  54  81 109 144 184 227 278 337
#
# _framework density 21.438876
#
# number of rings (size 3 to 8) (size 9 to 14) (size 15 to 20)
#    0.000    2.556    1.111    2.667    0.000    5.333 
#    0.000    8.889    0.000    2.667    0.000    0.000 
#    0.000    0.000    0.000    0.000    0.000    0.000 
#
# Total GULP energy -446162.851832 kJ/mol
# GULP energy per Si atom -12393.412551 kJ/mol
# Density = 2.139008 g / cm^3
# Si number density = 21.438876 Si / 1000 Ang^3
#
#
#
# Elastic Constant Matrix: (Units=GPa)
#
#
# Indices 1 2 3 4 5 6 
#
# 1 151.0437 90.5141 24.9727 0.0000 0.0000 0.0000
# 2 90.5141 143.7021 29.4032 0.0000 0.0000 0.0000
# 3 24.9727 29.4032 24.7470 0.0000 0.0000 0.0000
# 4 0.0000 0.0000 0.0000 14.6574 0.0000 0.0000
# 5 0.0000 0.0000 0.0000 0.0000 18.2703 0.0000
# 6 0.0000 0.0000 0.0000 0.0000 0.0000 46.8496
#
#
#
# Elastic Compliance Matrix: (Units=1/GPa)
#
#
# Indices 1 2 3 4 5 6 
#
# 1 0.010892 -0.006093 -0.003752 0.000000 0.000000 0.000000
# 2 -0.006093 0.012602 -0.008825 0.000000 0.000000 0.000000
# 3 -0.003752 -0.008825 0.054681 0.000000 0.000000 0.000000
# 4 0.000000 0.000000 0.000000 0.068225 0.000000 0.000000
# 5 0.000000 0.000000 0.000000 0.000000 0.054734 0.000000
# 6 0.000000 0.000000 0.000000 0.000000 0.000000 0.021345
#
#
# Mechanical properties :
#
#
# Convention : Reuss Voigt Hill
#
# Bulk Modulus (GPa) = 24.48872 67.69699 46.09285
# Shear Modulus (GPa) = 18.28617 27.59565 22.94091
#
# Velocity S-wave (km/s) = 2.92369 3.59162 3.27473
# Velocity P-wave (km/s) = 4.77961 6.98891 5.98705
#
# Compressibility (1/GPa) = 0.04083513
#
# Stress axis : x y z
#
# Youngs Moduli (GPa) = 91.80853 79.35027 18.28794
#
# Poissons Ratio (x) = 0.48348 0.06862
# Poissons Ratio (y) = 0.55939 0.16139
# Poissons Ratio (z) = 0.34448 0.70026
#
# Static dielectric constant tensor:
#      x y z
#    x 3.902920 0.000000 0.000000 
#    y 0.000000 4.185320 0.000000 
#    z 0.000000 0.000000 3.319410 
# 
# 
# High freq. dielectric constant tensor:
#      x y z
#    x 1.839610 0.000000 0.000000 
#    y 0.000000 1.850690 0.000000 
#    z 0.000000 0.000000 1.793960 
# 
# From -- ./inp_files/22854.got.cif
#   From: 2010.03.12/outbox.cif.g09.slc.cpg/sg69_12_cif.got.tgz:22854.got - 2010.04.10 23:52:46.
