data_PCOD8284891
_publ_section_title
;
Structure prediction by ZEFSAII (Michael W. Deem and Ramdas Pophale) SiO2 
 PCOD8284891
Probable space group: F M M M
;
_chemical_formula_sum "Si O2"
_cell_formula_units_Z 160
_cell_length_a 29.443774
_cell_length_b 8.777121
_cell_length_c 32.492545
_cell_angle_alpha 90.000000
_cell_angle_beta 90.000000
_cell_angle_gamma 90.000000
_cell_volume 8397.099323
_symmetry_space_group_name_H-M "F M M M"
_symmetry_group_IT_number 69
_symmetry_cell_setting 'orthorhombic'
loop_
_space_group_symop_operation_xyz
x,y,z
-x,-y,z
x,-y,-z
-x,y,-z
-x,-y,-z
x,y,-z
-x,y,z
x,-y,z
x,1/2+y,1/2+z
-x,1/2-y,1/2+z
x,1/2-y,1/2-z
-x,1/2+y,1/2-z
-x,1/2-y,1/2-z
x,1/2+y,1/2-z
-x,1/2+y,1/2+z
x,1/2-y,1/2+z
1/2+x,y,1/2+z
1/2-x,-y,1/2+z
1/2+x,-y,1/2-z
1/2-x,y,1/2-z
1/2-x,-y,1/2-z
1/2+x,y,1/2-z
1/2-x,y,1/2+z
1/2+x,-y,1/2+z
1/2+x,1/2+y,z
1/2-x,1/2-y,z
1/2+x,1/2-y,-z
1/2-x,1/2+y,-z
1/2-x,1/2-y,-z
1/2+x,1/2+y,-z
1/2-x,1/2+y,z
1/2+x,1/2-y,z
loop_
_atom_site_type_symbol
_atom_site_label
_atom_site_fract_x
_atom_site_fract_y
_atom_site_fract_z
Si Si1 0.862059 0.324385 0.632493
Si Si2 0.418417 0.821566 0.000000
Si Si3 0.050498 0.675684 0.584785
Si Si4 0.707800 0.176539 0.079084
Si Si5 0.821830 0.323505 0.500000
Si Si6 0.297489 0.678264 0.206369
O O1 0.850806 0.500000 0.620876
O O2 0.915353 0.289685 0.623488
O O3 0.838569 0.203662 0.602722
O O4 0.841922 0.289728 0.677831
O O5 0.440482 0.761648 0.042117
O O6 0.365861 0.781738 0.000000
O O7 0.425129 0.000000 0.000000
O O8 0.054576 0.500000 0.572853
O O9 0.000000 0.717985 0.600636
O O10 0.750000 0.250000 0.104939
O O11 0.714187 0.000000 0.069309
O O12 0.708312 0.281231 0.038800
O O13 0.835863 0.500000 0.500000
O O14 0.288746 0.500000 0.211373
O O15 0.310346 0.750000 0.250000
O O16 0.250000 0.750000 0.189451
#
# Coordination Sequence:
#
# PCOD8284891 Si02
#       6
#    32  16  32  32  16  32
#     4  10  21  37  57  82 112 145 184 230 278 333
#     4  12  23  36  55  82 110 145 190 240 294 336
#     4  10  21  38  60  82 108 148 192 235 286 339
#     4  12  24  37  54  78 108 146 186 227 276 329
#     4  12  23  38  55  73 105 146 187 232 274 328
#     4  10  20  35  57  85 115 148 183 223 272 329
#
# _framework density 19.054199000000001
#
# number of rings (size 3 to 8) (size 9 to 14) (size 15 to 20)
#    0.000    1.200    2.000    6.000    0.000    4.800 
#    0.000    0.000    0.000    0.600    0.000    0.000 
#    0.000    0.000    0.000    0.000    0.000    0.800 
#
# Total GULP energy -495645.732734 kJ/mol
# GULP energy per Si atom -12391.143318 kJ/mol
# Density = 1.901083 g / cm^3
# Si number density = 19.054199 Si / 1000 Ang^3
#
#
#
# Elastic Constant Matrix: (Units=GPa)
#
#
# Indices 1 2 3 4 5 6 
#
# 1 154.9463 45.1013 62.6497 -0.0001 -0.0003 -0.0002
# 2 45.1013 97.1934 44.8723 0.0000 0.0000 0.0009
# 3 62.6497 44.8723 106.8125 0.0000 -0.0001 -0.0002
# 4 -0.0001 0.0000 0.0000 16.8343 0.0001 0.0001
# 5 -0.0003 0.0000 -0.0001 0.0001 12.2573 0.0003
# 6 -0.0002 0.0009 -0.0002 0.0001 0.0003 21.0768
#
#
#
# Elastic Compliance Matrix: (Units=1/GPa)
#
#
# Indices 1 2 3 4 5 6 
#
# 1 0.008795 -0.002109 -0.004273 0.000000 0.000000 0.000000
# 2 -0.002109 0.013270 -0.004338 0.000000 0.000000 -0.000001
# 3 -0.004273 -0.004338 0.013691 0.000000 0.000000 0.000000
# 4 0.000000 0.000000 0.000000 0.059403 0.000000 0.000000
# 5 0.000000 0.000000 0.000000 0.000000 0.081584 -0.000001
# 6 0.000000 -0.000001 0.000000 0.000000 -0.000001 0.047445
#
#
# Mechanical properties :
#
#
# Convention : Reuss Voigt Hill
#
# Bulk Modulus (GPa) = 69.84677 73.79987 71.82332
# Shear Modulus (GPa) = 19.96808 23.78895 21.87852
#
# Velocity S-wave (km/s) = 3.24074 3.53723 3.39222
# Velocity P-wave (km/s) = 7.12318 7.44972 7.28828
#
# Compressibility (1/GPa) = 0.01431706
#
# Stress axis : x y z
#
# Youngs Moduli (GPa) = 113.69703 75.35798 73.04143
#
# Poissons Ratio (x) = 0.15890 0.31210
# Poissons Ratio (y) = 0.23974 0.31685
# Poissons Ratio (z) = 0.48582 0.32690
#
# Static dielectric constant tensor:
#      x y z
#    x 3.740600 0.000000 0.000000 
#    y 0.000000 3.476380 0.000000 
#    z 0.000000 0.000000 3.526870 
# 
# 
# High freq. dielectric constant tensor:
#      x y z
#    x 1.743550 0.000000 0.000000 
#    y 0.000000 1.747610 0.000000 
#    z 0.000000 0.000000 1.718680 
# 
# From -- ./inp_files/47507.got.cif
#   From: 2010.03.12/outbox.cif.g09.slc.cpg/sg69_24_cif.got.tgz:47507.got - 2010.04.10 23:52:46.
