data_PCOD8284453
_publ_section_title
;
Structure prediction by ZEFSAII (Michael W. Deem and Ramdas Pophale) SiO2 
 PCOD8284453
Probable space group: F M M M
;
_chemical_formula_sum "Si O2"
_cell_formula_units_Z 160
_cell_length_a 17.476202
_cell_length_b 27.578716
_cell_length_c 17.798486
_cell_angle_alpha 90.000000
_cell_angle_beta 90.000000
_cell_angle_gamma 90.000000
_cell_volume 8578.357864
_symmetry_space_group_name_H-M "F M M M"
_symmetry_group_IT_number 69
_symmetry_cell_setting 'orthorhombic'
loop_
_space_group_symop_operation_xyz
x,y,z
-x,-y,z
x,-y,-z
-x,y,-z
-x,-y,-z
x,y,-z
-x,y,z
x,-y,z
x,1/2+y,1/2+z
-x,1/2-y,1/2+z
x,1/2-y,1/2-z
-x,1/2+y,1/2-z
-x,1/2-y,1/2-z
x,1/2+y,1/2-z
-x,1/2+y,1/2+z
x,1/2-y,1/2+z
1/2+x,y,1/2+z
1/2-x,-y,1/2+z
1/2+x,-y,1/2-z
1/2-x,y,1/2-z
1/2-x,-y,1/2-z
1/2+x,y,1/2-z
1/2-x,y,1/2+z
1/2+x,-y,1/2+z
1/2+x,1/2+y,z
1/2-x,1/2-y,z
1/2+x,1/2-y,-z
1/2-x,1/2+y,-z
1/2-x,1/2-y,-z
1/2+x,1/2+y,-z
1/2-x,1/2+y,z
1/2+x,1/2-y,z
loop_
_atom_site_type_symbol
_atom_site_label
_atom_site_fract_x
_atom_site_fract_y
_atom_site_fract_z
Si Si1 0.221905 0.055288 0.413352
Si Si2 0.816655 0.123107 0.191175
Si Si3 0.835384 0.768048 0.169551
Si Si4 0.089472 0.689487 0.081877
Si Si5 0.590140 0.597535 0.324519
O O1 0.212386 0.070987 0.500000
O O2 0.287174 0.088275 0.374906
O O3 0.139706 0.058667 0.371315
O O4 0.249795 0.000000 0.406937
O O5 0.750000 0.134458 0.250000
O O6 0.843903 0.174380 0.157665
O O7 0.886525 0.097367 0.236385
O O8 0.866405 0.750000 0.250000
O O9 0.750000 0.750000 0.157033
O O10 0.887126 0.743217 0.106519
O O11 0.116433 0.649581 0.142014
O O12 0.000000 0.687164 0.074783
O O13 0.125945 0.678096 0.000000
O O14 0.500000 0.586172 0.333363
#
# Coordination Sequence:
#
# PCOD8284453 Si02
#       5
#    32  32  32  32  32
#     4  10  22  39  58  80 107 142 182 229 282 327
#     4  10  19  34  56  79 108 141 184 225 269 324
#     4  11  18  31  51  77 106 140 180 220 258 308
#     4  10  21  34  49  75 111 147 179 214 265 325
#     4  10  20  34  55  82 111 143 178 222 271 326
#
# _framework density 18.651589000000001
#
# number of rings (size 3 to 8) (size 9 to 14) (size 15 to 20)
#    0.000    1.800    4.000    1.800    0.000    7.600 
#    0.000    1.000    0.000    0.600    0.000    1.400 
#    0.000    0.000    0.000    0.000    0.000    0.000 
#
# Total GULP energy -495949.651543 kJ/mol
# GULP energy per Si atom -12398.741289 kJ/mol
# Density = 1.860914 g / cm^3
# Si number density = 18.651589 Si / 1000 Ang^3
#
#
#
# Elastic Constant Matrix: (Units=GPa)
#
#
# Indices 1 2 3 4 5 6 
#
# 1 44.4244 25.2328 42.7124 0.0000 0.0000 0.0000
# 2 25.2328 100.8671 43.3320 0.0000 0.0000 0.0000
# 3 42.7124 43.3320 97.4151 0.0000 0.0000 0.0000
# 4 0.0000 0.0000 0.0000 31.6084 0.0000 0.0000
# 5 0.0000 0.0000 0.0000 0.0000 22.9934 0.0000
# 6 0.0000 0.0000 0.0000 0.0000 0.0000 21.6355
#
#
#
# Elastic Compliance Matrix: (Units=1/GPa)
#
#
# Indices 1 2 3 4 5 6 
#
# 1 0.039650 -0.003029 -0.016037 0.000000 0.000000 0.000000
# 2 -0.003029 0.012487 -0.004226 0.000000 0.000000 0.000000
# 3 -0.016037 -0.004226 0.019177 0.000000 0.000000 0.000000
# 4 0.000000 0.000000 0.000000 0.031637 0.000000 0.000000
# 5 0.000000 0.000000 0.000000 0.000000 0.043491 0.000000
# 6 0.000000 0.000000 0.000000 0.000000 0.000000 0.046220
#
#
# Mechanical properties :
#
#
# Convention : Reuss Voigt Hill
#
# Bulk Modulus (GPa) = 40.43927 51.69566 46.06746
# Shear Modulus (GPa) = 20.20267 24.00943 22.10605
#
# Velocity S-wave (km/s) = 3.29471 3.59173 3.44642
# Velocity P-wave (km/s) = 6.01681 6.70652 6.37100
#
# Compressibility (1/GPa) = 0.02472844
#
# Stress axis : x y z
#
# Youngs Moduli (GPa) = 25.22059 80.08010 52.14553
#
# Poissons Ratio (x) = 0.24258 0.83628
# Poissons Ratio (y) = 0.07640 0.22039
# Poissons Ratio (z) = 0.40447 0.33846
#
# Static dielectric constant tensor:
#      x y z
#    x 3.252870 0.000000 0.000000 
#    y 0.000000 3.200780 0.000000 
#    z 0.000000 0.000000 3.753280 
# 
# 
# High freq. dielectric constant tensor:
#      x y z
#    x 1.702940 0.000000 0.000000 
#    y 0.000000 1.719480 0.000000 
#    z 0.000000 0.000000 1.721140 
# 
# From -- ./inp_files/23130.got.cif
#   From: 2010.03.12/outbox.cif.g09.slc.cpg/sg69_12_cif.got.tgz:23130.got - 2010.04.10 23:52:46.
