data_PCOD8284932
_publ_section_title
;
Structure prediction by ZEFSAII (Michael W. Deem and Ramdas Pophale) SiO2 
 PCOD8284932
Probable space group: F M M M
;
_chemical_formula_sum "Si O2"
_cell_formula_units_Z 160
_cell_length_a 26.751988
_cell_length_b 9.757716
_cell_length_c 33.244887
_cell_angle_alpha 90.000000
_cell_angle_beta 90.000000
_cell_angle_gamma 90.000000
_cell_volume 8678.188831
_symmetry_space_group_name_H-M "F M M M"
_symmetry_group_IT_number 69
_symmetry_cell_setting 'orthorhombic'
loop_
_space_group_symop_operation_xyz
x,y,z
-x,-y,z
x,-y,-z
-x,y,-z
-x,-y,-z
x,y,-z
-x,y,z
x,-y,z
x,1/2+y,1/2+z
-x,1/2-y,1/2+z
x,1/2-y,1/2-z
-x,1/2+y,1/2-z
-x,1/2-y,1/2-z
x,1/2+y,1/2-z
-x,1/2+y,1/2+z
x,1/2-y,1/2+z
1/2+x,y,1/2+z
1/2-x,-y,1/2+z
1/2+x,-y,1/2-z
1/2-x,y,1/2-z
1/2-x,-y,1/2-z
1/2+x,y,1/2-z
1/2-x,y,1/2+z
1/2+x,-y,1/2+z
1/2+x,1/2+y,z
1/2-x,1/2-y,z
1/2+x,1/2-y,-z
1/2-x,1/2+y,-z
1/2-x,1/2-y,-z
1/2+x,1/2+y,-z
1/2-x,1/2+y,z
1/2+x,1/2-y,z
loop_
_atom_site_type_symbol
_atom_site_label
_atom_site_fract_x
_atom_site_fract_y
_atom_site_fract_z
Si Si1 0.000000 0.837114 0.790096
Si Si2 0.790201 0.351510 0.428179
Si Si3 0.596525 0.838099 0.340921
Si Si4 0.794044 0.654198 0.667516
Si Si5 0.557203 0.848747 0.000000
Si Si6 0.402589 0.339818 0.931799
O O1 0.000000 0.750000 0.750000
O O2 0.950367 0.791737 0.814156
O O3 0.000000 0.000000 0.781380
O O4 0.773505 0.500000 0.443289
O O5 0.750000 0.250000 0.447380
O O6 0.790101 0.347178 0.380222
O O7 0.845094 0.318313 0.444212
O O8 0.649968 0.786527 0.322317
O O9 0.587700 0.786373 0.386383
O O10 0.601345 0.000000 0.343380
O O11 0.786795 0.500000 0.684706
O O12 0.750000 0.750000 0.686025
O O13 0.567206 0.759152 0.039448
O O14 0.500000 0.882762 0.000000
O O15 0.584472 0.000000 0.000000
O O16 0.418344 0.500000 0.936861
#
# Coordination Sequence:
#
# PCOD8284932 Si02
#       6
#    16  32  32  32  16  32
#     4  10  20  36  56  79 106 135 165 206 257 304
#     4   8  14  25  44  71 100 125 158 202 247 293
#     4   8  16  31  54  79 102 131 172 214 250 295
#     4   8  13  24  43  71 102 129 160 203 248 293
#     4  11  25  39  48  67 102 135 162 209 270 311
#     4   9  18  34  55  77  96 127 177 217 241 290
#
# _framework density 18.437028000000002
#
# number of rings (size 3 to 8) (size 9 to 14) (size 15 to 20)
#    0.000    3.300    0.000    2.700    1.400    1.600 
#    0.000    5.500    0.000    0.600    0.000    4.200 
#    0.000    0.000    0.000    0.000    0.000    0.000 
#
# Total GULP energy -495584.152101 kJ/mol
# GULP energy per Si atom -12389.603803 kJ/mol
# Density = 1.839506 g / cm^3
# Si number density = 18.437028 Si / 1000 Ang^3
#
#
#
# Elastic Constant Matrix: (Units=GPa)
#
#
# Indices 1 2 3 4 5 6 
#
# 1 142.7241 62.3058 48.7512 0.0001 0.0000 -0.0003
# 2 62.3058 87.6841 40.3245 0.0003 0.0000 -0.0001
# 3 48.7512 40.3245 69.2731 0.0000 0.0000 0.0000
# 4 0.0001 0.0003 0.0000 61.8298 0.0000 -0.0002
# 5 0.0000 0.0000 0.0000 0.0000 -0.4799 0.0000
# 6 -0.0003 -0.0001 0.0000 -0.0002 0.0000 29.2873
#
#
#
# Elastic Compliance Matrix: (Units=1/GPa)
#
#
# Indices 1 2 3 4 5 6 
#
# 1 0.011051 -0.005839 -0.004378 0.000000 0.000000 0.000000
# 2 -0.005839 0.018659 -0.006752 0.000000 -0.000001 0.000000
# 3 -0.004378 -0.006752 0.021447 0.000000 0.000001 0.000000
# 4 0.000000 0.000000 0.000000 0.016173 0.000001 0.000000
# 5 0.000000 -0.000001 0.000001 0.000001 -2.083624 0.000002
# 6 0.000000 0.000000 0.000000 0.000000 0.000002 0.034144
#
#
# Mechanical properties :
#
#
# Convention : Reuss Voigt Hill
#
# Bulk Modulus (GPa) = 58.07811 66.93826 62.50818
# Shear Modulus (GPa) = -2.57404 28.01409 12.72003
#
# Velocity S-wave (km/s) = -1.18286 3.90224 2.62948
# Velocity P-wave (km/s) = 5.45010 7.52918 6.57237
#
# Compressibility (1/GPa) = 0.01721819
#
# Stress axis : x y z
#
# Youngs Moduli (GPa) = 90.48904 53.59366 46.62577
#
# Poissons Ratio (x) = 0.31294 0.20414
# Poissons Ratio (y) = 0.52837 0.31483
# Poissons Ratio (z) = 0.39618 0.36188
#
# Static dielectric constant tensor:
#      x y z
#    x 3.808260 0.000000 0.000000 
#    y 0.000000 3.420910 0.000000 
#    z 0.000000 0.000000 3.021790 
# 
# 
# High freq. dielectric constant tensor:
#      x y z
#    x 1.726500 0.000000 0.000000 
#    y 0.000000 1.693400 0.000000 
#    z 0.000000 0.000000 1.677940 
# 
# From -- ./inp_files/47491.got.cif
#   From: 2010.03.12/outbox.cif.g09.slc.cpg/sg69_24_cif.got.tgz:47491.got - 2010.04.10 23:52:46.
