data_PCOD8284258
_publ_section_title
;
Structure prediction by ZEFSAII (Michael W. Deem and Ramdas Pophale) SiO2 
 PCOD8284258
Probable space group: F M M M
;
_chemical_formula_sum "Si O2"
_cell_formula_units_Z 208
_cell_length_a 18.070175
_cell_length_b 28.910841
_cell_length_c 23.525649
_cell_angle_alpha 90.000000
_cell_angle_beta 90.000000
_cell_angle_gamma 90.000000
_cell_volume 12290.362624
_symmetry_space_group_name_H-M "F M M M"
_symmetry_group_IT_number 69
_symmetry_cell_setting 'orthorhombic'
loop_
_space_group_symop_operation_xyz
x,y,z
-x,-y,z
x,-y,-z
-x,y,-z
-x,-y,-z
x,y,-z
-x,y,z
x,-y,z
x,1/2+y,1/2+z
-x,1/2-y,1/2+z
x,1/2-y,1/2-z
-x,1/2+y,1/2-z
-x,1/2-y,1/2-z
x,1/2+y,1/2-z
-x,1/2+y,1/2+z
x,1/2-y,1/2+z
1/2+x,y,1/2+z
1/2-x,-y,1/2+z
1/2+x,-y,1/2-z
1/2-x,y,1/2-z
1/2-x,-y,1/2-z
1/2+x,y,1/2-z
1/2-x,y,1/2+z
1/2+x,-y,1/2+z
1/2+x,1/2+y,z
1/2-x,1/2-y,z
1/2+x,1/2-y,-z
1/2-x,1/2+y,-z
1/2-x,1/2-y,-z
1/2+x,1/2+y,-z
1/2-x,1/2+y,z
1/2+x,1/2-y,z
loop_
_atom_site_type_symbol
_atom_site_label
_atom_site_fract_x
_atom_site_fract_y
_atom_site_fract_z
Si Si1 0.584543 0.000000 0.067171
Si Si2 0.913982 0.553959 0.256767
Si Si3 0.788541 0.607485 0.690776
Si Si4 0.648199 0.331171 0.435629
Si Si5 0.582961 0.265499 0.935909
Si Si6 0.354309 0.417780 0.635972
Si Si7 0.217101 0.797753 0.132866
O O1 0.627653 0.956128 0.090125
O O2 0.500000 0.000000 0.089368
O O3 0.587597 0.000000 0.000000
O O4 0.891054 0.500000 0.257690
O O5 0.868141 0.581921 0.305373
O O6 0.898167 0.574554 0.194452
O O7 0.000000 0.560392 0.271296
O O8 0.750000 0.599086 0.750000
O O9 0.735032 0.583262 0.644342
O O10 0.793378 0.662508 0.680019
O O11 0.652672 0.350661 0.500000
O O12 0.589944 0.289767 0.431454
O O13 0.619455 0.369570 0.391548
O O14 0.729315 0.312932 0.418271
O O15 0.500000 0.279546 0.919165
O O16 0.636004 0.291180 0.892407
O O17 0.601758 0.281390 0.000000
O O18 0.250000 0.750000 0.160121
#
# Coordination Sequence:
#
# PCOD8284258 Si02
#       7
#    16  32  32  32  32  32  32
#     4  11  22  32  45  70 101 129 154 185 230 278
#     4  10  20  34  52  72  97 126 161 206 254 296
#     4   9  20  33  51  74  92 123 165 205 243 287
#     4   9  17  30  47  68  95 128 162 192 227 282
#     4   9  17  28  45  70  97 126 158 193 235 282
#     4  10  19  32  50  69  95 128 160 194 233 283
#     4   9  17  31  49  69  95 126 159 199 244 285
#
# _framework density 16.923829999999999
#
# number of rings (size 3 to 8) (size 9 to 14) (size 15 to 20)
#    0.000    2.538    0.769    1.385    1.077    4.923 
#    0.000    1.538    0.000    0.000    0.000    8.615 
#    0.000    0.615    0.000    0.000    0.000    0.000 
#
# Total GULP energy -644613.943056 kJ/mol
# GULP energy per Si atom -12396.421982 kJ/mol
# Density = 1.688531 g / cm^3
# Si number density = 16.923830 Si / 1000 Ang^3
#
#
#
# Elastic Constant Matrix: (Units=GPa)
#
#
# Indices 1 2 3 4 5 6 
#
# 1 85.7368 43.2925 22.6769 0.0000 0.0000 0.0000
# 2 43.2925 96.3480 28.7619 0.0000 0.0000 0.0000
# 3 22.6769 28.7619 43.1244 0.0000 0.0000 0.0000
# 4 0.0000 0.0000 0.0000 24.1199 0.0000 0.0000
# 5 0.0000 0.0000 0.0000 0.0000 19.9837 0.0000
# 6 0.0000 0.0000 0.0000 0.0000 0.0000 25.0987
#
#
#
# Elastic Compliance Matrix: (Units=1/GPa)
#
#
# Indices 1 2 3 4 5 6 
#
# 1 0.015741 -0.005746 -0.004445 0.000000 0.000000 0.000000
# 2 -0.005746 0.015057 -0.007021 0.000000 0.000000 0.000000
# 3 -0.004445 -0.007021 0.030208 0.000000 0.000000 0.000000
# 4 0.000000 0.000000 0.000000 0.041460 0.000000 0.000000
# 5 0.000000 0.000000 0.000000 0.000000 0.050041 0.000000
# 6 0.000000 0.000000 0.000000 0.000000 0.000000 0.039843
#
#
# Mechanical properties :
#
#
# Convention : Reuss Voigt Hill
#
# Bulk Modulus (GPa) = 37.61819 46.07465 41.84642
# Shear Modulus (GPa) = 21.21947 22.53899 21.87923
#
# Velocity S-wave (km/s) = 3.54478 3.65333 3.59946
# Velocity P-wave (km/s) = 6.24741 6.71413 6.48497
#
# Compressibility (1/GPa) = 0.02658289
#
# Stress axis : x y z
#
# Youngs Moduli (GPa) = 63.52980 66.41575 33.10328
#
# Poissons Ratio (x) = 0.38162 0.14714
# Poissons Ratio (y) = 0.36504 0.23240
# Poissons Ratio (z) = 0.28239 0.46628
#
# Static dielectric constant tensor:
#      x y z
#    x 3.298700 0.000000 0.000000 
#    y 0.000000 3.340770 0.000000 
#    z 0.000000 0.000000 3.081270 
# 
# 
# High freq. dielectric constant tensor:
#      x y z
#    x 1.652960 0.000000 0.000000 
#    y 0.000000 1.653340 0.000000 
#    z 0.000000 0.000000 1.635290 
# 
# From -- ./inp_files/27011.got.cif
#   From: 2010.03.12/outbox.cif.g09.slc.cpg/sg69_14_cif.got.tgz:27011.got - 2010.04.10 23:52:46.
