data_PCOD8284345
_publ_section_title
;
Structure prediction by ZEFSAII (Michael W. Deem and Ramdas Pophale) SiO2 
 PCOD8284345
Probable space group: F M M M
;
_chemical_formula_sum "Si O2"
_cell_formula_units_Z 240
_cell_length_a 18.370125
_cell_length_b 21.450535
_cell_length_c 31.361133
_cell_angle_alpha 90.000000
_cell_angle_beta 90.000000
_cell_angle_gamma 90.000000
_cell_volume 12357.823388
_symmetry_space_group_name_H-M "F M M M"
_symmetry_group_IT_number 69
_symmetry_cell_setting 'orthorhombic'
loop_
_space_group_symop_operation_xyz
x,y,z
-x,-y,z
x,-y,-z
-x,y,-z
-x,-y,-z
x,y,-z
-x,y,z
x,-y,z
x,1/2+y,1/2+z
-x,1/2-y,1/2+z
x,1/2-y,1/2-z
-x,1/2+y,1/2-z
-x,1/2-y,1/2-z
x,1/2+y,1/2-z
-x,1/2+y,1/2+z
x,1/2-y,1/2+z
1/2+x,y,1/2+z
1/2-x,-y,1/2+z
1/2+x,-y,1/2-z
1/2-x,y,1/2-z
1/2-x,-y,1/2-z
1/2+x,y,1/2-z
1/2-x,y,1/2+z
1/2+x,-y,1/2+z
1/2+x,1/2+y,z
1/2-x,1/2-y,z
1/2+x,1/2-y,-z
1/2-x,1/2+y,-z
1/2-x,1/2-y,-z
1/2+x,1/2+y,-z
1/2-x,1/2+y,z
1/2+x,1/2-y,z
loop_
_atom_site_type_symbol
_atom_site_label
_atom_site_fract_x
_atom_site_fract_y
_atom_site_fract_z
Si Si1 0.414376 0.361373 0.318191
Si Si2 0.417480 0.645712 0.451227
Si Si3 0.417250 0.744719 0.380208
Si Si4 0.335226 0.428987 0.756518
Si Si5 0.185913 0.570272 0.651554
Si Si6 0.833993 0.071909 0.386636
Si Si7 0.586412 0.124246 0.588942
Si Si8 0.086289 0.571003 0.500000
O O1 0.500000 0.358171 0.309084
O O2 0.385253 0.296196 0.340360
O O3 0.373597 0.378960 0.274574
O O4 0.398492 0.415245 0.352827
O O5 0.397494 0.660023 0.500000
O O6 0.500000 0.618818 0.447353
O O7 0.411193 0.709184 0.424932
O O8 0.357847 0.598151 0.432583
O O9 0.500000 0.757633 0.367980
O O10 0.380460 0.811646 0.390479
O O11 0.366878 0.500000 0.750337
O O12 0.250000 0.430371 0.750000
O O13 0.345104 0.401043 0.804265
O O14 0.208150 0.500000 0.663415
O O15 0.258920 0.602560 0.631918
O O16 0.120555 0.570124 0.617706
O O17 0.820971 0.000000 0.393893
O O18 0.500000 0.122278 0.591282
O O19 0.613047 0.110756 0.540819
O O20 0.118215 0.500000 0.500000
O O21 0.000000 0.565764 0.500000
#
# Coordination Sequence:
#
# PCOD8284345 Si02
#       8
#    32  32  32  32  32  32  32  16
#     4  10  19  33  55  83 111 141 182 228 266 324
#     4   9  18  32  52  78 108 140 181 231 271 322
#     4   8  17  33  54  80 109 142 180 223 273 324
#     4  10  19  34  56  79 108 146 183 226 280 334
#     4  10  21  36  55  78 109 145 179 227 287 338
#     4  10  19  33  51  74 108 148 180 218 277 335
#     4  10  20  36  58  81 109 146 186 230 279 332
#     4   9  18  32  54  84 111 140 186 242 285 324
#
# _framework density 19.420895999999999
#
# number of rings (size 3 to 8) (size 9 to 14) (size 15 to 20)
#    0.000    2.467    1.333    2.000    0.933    3.467 
#    1.200    5.333    0.000    4.000    0.000    0.000 
#    0.000    0.000    0.000    0.000    0.000    0.000 
#
# Total GULP energy -743293.330112 kJ/mol
# GULP energy per Si atom -12388.222169 kJ/mol
# Density = 1.937669 g / cm^3
# Si number density = 19.420896 Si / 1000 Ang^3
#
#
#
# Elastic Constant Matrix: (Units=GPa)
#
#
# Indices 1 2 3 4 5 6 
#
# 1 48.6285 31.9180 51.1980 0.0000 0.0000 0.0000
# 2 31.9180 72.9796 38.7741 0.0000 0.0000 0.0000
# 3 51.1980 38.7741 155.7985 0.0000 0.0000 0.0000
# 4 0.0000 0.0000 0.0000 22.6063 0.0000 0.0000
# 5 0.0000 0.0000 0.0000 0.0000 35.3708 0.0000
# 6 0.0000 0.0000 0.0000 0.0000 0.0000 14.8046
#
#
#
# Elastic Compliance Matrix: (Units=1/GPa)
#
#
# Indices 1 2 3 4 5 6 
#
# 1 0.038465 -0.011647 -0.009742 0.000000 0.000000 0.000000
# 2 -0.011647 0.019317 -0.000980 0.000000 0.000000 0.000000
# 3 -0.009742 -0.000980 0.009864 0.000000 0.000000 0.000000
# 4 0.000000 0.000000 0.000000 0.044235 0.000000 0.000000
# 5 0.000000 0.000000 0.000000 0.000000 0.028272 0.000000
# 6 0.000000 0.000000 0.000000 0.000000 0.000000 0.067547
#
#
# Mechanical properties :
#
#
# Convention : Reuss Voigt Hill
#
# Bulk Modulus (GPa) = 43.65234 57.90965 50.78099
# Shear Modulus (GPa) = 19.22530 24.92411 22.07470
#
# Velocity S-wave (km/s) = 3.14973 3.58630 3.37508
# Velocity P-wave (km/s) = 5.97942 6.85796 6.43371
#
# Compressibility (1/GPa) = 0.02290828
#
# Stress axis : x y z
#
# Youngs Moduli (GPa) = 25.99750 51.76752 101.38161
#
# Poissons Ratio (x) = 0.60295 0.98762
# Poissons Ratio (y) = 0.30280 0.09936
# Poissons Ratio (z) = 0.25326 0.05073
#
# Static dielectric constant tensor:
#      x y z
#    x 3.320820 0.000000 0.000000 
#    y 0.000000 3.541670 0.000000 
#    z 0.000000 0.000000 4.064540 
# 
# 
# High freq. dielectric constant tensor:
#      x y z
#    x 1.730920 0.000000 0.000000 
#    y 0.000000 1.735810 0.000000 
#    z 0.000000 0.000000 1.766910 
# 
# From -- ./inp_files/42837.got.cif
#   From: 2010.03.12/outbox.cif.g09.slc.cpg/sg69_22_cif.got.tgz:42837.got - 2010.04.10 23:52:46.
