data_PCOD8284422
_publ_section_title
;
Structure prediction by ZEFSAII (Michael W. Deem and Ramdas Pophale) SiO2 
 PCOD8284422
Probable space group: F M M M
;
_chemical_formula_sum "Si O2"
_cell_formula_units_Z 192
_cell_length_a 14.668414
_cell_length_b 30.500213
_cell_length_c 23.834714
_cell_angle_alpha 90.000000
_cell_angle_beta 90.000000
_cell_angle_gamma 90.000000
_cell_volume 10663.406770
_symmetry_space_group_name_H-M "F M M M"
_symmetry_group_IT_number 69
_symmetry_cell_setting 'orthorhombic'
loop_
_space_group_symop_operation_xyz
x,y,z
-x,-y,z
x,-y,-z
-x,y,-z
-x,-y,-z
x,y,-z
-x,y,z
x,-y,z
x,1/2+y,1/2+z
-x,1/2-y,1/2+z
x,1/2-y,1/2-z
-x,1/2+y,1/2-z
-x,1/2-y,1/2-z
x,1/2+y,1/2-z
-x,1/2+y,1/2+z
x,1/2-y,1/2+z
1/2+x,y,1/2+z
1/2-x,-y,1/2+z
1/2+x,-y,1/2-z
1/2-x,y,1/2-z
1/2-x,-y,1/2-z
1/2+x,y,1/2-z
1/2-x,y,1/2+z
1/2+x,-y,1/2+z
1/2+x,1/2+y,z
1/2-x,1/2-y,z
1/2+x,1/2-y,-z
1/2-x,1/2+y,-z
1/2-x,1/2-y,-z
1/2+x,1/2+y,-z
1/2-x,1/2+y,z
1/2+x,1/2-y,z
loop_
_atom_site_type_symbol
_atom_site_label
_atom_site_fract_x
_atom_site_fract_y
_atom_site_fract_z
Si Si1 0.652123 0.551518 0.740967
Si Si2 0.302312 0.792130 0.066696
Si Si3 0.500000 0.551484 0.821428
Si Si4 0.671876 0.949715 0.116225
Si Si5 0.000000 0.316638 0.933080
Si Si6 0.500000 0.913295 0.063522
Si Si7 0.798066 0.120361 0.935209
Si Si8 0.000000 0.403195 0.563437
O O1 0.656275 0.500000 0.752379
O O2 0.750000 0.573502 0.750000
O O3 0.585189 0.572381 0.787402
O O4 0.626302 0.561289 0.676548
O O5 0.250000 0.750000 0.092164
O O6 0.407524 0.792511 0.088080
O O7 0.249379 0.835559 0.087353
O O8 0.299311 0.790293 0.000000
O O9 0.500000 0.500000 0.813139
O O10 0.500000 0.560547 0.887719
O O11 0.589879 0.941691 0.073774
O O12 0.759991 0.920379 0.101163
O O13 0.705836 0.000000 0.113570
O O14 0.000000 0.365725 0.906229
O O15 0.000000 0.316936 0.000000
O O16 0.500000 0.899710 0.000000
O O17 0.907888 0.125363 0.928759
O O18 0.771979 0.111861 0.000000
O O19 0.000000 0.424088 0.500000
#
# Coordination Sequence:
#
# PCOD8284422 Si02
#       8
#    32  32  16  32  16  16  32  16
#     4   9  18  32  49  68  91 124 169 221 267 297
#     4   9  17  30  50  72  98 135 173 211 262 316
#     4  10  19  34  52  69  96 132 171 219 263 299
#     4  11  21  32  49  73 101 138 179 215 258 312
#     4   9  16  29  47  69  98 132 166 206 258 312
#     4  11  20  31  46  68 104 142 170 204 254 306
#     4  10  20  34  48  70 105 140 175 219 261 307
#     4  10  22  35  50  71  99 137 172 208 260 313
#
# _framework density 18.005503000000001
#
# number of rings (size 3 to 8) (size 9 to 14) (size 15 to 20)
#    0.000    2.167    1.667    2.250    0.000    5.833 
#    0.000    5.000    0.000    0.000    0.000    0.000 
#    0.000    7.333    0.000    0.000    0.000    0.000 
#
# Total GULP energy -594777.306915 kJ/mol
# GULP energy per Si atom -12391.193894 kJ/mol
# Density = 1.796452 g / cm^3
# Si number density = 18.005503 Si / 1000 Ang^3
#
#
#
# Elastic Constant Matrix: (Units=GPa)
#
#
# Indices 1 2 3 4 5 6 
#
# 1 159.7316 50.5116 38.4564 0.0000 0.0000 0.0000
# 2 50.5116 94.9363 27.0460 0.0000 0.0000 0.0000
# 3 38.4564 27.0460 65.5940 0.0000 0.0000 0.0000
# 4 0.0000 0.0000 0.0000 2.9858 0.0000 0.0000
# 5 0.0000 0.0000 0.0000 0.0000 23.6575 0.0000
# 6 0.0000 0.0000 0.0000 0.0000 0.0000 18.9347
#
#
#
# Elastic Compliance Matrix: (Units=1/GPa)
#
#
# Indices 1 2 3 4 5 6 
#
# 1 0.008140 -0.003367 -0.003384 0.000000 0.000000 0.000000
# 2 -0.003367 0.013328 -0.003522 0.000000 0.000000 0.000000
# 3 -0.003384 -0.003522 0.018681 0.000000 0.000000 0.000000
# 4 0.000000 0.000000 0.000000 0.334923 0.000000 0.000000
# 5 0.000000 0.000000 0.000000 0.000000 0.042270 0.000000
# 6 0.000000 0.000000 0.000000 0.000000 0.000000 0.052813
#
#
# Mechanical properties :
#
#
# Convention : Reuss Voigt Hill
#
# Bulk Modulus (GPa) = 51.00904 61.36555 56.18729
# Shear Modulus (GPa) = 10.05561 22.73211 16.39386
#
# Velocity S-wave (km/s) = 2.36577 3.55703 3.02071
# Velocity P-wave (km/s) = 5.98779 7.14322 6.59087
#
# Compressibility (1/GPa) = 0.01960437
#
# Stress axis : x y z
#
# Youngs Moduli (GPa) = 122.85130 75.03015 53.52942
#
# Poissons Ratio (x) = 0.25262 0.18115
# Poissons Ratio (y) = 0.41362 0.18851
# Poissons Ratio (z) = 0.41573 0.26422
#
# Static dielectric constant tensor:
#      x y z
#    x 3.718880 0.000000 0.000000 
#    y 0.000000 3.082010 0.000000 
#    z 0.000000 0.000000 3.149670 
# 
# 
# High freq. dielectric constant tensor:
#      x y z
#    x 1.720660 0.000000 0.000000 
#    y 0.000000 1.654660 0.000000 
#    z 0.000000 0.000000 1.664850 
# 
# From -- ./inp_files/41372.got.cif
#   From: 2010.03.12/outbox.cif.g09.slc.cpg/sg69_21_cif.got.tgz:41372.got - 2010.04.10 23:52:46.
