data_PCOD8284643
_publ_section_title
;
Structure prediction by ZEFSAII (Michael W. Deem and Ramdas Pophale) SiO2 
 PCOD8284643
Probable space group: F M M M
;
_chemical_formula_sum "Si O2"
_cell_formula_units_Z 224
_cell_length_a 30.365610
_cell_length_b 24.067613
_cell_length_c 16.995860
_cell_angle_alpha 90.000000
_cell_angle_beta 90.000000
_cell_angle_gamma 90.000000
_cell_volume 12421.046123
_symmetry_space_group_name_H-M "F M M M"
_symmetry_group_IT_number 69
_symmetry_cell_setting 'orthorhombic'
loop_
_space_group_symop_operation_xyz
x,y,z
-x,-y,z
x,-y,-z
-x,y,-z
-x,-y,-z
x,y,-z
-x,y,z
x,-y,z
x,1/2+y,1/2+z
-x,1/2-y,1/2+z
x,1/2-y,1/2-z
-x,1/2+y,1/2-z
-x,1/2-y,1/2-z
x,1/2+y,1/2-z
-x,1/2+y,1/2+z
x,1/2-y,1/2+z
1/2+x,y,1/2+z
1/2-x,-y,1/2+z
1/2+x,-y,1/2-z
1/2-x,y,1/2-z
1/2-x,-y,1/2-z
1/2+x,y,1/2-z
1/2-x,y,1/2+z
1/2+x,-y,1/2+z
1/2+x,1/2+y,z
1/2-x,1/2-y,z
1/2+x,1/2-y,-z
1/2-x,1/2+y,-z
1/2-x,1/2-y,-z
1/2+x,1/2+y,-z
1/2-x,1/2+y,z
1/2+x,1/2-y,z
loop_
_atom_site_type_symbol
_atom_site_label
_atom_site_fract_x
_atom_site_fract_y
_atom_site_fract_z
Si Si1 0.048439 0.843273 0.735404
Si Si2 0.136207 0.701257 0.414860
Si Si3 0.130715 0.101024 0.800482
Si Si4 0.290526 0.712763 0.408810
Si Si5 0.288532 0.602136 0.689192
Si Si6 0.753704 0.000000 0.407980
Si Si7 0.548288 0.253896 0.127968
Si Si8 0.850591 0.500000 0.406880
O O1 0.084358 0.890702 0.754991
O O2 0.058837 0.809700 0.654741
O O3 0.047671 0.795628 0.799689
O O4 0.000000 0.871904 0.730416
O O5 0.151272 0.676570 0.500000
O O6 0.143567 0.656819 0.346700
O O7 0.165217 0.753823 0.391671
O O8 0.086607 0.723557 0.428011
O O9 0.167208 0.086066 0.735829
O O10 0.126926 0.053071 0.865837
O O11 0.283954 0.697327 0.500000
O O12 0.250000 0.750000 0.378559
O O13 0.295329 0.657049 0.360437
O O14 0.250000 0.612833 0.750000
O O15 0.275937 0.553391 0.630083
O O16 0.763938 0.000000 0.500000
O O17 0.701597 0.000000 0.391447
O O18 0.500000 0.255247 0.086407
O O19 0.861505 0.500000 0.500000
#
# Coordination Sequence:
#
# PCOD8284643 Si02
#       8
#    32  32  32  32  32  16  32  16
#     4   8  15  29  50  75 103 134 168 212 267 312
#     4  10  20  33  48  73 108 146 181 214 262 322
#     4  11  21  34  55  78 105 137 180 230 266 312
#     4  10  22  36  50  72 107 144 172 204 257 320
#     4  12  22  36  56  82 104 129 174 224 262 312
#     4  11  24  42  60  76 103 137 173 221 276 326
#     4   8  14  27  48  74 101 132 172 216 259 305
#     4  11  23  39  56  74 101 139 180 222 274 329
#
# _framework density 18.033906999999999
#
# number of rings (size 3 to 8) (size 9 to 14) (size 15 to 20)
#    0.000    2.000    1.429    4.071    0.000    3.429 
#    0.000    0.357    0.000    1.714    0.000    0.000 
#    0.000    0.571    0.000    0.000    0.000    0.286 
#
# Total GULP energy -694123.316789 kJ/mol
# GULP energy per Si atom -12395.059228 kJ/mol
# Density = 1.799286 g / cm^3
# Si number density = 18.033907 Si / 1000 Ang^3
#
#
#
# Elastic Constant Matrix: (Units=GPa)
#
#
# Indices 1 2 3 4 5 6 
#
# 1 91.9591 25.5579 11.8003 0.0000 0.0000 0.0000
# 2 25.5579 78.0561 31.0260 0.0000 0.0000 0.0000
# 3 11.8003 31.0260 56.1355 0.0000 0.0000 0.0000
# 4 0.0000 0.0000 0.0000 32.7649 0.0000 0.0000
# 5 0.0000 0.0000 0.0000 0.0000 50.2302 0.0000
# 6 0.0000 0.0000 0.0000 0.0000 0.0000 48.4961
#
#
#
# Elastic Compliance Matrix: (Units=1/GPa)
#
#
# Indices 1 2 3 4 5 6 
#
# 1 0.011972 -0.003742 -0.000449 0.000000 0.000000 0.000000
# 2 -0.003742 0.017588 -0.008934 0.000000 0.000000 0.000000
# 3 -0.000449 -0.008934 0.022846 0.000000 0.000000 0.000000
# 4 0.000000 0.000000 0.000000 0.030520 0.000000 0.000000
# 5 0.000000 0.000000 0.000000 0.000000 0.019908 0.000000
# 6 0.000000 0.000000 0.000000 0.000000 0.000000 0.020620
#
#
# Mechanical properties :
#
#
# Convention : Reuss Voigt Hill
#
# Bulk Modulus (GPa) = 38.23074 40.32434 39.27754
# Shear Modulus (GPa) = 31.56119 36.81599 34.18859
#
# Velocity S-wave (km/s) = 4.18796 4.52318 4.35880
# Velocity P-wave (km/s) = 6.68062 7.04895 6.86726
#
# Compressibility (1/GPa) = 0.02615696
#
# Stress axis : x y z
#
# Youngs Moduli (GPa) = 83.52919 56.85830 43.77093
#
# Poissons Ratio (x) = 0.21274 0.01964
# Poissons Ratio (y) = 0.31254 0.39105
# Poissons Ratio (z) = 0.03747 0.50798
#
# Static dielectric constant tensor:
#      x y z
#    x 3.698890 0.000000 0.000000 
#    y 0.000000 3.199240 0.000000 
#    z 0.000000 0.000000 3.311590 
# 
# 
# High freq. dielectric constant tensor:
#      x y z
#    x 1.703940 0.000000 0.000000 
#    y 0.000000 1.679500 0.000000 
#    z 0.000000 0.000000 1.695580 
# 
# From -- ./inp_files/27991.got.cif
#   From: 2010.03.12/outbox.cif.g09.slc.cpg/sg69_14_cif.got.tgz:27991.got - 2010.04.10 23:52:46.
