data_PCOD8284082
_publ_section_title
;
Structure prediction by ZEFSAII (Michael W. Deem and Ramdas Pophale) SiO2 
 PCOD8284082
Probable space group: F M M M
;
_chemical_formula_sum "Si O2"
_cell_formula_units_Z 160
_cell_length_a 13.049518
_cell_length_b 36.091813
_cell_length_c 18.651958
_cell_angle_alpha 90.000000
_cell_angle_beta 90.000000
_cell_angle_gamma 90.000000
_cell_volume 8784.713418
_symmetry_space_group_name_H-M "F M M M"
_symmetry_group_IT_number 69
_symmetry_cell_setting 'orthorhombic'
loop_
_space_group_symop_operation_xyz
x,y,z
-x,-y,z
x,-y,-z
-x,y,-z
-x,-y,-z
x,y,-z
-x,y,z
x,-y,z
x,1/2+y,1/2+z
-x,1/2-y,1/2+z
x,1/2-y,1/2-z
-x,1/2+y,1/2-z
-x,1/2-y,1/2-z
x,1/2+y,1/2-z
-x,1/2+y,1/2+z
x,1/2-y,1/2+z
1/2+x,y,1/2+z
1/2-x,-y,1/2+z
1/2+x,-y,1/2-z
1/2-x,y,1/2-z
1/2-x,-y,1/2-z
1/2+x,y,1/2-z
1/2-x,y,1/2+z
1/2+x,-y,1/2+z
1/2+x,1/2+y,z
1/2-x,1/2-y,z
1/2+x,1/2-y,-z
1/2-x,1/2+y,-z
1/2-x,1/2-y,-z
1/2+x,1/2+y,-z
1/2-x,1/2+y,z
1/2+x,1/2-y,z
loop_
_atom_site_type_symbol
_atom_site_label
_atom_site_fract_x
_atom_site_fract_y
_atom_site_fract_z
Si Si1 0.500000 0.543408 0.420879
Si Si2 0.825164 0.215691 0.420076
Si Si3 0.222590 0.563456 0.085918
Si Si4 0.500000 0.674139 0.084243
Si Si5 0.711964 0.642680 0.915853
Si Si6 0.379964 0.000000 0.585126
Si Si7 0.500000 0.751281 0.834497
O O1 0.500000 0.500000 0.427455
O O2 0.500000 0.561727 0.500000
O O3 0.392061 0.554791 0.382666
O O4 0.872202 0.209014 0.500000
O O5 0.750000 0.250000 0.426388
O O6 0.773534 0.178529 0.389266
O O7 0.904890 0.224874 0.359415
O O8 0.248935 0.604121 0.117310
O O9 0.313134 0.535544 0.112134
O O10 0.218825 0.561301 0.000000
O O11 0.405378 0.648527 0.105591
O O12 0.500000 0.711160 0.130187
O O13 0.500000 0.685701 0.000000
O O14 0.723602 0.639689 0.000000
O O15 0.500000 0.000000 0.614185
O O16 0.386492 0.000000 0.500000
O O17 0.500000 0.750000 0.750000
#
# Coordination Sequence:
#
# PCOD8284082 Si02
#       7
#    16  32  32  16  32  16  16
#     4   9  14  23  36  50  81 124 163 201 241 302
#     4  10  19  35  55  74  99 133 176 218 256 301
#     4   9  16  25  38  61  87 124 172 209 251 298
#     4  10  18  34  53  72 100 135 173 213 259 308
#     4   9  18  29  47  70  92 127 176 220 251 297
#     4   9  16  23  33  55  93 130 162 204 251 306
#     4  12  24  35  53  79 104 135 171 211 265 322
#
# _framework density 18.213456999999998
#
# number of rings (size 3 to 8) (size 9 to 14) (size 15 to 20)
#    0.000    2.400    3.000    0.900    1.400    1.200 
#    0.000    3.000    0.000    0.000    0.000    0.000 
#    0.000    0.000    0.000    5.400    0.000    6.000 
#
# Total GULP energy -495523.108527 kJ/mol
# GULP energy per Si atom -12388.077713 kJ/mol
# Density = 1.817200 g / cm^3
# Si number density = 18.213457 Si / 1000 Ang^3
#
#
#
# Elastic Constant Matrix: (Units=GPa)
#
#
# Indices 1 2 3 4 5 6 
#
# 1 170.3718 78.9490 34.8172 0.0000 0.0000 0.0000
# 2 78.9490 157.5133 16.8575 0.0000 0.0000 0.0000
# 3 34.8172 16.8575 46.4943 0.0000 0.0000 0.0000
# 4 0.0000 0.0000 0.0000 4.5362 0.0000 0.0000
# 5 0.0000 0.0000 0.0000 0.0000 7.4128 0.0000
# 6 0.0000 0.0000 0.0000 0.0000 0.0000 33.8018
#
#
#
# Elastic Compliance Matrix: (Units=1/GPa)
#
#
# Indices 1 2 3 4 5 6 
#
# 1 0.008677 -0.003801 -0.005120 0.000000 0.000000 0.000000
# 2 -0.003801 0.008270 -0.000152 0.000000 0.000000 0.000000
# 3 -0.005120 -0.000152 0.025397 0.000000 0.000000 0.000000
# 4 0.000000 0.000000 0.000000 0.220449 0.000000 0.000000
# 5 0.000000 0.000000 0.000000 0.000000 0.134901 0.000000
# 6 0.000000 0.000000 0.000000 0.000000 0.000000 0.029584
#
#
# Mechanical properties :
#
#
# Convention : Reuss Voigt Hill
#
# Bulk Modulus (GPa) = 41.32480 70.62521 55.97500
# Shear Modulus (GPa) = 11.02558 25.40056 18.21307
#
# Velocity S-wave (km/s) = 2.46306 3.73849 3.16567
# Velocity P-wave (km/s) = 5.55223 7.58259 6.64541
#
# Compressibility (1/GPa) = 0.02419855
#
# Stress axis : x y z
#
# Youngs Moduli (GPa) = 115.24348 120.91565 39.37477
#
# Poissons Ratio (x) = 0.45964 0.20159
# Poissons Ratio (y) = 0.43808 0.00598
# Poissons Ratio (z) = 0.59001 0.01837
#
# Static dielectric constant tensor:
#      x y z
#    x 3.711000 0.000000 0.000000 
#    y 0.000000 3.499880 0.000000 
#    z 0.000000 0.000000 2.632660 
# 
# 
# High freq. dielectric constant tensor:
#      x y z
#    x 1.724100 0.000000 0.000000 
#    y 0.000000 1.716750 0.000000 
#    z 0.000000 0.000000 1.617270 
# 
# From -- ./inp_files/21913.got.cif
#   From: 2010.03.12/outbox.cif.g09.slc.cpg/sg69_11_cif.got.tgz:21913.got - 2010.04.10 23:52:46.
