data_PCOD8284443
_publ_section_title
;
Structure prediction by ZEFSAII (Michael W. Deem and Ramdas Pophale) SiO2 
 PCOD8284443
Probable space group: F M M M
;
_chemical_formula_sum "Si O2"
_cell_formula_units_Z 144
_cell_length_a 19.029447
_cell_length_b 14.609945
_cell_length_c 29.907605
_cell_angle_alpha 90.000000
_cell_angle_beta 90.000000
_cell_angle_gamma 90.000000
_cell_volume 8314.887640
_symmetry_space_group_name_H-M "F M M M"
_symmetry_group_IT_number 69
_symmetry_cell_setting 'orthorhombic'
loop_
_space_group_symop_operation_xyz
x,y,z
-x,-y,z
x,-y,-z
-x,y,-z
-x,-y,-z
x,y,-z
-x,y,z
x,-y,z
x,1/2+y,1/2+z
-x,1/2-y,1/2+z
x,1/2-y,1/2-z
-x,1/2+y,1/2-z
-x,1/2-y,1/2-z
x,1/2+y,1/2-z
-x,1/2+y,1/2+z
x,1/2-y,1/2+z
1/2+x,y,1/2+z
1/2-x,-y,1/2+z
1/2+x,-y,1/2-z
1/2-x,y,1/2-z
1/2-x,-y,1/2-z
1/2+x,y,1/2-z
1/2-x,y,1/2+z
1/2+x,-y,1/2+z
1/2+x,1/2+y,z
1/2-x,1/2-y,z
1/2+x,1/2-y,-z
1/2-x,1/2+y,-z
1/2-x,1/2-y,-z
1/2+x,1/2+y,-z
1/2-x,1/2+y,z
1/2+x,1/2-y,z
loop_
_atom_site_type_symbol
_atom_site_label
_atom_site_fract_x
_atom_site_fract_y
_atom_site_fract_z
Si Si1 0.281268 0.500000 0.449789
Si Si2 0.080033 0.667835 0.282976
Si Si3 0.581129 0.813095 0.383652
Si Si4 0.821332 0.500000 0.720636
Si Si5 0.656674 0.500000 0.118079
Si Si6 0.323993 0.297631 0.448926
O O1 0.250721 0.500000 0.500000
O O2 0.217700 0.500000 0.416785
O O3 0.325324 0.407353 0.441860
O O4 0.092589 0.750000 0.250000
O O5 0.096425 0.708930 0.331822
O O6 0.132841 0.588730 0.267496
O O7 0.000000 0.629812 0.281418
O O8 0.500000 0.807101 0.395865
O O9 0.607410 0.914893 0.392184
O O10 0.618871 0.740098 0.414974
O O11 0.750000 0.500000 0.750000
O O12 0.807787 0.500000 0.667294
O O13 0.344290 0.273195 0.500000
O O14 0.250000 0.250000 0.436900
#
# Coordination Sequence:
#
# PCOD8284443 Si02
#       6
#    16  32  32  16  16  32
#     4  10  20  35  54  76 106 144 181 210 259 325
#     4   9  19  37  56  74 104 145 179 215 267 321
#     4  10  20  35  56  81 106 137 180 225 273 321
#     4  10  21  33  50  82 111 135 174 223 269 315
#     4  10  19  34  55  79 109 137 171 228 279 315
#     4  10  20  35  55  78 108 144 177 215 265 321
#
# _framework density 17.318334
#
# number of rings (size 3 to 8) (size 9 to 14) (size 15 to 20)
#    0.000    2.222    2.222    0.667    0.000    5.333 
#    0.000    0.556    0.000    6.667    0.000    0.000 
#    0.000    0.000    0.000    0.000    0.000    0.000 
#
# Total GULP energy -446315.403942 kJ/mol
# GULP energy per Si atom -12397.650109 kJ/mol
# Density = 1.727892 g / cm^3
# Si number density = 17.318334 Si / 1000 Ang^3
#
#
#
# Elastic Constant Matrix: (Units=GPa)
#
#
# Indices 1 2 3 4 5 6 
#
# 1 119.8044 62.5389 75.4279 0.0000 0.0000 0.0000
# 2 62.5389 123.5698 67.6501 0.0000 0.0000 0.0000
# 3 75.4279 67.6501 100.1841 0.0000 0.0000 0.0000
# 4 0.0000 0.0000 0.0000 29.3727 0.0000 0.0000
# 5 0.0000 0.0000 0.0000 0.0000 35.0194 0.0000
# 6 0.0000 0.0000 0.0000 0.0000 0.0000 29.5500
#
#
#
# Elastic Compliance Matrix: (Units=1/GPa)
#
#
# Indices 1 2 3 4 5 6 
#
# 1 0.016317 -0.002431 -0.010643 0.000000 0.000000 0.000000
# 2 -0.002431 0.013201 -0.007084 0.000000 0.000000 0.000000
# 3 -0.010643 -0.007084 0.022778 0.000000 0.000000 0.000000
# 4 0.000000 0.000000 0.000000 0.034045 0.000000 0.000000
# 5 0.000000 0.000000 0.000000 0.000000 0.028556 0.000000
# 6 0.000000 0.000000 0.000000 0.000000 0.000000 0.033841
#
#
# Mechanical properties :
#
#
# Convention : Reuss Voigt Hill
#
# Bulk Modulus (GPa) = 83.47299 83.86579 83.66939
# Shear Modulus (GPa) = 25.90036 27.98451 26.94244
#
# Velocity S-wave (km/s) = 3.87142 4.02417 3.94854
# Velocity P-wave (km/s) = 8.26364 8.37395 8.31898
#
# Compressibility (1/GPa) = 0.01197992
#
# Stress axis : x y z
#
# Youngs Moduli (GPa) = 61.28600 75.75115 43.90185
#
# Poissons Ratio (x) = 0.18417 0.46726
# Poissons Ratio (y) = 0.14900 0.31099
# Poissons Ratio (z) = 0.65228 0.53660
#
# Static dielectric constant tensor:
#      x y z
#    x 3.174080 0.000000 0.000000 
#    y 0.000000 3.339680 0.000000 
#    z 0.000000 0.000000 3.414870 
# 
# 
# High freq. dielectric constant tensor:
#      x y z
#    x 1.657150 0.000000 0.000000 
#    y 0.000000 1.678040 0.000000 
#    z 0.000000 0.000000 1.676950 
# 
# From -- ./inp_files/15598.got.cif
#   From: 2010.03.12/outbox.cif.g09.slc.cpg/sg69_8_cif.got.tgz:15598.got - 2010.04.10 23:52:46.
