data_PCOD8284101
_publ_section_title
;
Structure prediction by ZEFSAII (Michael W. Deem and Ramdas Pophale) SiO2 
 PCOD8284101
Probable space group: F M M M
;
_chemical_formula_sum "Si O2"
_cell_formula_units_Z 160
_cell_length_a 9.847242
_cell_length_b 27.295255
_cell_length_c 28.137105
_cell_angle_alpha 90.000000
_cell_angle_beta 90.000000
_cell_angle_gamma 90.000000
_cell_volume 7562.774971
_symmetry_space_group_name_H-M "F M M M"
_symmetry_group_IT_number 69
_symmetry_cell_setting 'orthorhombic'
loop_
_space_group_symop_operation_xyz
x,y,z
-x,-y,z
x,-y,-z
-x,y,-z
-x,-y,-z
x,y,-z
-x,y,z
x,-y,z
x,1/2+y,1/2+z
-x,1/2-y,1/2+z
x,1/2-y,1/2-z
-x,1/2+y,1/2-z
-x,1/2-y,1/2-z
x,1/2+y,1/2-z
-x,1/2+y,1/2+z
x,1/2-y,1/2+z
1/2+x,y,1/2+z
1/2-x,-y,1/2+z
1/2+x,-y,1/2-z
1/2-x,y,1/2-z
1/2-x,-y,1/2-z
1/2+x,y,1/2-z
1/2-x,y,1/2+z
1/2+x,-y,1/2+z
1/2+x,1/2+y,z
1/2-x,1/2-y,z
1/2+x,1/2-y,-z
1/2-x,1/2+y,-z
1/2-x,1/2-y,-z
1/2+x,1/2+y,-z
1/2-x,1/2+y,z
1/2+x,1/2-y,z
loop_
_atom_site_type_symbol
_atom_site_label
_atom_site_fract_x
_atom_site_fract_y
_atom_site_fract_z
Si Si1 0.500000 0.681642 0.394143
Si Si2 0.839520 0.598151 0.705941
Si Si3 0.273911 0.444788 0.893983
Si Si4 0.000000 0.788981 0.908310
Si Si5 0.236185 0.196268 0.164362
Si Si6 0.500000 0.418019 0.443356
Si Si7 0.000000 0.888317 0.052435
O O1 0.500000 0.732306 0.424583
O O2 0.625479 0.676531 0.358375
O O3 0.500000 0.640011 0.434004
O O4 0.750000 0.578937 0.750000
O O5 0.775184 0.570545 0.660963
O O6 0.819925 0.656931 0.701947
O O7 0.000000 0.586116 0.712229
O O8 0.330456 0.500000 0.898471
O O9 0.367546 0.406452 0.920942
O O10 0.127268 0.443017 0.917945
O O11 0.866855 0.798539 0.878427
O O12 0.000000 0.828861 0.950539
O O13 0.250000 0.250000 0.189180
O O14 0.500000 0.427983 0.500000
O O15 0.000000 0.910280 0.000000
#
# Coordination Sequence:
#
# PCOD8284101 Si02
#       7
#    16  32  32  16  32  16  16
#     4  10  20  34  67  94 133 179 219 257 325 395
#     4  12  26  45  70 100 133 171 222 277 339 406
#     4  12  26  47  69  93 134 178 222 282 338 386
#     4  10  18  38  61  96 133 175 213 267 325 395
#     4  10  19  37  64  92 131 177 219 266 325 393
#     4  12  25  43  68 103 139 177 224 274 331 396
#     4  12  23  41  72 101 129 171 226 276 333 400
#
# _framework density 21.156255999999999
#
# number of rings (size 3 to 8) (size 9 to 14) (size 15 to 20)
#    0.000    0.800    6.000    1.200    2.800    3.600 
#    0.000    1.000    0.000    6.000    0.000    0.000 
#    0.000    0.000    0.000    0.000    0.000    0.000 
#
# Total GULP energy -495938.642267 kJ/mol
# GULP energy per Si atom -12398.466057 kJ/mol
# Density = 2.110810 g / cm^3
# Si number density = 21.156256 Si / 1000 Ang^3
#
#
#
# Elastic Constant Matrix: (Units=GPa)
#
#
# Indices 1 2 3 4 5 6 
#
# 1 137.8898 6.1837 42.9446 0.0000 0.0000 0.0000
# 2 6.1837 113.0644 24.9952 0.0000 0.0000 0.0000
# 3 42.9446 24.9952 129.8057 0.0000 0.0000 0.0000
# 4 0.0000 0.0000 0.0000 5.3003 0.0000 0.0000
# 5 0.0000 0.0000 0.0000 0.0000 -20.4143 0.0000
# 6 0.0000 0.0000 0.0000 0.0000 0.0000 19.6041
#
#
#
# Elastic Compliance Matrix: (Units=1/GPa)
#
#
# Indices 1 2 3 4 5 6 
#
# 1 0.008088 0.000156 -0.002706 0.000000 0.000000 0.000000
# 2 0.000156 0.009241 -0.001831 0.000000 0.000000 0.000000
# 3 -0.002706 -0.001831 0.008952 0.000000 0.000000 0.000000
# 4 0.000000 0.000000 0.000000 0.188667 0.000000 0.000000
# 5 0.000000 0.000000 0.000000 0.000000 -0.048985 0.000000
# 6 0.000000 0.000000 0.000000 0.000000 0.000000 0.051010
#
#
# Mechanical properties :
#
#
# Convention : Reuss Voigt Hill
#
# Bulk Modulus (GPa) = 57.08279 58.77853 57.93066
# Shear Modulus (GPa) = 21.59149 21.34046 21.46597
#
# Velocity S-wave (km/s) = 3.19811 3.17946 3.18880
# Velocity P-wave (km/s) = 6.37787 6.42822 6.40310
#
# Compressibility (1/GPa) = 0.01751841
#
# Stress axis : x y z
#
# Youngs Moduli (GPa) = 123.64192 108.21613 111.71233
#
# Poissons Ratio (x) = -0.01686 0.30227
# Poissons Ratio (y) = -0.01927 0.20454
# Poissons Ratio (z) = 0.33455 0.19814
#
# Static dielectric constant tensor:
#      x y z
#    x 3.934890 0.000000 0.000000 
#    y 0.000000 4.197560 0.000000 
#    z 0.000000 0.000000 3.538200 
# 
# 
# High freq. dielectric constant tensor:
#      x y z
#    x 1.847230 0.000000 0.000000 
#    y 0.000000 1.842630 0.000000 
#    z 0.000000 0.000000 1.802390 
# 
# From -- ./inp_files/44658.got.cif
#   From: 2010.03.12/outbox.cif.g09.slc.cpg/sg69_23_cif.got.tgz:44658.got - 2010.04.10 23:52:46.
