data_PCOD8284016
_publ_section_title
;
Structure prediction by ZEFSAII (Michael W. Deem and Ramdas Pophale) SiO2 
 PCOD8284016
Probable space group: F M M M
;
_chemical_formula_sum "Si O2"
_cell_formula_units_Z 208
_cell_length_a 26.496046
_cell_length_b 26.742978
_cell_length_c 17.528513
_cell_angle_alpha 90.000000
_cell_angle_beta 90.000000
_cell_angle_gamma 90.000000
_cell_volume 12420.409399
_symmetry_space_group_name_H-M "F M M M"
_symmetry_group_IT_number 69
_symmetry_cell_setting 'orthorhombic'
loop_
_space_group_symop_operation_xyz
x,y,z
-x,-y,z
x,-y,-z
-x,y,-z
-x,-y,-z
x,y,-z
-x,y,z
x,-y,z
x,1/2+y,1/2+z
-x,1/2-y,1/2+z
x,1/2-y,1/2-z
-x,1/2+y,1/2-z
-x,1/2-y,1/2-z
x,1/2+y,1/2-z
-x,1/2+y,1/2+z
x,1/2-y,1/2+z
1/2+x,y,1/2+z
1/2-x,-y,1/2+z
1/2+x,-y,1/2-z
1/2-x,y,1/2-z
1/2-x,-y,1/2-z
1/2+x,y,1/2-z
1/2-x,y,1/2+z
1/2+x,-y,1/2+z
1/2+x,1/2+y,z
1/2-x,1/2-y,z
1/2+x,1/2-y,-z
1/2-x,1/2+y,-z
1/2-x,1/2-y,-z
1/2+x,1/2+y,-z
1/2-x,1/2+y,z
1/2+x,1/2-y,z
loop_
_atom_site_type_symbol
_atom_site_label
_atom_site_fract_x
_atom_site_fract_y
_atom_site_fract_z
Si Si1 0.059477 0.055617 0.000000
Si Si2 0.302395 0.405551 0.086695
Si Si3 0.440480 0.616048 0.850633
Si Si4 0.638991 0.942999 0.725980
Si Si5 0.287290 0.878634 0.819722
Si Si6 0.304729 0.767232 0.163951
Si Si7 0.130120 0.689739 0.413701
O O1 0.077224 0.085690 0.926041
O O2 0.000000 0.051213 0.000000
O O3 0.083336 0.000000 0.000000
O O4 0.330590 0.441867 0.145996
O O5 0.243420 0.402449 0.109634
O O6 0.324720 0.349966 0.094776
O O7 0.307867 0.426040 0.000000
O O8 0.500000 0.618445 0.837387
O O9 0.414179 0.586875 0.780749
O O10 0.417494 0.671593 0.861801
O O11 0.670412 0.918044 0.794297
O O12 0.627605 0.000000 0.748057
O O13 0.250000 0.866144 0.750000
O O14 0.312536 0.826565 0.844634
O O15 0.311790 0.750000 0.250000
O O16 0.250000 0.750000 0.132645
O O17 0.349316 0.742740 0.114590
O O18 0.111097 0.695572 0.500000
#
# Coordination Sequence:
#
# PCOD8284016 Si02
#       7
#    16  32  32  32  32  32  32
#     4   9  16  26  44  66  89 122 162 198 228 265
#     4   9  18  30  45  68  99 130 162 201 239 292
#     4  10  19  33  49  68  98 129 163 199 236 287
#     4  10  21  33  48  69  96 131 166 204 247 292
#     4  10  18  32  48  68  97 130 167 202 245 294
#     4  11  17  28  48  68  91 130 166 204 241 282
#     4  10  19  30  46  72 101 129 160 201 245 285
#
# _framework density 16.74663
#
# number of rings (size 3 to 8) (size 9 to 14) (size 15 to 20)
#    0.000    2.077    3.846    2.308    1.077    4.923 
#    0.000    0.000    0.000    4.154    0.000    0.000 
#    0.000    0.615    0.000    1.385    0.000    0.462 
#
# Total GULP energy -644761.933295 kJ/mol
# GULP energy per Si atom -12399.267948 kJ/mol
# Density = 1.670851 g / cm^3
# Si number density = 16.746630 Si / 1000 Ang^3
#
#
#
# Elastic Constant Matrix: (Units=GPa)
#
#
# Indices 1 2 3 4 5 6 
#
# 1 100.2728 39.9444 26.3949 0.0000 0.0000 0.0000
# 2 39.9444 83.5634 10.6749 0.0000 0.0000 0.0000
# 3 26.3949 10.6749 30.9587 0.0000 0.0000 0.0000
# 4 0.0000 0.0000 0.0000 14.1149 0.0000 0.0000
# 5 0.0000 0.0000 0.0000 0.0000 21.7271 0.0000
# 6 0.0000 0.0000 0.0000 0.0000 0.0000 19.3261
#
#
#
# Elastic Compliance Matrix: (Units=1/GPa)
#
#
# Indices 1 2 3 4 5 6 
#
# 1 0.015184 -0.005863 -0.010924 0.000000 0.000000 0.000000
# 2 -0.005863 0.014782 -0.000099 0.000000 0.000000 0.000000
# 3 -0.010924 -0.000099 0.041649 0.000000 0.000000 0.000000
# 4 0.000000 0.000000 0.000000 0.070847 0.000000 0.000000
# 5 0.000000 0.000000 0.000000 0.000000 0.046026 0.000000
# 6 0.000000 0.000000 0.000000 0.000000 0.000000 0.051744
#
#
# Mechanical properties :
#
#
# Convention : Reuss Voigt Hill
#
# Bulk Modulus (GPa) = 26.42417 40.98036 33.70227
# Shear Modulus (GPa) = 17.44496 20.21898 18.83197
#
# Velocity S-wave (km/s) = 3.23104 3.47846 3.35703
# Velocity P-wave (km/s) = 5.45275 6.37627 5.93251
#
# Compressibility (1/GPa) = 0.03784414
#
# Stress axis : x y z
#
# Youngs Moduli (GPa) = 65.86017 67.65023 24.01031
#
# Poissons Ratio (x) = 0.39660 0.26229
# Poissons Ratio (y) = 0.38611 0.00237
# Poissons Ratio (z) = 0.71945 0.00667
#
# Static dielectric constant tensor:
#      x y z
#    x 3.007530 0.000000 0.000000 
#    y 0.000000 3.072210 0.000000 
#    z 0.000000 0.000000 3.011410 
# 
# 
# High freq. dielectric constant tensor:
#      x y z
#    x 1.625560 0.000000 0.000000 
#    y 0.000000 1.636220 0.000000 
#    z 0.000000 0.000000 1.613260 
# 
# From -- ./inp_files/27067.got.cif
#   From: 2010.03.12/outbox.cif.g09.slc.cpg/sg69_14_cif.got.tgz:27067.got - 2010.04.10 23:52:46.
