data_PCOD8284229
_publ_section_title
;
Structure prediction by ZEFSAII (Michael W. Deem and Ramdas Pophale) SiO2 
 PCOD8284229
Probable space group: F M M M
;
_chemical_formula_sum "Si O2"
_cell_formula_units_Z 208
_cell_length_a 15.352023
_cell_length_b 21.184617
_cell_length_c 30.051684
_cell_angle_alpha 90.000000
_cell_angle_beta 90.000000
_cell_angle_gamma 90.000000
_cell_volume 9773.610841
_symmetry_space_group_name_H-M "F M M M"
_symmetry_group_IT_number 69
_symmetry_cell_setting 'orthorhombic'
loop_
_space_group_symop_operation_xyz
x,y,z
-x,-y,z
x,-y,-z
-x,y,-z
-x,-y,-z
x,y,-z
-x,y,z
x,-y,z
x,1/2+y,1/2+z
-x,1/2-y,1/2+z
x,1/2-y,1/2-z
-x,1/2+y,1/2-z
-x,1/2-y,1/2-z
x,1/2+y,1/2-z
-x,1/2+y,1/2+z
x,1/2-y,1/2+z
1/2+x,y,1/2+z
1/2-x,-y,1/2+z
1/2+x,-y,1/2-z
1/2-x,y,1/2-z
1/2-x,-y,1/2-z
1/2+x,y,1/2-z
1/2-x,y,1/2+z
1/2+x,-y,1/2+z
1/2+x,1/2+y,z
1/2-x,1/2-y,z
1/2+x,1/2-y,-z
1/2-x,1/2+y,-z
1/2-x,1/2-y,-z
1/2+x,1/2+y,-z
1/2-x,1/2+y,z
1/2+x,1/2-y,z
loop_
_atom_site_type_symbol
_atom_site_label
_atom_site_fract_x
_atom_site_fract_y
_atom_site_fract_z
Si Si1 0.604102 0.643023 0.868275
Si Si2 0.895764 0.864108 0.550088
Si Si3 0.900040 0.069761 0.215728
Si Si4 0.396207 0.285460 0.634864
Si Si5 0.396290 0.429595 0.951557
Si Si6 0.654092 0.684950 0.269573
Si Si7 0.405664 0.500000 0.447856
O O1 0.500000 0.641847 0.867919
O O2 0.643198 0.600858 0.828233
O O3 0.637620 0.713962 0.864256
O O4 0.642631 0.616169 0.914310
O O5 0.864548 0.843685 0.500000
O O6 0.864300 0.815676 0.588176
O O7 0.000000 0.868308 0.549796
O O8 0.856872 0.933766 0.563571
O O9 0.892660 0.120026 0.255520
O O10 0.000000 0.058232 0.205381
O O11 0.858117 0.000000 0.226048
O O12 0.500000 0.290927 0.640416
O O13 0.349243 0.317591 0.676982
O O14 0.500000 0.430592 0.949112
O O15 0.360401 0.500000 0.943539
O O16 0.365765 0.404806 0.000000
O O17 0.609368 0.750000 0.250000
O O18 0.750000 0.682516 0.250000
O O19 0.500000 0.500000 0.423452
O O20 0.421966 0.500000 0.500000
#
# Coordination Sequence:
#
# PCOD8284229 Si02
#       7
#    32  32  32  32  32  32  16
#     4   9  16  26  43  68  98 132 167 209 261 316
#     4   8  14  25  43  71 106 139 171 213 268 326
#     4  10  20  35  57  81 104 133 173 224 279 335
#     4  10  19  31  51  78 107 139 179 228 274 323
#     4   8  13  21  34  57  94 135 169 202 247 310
#     4  11  23  39  57  76 103 146 187 229 276 328
#     4   7  10  20  38  60  95 140 172 200 248 309
#
# _framework density 21.281796
#
# number of rings (size 3 to 8) (size 9 to 14) (size 15 to 20)
#    0.000    2.846    1.538    2.308    0.000    3.385 
#    1.385    3.077    0.000    0.000    0.000    3.231 
#    0.000    0.000    0.000    0.000    0.000    0.154 
#
# Total GULP energy -644179.137570 kJ/mol
# GULP energy per Si atom -12388.060338 kJ/mol
# Density = 2.123336 g / cm^3
# Si number density = 21.281796 Si / 1000 Ang^3
#
#
#
# Elastic Constant Matrix: (Units=GPa)
#
#
# Indices 1 2 3 4 5 6 
#
# 1 12.9878 10.5631 11.5297 0.0000 0.0000 0.0000
# 2 10.5631 188.2474 96.1535 0.0000 0.0000 0.0000
# 3 11.5297 96.1535 189.3691 0.0000 0.0000 0.0000
# 4 0.0000 0.0000 0.0000 39.9337 0.0000 0.0000
# 5 0.0000 0.0000 0.0000 0.0000 10.0627 0.0000
# 6 0.0000 0.0000 0.0000 0.0000 0.0000 10.9547
#
#
#
# Elastic Compliance Matrix: (Units=1/GPa)
#
#
# Indices 1 2 3 4 5 6 
#
# 1 0.082462 -0.002785 -0.003607 0.000000 0.000000 0.000000
# 2 -0.002785 0.007266 -0.003520 0.000000 0.000000 0.000000
# 3 -0.003607 -0.003520 0.007288 0.000000 0.000000 0.000000
# 4 0.000000 0.000000 0.000000 0.025042 0.000000 0.000000
# 5 0.000000 0.000000 0.000000 0.000000 0.099377 0.000000
# 6 0.000000 0.000000 0.000000 0.000000 0.000000 0.091285
#
#
# Mechanical properties :
#
#
# Convention : Reuss Voigt Hill
#
# Bulk Modulus (GPa) = 12.95454 69.67742 41.31598
# Shear Modulus (GPa) = 13.95582 30.34743 22.15163
#
# Velocity S-wave (km/s) = 2.56357 3.78031 3.22976
# Velocity P-wave (km/s) = 3.85524 7.20179 5.77619
#
# Compressibility (1/GPa) = 0.07719299
#
# Stress axis : x y z
#
# Youngs Moduli (GPa) = 12.12677 137.62007 137.21978
#
# Poissons Ratio (x) = 0.38327 0.49489
# Poissons Ratio (y) = 0.03377 0.48301
# Poissons Ratio (z) = 0.04374 0.48442
#
# Static dielectric constant tensor:
#      x y z
#    x 3.150530 0.000000 0.000000 
#    y 0.000000 4.394500 0.000000 
#    z 0.000000 0.000000 3.983990 
# 
# 
# High freq. dielectric constant tensor:
#      x y z
#    x 1.774280 0.000000 0.000000 
#    y 0.000000 1.841730 0.000000 
#    z 0.000000 0.000000 1.832860 
# 
# From -- ./inp_files/25162.got.cif
#   From: 2010.03.12/outbox.cif.g09.slc.cpg/sg69_13_cif.got.tgz:25162.got - 2010.04.10 23:52:46.
