data_PCOD8284385
_publ_section_title
;
Structure prediction by ZEFSAII (Michael W. Deem and Ramdas Pophale) SiO2 
 PCOD8284385
Probable space group: F M M M
;
_chemical_formula_sum "Si O2"
_cell_formula_units_Z 144
_cell_length_a 19.069616
_cell_length_b 20.230287
_cell_length_c 19.049116
_cell_angle_alpha 90.000000
_cell_angle_beta 90.000000
_cell_angle_gamma 90.000000
_cell_volume 7348.840446
_symmetry_space_group_name_H-M "F M M M"
_symmetry_group_IT_number 69
_symmetry_cell_setting 'orthorhombic'
loop_
_space_group_symop_operation_xyz
x,y,z
-x,-y,z
x,-y,-z
-x,y,-z
-x,-y,-z
x,y,-z
-x,y,z
x,-y,z
x,1/2+y,1/2+z
-x,1/2-y,1/2+z
x,1/2-y,1/2-z
-x,1/2+y,1/2-z
-x,1/2-y,1/2-z
x,1/2+y,1/2-z
-x,1/2+y,1/2+z
x,1/2-y,1/2+z
1/2+x,y,1/2+z
1/2-x,-y,1/2+z
1/2+x,-y,1/2-z
1/2-x,y,1/2-z
1/2-x,-y,1/2-z
1/2+x,y,1/2-z
1/2-x,y,1/2+z
1/2+x,-y,1/2+z
1/2+x,1/2+y,z
1/2-x,1/2-y,z
1/2+x,1/2-y,-z
1/2-x,1/2+y,-z
1/2-x,1/2-y,-z
1/2+x,1/2+y,-z
1/2-x,1/2+y,z
1/2+x,1/2-y,z
loop_
_atom_site_type_symbol
_atom_site_label
_atom_site_fract_x
_atom_site_fract_y
_atom_site_fract_z
Si Si1 0.582775 0.500000 0.922167
Si Si2 0.701047 0.809979 0.418650
Si Si3 0.418541 0.630993 0.158145
Si Si4 0.193532 0.424602 0.920257
Si Si5 0.420730 0.923937 0.807372
O O1 0.500000 0.500000 0.928385
O O2 0.606679 0.565069 0.881514
O O3 0.617303 0.500000 0.000000
O O4 0.680428 0.801204 0.500000
O O5 0.750000 0.750000 0.393436
O O6 0.629823 0.809970 0.372314
O O7 0.740649 0.878604 0.404157
O O8 0.500000 0.647642 0.143537
O O9 0.404529 0.622215 0.240725
O O10 0.217187 0.500000 0.906039
O O11 0.129317 0.403466 0.870889
O O12 0.167275 0.415003 0.000000
O O13 0.500000 0.912720 0.833414
O O14 0.409860 0.000000 0.784370
#
# Coordination Sequence:
#
# PCOD8284385 Si02
#       5
#    16  32  32  32  32
#     4   9  16  26  46  79 111 137 170 213 263 321
#     4  10  22  39  56  77 112 151 186 229 281 334
#     4  10  19  33  54  83 114 144 180 223 278 341
#     4   9  19  35  56  81 106 142 194 238 276 329
#     4   9  17  32  54  82 116 146 177 230 290 334
#
# _framework density 19.594927999999999
#
# number of rings (size 3 to 8) (size 9 to 14) (size 15 to 20)
#    0.000    2.556    1.111    0.667    1.556    2.667 
#    0.000    7.778    0.000    6.667    0.000    0.000 
#    0.000    0.000    0.000    0.000    0.000    0.000 
#
# Total GULP energy -446404.089626 kJ/mol
# GULP energy per Si atom -12400.113601 kJ/mol
# Density = 1.955033 g / cm^3
# Si number density = 19.594928 Si / 1000 Ang^3
#
#
#
# Elastic Constant Matrix: (Units=GPa)
#
#
# Indices 1 2 3 4 5 6 
#
# 1 115.2255 49.6443 66.9627 0.0000 0.0000 0.0000
# 2 49.6443 68.2792 34.7034 0.0000 0.0000 0.0000
# 3 66.9627 34.7034 94.1630 0.0000 0.0000 0.0000
# 4 0.0000 0.0000 0.0000 20.6672 0.0000 0.0000
# 5 0.0000 0.0000 0.0000 0.0000 37.2496 0.0000
# 6 0.0000 0.0000 0.0000 0.0000 0.0000 32.3630
#
#
#
# Elastic Compliance Matrix: (Units=1/GPa)
#
#
# Indices 1 2 3 4 5 6 
#
# 1 0.017739 -0.007981 -0.009673 0.000000 0.000000 0.000000
# 2 -0.007981 0.021612 -0.002290 0.000000 0.000000 0.000000
# 3 -0.009673 -0.002290 0.018343 0.000000 0.000000 0.000000
# 4 0.000000 0.000000 0.000000 0.048386 0.000000 0.000000
# 5 0.000000 0.000000 0.000000 0.000000 0.026846 0.000000
# 6 0.000000 0.000000 0.000000 0.000000 0.000000 0.030900
#
#
# Mechanical properties :
#
#
# Convention : Reuss Voigt Hill
#
# Bulk Modulus (GPa) = 56.16065 64.47649 60.31857
# Shear Modulus (GPa) = 23.84948 26.47976 25.16462
#
# Velocity S-wave (km/s) = 3.49252 3.68007 3.58752
# Velocity P-wave (km/s) = 6.70720 7.14376 6.92892
#
# Compressibility (1/GPa) = 0.01780606
#
# Stress axis : x y z
#
# Youngs Moduli (GPa) = 56.37362 46.27016 54.51744
#
# Poissons Ratio (x) = 0.36928 0.52737
# Poissons Ratio (y) = 0.44991 0.12482
# Poissons Ratio (z) = 0.54532 0.10594
#
# Static dielectric constant tensor:
#      x y z
#    x 3.458100 0.000000 0.000000 
#    y 0.000000 3.363900 0.000000 
#    z 0.000000 0.000000 3.567490 
# 
# 
# High freq. dielectric constant tensor:
#      x y z
#    x 1.760840 0.000000 0.000000 
#    y 0.000000 1.736270 0.000000 
#    z 0.000000 0.000000 1.761890 
# 
# From -- ./inp_files/22839.got.cif
#   From: 2010.03.12/outbox.cif.g09.slc.cpg/sg69_12_cif.got.tgz:22839.got - 2010.04.10 23:52:46.
