data_PCOD8284587
_publ_section_title
;
Structure prediction by ZEFSAII (Michael W. Deem and Ramdas Pophale) SiO2 
 PCOD8284587
Probable space group: F M M M
;
_chemical_formula_sum "Si O2"
_cell_formula_units_Z 144
_cell_length_a 24.998669
_cell_length_b 33.023669
_cell_length_c 10.305406
_cell_angle_alpha 90.000000
_cell_angle_beta 90.000000
_cell_angle_gamma 90.000000
_cell_volume 8507.604947
_symmetry_space_group_name_H-M "F M M M"
_symmetry_group_IT_number 69
_symmetry_cell_setting 'orthorhombic'
loop_
_space_group_symop_operation_xyz
x,y,z
-x,-y,z
x,-y,-z
-x,y,-z
-x,-y,-z
x,y,-z
-x,y,z
x,-y,z
x,1/2+y,1/2+z
-x,1/2-y,1/2+z
x,1/2-y,1/2-z
-x,1/2+y,1/2-z
-x,1/2-y,1/2-z
x,1/2+y,1/2-z
-x,1/2+y,1/2+z
x,1/2-y,1/2+z
1/2+x,y,1/2+z
1/2-x,-y,1/2+z
1/2+x,-y,1/2-z
1/2-x,y,1/2-z
1/2-x,-y,1/2-z
1/2+x,y,1/2-z
1/2-x,y,1/2+z
1/2+x,-y,1/2+z
1/2+x,1/2+y,z
1/2-x,1/2-y,z
1/2+x,1/2-y,-z
1/2-x,1/2+y,-z
1/2-x,1/2-y,-z
1/2+x,1/2+y,-z
1/2-x,1/2+y,z
1/2+x,1/2-y,z
loop_
_atom_site_type_symbol
_atom_site_label
_atom_site_fract_x
_atom_site_fract_y
_atom_site_fract_z
Si Si1 0.822122 0.452267 0.500000
Si Si2 0.872880 0.073409 0.264236
Si Si3 0.196648 0.452406 0.000000
Si Si4 0.063203 0.199508 0.000000
Si Si5 0.563506 0.655641 0.260939
Si Si6 0.562741 0.500000 0.352683
Si Si7 0.063080 0.789575 0.500000
O O1 0.835560 0.500000 0.500000
O O2 0.846557 0.430059 0.376080
O O3 0.759312 0.444665 0.500000
O O4 0.827164 0.068351 0.372030
O O5 0.903142 0.115329 0.283548
O O6 0.917584 0.039244 0.277588
O O7 0.183607 0.500000 0.000000
O O8 0.081982 0.175051 0.125786
O O9 0.088795 0.244585 0.000000
O O10 0.000000 0.203824 0.000000
O O11 0.500000 0.646267 0.265347
O O12 0.581419 0.686711 0.372209
O O13 0.500000 0.500000 0.351044
O O14 0.584902 0.500000 0.500000
O O15 0.000000 0.785231 0.500000
#
# Coordination Sequence:
#
# PCOD8284587 Si02
#       7
#    16  32  16  16  32  16  16
#     4  11  23  36  56  74 100 132 179 228 274 309
#     4  12  20  37  52  78 105 137 177 214 262 305
#     4  11  21  38  56  74  96 134 181 228 272 303
#     4   9  17  32  48  69 105 141 170 202 252 301
#     4  10  20  31  49  76 107 140 168 207 249 300
#     4  11  22  35  52  74 105 148 181 207 238 302
#     4   9  17  30  50  73  99 137 176 206 244 299
#
# _framework density 16.926033
#
# number of rings (size 3 to 8) (size 9 to 14) (size 15 to 20)
#    0.000    1.444    3.333    3.333    0.000    4.444 
#    0.000    2.222    0.000    0.000    0.000    0.000 
#    0.000   62.222    0.000    0.000    0.000    0.000 
#
# Total GULP energy -446466.619981 kJ/mol
# GULP energy per Si atom -12401.850555 kJ/mol
# Density = 1.688751 g / cm^3
# Si number density = 16.926033 Si / 1000 Ang^3
#
#
#
# Elastic Constant Matrix: (Units=GPa)
#
#
# Indices 1 2 3 4 5 6 
#
# 1 66.8129 36.0543 32.9155 -0.0002 0.0007 -0.0003
# 2 36.0543 127.0789 42.3954 -0.0004 0.0000 -0.0004
# 3 32.9155 42.3954 137.7405 -0.0014 0.0013 -0.0015
# 4 -0.0002 -0.0004 -0.0014 16.7742 0.0004 -0.0009
# 5 0.0007 0.0000 0.0013 0.0004 18.0050 0.0003
# 6 -0.0003 -0.0004 -0.0015 -0.0009 0.0003 -143.2184
#
#
#
# Elastic Compliance Matrix: (Units=1/GPa)
#
#
# Indices 1 2 3 4 5 6 
#
# 1 0.018849 -0.004285 -0.003185 0.000000 0.000000 0.000000
# 2 -0.004285 0.009744 -0.001975 0.000000 0.000000 0.000000
# 3 -0.003185 -0.001975 0.008629 0.000001 -0.000001 0.000000
# 4 0.000000 0.000000 0.000001 0.059615 -0.000001 0.000000
# 5 0.000000 0.000000 -0.000001 -0.000001 0.055540 0.000000
# 6 0.000000 0.000000 0.000000 0.000000 0.000000 -0.006982
#
#
# Mechanical properties :
#
#
# Convention : Reuss Voigt Hill
#
# Bulk Modulus (GPa) = 54.55301 61.59586 58.07443
# Shear Modulus (GPa) = 29.34346 -7.00335 11.17005
#
# Velocity S-wave (km/s) = 4.16820 -2.03632 2.57170
# Velocity P-wave (km/s) = 7.44751 5.56250 6.57293
#
# Compressibility (1/GPa) = 0.01833080
#
# Stress axis : x y z
#
# Youngs Moduli (GPa) = 53.05390 102.62976 115.88649
#
# Poissons Ratio (x) = 0.43977 0.36914
# Poissons Ratio (y) = 0.22734 0.22888
# Poissons Ratio (z) = 0.16899 0.20270
#
# Static dielectric constant tensor:
#      x y z
#    x 2.921410 0.000000 0.000000 
#    y 0.000000 3.107620 0.000000 
#    z 0.000000 0.000000 3.424510 
# 
# 
# High freq. dielectric constant tensor:
#      x y z
#    x 1.622980 0.000000 0.000000 
#    y 0.000000 1.654210 0.000000 
#    z 0.000000 0.000000 1.673210 
# 
# From -- ./inp_files/10430.got.cif
#   From: 2010.03.12/outbox.cif.g09.slc.cpg/sg69_6_cif.got.tgz:10430.got - 2010.04.10 23:52:46.
