data_PCOD8284585
_publ_section_title
;
Structure prediction by ZEFSAII (Michael W. Deem and Ramdas Pophale) SiO2 
 PCOD8284585
Probable space group: F M M M
;
_chemical_formula_sum "Si O2"
_cell_formula_units_Z 104
_cell_length_a 9.612411
_cell_length_b 26.087508
_cell_length_c 24.303139
_cell_angle_alpha 90.000000
_cell_angle_beta 90.000000
_cell_angle_gamma 90.000000
_cell_volume 6094.348675
_symmetry_space_group_name_H-M "F M M M"
_symmetry_group_IT_number 69
_symmetry_cell_setting 'orthorhombic'
loop_
_space_group_symop_operation_xyz
x,y,z
-x,-y,z
x,-y,-z
-x,y,-z
-x,-y,-z
x,y,-z
-x,y,z
x,-y,z
x,1/2+y,1/2+z
-x,1/2-y,1/2+z
x,1/2-y,1/2-z
-x,1/2+y,1/2-z
-x,1/2-y,1/2-z
x,1/2+y,1/2-z
-x,1/2+y,1/2+z
x,1/2-y,1/2+z
1/2+x,y,1/2+z
1/2-x,-y,1/2+z
1/2+x,-y,1/2-z
1/2-x,y,1/2-z
1/2-x,-y,1/2-z
1/2+x,y,1/2-z
1/2-x,y,1/2+z
1/2+x,-y,1/2+z
1/2+x,1/2+y,z
1/2-x,1/2-y,z
1/2+x,1/2-y,-z
1/2-x,1/2+y,-z
1/2-x,1/2-y,-z
1/2+x,1/2+y,-z
1/2-x,1/2+y,z
1/2+x,1/2-y,z
loop_
_atom_site_type_symbol
_atom_site_label
_atom_site_fract_x
_atom_site_fract_y
_atom_site_fract_z
Si Si1 0.750000 0.250000 0.750000
Si Si2 0.165243 0.093752 0.616554
Si Si3 0.833786 0.500000 0.806706
Si Si4 0.334219 0.057476 0.000000
Si Si5 0.844048 0.794626 0.354833
O O1 0.846084 0.214138 0.711240
O O2 0.223571 0.084398 0.555053
O O3 0.221764 0.149461 0.634420
O O4 0.000000 0.093208 0.616134
O O5 0.214881 0.049896 0.658772
O O6 0.750000 0.500000 0.750000
O O7 0.000000 0.500000 0.795874
O O8 0.500000 0.058006 0.000000
O O9 0.277568 0.000000 0.000000
O O10 0.750000 0.750000 0.383349
O O11 0.000000 0.790868 0.378682
#
# Coordination Sequence:
#
# PCOD8284585 Si02
#       5
#     8  32  16  16  32
#     4   8  18  28  46  60  98 128 166 184 230 280
#     4   9  17  30  47  72  99 125 160 206 244 283
#     4  10  20  31  47  73 105 128 155 194 246 298
#     4   9  14  26  49  72  94 124 162 203 248 281
#     4   9  18  30  46  68  94 125 161 196 235 281
#
# _framework density 17.064990000000002
#
# number of rings (size 3 to 8) (size 9 to 14) (size 15 to 20)
#    0.923    2.000    1.538    0.462    2.154    0.000 
#    0.000    2.308    0.000    0.000    0.000    4.308 
#    0.000    0.000    0.000    0.000    0.000    0.000 
#
# Total GULP energy -322105.874457 kJ/mol
# GULP energy per Si atom -12388.687479 kJ/mol
# Density = 1.702615 g / cm^3
# Si number density = 17.064990 Si / 1000 Ang^3
#
#
#
# Elastic Constant Matrix: (Units=GPa)
#
#
# Indices 1 2 3 4 5 6 
#
# 1 35.9597 31.2093 16.1390 0.0000 0.0000 0.0000
# 2 31.2093 188.0065 76.2601 0.0000 0.0000 0.0000
# 3 16.1390 76.2601 131.4100 0.0000 0.0000 0.0000
# 4 0.0000 0.0000 0.0000 35.0023 0.0000 0.0000
# 5 0.0000 0.0000 0.0000 0.0000 9.0698 0.0000
# 6 0.0000 0.0000 0.0000 0.0000 0.0000 19.8936
#
#
#
# Elastic Compliance Matrix: (Units=1/GPa)
#
#
# Indices 1 2 3 4 5 6 
#
# 1 0.032618 -0.004956 -0.001130 0.000000 0.000000 0.000000
# 2 -0.004956 0.007710 -0.003865 0.000000 0.000000 0.000000
# 3 -0.001130 -0.003865 0.009992 0.000000 0.000000 0.000000
# 4 0.000000 0.000000 0.000000 0.028570 0.000000 0.000000
# 5 0.000000 0.000000 0.000000 0.000000 0.110256 0.000000
# 6 0.000000 0.000000 0.000000 0.000000 0.000000 0.050268
#
#
# Mechanical properties :
#
#
# Convention : Reuss Voigt Hill
#
# Bulk Modulus (GPa) = 32.87726 66.95478 49.91602
# Shear Modulus (GPa) = 18.55610 28.24431 23.40021
#
# Velocity S-wave (km/s) = 3.30112 4.07271 3.70704
# Velocity P-wave (km/s) = 5.81701 7.83813 6.90195
#
# Compressibility (1/GPa) = 0.03041616
#
# Stress axis : x y z
#
# Youngs Moduli (GPa) = 30.65836 129.70837 100.08369
#
# Poissons Ratio (x) = 0.64288 0.11306
# Poissons Ratio (y) = 0.15195 0.38686
# Poissons Ratio (z) = 0.03463 0.50137
#
# Static dielectric constant tensor:
#      x y z
#    x 2.627110 0.000000 0.000000 
#    y 0.000000 3.430280 0.000000 
#    z 0.000000 0.000000 3.180240 
# 
# 
# High freq. dielectric constant tensor:
#      x y z
#    x 1.602510 0.000000 0.000000 
#    y 0.000000 1.670810 0.000000 
#    z 0.000000 0.000000 1.649440 
# 
# From -- ./inp_files/29044.got.cif
#   From: 2010.03.12/outbox.cif.g09.slc.cpg/sg69_15_cif.got.tgz:29044.got - 2010.04.10 23:52:46.
