data_PCOD8284153
_publ_section_title
;
Structure prediction by ZEFSAII (Michael W. Deem and Ramdas Pophale) SiO2 
 PCOD8284153
Probable space group: F M M M
;
_chemical_formula_sum "Si O2"
_cell_formula_units_Z 208
_cell_length_a 32.012078
_cell_length_b 18.393808
_cell_length_c 17.907232
_cell_angle_alpha 90.000000
_cell_angle_beta 90.000000
_cell_angle_gamma 90.000000
_cell_volume 10544.208269
_symmetry_space_group_name_H-M "F M M M"
_symmetry_group_IT_number 69
_symmetry_cell_setting 'orthorhombic'
loop_
_space_group_symop_operation_xyz
x,y,z
-x,-y,z
x,-y,-z
-x,y,-z
-x,-y,-z
x,y,-z
-x,y,z
x,-y,z
x,1/2+y,1/2+z
-x,1/2-y,1/2+z
x,1/2-y,1/2-z
-x,1/2+y,1/2-z
-x,1/2-y,1/2-z
x,1/2+y,1/2-z
-x,1/2+y,1/2+z
x,1/2-y,1/2+z
1/2+x,y,1/2+z
1/2-x,-y,1/2+z
1/2+x,-y,1/2-z
1/2-x,y,1/2-z
1/2-x,-y,1/2-z
1/2+x,y,1/2-z
1/2-x,y,1/2+z
1/2+x,-y,1/2+z
1/2+x,1/2+y,z
1/2-x,1/2-y,z
1/2+x,1/2-y,-z
1/2-x,1/2+y,-z
1/2-x,1/2-y,-z
1/2+x,1/2+y,-z
1/2-x,1/2+y,z
1/2+x,1/2-y,z
loop_
_atom_site_type_symbol
_atom_site_label
_atom_site_fract_x
_atom_site_fract_y
_atom_site_fract_z
Si Si1 0.500000 0.414942 0.583163
Si Si2 0.545297 0.218928 0.667309
Si Si3 0.753529 0.586984 0.165797
Si Si4 0.666380 0.581324 0.416229
Si Si5 0.086490 0.857920 0.357368
Si Si6 0.596331 0.585930 0.194262
Si Si7 0.671786 0.585739 0.083886
O O1 0.500000 0.500000 0.574822
O O2 0.500000 0.379651 0.500000
O O3 0.458544 0.393801 0.628406
O O4 0.500000 0.225740 0.627121
O O5 0.540497 0.250000 0.750000
O O6 0.580378 0.271153 0.631523
O O7 0.557846 0.134050 0.663347
O O8 0.753649 0.500000 0.162767
O O9 0.750000 0.615703 0.250000
O O10 0.797254 0.617738 0.133569
O O11 0.715013 0.617750 0.116925
O O12 0.683619 0.580601 0.500000
O O13 0.657442 0.500000 0.387054
O O14 0.622364 0.623109 0.416010
O O15 0.104816 0.885920 0.278092
O O16 0.585437 0.500000 0.192412
O O17 0.635338 0.605678 0.141845
O O18 0.675512 0.500000 0.078182
O O19 0.663560 0.617301 0.000000
#
# Coordination Sequence:
#
# PCOD8284153 Si02
#       7
#    16  32  32  32  32  32  32
#     4  11  22  34  51  78 110 144 181 222 265 317
#     4   9  19  36  54  77 107 140 177 225 278 326
#     4   9  16  27  47  76 110 144 182 224 268 323
#     4  10  19  30  47  76 113 148 183 226 271 315
#     4  11  20  35  53  76 111 148 183 219 267 329
#     4  10  20  33  57  85 105 135 185 231 270 319
#     4   9  17  31  50  75 109 144 178 224 280 326
#
# _framework density 19.726469999999999
#
# number of rings (size 3 to 8) (size 9 to 14) (size 15 to 20)
#    0.000    2.231    0.769    3.231    1.077    5.846 
#    0.000    1.538    0.000    0.923    0.000    8.615 
#    0.000    0.000    0.000    0.000    0.000    0.000 
#
# Total GULP energy -644372.333802 kJ/mol
# GULP energy per Si atom -12391.775650 kJ/mol
# Density = 1.968157 g / cm^3
# Si number density = 19.726470 Si / 1000 Ang^3
#
#
#
# Elastic Constant Matrix: (Units=GPa)
#
#
# Indices 1 2 3 4 5 6 
#
# 1 148.8794 38.3366 55.4605 0.0000 0.0000 0.0000
# 2 38.3366 86.6243 12.3676 0.0000 0.0000 0.0000
# 3 55.4605 12.3676 105.4465 0.0000 0.0000 0.0000
# 4 0.0000 0.0000 0.0000 10.5253 0.0000 0.0000
# 5 0.0000 0.0000 0.0000 0.0000 50.1788 0.0000
# 6 0.0000 0.0000 0.0000 0.0000 0.0000 4.6806
#
#
#
# Elastic Compliance Matrix: (Units=1/GPa)
#
#
# Indices 1 2 3 4 5 6 
#
# 1 0.009275 -0.003466 -0.004472 0.000000 0.000000 0.000000
# 2 -0.003466 0.013036 0.000294 0.000000 0.000000 0.000000
# 3 -0.004472 0.000294 0.011801 0.000000 0.000000 0.000000
# 4 0.000000 0.000000 0.000000 0.095009 0.000000 0.000000
# 5 0.000000 0.000000 0.000000 0.000000 0.019929 0.000000
# 6 0.000000 0.000000 0.000000 0.000000 0.000000 0.213649
#
#
# Mechanical properties :
#
#
# Convention : Reuss Voigt Hill
#
# Bulk Modulus (GPa) = 53.12269 61.47550 57.29910
# Shear Modulus (GPa) = 13.01193 28.72930 20.87061
#
# Velocity S-wave (km/s) = 2.57109 3.82040 3.25622
# Velocity P-wave (km/s) = 5.98349 7.11985 6.57626
#
# Compressibility (1/GPa) = 0.01882435
#
# Stress axis : x y z
#
# Youngs Moduli (GPa) = 107.81315 76.70943 84.73866
#
# Poissons Ratio (x) = 0.26591 0.37894
# Poissons Ratio (y) = 0.37373 -0.02493
# Poissons Ratio (z) = 0.48212 -0.02257
#
# Static dielectric constant tensor:
#      x y z
#    x 3.685280 0.000000 0.000000 
#    y 0.000000 3.402710 0.000000 
#    z 0.000000 0.000000 3.706170 
# 
# 
# High freq. dielectric constant tensor:
#      x y z
#    x 1.778020 0.000000 0.000000 
#    y 0.000000 1.726910 0.000000 
#    z 0.000000 0.000000 1.764220 
# 
# From -- ./inp_files/27911.got.cif
#   From: 2010.03.12/outbox.cif.g09.slc.cpg/sg69_14_cif.got.tgz:27911.got - 2010.04.10 23:52:46.
