data_PCOD8284706
_publ_section_title
;
Structure prediction by ZEFSAII (Michael W. Deem and Ramdas Pophale) SiO2 
 PCOD8284706
Probable space group: F M M M
;
_chemical_formula_sum "Si O2"
_cell_formula_units_Z 176
_cell_length_a 24.646911
_cell_length_b 20.559415
_cell_length_c 17.713552
_cell_angle_alpha 90.000000
_cell_angle_beta 90.000000
_cell_angle_gamma 90.000000
_cell_volume 8975.918621
_symmetry_space_group_name_H-M "F M M M"
_symmetry_group_IT_number 69
_symmetry_cell_setting 'orthorhombic'
loop_
_space_group_symop_operation_xyz
x,y,z
-x,-y,z
x,-y,-z
-x,y,-z
-x,-y,-z
x,y,-z
-x,y,z
x,-y,z
x,1/2+y,1/2+z
-x,1/2-y,1/2+z
x,1/2-y,1/2-z
-x,1/2+y,1/2-z
-x,1/2-y,1/2-z
x,1/2+y,1/2-z
-x,1/2+y,1/2+z
x,1/2-y,1/2+z
1/2+x,y,1/2+z
1/2-x,-y,1/2+z
1/2+x,-y,1/2-z
1/2-x,y,1/2-z
1/2-x,-y,1/2-z
1/2+x,y,1/2-z
1/2-x,y,1/2+z
1/2+x,-y,1/2+z
1/2+x,1/2+y,z
1/2-x,1/2-y,z
1/2+x,1/2-y,-z
1/2-x,1/2+y,-z
1/2-x,1/2-y,-z
1/2+x,1/2+y,-z
1/2-x,1/2+y,z
1/2+x,1/2-y,z
loop_
_atom_site_type_symbol
_atom_site_label
_atom_site_fract_x
_atom_site_fract_y
_atom_site_fract_z
Si Si1 0.000000 0.778845 0.583279
Si Si2 0.885002 0.281008 0.416372
Si Si3 0.710880 0.808227 0.913972
Si Si4 0.000000 0.172681 0.735491
Si Si5 0.894040 0.887744 0.193742
Si Si6 0.300128 0.072107 0.804946
Si Si7 0.564287 0.000000 0.588667
O O1 0.051481 0.732170 0.595161
O O2 0.000000 0.836448 0.644419
O O3 0.000000 0.810763 0.500000
O O4 0.874642 0.310428 0.500000
O O5 0.851387 0.214661 0.407351
O O6 0.864363 0.330057 0.352069
O O7 0.750000 0.750000 0.883220
O O8 0.714087 0.874712 0.867831
O O9 0.727565 0.824088 0.000000
O O10 0.000000 0.250000 0.750000
O O11 0.947563 0.137621 0.766272
O O12 0.854596 0.913953 0.258045
O O13 0.909618 0.938531 0.129340
O O14 0.250000 0.071748 0.750000
O O15 0.306498 0.000000 0.841916
O O16 0.500000 0.000000 0.599652
O O17 0.579578 0.000000 0.500000
#
# Coordination Sequence:
#
# PCOD8284706 Si02
#       7
#    16  32  32  16  32  32  16
#     4  10  20  34  50  83 123 154 190 245 317 383
#     4  10  20  34  57  87 119 152 193 252 309 368
#     4  10  22  41  64  91 118 154 208 265 320 376
#     4  12  22  35  59  94 120 158 207 260 326 372
#     4  12  22  39  61  88 125 164 211 257 314 385
#     4  11  25  42  62  87 126 167 211 261 315 381
#     4  11  24  42  61  90 128 172 211 257 328 400
#
# _framework density 19.60802
#
# number of rings (size 3 to 8) (size 9 to 14) (size 15 to 20)
#    0.000    1.182    3.636    2.727    0.000    2.182 
#    0.000    0.909    0.000    0.000    0.000    0.636 
#    0.000    0.364    0.000    0.000    0.000    0.000 
#
# Total GULP energy -545472.439673 kJ/mol
# GULP energy per Si atom -12397.100902 kJ/mol
# Density = 1.956339 g / cm^3
# Si number density = 19.608020 Si / 1000 Ang^3
#
#
#
# Elastic Constant Matrix: (Units=GPa)
#
#
# Indices 1 2 3 4 5 6 
#
# 1 101.5790 47.7733 26.5290 0.0000 0.0000 0.0000
# 2 47.7733 140.4065 78.7451 0.0000 0.0000 0.0000
# 3 26.5290 78.7451 122.1227 0.0000 0.0000 0.0000
# 4 0.0000 0.0000 0.0000 46.4618 0.0000 0.0000
# 5 0.0000 0.0000 0.0000 0.0000 26.2532 0.0000
# 6 0.0000 0.0000 0.0000 0.0000 0.0000 22.9632
#
#
#
# Elastic Compliance Matrix: (Units=1/GPa)
#
#
# Indices 1 2 3 4 5 6 
#
# 1 0.011720 -0.004010 0.000040 0.000000 0.000000 0.000000
# 2 -0.004010 0.012529 -0.007208 0.000000 0.000000 0.000000
# 3 0.000040 -0.007208 0.012827 0.000000 0.000000 0.000000
# 4 0.000000 0.000000 0.000000 0.021523 0.000000 0.000000
# 5 0.000000 0.000000 0.000000 0.000000 0.038091 0.000000
# 6 0.000000 0.000000 0.000000 0.000000 0.000000 0.043548
#
#
# Mechanical properties :
#
#
# Convention : Reuss Voigt Hill
#
# Bulk Modulus (GPa) = 67.93234 74.46701 71.19967
# Shear Modulus (GPa) = 29.85065 33.20634 31.52850
#
# Velocity S-wave (km/s) = 3.90599 4.11969 4.01426
# Velocity P-wave (km/s) = 7.42043 7.79034 7.60763
#
# Compressibility (1/GPa) = 0.01472053
#
# Stress axis : x y z
#
# Youngs Moduli (GPa) = 85.32326 79.81590 77.95877
#
# Poissons Ratio (x) = 0.32006 -0.00309
# Poissons Ratio (y) = 0.34215 0.56189
# Poissons Ratio (z) = -0.00339 0.57527
#
# Static dielectric constant tensor:
#      x y z
#    x 3.616560 0.000000 0.000000 
#    y 0.000000 3.123970 0.000000 
#    z 0.000000 0.000000 3.860960 
# 
# 
# High freq. dielectric constant tensor:
#      x y z
#    x 1.778120 0.000000 0.000000 
#    y 0.000000 1.749910 0.000000 
#    z 0.000000 0.000000 1.771840 
# 
# From -- ./inp_files/26826.got.cif
#   From: 2010.03.12/outbox.cif.g09.slc.cpg/sg69_14_cif.got.tgz:26826.got - 2010.04.10 23:52:46.
