data_PCOD8284154
_publ_section_title
;
Structure prediction by ZEFSAII (Michael W. Deem and Ramdas Pophale) SiO2 
 PCOD8284154
Probable space group: F M M M
;
_chemical_formula_sum "Si O2"
_cell_formula_units_Z 192
_cell_length_a 18.800830
_cell_length_b 20.152706
_cell_length_c 29.235962
_cell_angle_alpha 90.000000
_cell_angle_beta 90.000000
_cell_angle_gamma 90.000000
_cell_volume 11077.143463
_symmetry_space_group_name_H-M "F M M M"
_symmetry_group_IT_number 69
_symmetry_cell_setting 'orthorhombic'
loop_
_space_group_symop_operation_xyz
x,y,z
-x,-y,z
x,-y,-z
-x,y,-z
-x,-y,-z
x,y,-z
-x,y,z
x,-y,z
x,1/2+y,1/2+z
-x,1/2-y,1/2+z
x,1/2-y,1/2-z
-x,1/2+y,1/2-z
-x,1/2-y,1/2-z
x,1/2+y,1/2-z
-x,1/2+y,1/2+z
x,1/2-y,1/2+z
1/2+x,y,1/2+z
1/2-x,-y,1/2+z
1/2+x,-y,1/2-z
1/2-x,y,1/2-z
1/2-x,-y,1/2-z
1/2+x,y,1/2-z
1/2-x,y,1/2+z
1/2+x,-y,1/2+z
1/2+x,1/2+y,z
1/2-x,1/2-y,z
1/2+x,1/2-y,-z
1/2-x,1/2+y,-z
1/2-x,1/2-y,-z
1/2+x,1/2+y,-z
1/2-x,1/2+y,z
1/2+x,1/2-y,z
loop_
_atom_site_type_symbol
_atom_site_label
_atom_site_fract_x
_atom_site_fract_y
_atom_site_fract_z
Si Si1 0.582703 0.071740 0.500000
Si Si2 0.916926 0.783624 0.796022
Si Si3 0.180737 0.619398 0.945575
Si Si4 0.336826 0.616259 0.083268
Si Si5 0.328400 0.257019 0.379721
Si Si6 0.581908 0.426169 0.830248
Si Si7 0.579583 0.000000 0.946217
O O1 0.500000 0.064047 0.500000
O O2 0.604992 0.109434 0.455184
O O3 0.620323 0.000000 0.500000
O O4 0.886198 0.750000 0.750000
O O5 0.883545 0.743070 0.838101
O O6 0.900264 0.863526 0.796858
O O7 0.000000 0.770684 0.799498
O O8 0.258905 0.591589 0.932565
O O9 0.161387 0.681346 0.913601
O O10 0.122910 0.564861 0.931134
O O11 0.177941 0.636663 0.000000
O O12 0.339032 0.694300 0.088631
O O13 0.363164 0.576531 0.127763
O O14 0.250000 0.250000 0.357700
O O15 0.500000 0.418930 0.847127
O O16 0.591903 0.500000 0.807203
O O17 0.500000 0.000000 0.924176
O O18 0.572087 0.000000 0.000000
#
# Coordination Sequence:
#
# PCOD8284154 Si02
#       7
#    16  32  32  32  32  32  16
#     4  11  22  30  41  68 108 143 170 205 247 293
#     4   9  18  34  56  79 103 136 174 214 264 327
#     4  10  20  33  54  73  99 138 178 221 267 304
#     4  10  19  30  48  72 104 138 178 207 245 310
#     4   9  20  34  52  79 102 134 173 218 265 314
#     4   9  17  30  49  75 109 140 169 210 255 307
#     4   9  20  36  50  68  92 127 182 230 266 311
#
# _framework density 17.332989000000001
#
# number of rings (size 3 to 8) (size 9 to 14) (size 15 to 20)
#    0.000    2.500    0.833    1.000    3.500    4.000 
#    0.000    0.000    1.833    0.000    0.000    3.500 
#    0.000    0.000    0.000    0.000    0.000    0.000 
#
# Total GULP energy -594770.401004 kJ/mol
# GULP energy per Si atom -12391.050021 kJ/mol
# Density = 1.729354 g / cm^3
# Si number density = 17.332989 Si / 1000 Ang^3
#
#
#
# Elastic Constant Matrix: (Units=GPa)
#
#
# Indices 1 2 3 4 5 6 
#
# 1 84.4780 51.0832 43.3742 0.0000 0.0000 0.0000
# 2 51.0832 121.1302 55.7863 0.0000 0.0000 0.0000
# 3 43.3742 55.7863 86.6476 0.0000 0.0000 0.0000
# 4 0.0000 0.0000 0.0000 13.8480 0.0000 0.0000
# 5 0.0000 0.0000 0.0000 0.0000 30.5646 0.0000
# 6 0.0000 0.0000 0.0000 0.0000 0.0000 23.2585
#
#
#
# Elastic Compliance Matrix: (Units=1/GPa)
#
#
# Indices 1 2 3 4 5 6 
#
# 1 0.017708 -0.004812 -0.005766 0.000000 0.000000 0.000000
# 2 -0.004812 0.013043 -0.005989 0.000000 0.000000 0.000000
# 3 -0.005766 -0.005989 0.018283 0.000000 0.000000 0.000000
# 4 0.000000 0.000000 0.000000 0.072212 0.000000 0.000000
# 5 0.000000 0.000000 0.000000 0.000000 0.032718 0.000000
# 6 0.000000 0.000000 0.000000 0.000000 0.000000 0.042995
#
#
# Mechanical properties :
#
#
# Convention : Reuss Voigt Hill
#
# Bulk Modulus (GPa) = 62.89204 65.86036 64.37620
# Shear Modulus (GPa) = 21.24114 23.00171 22.12142
#
# Velocity S-wave (km/s) = 3.50448 3.64682 3.57636
# Velocity P-wave (km/s) = 7.26213 7.47074 7.36717
#
# Compressibility (1/GPa) = 0.01590026
#
# Stress axis : x y z
#
# Youngs Moduli (GPa) = 56.47239 76.66923 54.69589
#
# Poissons Ratio (x) = 0.36895 0.31537
# Poissons Ratio (y) = 0.27176 0.32755
# Poissons Ratio (z) = 0.32561 0.45914
#
# Static dielectric constant tensor:
#      x y z
#    x 3.523210 0.000000 0.000000 
#    y 0.000000 3.241770 0.000000 
#    z 0.000000 0.000000 3.024210 
# 
# 
# High freq. dielectric constant tensor:
#      x y z
#    x 1.674050 0.000000 0.000000 
#    y 0.000000 1.679170 0.000000 
#    z 0.000000 0.000000 1.641530 
# 
# From -- ./inp_files/37387.got.cif
#   From: 2010.03.12/outbox.cif.g09.slc.cpg/sg69_19_cif.got.tgz:37387.got - 2010.04.10 23:52:46.
