data_PCOD8284933
_publ_section_title
;
Structure prediction by ZEFSAII (Michael W. Deem and Ramdas Pophale) SiO2 
 PCOD8284933
Probable space group: F M M M
;
_chemical_formula_sum "Si O2"
_cell_formula_units_Z 168
_cell_length_a 28.132073
_cell_length_b 21.867977
_cell_length_c 14.215607
_cell_angle_alpha 90.000000
_cell_angle_beta 90.000000
_cell_angle_gamma 90.000000
_cell_volume 8745.320954
_symmetry_space_group_name_H-M "F M M M"
_symmetry_group_IT_number 69
_symmetry_cell_setting 'orthorhombic'
loop_
_space_group_symop_operation_xyz
x,y,z
-x,-y,z
x,-y,-z
-x,y,-z
-x,-y,-z
x,y,-z
-x,y,z
x,-y,z
x,1/2+y,1/2+z
-x,1/2-y,1/2+z
x,1/2-y,1/2-z
-x,1/2+y,1/2-z
-x,1/2-y,1/2-z
x,1/2+y,1/2-z
-x,1/2+y,1/2+z
x,1/2-y,1/2+z
1/2+x,y,1/2+z
1/2-x,-y,1/2+z
1/2+x,-y,1/2-z
1/2-x,y,1/2-z
1/2-x,-y,1/2-z
1/2+x,y,1/2-z
1/2-x,y,1/2+z
1/2+x,-y,1/2+z
1/2+x,1/2+y,z
1/2-x,1/2-y,z
1/2+x,1/2-y,-z
1/2-x,1/2+y,-z
1/2-x,1/2-y,-z
1/2+x,1/2+y,-z
1/2-x,1/2+y,z
1/2+x,1/2-y,z
loop_
_atom_site_type_symbol
_atom_site_label
_atom_site_fract_x
_atom_site_fract_y
_atom_site_fract_z
Si Si1 0.056037 0.735428 0.396113
Si Si2 0.555798 0.651755 0.272074
Si Si3 0.859363 0.929374 0.297244
Si Si4 0.250000 0.750000 0.750000
Si Si5 0.717773 0.434016 0.842294
Si Si6 0.711213 0.842247 0.896585
O O1 0.079184 0.728099 0.500000
O O2 0.069082 0.677615 0.331236
O O3 0.073077 0.798399 0.348550
O O4 0.000000 0.739327 0.404213
O O5 0.500000 0.636389 0.280870
O O6 0.585652 0.590432 0.289914
O O7 0.835637 0.920327 0.193906
O O8 0.831958 0.887947 0.373452
O O9 0.857004 0.000000 0.329680
O O10 0.284342 0.790449 0.816345
O O11 0.719396 0.500000 0.894804
O O12 0.750000 0.437276 0.750000
O O13 0.738934 0.379910 0.905685
O O14 0.702204 0.812957 0.000000
#
# Coordination Sequence:
#
# PCOD8284933 Si02
#       6
#    32  32  32   8  32  32
#     4   8  15  31  54  76 102 140 186 235 283 328
#     4   9  18  32  53  82 113 148 191 231 274 331
#     4  10  20  36  56  79 113 150 186 230 277 325
#     4  12  22  40  58  86 122 144 170 230 280 338
#     4   8  15  33  56  74  99 138 177 222 268 312
#     4  11  22  38  61  84 110 146 182 222 279 340
#
# _framework density 19.210272
#
# number of rings (size 3 to 8) (size 9 to 14) (size 15 to 20)
#    0.000    2.667    2.857    3.143    0.000    4.190 
#    0.000    0.952    0.000    1.714    0.000    6.667 
#    0.000    0.000    0.000    0.000    0.000    0.000 
#
# Total GULP energy -520398.239501 kJ/mol
# GULP energy per Si atom -12390.434274 kJ/mol
# Density = 1.916655 g / cm^3
# Si number density = 19.210272 Si / 1000 Ang^3
#
#
#
# Elastic Constant Matrix: (Units=GPa)
#
#
# Indices 1 2 3 4 5 6 
#
# 1 81.9107 45.9589 24.0130 0.0000 0.0000 0.0000
# 2 45.9589 103.9434 44.8369 0.0000 0.0000 0.0000
# 3 24.0130 44.8369 128.7308 0.0000 0.0000 0.0000
# 4 0.0000 0.0000 0.0000 2.5883 0.0000 0.0000
# 5 0.0000 0.0000 0.0000 0.0000 12.2120 0.0000
# 6 0.0000 0.0000 0.0000 0.0000 0.0000 35.2349
#
#
#
# Elastic Compliance Matrix: (Units=1/GPa)
#
#
# Indices 1 2 3 4 5 6 
#
# 1 0.016279 -0.006929 -0.000623 0.000000 0.000000 0.000000
# 2 -0.006929 0.014271 -0.003678 0.000000 0.000000 0.000000
# 3 -0.000623 -0.003678 0.009165 0.000000 0.000000 0.000000
# 4 0.000000 0.000000 0.000000 0.386358 0.000000 0.000000
# 5 0.000000 0.000000 0.000000 0.000000 0.081886 0.000000
# 6 0.000000 0.000000 0.000000 0.000000 0.000000 0.028381
#
#
# Mechanical properties :
#
#
# Convention : Reuss Voigt Hill
#
# Bulk Modulus (GPa) = 57.95509 60.46694 59.21102
# Shear Modulus (GPa) = 8.85657 23.32543 16.09100
#
# Velocity S-wave (km/s) = 2.14950 3.48834 2.89731
# Velocity P-wave (km/s) = 6.03281 6.91154 6.48707
#
# Compressibility (1/GPa) = 0.01725474
#
# Stress axis : x y z
#
# Youngs Moduli (GPa) = 61.42946 70.07318 109.10515
#
# Poissons Ratio (x) = 0.48553 0.06800
# Poissons Ratio (y) = 0.42564 0.40129
# Poissons Ratio (z) = 0.03829 0.25773
#
# Static dielectric constant tensor:
#      x y z
#    x 3.372340 0.000000 0.000000 
#    y 0.000000 3.501910 0.000000 
#    z 0.000000 0.000000 3.877510 
# 
# 
# High freq. dielectric constant tensor:
#      x y z
#    x 1.723690 0.000000 0.000000 
#    y 0.000000 1.736810 0.000000 
#    z 0.000000 0.000000 1.732310 
# 
# From -- ./inp_files/19702.got.cif
#   From: 2010.03.12/outbox.cif.g09.slc.cpg/sg69_10_cif.got.tgz:19702.got - 2010.04.10 23:52:46.
