data_PCOD8284406
_publ_section_title
;
Structure prediction by ZEFSAII (Michael W. Deem and Ramdas Pophale) SiO2 
 PCOD8284406
Probable space group: F M M M
;
_chemical_formula_sum "Si O2"
_cell_formula_units_Z 208
_cell_length_a 18.945986
_cell_length_b 21.247690
_cell_length_c 25.599729
_cell_angle_alpha 90.000000
_cell_angle_beta 90.000000
_cell_angle_gamma 90.000000
_cell_volume 10305.386901
_symmetry_space_group_name_H-M "F M M M"
_symmetry_group_IT_number 69
_symmetry_cell_setting 'orthorhombic'
loop_
_space_group_symop_operation_xyz
x,y,z
-x,-y,z
x,-y,-z
-x,y,-z
-x,-y,-z
x,y,-z
-x,y,z
x,-y,z
x,1/2+y,1/2+z
-x,1/2-y,1/2+z
x,1/2-y,1/2-z
-x,1/2+y,1/2-z
-x,1/2-y,1/2-z
x,1/2+y,1/2-z
-x,1/2+y,1/2+z
x,1/2-y,1/2+z
1/2+x,y,1/2+z
1/2-x,-y,1/2+z
1/2+x,-y,1/2-z
1/2-x,y,1/2-z
1/2-x,-y,1/2-z
1/2+x,y,1/2-z
1/2-x,y,1/2+z
1/2+x,-y,1/2+z
1/2+x,1/2+y,z
1/2-x,1/2-y,z
1/2+x,1/2-y,-z
1/2-x,1/2+y,-z
1/2-x,1/2-y,-z
1/2+x,1/2+y,-z
1/2-x,1/2+y,z
1/2+x,1/2-y,z
loop_
_atom_site_type_symbol
_atom_site_label
_atom_site_fract_x
_atom_site_fract_y
_atom_site_fract_z
Si Si1 0.581229 0.144572 0.887505
Si Si2 0.916902 0.315257 0.226107
Si Si3 0.657601 0.382582 0.098360
Si Si4 0.198808 0.426990 0.939356
Si Si5 0.420049 0.771545 0.439722
Si Si6 0.575607 0.928713 0.500000
Si Si7 0.918438 0.928306 0.801697
O O1 0.500000 0.122419 0.882355
O O2 0.610082 0.172398 0.832685
O O3 0.626250 0.085716 0.908203
O O4 0.591486 0.197857 0.931390
O O5 0.884086 0.250000 0.250000
O O6 0.895348 0.377313 0.258566
O O7 0.000000 0.306636 0.224885
O O8 0.741350 0.386516 0.090128
O O9 0.632515 0.309806 0.098349
O O10 0.633803 0.418320 0.150159
O O11 0.620252 0.415756 0.050604
O O12 0.217783 0.500000 0.934531
O O13 0.192412 0.407117 0.000000
O O14 0.403960 0.789148 0.500000
O O15 0.500000 0.789065 0.423828
O O16 0.500000 0.891231 0.500000
O O17 0.555268 0.000000 0.500000
O O18 0.000000 0.917613 0.818567
O O19 0.908479 0.000000 0.780524
#
# Coordination Sequence:
#
# PCOD8284406 Si02
#       7
#    32  32  32  32  32  16  32
#     4  10  22  40  63  87 112 149 200 255 303 352
#     4   9  18  36  61  88 115 146 190 246 306 357
#     4  12  21  35  55  83 120 159 191 227 286 357
#     4  11  24  41  59  82 117 160 202 248 299 347
#     4  10  19  33  56  87 119 149 187 237 290 350
#     4  11  20  30  50  79 113 153 194 229 269 337
#     4  10  20  33  54  85 119 152 189 236 288 348
#
# _framework density 20.183619
#
# number of rings (size 3 to 8) (size 9 to 14) (size 15 to 20)
#    0.000    1.615    1.538    4.154    0.000    6.154 
#    0.000    4.615    0.000    2.769    0.000    0.000 
#    0.000    0.000    0.000    0.000    0.000    0.000 
#
# Total GULP energy -644715.408365 kJ/mol
# GULP energy per Si atom -12398.373238 kJ/mol
# Density = 2.013768 g / cm^3
# Si number density = 20.183619 Si / 1000 Ang^3
#
#
#
# Elastic Constant Matrix: (Units=GPa)
#
#
# Indices 1 2 3 4 5 6 
#
# 1 87.1696 27.9957 37.6006 0.0000 0.0000 0.0000
# 2 27.9957 88.8151 38.9181 0.0000 0.0000 0.0000
# 3 37.6006 38.9181 90.9501 0.0000 0.0000 0.0000
# 4 0.0000 0.0000 0.0000 35.4054 0.0000 0.0000
# 5 0.0000 0.0000 0.0000 0.0000 18.0146 0.0000
# 6 0.0000 0.0000 0.0000 0.0000 0.0000 33.3053
#
#
#
# Elastic Compliance Matrix: (Units=1/GPa)
#
#
# Indices 1 2 3 4 5 6 
#
# 1 0.014355 -0.002369 -0.004921 0.000000 0.000000 0.000000
# 2 -0.002369 0.014249 -0.005118 0.000000 0.000000 0.000000
# 3 -0.004921 -0.005118 0.015220 0.000000 0.000000 0.000000
# 4 0.000000 0.000000 0.000000 0.028244 0.000000 0.000000
# 5 0.000000 0.000000 0.000000 0.000000 0.055511 0.000000
# 6 0.000000 0.000000 0.000000 0.000000 0.000000 0.030025
#
#
# Mechanical properties :
#
#
# Convention : Reuss Voigt Hill
#
# Bulk Modulus (GPa) = 52.60902 52.88484 52.74693
# Shear Modulus (GPa) = 26.48939 28.17310 27.33124
#
# Velocity S-wave (km/s) = 3.62666 3.74015 3.68384
# Velocity P-wave (km/s) = 6.60747 6.70152 6.65466
#
# Compressibility (1/GPa) = 0.01900815
#
# Stress axis : x y z
#
# Youngs Moduli (GPa) = 69.66036 70.18266 65.70501
#
# Poissons Ratio (x) = 0.16623 0.32335
# Poissons Ratio (y) = 0.16499 0.33627
# Poissons Ratio (z) = 0.34282 0.35918
#
# Static dielectric constant tensor:
#      x y z
#    x 3.459480 0.000000 0.000000 
#    y 0.000000 3.770750 0.000000 
#    z 0.000000 0.000000 -9.654280 
# 
# 
# High freq. dielectric constant tensor:
#      x y z
#    x 1.758180 0.000000 0.000000 
#    y 0.000000 1.795960 0.000000 
#    z 0.000000 0.000000 1.783960 
# 
# From -- ./inp_files/41996.got.cif
#   From: 2010.03.12/outbox.cif.g09.slc.cpg/sg69_21_cif.got.tgz:41996.got - 2010.04.10 23:52:46.
