data_PCOD8284885
_publ_section_title
;
Structure prediction by ZEFSAII (Michael W. Deem and Ramdas Pophale) SiO2 
 PCOD8284885
Probable space group: F M M M
;
_chemical_formula_sum "Si O2"
_cell_formula_units_Z 192
_cell_length_a 24.593716
_cell_length_b 20.640589
_cell_length_c 18.789630
_cell_angle_alpha 90.000000
_cell_angle_beta 90.000000
_cell_angle_gamma 90.000000
_cell_volume 9538.157028
_symmetry_space_group_name_H-M "F M M M"
_symmetry_group_IT_number 69
_symmetry_cell_setting 'orthorhombic'
loop_
_space_group_symop_operation_xyz
x,y,z
-x,-y,z
x,-y,-z
-x,y,-z
-x,-y,-z
x,y,-z
-x,y,z
x,-y,z
x,1/2+y,1/2+z
-x,1/2-y,1/2+z
x,1/2-y,1/2-z
-x,1/2+y,1/2-z
-x,1/2-y,1/2-z
x,1/2+y,1/2-z
-x,1/2+y,1/2+z
x,1/2-y,1/2+z
1/2+x,y,1/2+z
1/2-x,-y,1/2+z
1/2+x,-y,1/2-z
1/2-x,y,1/2-z
1/2-x,-y,1/2-z
1/2+x,y,1/2-z
1/2-x,y,1/2+z
1/2+x,-y,1/2+z
1/2+x,1/2+y,z
1/2-x,1/2-y,z
1/2+x,1/2-y,-z
1/2-x,1/2+y,-z
1/2-x,1/2-y,-z
1/2+x,1/2+y,-z
1/2-x,1/2+y,z
1/2+x,1/2-y,z
loop_
_atom_site_type_symbol
_atom_site_label
_atom_site_fract_x
_atom_site_fract_y
_atom_site_fract_z
Si Si1 0.560616 0.688404 0.579175
Si Si2 0.701403 0.697569 0.176156
Si Si3 0.393878 0.819964 0.579208
Si Si4 0.259487 0.930335 0.167295
Si Si5 0.362708 0.633493 0.300844
Si Si6 0.562730 0.925088 0.682118
O O1 0.578696 0.663682 0.500000
O O2 0.500000 0.663116 0.596358
O O3 0.558606 0.766622 0.578035
O O4 0.600962 0.667352 0.640617
O O5 0.750000 0.750000 0.180059
O O6 0.654949 0.716956 0.120980
O O7 0.722227 0.629244 0.142085
O O8 0.674908 0.685409 0.255715
O O9 0.374489 0.838318 0.500000
O O10 0.415691 0.884828 0.615336
O O11 0.250000 0.938800 0.250000
O O12 0.323101 0.914345 0.155936
O O13 0.245745 0.000000 0.129617
O O14 0.401659 0.592558 0.250213
O O15 0.500000 0.908753 0.698364
O O16 0.570722 0.000000 0.663077
#
# Coordination Sequence:
#
# PCOD8284885 Si02
#       6
#    32  32  32  32  32  32
#     4  10  21  37  57  81 111 148 188 232 285 341
#     4  10  21  35  55  83 112 144 186 235 283 333
#     4  10  22  38  55  78 111 149 188 230 276 333
#     4   9  18  32  52  77 107 142 177 219 273 329
#     4  10  20  35  57  82 111 141 184 233 282 335
#     4  10  21  36  56  83 112 144 184 229 280 339
#
# _framework density 20.129674999999999
#
# number of rings (size 3 to 8) (size 9 to 14) (size 15 to 20)
#    0.000    2.167    0.000    2.500    0.000   16.667 
#    0.000    5.833    0.000    3.500    0.000    5.833 
#    0.000    0.000    0.000    0.000    0.000    0.000 
#
# Total GULP energy -594742.776218 kJ/mol
# GULP energy per Si atom -12390.474505 kJ/mol
# Density = 2.008386 g / cm^3
# Si number density = 20.129675 Si / 1000 Ang^3
#
#
#
# Elastic Constant Matrix: (Units=GPa)
#
#
# Indices 1 2 3 4 5 6 
#
# 1 112.5938 37.1638 39.1932 0.0000 0.0000 0.0000
# 2 37.1638 84.3784 26.7225 0.0000 0.0000 0.0000
# 3 39.1932 26.7225 86.2051 0.0000 0.0000 0.0000
# 4 0.0000 0.0000 0.0000 24.2854 0.0000 0.0000
# 5 0.0000 0.0000 0.0000 0.0000 18.9629 0.0000
# 6 0.0000 0.0000 0.0000 0.0000 0.0000 35.9993
#
#
#
# Elastic Compliance Matrix: (Units=1/GPa)
#
#
# Indices 1 2 3 4 5 6 
#
# 1 0.011554 -0.003798 -0.004076 0.000000 0.000000 0.000000
# 2 -0.003798 0.014390 -0.002734 0.000000 0.000000 0.000000
# 3 -0.004076 -0.002734 0.014301 0.000000 0.000000 0.000000
# 4 0.000000 0.000000 0.000000 0.041177 0.000000 0.000000
# 5 0.000000 0.000000 0.000000 0.000000 0.052735 0.000000
# 6 0.000000 0.000000 0.000000 0.000000 0.000000 0.027778
#
#
# Mechanical properties :
#
#
# Convention : Reuss Voigt Hill
#
# Bulk Modulus (GPa) = 52.55039 54.37071 53.46055
# Shear Modulus (GPa) = 26.38625 27.85605 27.12115
#
# Velocity S-wave (km/s) = 3.62444 3.72402 3.67457
# Velocity P-wave (km/s) = 6.60894 6.74981 6.67975
#
# Compressibility (1/GPa) = 0.01902936
#
# Stress axis : x y z
#
# Youngs Moduli (GPa) = 86.55169 69.49252 69.92665
#
# Poissons Ratio (x) = 0.26394 0.28499
# Poissons Ratio (y) = 0.32873 0.19118
# Poissons Ratio (z) = 0.35275 0.18999
#
# Static dielectric constant tensor:
#      x y z
#    x 4.000300 0.000000 0.000000 
#    y 0.000000 4.090930 0.000000 
#    z 0.000000 0.000000 3.440060 
# 
# 
# High freq. dielectric constant tensor:
#      x y z
#    x 1.803370 0.000000 0.000000 
#    y 0.000000 1.788440 0.000000 
#    z 0.000000 0.000000 1.752290 
# 
# From -- ./inp_files/32813.got.cif
#   From: 2010.03.12/outbox.cif.g09.slc.cpg/sg69_17_cif.got.tgz:32813.got - 2010.04.10 23:52:46.
