data_PCOD8284226
_publ_section_title
;
Structure prediction by ZEFSAII (Michael W. Deem and Ramdas Pophale) SiO2 
 PCOD8284226
Probable space group: F M M M
;
_chemical_formula_sum "Si O2"
_cell_formula_units_Z 160
_cell_length_a 24.732622
_cell_length_b 18.612577
_cell_length_c 18.401149
_cell_angle_alpha 90.000000
_cell_angle_beta 90.000000
_cell_angle_gamma 90.000000
_cell_volume 8470.745026
_symmetry_space_group_name_H-M "F M M M"
_symmetry_group_IT_number 69
_symmetry_cell_setting 'orthorhombic'
loop_
_space_group_symop_operation_xyz
x,y,z
-x,-y,z
x,-y,-z
-x,y,-z
-x,-y,-z
x,y,-z
-x,y,z
x,-y,z
x,1/2+y,1/2+z
-x,1/2-y,1/2+z
x,1/2-y,1/2-z
-x,1/2+y,1/2-z
-x,1/2-y,1/2-z
x,1/2+y,1/2-z
-x,1/2+y,1/2+z
x,1/2-y,1/2+z
1/2+x,y,1/2+z
1/2-x,-y,1/2+z
1/2+x,-y,1/2-z
1/2-x,y,1/2-z
1/2-x,-y,1/2-z
1/2+x,y,1/2-z
1/2-x,y,1/2+z
1/2+x,-y,1/2+z
1/2+x,1/2+y,z
1/2-x,1/2-y,z
1/2+x,1/2-y,-z
1/2-x,1/2+y,-z
1/2-x,1/2-y,-z
1/2+x,1/2+y,-z
1/2-x,1/2+y,z
1/2+x,1/2-y,z
loop_
_atom_site_type_symbol
_atom_site_label
_atom_site_fract_x
_atom_site_fract_y
_atom_site_fract_z
Si Si1 0.604247 0.825211 0.665528
Si Si2 0.500000 0.675151 0.081084
Si Si3 0.214666 0.317350 0.582303
Si Si4 0.399025 0.656373 0.326587
Si Si5 0.500000 0.653278 0.417121
Si Si6 0.189407 0.917994 0.582000
O O1 0.554160 0.855601 0.618845
O O2 0.662174 0.836445 0.628769
O O3 0.595609 0.741188 0.674413
O O4 0.601833 0.867650 0.742315
O O5 0.500000 0.761100 0.081112
O O6 0.500000 0.644717 0.000000
O O7 0.196537 0.297794 0.500000
O O8 0.250000 0.250000 0.613243
O O9 0.249450 0.389884 0.584494
O O10 0.448445 0.623032 0.372816
O O11 0.344309 0.631637 0.364281
O O12 0.500000 0.623223 0.500000
O O13 0.166440 0.910933 0.500000
O O14 0.188213 0.000000 0.608728
#
# Coordination Sequence:
#
# PCOD8284226 Si02
#       6
#    32  16  32  32  16  32
#     4  10  19  31  50  79 109 141 174 223 277 324
#     4   9  17  29  49  77 108 135 171 220 274 325
#     4  10  19  33  54  77 104 140 187 228 264 316
#     4  10  19  32  49  76 109 141 177 224 271 325
#     4   9  17  29  50  74 102 142 182 219 267 322
#     4  10  21  37  55  77 108 145 184 227 271 319
#
# _framework density 18.888539999999999
#
# number of rings (size 3 to 8) (size 9 to 14) (size 15 to 20)
#    0.000    2.200    2.000    1.800    0.000    4.800 
#    0.000    2.500    0.000    1.800    0.000    2.100 
#    0.000    6.400    0.000    0.000    0.000    0.000 
#
# Total GULP energy -495870.769213 kJ/mol
# GULP energy per Si atom -12396.769230 kJ/mol
# Density = 1.884555 g / cm^3
# Si number density = 18.888540 Si / 1000 Ang^3
#
#
#
# Elastic Constant Matrix: (Units=GPa)
#
#
# Indices 1 2 3 4 5 6 
#
# 1 140.2526 9.7381 88.3563 0.0000 0.0000 0.0000
# 2 9.7381 25.9474 18.6130 0.0000 0.0000 0.0000
# 3 88.3563 18.6130 161.1550 0.0000 0.0000 0.0000
# 4 0.0000 0.0000 0.0000 12.4914 0.0000 0.0000
# 5 0.0000 0.0000 0.0000 0.0000 21.8732 0.0000
# 6 0.0000 0.0000 0.0000 0.0000 0.0000 3.1918
#
#
#
# Elastic Compliance Matrix: (Units=1/GPa)
#
#
# Indices 1 2 3 4 5 6 
#
# 1 0.010893 0.000214 -0.005997 0.000000 0.000000 0.000000
# 2 0.000214 0.042025 -0.004971 0.000000 0.000000 0.000000
# 3 -0.005997 -0.004971 0.010067 0.000000 0.000000 0.000000
# 4 0.000000 0.000000 0.000000 0.080055 0.000000 0.000000
# 5 0.000000 0.000000 0.000000 0.000000 0.045718 0.000000
# 6 0.000000 0.000000 0.000000 0.000000 0.000000 0.313304
#
#
# Mechanical properties :
#
#
# Convention : Reuss Voigt Hill
#
# Bulk Modulus (GPa) = 24.10977 62.30775 43.20876
# Shear Modulus (GPa) = 9.30411 21.55445 15.42928
#
# Velocity S-wave (km/s) = 2.22182 3.38174 2.86118
# Velocity P-wave (km/s) = 4.40158 6.95032 5.81725
#
# Compressibility (1/GPa) = 0.04147695
#
# Stress axis : x y z
#
# Youngs Moduli (GPa) = 91.80035 23.79531 99.33084
#
# Poissons Ratio (x) = -0.00509 0.59570
# Poissons Ratio (y) = -0.01962 0.49377
# Poissons Ratio (z) = 0.55054 0.11829
#
# Static dielectric constant tensor:
#      x y z
#    x 3.527380 0.000000 0.000000 
#    y 0.000000 2.944410 0.000000 
#    z 0.000000 0.000000 3.730670 
# 
# 
# High freq. dielectric constant tensor:
#      x y z
#    x 1.743330 0.000000 0.000000 
#    y 0.000000 1.675130 0.000000 
#    z 0.000000 0.000000 1.742250 
# 
# From -- ./inp_files/24940.got.cif
#   From: 2010.03.12/outbox.cif.g09.slc.cpg/sg69_13_cif.got.tgz:24940.got - 2010.04.10 23:52:46.
