data_PCOD8284634
_publ_section_title
;
Structure prediction by ZEFSAII (Michael W. Deem and Ramdas Pophale) SiO2 
 PCOD8284634
Probable space group: F M M M
;
_chemical_formula_sum "Si O2"
_cell_formula_units_Z 128
_cell_length_a 16.906936
_cell_length_b 17.744416
_cell_length_c 20.784707
_cell_angle_alpha 90.000000
_cell_angle_beta 90.000000
_cell_angle_gamma 90.000000
_cell_volume 6235.489121
_symmetry_space_group_name_H-M "F M M M"
_symmetry_group_IT_number 69
_symmetry_cell_setting 'orthorhombic'
loop_
_space_group_symop_operation_xyz
x,y,z
-x,-y,z
x,-y,-z
-x,y,-z
-x,-y,-z
x,y,-z
-x,y,z
x,-y,z
x,1/2+y,1/2+z
-x,1/2-y,1/2+z
x,1/2-y,1/2-z
-x,1/2+y,1/2-z
-x,1/2-y,1/2-z
x,1/2+y,1/2-z
-x,1/2+y,1/2+z
x,1/2-y,1/2+z
1/2+x,y,1/2+z
1/2-x,-y,1/2+z
1/2+x,-y,1/2-z
1/2-x,y,1/2-z
1/2-x,-y,1/2-z
1/2+x,y,1/2-z
1/2-x,y,1/2+z
1/2+x,-y,1/2+z
1/2+x,1/2+y,z
1/2-x,1/2-y,z
1/2+x,1/2-y,-z
1/2-x,1/2+y,-z
1/2-x,1/2-y,-z
1/2+x,1/2+y,-z
1/2-x,1/2+y,z
1/2+x,1/2-y,z
loop_
_atom_site_type_symbol
_atom_site_label
_atom_site_fract_x
_atom_site_fract_y
_atom_site_fract_z
Si Si1 0.338125 0.715652 0.500000
Si Si2 0.593240 0.308952 0.628345
Si Si3 0.589769 0.370965 0.000000
Si Si4 0.662635 0.914541 0.236607
Si Si5 0.592901 0.363014 0.863444
O O1 0.250000 0.750000 0.500000
O O2 0.356152 0.667448 0.564675
O O3 0.405657 0.780087 0.500000
O O4 0.500000 0.317852 0.615932
O O5 0.617323 0.363383 0.686022
O O6 0.617513 0.223900 0.648414
O O7 0.630021 0.395602 0.931680
O O8 0.500000 0.398730 0.000000
O O9 0.750000 0.882848 0.250000
O O10 0.618472 0.914580 0.304842
O O11 0.664709 0.000000 0.210482
O O12 0.500000 0.367157 0.871778
#
# Coordination Sequence:
#
# PCOD8284634 Si02
#       5
#    16  32  16  32  32
#     4  10  20  32  59  94 116 145 182 243 299 363
#     4  10  21  38  61  89 119 152 194 246 304 367
#     4   8  16  32  55  84 116 140 174 235 294 349
#     4  11  25  39  53  79 120 163 205 249 292 345
#     4   9  18  35  60  86 112 145 189 241 299 360
#
# _framework density 20.527660999999998
#
# number of rings (size 3 to 8) (size 9 to 14) (size 15 to 20)
#    0.000    2.250    0.000    4.125    7.000    5.000 
#    0.000    1.250    0.000    6.750    0.000    0.000 
#    0.000    0.000    0.000    0.000    0.000    0.000 
#
# Total GULP energy -396472.151596 kJ/mol
# GULP energy per Si atom -12389.754737 kJ/mol
# Density = 2.048094 g / cm^3
# Si number density = 20.527661 Si / 1000 Ang^3
#
#
#
# Elastic Constant Matrix: (Units=GPa)
#
#
# Indices 1 2 3 4 5 6 
#
# 1 76.9229 29.0587 48.1491 0.0000 0.0000 0.0000
# 2 29.0587 39.6862 24.5903 0.0000 0.0000 0.0000
# 3 48.1491 24.5903 172.7914 0.0000 0.0000 0.0000
# 4 0.0000 0.0000 0.0000 -24.3382 0.0000 0.0000
# 5 0.0000 0.0000 0.0000 0.0000 25.0154 0.0000
# 6 0.0000 0.0000 0.0000 0.0000 0.0000 1.1310
#
#
#
# Elastic Compliance Matrix: (Units=1/GPa)
#
#
# Indices 1 2 3 4 5 6 
#
# 1 0.020049 -0.012303 -0.003836 0.000000 0.000000 0.000000
# 2 -0.012303 0.035185 -0.001579 0.000000 0.000000 0.000000
# 3 -0.003836 -0.001579 0.007081 0.000000 0.000000 0.000000
# 4 0.000000 0.000000 0.000000 -0.041088 0.000000 0.000000
# 5 0.000000 0.000000 0.000000 0.000000 0.039975 0.000000
# 6 0.000000 0.000000 0.000000 0.000000 0.000000 0.884188
#
#
# Mechanical properties :
#
#
# Convention : Reuss Voigt Hill
#
# Bulk Modulus (GPa) = 37.20451 54.77743 45.99097
# Shear Modulus (GPa) = 5.05160 12.86846 8.96003
#
# Velocity S-wave (km/s) = 1.57042 2.50648 2.09149
# Velocity P-wave (km/s) = 4.63160 5.92615 5.31841
#
# Compressibility (1/GPa) = 0.02687846
#
# Stress axis : x y z
#
# Youngs Moduli (GPa) = 49.87850 28.42160 141.22555
#
# Poissons Ratio (x) = 0.34968 0.54171
# Poissons Ratio (y) = 0.61367 0.22297
# Poissons Ratio (z) = 0.19132 0.04487
#
# Static dielectric constant tensor:
#      x y z
#    x 3.591390 0.000000 0.000000 
#    y 0.000000 3.341100 0.000000 
#    z 0.000000 0.000000 4.924250 
# 
# 
# High freq. dielectric constant tensor:
#      x y z
#    x 1.792530 0.000000 0.000000 
#    y 0.000000 1.757770 0.000000 
#    z 0.000000 0.000000 1.829880 
# 
# From -- ./inp_files/29639.got.cif
#   From: 2010.03.12/outbox.cif.g09.slc.cpg/sg69_15_cif.got.tgz:29639.got - 2010.04.10 23:52:46.
