data_PCOD8284751
_publ_section_title
;
Structure prediction by ZEFSAII (Michael W. Deem and Ramdas Pophale) SiO2 
 PCOD8284751
Probable space group: F M M M
;
_chemical_formula_sum "Si O2"
_cell_formula_units_Z 208
_cell_length_a 17.936049
_cell_length_b 21.871805
_cell_length_c 28.422970
_cell_angle_alpha 90.000000
_cell_angle_beta 90.000000
_cell_angle_gamma 90.000000
_cell_volume 11150.153948
_symmetry_space_group_name_H-M "F M M M"
_symmetry_group_IT_number 69
_symmetry_cell_setting 'orthorhombic'
loop_
_space_group_symop_operation_xyz
x,y,z
-x,-y,z
x,-y,-z
-x,y,-z
-x,-y,-z
x,y,-z
-x,y,z
x,-y,z
x,1/2+y,1/2+z
-x,1/2-y,1/2+z
x,1/2-y,1/2-z
-x,1/2+y,1/2-z
-x,1/2-y,1/2-z
x,1/2+y,1/2-z
-x,1/2+y,1/2+z
x,1/2-y,1/2+z
1/2+x,y,1/2+z
1/2-x,-y,1/2+z
1/2+x,-y,1/2-z
1/2-x,y,1/2-z
1/2-x,-y,1/2-z
1/2+x,y,1/2-z
1/2-x,y,1/2+z
1/2+x,-y,1/2+z
1/2+x,1/2+y,z
1/2-x,1/2-y,z
1/2+x,1/2-y,-z
1/2-x,1/2+y,-z
1/2-x,1/2-y,-z
1/2+x,1/2+y,-z
1/2-x,1/2+y,z
1/2+x,1/2-y,z
loop_
_atom_site_type_symbol
_atom_site_label
_atom_site_fract_x
_atom_site_fract_y
_atom_site_fract_z
Si Si1 0.086599 0.811448 0.723152
Si Si2 0.085211 0.172862 0.614827
Si Si3 0.696898 0.568375 0.388080
Si Si4 0.657949 0.600107 0.947054
Si Si5 0.330725 0.241374 0.448040
Si Si6 0.176687 0.431696 0.220310
Si Si7 0.000000 0.930236 0.949058
O O1 0.118010 0.750000 0.750000
O O2 0.101671 0.804735 0.667711
O O3 0.123745 0.876303 0.738362
O O4 0.000000 0.817900 0.735528
O O5 0.134945 0.116789 0.595335
O O6 0.102973 0.230405 0.582357
O O7 0.000000 0.152289 0.609439
O O8 0.668613 0.500000 0.399857
O O9 0.775767 0.578116 0.413573
O O10 0.704951 0.578063 0.332617
O O11 0.654789 0.671259 0.952583
O O12 0.578057 0.584206 0.922506
O O13 0.666016 0.571015 0.000000
O O14 0.329707 0.272288 0.500000
O O15 0.250000 0.250000 0.423313
O O16 0.138900 0.500000 0.225512
O O17 0.250000 0.428554 0.250000
O O18 0.000000 0.000000 0.959912
O O19 0.000000 0.895247 0.000000
#
# Coordination Sequence:
#
# PCOD8284751 Si02
#       7
#    32  32  32  32  32  32  16
#     4   9  19  36  55  80 111 139 175 220 268 321
#     4  10  21  36  55  81 111 140 177 223 266 315
#     4  10  20  35  56  79 106 142 179 219 269 322
#     4  10  20  34  53  78 106 140 182 224 266 316
#     4  10  20  35  53  74 104 140 179 219 262 314
#     4   9  19  35  55  79 106 138 178 221 265 322
#     4   9  18  32  50  74 102 134 174 217 259 309
#
# _framework density 18.654451000000002
#
# number of rings (size 3 to 8) (size 9 to 14) (size 15 to 20)
#    0.000    2.385    1.538    0.462    1.077    3.385 
#    0.000    3.077    1.692    0.000    0.000    2.154 
#    0.000    0.000    0.000    0.000    0.000    0.000 
#
# Total GULP energy -644216.586633 kJ/mol
# GULP energy per Si atom -12388.780512 kJ/mol
# Density = 1.861199 g / cm^3
# Si number density = 18.654451 Si / 1000 Ang^3
#
#
#
# Elastic Constant Matrix: (Units=GPa)
#
#
# Indices 1 2 3 4 5 6 
#
# 1 110.1374 48.3044 31.8406 0.0000 0.0000 0.0000
# 2 48.3044 121.2546 35.8981 0.0000 0.0000 0.0000
# 3 31.8406 35.8981 43.8565 0.0000 0.0000 0.0000
# 4 0.0000 0.0000 0.0000 34.3168 0.0000 0.0000
# 5 0.0000 0.0000 0.0000 0.0000 29.4827 0.0000
# 6 0.0000 0.0000 0.0000 0.0000 0.0000 24.1379
#
#
#
# Elastic Compliance Matrix: (Units=1/GPa)
#
#
# Indices 1 2 3 4 5 6 
#
# 1 0.012250 -0.002966 -0.006466 0.000000 0.000000 0.000000
# 2 -0.002966 0.011603 -0.007344 0.000000 0.000000 0.000000
# 3 -0.006466 -0.007344 0.033508 0.000000 0.000000 0.000000
# 4 0.000000 0.000000 0.000000 0.029140 0.000000 0.000000
# 5 0.000000 0.000000 0.000000 0.000000 0.033918 0.000000
# 6 0.000000 0.000000 0.000000 0.000000 0.000000 0.041429
#
#
# Mechanical properties :
#
#
# Convention : Reuss Voigt Hill
#
# Bulk Modulus (GPa) = 42.00208 56.37051 49.18629
# Shear Modulus (GPa) = 24.59002 28.20117 26.39559
#
# Velocity S-wave (km/s) = 3.63462 3.89236 3.76570
# Velocity P-wave (km/s) = 6.33867 7.10525 6.73287
#
# Compressibility (1/GPa) = 0.02380835
#
# Stress axis : x y z
#
# Youngs Moduli (GPa) = 81.63589 86.18596 29.84406
#
# Poissons Ratio (x) = 0.25559 0.19297
# Poissons Ratio (y) = 0.24210 0.21918
# Poissons Ratio (z) = 0.52785 0.63297
#
# Static dielectric constant tensor:
#      x y z
#    x 3.381800 0.000000 0.000000 
#    y 0.000000 3.713580 0.000000 
#    z 0.000000 0.000000 3.457270 
# 
# 
# High freq. dielectric constant tensor:
#      x y z
#    x 1.721140 0.000000 0.000000 
#    y 0.000000 1.736440 0.000000 
#    z 0.000000 0.000000 1.703400 
# 
# From -- ./inp_files/42006.got.cif
#   From: 2010.03.12/outbox.cif.g09.slc.cpg/sg69_22_cif.got.tgz:42006.got - 2010.04.10 23:52:46.
