data_PCOD8284184
_publ_section_title
;
Structure prediction by ZEFSAII (Michael W. Deem and Ramdas Pophale) SiO2 
 PCOD8284184
Probable space group: F M M M
;
_chemical_formula_sum "Si O2"
_cell_formula_units_Z 160
_cell_length_a 19.284856
_cell_length_b 25.761932
_cell_length_c 18.674769
_cell_angle_alpha 90.000000
_cell_angle_beta 90.000000
_cell_angle_gamma 90.000000
_cell_volume 9277.908141
_symmetry_space_group_name_H-M "F M M M"
_symmetry_group_IT_number 69
_symmetry_cell_setting 'orthorhombic'
loop_
_space_group_symop_operation_xyz
x,y,z
-x,-y,z
x,-y,-z
-x,y,-z
-x,-y,-z
x,y,-z
-x,y,z
x,-y,z
x,1/2+y,1/2+z
-x,1/2-y,1/2+z
x,1/2-y,1/2-z
-x,1/2+y,1/2-z
-x,1/2-y,1/2-z
x,1/2+y,1/2-z
-x,1/2+y,1/2+z
x,1/2-y,1/2+z
1/2+x,y,1/2+z
1/2-x,-y,1/2+z
1/2+x,-y,1/2-z
1/2-x,y,1/2-z
1/2-x,-y,1/2-z
1/2+x,y,1/2-z
1/2-x,y,1/2+z
1/2+x,-y,1/2+z
1/2+x,1/2+y,z
1/2-x,1/2-y,z
1/2+x,1/2-y,-z
1/2-x,1/2+y,-z
1/2-x,1/2-y,-z
1/2+x,1/2+y,-z
1/2-x,1/2+y,z
1/2+x,1/2-y,z
loop_
_atom_site_type_symbol
_atom_site_label
_atom_site_fract_x
_atom_site_fract_y
_atom_site_fract_z
Si Si1 0.743450 0.693319 0.633793
Si Si2 0.776228 0.000000 0.668354
Si Si3 0.637311 0.306622 0.748547
Si Si4 0.294293 0.409393 0.919280
Si Si5 0.421329 0.500000 0.276155
Si Si6 0.577138 0.401349 0.178375
O O1 0.750000 0.750000 0.595409
O O2 0.667669 0.683830 0.668836
O O3 0.799473 0.692468 0.696504
O O4 0.756885 0.646683 0.578637
O O5 0.750000 0.000000 0.750000
O O6 0.749140 0.948673 0.629378
O O7 0.860617 0.000000 0.664008
O O8 0.600486 0.250000 0.750000
O O9 0.583599 0.351020 0.770648
O O10 0.371422 0.402226 0.888658
O O11 0.299090 0.430823 0.000000
O O12 0.500000 0.500000 0.309024
O O13 0.408304 0.549457 0.227199
O O14 0.500000 0.402562 0.146047
#
# Coordination Sequence:
#
# PCOD8284184 Si02
#       6
#    32  16  32  32  16  32
#     4   8  15  28  48  71  99 129 164 214 263 298
#     4  12  21  36  59  76  99 133 166 213 255 292
#     4   8  14  26  46  72  97 126 167 216 257 293
#     4  11  22  33  50  76 104 135 173 208 249 307
#     4  10  20  34  54  80  99 123 162 206 255 301
#     4  10  19  31  47  70 103 137 169 204 251 302
#
# _framework density 17.245266999999998
#
# number of rings (size 3 to 8) (size 9 to 14) (size 15 to 20)
#    0.000    2.400    2.000    2.700    2.800    1.200 
#    0.000    0.000    0.000    4.200    0.000    0.000 
#    0.000    0.000    0.000    0.000    0.000    0.000 
#
# Total GULP energy -495759.129616 kJ/mol
# GULP energy per Si atom -12393.978240 kJ/mol
# Density = 1.720602 g / cm^3
# Si number density = 17.245267 Si / 1000 Ang^3
#
#
#
# Elastic Constant Matrix: (Units=GPa)
#
#
# Indices 1 2 3 4 5 6 
#
# 1 97.1182 40.3195 43.0754 0.0000 0.0000 0.0000
# 2 40.3195 136.9435 41.6070 0.0000 0.0000 0.0000
# 3 43.0754 41.6070 79.6913 0.0000 0.0000 0.0000
# 4 0.0000 0.0000 0.0000 13.6322 0.0000 0.0000
# 5 0.0000 0.0000 0.0000 0.0000 13.3927 0.0000
# 6 0.0000 0.0000 0.0000 0.0000 0.0000 36.3789
#
#
#
# Elastic Compliance Matrix: (Units=1/GPa)
#
#
# Indices 1 2 3 4 5 6 
#
# 1 0.014070 -0.002177 -0.006468 0.000000 0.000000 0.000000
# 2 -0.002177 0.009016 -0.003530 0.000000 0.000000 0.000000
# 3 -0.006468 -0.003530 0.017888 0.000000 0.000000 0.000000
# 4 0.000000 0.000000 0.000000 0.073356 0.000000 0.000000
# 5 0.000000 0.000000 0.000000 0.000000 0.074668 0.000000
# 6 0.000000 0.000000 0.000000 0.000000 0.000000 0.027488
#
#
# Mechanical properties :
#
#
# Convention : Reuss Voigt Hill
#
# Bulk Modulus (GPa) = 60.16240 62.63964 61.40102
# Shear Modulus (GPa) = 20.29406 25.26417 22.77912
#
# Velocity S-wave (km/s) = 3.43416 3.83167 3.63835
# Velocity P-wave (km/s) = 7.11946 7.48180 7.30287
#
# Compressibility (1/GPa) = 0.01662168
#
# Stress axis : x y z
#
# Youngs Moduli (GPa) = 71.07569 110.91487 55.90364
#
# Poissons Ratio (x) = 0.24148 0.36160
# Poissons Ratio (y) = 0.15474 0.19736
# Poissons Ratio (z) = 0.45974 0.39157
#
# Static dielectric constant tensor:
#      x y z
#    x 3.207150 0.000000 0.000000 
#    y 0.000000 3.957750 0.000000 
#    z 0.000000 0.000000 2.834070 
# 
# 
# High freq. dielectric constant tensor:
#      x y z
#    x 1.648980 0.000000 0.000000 
#    y 0.000000 1.692340 0.000000 
#    z 0.000000 0.000000 1.622050 
# 
# From -- ./inp_files/23196.got.cif
#   From: 2010.03.12/outbox.cif.g09.slc.cpg/sg69_12_cif.got.tgz:23196.got - 2010.04.10 23:52:46.
