data_PCOD8284690
_publ_section_title
;
Structure prediction by ZEFSAII (Michael W. Deem and Ramdas Pophale) SiO2 
 PCOD8284690
Probable space group: F M M M
;
_chemical_formula_sum "Si O2"
_cell_formula_units_Z 160
_cell_length_a 18.041850
_cell_length_b 15.974234
_cell_length_c 29.030640
_cell_angle_alpha 90.000000
_cell_angle_beta 90.000000
_cell_angle_gamma 90.000000
_cell_volume 8366.767870
_symmetry_space_group_name_H-M "F M M M"
_symmetry_group_IT_number 69
_symmetry_cell_setting 'orthorhombic'
loop_
_space_group_symop_operation_xyz
x,y,z
-x,-y,z
x,-y,-z
-x,y,-z
-x,-y,-z
x,y,-z
-x,y,z
x,-y,z
x,1/2+y,1/2+z
-x,1/2-y,1/2+z
x,1/2-y,1/2-z
-x,1/2+y,1/2-z
-x,1/2-y,1/2-z
x,1/2+y,1/2-z
-x,1/2+y,1/2+z
x,1/2-y,1/2+z
1/2+x,y,1/2+z
1/2-x,-y,1/2+z
1/2+x,-y,1/2-z
1/2-x,y,1/2-z
1/2-x,-y,1/2-z
1/2+x,y,1/2-z
1/2-x,y,1/2+z
1/2+x,-y,1/2+z
1/2+x,1/2+y,z
1/2-x,1/2-y,z
1/2+x,1/2-y,-z
1/2-x,1/2+y,-z
1/2-x,1/2-y,-z
1/2+x,1/2+y,-z
1/2-x,1/2+y,z
1/2+x,1/2-y,z
loop_
_atom_site_type_symbol
_atom_site_label
_atom_site_fract_x
_atom_site_fract_y
_atom_site_fract_z
Si Si1 0.841588 0.666629 0.552142
Si Si2 0.173806 0.361396 0.052085
Si Si3 0.088377 0.838314 0.767751
Si Si4 0.086636 0.591789 0.637962
Si Si5 0.087380 0.000000 0.286625
Si Si6 0.088178 0.500000 0.893248
O O1 0.861810 0.639447 0.500000
O O2 0.849528 0.765687 0.556833
O O3 0.760301 0.632058 0.565059
O O4 0.898905 0.628170 0.587648
O O5 0.123389 0.416828 0.085195
O O6 0.161374 0.392916 0.000000
O O7 0.121593 0.750000 0.750000
O O8 0.116640 0.850123 0.820449
O O9 0.119371 0.915795 0.737240
O O10 0.000000 0.835674 0.764574
O O11 0.123324 0.500000 0.642301
O O12 0.000000 0.583121 0.644473
O O13 0.109551 0.000000 0.339872
O O14 0.000000 0.000000 0.280043
O O15 0.000000 0.500000 0.901532
#
# Coordination Sequence:
#
# PCOD8284690 Si02
#       6
#    32  32  32  32  16  16
#     4   9  20  38  58  78 105 148 194 226 264 330
#     4   9  20  39  57  77 108 147 186 221 270 339
#     4   9  17  31  52  75 106 147 182 219 273 333
#     4  10  20  33  53  83 113 140 179 232 278 314
#     4   9  18  33  49  77 112 136 173 223 270 336
#     4  11  23  34  56  90 116 140 178 235 295 338
#
# _framework density 19.123275
#
# number of rings (size 3 to 8) (size 9 to 14) (size 15 to 20)
#    0.000    2.600    1.000    1.500    4.200    2.400 
#    0.000    3.000    0.000    2.400    0.000    0.000 
#    0.000    0.000    0.000    0.000    0.000    0.000 
#
# Total GULP energy -495835.321976 kJ/mol
# GULP energy per Si atom -12395.883049 kJ/mol
# Density = 1.907975 g / cm^3
# Si number density = 19.123275 Si / 1000 Ang^3
#
#
#
# Elastic Constant Matrix: (Units=GPa)
#
#
# Indices 1 2 3 4 5 6 
#
# 1 24.5162 25.0770 30.7957 0.0000 0.0000 0.0000
# 2 25.0770 129.9894 79.2545 0.0000 0.0000 0.0000
# 3 30.7957 79.2545 152.2428 0.0000 0.0000 0.0000
# 4 0.0000 0.0000 0.0000 36.8804 0.0000 0.0000
# 5 0.0000 0.0000 0.0000 0.0000 5.6374 0.0000
# 6 0.0000 0.0000 0.0000 0.0000 0.0000 24.9366
#
#
#
# Elastic Compliance Matrix: (Units=1/GPa)
#
#
# Indices 1 2 3 4 5 6 
#
# 1 0.057588 -0.005871 -0.008593 0.000000 0.000000 0.000000
# 2 -0.005871 0.011868 -0.004991 0.000000 0.000000 0.000000
# 3 -0.008593 -0.004991 0.010905 0.000000 0.000000 0.000000
# 4 0.000000 0.000000 0.000000 0.027115 0.000000 0.000000
# 5 0.000000 0.000000 0.000000 0.000000 0.177386 0.000000
# 6 0.000000 0.000000 0.000000 0.000000 0.000000 0.040102
#
#
# Mechanical properties :
#
#
# Convention : Reuss Voigt Hill
#
# Bulk Modulus (GPa) = 24.12397 64.11143 44.11770
# Shear Modulus (GPa) = 13.23837 24.93230 19.08533
#
# Velocity S-wave (km/s) = 2.63395 3.61469 3.16257
# Velocity P-wave (km/s) = 4.67895 7.14279 6.03788
#
# Compressibility (1/GPa) = 0.04145255
#
# Stress axis : x y z
#
# Youngs Moduli (GPa) = 17.36470 84.25687 91.70262
#
# Poissons Ratio (x) = 0.49464 0.78798
# Poissons Ratio (y) = 0.10194 0.45769
# Poissons Ratio (z) = 0.14921 0.42052
#
# Static dielectric constant tensor:
#      x y z
#    x 3.034350 0.000000 0.000000 
#    y 0.000000 3.676990 0.000000 
#    z 0.000000 0.000000 3.630860 
# 
# 
# High freq. dielectric constant tensor:
#      x y z
#    x 1.695150 0.000000 0.000000 
#    y 0.000000 1.756170 0.000000 
#    z 0.000000 0.000000 1.755760 
# 
# From -- ./inp_files/15699.got.cif
#   From: 2010.03.12/outbox.cif.g09.slc.cpg/sg69_8_cif.got.tgz:15699.got - 2010.04.10 23:52:46.
