data_PCOD8284031
_publ_section_title
;
Structure prediction by ZEFSAII (Michael W. Deem and Ramdas Pophale) SiO2 
 PCOD8284031
Probable space group: F M M M
;
_chemical_formula_sum "Si O2"
_cell_formula_units_Z 192
_cell_length_a 19.987134
_cell_length_b 26.570483
_cell_length_c 18.827680
_cell_angle_alpha 90.000000
_cell_angle_beta 90.000000
_cell_angle_gamma 90.000000
_cell_volume 9998.774675
_symmetry_space_group_name_H-M "F M M M"
_symmetry_group_IT_number 69
_symmetry_cell_setting 'orthorhombic'
loop_
_space_group_symop_operation_xyz
x,y,z
-x,-y,z
x,-y,-z
-x,y,-z
-x,-y,-z
x,y,-z
-x,y,z
x,-y,z
x,1/2+y,1/2+z
-x,1/2-y,1/2+z
x,1/2-y,1/2-z
-x,1/2+y,1/2-z
-x,1/2-y,1/2-z
x,1/2+y,1/2-z
-x,1/2+y,1/2+z
x,1/2-y,1/2+z
1/2+x,y,1/2+z
1/2-x,-y,1/2+z
1/2+x,-y,1/2-z
1/2-x,y,1/2-z
1/2-x,-y,1/2-z
1/2+x,y,1/2-z
1/2-x,y,1/2+z
1/2+x,-y,1/2+z
1/2+x,1/2+y,z
1/2-x,1/2-y,z
1/2+x,1/2-y,-z
1/2-x,1/2+y,-z
1/2-x,1/2-y,-z
1/2+x,1/2+y,-z
1/2-x,1/2+y,z
1/2+x,1/2-y,z
loop_
_atom_site_type_symbol
_atom_site_label
_atom_site_fract_x
_atom_site_fract_y
_atom_site_fract_z
Si Si1 0.500000 0.059052 0.856178
Si Si2 0.376658 0.619883 0.179052
Si Si3 0.867143 0.616257 0.153773
Si Si4 0.312215 0.284192 0.579850
Si Si5 0.755024 0.445536 0.666433
Si Si6 0.500000 0.944606 0.312240
Si Si7 0.076795 0.204384 0.920977
O O1 0.563743 0.093878 0.879460
O O2 0.500000 0.053967 0.772240
O O3 0.500000 0.000000 0.886048
O O4 0.375034 0.629150 0.263151
O O5 0.309430 0.596328 0.147009
O O6 0.435459 0.582540 0.157286
O O7 0.388301 0.671634 0.139199
O O8 0.831472 0.665285 0.121365
O O9 0.816974 0.570619 0.137931
O O10 0.290415 0.299089 0.500000
O O11 0.250000 0.250000 0.611945
O O12 0.382545 0.255714 0.579721
O O13 0.773711 0.500000 0.633354
O O14 0.750000 0.450960 0.750000
O O15 0.500000 0.000000 0.344348
O O16 0.000000 0.215740 0.900306
O O17 0.080864 0.179732 0.000000
#
# Coordination Sequence:
#
# PCOD8284031 Si02
#       7
#    16  32  32  32  32  16  32
#     4   9  18  32  52  79 112 146 177 217 272 335
#     4  10  18  32  52  81 108 139 183 227 274 316
#     4  10  20  33  55  83 109 139 181 229 275 321
#     4  10  22  40  59  79 105 142 184 223 274 337
#     4   9  17  30  51  79 110 141 176 220 268 321
#     4   9  16  28  48  75 108 142 179 219 268 331
#     4  10  21  37  56  76 106 147 185 222 271 329
#
# _framework density 19.202352999999999
#
# number of rings (size 3 to 8) (size 9 to 14) (size 15 to 20)
#    0.000    2.333    0.833    2.000    1.167    4.667 
#    0.000    1.667    0.000    6.000    0.000    0.000 
#    0.000    0.000    0.000    0.000    0.000    0.000 
#
# Total GULP energy -594659.577344 kJ/mol
# GULP energy per Si atom -12388.741195 kJ/mol
# Density = 1.915865 g / cm^3
# Si number density = 19.202353 Si / 1000 Ang^3
#
#
#
# Elastic Constant Matrix: (Units=GPa)
#
#
# Indices 1 2 3 4 5 6 
#
# 1 145.7168 51.6673 20.6390 0.0000 0.0000 0.0000
# 2 51.6673 112.3702 31.4634 0.0000 0.0000 0.0000
# 3 20.6390 31.4634 38.9006 0.0000 0.0000 0.0000
# 4 0.0000 0.0000 0.0000 -17.0783 0.0000 0.0000
# 5 0.0000 0.0000 0.0000 0.0000 25.1178 0.0000
# 6 0.0000 0.0000 0.0000 0.0000 0.0000 55.9119
#
#
#
# Elastic Compliance Matrix: (Units=1/GPa)
#
#
# Indices 1 2 3 4 5 6 
#
# 1 0.008285 -0.003334 -0.001700 0.000000 0.000000 0.000000
# 2 -0.003334 0.012846 -0.008621 0.000000 0.000000 0.000000
# 3 -0.001700 -0.008621 0.033581 0.000000 0.000000 0.000000
# 4 0.000000 0.000000 0.000000 -0.058554 0.000000 0.000000
# 5 0.000000 0.000000 0.000000 0.000000 0.039812 0.000000
# 6 0.000000 0.000000 0.000000 0.000000 0.000000 0.017885
#
#
# Mechanical properties :
#
#
# Convention : Reuss Voigt Hill
#
# Bulk Modulus (GPa) = 36.49158 56.05856 46.27507
# Shear Modulus (GPa) = 55.37111 25.67148 40.52130
#
# Velocity S-wave (km/s) = 5.37570 3.66032 4.59870
# Velocity P-wave (km/s) = 7.58788 6.86447 7.23522
#
# Compressibility (1/GPa) = 0.02740358
#
# Stress axis : x y z
#
# Youngs Moduli (GPa) = 120.69438 77.84582 29.77856
#
# Poissons Ratio (x) = 0.25952 0.05061
# Poissons Ratio (y) = 0.40236 0.25673
# Poissons Ratio (z) = 0.20512 0.67113
#
# Static dielectric constant tensor:
#      x y z
#    x 3.966890 0.000000 0.000000 
#    y 0.000000 3.567880 0.000000 
#    z 0.000000 0.000000 3.284660 
# 
# 
# High freq. dielectric constant tensor:
#      x y z
#    x 1.771610 0.000000 0.000000 
#    y 0.000000 1.750100 0.000000 
#    z 0.000000 0.000000 1.697730 
# 
# From -- ./inp_files/23690.got.cif
#   From: 2010.03.12/outbox.cif.g09.slc.cpg/sg69_12_cif.got.tgz:23690.got - 2010.04.10 23:52:46.
