data_PCOD8284429
_publ_section_title
;
Structure prediction by ZEFSAII (Michael W. Deem and Ramdas Pophale) SiO2 
 PCOD8284429
Probable space group: F M M M
;
_chemical_formula_sum "Si O2"
_cell_formula_units_Z 192
_cell_length_a 20.444045
_cell_length_b 18.312988
_cell_length_c 30.177855
_cell_angle_alpha 90.000000
_cell_angle_beta 90.000000
_cell_angle_gamma 90.000000
_cell_volume 11298.333932
_symmetry_space_group_name_H-M "F M M M"
_symmetry_group_IT_number 69
_symmetry_cell_setting 'orthorhombic'
loop_
_space_group_symop_operation_xyz
x,y,z
-x,-y,z
x,-y,-z
-x,y,-z
-x,-y,-z
x,y,-z
-x,y,z
x,-y,z
x,1/2+y,1/2+z
-x,1/2-y,1/2+z
x,1/2-y,1/2-z
-x,1/2+y,1/2-z
-x,1/2-y,1/2-z
x,1/2+y,1/2-z
-x,1/2+y,1/2+z
x,1/2-y,1/2+z
1/2+x,y,1/2+z
1/2-x,-y,1/2+z
1/2+x,-y,1/2-z
1/2-x,y,1/2-z
1/2-x,-y,1/2-z
1/2+x,y,1/2-z
1/2-x,y,1/2+z
1/2+x,-y,1/2+z
1/2+x,1/2+y,z
1/2-x,1/2-y,z
1/2+x,1/2-y,-z
1/2-x,1/2+y,-z
1/2-x,1/2-y,-z
1/2+x,1/2+y,-z
1/2-x,1/2+y,z
1/2+x,1/2-y,z
loop_
_atom_site_type_symbol
_atom_site_label
_atom_site_fract_x
_atom_site_fract_y
_atom_site_fract_z
Si Si1 0.318043 0.207339 0.951668
Si Si2 0.266568 0.334804 0.634184
Si Si3 0.311963 0.914976 0.218839
Si Si4 0.130523 0.086057 0.872924
Si Si5 0.074379 0.827637 0.950176
Si Si6 0.427502 0.913288 0.281188
O O1 0.250000 0.250000 0.953573
O O2 0.311767 0.152887 0.909873
O O3 0.378385 0.259949 0.940751
O O4 0.328994 0.168877 0.000000
O O5 0.250000 0.250000 0.642654
O O6 0.306885 0.366373 0.675184
O O7 0.201600 0.379763 0.626012
O O8 0.250000 0.901415 0.250000
O O9 0.376456 0.886338 0.244202
O O10 0.316970 0.000000 0.205718
O O11 0.089754 0.107082 0.916429
O O12 0.093101 0.115996 0.829532
O O13 0.138757 0.000000 0.871164
O O14 0.000000 0.800881 0.943678
O O15 0.085634 0.857573 0.000000
O O16 0.500000 0.883626 0.269587
O O17 0.426806 0.000000 0.282528
#
# Coordination Sequence:
#
# PCOD8284429 Si02
#       6
#    32  32  32  32  32  32
#     4   9  17  33  54  72  98 140 179 210 252 305
#     4  11  20  33  54  79 101 134 178 221 257 297
#     4  10  19  34  54  75 101 133 171 214 257 306
#     4  11  20  33  53  78 107 140 175 212 261 316
#     4  10  20  34  52  77 109 143 177 214 260 316
#     4   9  18  33  52  72  99 137 171 200 249 317
#
# _framework density 16.993656000000001
#
# number of rings (size 3 to 8) (size 9 to 14) (size 15 to 20)
#    0.000    2.000    5.000    1.000    0.000    1.667 
#    0.000    1.667    0.000    2.500    0.000    0.000 
#    0.000    0.000    0.000   20.833    0.000    0.000 
#
# Total GULP energy -594978.064475 kJ/mol
# GULP energy per Si atom -12395.376343 kJ/mol
# Density = 1.695498 g / cm^3
# Si number density = 16.993656 Si / 1000 Ang^3
#
#
#
# Elastic Constant Matrix: (Units=GPa)
#
#
# Indices 1 2 3 4 5 6 
#
# 1 123.0652 46.7728 64.8271 0.0000 0.0000 0.0000
# 2 46.7728 40.8242 50.2149 0.0000 0.0000 0.0000
# 3 64.8271 50.2149 163.5172 0.0000 0.0000 0.0000
# 4 0.0000 0.0000 0.0000 8.1457 0.0000 0.0000
# 5 0.0000 0.0000 0.0000 0.0000 32.8017 0.0000
# 6 0.0000 0.0000 0.0000 0.0000 0.0000 17.9059
#
#
#
# Elastic Compliance Matrix: (Units=1/GPa)
#
#
# Indices 1 2 3 4 5 6 
#
# 1 0.014502 -0.015337 -0.001040 0.000000 0.000000 0.000000
# 2 -0.015337 0.055583 -0.010989 0.000000 0.000000 0.000000
# 3 -0.001040 -0.010989 0.009902 0.000000 0.000000 0.000000
# 4 0.000000 0.000000 0.000000 0.122764 0.000000 0.000000
# 5 0.000000 0.000000 0.000000 0.000000 0.030486 0.000000
# 6 0.000000 0.000000 0.000000 0.000000 0.000000 0.055848
#
#
# Mechanical properties :
#
#
# Convention : Reuss Voigt Hill
#
# Bulk Modulus (GPa) = 39.59228 72.33736 55.96482
# Shear Modulus (GPa) = 14.19503 22.81012 18.50257
#
# Velocity S-wave (km/s) = 2.89331 3.66768 3.30327
# Velocity P-wave (km/s) = 5.87457 7.78431 6.89587
#
# Compressibility (1/GPa) = 0.02525745
#
# Stress axis : x y z
#
# Youngs Moduli (GPa) = 68.95391 17.99098 100.98552
#
# Poissons Ratio (x) = 0.27592 0.10500
# Poissons Ratio (y) = 1.05752 1.10972
# Poissons Ratio (z) = 0.07170 0.19770
#
# Static dielectric constant tensor:
#      x y z
#    x 3.451470 0.000000 0.000000 
#    y 0.000000 2.908270 0.000000 
#    z 0.000000 0.000000 3.741770 
# 
# 
# High freq. dielectric constant tensor:
#      x y z
#    x 1.661500 0.000000 0.000000 
#    y 0.000000 1.609050 0.000000 
#    z 0.000000 0.000000 1.674930 
# 
# From -- ./inp_files/42760.got.cif
#   From: 2010.03.12/outbox.cif.g09.slc.cpg/sg69_22_cif.got.tgz:42760.got - 2010.04.10 23:52:46.
