data_PCOD8284677
_publ_section_title
;
Structure prediction by ZEFSAII (Michael W. Deem and Ramdas Pophale) SiO2 
 PCOD8284677
Probable space group: F M M M
;
_chemical_formula_sum "Si O2"
_cell_formula_units_Z 176
_cell_length_a 22.558070
_cell_length_b 14.855074
_cell_length_c 27.923238
_cell_angle_alpha 90.000000
_cell_angle_beta 90.000000
_cell_angle_gamma 90.000000
_cell_volume 9357.127292
_symmetry_space_group_name_H-M "F M M M"
_symmetry_group_IT_number 69
_symmetry_cell_setting 'orthorhombic'
loop_
_space_group_symop_operation_xyz
x,y,z
-x,-y,z
x,-y,-z
-x,y,-z
-x,-y,-z
x,y,-z
-x,y,z
x,-y,z
x,1/2+y,1/2+z
-x,1/2-y,1/2+z
x,1/2-y,1/2-z
-x,1/2+y,1/2-z
-x,1/2-y,1/2-z
x,1/2+y,1/2-z
-x,1/2+y,1/2+z
x,1/2-y,1/2+z
1/2+x,y,1/2+z
1/2-x,-y,1/2+z
1/2+x,-y,1/2-z
1/2-x,y,1/2-z
1/2-x,-y,1/2-z
1/2+x,y,1/2-z
1/2-x,y,1/2+z
1/2+x,-y,1/2+z
1/2+x,1/2+y,z
1/2-x,1/2-y,z
1/2+x,1/2-y,-z
1/2-x,1/2+y,-z
1/2-x,1/2-y,-z
1/2+x,1/2+y,-z
1/2-x,1/2+y,z
1/2+x,1/2-y,z
loop_
_atom_site_type_symbol
_atom_site_label
_atom_site_fract_x
_atom_site_fract_y
_atom_site_fract_z
Si Si1 0.889370 0.106448 0.382510
Si Si2 0.931967 0.235806 0.696915
Si Si3 0.651535 0.900473 0.551622
Si Si4 0.276620 0.848349 0.054438
Si Si5 0.500000 0.893540 0.946197
Si Si6 0.066423 0.897301 0.870189
O O1 0.894165 0.162206 0.332913
O O2 0.827887 0.129288 0.408363
O O3 0.942194 0.139134 0.417337
O O4 0.893216 0.000000 0.371213
O O5 0.905585 0.250000 0.750000
O O6 0.927727 0.336165 0.676141
O O7 0.000000 0.201633 0.698590
O O8 0.646922 0.849377 0.500000
O O9 0.720316 0.911117 0.566239
O O10 0.610905 0.851770 0.590984
O O11 0.624510 0.000000 0.546553
O O12 0.250000 0.750000 0.061985
O O13 0.299841 0.863937 0.000000
O O14 0.500000 0.000000 0.950167
O O15 0.500000 0.852065 0.000000
O O16 0.000000 0.893820 0.891316
O O17 0.084204 0.000000 0.856509
#
# Coordination Sequence:
#
# PCOD8284677 Si02
#       6
#    32  32  32  32  16  32
#     4  11  21  35  57  85 117 153 193 235 288 350
#     4  10  21  37  56  78 108 143 185 242 296 343
#     4   9  17  30  49  74 104 137 174 216 264 324
#     4  10  20  33  52  79 113 153 194 229 269 330
#     4   9  18  32  51  80 119 155 184 221 272 336
#     4   9  18  33  54  78 104 138 182 232 289 345
#
# _framework density 18.809190999999998
#
# number of rings (size 3 to 8) (size 9 to 14) (size 15 to 20)
#    0.000    2.273    0.909    2.182    0.000    2.909 
#    0.000    4.545    0.000    4.909    0.000    7.636 
#    0.000    0.000    0.000    0.000    0.000    0.000 
#
# Total GULP energy -545308.195418 kJ/mol
# GULP energy per Si atom -12393.368078 kJ/mol
# Density = 1.876638 g / cm^3
# Si number density = 18.809191 Si / 1000 Ang^3
#
#
#
# Elastic Constant Matrix: (Units=GPa)
#
#
# Indices 1 2 3 4 5 6 
#
# 1 98.8570 30.2954 77.3637 0.0000 0.0000 0.0000
# 2 30.2954 74.5487 45.8979 0.0000 0.0000 0.0000
# 3 77.3637 45.8979 153.2404 0.0000 0.0000 0.0000
# 4 0.0000 0.0000 0.0000 22.1541 0.0000 0.0000
# 5 0.0000 0.0000 0.0000 0.0000 25.1922 0.0000
# 6 0.0000 0.0000 0.0000 0.0000 0.0000 23.3140
#
#
#
# Elastic Compliance Matrix: (Units=1/GPa)
#
#
# Indices 1 2 3 4 5 6 
#
# 1 0.016959 -0.001987 -0.007967 0.000000 0.000000 0.000000
# 2 -0.001987 0.016680 -0.003993 0.000000 0.000000 0.000000
# 3 -0.007967 -0.003993 0.011744 0.000000 0.000000 0.000000
# 4 0.000000 0.000000 0.000000 0.045138 0.000000 0.000000
# 5 0.000000 0.000000 0.000000 0.000000 0.039695 0.000000
# 6 0.000000 0.000000 0.000000 0.000000 0.000000 0.042893
#
#
# Mechanical properties :
#
#
# Convention : Reuss Voigt Hill
#
# Bulk Modulus (GPa) = 57.17675 70.41780 63.79728
# Shear Modulus (GPa) = 24.17432 25.67135 24.92283
#
# Velocity S-wave (km/s) = 3.58891 3.69837 3.64405
# Velocity P-wave (km/s) = 6.90203 7.46703 7.19008
#
# Compressibility (1/GPa) = 0.01748963
#
# Stress axis : x y z
#
# Youngs Moduli (GPa) = 58.96515 59.95295 85.15291
#
# Poissons Ratio (x) = 0.11913 0.67839
# Poissons Ratio (y) = 0.11717 0.33999
# Poissons Ratio (z) = 0.46976 0.23937
#
# Static dielectric constant tensor:
#      x y z
#    x 3.729140 0.000000 0.000000 
#    y 0.000000 3.630450 0.000000 
#    z 0.000000 0.000000 3.443140 
# 
# 
# High freq. dielectric constant tensor:
#      x y z
#    x 1.722740 0.000000 0.000000 
#    y 0.000000 1.734740 0.000000 
#    z 0.000000 0.000000 1.710070 
# 
# From -- ./inp_files/43152.got.cif
#   From: 2010.03.12/outbox.cif.g09.slc.cpg/sg69_22_cif.got.tgz:43152.got - 2010.04.10 23:52:46.
