data_PCOD8284860
_publ_section_title
;
Structure prediction by ZEFSAII (Michael W. Deem and Ramdas Pophale) SiO2 
 PCOD8284860
Probable space group: F M M M
;
_chemical_formula_sum "Si O2"
_cell_formula_units_Z 192
_cell_length_a 31.285425
_cell_length_b 14.498590
_cell_length_c 23.195778
_cell_angle_alpha 90.000000
_cell_angle_beta 90.000000
_cell_angle_gamma 90.000000
_cell_volume 10521.478485
_symmetry_space_group_name_H-M "F M M M"
_symmetry_group_IT_number 69
_symmetry_cell_setting 'orthorhombic'
loop_
_space_group_symop_operation_xyz
x,y,z
-x,-y,z
x,-y,-z
-x,y,-z
-x,-y,-z
x,y,-z
-x,y,z
x,-y,z
x,1/2+y,1/2+z
-x,1/2-y,1/2+z
x,1/2-y,1/2-z
-x,1/2+y,1/2-z
-x,1/2-y,1/2-z
x,1/2+y,1/2-z
-x,1/2+y,1/2+z
x,1/2-y,1/2+z
1/2+x,y,1/2+z
1/2-x,-y,1/2+z
1/2+x,-y,1/2-z
1/2-x,y,1/2-z
1/2-x,-y,1/2-z
1/2+x,y,1/2-z
1/2-x,y,1/2+z
1/2+x,-y,1/2+z
1/2+x,1/2+y,z
1/2-x,1/2-y,z
1/2+x,1/2-y,-z
1/2-x,1/2+y,-z
1/2-x,1/2-y,-z
1/2+x,1/2+y,-z
1/2-x,1/2+y,z
1/2+x,1/2-y,z
loop_
_atom_site_type_symbol
_atom_site_label
_atom_site_fract_x
_atom_site_fract_y
_atom_site_fract_z
Si Si1 0.500000 0.107009 0.689864
Si Si2 0.907055 0.748718 0.435033
Si Si3 0.411500 0.853815 0.255614
Si Si4 0.132830 0.896008 0.643802
Si Si5 0.298852 0.252764 0.681714
Si Si6 0.140450 0.102790 0.861307
Si Si7 0.000000 0.811488 0.065059
O O1 0.460067 0.151450 0.722945
O O2 0.500000 0.119979 0.620224
O O3 0.500000 0.000000 0.702596
O O4 0.890991 0.744657 0.500000
O O5 0.888296 0.841787 0.408763
O O6 0.890475 0.655166 0.405524
O O7 0.958366 0.752799 0.429856
O O8 0.393358 0.750000 0.250000
O O9 0.403098 0.900532 0.194065
O O10 0.384544 0.910427 0.301748
O O11 0.176805 0.845488 0.661843
O O12 0.144131 0.000000 0.624682
O O13 0.302726 0.250000 0.750000
O O14 0.250000 0.250000 0.661424
O O15 0.317424 0.162197 0.650511
O O16 0.151955 0.000000 0.884490
O O17 0.000000 0.859434 0.000000
#
# Coordination Sequence:
#
# PCOD8284860 Si02
#       7
#    16  32  32  32  32  32  16
#     4  12  23  32  50  82 114 149 194 239 277 329
#     4  10  22  39  57  81 111 150 195 237 279 325
#     4  12  20  36  53  78 114 152 188 225 280 335
#     4  11  21  37  59  82 113 150 188 231 279 334
#     4  10  20  35  55  85 120 149 177 219 281 347
#     4  11  20  35  58  82 112 146 182 228 279 336
#     4  10  20  36  55  75 112 157 192 232 282 324
#
# _framework density 18.248387000000001
#
# number of rings (size 3 to 8) (size 9 to 14) (size 15 to 20)
#    0.000    1.167    6.667    1.750    0.000    2.167 
#    0.000    4.583    0.000    9.500    0.000    9.333 
#    0.000    0.000    0.000    0.000    0.000    0.000 
#
# Total GULP energy -595017.316240 kJ/mol
# GULP energy per Si atom -12396.194088 kJ/mol
# Density = 1.820685 g / cm^3
# Si number density = 18.248387 Si / 1000 Ang^3
#
#
#
# Elastic Constant Matrix: (Units=GPa)
#
#
# Indices 1 2 3 4 5 6 
#
# 1 126.2229 43.0798 34.0900 0.0000 0.0000 0.0000
# 2 43.0798 152.4620 36.0670 0.0000 0.0000 0.0000
# 3 34.0900 36.0670 89.0491 0.0000 0.0000 0.0000
# 4 0.0000 0.0000 0.0000 12.4187 0.0000 0.0000
# 5 0.0000 0.0000 0.0000 0.0000 -5.0307 0.0000
# 6 0.0000 0.0000 0.0000 0.0000 0.0000 14.7261
#
#
#
# Elastic Compliance Matrix: (Units=1/GPa)
#
#
# Indices 1 2 3 4 5 6 
#
# 1 0.009350 -0.001985 -0.002775 0.000000 0.000000 0.000000
# 2 -0.001985 0.007676 -0.002349 0.000000 0.000000 0.000000
# 3 -0.002775 -0.002349 0.013243 0.000000 0.000000 0.000000
# 4 0.000000 0.000000 0.000000 0.080524 0.000000 0.000000
# 5 0.000000 0.000000 0.000000 0.000000 -0.198781 0.000000
# 6 0.000000 0.000000 0.000000 0.000000 0.000000 0.067907
#
#
# Mechanical properties :
#
#
# Convention : Reuss Voigt Hill
#
# Bulk Modulus (GPa) = 62.30458 66.02307 64.16383
# Shear Modulus (GPa) = -9747.34205 21.38930 -4862.97637
#
# Velocity S-wave (km/s) = -73.16473 3.42734 -51.67848
# Velocity P-wave (km/s) = 84.28060 7.20562 59.37718
#
# Compressibility (1/GPa) = 0.01605018
#
# Stress axis : x y z
#
# Youngs Moduli (GPa) = 106.95666 130.28250 75.50904
#
# Poissons Ratio (x) = 0.25865 0.20955
# Poissons Ratio (y) = 0.21234 0.17735
# Poissons Ratio (z) = 0.29682 0.30601
#
# Static dielectric constant tensor:
#      x y z
#    x 3.620670 0.000000 0.000000 
#    y 0.000000 3.292850 0.000000 
#    z 0.000000 0.000000 3.375080 
# 
# 
# High freq. dielectric constant tensor:
#      x y z
#    x 1.705150 0.000000 0.000000 
#    y 0.000000 1.702140 0.000000 
#    z 0.000000 0.000000 1.698750 
# 
# From -- ./inp_files/38997.got.cif
#   From: 2010.03.12/outbox.cif.g09.slc.cpg/sg69_20_cif.got.tgz:38997.got - 2010.04.10 23:52:46.
