data_PCOD8284482
_publ_section_title
;
Structure prediction by ZEFSAII (Michael W. Deem and Ramdas Pophale) SiO2 
 PCOD8284482
Probable space group: F M M M
;
_chemical_formula_sum "Si O2"
_cell_formula_units_Z 224
_cell_length_a 17.866199
_cell_length_b 30.316532
_cell_length_c 21.925470
_cell_angle_alpha 90.000000
_cell_angle_beta 90.000000
_cell_angle_gamma 90.000000
_cell_volume 11875.737743
_symmetry_space_group_name_H-M "F M M M"
_symmetry_group_IT_number 69
_symmetry_cell_setting 'orthorhombic'
loop_
_space_group_symop_operation_xyz
x,y,z
-x,-y,z
x,-y,-z
-x,y,-z
-x,-y,-z
x,y,-z
-x,y,z
x,-y,z
x,1/2+y,1/2+z
-x,1/2-y,1/2+z
x,1/2-y,1/2-z
-x,1/2+y,1/2-z
-x,1/2-y,1/2-z
x,1/2+y,1/2-z
-x,1/2+y,1/2+z
x,1/2-y,1/2+z
1/2+x,y,1/2+z
1/2-x,-y,1/2+z
1/2+x,-y,1/2-z
1/2-x,y,1/2-z
1/2-x,-y,1/2-z
1/2+x,y,1/2-z
1/2-x,y,1/2+z
1/2+x,-y,1/2+z
1/2+x,1/2+y,z
1/2-x,1/2-y,z
1/2+x,1/2-y,-z
1/2-x,1/2+y,-z
1/2-x,1/2-y,-z
1/2+x,1/2+y,-z
1/2-x,1/2+y,z
1/2+x,1/2-y,z
loop_
_atom_site_type_symbol
_atom_site_label
_atom_site_fract_x
_atom_site_fract_y
_atom_site_fract_z
Si Si1 0.669267 0.951243 0.723489
Si Si2 0.085383 0.630391 0.238289
Si Si3 0.265793 0.449785 0.500000
Si Si4 0.704615 0.394711 0.891001
Si Si5 0.640933 0.348061 0.610410
Si Si6 0.414795 0.094106 0.000000
Si Si7 0.163532 0.248735 0.429511
Si Si8 0.411516 0.328122 0.865613
O O1 0.750000 0.958572 0.750000
O O2 0.624282 0.917561 0.766507
O O3 0.675749 0.928691 0.658652
O O4 0.630549 0.000000 0.719290
O O5 0.097670 0.655125 0.174542
O O6 0.112087 0.661376 0.294985
O O7 0.000000 0.619667 0.249426
O O8 0.241711 0.500000 0.500000
O O9 0.228379 0.425817 0.444455
O O10 0.356214 0.446393 0.500000
O O11 0.774842 0.363637 0.873599
O O12 0.634666 0.362802 0.907569
O O13 0.599365 0.379123 0.562092
O O14 0.636346 0.300764 0.579261
O O15 0.500000 0.076507 0.000000
O O16 0.152089 0.263199 0.500000
O O17 0.250000 0.250000 0.410610
O O18 0.114821 0.279392 0.384596
O O19 0.500000 0.333115 0.876934
#
# Coordination Sequence:
#
# PCOD8284482 Si02
#       8
#    32  32  16  32  32  16  32  32
#     4  10  19  34  59  86 112 147 196 240 283 347
#     4  10  22  39  58  84 121 156 192 242 301 350
#     4  10  22  37  60  87 114 153 197 240 292 349
#     4  10  20  37  61  85 117 154 192 242 289 351
#     4  11  20  38  61  85 115 158 200 243 288 348
#     4  10  22  37  56  85 118 157 198 238 295 348
#     4  11  23  39  62  87 118 151 202 251 286 343
#     4  10  23  40  59  88 120 154 193 242 303 350
#
# _framework density 18.861986000000002
#
# number of rings (size 3 to 8) (size 9 to 14) (size 15 to 20)
#    0.000    1.714    3.571    0.857    1.000    2.429 
#    0.000    2.143    0.000    3.429    0.000    0.000 
#    0.000    0.000    0.000    0.000    0.000    0.000 
#
# Total GULP energy -694134.021072 kJ/mol
# GULP energy per Si atom -12395.250376 kJ/mol
# Density = 1.881906 g / cm^3
# Si number density = 18.861986 Si / 1000 Ang^3
#
#
#
# Elastic Constant Matrix: (Units=GPa)
#
#
# Indices 1 2 3 4 5 6 
#
# 1 85.1503 20.8389 26.3676 0.0000 0.0000 0.0000
# 2 20.8389 89.1796 25.9933 0.0000 0.0000 0.0000
# 3 26.3676 25.9933 74.1505 0.0000 0.0000 0.0000
# 4 0.0000 0.0000 0.0000 9.6541 0.0000 0.0000
# 5 0.0000 0.0000 0.0000 0.0000 -1.5198 0.0000
# 6 0.0000 0.0000 0.0000 0.0000 0.0000 23.5199
#
#
#
# Elastic Compliance Matrix: (Units=1/GPa)
#
#
# Indices 1 2 3 4 5 6 
#
# 1 0.013496 -0.001955 -0.004114 0.000000 0.000000 0.000000
# 2 -0.001955 0.012773 -0.003782 0.000000 0.000000 0.000000
# 3 -0.004114 -0.003782 0.016275 0.000000 0.000000 0.000000
# 4 0.000000 0.000000 0.000000 0.103583 0.000000 0.000000
# 5 0.000000 0.000000 0.000000 0.000000 -0.657991 0.000000
# 6 0.000000 0.000000 0.000000 0.000000 0.000000 0.042517
#
#
# Mechanical properties :
#
#
# Convention : Reuss Voigt Hill
#
# Bulk Modulus (GPa) = 43.77947 43.87555 43.82751
# Shear Modulus (GPa) = -11.31141 18.01623 3.35241
#
# Velocity S-wave (km/s) = -2.45152 3.09392 1.33461
# Velocity P-wave (km/s) = 3.90481 6.00625 5.06569
#
# Compressibility (1/GPa) = 0.02284176
#
# Stress axis : x y z
#
# Youngs Moduli (GPa) = 74.09475 78.29318 61.44428
#
# Poissons Ratio (x) = 0.15303 0.25278
# Poissons Ratio (y) = 0.14483 0.23240
# Poissons Ratio (z) = 0.30483 0.29613
#
# Static dielectric constant tensor:
#      x y z
#    x 3.524470 0.000000 0.000000 
#    y 0.000000 3.588340 0.000000 
#    z 0.000000 0.000000 3.476220 
# 
# 
# High freq. dielectric constant tensor:
#      x y z
#    x 1.730980 0.000000 0.000000 
#    y 0.000000 1.734010 0.000000 
#    z 0.000000 0.000000 1.734010 
# 
# From -- ./inp_files/31216.got.cif
#   From: 2010.03.12/outbox.cif.g09.slc.cpg/sg69_16_cif.got.tgz:31216.got - 2010.04.10 23:52:46.
