data_PCOD8284526
_publ_section_title
;
Structure prediction by ZEFSAII (Michael W. Deem and Ramdas Pophale) SiO2 
 PCOD8284526
Probable space group: F M M M
;
_chemical_formula_sum "Si O2"
_cell_formula_units_Z 128
_cell_length_a 17.399490
_cell_length_b 14.520690
_cell_length_c 27.349763
_cell_angle_alpha 90.000000
_cell_angle_beta 90.000000
_cell_angle_gamma 90.000000
_cell_volume 6909.988744
_symmetry_space_group_name_H-M "F M M M"
_symmetry_group_IT_number 69
_symmetry_cell_setting 'orthorhombic'
loop_
_space_group_symop_operation_xyz
x,y,z
-x,-y,z
x,-y,-z
-x,y,-z
-x,-y,-z
x,y,-z
-x,y,z
x,-y,z
x,1/2+y,1/2+z
-x,1/2-y,1/2+z
x,1/2-y,1/2-z
-x,1/2+y,1/2-z
-x,1/2-y,1/2-z
x,1/2+y,1/2-z
-x,1/2+y,1/2+z
x,1/2-y,1/2+z
1/2+x,y,1/2+z
1/2-x,-y,1/2+z
1/2+x,-y,1/2-z
1/2-x,y,1/2-z
1/2-x,-y,1/2-z
1/2+x,y,1/2-z
1/2-x,y,1/2+z
1/2+x,-y,1/2+z
1/2+x,1/2+y,z
1/2-x,1/2-y,z
1/2+x,1/2-y,-z
1/2-x,1/2+y,-z
1/2-x,1/2-y,-z
1/2+x,1/2+y,-z
1/2-x,1/2+y,z
1/2+x,1/2-y,z
loop_
_atom_site_type_symbol
_atom_site_label
_atom_site_fract_x
_atom_site_fract_y
_atom_site_fract_z
Si Si1 0.641541 0.500000 0.200517
Si Si2 0.777439 0.895575 0.945037
Si Si3 0.817513 0.312748 0.862329
Si Si4 0.411992 0.855430 0.374503
Si Si5 0.323188 0.000000 0.191850
O O1 0.605663 0.409741 0.175673
O O2 0.626570 0.500000 0.258579
O O3 0.732348 0.500000 0.195713
O O4 0.714463 0.835636 0.916405
O O5 0.859915 0.893594 0.918360
O O6 0.747818 0.000000 0.945323
O O7 0.785755 0.857111 0.000000
O O8 0.750000 0.250000 0.836124
O O9 0.894444 0.252249 0.865973
O O10 0.843478 0.405457 0.835490
O O11 0.500000 0.868759 0.389636
#
# Coordination Sequence:
#
# PCOD8284526 Si02
#       5
#    16  32  32  32  16
#     4  11  21  36  58  84 112 145 187 243 286 329
#     4  10  19  35  61  88 112 147 192 237 283 335
#     4  10  19  37  58  85 115 146 190 239 278 332
#     4  11  22  38  56  84 122 154 184 231 291 344
#     4  11  20  38  60  83 106 146 198 237 281 332
#
# _framework density 18.523909
#
# number of rings (size 3 to 8) (size 9 to 14) (size 15 to 20)
#    0.000    1.500    7.500    0.375    0.000    6.000 
#    0.000    5.625    0.000    0.000    0.000    1.750 
#    0.000    0.000    0.000    0.000    0.000    0.000 
#
# Total GULP energy -396614.099983 kJ/mol
# GULP energy per Si atom -12394.190624 kJ/mol
# Density = 1.848175 g / cm^3
# Si number density = 18.523909 Si / 1000 Ang^3
#
#
#
# Elastic Constant Matrix: (Units=GPa)
#
#
# Indices 1 2 3 4 5 6 
#
# 1 74.2933 26.5294 40.0263 0.0000 0.0000 0.0000
# 2 26.5294 136.8565 61.8977 0.0000 0.0000 0.0000
# 3 40.0263 61.8977 140.2858 0.0000 0.0000 0.0000
# 4 0.0000 0.0000 0.0000 15.2807 0.0000 0.0000
# 5 0.0000 0.0000 0.0000 0.0000 13.6576 0.0000
# 6 0.0000 0.0000 0.0000 0.0000 0.0000 14.8753
#
#
#
# Elastic Compliance Matrix: (Units=1/GPa)
#
#
# Indices 1 2 3 4 5 6 
#
# 1 0.016089 -0.001303 -0.004016 0.000000 0.000000 0.000000
# 2 -0.001303 0.009234 -0.003703 0.000000 0.000000 0.000000
# 3 -0.004016 -0.003703 0.009908 0.000000 0.000000 0.000000
# 4 0.000000 0.000000 0.000000 0.065442 0.000000 0.000000
# 5 0.000000 0.000000 0.000000 0.000000 0.073219 0.000000
# 6 0.000000 0.000000 0.000000 0.000000 0.000000 0.067225
#
#
# Mechanical properties :
#
#
# Convention : Reuss Voigt Hill
#
# Bulk Modulus (GPa) = 58.17754 67.59360 62.88557
# Shear Modulus (GPa) = 18.87583 23.62820 21.25202
#
# Velocity S-wave (km/s) = 3.19564 3.57536 3.39082
# Velocity P-wave (km/s) = 6.71499 7.32212 7.02511
#
# Compressibility (1/GPa) = 0.01718876
#
# Stress axis : x y z
#
# Youngs Moduli (GPa) = 62.15503 108.29459 100.93064
#
# Poissons Ratio (x) = 0.14106 0.40531
# Poissons Ratio (y) = 0.08096 0.37371
# Poissons Ratio (z) = 0.24960 0.40098
#
# Static dielectric constant tensor:
#      x y z
#    x 3.080130 0.000000 0.000000 
#    y 0.000000 3.272520 0.000000 
#    z 0.000000 0.000000 3.573640 
# 
# 
# High freq. dielectric constant tensor:
#      x y z
#    x 1.680320 0.000000 0.000000 
#    y 0.000000 1.743940 0.000000 
#    z 0.000000 0.000000 1.707790 
# 
# From -- ./inp_files/18625.got.cif
#   From: 2010.03.12/outbox.cif.g09.slc.cpg/sg69_10_cif.got.tgz:18625.got - 2010.04.10 23:52:46.
