data_PCOD8284602
_publ_section_title
;
Structure prediction by ZEFSAII (Michael W. Deem and Ramdas Pophale) SiO2 
 PCOD8284602
Probable space group: F M M M
;
_chemical_formula_sum "Si O2"
_cell_formula_units_Z 128
_cell_length_a 15.389907
_cell_length_b 28.710367
_cell_length_c 17.606926
_cell_angle_alpha 90.000000
_cell_angle_beta 90.000000
_cell_angle_gamma 90.000000
_cell_volume 7779.618106
_symmetry_space_group_name_H-M "F M M M"
_symmetry_group_IT_number 69
_symmetry_cell_setting 'orthorhombic'
loop_
_space_group_symop_operation_xyz
x,y,z
-x,-y,z
x,-y,-z
-x,y,-z
-x,-y,-z
x,y,-z
-x,y,z
x,-y,z
x,1/2+y,1/2+z
-x,1/2-y,1/2+z
x,1/2-y,1/2-z
-x,1/2+y,1/2-z
-x,1/2-y,1/2-z
x,1/2+y,1/2-z
-x,1/2+y,1/2+z
x,1/2-y,1/2+z
1/2+x,y,1/2+z
1/2-x,-y,1/2+z
1/2+x,-y,1/2-z
1/2-x,y,1/2-z
1/2-x,-y,1/2-z
1/2+x,y,1/2-z
1/2-x,y,1/2+z
1/2+x,-y,1/2+z
1/2+x,1/2+y,z
1/2-x,1/2-y,z
1/2+x,1/2-y,-z
1/2-x,1/2+y,-z
1/2-x,1/2-y,-z
1/2+x,1/2+y,-z
1/2-x,1/2+y,z
1/2+x,1/2-y,z
loop_
_atom_site_type_symbol
_atom_site_label
_atom_site_fract_x
_atom_site_fract_y
_atom_site_fract_z
Si Si1 0.000000 0.328951 0.759529
Si Si2 0.832405 0.871418 0.802658
Si Si3 0.000000 0.248917 0.868447
Si Si4 0.678350 0.785903 0.414901
Si Si5 0.899821 0.054091 0.913905
O O1 0.084503 0.361565 0.750740
O O2 0.000000 0.302785 0.840716
O O3 0.000000 0.287896 0.699098
O O4 0.750000 0.879877 0.750000
O O5 0.817529 0.828805 0.858724
O O6 0.844187 0.917314 0.853470
O O7 0.085585 0.239841 0.917801
O O8 0.700346 0.803020 0.500000
O O9 0.750000 0.750000 0.384541
O O10 0.000000 0.069254 0.906372
O O11 0.887975 0.000000 0.894879
O O12 0.868393 0.064620 0.000000
#
# Coordination Sequence:
#
# PCOD8284602 Si02
#       5
#    16  32  16  32  32
#     4   9  18  30  43  67  96 127 167 201 244 300
#     4  11  20  31  50  74 103 135 166 207 259 310
#     4   9  17  30  46  62  89 129 168 208 247 284
#     4  10  20  32  46  68  96 131 175 215 249 291
#     4   9  18  34  55  77 102 130 164 212 263 308
#
# _framework density 16.453250000000001
#
# number of rings (size 3 to 8) (size 9 to 14) (size 15 to 20)
#    0.000    2.250    1.250    3.375    0.000    3.000 
#    0.000    0.000    0.000    0.000    0.000    0.000 
#    0.000    2.000    0.000    0.000    0.000    0.000 
#
# Total GULP energy -396779.699874 kJ/mol
# GULP energy per Si atom -12399.365621 kJ/mol
# Density = 1.641580 g / cm^3
# Si number density = 16.453250 Si / 1000 Ang^3
#
#
#
# Elastic Constant Matrix: (Units=GPa)
#
#
# Indices 1 2 3 4 5 6 
#
# 1 116.6085 49.8065 42.3779 0.0000 0.0000 0.0000
# 2 49.8065 82.7308 51.0919 0.0000 0.0000 0.0000
# 3 42.3779 51.0919 81.6029 0.0000 0.0000 0.0000
# 4 0.0000 0.0000 0.0000 21.5102 0.0000 0.0000
# 5 0.0000 0.0000 0.0000 0.0000 14.4458 0.0000
# 6 0.0000 0.0000 0.0000 0.0000 0.0000 21.2227
#
#
#
# Elastic Compliance Matrix: (Units=1/GPa)
#
#
# Indices 1 2 3 4 5 6 
#
# 1 0.011915 -0.005465 -0.002766 0.000000 0.000000 0.000000
# 2 -0.005465 0.022214 -0.011070 0.000000 0.000000 0.000000
# 3 -0.002766 -0.011070 0.020622 0.000000 0.000000 0.000000
# 4 0.000000 0.000000 0.000000 0.046490 0.000000 0.000000
# 5 0.000000 0.000000 0.000000 0.000000 0.069224 0.000000
# 6 0.000000 0.000000 0.000000 0.000000 0.000000 0.047119
#
#
# Mechanical properties :
#
#
# Convention : Reuss Voigt Hill
#
# Bulk Modulus (GPa) = 61.92484 63.05501 62.48992
# Shear Modulus (GPa) = 19.11530 20.61346 19.86438
#
# Velocity S-wave (km/s) = 3.41221 3.54340 3.47842
# Velocity P-wave (km/s) = 7.29676 7.42616 7.36175
#
# Compressibility (1/GPa) = 0.01614861
#
# Stress axis : x y z
#
# Youngs Moduli (GPa) = 83.92610 45.01619 48.49171
#
# Poissons Ratio (x) = 0.24602 0.13413
# Poissons Ratio (y) = 0.45867 0.53682
# Poissons Ratio (z) = 0.23215 0.49834
#
# Static dielectric constant tensor:
#      x y z
#    x 3.156960 0.000000 0.000000 
#    y 0.000000 2.998460 0.000000 
#    z 0.000000 0.000000 3.004240 
# 
# 
# High freq. dielectric constant tensor:
#      x y z
#    x 1.630710 0.000000 0.000000 
#    y 0.000000 1.621280 0.000000 
#    z 0.000000 0.000000 1.627440 
# 
# From -- ./inp_files/15343.got.cif
#   From: 2010.03.12/outbox.cif.g09.slc.cpg/sg69_8_cif.got.tgz:15343.got - 2010.04.10 23:52:46.
