data_PCOD8284001
_publ_section_title
;
Structure prediction by ZEFSAII (Michael W. Deem and Ramdas Pophale) SiO2 
 PCOD8284001
Probable space group: F M M M
;
_chemical_formula_sum "Si O2"
_cell_formula_units_Z 176
_cell_length_a 23.979509
_cell_length_b 29.961689
_cell_length_c 14.602670
_cell_angle_alpha 90.000000
_cell_angle_beta 90.000000
_cell_angle_gamma 90.000000
_cell_volume 10491.530535
_symmetry_space_group_name_H-M "F M M M"
_symmetry_group_IT_number 69
_symmetry_cell_setting 'orthorhombic'
loop_
_space_group_symop_operation_xyz
x,y,z
-x,-y,z
x,-y,-z
-x,y,-z
-x,-y,-z
x,y,-z
-x,y,z
x,-y,z
x,1/2+y,1/2+z
-x,1/2-y,1/2+z
x,1/2-y,1/2-z
-x,1/2+y,1/2-z
-x,1/2-y,1/2-z
x,1/2+y,1/2-z
-x,1/2+y,1/2+z
x,1/2-y,1/2+z
1/2+x,y,1/2+z
1/2-x,-y,1/2+z
1/2+x,-y,1/2-z
1/2-x,y,1/2-z
1/2-x,-y,1/2-z
1/2+x,y,1/2-z
1/2-x,y,1/2+z
1/2+x,-y,1/2+z
1/2+x,1/2+y,z
1/2-x,1/2-y,z
1/2+x,1/2-y,-z
1/2-x,1/2+y,-z
1/2-x,1/2-y,-z
1/2+x,1/2+y,-z
1/2-x,1/2+y,z
1/2+x,1/2-y,z
loop_
_atom_site_type_symbol
_atom_site_label
_atom_site_fract_x
_atom_site_fract_y
_atom_site_fract_z
Si Si1 0.381479 0.217453 0.173826
Si Si2 0.884437 0.115661 0.681113
Si Si3 0.780773 0.449488 0.500000
Si Si4 0.190452 0.051586 0.204186
Si Si5 0.000000 0.781990 0.600945
Si Si6 0.500000 0.112299 0.102956
Si Si7 0.185323 0.380769 0.000000
Si Si8 0.697086 0.217411 0.000000
O O1 0.356299 0.250000 0.250000
O O2 0.382752 0.167128 0.214015
O O3 0.444178 0.233949 0.151744
O O4 0.341655 0.224357 0.087527
O O5 0.856717 0.083516 0.755401
O O6 0.946595 0.097446 0.662319
O O7 0.853486 0.114160 0.586028
O O8 0.759818 0.500000 0.500000
O O9 0.813505 0.439758 0.594561
O O10 0.726008 0.421330 0.500000
O O11 0.250000 0.064441 0.250000
O O12 0.176980 0.000000 0.226913
O O13 0.000000 0.834910 0.591480
O O14 0.000000 0.760510 0.500000
O O15 0.500000 0.091174 0.000000
O O16 0.218756 0.333792 0.000000
O O17 0.750000 0.250000 0.000000
#
# Coordination Sequence:
#
# PCOD8284001 Si02
#       8
#    32  32  16  32  16  16  16  16
#     4  10  20  34  52  76 100 136 176 213 256 304
#     4  10  19  33  53  79 105 134 170 211 264 315
#     4  10  20  34  53  78 102 132 173 215 255 294
#     4  10  20  34  54  78 104 135 172 212 252 300
#     4   9  15  31  57  75  96 127 176 224 258 300
#     4   9  16  29  54  80 103 132 166 213 268 317
#     4  10  18  31  54  75 101 135 171 211 256 314
#     4  10  22  35  45  68 108 144 171 204 254 308
#
# _framework density 16.775435999999999
#
# number of rings (size 3 to 8) (size 9 to 14) (size 15 to 20)
#    0.000    2.182    3.636    0.273    0.000    1.818 
#    0.000    0.455    0.000    1.091    0.000    1.909 
#    0.000    0.000    0.000    0.000    0.000    0.000 
#
# Total GULP energy -545375.147139 kJ/mol
# GULP energy per Si atom -12394.889708 kJ/mol
# Density = 1.673725 g / cm^3
# Si number density = 16.775436 Si / 1000 Ang^3
#
#
#
# Elastic Constant Matrix: (Units=GPa)
#
#
# Indices 1 2 3 4 5 6 
#
# 1 113.3866 58.1982 47.5541 0.0000 0.0000 0.0000
# 2 58.1982 76.1427 58.1713 0.0000 0.0000 0.0000
# 3 47.5541 58.1713 118.1613 0.0000 0.0000 0.0000
# 4 0.0000 0.0000 0.0000 29.6621 0.0000 0.0000
# 5 0.0000 0.0000 0.0000 0.0000 28.9268 0.0000
# 6 0.0000 0.0000 0.0000 0.0000 0.0000 23.6060
#
#
#
# Elastic Compliance Matrix: (Units=1/GPa)
#
#
# Indices 1 2 3 4 5 6 
#
# 1 0.014540 -0.010648 -0.000610 0.000000 0.000000 0.000000
# 2 -0.010648 0.028848 -0.009917 0.000000 0.000000 0.000000
# 3 -0.000610 -0.009917 0.013590 0.000000 0.000000 0.000000
# 4 0.000000 0.000000 0.000000 0.033713 0.000000 0.000000
# 5 0.000000 0.000000 0.000000 0.000000 0.034570 0.000000
# 6 0.000000 0.000000 0.000000 0.000000 0.000000 0.042362
#
#
# Mechanical properties :
#
#
# Convention : Reuss Voigt Hill
#
# Bulk Modulus (GPa) = 68.35252 70.61530 69.48391
# Shear Modulus (GPa) = 23.27217 26.02344 24.64780
#
# Velocity S-wave (km/s) = 3.72866 3.94290 3.83728
# Velocity P-wave (km/s) = 7.70527 7.93187 7.81939
#
# Compressibility (1/GPa) = 0.01463004
#
# Stress axis : x y z
#
# Youngs Moduli (GPa) = 68.77418 34.66480 73.58100
#
# Poissons Ratio (x) = 0.36910 0.04487
# Poissons Ratio (y) = 0.73229 0.72968
# Poissons Ratio (z) = 0.04194 0.34376
#
# Static dielectric constant tensor:
#      x y z
#    x 3.216070 0.000000 0.000000 
#    y 0.000000 3.136810 0.000000 
#    z 0.000000 0.000000 3.254380 
# 
# 
# High freq. dielectric constant tensor:
#      x y z
#    x 1.637410 0.000000 0.000000 
#    y 0.000000 1.632460 0.000000 
#    z 0.000000 0.000000 1.651450 
# 
# From -- ./inp_files/18202.got.cif
#   From: 2010.03.12/outbox.cif.g09.slc.cpg/sg69_10_cif.got.tgz:18202.got - 2010.04.10 23:52:46.
