data_PCOD8284136
_publ_section_title
;
Structure prediction by ZEFSAII (Michael W. Deem and Ramdas Pophale) SiO2 
 PCOD8284136
Probable space group: F M M M
;
_chemical_formula_sum "Si O2"
_cell_formula_units_Z 208
_cell_length_a 16.880101
_cell_length_b 25.131182
_cell_length_c 29.987079
_cell_angle_alpha 90.000000
_cell_angle_beta 90.000000
_cell_angle_gamma 90.000000
_cell_volume 12721.025406
_symmetry_space_group_name_H-M "F M M M"
_symmetry_group_IT_number 69
_symmetry_cell_setting 'orthorhombic'
loop_
_space_group_symop_operation_xyz
x,y,z
-x,-y,z
x,-y,-z
-x,y,-z
-x,-y,-z
x,y,-z
-x,y,z
x,-y,z
x,1/2+y,1/2+z
-x,1/2-y,1/2+z
x,1/2-y,1/2-z
-x,1/2+y,1/2-z
-x,1/2-y,1/2-z
x,1/2+y,1/2-z
-x,1/2+y,1/2+z
x,1/2-y,1/2+z
1/2+x,y,1/2+z
1/2-x,-y,1/2+z
1/2+x,-y,1/2-z
1/2-x,y,1/2-z
1/2-x,-y,1/2-z
1/2+x,y,1/2-z
1/2-x,y,1/2+z
1/2+x,-y,1/2+z
1/2+x,1/2+y,z
1/2-x,1/2-y,z
1/2+x,1/2-y,-z
1/2-x,1/2+y,-z
1/2-x,1/2-y,-z
1/2+x,1/2+y,-z
1/2-x,1/2+y,z
1/2+x,1/2-y,z
loop_
_atom_site_type_symbol
_atom_site_label
_atom_site_fract_x
_atom_site_fract_y
_atom_site_fract_z
Si Si1 0.911017 0.654406 0.237276
Si Si2 0.757209 0.622045 0.628687
Si Si3 0.672926 0.781759 0.836431
Si Si4 0.187241 0.059681 0.710883
Si Si5 0.589467 0.821602 0.659215
Si Si6 0.000000 0.442229 0.552512
Si Si7 0.327232 0.436605 0.051081
O O1 0.854488 0.691706 0.209016
O O2 0.887758 0.593345 0.227884
O O3 0.901916 0.671688 0.287999
O O4 0.000000 0.662427 0.220415
O O5 0.697456 0.673011 0.627047
O O6 0.727383 0.581717 0.666170
O O7 0.847785 0.639095 0.637286
O O8 0.760226 0.591952 0.581212
O O9 0.750000 0.750000 0.821831
O O10 0.607845 0.739935 0.854813
O O11 0.250000 0.061168 0.750000
O O12 0.157465 0.000000 0.701365
O O13 0.500000 0.835727 0.643481
O O14 0.915859 0.414303 0.564775
O O15 0.000000 0.500000 0.576050
O O16 0.000000 0.451040 0.500000
O O17 0.324146 0.500000 0.058288
O O18 0.307674 0.422034 0.000000
#
# Coordination Sequence:
#
# PCOD8284136 Si02
#       7
#    32  32  32  32  32  16  32
#     4  10  19  31  47  68  90 122 166 202 230 265
#     4  10  19  30  47  69  91 123 158 186 230 285
#     4   9  19  30  46  65  90 120 155 195 240 278
#     4  10  19  32  46  63  95 132 157 184 226 278
#     4  10  19  30  44  66  93 120 157 201 236 268
#     4   7  12  24  42  64  90 118 143 176 226 270
#     4   9  17  30  48  70  94 118 150 192 231 273
#
# _framework density 16.350883
#
# number of rings (size 3 to 8) (size 9 to 14) (size 15 to 20)
#    0.000    2.538    1.538    2.308    1.077    3.385 
#    0.000    0.000    0.000    4.154    0.000    0.000 
#    0.000   14.769    0.000   49.385    0.000    0.000 
#
# Total GULP energy -644306.458816 kJ/mol
# GULP energy per Si atom -12390.508823 kJ/mol
# Density = 1.631367 g / cm^3
# Si number density = 16.350883 Si / 1000 Ang^3
#
#
#
# Elastic Constant Matrix: (Units=GPa)
#
#
# Indices 1 2 3 4 5 6 
#
# 1 52.1988 28.3604 28.1716 0.0000 0.0000 0.0000
# 2 28.3604 85.7159 30.0606 0.0000 0.0000 0.0000
# 3 28.1716 30.0606 67.0774 0.0000 0.0000 0.0000
# 4 0.0000 0.0000 0.0000 22.4965 0.0000 0.0000
# 5 0.0000 0.0000 0.0000 0.0000 18.3785 0.0000
# 6 0.0000 0.0000 0.0000 0.0000 0.0000 2.3742
#
#
#
# Elastic Compliance Matrix: (Units=1/GPa)
#
#
# Indices 1 2 3 4 5 6 
#
# 1 0.027071 -0.005896 -0.008727 0.000000 0.000000 0.000000
# 2 -0.005896 0.015126 -0.004302 0.000000 0.000000 0.000000
# 3 -0.008727 -0.004302 0.020502 0.000000 0.000000 0.000000
# 4 0.000000 0.000000 0.000000 0.044451 0.000000 0.000000
# 5 0.000000 0.000000 0.000000 0.000000 0.054411 0.000000
# 6 0.000000 0.000000 0.000000 0.000000 0.000000 0.421190
#
#
# Mechanical properties :
#
#
# Convention : Reuss Voigt Hill
#
# Bulk Modulus (GPa) = 40.24593 42.01969 41.13281
# Shear Modulus (GPa) = 7.95058 16.54315 12.24686
#
# Velocity S-wave (km/s) = 2.20749 3.18427 2.73976
# Velocity P-wave (km/s) = 5.58254 6.26689 5.93459
#
# Compressibility (1/GPa) = 0.02484724
#
# Stress axis : x y z
#
# Youngs Moduli (GPa) = 36.93982 66.11054 48.77691
#
# Poissons Ratio (x) = 0.38981 0.42568
# Poissons Ratio (y) = 0.21781 0.20986
# Poissons Ratio (z) = 0.32238 0.28443
#
# Static dielectric constant tensor:
#      x y z
#    x 3.006960 0.000000 0.000000 
#    y 0.000000 3.298420 0.000000 
#    z 0.000000 0.000000 2.782770 
# 
# 
# High freq. dielectric constant tensor:
#      x y z
#    x 1.623020 0.000000 0.000000 
#    y 0.000000 1.632320 0.000000 
#    z 0.000000 0.000000 1.593610 
# 
# From -- ./inp_files/26085.got.cif
#   From: 2010.03.12/outbox.cif.g09.slc.cpg/sg69_14_cif.got.tgz:26085.got - 2010.04.10 23:52:46.
