data_PCOD8284002
_publ_section_title
;
Structure prediction by ZEFSAII (Michael W. Deem and Ramdas Pophale) SiO2 
 PCOD8284002
Probable space group: F M M M
;
_chemical_formula_sum "Si O2"
_cell_formula_units_Z 208
_cell_length_a 16.806683
_cell_length_b 26.596908
_cell_length_c 26.778491
_cell_angle_alpha 90.000000
_cell_angle_beta 90.000000
_cell_angle_gamma 90.000000
_cell_volume 11970.140833
_symmetry_space_group_name_H-M "F M M M"
_symmetry_group_IT_number 69
_symmetry_cell_setting 'orthorhombic'
loop_
_space_group_symop_operation_xyz
x,y,z
-x,-y,z
x,-y,-z
-x,y,-z
-x,-y,-z
x,y,-z
-x,y,z
x,-y,z
x,1/2+y,1/2+z
-x,1/2-y,1/2+z
x,1/2-y,1/2-z
-x,1/2+y,1/2-z
-x,1/2-y,1/2-z
x,1/2+y,1/2-z
-x,1/2+y,1/2+z
x,1/2-y,1/2+z
1/2+x,y,1/2+z
1/2-x,-y,1/2+z
1/2+x,-y,1/2-z
1/2-x,y,1/2-z
1/2-x,-y,1/2-z
1/2+x,y,1/2-z
1/2-x,y,1/2+z
1/2+x,-y,1/2+z
1/2+x,1/2+y,z
1/2-x,1/2-y,z
1/2+x,1/2-y,-z
1/2-x,1/2+y,-z
1/2-x,1/2-y,-z
1/2+x,1/2+y,-z
1/2-x,1/2+y,z
1/2+x,1/2-y,z
loop_
_atom_site_type_symbol
_atom_site_label
_atom_site_fract_x
_atom_site_fract_y
_atom_site_fract_z
Si Si1 0.093713 0.722961 0.801124
Si Si2 0.410016 0.311146 0.128933
Si Si3 0.911029 0.591094 0.307609
Si Si4 0.262377 0.556813 0.137036
Si Si5 0.674281 0.379290 0.284580
Si Si6 0.657044 0.616403 0.941134
Si Si7 0.500000 0.556204 0.941093
O O1 0.118886 0.750000 0.750000
O O2 0.117874 0.758284 0.847946
O O3 0.142469 0.672033 0.808506
O O4 0.000000 0.711434 0.800895
O O5 0.500000 0.306711 0.109003
O O6 0.402908 0.351875 0.173045
O O7 0.353477 0.327758 0.082406
O O8 0.847102 0.555625 0.334507
O O9 0.893596 0.593551 0.248395
O O10 0.000000 0.569618 0.316883
O O11 0.235586 0.500000 0.125846
O O12 0.195682 0.583541 0.170297
O O13 0.269847 0.586744 0.084311
O O14 0.750000 0.367557 0.250000
O O15 0.577684 0.586349 0.923688
O O16 0.670385 0.619474 0.000000
O O17 0.500000 0.500000 0.918185
O O18 0.500000 0.552451 0.000000
#
# Coordination Sequence:
#
# PCOD8284002 Si02
#       7
#    32  32  32  32  32  32  16
#     4  10  18  31  54  77  99 130 171 215 251 298
#     4   9  16  28  47  75 104 128 155 205 260 297
#     4   9  17  31  49  70  99 134 170 209 251 302
#     4  10  22  35  47  69 102 139 173 211 257 305
#     4  10  20  33  48  72 102 138 172 213 249 297
#     4  10  19  33  50  71 100 132 170 210 252 304
#     4   9  16  26  46  72  93 120 166 216 248 285
#
# _framework density 17.376570000000001
#
# number of rings (size 3 to 8) (size 9 to 14) (size 15 to 20)
#    0.000    2.385    2.308    0.923    1.077    4.308 
#    0.000    0.000    0.000    3.231    0.000    0.000 
#    0.000    1.846    0.000    5.538    0.000    0.000 
#
# Total GULP energy -644689.364989 kJ/mol
# GULP energy per Si atom -12397.872404 kJ/mol
# Density = 1.733702 g / cm^3
# Si number density = 17.376570 Si / 1000 Ang^3
#
#
#
# Elastic Constant Matrix: (Units=GPa)
#
#
# Indices 1 2 3 4 5 6 
#
# 1 30.9312 15.0079 19.4220 0.0000 0.0000 0.0000
# 2 15.0079 86.5647 42.0257 0.0000 0.0000 0.0000
# 3 19.4220 42.0257 109.0723 0.0000 0.0000 0.0000
# 4 0.0000 0.0000 0.0000 19.7346 0.0000 0.0000
# 5 0.0000 0.0000 0.0000 0.0000 23.5492 0.0000
# 6 0.0000 0.0000 0.0000 0.0000 0.0000 16.5500
#
#
#
# Elastic Compliance Matrix: (Units=1/GPa)
#
#
# Indices 1 2 3 4 5 6 
#
# 1 0.037498 -0.004009 -0.005132 0.000000 0.000000 0.000000
# 2 -0.004009 0.014639 -0.004926 0.000000 0.000000 0.000000
# 3 -0.005132 -0.004926 0.011980 0.000000 0.000000 0.000000
# 4 0.000000 0.000000 0.000000 0.050672 0.000000 0.000000
# 5 0.000000 0.000000 0.000000 0.000000 0.042464 0.000000
# 6 0.000000 0.000000 0.000000 0.000000 0.000000 0.060423
#
#
# Mechanical properties :
#
#
# Convention : Reuss Voigt Hill
#
# Bulk Modulus (GPa) = 27.79263 42.16434 34.97849
# Shear Modulus (GPa) = 19.39442 21.97428 20.68435
#
# Velocity S-wave (km/s) = 3.34447 3.55997 3.45390
# Velocity P-wave (km/s) = 5.56264 6.41994 6.00660
#
# Compressibility (1/GPa) = 0.03598076
#
# Stress axis : x y z
#
# Youngs Moduli (GPa) = 26.66823 68.31123 83.47070
#
# Poissons Ratio (x) = 0.27389 0.42839
# Poissons Ratio (y) = 0.10693 0.41121
# Poissons Ratio (z) = 0.13687 0.33653
#
# Static dielectric constant tensor:
#      x y z
#    x 3.131770 0.000000 0.000000 
#    y 0.000000 3.161400 0.000000 
#    z 0.000000 0.000000 3.132340 
# 
# 
# High freq. dielectric constant tensor:
#      x y z
#    x 1.640080 0.000000 0.000000 
#    y 0.000000 1.660490 0.000000 
#    z 0.000000 0.000000 1.656390 
# 
# From -- ./inp_files/36808.got.cif
#   From: 2010.03.12/outbox.cif.g09.slc.cpg/sg69_19_cif.got.tgz:36808.got - 2010.04.10 23:52:46.
