data_PCOD8284945
_publ_section_title
;
Structure prediction by ZEFSAII (Michael W. Deem and Ramdas Pophale) SiO2 
 PCOD8284945
Probable space group: F M M M
;
_chemical_formula_sum "Si O2"
_cell_formula_units_Z 208
_cell_length_a 15.902791
_cell_length_b 24.071380
_cell_length_c 27.304540
_cell_angle_alpha 90.000000
_cell_angle_beta 90.000000
_cell_angle_gamma 90.000000
_cell_volume 10452.235940
_symmetry_space_group_name_H-M "F M M M"
_symmetry_group_IT_number 69
_symmetry_cell_setting 'orthorhombic'
loop_
_space_group_symop_operation_xyz
x,y,z
-x,-y,z
x,-y,-z
-x,y,-z
-x,-y,-z
x,y,-z
-x,y,z
x,-y,z
x,1/2+y,1/2+z
-x,1/2-y,1/2+z
x,1/2-y,1/2-z
-x,1/2+y,1/2-z
-x,1/2-y,1/2-z
x,1/2+y,1/2-z
-x,1/2+y,1/2+z
x,1/2-y,1/2+z
1/2+x,y,1/2+z
1/2-x,-y,1/2+z
1/2+x,-y,1/2-z
1/2-x,y,1/2-z
1/2-x,-y,1/2-z
1/2+x,y,1/2-z
1/2-x,y,1/2+z
1/2+x,-y,1/2+z
1/2+x,1/2+y,z
1/2-x,1/2-y,z
1/2+x,1/2-y,-z
1/2-x,1/2+y,-z
1/2-x,1/2-y,-z
1/2+x,1/2+y,-z
1/2-x,1/2+y,z
1/2+x,1/2-y,z
loop_
_atom_site_type_symbol
_atom_site_label
_atom_site_fract_x
_atom_site_fract_y
_atom_site_fract_z
Si Si1 0.164922 0.217232 0.364669
Si Si2 0.344057 0.107004 0.557484
Si Si3 0.847459 0.634003 0.943680
Si Si4 0.245554 0.621981 0.807572
Si Si5 0.500000 0.060811 0.941838
Si Si6 0.402062 0.000000 0.383992
Si Si7 0.906192 0.829496 0.142569
Si Si8 0.759000 0.500000 0.308304
O O1 0.250000 0.250000 0.372992
O O2 0.137297 0.192023 0.416368
O O3 0.177142 0.166313 0.326685
O O4 0.098209 0.263138 0.346340
O O5 0.366102 0.108996 0.500000
O O6 0.244019 0.108459 0.566864
O O7 0.380106 0.052086 0.582081
O O8 0.386765 0.159607 0.584807
O O9 0.915970 0.590933 0.923456
O O10 0.861539 0.647638 0.000000
O O11 0.250000 0.627484 0.750000
O O12 0.339476 0.634812 0.826697
O O13 0.217972 0.559299 0.824736
O O14 0.500000 0.000000 0.917959
O O15 0.500000 0.056793 0.000000
O O16 0.500000 0.000000 0.370417
O O17 0.352764 0.000000 0.331982
O O18 0.000000 0.849646 0.156368
O O19 0.750000 0.500000 0.250000
#
# Coordination Sequence:
#
# PCOD8284945 Si02
#       8
#    32  32  32  32  16  16  32  16
#     4  10  20  38  57  86 119 160 205 253 304 372
#     4  11  23  38  59  91 129 174 217 256 309 379
#     4  10  20  36  57  84 119 158 209 257 307 361
#     4  10  21  41  65  89 118 155 206 259 318 385
#     4   9  20  36  56  82 114 157 206 259 305 356
#     4  12  23  38  62  94 133 173 211 260 321 384
#     4  11  23  39  61  90 127 168 208 255 309 370
#     4  10  20  37  67  98 116 159 208 257 322 387
#
# _framework density 19.900048999999999
#
# number of rings (size 3 to 8) (size 9 to 14) (size 15 to 20)
#    0.000    1.615    4.615    0.692    2.154    5.231 
#    1.385    1.538    0.000    0.923    2.000    0.000 
#    0.000    0.000    0.000    0.000    0.000    0.000 
#
# Total GULP energy -644372.238252 kJ/mol
# GULP energy per Si atom -12391.773813 kJ/mol
# Density = 1.985476 g / cm^3
# Si number density = 19.900049 Si / 1000 Ang^3
#
#
#
# Elastic Constant Matrix: (Units=GPa)
#
#
# Indices 1 2 3 4 5 6 
#
# 1 80.0154 26.9721 33.8316 0.0000 0.0000 0.0000
# 2 26.9721 163.4352 49.3233 0.0000 0.0000 0.0000
# 3 33.8316 49.3233 94.1481 0.0000 0.0000 0.0000
# 4 0.0000 0.0000 0.0000 29.0769 0.0000 0.0000
# 5 0.0000 0.0000 0.0000 0.0000 13.3527 0.0000
# 6 0.0000 0.0000 0.0000 0.0000 0.0000 5.5401
#
#
#
# Elastic Compliance Matrix: (Units=1/GPa)
#
#
# Indices 1 2 3 4 5 6 
#
# 1 0.014873 -0.001000 -0.004821 0.000000 0.000000 0.000000
# 2 -0.001000 0.007335 -0.003483 0.000000 0.000000 0.000000
# 3 -0.004821 -0.003483 0.014179 0.000000 0.000000 0.000000
# 4 0.000000 0.000000 0.000000 0.034392 0.000000 0.000000
# 5 0.000000 0.000000 0.000000 0.000000 0.074891 0.000000
# 6 0.000000 0.000000 0.000000 0.000000 0.000000 0.180502
#
#
# Mechanical properties :
#
#
# Convention : Reuss Voigt Hill
#
# Bulk Modulus (GPa) = 56.24669 61.98361 59.11515
# Shear Modulus (GPa) = 14.25699 24.75873 19.50786
#
# Velocity S-wave (km/s) = 2.67952 3.53108 3.13436
# Velocity P-wave (km/s) = 6.15622 6.91663 6.54748
#
# Compressibility (1/GPa) = 0.01777883
#
# Stress axis : x y z
#
# Youngs Moduli (GPa) = 67.23664 136.33482 70.52766
#
# Poissons Ratio (x) = 0.13628 0.34000
# Poissons Ratio (y) = 0.06721 0.24568
# Poissons Ratio (z) = 0.32413 0.47492
#
# Static dielectric constant tensor:
#      x y z
#    x 3.658790 0.000000 0.000000 
#    y 0.000000 4.298020 0.000000 
#    z 0.000000 0.000000 3.621560 
# 
# 
# High freq. dielectric constant tensor:
#      x y z
#    x 1.758180 0.000000 0.000000 
#    y 0.000000 1.796010 0.000000 
#    z 0.000000 0.000000 1.764810 
# 
# From -- ./inp_files/42164.got.cif
#   From: 2010.03.12/outbox.cif.g09.slc.cpg/sg69_22_cif.got.tgz:42164.got - 2010.04.10 23:52:46.
