data_PCOD8284138
_publ_section_title
;
Structure prediction by ZEFSAII (Michael W. Deem and Ramdas Pophale) SiO2 
 PCOD8284138
Probable space group: F M M M
;
_chemical_formula_sum "Si O2"
_cell_formula_units_Z 192
_cell_length_a 19.531707
_cell_length_b 30.352879
_cell_length_c 19.443143
_cell_angle_alpha 90.000000
_cell_angle_beta 90.000000
_cell_angle_gamma 90.000000
_cell_volume 11526.741710
_symmetry_space_group_name_H-M "F M M M"
_symmetry_group_IT_number 69
_symmetry_cell_setting 'orthorhombic'
loop_
_space_group_symop_operation_xyz
x,y,z
-x,-y,z
x,-y,-z
-x,y,-z
-x,-y,-z
x,y,-z
-x,y,z
x,-y,z
x,1/2+y,1/2+z
-x,1/2-y,1/2+z
x,1/2-y,1/2-z
-x,1/2+y,1/2-z
-x,1/2-y,1/2-z
x,1/2+y,1/2-z
-x,1/2+y,1/2+z
x,1/2-y,1/2+z
1/2+x,y,1/2+z
1/2-x,-y,1/2+z
1/2+x,-y,1/2-z
1/2-x,y,1/2-z
1/2-x,-y,1/2-z
1/2+x,y,1/2-z
1/2-x,y,1/2+z
1/2+x,-y,1/2+z
1/2+x,1/2+y,z
1/2-x,1/2-y,z
1/2+x,1/2-y,-z
1/2-x,1/2+y,-z
1/2-x,1/2-y,-z
1/2+x,1/2+y,-z
1/2-x,1/2+y,z
1/2+x,1/2-y,z
loop_
_atom_site_type_symbol
_atom_site_label
_atom_site_fract_x
_atom_site_fract_y
_atom_site_fract_z
Si Si1 0.249563 0.298441 0.861106
Si Si2 0.675580 0.449066 0.278680
Si Si3 0.921830 0.118218 0.796495
Si Si4 0.361987 0.298157 0.257310
Si Si5 0.328579 0.374474 0.923713
Si Si6 0.775736 0.550269 0.923942
O O1 0.250000 0.250000 0.896620
O O2 0.302616 0.299814 0.798864
O O3 0.173151 0.306809 0.831588
O O4 0.271170 0.336365 0.914085
O O5 0.660969 0.500000 0.261558
O O6 0.750000 0.434763 0.250000
O O7 0.618206 0.420243 0.242423
O O8 0.671983 0.439930 0.361203
O O9 0.917608 0.163678 0.753705
O O10 0.891670 0.127740 0.871804
O O11 0.000000 0.103398 0.803511
O O12 0.397631 0.250000 0.250000
O O13 0.292269 0.421306 0.914363
O O14 0.359233 0.369395 0.000000
O O15 0.750772 0.500000 0.917803
O O16 0.809232 0.559091 0.000000
#
# Coordination Sequence:
#
# PCOD8284138 Si02
#       6
#    32  32  32  32  32  32
#     4   8  14  26  46  71  93 117 155 206 252 287
#     4  10  19  33  54  75  96 126 161 202 245 284
#     4  11  22  32  47  71  99 132 166 202 240 287
#     4   8  15  28  47  69  94 122 155 202 253 293
#     4  10  19  30  45  66  97 133 164 198 240 287
#     4   9  17  30  51  77  98 119 154 197 242 289
#
# _framework density 16.656918000000001
#
# number of rings (size 3 to 8) (size 9 to 14) (size 15 to 20)
#    0.000    2.667    1.667    2.000    2.333    1.333 
#    0.000    0.000    0.000    0.500    0.000    5.833 
#    0.000    0.000    0.000    0.000    0.000    0.000 
#
# Total GULP energy -594882.268588 kJ/mol
# GULP energy per Si atom -12393.380596 kJ/mol
# Density = 1.661901 g / cm^3
# Si number density = 16.656918 Si / 1000 Ang^3
#
#
#
# Elastic Constant Matrix: (Units=GPa)
#
#
# Indices 1 2 3 4 5 6 
#
# 1 82.3540 47.3823 44.1818 0.0000 0.0000 0.0000
# 2 47.3823 97.0858 46.2435 0.0000 0.0000 0.0000
# 3 44.1818 46.2435 100.4998 0.0000 0.0000 0.0000
# 4 0.0000 0.0000 0.0000 14.3983 0.0000 0.0000
# 5 0.0000 0.0000 0.0000 0.0000 12.9266 0.0000
# 6 0.0000 0.0000 0.0000 0.0000 0.0000 14.0633
#
#
#
# Elastic Compliance Matrix: (Units=1/GPa)
#
#
# Indices 1 2 3 4 5 6 
#
# 1 0.018770 -0.006698 -0.005170 0.000000 0.000000 0.000000
# 2 -0.006698 0.015582 -0.004225 0.000000 0.000000 0.000000
# 3 -0.005170 -0.004225 0.014167 0.000000 0.000000 0.000000
# 4 0.000000 0.000000 0.000000 0.069453 0.000000 0.000000
# 5 0.000000 0.000000 0.000000 0.000000 0.077360 0.000000
# 6 0.000000 0.000000 0.000000 0.000000 0.000000 0.071107
#
#
# Mechanical properties :
#
#
# Convention : Reuss Voigt Hill
#
# Bulk Modulus (GPa) = 61.22574 61.72831 61.47703
# Shear Modulus (GPa) = 16.44368 17.75310 17.09839
#
# Velocity S-wave (km/s) = 3.14538 3.26822 3.20739
# Velocity P-wave (km/s) = 7.07304 7.16804 7.12070
#
# Compressibility (1/GPa) = 0.01633300
#
# Stress axis : x y z
#
# Youngs Moduli (GPa) = 53.27669 64.17803 70.58675
#
# Poissons Ratio (x) = 0.42988 0.36490
# Poissons Ratio (y) = 0.35686 0.29823
# Poissons Ratio (z) = 0.27542 0.27115
#
# Static dielectric constant tensor:
#      x y z
#    x 2.662970 0.000000 0.000000 
#    y 0.000000 3.469990 0.000000 
#    z 0.000000 0.000000 3.315820 
# 
# 
# High freq. dielectric constant tensor:
#      x y z
#    x 1.583960 0.000000 0.000000 
#    y 0.000000 1.662180 0.000000 
#    z 0.000000 0.000000 1.637880 
# 
# From -- ./inp_files/32128.got.cif
#   From: 2010.03.12/outbox.cif.g09.slc.cpg/sg69_17_cif.got.tgz:32128.got - 2010.04.10 23:52:46.
