data_PCOD8284553
_publ_section_title
;
Structure prediction by ZEFSAII (Michael W. Deem and Ramdas Pophale) SiO2 
 PCOD8284553
Probable space group: F M M M
;
_chemical_formula_sum "Si O2"
_cell_formula_units_Z 144
_cell_length_a 13.784058
_cell_length_b 30.052469
_cell_length_c 18.033491
_cell_angle_alpha 90.000000
_cell_angle_beta 90.000000
_cell_angle_gamma 90.000000
_cell_volume 7470.283042
_symmetry_space_group_name_H-M "F M M M"
_symmetry_group_IT_number 69
_symmetry_cell_setting 'orthorhombic'
loop_
_space_group_symop_operation_xyz
x,y,z
-x,-y,z
x,-y,-z
-x,y,-z
-x,-y,-z
x,y,-z
-x,y,z
x,-y,z
x,1/2+y,1/2+z
-x,1/2-y,1/2+z
x,1/2-y,1/2-z
-x,1/2+y,1/2-z
-x,1/2-y,1/2-z
x,1/2+y,1/2-z
-x,1/2+y,1/2+z
x,1/2-y,1/2+z
1/2+x,y,1/2+z
1/2-x,-y,1/2+z
1/2+x,-y,1/2-z
1/2-x,y,1/2-z
1/2-x,-y,1/2-z
1/2+x,y,1/2-z
1/2-x,y,1/2+z
1/2+x,-y,1/2+z
1/2+x,1/2+y,z
1/2-x,1/2-y,z
1/2+x,1/2-y,-z
1/2-x,1/2+y,-z
1/2-x,1/2-y,-z
1/2+x,1/2+y,-z
1/2-x,1/2+y,z
1/2+x,1/2-y,z
loop_
_atom_site_type_symbol
_atom_site_label
_atom_site_fract_x
_atom_site_fract_y
_atom_site_fract_z
Si Si1 0.814643 0.373870 0.415598
Si Si2 0.000000 0.140084 0.818471
Si Si3 0.788653 0.948731 0.669789
Si Si4 0.500000 0.815607 0.829077
Si Si5 0.000000 0.414460 0.817916
Si Si6 0.680843 0.290181 0.415436
O O1 0.849032 0.378713 0.500000
O O2 0.770130 0.420701 0.390497
O O3 0.732879 0.337068 0.405741
O O4 0.905671 0.357909 0.368539
O O5 0.000000 0.182128 0.761054
O O6 0.000000 0.094243 0.770987
O O7 0.750000 0.933145 0.750000
O O8 0.904139 0.941910 0.660882
O O9 0.763842 0.000000 0.655380
O O10 0.500000 0.866656 0.860417
O O11 0.592198 0.788858 0.858670
O O12 0.644312 0.283792 0.500000
O O13 0.750000 0.250000 0.392146
#
# Coordination Sequence:
#
# PCOD8284553 Si02
#       6
#    32  16  32  16  16  32
#     4  11  22  40  61  86 125 166 203 259 319 371
#     4  10  21  37  63  87 120 160 212 257 308 377
#     4  11  21  37  63  91 123 163 208 258 311 373
#     4  10  19  37  67  86 123 161 203 264 311 360
#     4  10  19  36  64  88 125 153 202 260 307 364
#     4  10  22  39  62  90 121 162 207 252 313 379
#
# _framework density 19.276378000000001
#
# number of rings (size 3 to 8) (size 9 to 14) (size 15 to 20)
#    0.667    0.889    4.444    1.000    0.000    1.333 
#    0.000    7.778    0.000    2.667    0.000    0.000 
#    0.000    0.000    0.000    0.000    0.000    0.000 
#
# Total GULP energy -446410.379936 kJ/mol
# GULP energy per Si atom -12400.288332 kJ/mol
# Density = 1.923250 g / cm^3
# Si number density = 19.276378 Si / 1000 Ang^3
#
#
#
# Elastic Constant Matrix: (Units=GPa)
#
#
# Indices 1 2 3 4 5 6 
#
# 1 138.2384 31.1327 78.6135 0.0000 0.0000 0.0000
# 2 31.1327 86.9545 43.5074 0.0000 0.0000 0.0000
# 3 78.6135 43.5074 127.9624 0.0000 0.0000 0.0000
# 4 0.0000 0.0000 0.0000 30.1792 0.0000 0.0000
# 5 0.0000 0.0000 0.0000 0.0000 33.5580 0.0000
# 6 0.0000 0.0000 0.0000 0.0000 0.0000 32.5332
#
#
#
# Elastic Compliance Matrix: (Units=1/GPa)
#
#
# Indices 1 2 3 4 5 6 
#
# 1 0.011152 -0.000681 -0.006620 0.000000 0.000000 0.000000
# 2 -0.000681 0.013899 -0.004308 0.000000 0.000000 0.000000
# 3 -0.006620 -0.004308 0.013346 0.000000 0.000000 0.000000
# 4 0.000000 0.000000 0.000000 0.033135 0.000000 0.000000
# 5 0.000000 0.000000 0.000000 0.000000 0.029799 0.000000
# 6 0.000000 0.000000 0.000000 0.000000 0.000000 0.030738
#
#
# Mechanical properties :
#
#
# Convention : Reuss Voigt Hill
#
# Bulk Modulus (GPa) = 65.87017 73.29583 69.58300
# Shear Modulus (GPa) = 31.18270 32.58087 31.88179
#
# Velocity S-wave (km/s) = 4.02638 4.11566 4.07127
# Velocity P-wave (km/s) = 7.47404 7.79045 7.63388
#
# Compressibility (1/GPa) = 0.01518138
#
# Stress axis : x y z
#
# Youngs Moduli (GPa) = 89.67353 71.94622 74.92814
#
# Poissons Ratio (x) = 0.04896 0.49599
# Poissons Ratio (y) = 0.06103 0.32277
# Poissons Ratio (z) = 0.59360 0.30992
#
# Static dielectric constant tensor:
#      x y z
#    x 3.498560 0.000000 0.000000 
#    y 0.000000 3.370500 0.000000 
#    z 0.000000 0.000000 3.472260 
# 
# 
# High freq. dielectric constant tensor:
#      x y z
#    x 1.758530 0.000000 0.000000 
#    y 0.000000 1.744910 0.000000 
#    z 0.000000 0.000000 1.740890 
# 
# From -- ./inp_files/21833.got.cif
#   From: 2010.03.12/outbox.cif.g09.slc.cpg/sg69_11_cif.got.tgz:21833.got - 2010.04.10 23:52:46.
