data_PCOD8284458
_publ_section_title
;
Structure prediction by ZEFSAII (Michael W. Deem and Ramdas Pophale) SiO2 
 PCOD8284458
Probable space group: F M M M
;
_chemical_formula_sum "Si O2"
_cell_formula_units_Z 128
_cell_length_a 22.948564
_cell_length_b 18.567921
_cell_length_c 14.770161
_cell_angle_alpha 90.000000
_cell_angle_beta 90.000000
_cell_angle_gamma 90.000000
_cell_volume 6293.670816
_symmetry_space_group_name_H-M "F M M M"
_symmetry_group_IT_number 69
_symmetry_cell_setting 'orthorhombic'
loop_
_space_group_symop_operation_xyz
x,y,z
-x,-y,z
x,-y,-z
-x,y,-z
-x,-y,-z
x,y,-z
-x,y,z
x,-y,z
x,1/2+y,1/2+z
-x,1/2-y,1/2+z
x,1/2-y,1/2-z
-x,1/2+y,1/2-z
-x,1/2-y,1/2-z
x,1/2+y,1/2-z
-x,1/2+y,1/2+z
x,1/2-y,1/2+z
1/2+x,y,1/2+z
1/2-x,-y,1/2+z
1/2+x,-y,1/2-z
1/2-x,y,1/2-z
1/2-x,-y,1/2-z
1/2+x,y,1/2-z
1/2-x,y,1/2+z
1/2+x,-y,1/2+z
1/2+x,1/2+y,z
1/2-x,1/2-y,z
1/2+x,1/2-y,-z
1/2-x,1/2+y,-z
1/2-x,1/2-y,-z
1/2+x,1/2+y,-z
1/2-x,1/2+y,z
1/2+x,1/2-y,z
loop_
_atom_site_type_symbol
_atom_site_label
_atom_site_fract_x
_atom_site_fract_y
_atom_site_fract_z
Si Si1 0.432163 0.000000 0.234871
Si Si2 0.168075 0.269768 0.101113
Si Si3 0.342769 0.500000 0.900274
Si Si4 0.729007 0.864449 0.653640
Si Si5 0.566548 0.130568 0.896031
O O1 0.416418 0.067968 0.173147
O O2 0.500000 0.000000 0.263427
O O3 0.393057 0.000000 0.324768
O O4 0.215021 0.334777 0.099798
O O5 0.184557 0.203333 0.166906
O O6 0.105314 0.300412 0.129422
O O7 0.165625 0.237407 0.000000
O O8 0.301849 0.430086 0.896021
O O9 0.372277 0.500000 0.000000
O O10 0.750000 0.893303 0.750000
O O11 0.500000 0.154124 0.883478
O O12 0.578184 0.105368 0.000000
#
# Coordination Sequence:
#
# PCOD8284458 Si02
#       5
#    16  32  16  32  32
#     4  10  21  38  58  82 115 153 193 237 288 341
#     4  10  19  34  56  84 117 148 181 223 281 345
#     4  12  25  41  59  81 111 149 198 245 287 339
#     4  11  22  37  57  81 111 147 186 233 287 341
#     4   9  18  34  59  90 121 152 188 233 284 340
#
# _framework density 20.337892
#
# number of rings (size 3 to 8) (size 9 to 14) (size 15 to 20)
#    0.000    1.750    0.000    6.750    0.000    2.750 
#    0.000    2.500    0.000    9.000    0.000    0.000 
#    0.000    0.000    0.000    0.000    0.000    0.000 
#
# Total GULP energy -396749.748486 kJ/mol
# GULP energy per Si atom -12398.429640 kJ/mol
# Density = 2.029160 g / cm^3
# Si number density = 20.337892 Si / 1000 Ang^3
#
#
#
# Elastic Constant Matrix: (Units=GPa)
#
#
# Indices 1 2 3 4 5 6 
#
# 1 106.3242 62.3120 45.6205 0.0000 0.0000 0.0000
# 2 62.3120 101.6367 34.6910 0.0000 0.0000 0.0000
# 3 45.6205 34.6910 105.0417 0.0000 0.0000 0.0000
# 4 0.0000 0.0000 0.0000 44.2813 0.0000 0.0000
# 5 0.0000 0.0000 0.0000 0.0000 37.5586 0.0000
# 6 0.0000 0.0000 0.0000 0.0000 0.0000 30.1070
#
#
#
# Elastic Compliance Matrix: (Units=1/GPa)
#
#
# Indices 1 2 3 4 5 6 
#
# 1 0.016192 -0.008483 -0.004231 0.000000 0.000000 0.000000
# 2 -0.008483 0.015533 -0.001446 0.000000 0.000000 0.000000
# 3 -0.004231 -0.001446 0.011835 0.000000 0.000000 0.000000
# 4 0.000000 0.000000 0.000000 0.022583 0.000000 0.000000
# 5 0.000000 0.000000 0.000000 0.000000 0.026625 0.000000
# 6 0.000000 0.000000 0.000000 0.000000 0.000000 0.033215
#
#
# Mechanical properties :
#
#
# Convention : Reuss Voigt Hill
#
# Bulk Modulus (GPa) = 65.61170 66.47218 66.04194
# Shear Modulus (GPa) = 31.37107 33.74797 32.55952
#
# Velocity S-wave (km/s) = 3.93172 4.07795 4.00550
# Velocity P-wave (km/s) = 7.27613 7.41133 7.34404
#
# Compressibility (1/GPa) = 0.01524118
#
# Stress axis : x y z
#
# Youngs Moduli (GPa) = 61.75881 64.37802 84.49548
#
# Poissons Ratio (x) = 0.54612 0.35748
# Poissons Ratio (y) = 0.52390 0.12216
# Poissons Ratio (z) = 0.26129 0.09307
#
# Static dielectric constant tensor:
#      x y z
#    x 3.726700 0.000000 0.000000 
#    y 0.000000 3.539940 0.000000 
#    z 0.000000 0.000000 3.658540 
# 
# 
# High freq. dielectric constant tensor:
#      x y z
#    x 1.790890 0.000000 0.000000 
#    y 0.000000 1.784190 0.000000 
#    z 0.000000 0.000000 1.800410 
# 
# From -- ./inp_files/18626.got.cif
#   From: 2010.03.12/outbox.cif.g09.slc.cpg/sg69_10_cif.got.tgz:18626.got - 2010.04.10 23:52:46.
