data_PCOD8284423
_publ_section_title
;
Structure prediction by ZEFSAII (Michael W. Deem and Ramdas Pophale) SiO2 
 PCOD8284423
Probable space group: F M M M
;
_chemical_formula_sum "Si O2"
_cell_formula_units_Z 240
_cell_length_a 21.645949
_cell_length_b 22.984782
_cell_length_c 26.842174
_cell_angle_alpha 90.000000
_cell_angle_beta 90.000000
_cell_angle_gamma 90.000000
_cell_volume 13354.717549
_symmetry_space_group_name_H-M "F M M M"
_symmetry_group_IT_number 69
_symmetry_cell_setting 'orthorhombic'
loop_
_space_group_symop_operation_xyz
x,y,z
-x,-y,z
x,-y,-z
-x,y,-z
-x,-y,-z
x,y,-z
-x,y,z
x,-y,z
x,1/2+y,1/2+z
-x,1/2-y,1/2+z
x,1/2-y,1/2-z
-x,1/2+y,1/2-z
-x,1/2-y,1/2-z
x,1/2+y,1/2-z
-x,1/2+y,1/2+z
x,1/2-y,1/2+z
1/2+x,y,1/2+z
1/2-x,-y,1/2+z
1/2+x,-y,1/2-z
1/2-x,y,1/2-z
1/2-x,-y,1/2-z
1/2+x,y,1/2-z
1/2-x,y,1/2+z
1/2+x,-y,1/2+z
1/2+x,1/2+y,z
1/2-x,1/2-y,z
1/2+x,1/2-y,-z
1/2-x,1/2+y,-z
1/2-x,1/2-y,-z
1/2+x,1/2+y,-z
1/2-x,1/2+y,z
1/2+x,1/2-y,z
loop_
_atom_site_type_symbol
_atom_site_label
_atom_site_fract_x
_atom_site_fract_y
_atom_site_fract_z
Si Si1 0.153288 0.630845 0.442632
Si Si2 0.069077 0.569361 0.739489
Si Si3 0.804236 0.431211 0.785717
Si Si4 0.182779 0.259617 0.057217
Si Si5 0.232022 0.433003 0.103327
Si Si6 0.500000 0.433768 0.559649
Si Si7 0.122446 0.624918 0.057926
Si Si8 0.428620 0.436372 0.128350
O O1 0.155444 0.610657 0.500000
O O2 0.144884 0.700152 0.438430
O O3 0.214173 0.609012 0.414863
O O4 0.094568 0.604975 0.415239
O O5 0.066733 0.500000 0.739952
O O6 0.126537 0.593206 0.772718
O O7 0.083734 0.590404 0.683081
O O8 0.000000 0.592081 0.756400
O O9 0.806620 0.500000 0.779272
O O10 0.750000 0.405809 0.750000
O O11 0.787641 0.413016 0.841565
O O12 0.250000 0.250000 0.082786
O O13 0.144348 0.313071 0.081949
O O14 0.194817 0.277891 0.000000
O O15 0.253359 0.500000 0.101637
O O16 0.174002 0.424132 0.067053
O O17 0.500000 0.500000 0.580431
O O18 0.500000 0.435809 0.500000
O O19 0.441072 0.399008 0.581654
O O20 0.110434 0.633301 0.000000
O O21 0.500000 0.444179 0.119001
O O22 0.396213 0.500000 0.124301
#
# Coordination Sequence:
#
# PCOD8284423 Si02
#       8
#    32  32  32  32  32  16  32  32
#     4  11  21  32  48  71 100 134 172 209 245 293
#     4   8  14  28  49  68  91 128 166 198 243 305
#     4   9  17  29  44  66  97 127 158 200 247 295
#     4   9  17  33  52  67  88 125 171 215 251 280
#     4  11  21  30  46  75 102 129 163 201 252 307
#     4   9  18  32  50  72 100 136 166 193 245 309
#     4  10  19  34  52  70  98 133 169 206 246 295
#     4   9  18  32  49  72 103 135 164 197 246 307
#
# _framework density 17.971177999999998
#
# number of rings (size 3 to 8) (size 9 to 14) (size 15 to 20)
#    0.000    2.467    1.333    2.800    0.000    4.800 
#    2.400    0.667    0.000    0.000    0.000    6.533 
#    0.000    2.133    0.000    0.000    0.000    0.000 
#
# Total GULP energy -743568.425352 kJ/mol
# GULP energy per Si atom -12392.807089 kJ/mol
# Density = 1.793027 g / cm^3
# Si number density = 17.971178 Si / 1000 Ang^3
#
#
#
# Elastic Constant Matrix: (Units=GPa)
#
#
# Indices 1 2 3 4 5 6 
#
# 1 94.4650 31.6854 26.4810 0.0000 0.0000 0.0000
# 2 31.6854 67.3459 19.1605 0.0000 0.0000 0.0000
# 3 26.4810 19.1605 55.9489 0.0000 0.0000 0.0000
# 4 0.0000 0.0000 0.0000 1.5020 0.0000 0.0000
# 5 0.0000 0.0000 0.0000 0.0000 29.3126 0.0000
# 6 0.0000 0.0000 0.0000 0.0000 0.0000 21.9046
#
#
#
# Elastic Compliance Matrix: (Units=1/GPa)
#
#
# Indices 1 2 3 4 5 6 
#
# 1 0.013602 -0.005061 -0.004705 0.000000 0.000000 0.000000
# 2 -0.005061 0.018335 -0.003884 0.000000 0.000000 0.000000
# 3 -0.004705 -0.003884 0.021430 0.000000 0.000000 0.000000
# 4 0.000000 0.000000 0.000000 0.665763 0.000000 0.000000
# 5 0.000000 0.000000 0.000000 0.000000 0.034115 0.000000
# 6 0.000000 0.000000 0.000000 0.000000 0.000000 0.045652
#
#
# Mechanical properties :
#
#
# Convention : Reuss Voigt Hill
#
# Bulk Modulus (GPa) = 38.36064 41.37928 39.86996
# Shear Modulus (GPa) = 5.98884 19.90606 12.94745
#
# Velocity S-wave (km/s) = 1.82749 3.33177 2.68704
# Velocity P-wave (km/s) = 5.08379 6.15437 5.64452
#
# Compressibility (1/GPa) = 0.02606838
#
# Stress axis : x y z
#
# Youngs Moduli (GPa) = 73.51618 54.54097 46.66305
#
# Poissons Ratio (x) = 0.27604 0.21954
# Poissons Ratio (y) = 0.37208 0.18122
# Poissons Ratio (z) = 0.34588 0.21181
#
# Static dielectric constant tensor:
#      x y z
#    x 3.671700 0.000000 0.000000 
#    y 0.000000 3.247360 0.000000 
#    z 0.000000 0.000000 3.190980 
# 
# 
# High freq. dielectric constant tensor:
#      x y z
#    x 1.707830 0.000000 0.000000 
#    y 0.000000 1.658870 0.000000 
#    z 0.000000 0.000000 1.669790 
# 
# From -- ./inp_files/46825.got.cif
#   From: 2010.03.12/outbox.cif.g09.slc.cpg/sg69_24_cif.got.tgz:46825.got - 2010.04.10 23:52:46.
