data_PCOD8284892
_publ_section_title
;
Structure prediction by ZEFSAII (Michael W. Deem and Ramdas Pophale) SiO2 
 PCOD8284892
Probable space group: F M M M
;
_chemical_formula_sum "Si O2"
_cell_formula_units_Z 176
_cell_length_a 26.704807
_cell_length_b 18.851461
_cell_length_c 16.978565
_cell_angle_alpha 90.000000
_cell_angle_beta 90.000000
_cell_angle_gamma 90.000000
_cell_volume 8547.427764
_symmetry_space_group_name_H-M "F M M M"
_symmetry_group_IT_number 69
_symmetry_cell_setting 'orthorhombic'
loop_
_space_group_symop_operation_xyz
x,y,z
-x,-y,z
x,-y,-z
-x,y,-z
-x,-y,-z
x,y,-z
-x,y,z
x,-y,z
x,1/2+y,1/2+z
-x,1/2-y,1/2+z
x,1/2-y,1/2-z
-x,1/2+y,1/2-z
-x,1/2-y,1/2-z
x,1/2+y,1/2-z
-x,1/2+y,1/2+z
x,1/2-y,1/2+z
1/2+x,y,1/2+z
1/2-x,-y,1/2+z
1/2+x,-y,1/2-z
1/2-x,y,1/2-z
1/2-x,-y,1/2-z
1/2+x,y,1/2-z
1/2-x,y,1/2+z
1/2+x,-y,1/2+z
1/2+x,1/2+y,z
1/2-x,1/2-y,z
1/2+x,1/2-y,-z
1/2-x,1/2+y,-z
1/2-x,1/2-y,-z
1/2+x,1/2+y,-z
1/2-x,1/2+y,z
1/2+x,1/2-y,z
loop_
_atom_site_type_symbol
_atom_site_label
_atom_site_fract_x
_atom_site_fract_y
_atom_site_fract_z
Si Si1 0.228752 0.321952 0.663413
Si Si2 0.500000 0.919139 0.094013
Si Si3 0.900675 0.153728 0.409165
Si Si4 0.113173 0.706376 0.669416
Si Si5 0.059151 0.580551 0.589643
Si Si6 0.302932 0.078350 0.907355
O O1 0.250000 0.330763 0.750000
O O2 0.250000 0.250000 0.624528
O O3 0.169456 0.321347 0.665159
O O4 0.249536 0.386691 0.612077
O O5 0.450643 0.880469 0.129181
O O6 0.500000 0.000000 0.123342
O O7 0.500000 0.914406 0.000000
O O8 0.901149 0.133818 0.500000
O O9 0.899560 0.238317 0.399679
O O10 0.850227 0.120957 0.369843
O O11 0.101641 0.750000 0.750000
O O12 0.080453 0.636119 0.654076
O O13 0.077139 0.598243 0.500000
O O14 0.075974 0.500000 0.611413
O O15 0.000000 0.586432 0.593844
O O16 0.303550 0.000000 0.870486
O O17 0.309005 0.075098 0.000000
#
# Coordination Sequence:
#
# PCOD8284892 Si02
#       6
#    32  16  32  32  32  32
#     4  11  21  41  59  79 114 160 205 240 293 361
#     4   9  18  34  55  78 111 151 191 234 282 358
#     4  10  20  35  57  85 115 156 201 246 306 368
#     4  12  23  38  63  91 123 158 203 259 309 368
#     4   9  21  44  70  94 125 166 209 256 311 369
#     4  10  21  36  57  87 119 151 195 253 309 361
#
# _framework density 20.590990000000001
#
# number of rings (size 3 to 8) (size 9 to 14) (size 15 to 20)
#    0.000    1.727    3.636    1.636    1.273    5.455 
#    0.000    5.455    0.000    0.000    0.000    0.000 
#    0.000    0.000    0.000    0.000    0.000    0.000 
#
# Total GULP energy -545422.625478 kJ/mol
# GULP energy per Si atom -12395.968761 kJ/mol
# Density = 2.054412 g / cm^3
# Si number density = 20.590990 Si / 1000 Ang^3
#
#
#
# Elastic Constant Matrix: (Units=GPa)
#
#
# Indices 1 2 3 4 5 6 
#
# 1 116.7394 72.5185 36.6682 0.0000 0.0000 0.0000
# 2 72.5185 167.8523 37.8987 0.0000 0.0000 0.0000
# 3 36.6682 37.8987 37.9079 0.0000 0.0000 0.0000
# 4 0.0000 0.0000 0.0000 35.1610 0.0000 0.0000
# 5 0.0000 0.0000 0.0000 0.0000 25.7732 0.0000
# 6 0.0000 0.0000 0.0000 0.0000 0.0000 26.5530
#
#
#
# Elastic Compliance Matrix: (Units=1/GPa)
#
#
# Indices 1 2 3 4 5 6 
#
# 1 0.014010 -0.003866 -0.009687 0.000000 0.000000 0.000000
# 2 -0.003866 0.008761 -0.005020 0.000000 0.000000 0.000000
# 3 -0.009687 -0.005020 0.040769 0.000000 0.000000 0.000000
# 4 0.000000 0.000000 0.000000 0.028441 0.000000 0.000000
# 5 0.000000 0.000000 0.000000 0.000000 0.038800 0.000000
# 6 0.000000 0.000000 0.000000 0.000000 0.000000 0.037661
#
#
# Mechanical properties :
#
#
# Convention : Reuss Voigt Hill
#
# Bulk Modulus (GPa) = 37.88648 68.51893 53.20271
# Shear Modulus (GPa) = 23.32252 29.19172 26.25712
#
# Velocity S-wave (km/s) = 3.36915 3.76931 3.57483
# Velocity P-wave (km/s) = 5.79434 7.23132 6.55234
#
# Compressibility (1/GPa) = 0.02639464
#
# Stress axis : x y z
#
# Youngs Moduli (GPa) = 71.37617 114.14054 24.52860
#
# Poissons Ratio (x) = 0.44123 0.23762
# Poissons Ratio (y) = 0.27592 0.12313
# Poissons Ratio (z) = 0.69144 0.57295
#
# Static dielectric constant tensor:
#      x y z
#    x 3.613410 0.000000 0.000000 
#    y 0.000000 3.987510 0.000000 
#    z 0.000000 0.000000 3.474560 
# 
# 
# High freq. dielectric constant tensor:
#      x y z
#    x 1.810500 0.000000 0.000000 
#    y 0.000000 1.815780 0.000000 
#    z 0.000000 0.000000 1.774540 
# 
# From -- ./inp_files/26721.got.cif
#   From: 2010.03.12/outbox.cif.g09.slc.cpg/sg69_14_cif.got.tgz:26721.got - 2010.04.10 23:52:46.
