data_PCOD8284621
_publ_section_title
;
Structure prediction by ZEFSAII (Michael W. Deem and Ramdas Pophale) SiO2 
 PCOD8284621
Probable space group: F M M M
;
_chemical_formula_sum "Si O2"
_cell_formula_units_Z 144
_cell_length_a 32.106298
_cell_length_b 26.315979
_cell_length_c 9.097654
_cell_angle_alpha 90.000000
_cell_angle_beta 90.000000
_cell_angle_gamma 90.000000
_cell_volume 7686.686686
_symmetry_space_group_name_H-M "F M M M"
_symmetry_group_IT_number 69
_symmetry_cell_setting 'orthorhombic'
loop_
_space_group_symop_operation_xyz
x,y,z
-x,-y,z
x,-y,-z
-x,y,-z
-x,-y,-z
x,y,-z
-x,y,z
x,-y,z
x,1/2+y,1/2+z
-x,1/2-y,1/2+z
x,1/2-y,1/2-z
-x,1/2+y,1/2-z
-x,1/2-y,1/2-z
x,1/2+y,1/2-z
-x,1/2+y,1/2+z
x,1/2-y,1/2+z
1/2+x,y,1/2+z
1/2-x,-y,1/2+z
1/2+x,-y,1/2-z
1/2-x,y,1/2-z
1/2-x,-y,1/2-z
1/2+x,y,1/2-z
1/2-x,y,1/2+z
1/2+x,-y,1/2+z
1/2+x,1/2+y,z
1/2-x,1/2-y,z
1/2+x,1/2-y,-z
1/2-x,1/2+y,-z
1/2-x,1/2-y,-z
1/2+x,1/2+y,-z
1/2-x,1/2+y,z
1/2+x,1/2-y,z
loop_
_atom_site_type_symbol
_atom_site_label
_atom_site_fract_x
_atom_site_fract_y
_atom_site_fract_z
Si Si1 0.250000 0.619171 0.750000
Si Si2 0.190397 0.297291 0.664085
Si Si3 0.173902 0.055312 0.334359
Si Si4 0.952000 0.802926 0.829115
Si Si5 0.619769 0.146059 0.176309
O O1 0.222697 0.655984 0.646581
O O2 0.218818 0.582599 0.837581
O O3 0.176977 0.281297 0.500000
O O4 0.211490 0.250000 0.750000
O O5 0.149877 0.310547 0.760522
O O6 0.161095 0.045154 0.500000
O O7 0.138213 0.091866 0.267155
O O8 0.175283 0.000000 0.252421
O O9 0.942179 0.750000 0.750000
O O10 0.925593 0.846876 0.748309
O O11 0.000000 0.818295 0.810203
O O12 0.939666 0.798384 0.000000
O O13 0.617923 0.149723 0.000000
#
# Coordination Sequence:
#
# PCOD8284621 Si02
#       5
#    16  32  32  32  32
#     4  10  20  32  50  72  98 130 170 214 260 304
#     4  11  22  34  49  70 101 138 174 211 252 302
#     4   9  18  33  52  73  97 127 167 214 259 301
#     4  10  20  34  54  80 109 138 167 201 243 294
#     4  10  20  34  53  76 103 135 170 208 251 299
#
# _framework density 18.733689999999999
#
# number of rings (size 3 to 8) (size 9 to 14) (size 15 to 20)
#    0.000    2.000    0.000    4.000    0.000    4.889 
#    0.000    0.000    0.000   14.000    0.000    4.667 
#    0.000    0.000    0.000    0.000    0.000    0.000 
#
# Total GULP energy -446142.794652 kJ/mol
# GULP energy per Si atom -12392.855407 kJ/mol
# Density = 1.869105 g / cm^3
# Si number density = 18.733690 Si / 1000 Ang^3
#
#
#
# Elastic Constant Matrix: (Units=GPa)
#
#
# Indices 1 2 3 4 5 6 
#
# 1 112.0817 61.1803 44.1460 -0.0012 -0.0001 0.0005
# 2 61.1803 132.6007 45.9510 -0.0151 0.0046 0.0059
# 3 44.1460 45.9510 114.2565 -0.0323 0.0085 0.0130
# 4 -0.0012 -0.0151 -0.0323 17.1211 0.0066 0.0115
# 5 -0.0001 0.0046 0.0085 0.0066 23.5154 -0.0027
# 6 0.0005 0.0059 0.0130 0.0115 -0.0027 16.0744
#
#
#
# Elastic Compliance Matrix: (Units=1/GPa)
#
#
# Indices 1 2 3 4 5 6 
#
# 1 0.012739 -0.004847 -0.002972 -0.000009 0.000002 0.000004
# 2 -0.004847 0.010607 -0.002393 0.000004 -0.000001 -0.000002
# 3 -0.002972 -0.002393 0.010863 0.000018 -0.000003 -0.000008
# 4 -0.000009 0.000004 0.000018 0.058408 -0.000016 -0.000042
# 5 0.000002 -0.000001 -0.000003 -0.000016 0.042525 0.000007
# 6 0.000004 -0.000002 -0.000008 -0.000042 0.000007 0.062211
#
#
# Mechanical properties :
#
#
# Convention : Reuss Voigt Hill
#
# Bulk Modulus (GPa) = 72.55133 73.49929 73.02531
# Shear Modulus (GPa) = 22.48472 25.18629 23.83550
#
# Velocity S-wave (km/s) = 3.46819 3.67064 3.57085
# Velocity P-wave (km/s) = 7.40605 7.56860 7.48777
#
# Compressibility (1/GPa) = 0.01378335
#
# Stress axis : x y z
#
# Youngs Moduli (GPa) = 78.50000 94.27491 92.05440
#
# Poissons Ratio (x) = 0.45700 0.27363
# Poissons Ratio (y) = 0.38053 0.22029
# Poissons Ratio (z) = 0.23334 0.22560
#
# Static dielectric constant tensor:
#      x y z
#    x 3.389810 0.000000 0.000000 
#    y 0.000000 3.791710 0.000000 
#    z 0.000000 0.000000 3.291420 
# 
# 
# High freq. dielectric constant tensor:
#      x y z
#    x 1.719040 0.000000 0.000000 
#    y 0.000000 1.719680 0.000000 
#    z 0.000000 0.000000 1.719390 
# 
# From -- ./inp_files/5608.got.cif
#   From: 2010.03.12/outbox.cif.g09.slc.cpg/sg69_3_cif.got.tgz:5608.got - 2010.04.10 23:52:46.
