data_PCOD8284594
_publ_section_title
;
Structure prediction by ZEFSAII (Michael W. Deem and Ramdas Pophale) SiO2 
 PCOD8284594
Probable space group: F M M M
;
_chemical_formula_sum "Si O2"
_cell_formula_units_Z 144
_cell_length_a 8.921592
_cell_length_b 26.119466
_cell_length_c 34.518956
_cell_angle_alpha 90.000000
_cell_angle_beta 90.000000
_cell_angle_gamma 90.000000
_cell_volume 8043.856316
_symmetry_space_group_name_H-M "F M M M"
_symmetry_group_IT_number 69
_symmetry_cell_setting 'orthorhombic'
loop_
_space_group_symop_operation_xyz
x,y,z
-x,-y,z
x,-y,-z
-x,y,-z
-x,-y,-z
x,y,-z
-x,y,z
x,-y,z
x,1/2+y,1/2+z
-x,1/2-y,1/2+z
x,1/2-y,1/2-z
-x,1/2+y,1/2-z
-x,1/2-y,1/2-z
x,1/2+y,1/2-z
-x,1/2+y,1/2+z
x,1/2-y,1/2+z
1/2+x,y,1/2+z
1/2-x,-y,1/2+z
1/2+x,-y,1/2-z
1/2-x,y,1/2-z
1/2-x,-y,1/2-z
1/2+x,y,1/2-z
1/2-x,y,1/2+z
1/2+x,-y,1/2+z
1/2+x,1/2+y,z
1/2-x,1/2-y,z
1/2+x,1/2-y,-z
1/2-x,1/2+y,-z
1/2-x,1/2-y,-z
1/2+x,1/2+y,-z
1/2-x,1/2+y,z
1/2+x,1/2-y,z
loop_
_atom_site_type_symbol
_atom_site_label
_atom_site_fract_x
_atom_site_fract_y
_atom_site_fract_z
Si Si1 0.662904 0.441827 0.214798
Si Si2 0.824787 0.606006 0.849526
Si Si3 0.167743 0.939528 0.500000
Si Si4 0.677333 0.440701 0.078646
Si Si5 0.177803 0.196516 0.709193
O O1 0.500000 0.415136 0.208844
O O2 0.634894 0.500000 0.226322
O O3 0.750000 0.413702 0.250000
O O4 0.763507 0.440438 0.176463
O O5 0.742257 0.599877 0.890468
O O6 0.782900 0.657394 0.825716
O O7 0.000000 0.600619 0.856730
O O8 0.257418 0.921429 0.462172
O O9 0.000000 0.915901 0.500000
O O10 0.157871 0.000000 0.500000
O O11 0.500000 0.435776 0.077672
O O12 0.724043 0.500000 0.087460
O O13 0.250000 0.178676 0.750000
O O14 0.250000 0.250000 0.696163
O O15 0.000000 0.201936 0.714622
#
# Coordination Sequence:
#
# PCOD8284594 Si02
#       5
#    32  32  16  32  32
#     4  10  20  32  45  63  90 126 164 198 235 282
#     4  11  22  33  48  72  98 126 162 203 247 293
#     4   9  17  31  51  73 100 135 170 205 245 287
#     4  10  20  33  50  74 104 137 171 205 242 288
#     4  10  21  36  54  74  96 125 163 207 254 302
#
# _framework density 17.901862000000001
#
# number of rings (size 3 to 8) (size 9 to 14) (size 15 to 20)
#    0.000    1.889    0.000    5.000    0.000   12.000 
#    0.000    0.000    0.000    0.000    0.000    0.778 
#    0.000    0.000    0.000    0.000    0.000    0.000 
#
# Total GULP energy -446184.914458 kJ/mol
# GULP energy per Si atom -12394.025402 kJ/mol
# Density = 1.786112 g / cm^3
# Si number density = 17.901862 Si / 1000 Ang^3
#
#
#
# Elastic Constant Matrix: (Units=GPa)
#
#
# Indices 1 2 3 4 5 6 
#
# 1 124.1087 46.6725 71.3299 0.0000 0.0000 0.0000
# 2 46.6725 64.3599 45.9842 0.0000 0.0000 0.0000
# 3 71.3299 45.9842 164.1359 0.0000 0.0000 0.0000
# 4 0.0000 0.0000 0.0000 21.1471 0.0000 0.0000
# 5 0.0000 0.0000 0.0000 0.0000 38.2192 0.0000
# 6 0.0000 0.0000 0.0000 0.0000 0.0000 22.0359
#
#
#
# Elastic Compliance Matrix: (Units=1/GPa)
#
#
# Indices 1 2 3 4 5 6 
#
# 1 0.012615 -0.006540 -0.003650 0.000000 0.000000 0.000000
# 2 -0.006540 0.022817 -0.003550 0.000000 0.000000 0.000000
# 3 -0.003650 -0.003550 0.008673 0.000000 0.000000 0.000000
# 4 0.000000 0.000000 0.000000 0.047288 0.000000 0.000000
# 5 0.000000 0.000000 0.000000 0.000000 0.026165 0.000000
# 6 0.000000 0.000000 0.000000 0.000000 0.000000 0.045380
#
#
# Mechanical properties :
#
#
# Convention : Reuss Voigt Hill
#
# Bulk Modulus (GPa) = 60.15170 75.61973 67.88571
# Shear Modulus (GPa) = 25.51549 28.85499 27.18524
#
# Velocity S-wave (km/s) = 3.77941 4.01913 3.90111
# Velocity P-wave (km/s) = 7.26078 7.99192 7.63511
#
# Compressibility (1/GPa) = 0.01662463
#
# Stress axis : x y z
#
# Youngs Moduli (GPa) = 79.27321 43.82706 115.29730
#
# Poissons Ratio (x) = 0.28664 0.42081
# Poissons Ratio (y) = 0.51846 0.40932
# Poissons Ratio (z) = 0.28933 0.15559
#
# Static dielectric constant tensor:
#      x y z
#    x 3.699280 0.000000 0.000000 
#    y 0.000000 3.055320 0.000000 
#    z 0.000000 0.000000 3.378160 
# 
# 
# High freq. dielectric constant tensor:
#      x y z
#    x 1.718080 0.000000 0.000000 
#    y 0.000000 1.653610 0.000000 
#    z 0.000000 0.000000 1.686730 
# 
# From -- ./inp_files/44521.got.cif
#   From: 2010.03.12/outbox.cif.g09.slc.cpg/sg69_23_cif.got.tgz:44521.got - 2010.04.10 23:52:46.
