data_PCOD8284048
_publ_section_title
;
Structure prediction by ZEFSAII (Michael W. Deem and Ramdas Pophale) SiO2 
 PCOD8284048
Probable space group: F M M M
;
_chemical_formula_sum "Si O2"
_cell_formula_units_Z 160
_cell_length_a 20.776634
_cell_length_b 14.285044
_cell_length_c 27.940677
_cell_angle_alpha 90.000000
_cell_angle_beta 90.000000
_cell_angle_gamma 90.000000
_cell_volume 8292.656887
_symmetry_space_group_name_H-M "F M M M"
_symmetry_group_IT_number 69
_symmetry_cell_setting 'orthorhombic'
loop_
_space_group_symop_operation_xyz
x,y,z
-x,-y,z
x,-y,-z
-x,y,-z
-x,-y,-z
x,y,-z
-x,y,z
x,-y,z
x,1/2+y,1/2+z
-x,1/2-y,1/2+z
x,1/2-y,1/2-z
-x,1/2+y,1/2-z
-x,1/2-y,1/2-z
x,1/2+y,1/2-z
-x,1/2+y,1/2+z
x,1/2-y,1/2+z
1/2+x,y,1/2+z
1/2-x,-y,1/2+z
1/2+x,-y,1/2-z
1/2-x,y,1/2-z
1/2-x,-y,1/2-z
1/2+x,y,1/2-z
1/2-x,y,1/2+z
1/2+x,-y,1/2+z
1/2+x,1/2+y,z
1/2-x,1/2-y,z
1/2+x,1/2-y,-z
1/2-x,1/2+y,-z
1/2-x,1/2-y,-z
1/2+x,1/2+y,-z
1/2-x,1/2+y,z
1/2+x,1/2-y,z
loop_
_atom_site_type_symbol
_atom_site_label
_atom_site_fract_x
_atom_site_fract_y
_atom_site_fract_z
Si Si1 0.222030 0.395147 0.152810
Si Si2 0.837163 0.728332 0.305156
Si Si3 0.799187 0.335459 0.052537
Si Si4 0.426884 0.774776 0.553835
Si Si5 0.425629 0.897315 0.642922
O O1 0.216563 0.500000 0.174296
O O2 0.162207 0.328918 0.168034
O O3 0.283750 0.342303 0.173979
O O4 0.222110 0.404672 0.095064
O O5 0.825869 0.750000 0.250000
O O6 0.903215 0.674780 0.315845
O O7 0.750000 0.250000 0.054974
O O8 0.873650 0.305648 0.060767
O O9 0.793486 0.383795 0.000000
O O10 0.421983 0.815620 0.500000
O O11 0.500000 0.736160 0.563306
O O12 0.410238 0.858589 0.590083
O O13 0.500000 0.909420 0.651715
O O14 0.392238 0.000000 0.647370
#
# Coordination Sequence:
#
# PCOD8284048 Si02
#       5
#    32  32  32  32  32
#     4  11  21  36  58  83 109 141 184 231 281 337
#     4  11  23  39  57  79 110 145 186 235 288 339
#     4  10  18  32  55  81 113 150 185 225 279 341
#     4   9  17  31  54  83 116 153 189 226 274 336
#     4  10  20  35  58  86 115 148 186 230 282 339
#
# _framework density 19.294177000000001
#
# number of rings (size 3 to 8) (size 9 to 14) (size 15 to 20)
#    0.000    1.800    4.000    1.800    0.000    3.600 
#    0.000    2.000    0.000    8.400    0.000    2.800 
#    0.000    0.000    0.000    0.000    0.000    0.000 
#
# Total GULP energy -495582.012529 kJ/mol
# GULP energy per Si atom -12389.550313 kJ/mol
# Density = 1.925026 g / cm^3
# Si number density = 19.294177 Si / 1000 Ang^3
#
#
#
# Elastic Constant Matrix: (Units=GPa)
#
#
# Indices 1 2 3 4 5 6 
#
# 1 57.5215 22.3885 31.5025 0.0000 0.0000 0.0000
# 2 22.3885 125.0143 51.4162 0.0000 0.0000 0.0000
# 3 31.5025 51.4162 141.0207 0.0000 0.0000 0.0000
# 4 0.0000 0.0000 0.0000 8.7284 0.0000 0.0000
# 5 0.0000 0.0000 0.0000 0.0000 21.6366 0.0000
# 6 0.0000 0.0000 0.0000 0.0000 0.0000 14.4141
#
#
#
# Elastic Compliance Matrix: (Units=1/GPa)
#
#
# Indices 1 2 3 4 5 6 
#
# 1 0.020257 -0.002078 -0.003767 0.000000 0.000000 0.000000
# 2 -0.002078 0.009623 -0.003044 0.000000 0.000000 0.000000
# 3 -0.003767 -0.003044 0.009043 0.000000 0.000000 0.000000
# 4 0.000000 0.000000 0.000000 0.114569 0.000000 0.000000
# 5 0.000000 0.000000 0.000000 0.000000 0.046218 0.000000
# 6 0.000000 0.000000 0.000000 0.000000 0.000000 0.069376
#
#
# Mechanical properties :
#
#
# Convention : Reuss Voigt Hill
#
# Bulk Modulus (GPa) = 47.29730 59.35230 53.32480
# Shear Modulus (GPa) = 17.01177 23.50578 20.25878
#
# Velocity S-wave (km/s) = 2.97257 3.49418 3.24388
# Velocity P-wave (km/s) = 6.02898 6.86350 6.45973
#
# Compressibility (1/GPa) = 0.02114285
#
# Stress axis : x y z
#
# Youngs Moduli (GPa) = 49.36557 103.91336 110.58569
#
# Poissons Ratio (x) = 0.21596 0.41663
# Poissons Ratio (y) = 0.10260 0.33667
# Poissons Ratio (z) = 0.18598 0.31636
#
# Static dielectric constant tensor:
#      x y z
#    x 3.714470 0.000000 0.000000 
#    y 0.000000 3.757210 0.000000 
#    z 0.000000 0.000000 3.779650 
# 
# 
# High freq. dielectric constant tensor:
#      x y z
#    x 1.745800 0.000000 0.000000 
#    y 0.000000 1.723750 0.000000 
#    z 0.000000 0.000000 1.759370 
# 
# From -- ./inp_files/17970.got.cif
#   From: 2010.03.12/outbox.cif.g09.slc.cpg/sg69_9_cif.got.tgz:17970.got - 2010.04.10 23:52:46.
