data_PCOD8284997
_publ_section_title
;
Structure prediction by ZEFSAII (Michael W. Deem and Ramdas Pophale) SiO2 
 PCOD8284997
Probable space group: F M M M
;
_chemical_formula_sum "Si O2"
_cell_formula_units_Z 176
_cell_length_a 22.659266
_cell_length_b 14.262652
_cell_length_c 26.353475
_cell_angle_alpha 90.000000
_cell_angle_beta 90.000000
_cell_angle_gamma 90.000000
_cell_volume 8516.948348
_symmetry_space_group_name_H-M "F M M M"
_symmetry_group_IT_number 69
_symmetry_cell_setting 'orthorhombic'
loop_
_space_group_symop_operation_xyz
x,y,z
-x,-y,z
x,-y,-z
-x,y,-z
-x,-y,-z
x,y,-z
-x,y,z
x,-y,z
x,1/2+y,1/2+z
-x,1/2-y,1/2+z
x,1/2-y,1/2-z
-x,1/2+y,1/2-z
-x,1/2-y,1/2-z
x,1/2+y,1/2-z
-x,1/2+y,1/2+z
x,1/2-y,1/2+z
1/2+x,y,1/2+z
1/2-x,-y,1/2+z
1/2+x,-y,1/2-z
1/2-x,y,1/2-z
1/2-x,-y,1/2-z
1/2+x,y,1/2-z
1/2-x,y,1/2+z
1/2+x,-y,1/2+z
1/2+x,1/2+y,z
1/2-x,1/2-y,z
1/2+x,1/2-y,-z
1/2-x,1/2+y,-z
1/2-x,1/2-y,-z
1/2+x,1/2+y,-z
1/2-x,1/2+y,z
1/2+x,1/2-y,z
loop_
_atom_site_type_symbol
_atom_site_label
_atom_site_fract_x
_atom_site_fract_y
_atom_site_fract_z
Si Si1 0.628315 0.712649 0.057982
Si Si2 0.566547 0.388693 0.146977
Si Si3 0.283776 0.108495 0.174157
Si Si4 0.340971 0.108019 0.726026
Si Si5 0.750000 0.250000 0.593827
Si Si6 0.065911 0.897772 0.439967
O O1 0.596109 0.637854 0.093536
O O2 0.699441 0.700828 0.060042
O O3 0.609831 0.816275 0.077865
O O4 0.607739 0.695177 0.000000
O O5 0.500000 0.349075 0.150522
O O6 0.567014 0.500000 0.149344
O O7 0.604232 0.347111 0.194759
O O8 0.328858 0.149833 0.217407
O O9 0.217138 0.119689 0.192829
O O10 0.287621 0.173688 0.125290
O O11 0.297515 0.000000 0.161042
O O12 0.354451 0.000000 0.735571
O O13 0.064849 0.902524 0.500000
O O14 0.000000 0.875887 0.419589
O O15 0.086897 0.000000 0.418788
#
# Coordination Sequence:
#
# PCOD8284997 Si02
#       6
#    32  32  32  32  16  32
#     4  11  23  37  51  77 117 156 198 243 281 324
#     4  10  20  36  60  88 118 151 185 226 281 344
#     4   9  18  34  57  83 111 142 184 235 283 343
#     4   8  15  32  56  83 111 139 178 226 279 339
#     4  12  23  35  56  82 110 154 198 238 288 332
#     4   8  15  31  55  76  94 128 182 238 287 330
#
# _framework density 20.664677999999999
#
# number of rings (size 3 to 8) (size 9 to 14) (size 15 to 20)
#    0.000    2.545    1.818    2.455    0.000    3.636 
#    0.000    0.909    0.000    6.545    0.000    2.545 
#    0.000    0.000    0.000    0.000    0.000    0.000 
#
# Total GULP energy -545205.226824 kJ/mol
# GULP energy per Si atom -12391.027882 kJ/mol
# Density = 2.061764 g / cm^3
# Si number density = 20.664678 Si / 1000 Ang^3
#
#
#
# Elastic Constant Matrix: (Units=GPa)
#
#
# Indices 1 2 3 4 5 6 
#
# 1 130.2514 16.1657 47.5095 0.0000 0.0000 0.0000
# 2 16.1657 30.7047 20.0884 0.0000 0.0000 0.0000
# 3 47.5095 20.0884 70.2275 0.0000 0.0000 0.0000
# 4 0.0000 0.0000 0.0000 18.9275 0.0000 0.0000
# 5 0.0000 0.0000 0.0000 0.0000 16.2249 0.0000
# 6 0.0000 0.0000 0.0000 0.0000 0.0000 24.5278
#
#
#
# Elastic Compliance Matrix: (Units=1/GPa)
#
#
# Indices 1 2 3 4 5 6 
#
# 1 0.010220 -0.001055 -0.006612 0.000000 0.000000 0.000000
# 2 -0.001055 0.040175 -0.010779 0.000000 0.000000 0.000000
# 3 -0.006612 -0.010779 0.021796 0.000000 0.000000 0.000000
# 4 0.000000 0.000000 0.000000 0.052833 0.000000 0.000000
# 5 0.000000 0.000000 0.000000 0.000000 0.061634 0.000000
# 6 0.000000 0.000000 0.000000 0.000000 0.000000 0.040770
#
#
# Mechanical properties :
#
#
# Convention : Reuss Voigt Hill
#
# Bulk Modulus (GPa) = 28.32837 44.30120 36.31479
# Shear Modulus (GPa) = 18.11025 21.76403 19.93714
#
# Velocity S-wave (km/s) = 2.96359 3.24882 3.10948
# Velocity P-wave (km/s) = 5.04469 5.96304 5.52298
#
# Compressibility (1/GPa) = 0.03530030
#
# Stress axis : x y z
#
# Youngs Moduli (GPa) = 97.84488 24.89081 45.87999
#
# Poissons Ratio (x) = 0.02625 0.30338
# Poissons Ratio (y) = 0.10320 0.49452
# Poissons Ratio (z) = 0.64699 0.26829
#
# Static dielectric constant tensor:
#      x y z
#    x 3.895210 0.000000 0.000000 
#    y 0.000000 3.792620 0.000000 
#    z 0.000000 0.000000 3.627570 
# 
# 
# High freq. dielectric constant tensor:
#      x y z
#    x 1.802480 0.000000 0.000000 
#    y 0.000000 1.796330 0.000000 
#    z 0.000000 0.000000 1.788500 
# 
# From -- ./inp_files/35898.got.cif
#   From: 2010.03.12/outbox.cif.g09.slc.cpg/sg69_18_cif.got.tgz:35898.got - 2010.04.10 23:52:46.
