data_PCOD8284239
_publ_section_title
;
Structure prediction by ZEFSAII (Michael W. Deem and Ramdas Pophale) SiO2 
 PCOD8284239
Probable space group: F M M M
;
_chemical_formula_sum "Si O2"
_cell_formula_units_Z 224
_cell_length_a 18.074001
_cell_length_b 30.254712
_cell_length_c 22.137946
_cell_angle_alpha 90.000000
_cell_angle_beta 90.000000
_cell_angle_gamma 90.000000
_cell_volume 12105.553430
_symmetry_space_group_name_H-M "F M M M"
_symmetry_group_IT_number 69
_symmetry_cell_setting 'orthorhombic'
loop_
_space_group_symop_operation_xyz
x,y,z
-x,-y,z
x,-y,-z
-x,y,-z
-x,-y,-z
x,y,-z
-x,y,z
x,-y,z
x,1/2+y,1/2+z
-x,1/2-y,1/2+z
x,1/2-y,1/2-z
-x,1/2+y,1/2-z
-x,1/2-y,1/2-z
x,1/2+y,1/2-z
-x,1/2+y,1/2+z
x,1/2-y,1/2+z
1/2+x,y,1/2+z
1/2-x,-y,1/2+z
1/2+x,-y,1/2-z
1/2-x,y,1/2-z
1/2-x,-y,1/2-z
1/2+x,y,1/2-z
1/2-x,y,1/2+z
1/2+x,-y,1/2+z
1/2+x,1/2+y,z
1/2-x,1/2-y,z
1/2+x,1/2-y,-z
1/2-x,1/2+y,-z
1/2-x,1/2-y,-z
1/2+x,1/2+y,-z
1/2-x,1/2+y,z
1/2+x,1/2-y,z
loop_
_atom_site_type_symbol
_atom_site_label
_atom_site_fract_x
_atom_site_fract_y
_atom_site_fract_z
Si Si1 0.416089 0.889034 0.768103
Si Si2 0.683031 0.953168 0.292170
Si Si3 0.915082 0.382959 0.000000
Si Si4 0.709371 0.890659 0.602865
Si Si5 0.854106 0.656723 0.118605
Si Si6 0.085346 0.164136 0.852826
Si Si7 0.162077 0.748397 0.820454
Si Si8 0.775786 0.053526 0.500000
O O1 0.500000 0.894092 0.787821
O O2 0.388262 0.936272 0.744531
O O3 0.371298 0.877279 0.828000
O O4 0.405999 0.852446 0.715919
O O5 0.750000 0.964563 0.250000
O O6 0.713359 0.914881 0.333973
O O7 0.660354 0.000000 0.323990
O O8 0.903576 0.352560 0.940625
O O9 0.858327 0.424910 0.000000
O O10 0.000000 0.400399 0.000000
O O11 0.768807 0.851033 0.599927
O O12 0.628020 0.867872 0.599131
O O13 0.726498 0.928989 0.555183
O O14 0.868287 0.705332 0.144967
O O15 0.123050 0.211880 0.855739
O O16 0.000000 0.166081 0.873000
O O17 0.138562 0.750000 0.750000
O O18 0.250000 0.750000 0.826485
O O19 0.782186 0.000000 0.500000
#
# Coordination Sequence:
#
# PCOD8284239 Si02
#       8
#    32  32  16  32  32  32  32  16
#     4  10  20  33  52  78 113 150 185 235 293 347
#     4  10  19  31  53  80 108 142 181 228 289 358
#     4  10  24  41  58  85 120 159 196 240 301 348
#     4  10  20  37  59  83 115 151 193 239 289 350
#     4  11  20  37  59  81 113 158 202 240 283 349
#     4  10  21  35  54  87 122 151 187 239 299 345
#     4  11  21  33  59  91 121 153 200 247 287 344
#     4  10  22  41  68  91 110 149 205 250 284 345
#
# _framework density 18.503903999999999
#
# number of rings (size 3 to 8) (size 9 to 14) (size 15 to 20)
#    0.000    1.714    4.286    0.857    0.000    1.857 
#    0.000    1.429    0.000    3.429    0.000    0.000 
#    0.000    0.000    0.000    0.000    0.000    0.000 
#
# Total GULP energy -693961.544622 kJ/mol
# GULP energy per Si atom -12392.170440 kJ/mol
# Density = 1.846179 g / cm^3
# Si number density = 18.503904 Si / 1000 Ang^3
#
#
#
# Elastic Constant Matrix: (Units=GPa)
#
#
# Indices 1 2 3 4 5 6 
#
# 1 119.3083 48.6458 35.5044 0.0000 0.0000 0.0000
# 2 48.6458 128.9256 35.5980 0.0000 0.0000 0.0000
# 3 35.5044 35.5980 68.3976 0.0000 0.0000 0.0000
# 4 0.0000 0.0000 0.0000 -80.9024 0.0000 0.0000
# 5 0.0000 0.0000 0.0000 0.0000 19.9269 0.0000
# 6 0.0000 0.0000 0.0000 0.0000 0.0000 26.0163
#
#
#
# Elastic Compliance Matrix: (Units=1/GPa)
#
#
# Indices 1 2 3 4 5 6 
#
# 1 0.010795 -0.002950 -0.004068 0.000000 0.000000 0.000000
# 2 -0.002950 0.009864 -0.003603 0.000000 0.000000 0.000000
# 3 -0.004068 -0.003603 0.018607 0.000000 0.000000 0.000000
# 4 0.000000 0.000000 0.000000 -0.012361 0.000000 0.000000
# 5 0.000000 0.000000 0.000000 0.000000 0.050183 0.000000
# 6 0.000000 0.000000 0.000000 0.000000 0.000000 0.038437
#
#
# Mechanical properties :
#
#
# Convention : Reuss Voigt Hill
#
# Bulk Modulus (GPa) = 55.47896 61.79197 58.63547
# Shear Modulus (GPa) = 35.01971 6.13371 20.57671
#
# Velocity S-wave (km/s) = 4.35507 1.82264 3.33831
# Velocity P-wave (km/s) = 7.43884 6.15596 6.82760
#
# Compressibility (1/GPa) = 0.01802485
#
# Stress axis : x y z
#
# Youngs Moduli (GPa) = 92.63495 101.37701 53.74251
#
# Poissons Ratio (x) = 0.29905 0.21864
# Poissons Ratio (y) = 0.27326 0.19362
# Poissons Ratio (z) = 0.37687 0.36523
#
# Static dielectric constant tensor:
#      x y z
#    x 3.421330 0.000000 0.000000 
#    y 0.000000 3.541290 0.000000 
#    z 0.000000 0.000000 3.322430 
# 
# 
# High freq. dielectric constant tensor:
#      x y z
#    x 1.718090 0.000000 0.000000 
#    y 0.000000 1.721010 0.000000 
#    z 0.000000 0.000000 1.698120 
# 
# From -- ./inp_files/31223.got.cif
#   From: 2010.03.12/outbox.cif.g09.slc.cpg/sg69_16_cif.got.tgz:31223.got - 2010.04.10 23:52:46.
