data_PCOD8284750
_publ_section_title
;
Structure prediction by ZEFSAII (Michael W. Deem and Ramdas Pophale) SiO2 
 PCOD8284750
Probable space group: F M M M
;
_chemical_formula_sum "Si O2"
_cell_formula_units_Z 144
_cell_length_a 24.300025
_cell_length_b 30.607721
_cell_length_c 10.283544
_cell_angle_alpha 90.000000
_cell_angle_beta 90.000000
_cell_angle_gamma 90.000000
_cell_volume 7648.574918
_symmetry_space_group_name_H-M "F M M M"
_symmetry_group_IT_number 69
_symmetry_cell_setting 'orthorhombic'
loop_
_space_group_symop_operation_xyz
x,y,z
-x,-y,z
x,-y,-z
-x,y,-z
-x,-y,-z
x,y,-z
-x,y,z
x,-y,z
x,1/2+y,1/2+z
-x,1/2-y,1/2+z
x,1/2-y,1/2-z
-x,1/2+y,1/2-z
-x,1/2-y,1/2-z
x,1/2+y,1/2-z
-x,1/2+y,1/2+z
x,1/2-y,1/2+z
1/2+x,y,1/2+z
1/2-x,-y,1/2+z
1/2+x,-y,1/2-z
1/2-x,y,1/2-z
1/2-x,-y,1/2-z
1/2+x,y,1/2-z
1/2-x,y,1/2+z
1/2+x,-y,1/2+z
1/2+x,1/2+y,z
1/2-x,1/2-y,z
1/2+x,1/2-y,-z
1/2-x,1/2+y,-z
1/2-x,1/2-y,-z
1/2+x,1/2+y,-z
1/2-x,1/2+y,z
1/2+x,1/2-y,z
loop_
_atom_site_type_symbol
_atom_site_label
_atom_site_fract_x
_atom_site_fract_y
_atom_site_fract_z
Si Si1 0.820321 0.390291 0.500000
Si Si2 0.877842 0.086832 0.259730
Si Si3 0.191872 0.382914 0.000000
Si Si4 0.121688 0.199668 0.000000
Si Si5 0.563835 0.675394 0.257852
Si Si6 0.564636 0.500000 0.347174
Si Si7 0.132793 0.795792 0.500000
O O1 0.844788 0.414450 0.374891
O O2 0.755273 0.394938 0.500000
O O3 0.833598 0.338748 0.500000
O O4 0.834655 0.095706 0.373513
O O5 0.924700 0.123713 0.256654
O O6 0.908523 0.041603 0.279748
O O7 0.183169 0.330261 0.000000
O O8 0.082378 0.197227 0.124134
O O9 0.154624 0.245840 0.000000
O O10 0.500000 0.683685 0.279513
O O11 0.595865 0.698141 0.373761
O O12 0.500000 0.500000 0.319335
O O13 0.577238 0.500000 0.500000
#
# Coordination Sequence:
#
# PCOD8284750 Si02
#       7
#    16  32  16  16  32  16  16
#     4  10  22  39  60  79 115 155 185 233 290 331
#     4  10  21  39  58  87 114 144 192 232 278 340
#     4  10  20  39  60  81 111 151 193 237 282 327
#     4  10  21  35  51  79 111 147 190 234 279 334
#     4  10  20  34  53  77 112 150 182 227 286 341
#     4  11  22  39  66  92 117 146 181 229 278 332
#     4  10  21  33  53  81 109 141 196 242 269 330
#
# _framework density 18.827037000000001
#
# number of rings (size 3 to 8) (size 9 to 14) (size 15 to 20)
#    0.000    1.889    1.111    2.667    0.000    3.556 
#    0.000    5.556    0.000    8.000    0.000    0.000 
#    0.000    0.000    0.000    0.000    0.000    0.000 
#
# Total GULP energy -446493.453909 kJ/mol
# GULP energy per Si atom -12402.595942 kJ/mol
# Density = 1.878419 g / cm^3
# Si number density = 18.827037 Si / 1000 Ang^3
#
#
#
# Elastic Constant Matrix: (Units=GPa)
#
#
# Indices 1 2 3 4 5 6 
#
# 1 95.7274 40.8882 46.6016 0.0012 -0.0001 -0.0002
# 2 40.8882 148.8276 48.0524 0.0007 -0.0003 -0.0002
# 3 46.6016 48.0524 160.5577 0.0028 0.0008 -0.0007
# 4 0.0012 0.0007 0.0028 13.2189 -0.0015 -0.0005
# 5 -0.0001 -0.0003 0.0008 -0.0015 21.8611 0.0001
# 6 -0.0002 -0.0002 -0.0007 -0.0005 0.0001 13.8607
#
#
#
# Elastic Compliance Matrix: (Units=1/GPa)
#
#
# Indices 1 2 3 4 5 6 
#
# 1 0.013020 -0.002609 -0.002998 0.000000 0.000000 0.000000
# 2 -0.002609 0.007961 -0.001625 0.000000 0.000000 0.000000
# 3 -0.002998 -0.001625 0.007585 -0.000001 0.000000 0.000000
# 4 0.000000 0.000000 -0.000001 0.075649 0.000005 0.000003
# 5 0.000000 0.000000 0.000000 0.000005 0.045743 0.000000
# 6 0.000000 0.000000 0.000000 0.000003 0.000000 0.072146
#
#
# Mechanical properties :
#
#
# Convention : Reuss Voigt Hill
#
# Bulk Modulus (GPa) = 70.91781 75.13300 73.02541
# Shear Modulus (GPa) = 20.72364 27.75952 24.24158
#
# Velocity S-wave (km/s) = 3.32134 3.84402 3.59220
# Velocity P-wave (km/s) = 7.24280 7.72629 7.48845
#
# Compressibility (1/GPa) = 0.01410083
#
# Stress axis : x y z
#
# Youngs Moduli (GPa) = 76.80279 125.61654 131.84019
#
# Poissons Ratio (x) = 0.32774 0.39529
# Poissons Ratio (y) = 0.20039 0.21427
# Poissons Ratio (z) = 0.23028 0.20416
#
# Static dielectric constant tensor:
#      x y z
#    x 3.213290 0.000000 0.000000 
#    y 0.000000 3.544990 0.000000 
#    z 0.000000 0.000000 3.678330 
# 
# 
# High freq. dielectric constant tensor:
#      x y z
#    x 1.719570 0.000000 0.000000 
#    y 0.000000 1.734850 0.000000 
#    z 0.000000 0.000000 1.751980 
# 
# From -- ./inp_files/10429.got.cif
#   From: 2010.03.12/outbox.cif.g09.slc.cpg/sg69_6_cif.got.tgz:10429.got - 2010.04.10 23:52:46.
