data_PCOD8284446
_publ_section_title
;
Structure prediction by ZEFSAII (Michael W. Deem and Ramdas Pophale) SiO2 
 PCOD8284446
Probable space group: F M M M
;
_chemical_formula_sum "Si O2"
_cell_formula_units_Z 136
_cell_length_a 16.610081
_cell_length_b 17.848065
_cell_length_c 24.123649
_cell_angle_alpha 90.000000
_cell_angle_beta 90.000000
_cell_angle_gamma 90.000000
_cell_volume 7151.644039
_symmetry_space_group_name_H-M "F M M M"
_symmetry_group_IT_number 69
_symmetry_cell_setting 'orthorhombic'
loop_
_space_group_symop_operation_xyz
x,y,z
-x,-y,z
x,-y,-z
-x,y,-z
-x,-y,-z
x,y,-z
-x,y,z
x,-y,z
x,1/2+y,1/2+z
-x,1/2-y,1/2+z
x,1/2-y,1/2-z
-x,1/2+y,1/2-z
-x,1/2-y,1/2-z
x,1/2+y,1/2-z
-x,1/2+y,1/2+z
x,1/2-y,1/2+z
1/2+x,y,1/2+z
1/2-x,-y,1/2+z
1/2+x,-y,1/2-z
1/2-x,y,1/2-z
1/2-x,-y,1/2-z
1/2+x,y,1/2-z
1/2-x,y,1/2+z
1/2+x,-y,1/2+z
1/2+x,1/2+y,z
1/2-x,1/2-y,z
1/2+x,1/2-y,-z
1/2-x,1/2+y,-z
1/2-x,1/2-y,-z
1/2+x,1/2+y,-z
1/2-x,1/2+y,z
1/2+x,1/2-y,z
loop_
_atom_site_type_symbol
_atom_site_label
_atom_site_fract_x
_atom_site_fract_y
_atom_site_fract_z
Si Si1 0.159579 0.352920 0.379081
Si Si2 0.500000 0.915967 0.600029
Si Si3 0.295677 0.913695 0.193801
Si Si4 0.671907 0.699804 0.000000
Si Si5 0.592301 0.779406 0.812006
Si Si6 0.500000 0.301912 0.000000
O O1 0.235991 0.396586 0.356387
O O2 0.173664 0.350794 0.445157
O O3 0.148356 0.270171 0.352758
O O4 0.080052 0.401502 0.363432
O O5 0.500000 0.855142 0.552457
O O6 0.500000 0.000000 0.576520
O O7 0.250000 0.891756 0.250000
O O8 0.375799 0.864321 0.186716
O O9 0.322626 0.000000 0.193192
O O10 0.750000 0.750000 0.000000
O O11 0.584510 0.744961 0.000000
O O12 0.500000 0.777933 0.833044
O O13 0.599481 0.750000 0.750000
#
# Coordination Sequence:
#
# PCOD8284446 Si02
#       6
#    32  16  32  16  32   8
#     4  11  21  38  58  88 116 151 197 235 293 348
#     4  10  19  34  55  83 120 151 183 237 289 347
#     4  11  23  38  58  84 116 155 195 238 287 345
#     4  10  20  35  57  84 117 152 190 249 289 339
#     4  11  22  38  59  84 115 153 196 241 290 341
#     4   8  19  32  52  80 114 152 197 226 295 354
#
# _framework density 19.016607
#
# number of rings (size 3 to 8) (size 9 to 14) (size 15 to 20)
#    0.000    1.412    3.529    3.000    0.000    0.471 
#    0.000    1.765    0.000    0.000    0.000    0.000 
#    0.000    5.647    0.000    0.000    0.000    0.000 
#
# Total GULP energy -421491.833414 kJ/mol
# GULP energy per Si atom -12396.818630 kJ/mol
# Density = 1.897332 g / cm^3
# Si number density = 19.016607 Si / 1000 Ang^3
#
#
#
# Elastic Constant Matrix: (Units=GPa)
#
#
# Indices 1 2 3 4 5 6 
#
# 1 107.8417 35.1665 15.4745 0.0000 0.0000 0.0000
# 2 35.1665 90.2610 13.8018 0.0000 0.0000 0.0000
# 3 15.4745 13.8018 93.4536 0.0000 0.0000 0.0000
# 4 0.0000 0.0000 0.0000 41.1084 0.0000 0.0000
# 5 0.0000 0.0000 0.0000 0.0000 22.1725 0.0000
# 6 0.0000 0.0000 0.0000 0.0000 0.0000 31.6910
#
#
#
# Elastic Compliance Matrix: (Units=1/GPa)
#
#
# Indices 1 2 3 4 5 6 
#
# 1 0.010750 -0.004007 -0.001188 0.000000 0.000000 0.000000
# 2 -0.004007 0.012828 -0.001231 0.000000 0.000000 0.000000
# 3 -0.001188 -0.001231 0.011079 0.000000 0.000000 0.000000
# 4 0.000000 0.000000 0.000000 0.024326 0.000000 0.000000
# 5 0.000000 0.000000 0.000000 0.000000 0.045101 0.000000
# 6 0.000000 0.000000 0.000000 0.000000 0.000000 0.031555
#
#
# Mechanical properties :
#
#
# Convention : Reuss Voigt Hill
#
# Bulk Modulus (GPa) = 45.86057 46.71576 46.28817
# Shear Modulus (GPa) = 32.10087 34.13529 33.11808
#
# Velocity S-wave (km/s) = 4.11304 4.24137 4.17770
# Velocity P-wave (km/s) = 6.83553 6.97171 6.90396
#
# Compressibility (1/GPa) = 0.02180522
#
# Stress axis : x y z
#
# Youngs Moduli (GPa) = 93.02443 77.95316 90.26014
#
# Poissons Ratio (x) = 0.31232 0.10726
# Poissons Ratio (y) = 0.37271 0.11112
# Poissons Ratio (z) = 0.11054 0.09597
#
# Static dielectric constant tensor:
#      x y z
#    x 3.972110 0.000000 0.000000 
#    y 0.000000 3.263400 0.000000 
#    z 0.000000 0.000000 2.661160 
# 
# 
# High freq. dielectric constant tensor:
#      x y z
#    x 1.753900 0.000000 0.000000 
#    y 0.000000 1.712260 0.000000 
#    z 0.000000 0.000000 1.739230 
# 
# From -- ./inp_files/18758.got.cif
#   From: 2010.03.12/outbox.cif.g09.slc.cpg/sg69_10_cif.got.tgz:18758.got - 2010.04.10 23:52:46.
