data_PCOD8284420
_publ_section_title
;
Structure prediction by ZEFSAII (Michael W. Deem and Ramdas Pophale) SiO2 
 PCOD8284420
Probable space group: F M M M
;
_chemical_formula_sum "Si O2"
_cell_formula_units_Z 128
_cell_length_a 30.588161
_cell_length_b 9.146462
_cell_length_c 23.724254
_cell_angle_alpha 90.000000
_cell_angle_beta 90.000000
_cell_angle_gamma 90.000000
_cell_volume 6637.416443
_symmetry_space_group_name_H-M "F M M M"
_symmetry_group_IT_number 69
_symmetry_cell_setting 'orthorhombic'
loop_
_space_group_symop_operation_xyz
x,y,z
-x,-y,z
x,-y,-z
-x,y,-z
-x,-y,-z
x,y,-z
-x,y,z
x,-y,z
x,1/2+y,1/2+z
-x,1/2-y,1/2+z
x,1/2-y,1/2-z
-x,1/2+y,1/2-z
-x,1/2-y,1/2-z
x,1/2+y,1/2-z
-x,1/2+y,1/2+z
x,1/2-y,1/2+z
1/2+x,y,1/2+z
1/2-x,-y,1/2+z
1/2+x,-y,1/2-z
1/2-x,y,1/2-z
1/2-x,-y,1/2-z
1/2+x,y,1/2-z
1/2-x,y,1/2+z
1/2+x,-y,1/2+z
1/2+x,1/2+y,z
1/2-x,1/2-y,z
1/2+x,1/2-y,-z
1/2-x,1/2+y,-z
1/2-x,1/2-y,-z
1/2+x,1/2+y,-z
1/2-x,1/2+y,z
1/2+x,1/2-y,z
loop_
_atom_site_type_symbol
_atom_site_label
_atom_site_fract_x
_atom_site_fract_y
_atom_site_fract_z
Si Si1 0.950221 0.667408 0.378878
Si Si2 0.622256 0.827306 0.809566
Si Si3 0.583602 0.833874 0.500000
Si Si4 0.206833 0.828138 0.380631
Si Si5 0.326442 0.672642 0.500000
O O1 0.937409 0.500000 0.364909
O O2 0.919869 0.775671 0.343890
O O3 0.945679 0.698397 0.445354
O O4 0.000000 0.699145 0.361239
O O5 0.623680 0.750000 0.750000
O O6 0.665740 0.781063 0.843030
O O7 0.619194 0.000000 0.801204
O O8 0.624722 0.729366 0.500000
O O9 0.600787 0.000000 0.500000
O O10 0.250000 0.750000 0.356592
O O11 0.198785 0.772326 0.444473
O O12 0.214555 0.000000 0.378239
O O13 0.330396 0.500000 0.500000
#
# Coordination Sequence:
#
# PCOD8284420 Si02
#       5
#    32  32  16  32  16
#     4  10  21  38  61  90 122 155 193 238 289 347
#     4  11  24  42  62  85 115 154 199 247 294 344
#     4  10  19  33  59  91 121 155 190 232 288 347
#     4  10  22  38  60  87 118 153 191 237 289 348
#     4  10  19  36  58  86 122 153 188 236 288 347
#
# _framework density 19.284611000000002
#
# number of rings (size 3 to 8) (size 9 to 14) (size 15 to 20)
#    0.000    1.750    2.500    1.500    0.000    6.000 
#    0.000    2.500    0.000    2.250    0.000    0.000 
#    0.000    0.000    0.000    0.000    0.000    0.000 
#
# Total GULP energy -396913.612755 kJ/mol
# GULP energy per Si atom -12403.550399 kJ/mol
# Density = 1.924072 g / cm^3
# Si number density = 19.284611 Si / 1000 Ang^3
#
#
#
# Elastic Constant Matrix: (Units=GPa)
#
#
# Indices 1 2 3 4 5 6 
#
# 1 143.4583 53.7142 59.3805 0.0001 0.0000 0.0000
# 2 53.7142 57.9324 52.1568 -0.0002 0.0000 0.0001
# 3 59.3805 52.1568 141.2038 0.0001 0.0000 0.0000
# 4 0.0001 -0.0002 0.0001 880.9929 0.0004 0.0001
# 5 0.0000 0.0000 0.0000 0.0004 3.1289 0.0000
# 6 0.0000 0.0001 0.0000 0.0001 0.0000 36.8320
#
#
#
# Elastic Compliance Matrix: (Units=1/GPa)
#
#
# Indices 1 2 3 4 5 6 
#
# 1 0.010826 -0.008898 -0.001266 0.000000 0.000000 0.000000
# 2 -0.008898 0.033175 -0.008512 0.000000 0.000000 0.000000
# 3 -0.001266 -0.008512 0.010758 0.000000 0.000000 0.000000
# 4 0.000000 0.000000 0.000000 0.001135 0.000000 0.000000
# 5 0.000000 0.000000 0.000000 0.000000 0.319599 0.000000
# 6 0.000000 0.000000 0.000000 0.000000 0.000000 0.027150
#
#
# Mechanical properties :
#
#
# Convention : Reuss Voigt Hill
#
# Bulk Modulus (GPa) = 57.44666 74.78862 66.11764
# Shear Modulus (GPa) = 11.21579 196.01364 103.61471
#
# Velocity S-wave (km/s) = 2.41424 10.09273 7.33797
# Velocity P-wave (km/s) = 6.13392 13.21678 10.30311
#
# Compressibility (1/GPa) = 0.01740745
#
# Stress axis : x y z
#
# Youngs Moduli (GPa) = 92.36628 30.14283 92.94980
#
# Poissons Ratio (x) = 0.26822 0.11768
# Poissons Ratio (y) = 0.82191 0.79119
# Poissons Ratio (z) = 0.11694 0.25658
#
# Static dielectric constant tensor:
#      x y z
#    x 3.601140 0.000000 0.000000 
#    y 0.000000 3.439230 0.000000 
#    z 0.000000 0.000000 3.672090 
# 
# 
# High freq. dielectric constant tensor:
#      x y z
#    x 1.758430 0.000000 0.000000 
#    y 0.000000 1.745320 0.000000 
#    z 0.000000 0.000000 1.754700 
# 
# From -- ./inp_files/4820.got.cif
#   From: 2010.03.12/outbox.cif.g09.slc.cpg/sg69_3_cif.got.tgz:4820.got - 2010.04.10 23:52:46.
