data_PCOD8284007
_publ_section_title
;
Structure prediction by ZEFSAII (Michael W. Deem and Ramdas Pophale) SiO2 
 PCOD8284007
Probable space group: F M M M
;
_chemical_formula_sum "Si O2"
_cell_formula_units_Z 128
_cell_length_a 17.247942
_cell_length_b 19.193484
_cell_length_c 20.910310
_cell_angle_alpha 90.000000
_cell_angle_beta 90.000000
_cell_angle_gamma 90.000000
_cell_volume 6922.318371
_symmetry_space_group_name_H-M "F M M M"
_symmetry_group_IT_number 69
_symmetry_cell_setting 'orthorhombic'
loop_
_space_group_symop_operation_xyz
x,y,z
-x,-y,z
x,-y,-z
-x,y,-z
-x,-y,-z
x,y,-z
-x,y,z
x,-y,z
x,1/2+y,1/2+z
-x,1/2-y,1/2+z
x,1/2-y,1/2-z
-x,1/2+y,1/2-z
-x,1/2-y,1/2-z
x,1/2+y,1/2-z
-x,1/2+y,1/2+z
x,1/2-y,1/2+z
1/2+x,y,1/2+z
1/2-x,-y,1/2+z
1/2+x,-y,1/2-z
1/2-x,y,1/2-z
1/2-x,-y,1/2-z
1/2+x,y,1/2-z
1/2-x,y,1/2+z
1/2+x,-y,1/2+z
1/2+x,1/2+y,z
1/2-x,1/2-y,z
1/2+x,1/2-y,-z
1/2-x,1/2+y,-z
1/2-x,1/2-y,-z
1/2+x,1/2+y,-z
1/2-x,1/2+y,z
1/2+x,1/2-y,z
loop_
_atom_site_type_symbol
_atom_site_label
_atom_site_fract_x
_atom_site_fract_y
_atom_site_fract_z
Si Si1 0.000000 0.922101 0.424272
Si Si2 0.590922 0.683511 0.892170
Si Si3 0.909600 0.576457 0.500000
Si Si4 0.231814 0.829681 0.182433
Si Si5 0.647739 0.335492 0.425994
O O1 0.923580 0.881970 0.401067
O O2 0.000000 0.924020 0.500000
O O3 0.000000 0.000000 0.395400
O O4 0.500000 0.689298 0.876657
O O5 0.613008 0.620600 0.938478
O O6 0.639286 0.663833 0.828855
O O7 0.622631 0.754965 0.922376
O O8 0.868306 0.500000 0.500000
O O9 0.000000 0.564053 0.500000
O O10 0.250000 0.869073 0.250000
O O11 0.250000 0.750000 0.192510
O O12 0.281197 0.855949 0.120894
O O13 0.670781 0.351718 0.500000
#
# Coordination Sequence:
#
# PCOD8284007 Si02
#       5
#    16  32  16  32  32
#     4   9  18  32  52  81 112 136 173 228 273 319
#     4  10  18  31  55  79 105 142 181 220 266 319
#     4   9  18  30  49  80 110 133 168 223 269 310
#     4   9  20  35  49  79 117 142 177 227 269 312
#     4  10  18  31  55  80 107 141 180 223 269 317
#
# _framework density 18.490915000000001
#
# number of rings (size 3 to 8) (size 9 to 14) (size 15 to 20)
#    0.000    2.500    2.500    0.000    1.750    1.500 
#    2.250    3.750    0.000    3.000    0.000    0.000 
#    0.000    0.000    0.000    0.000    0.000    0.000 
#
# Total GULP energy -396448.885628 kJ/mol
# GULP energy per Si atom -12389.027676 kJ/mol
# Density = 1.844883 g / cm^3
# Si number density = 18.490915 Si / 1000 Ang^3
#
#
#
# Elastic Constant Matrix: (Units=GPa)
#
#
# Indices 1 2 3 4 5 6 
#
# 1 113.8971 12.2611 66.0583 0.0000 0.0000 0.0000
# 2 12.2611 89.8481 14.5841 0.0000 0.0000 0.0000
# 3 66.0583 14.5841 122.8615 0.0000 0.0000 0.0000
# 4 0.0000 0.0000 0.0000 0.6986 0.0000 0.0000
# 5 0.0000 0.0000 0.0000 0.0000 288.5376 0.0000
# 6 0.0000 0.0000 0.0000 0.0000 0.0000 5.0916
#
#
#
# Elastic Compliance Matrix: (Units=1/GPa)
#
#
# Indices 1 2 3 4 5 6 
#
# 1 0.012795 -0.000642 -0.006803 0.000000 0.000000 0.000000
# 2 -0.000642 0.011381 -0.001006 0.000000 0.000000 0.000000
# 3 -0.006803 -0.001006 0.011916 0.000000 0.000000 0.000000
# 4 0.000000 0.000000 0.000000 1.431529 0.000000 0.000000
# 5 0.000000 0.000000 0.000000 0.000000 0.003466 0.000000
# 6 0.000000 0.000000 0.000000 0.000000 0.000000 0.196403
#
#
# Mechanical properties :
#
#
# Convention : Reuss Voigt Hill
#
# Bulk Modulus (GPa) = 52.10937 56.93485 54.52211
# Shear Modulus (GPa) = 2.95720 74.44575 38.70147
#
# Velocity S-wave (km/s) = 1.26600 6.35202 4.57989
# Velocity P-wave (km/s) = 5.51174 9.20082 7.58401
#
# Compressibility (1/GPa) = 0.01919041
#
# Stress axis : x y z
#
# Youngs Moduli (GPa) = 78.15818 87.86764 83.91804
#
# Poissons Ratio (x) = 0.05639 0.57090
# Poissons Ratio (y) = 0.05016 0.08441
# Poissons Ratio (z) = 0.53171 0.08839
#
# Static dielectric constant tensor:
#      x y z
#    x 3.499680 0.000000 0.000000 
#    y 0.000000 3.628800 0.000000 
#    z 0.000000 0.000000 3.595450 
# 
# 
# High freq. dielectric constant tensor:
#      x y z
#    x 1.723110 0.000000 0.000000 
#    y 0.000000 1.689020 0.000000 
#    z 0.000000 0.000000 1.698800 
# 
# From -- ./inp_files/30677.got.cif
#   From: 2010.03.12/outbox.cif.g09.slc.cpg/sg69_16_cif.got.tgz:30677.got - 2010.04.10 23:52:46.
