data_PCOD8284738
_publ_section_title
;
Structure prediction by ZEFSAII (Michael W. Deem and Ramdas Pophale) SiO2 
 PCOD8284738
Probable space group: F M M M
;
_chemical_formula_sum "Si O2"
_cell_formula_units_Z 144
_cell_length_a 32.166624
_cell_length_b 8.581617
_cell_length_c 27.161318
_cell_angle_alpha 90.000000
_cell_angle_beta 90.000000
_cell_angle_gamma 90.000000
_cell_volume 7497.654965
_symmetry_space_group_name_H-M "F M M M"
_symmetry_group_IT_number 69
_symmetry_cell_setting 'orthorhombic'
loop_
_space_group_symop_operation_xyz
x,y,z
-x,-y,z
x,-y,-z
-x,y,-z
-x,-y,-z
x,y,-z
-x,y,z
x,-y,z
x,1/2+y,1/2+z
-x,1/2-y,1/2+z
x,1/2-y,1/2-z
-x,1/2+y,1/2-z
-x,1/2-y,1/2-z
x,1/2+y,1/2-z
-x,1/2+y,1/2+z
x,1/2-y,1/2+z
1/2+x,y,1/2+z
1/2-x,-y,1/2+z
1/2+x,-y,1/2-z
1/2-x,y,1/2-z
1/2-x,-y,1/2-z
1/2+x,y,1/2-z
1/2-x,y,1/2+z
1/2+x,-y,1/2+z
1/2+x,1/2+y,z
1/2-x,1/2-y,z
1/2+x,1/2-y,-z
1/2-x,1/2+y,-z
1/2-x,1/2-y,-z
1/2+x,1/2+y,-z
1/2-x,1/2+y,z
1/2+x,1/2-y,z
loop_
_atom_site_type_symbol
_atom_site_label
_atom_site_fract_x
_atom_site_fract_y
_atom_site_fract_z
Si Si1 0.375392 0.684399 0.802082
Si Si2 0.294082 0.184993 0.848303
Si Si3 0.500000 0.815623 0.556461
Si Si4 0.918044 0.184305 0.394730
Si Si5 0.165331 0.184178 0.553694
O O1 0.373551 0.500000 0.801175
O O2 0.390663 0.750000 0.750000
O O3 0.329464 0.750059 0.812749
O O4 0.409073 0.740855 0.841753
O O5 0.250000 0.250000 0.830538
O O6 0.302862 0.243869 0.904394
O O7 0.294747 0.000000 0.844891
O O8 0.500000 0.758156 0.500000
O O9 0.539698 0.749195 0.583919
O O10 0.500000 0.000000 0.559804
O O11 0.881349 0.233803 0.431982
O O12 0.920550 0.000000 0.388249
O O13 0.176342 0.257168 0.500000
O O14 0.167993 0.000000 0.550687
#
# Coordination Sequence:
#
# PCOD8284738 Si02
#       5
#    32  32  16  32  32
#     4  11  22  39  61  83 109 142 181 227 281 337
#     4  10  20  34  52  78 110 144 185 231 278 329
#     4  11  23  37  56  87 124 157 189 227 271 319
#     4  10  20  36  58  84 113 147 188 230 275 328
#     4   8  15  29  50  75 105 142 182 223 268 321
#
# _framework density 19.206005000000001
#
# number of rings (size 3 to 8) (size 9 to 14) (size 15 to 20)
#    0.000    2.111    0.000    5.667    0.000    2.667 
#    0.000    2.778    0.000   12.667    0.000    0.000 
#    0.000    0.000    0.000    0.000    0.000    0.000 
#
# Total GULP energy -446389.134789 kJ/mol
# GULP energy per Si atom -12399.698189 kJ/mol
# Density = 1.916229 g / cm^3
# Si number density = 19.206005 Si / 1000 Ang^3
#
#
#
# Elastic Constant Matrix: (Units=GPa)
#
#
# Indices 1 2 3 4 5 6 
#
# 1 109.5347 40.7983 35.1659 0.0000 0.0000 0.0001
# 2 40.7983 107.4573 43.4873 0.0000 0.0001 -0.0002
# 3 35.1659 43.4873 127.6880 0.0000 0.0000 0.0000
# 4 0.0000 0.0000 0.0000 26.6442 0.0000 0.0000
# 5 0.0000 0.0001 0.0000 0.0000 -0.5979 0.0000
# 6 0.0001 -0.0002 0.0000 0.0000 0.0000 27.0711
#
#
#
# Elastic Compliance Matrix: (Units=1/GPa)
#
#
# Indices 1 2 3 4 5 6 
#
# 1 0.011003 -0.003423 -0.001865 0.000000 -0.000001 0.000000
# 2 -0.003423 0.011859 -0.003096 0.000000 0.000001 0.000000
# 3 -0.001865 -0.003096 0.009400 0.000000 -0.000001 0.000000
# 4 0.000000 0.000000 0.000000 0.037532 0.000001 0.000000
# 5 -0.000001 0.000001 -0.000001 0.000001 -1.672572 0.000002
# 6 0.000000 0.000000 0.000000 0.000000 0.000002 0.036940
#
#
# Mechanical properties :
#
#
# Convention : Reuss Voigt Hill
#
# Bulk Modulus (GPa) = 64.54062 64.84254 64.69158
# Shear Modulus (GPa) = -3.23854 25.63872 11.20009
#
# Velocity S-wave (km/s) = -1.29995 3.65764 2.41748
# Velocity P-wave (km/s) = 5.60573 7.18837 6.44581
#
# Compressibility (1/GPa) = 0.01549412
#
# Stress axis : x y z
#
# Youngs Moduli (GPa) = 90.88361 84.32727 106.38845
#
# Poissons Ratio (x) = 0.28865 0.19836
# Poissons Ratio (y) = 0.31109 0.32938
# Poissons Ratio (z) = 0.16945 0.26108
#
# Static dielectric constant tensor:
#      x y z
#    x 3.441940 0.000000 0.000000 
#    y 0.000000 3.418670 0.000000 
#    z 0.000000 0.000000 3.883650 
# 
# 
# High freq. dielectric constant tensor:
#      x y z
#    x 1.738480 0.000000 0.000000 
#    y 0.000000 1.743010 0.000000 
#    z 0.000000 0.000000 1.757080 
# 
# From -- ./inp_files/47390.got.cif
#   From: 2010.03.12/outbox.cif.g09.slc.cpg/sg69_24_cif.got.tgz:47390.got - 2010.04.10 23:52:46.
