data_PCOD8284368
_publ_section_title
;
Structure prediction by ZEFSAII (Michael W. Deem and Ramdas Pophale) SiO2 
 PCOD8284368
Probable space group: F M M M
;
_chemical_formula_sum "Si O2"
_cell_formula_units_Z 144
_cell_length_a 25.217827
_cell_length_b 14.278194
_cell_length_c 20.967394
_cell_angle_alpha 90.000000
_cell_angle_beta 90.000000
_cell_angle_gamma 90.000000
_cell_volume 7549.625269
_symmetry_space_group_name_H-M "F M M M"
_symmetry_group_IT_number 69
_symmetry_cell_setting 'orthorhombic'
loop_
_space_group_symop_operation_xyz
x,y,z
-x,-y,z
x,-y,-z
-x,y,-z
-x,-y,-z
x,y,-z
-x,y,z
x,-y,z
x,1/2+y,1/2+z
-x,1/2-y,1/2+z
x,1/2-y,1/2-z
-x,1/2+y,1/2-z
-x,1/2-y,1/2-z
x,1/2+y,1/2-z
-x,1/2+y,1/2+z
x,1/2-y,1/2+z
1/2+x,y,1/2+z
1/2-x,-y,1/2+z
1/2+x,-y,1/2-z
1/2-x,y,1/2-z
1/2-x,-y,1/2-z
1/2+x,y,1/2-z
1/2-x,y,1/2+z
1/2+x,-y,1/2+z
1/2+x,1/2+y,z
1/2-x,1/2-y,z
1/2+x,1/2-y,-z
1/2-x,1/2+y,-z
1/2-x,1/2-y,-z
1/2+x,1/2+y,-z
1/2-x,1/2+y,z
1/2+x,1/2-y,z
loop_
_atom_site_type_symbol
_atom_site_label
_atom_site_fract_x
_atom_site_fract_y
_atom_site_fract_z
Si Si1 0.787550 0.000000 0.076651
Si Si2 0.138488 0.250000 0.750000
Si Si3 0.440714 0.110165 0.191078
Si Si4 0.307356 0.203162 0.379954
Si Si5 0.169933 0.500000 0.075259
Si Si6 0.105284 0.675296 0.928209
O O1 0.811595 0.907225 0.107644
O O2 0.728173 0.000000 0.102781
O O3 0.793000 0.000000 0.000000
O O4 0.101497 0.159087 0.738091
O O5 0.177837 0.227557 0.807795
O O6 0.500000 0.120066 0.219510
O O7 0.441670 0.169917 0.123777
O O8 0.426929 0.000000 0.182117
O O9 0.250000 0.250000 0.397816
O O10 0.354844 0.237476 0.426239
O O11 0.140830 0.408692 0.099519
O O12 0.171366 0.500000 0.000000
O O13 0.082722 0.662665 0.000000
#
# Coordination Sequence:
#
# PCOD8284368 Si02
#       6
#    16  16  32  32  16  32
#     4  11  22  34  56  84 113 151 190 227 268 324
#     4  10  24  40  56  74 112 150 188 228 276 322
#     4  10  21  37  58  81 104 136 183 235 282 331
#     4  11  22  37  54  82 113 151 189 223 266 323
#     4   9  16  28  48  74 108 142 170 207 259 320
#     4  10  19  33  53  80 114 144 172 215 276 335
#
# _framework density 19.073796000000002
#
# number of rings (size 3 to 8) (size 9 to 14) (size 15 to 20)
#    0.000    1.778    3.333    1.333    1.556    1.333 
#    0.000    2.222    0.000    0.000    0.000    0.000 
#    0.000    9.333    0.000    0.000    0.000    0.000 
#
# Total GULP energy -446011.770334 kJ/mol
# GULP energy per Si atom -12389.215843 kJ/mol
# Density = 1.903038 g / cm^3
# Si number density = 19.073796 Si / 1000 Ang^3
#
#
#
# Elastic Constant Matrix: (Units=GPa)
#
#
# Indices 1 2 3 4 5 6 
#
# 1 57.5373 27.7318 3.4499 0.0000 0.0000 0.0000
# 2 27.7318 119.8985 8.3968 0.0000 0.0000 0.0000
# 3 3.4499 8.3968 63.2992 0.0000 0.0000 0.0000
# 4 0.0000 0.0000 0.0000 68.0016 0.0000 0.0000
# 5 0.0000 0.0000 0.0000 0.0000 14.4288 0.0000
# 6 0.0000 0.0000 0.0000 0.0000 0.0000 89.3891
#
#
#
# Elastic Compliance Matrix: (Units=1/GPa)
#
#
# Indices 1 2 3 4 5 6 
#
# 1 0.019575 -0.004495 -0.000471 0.000000 0.000000 0.000000
# 2 -0.004495 0.009451 -0.001009 0.000000 0.000000 0.000000
# 3 -0.000471 -0.001009 0.015957 0.000000 0.000000 0.000000
# 4 0.000000 0.000000 0.000000 0.014706 0.000000 0.000000
# 5 0.000000 0.000000 0.000000 0.000000 0.069306 0.000000
# 6 0.000000 0.000000 0.000000 0.000000 0.000000 0.011187
#
#
# Mechanical properties :
#
#
# Convention : Reuss Voigt Hill
#
# Bulk Modulus (GPa) = 30.27100 35.54353 32.90727
# Shear Modulus (GPa) = 30.64850 47.77434 39.21142
#
# Velocity S-wave (km/s) = 4.01289 5.01014 4.53898
# Velocity P-wave (km/s) = 6.11359 7.22107 6.69028
#
# Compressibility (1/GPa) = 0.03303492
#
# Stress axis : x y z
#
# Youngs Moduli (GPa) = 51.08686 105.81360 62.66664
#
# Poissons Ratio (x) = 0.47558 0.02949
# Poissons Ratio (y) = 0.22961 0.06321
# Poissons Ratio (z) = 0.02404 0.10673
#
# Static dielectric constant tensor:
#      x y z
#    x 3.454860 0.000000 0.000000 
#    y 0.000000 3.520890 0.000000 
#    z 0.000000 0.000000 3.308790 
# 
# 
# High freq. dielectric constant tensor:
#      x y z
#    x 1.731840 0.000000 0.000000 
#    y 0.000000 1.744050 0.000000 
#    z 0.000000 0.000000 1.732570 
# 
# From -- ./inp_files/38194.got.cif
#   From: 2010.03.12/outbox.cif.g09.slc.cpg/sg69_20_cif.got.tgz:38194.got - 2010.04.10 23:52:46.
