data_PCOD8284521
_publ_section_title
;
Structure prediction by ZEFSAII (Michael W. Deem and Ramdas Pophale) SiO2 
 PCOD8284521
Probable space group: F M M M
;
_chemical_formula_sum "Si O2"
_cell_formula_units_Z 144
_cell_length_a 18.874731
_cell_length_b 19.753761
_cell_length_c 19.493895
_cell_angle_alpha 90.000000
_cell_angle_beta 90.000000
_cell_angle_gamma 90.000000
_cell_volume 7268.238809
_symmetry_space_group_name_H-M "F M M M"
_symmetry_group_IT_number 69
_symmetry_cell_setting 'orthorhombic'
loop_
_space_group_symop_operation_xyz
x,y,z
-x,-y,z
x,-y,-z
-x,y,-z
-x,-y,-z
x,y,-z
-x,y,z
x,-y,z
x,1/2+y,1/2+z
-x,1/2-y,1/2+z
x,1/2-y,1/2-z
-x,1/2+y,1/2-z
-x,1/2-y,1/2-z
x,1/2+y,1/2-z
-x,1/2+y,1/2+z
x,1/2-y,1/2+z
1/2+x,y,1/2+z
1/2-x,-y,1/2+z
1/2+x,-y,1/2-z
1/2-x,y,1/2-z
1/2-x,-y,1/2-z
1/2+x,y,1/2-z
1/2-x,y,1/2+z
1/2+x,-y,1/2+z
1/2+x,1/2+y,z
1/2-x,1/2-y,z
1/2+x,1/2-y,-z
1/2-x,1/2+y,-z
1/2-x,1/2-y,-z
1/2+x,1/2+y,-z
1/2-x,1/2+y,z
1/2+x,1/2-y,z
loop_
_atom_site_type_symbol
_atom_site_label
_atom_site_fract_x
_atom_site_fract_y
_atom_site_fract_z
Si Si1 0.326694 0.679848 0.281664
Si Si2 0.163406 0.421512 0.426286
Si Si3 0.421633 0.000000 0.919666
Si Si4 0.678417 0.622634 0.421363
Si Si5 0.582485 0.079359 0.704268
O O1 0.355167 0.750000 0.250000
O O2 0.250000 0.663214 0.250000
O O3 0.324305 0.683710 0.365396
O O4 0.380682 0.619467 0.265580
O O5 0.143062 0.388069 0.500000
O O6 0.145550 0.500000 0.429643
O O7 0.246201 0.412879 0.412516
O O8 0.115667 0.390388 0.366076
O O9 0.379933 0.067618 0.899120
O O10 0.500000 0.000000 0.884005
O O11 0.431550 0.000000 0.000000
O O12 0.667179 0.649167 0.500000
O O13 0.500000 0.095034 0.703609
O O14 0.598597 0.000000 0.714672
#
# Coordination Sequence:
#
# PCOD8284521 Si02
#       5
#    32  32  16  32  32
#     4  11  24  41  59  85 123 159 201 248 302 362
#     4   9  16  30  55  87 119 152 194 244 299 356
#     4   9  18  32  55  92 129 155 191 248 303 355
#     4  10  19  35  60  87 118 157 199 243 298 360
#     4  10  22  38  59  88 118 156 203 248 302 360
#
# _framework density 19.812227
#
# number of rings (size 3 to 8) (size 9 to 14) (size 15 to 20)
#    0.000    2.111    3.333    0.000    1.556    2.222 
#    0.000    5.556    0.000    0.000    0.000    0.000 
#    0.000    0.000    0.000    0.000    0.000    0.000 
#
# Total GULP energy -446158.932721 kJ/mol
# GULP energy per Si atom -12393.303687 kJ/mol
# Density = 1.976713 g / cm^3
# Si number density = 19.812227 Si / 1000 Ang^3
#
#
#
# Elastic Constant Matrix: (Units=GPa)
#
#
# Indices 1 2 3 4 5 6 
#
# 1 109.2977 33.2339 37.9153 0.0000 0.0000 0.0000
# 2 33.2339 61.1606 47.8473 0.0000 0.0000 0.0000
# 3 37.9153 47.8473 150.3170 0.0000 0.0000 0.0000
# 4 0.0000 0.0000 0.0000 27.8689 0.0000 0.0000
# 5 0.0000 0.0000 0.0000 0.0000 23.9971 0.0000
# 6 0.0000 0.0000 0.0000 0.0000 0.0000 17.3878
#
#
#
# Elastic Compliance Matrix: (Units=1/GPa)
#
#
# Indices 1 2 3 4 5 6 
#
# 1 0.011113 -0.005121 -0.001173 0.000000 0.000000 0.000000
# 2 -0.005121 0.024132 -0.006390 0.000000 0.000000 0.000000
# 3 -0.001173 -0.006390 0.008982 0.000000 0.000000 0.000000
# 4 0.000000 0.000000 0.000000 0.035882 0.000000 0.000000
# 5 0.000000 0.000000 0.000000 0.000000 0.041672 0.000000
# 6 0.000000 0.000000 0.000000 0.000000 0.000000 0.057511
#
#
# Mechanical properties :
#
#
# Convention : Reuss Voigt Hill
#
# Bulk Modulus (GPa) = 53.02250 62.08534 57.55392
# Shear Modulus (GPa) = 23.70255 27.30270 25.50262
#
# Velocity S-wave (km/s) = 3.46260 3.71627 3.59167
# Velocity P-wave (km/s) = 6.54268 7.05827 6.80536
#
# Compressibility (1/GPa) = 0.01885992
#
# Stress axis : x y z
#
# Youngs Moduli (GPa) = 89.98110 41.43883 111.32879
#
# Poissons Ratio (x) = 0.21221 0.13060
# Poissons Ratio (y) = 0.46081 0.71136
# Poissons Ratio (z) = 0.10556 0.26478
#
# Static dielectric constant tensor:
#      x y z
#    x 3.676270 0.000000 0.000000 
#    y 0.000000 3.191650 0.000000 
#    z 0.000000 0.000000 4.040840 
# 
# 
# High freq. dielectric constant tensor:
#      x y z
#    x 1.767230 0.000000 0.000000 
#    y 0.000000 1.727970 0.000000 
#    z 0.000000 0.000000 1.792130 
# 
# From -- ./inp_files/24442.got.cif
#   From: 2010.03.12/outbox.cif.g09.slc.cpg/sg69_13_cif.got.tgz:24442.got - 2010.04.10 23:52:46.
