data_PCOD8284828
_publ_section_title
;
Structure prediction by ZEFSAII (Michael W. Deem and Ramdas Pophale) SiO2 
 PCOD8284828
Probable space group: F M M M
;
_chemical_formula_sum "Si O2"
_cell_formula_units_Z 192
_cell_length_a 26.187373
_cell_length_b 21.062478
_cell_length_c 17.811625
_cell_angle_alpha 90.000000
_cell_angle_beta 90.000000
_cell_angle_gamma 90.000000
_cell_volume 9824.375237
_symmetry_space_group_name_H-M "F M M M"
_symmetry_group_IT_number 69
_symmetry_cell_setting 'orthorhombic'
loop_
_space_group_symop_operation_xyz
x,y,z
-x,-y,z
x,-y,-z
-x,y,-z
-x,-y,-z
x,y,-z
-x,y,z
x,-y,z
x,1/2+y,1/2+z
-x,1/2-y,1/2+z
x,1/2-y,1/2-z
-x,1/2+y,1/2-z
-x,1/2-y,1/2-z
x,1/2+y,1/2-z
-x,1/2+y,1/2+z
x,1/2-y,1/2+z
1/2+x,y,1/2+z
1/2-x,-y,1/2+z
1/2+x,-y,1/2-z
1/2-x,y,1/2-z
1/2-x,-y,1/2-z
1/2+x,y,1/2-z
1/2-x,y,1/2+z
1/2+x,-y,1/2+z
1/2+x,1/2+y,z
1/2-x,1/2-y,z
1/2+x,1/2-y,-z
1/2-x,1/2+y,-z
1/2-x,1/2-y,-z
1/2+x,1/2+y,-z
1/2-x,1/2+y,z
1/2+x,1/2-y,z
loop_
_atom_site_type_symbol
_atom_site_label
_atom_site_fract_x
_atom_site_fract_y
_atom_site_fract_z
Si Si1 0.691832 0.000000 0.164972
Si Si2 0.807599 0.124750 0.416184
Si Si3 0.151256 0.252511 0.161548
Si Si4 0.812399 0.126555 0.915961
Si Si5 0.941379 0.705158 0.588104
Si Si6 0.442217 0.566876 0.911268
Si Si7 0.185700 0.500000 0.335394
O O1 0.669601 0.061956 0.122933
O O2 0.752972 0.000000 0.163435
O O3 0.668741 0.000000 0.248789
O O4 0.830729 0.132178 0.500000
O O5 0.820209 0.185340 0.366234
O O6 0.747496 0.116632 0.421442
O O7 0.154155 0.250000 0.250000
O O8 0.178755 0.191073 0.128550
O O9 0.092314 0.255602 0.133719
O O10 0.836243 0.063615 0.876297
O O11 0.836054 0.131219 0.000000
O O12 0.936941 0.718507 0.500000
O O13 0.916806 0.635047 0.609886
O O14 0.000000 0.710512 0.613965
O O15 0.500000 0.569907 0.880532
O O16 0.416899 0.500000 0.880024
O O17 0.444547 0.563277 0.000000
#
# Coordination Sequence:
#
# PCOD8284828 Si02
#       7
#    16  32  32  32  32  32  16
#     4   9  17  31  53  79 104 137 178 215 263 319
#     4  10  20  35  56  78 103 138 182 228 265 307
#     4  12  24  35  50  75 108 142 179 221 272 321
#     4  10  20  35  54  78 108 142 178 216 261 317
#     4   9  18  34  54  74 100 134 174 219 263 315
#     4   7  10  20  42  70  95 120 153 193 238 292
#     4   9  17  31  51  77 112 143 168 207 261 321
#
# _framework density 19.543227999999999
#
# number of rings (size 3 to 8) (size 9 to 14) (size 15 to 20)
#    0.000    2.500    0.000    5.000    0.000    6.333 
#    1.500    0.000    0.000    0.000    0.000    0.583 
#    0.000    2.667    0.000    0.000    0.000    0.000 
#
# Total GULP energy -594895.548618 kJ/mol
# GULP energy per Si atom -12393.657263 kJ/mol
# Density = 1.949875 g / cm^3
# Si number density = 19.543228 Si / 1000 Ang^3
#
#
#
# Elastic Constant Matrix: (Units=GPa)
#
#
# Indices 1 2 3 4 5 6 
#
# 1 16.2563 17.0474 14.3169 0.0000 0.0000 0.0000
# 2 17.0474 134.4684 60.7255 0.0000 0.0000 0.0000
# 3 14.3169 60.7255 143.8376 0.0000 0.0000 0.0000
# 4 0.0000 0.0000 0.0000 27.9932 0.0000 0.0000
# 5 0.0000 0.0000 0.0000 0.0000 16.1258 0.0000
# 6 0.0000 0.0000 0.0000 0.0000 0.0000 26.0541
#
#
#
# Elastic Compliance Matrix: (Units=1/GPa)
#
#
# Indices 1 2 3 4 5 6 
#
# 1 0.072893 -0.007370 -0.004144 0.000000 0.000000 0.000000
# 2 -0.007370 0.009934 -0.003460 0.000000 0.000000 0.000000
# 3 -0.004144 -0.003460 0.008826 0.000000 0.000000 0.000000
# 4 0.000000 0.000000 0.000000 0.035723 0.000000 0.000000
# 5 0.000000 0.000000 0.000000 0.000000 0.062012 0.000000
# 6 0.000000 0.000000 0.000000 0.000000 0.000000 0.038382
#
#
# Mechanical properties :
#
#
# Convention : Reuss Voigt Hill
#
# Bulk Modulus (GPa) = 16.20638 53.19354 34.69996
# Shear Modulus (GPa) = 17.96719 27.53277 22.74998
#
# Velocity S-wave (km/s) = 3.03538 3.75749 3.41557
# Velocity P-wave (km/s) = 4.53820 6.78988 5.77485
#
# Compressibility (1/GPa) = 0.06170409
#
# Stress axis : x y z
#
# Youngs Moduli (GPa) = 13.71879 100.66819 113.30657
#
# Poissons Ratio (x) = 0.74189 0.46955
# Poissons Ratio (y) = 0.10110 0.39207
# Poissons Ratio (z) = 0.05685 0.34834
#
# Static dielectric constant tensor:
#      x y z
#    x 3.482840 0.000000 0.000000 
#    y 0.000000 3.852220 0.000000 
#    z 0.000000 0.000000 3.469990 
# 
# 
# High freq. dielectric constant tensor:
#      x y z
#    x 1.749930 0.000000 0.000000 
#    y 0.000000 1.772410 0.000000 
#    z 0.000000 0.000000 1.736810 
# 
# From -- ./inp_files/27814.got.cif
#   From: 2010.03.12/outbox.cif.g09.slc.cpg/sg69_14_cif.got.tgz:27814.got - 2010.04.10 23:52:46.
