data_PCOD8284988
_publ_section_title
;
Structure prediction by ZEFSAII (Michael W. Deem and Ramdas Pophale) SiO2 
 PCOD8284988
Probable space group: F M M M
;
_chemical_formula_sum "Si O2"
_cell_formula_units_Z 208
_cell_length_a 17.114031
_cell_length_b 21.496299
_cell_length_c 27.956226
_cell_angle_alpha 90.000000
_cell_angle_beta 90.000000
_cell_angle_gamma 90.000000
_cell_volume 10284.769226
_symmetry_space_group_name_H-M "F M M M"
_symmetry_group_IT_number 69
_symmetry_cell_setting 'orthorhombic'
loop_
_space_group_symop_operation_xyz
x,y,z
-x,-y,z
x,-y,-z
-x,y,-z
-x,-y,-z
x,y,-z
-x,y,z
x,-y,z
x,1/2+y,1/2+z
-x,1/2-y,1/2+z
x,1/2-y,1/2-z
-x,1/2+y,1/2-z
-x,1/2-y,1/2-z
x,1/2+y,1/2-z
-x,1/2+y,1/2+z
x,1/2-y,1/2+z
1/2+x,y,1/2+z
1/2-x,-y,1/2+z
1/2+x,-y,1/2-z
1/2-x,y,1/2-z
1/2-x,-y,1/2-z
1/2+x,y,1/2-z
1/2-x,y,1/2+z
1/2+x,-y,1/2+z
1/2+x,1/2+y,z
1/2-x,1/2-y,z
1/2+x,1/2-y,-z
1/2-x,1/2+y,-z
1/2-x,1/2-y,-z
1/2+x,1/2+y,-z
1/2-x,1/2+y,z
1/2+x,1/2-y,z
loop_
_atom_site_type_symbol
_atom_site_label
_atom_site_fract_x
_atom_site_fract_y
_atom_site_fract_z
Si Si1 0.228054 0.430034 0.696176
Si Si2 0.204266 0.312799 0.856802
Si Si3 0.662733 0.372381 0.446347
Si Si4 0.826297 0.928802 0.053891
Si Si5 0.089909 0.247046 0.802647
Si Si6 0.000000 0.431216 0.943232
Si Si7 0.408564 0.116551 0.646836
O O1 0.260312 0.500000 0.686092
O O2 0.250000 0.410386 0.750000
O O3 0.260062 0.378755 0.659279
O O4 0.134861 0.429853 0.684458
O O5 0.250000 0.250000 0.842116
O O6 0.189582 0.314548 0.913623
O O7 0.121409 0.306834 0.830790
O O8 0.652150 0.347051 0.500000
O O9 0.732027 0.423281 0.443312
O O10 0.580097 0.398173 0.426353
O O11 0.872162 0.887261 0.093143
O O12 0.848186 0.000000 0.064617
O O13 0.853734 0.909630 0.000000
O O14 0.129348 0.250000 0.750000
O O15 0.108435 0.185242 0.833019
O O16 0.000000 0.258296 0.796352
O O17 0.000000 0.500000 0.920735
O O18 0.000000 0.435493 0.000000
O O19 0.500000 0.099979 0.645526
#
# Coordination Sequence:
#
# PCOD8284988 Si02
#       7
#    32  32  32  32  32  16  32
#     4  11  24  41  62  92 126 158 200 260 319 376
#     4  12  23  38  65  90 115 164 210 255 304 377
#     4  10  21  36  57  88 126 162 207 259 311 368
#     4  10  20  36  59  88 126 171 214 257 308 377
#     4  10  22  40  63  90 120 157 209 264 313 375
#     4   9  18  34  58  88 121 166 213 251 304 375
#     4  11  22  40  64  93 125 164 209 262 319 375
#
# _framework density 20.224080000000001
#
# number of rings (size 3 to 8) (size 9 to 14) (size 15 to 20)
#    0.000    1.462    3.077    1.846    1.077    4.308 
#    0.000    1.538    0.000    1.846    0.000    0.000 
#    0.000    0.000    0.000    0.000    0.000    0.000 
#
# Total GULP energy -644279.280598 kJ/mol
# GULP energy per Si atom -12389.986165 kJ/mol
# Density = 2.017805 g / cm^3
# Si number density = 20.224080 Si / 1000 Ang^3
#
#
#
# Elastic Constant Matrix: (Units=GPa)
#
#
# Indices 1 2 3 4 5 6 
#
# 1 83.7874 54.1711 66.6203 0.0000 0.0000 0.0000
# 2 54.1711 87.9902 48.7203 0.0000 0.0000 0.0000
# 3 66.6203 48.7203 154.1448 0.0000 0.0000 0.0000
# 4 0.0000 0.0000 0.0000 29.5663 0.0000 0.0000
# 5 0.0000 0.0000 0.0000 0.0000 32.6763 0.0000
# 6 0.0000 0.0000 0.0000 0.0000 0.0000 19.9775
#
#
#
# Elastic Compliance Matrix: (Units=1/GPa)
#
#
# Indices 1 2 3 4 5 6 
#
# 1 0.025070 -0.011436 -0.007220 0.000000 0.000000 0.000000
# 2 -0.011436 0.018993 -0.001060 0.000000 0.000000 0.000000
# 3 -0.007220 -0.001060 0.009943 0.000000 0.000000 0.000000
# 4 0.000000 0.000000 0.000000 0.033822 0.000000 0.000000
# 5 0.000000 0.000000 0.000000 0.000000 0.030603 0.000000
# 6 0.000000 0.000000 0.000000 0.000000 0.000000 0.050056
#
#
# Mechanical properties :
#
#
# Convention : Reuss Voigt Hill
#
# Bulk Modulus (GPa) = 68.62586 73.88288 71.25437
# Shear Modulus (GPa) = 23.49855 26.87139 25.18497
#
# Velocity S-wave (km/s) = 3.41238 3.64906 3.53270
# Velocity P-wave (km/s) = 7.03791 7.37331 7.20756
#
# Compressibility (1/GPa) = 0.01457177
#
# Stress axis : x y z
#
# Youngs Moduli (GPa) = 39.88842 52.65159 100.57192
#
# Poissons Ratio (x) = 0.60214 0.72617
# Poissons Ratio (y) = 0.45618 0.10664
# Poissons Ratio (z) = 0.28801 0.05583
#
# Static dielectric constant tensor:
#      x y z
#    x 3.858990 0.000000 0.000000 
#    y 0.000000 3.490200 0.000000 
#    z 0.000000 0.000000 3.903650 
# 
# 
# High freq. dielectric constant tensor:
#      x y z
#    x 1.792900 0.000000 0.000000 
#    y 0.000000 1.771970 0.000000 
#    z 0.000000 0.000000 1.797340 
# 
# From -- ./inp_files/46509.got.cif
#   From: 2010.03.12/outbox.cif.g09.slc.cpg/sg69_24_cif.got.tgz:46509.got - 2010.04.10 23:52:46.
