data_PCOD8284063
_publ_section_title
;
Structure prediction by ZEFSAII (Michael W. Deem and Ramdas Pophale) SiO2 
 PCOD8284063
Probable space group: F M M M
;
_chemical_formula_sum "Si O2"
_cell_formula_units_Z 192
_cell_length_a 16.512196
_cell_length_b 19.940627
_cell_length_c 28.766745
_cell_angle_alpha 90.000000
_cell_angle_beta 90.000000
_cell_angle_gamma 90.000000
_cell_volume 9471.840333
_symmetry_space_group_name_H-M "F M M M"
_symmetry_group_IT_number 69
_symmetry_cell_setting 'orthorhombic'
loop_
_space_group_symop_operation_xyz
x,y,z
-x,-y,z
x,-y,-z
-x,y,-z
-x,-y,-z
x,y,-z
-x,y,z
x,-y,z
x,1/2+y,1/2+z
-x,1/2-y,1/2+z
x,1/2-y,1/2-z
-x,1/2+y,1/2-z
-x,1/2-y,1/2-z
x,1/2+y,1/2-z
-x,1/2+y,1/2+z
x,1/2-y,1/2+z
1/2+x,y,1/2+z
1/2-x,-y,1/2+z
1/2+x,-y,1/2-z
1/2-x,y,1/2-z
1/2-x,-y,1/2-z
1/2+x,y,1/2-z
1/2-x,y,1/2+z
1/2+x,-y,1/2+z
1/2+x,1/2+y,z
1/2-x,1/2-y,z
1/2+x,1/2-y,-z
1/2-x,1/2+y,-z
1/2-x,1/2-y,-z
1/2+x,1/2+y,-z
1/2-x,1/2+y,z
1/2+x,1/2-y,z
loop_
_atom_site_type_symbol
_atom_site_label
_atom_site_fract_x
_atom_site_fract_y
_atom_site_fract_z
Si Si1 0.131160 0.357333 0.370477
Si Si2 0.907656 0.256811 0.802571
Si Si3 0.839680 0.733352 0.448802
Si Si4 0.317165 0.376238 0.644075
Si Si5 0.593292 0.877254 0.948556
Si Si6 0.762602 0.000000 0.303192
Si Si7 0.588455 0.500000 0.846705
O O1 0.096503 0.316449 0.326324
O O2 0.110839 0.319352 0.418013
O O3 0.226910 0.356793 0.367268
O O4 0.092393 0.431050 0.376054
O O5 0.871887 0.250000 0.750000
O O6 0.860807 0.311757 0.833539
O O7 0.000000 0.281479 0.799569
O O8 0.828790 0.702238 0.500000
O O9 0.750000 0.750000 0.428523
O O10 0.896330 0.797833 0.449249
O O11 0.357251 0.404419 0.596081
O O12 0.314931 0.436349 0.680943
O O13 0.500000 0.896312 0.941037
O O14 0.621858 0.905240 0.000000
O O15 0.750000 0.000000 0.250000
O O16 0.668158 0.000000 0.316115
O O17 0.500000 0.500000 0.820860
#
# Coordination Sequence:
#
# PCOD8284063 Si02
#       7
#    32  32  32  32  32  16  16
#     4  11  21  38  60  88 120 161 209 257 310 372
#     4  11  24  38  58  89 122 157 207 267 324 377
#     4  10  18  32  58  91 123 158 202 252 311 374
#     4  11  22  39  62  88 122 164 207 262 315 380
#     4  10  20  35  58  91 128 162 202 258 325 387
#     4  10  26  46  65  92 123 165 212 251 307 381
#     4  10  24  42  63  84 120 168 209 252 308 370
#
# _framework density 20.270612
#
# number of rings (size 3 to 8) (size 9 to 14) (size 15 to 20)
#    0.000    1.500    3.333    1.500    4.667    1.333 
#    0.000    3.333    0.000    4.500    0.000    0.000 
#    0.000    0.000    0.000    0.000    0.000    0.000 
#
# Total GULP energy -594709.784604 kJ/mol
# GULP energy per Si atom -12389.787179 kJ/mol
# Density = 2.022448 g / cm^3
# Si number density = 20.270612 Si / 1000 Ang^3
#
#
#
# Elastic Constant Matrix: (Units=GPa)
#
#
# Indices 1 2 3 4 5 6 
#
# 1 89.7770 14.5733 25.1017 0.0000 0.0000 0.0000
# 2 14.5733 108.6504 50.7498 0.0000 0.0000 0.0000
# 3 25.1017 50.7498 147.3878 0.0000 0.0000 0.0000
# 4 0.0000 0.0000 0.0000 24.1048 0.0000 0.0000
# 5 0.0000 0.0000 0.0000 0.0000 24.3404 0.0000
# 6 0.0000 0.0000 0.0000 0.0000 0.0000 -13.4011
#
#
#
# Elastic Compliance Matrix: (Units=1/GPa)
#
#
# Indices 1 2 3 4 5 6 
#
# 1 0.011749 -0.000764 -0.001738 0.000000 0.000000 0.000000
# 2 -0.000764 0.011018 -0.003664 0.000000 0.000000 0.000000
# 3 -0.001738 -0.003664 0.008342 0.000000 0.000000 0.000000
# 4 0.000000 0.000000 0.000000 0.041486 0.000000 0.000000
# 5 0.000000 0.000000 0.000000 0.000000 0.041084 0.000000
# 6 0.000000 0.000000 0.000000 0.000000 0.000000 -0.074621
#
#
# Mechanical properties :
#
#
# Convention : Reuss Voigt Hill
#
# Bulk Modulus (GPa) = 53.25517 58.51830 55.88674
# Shear Modulus (GPa) = 86.73405 24.03483 55.38444
#
# Velocity S-wave (km/s) = 6.54836 3.44713 5.23277
# Velocity P-wave (km/s) = 9.13804 6.69140 8.00870
#
# Compressibility (1/GPa) = 0.01877752
#
# Stress axis : x y z
#
# Youngs Moduli (GPa) = 85.11625 90.76452 119.87188
#
# Poissons Ratio (x) = 0.06936 0.20831
# Poissons Ratio (y) = 0.06504 0.43915
# Poissons Ratio (z) = 0.14792 0.33252
#
# Static dielectric constant tensor:
#      x y z
#    x 3.450690 0.000000 0.000000 
#    y 0.000000 4.130220 0.000000 
#    z 0.000000 0.000000 4.008800 
# 
# 
# High freq. dielectric constant tensor:
#      x y z
#    x 1.795550 0.000000 0.000000 
#    y 0.000000 1.776500 0.000000 
#    z 0.000000 0.000000 1.795600 
# 
# From -- ./inp_files/46439.got.cif
#   From: 2010.03.12/outbox.cif.g09.slc.cpg/sg69_24_cif.got.tgz:46439.got - 2010.04.10 23:52:46.
