data_PCOD8284700
_publ_section_title
;
Structure prediction by ZEFSAII (Michael W. Deem and Ramdas Pophale) SiO2 
 PCOD8284700
Probable space group: F M M M
;
_chemical_formula_sum "Si O2"
_cell_formula_units_Z 128
_cell_length_a 37.438313
_cell_length_b 28.770556
_cell_length_c 7.784218
_cell_angle_alpha 90.000000
_cell_angle_beta 90.000000
_cell_angle_gamma 90.000000
_cell_volume 8384.545305
_symmetry_space_group_name_H-M "F M M M"
_symmetry_group_IT_number 69
_symmetry_cell_setting 'orthorhombic'
loop_
_space_group_symop_operation_xyz
x,y,z
-x,-y,z
x,-y,-z
-x,y,-z
-x,-y,-z
x,y,-z
-x,y,z
x,-y,z
x,1/2+y,1/2+z
-x,1/2-y,1/2+z
x,1/2-y,1/2-z
-x,1/2+y,1/2-z
-x,1/2-y,1/2-z
x,1/2+y,1/2-z
-x,1/2+y,1/2+z
x,1/2-y,1/2+z
1/2+x,y,1/2+z
1/2-x,-y,1/2+z
1/2+x,-y,1/2-z
1/2-x,y,1/2-z
1/2-x,-y,1/2-z
1/2+x,y,1/2-z
1/2-x,y,1/2+z
1/2+x,-y,1/2+z
1/2+x,1/2+y,z
1/2-x,1/2-y,z
1/2+x,1/2-y,-z
1/2-x,1/2+y,-z
1/2-x,1/2-y,-z
1/2+x,1/2+y,-z
1/2-x,1/2+y,z
1/2+x,1/2-y,z
loop_
_atom_site_type_symbol
_atom_site_label
_atom_site_fract_x
_atom_site_fract_y
_atom_site_fract_z
Si Si1 0.337447 0.555304 0.000000
Si Si2 0.541676 0.103044 0.191821
Si Si3 0.418405 0.055063 0.500000
Si Si4 0.788711 0.555335 0.807452
Si Si5 0.957812 0.798867 0.809014
O O1 0.317935 0.574316 0.171923
O O2 0.336099 0.500000 0.000000
O O3 0.377874 0.573543 0.000000
O O4 0.500000 0.099506 0.239987
O O5 0.562952 0.072533 0.327357
O O6 0.554035 0.157134 0.194797
O O7 0.549036 0.083841 0.000000
O O8 0.420267 0.000000 0.500000
O O9 0.788330 0.500000 0.805921
O O10 0.750000 0.574143 0.750000
O O11 0.797810 0.573423 0.000000
O O12 0.940114 0.750000 0.750000
O O13 0.000000 0.792920 0.800038
O O14 0.944666 0.810163 0.000000
#
# Coordination Sequence:
#
# PCOD8284700 Si02
#       5
#    16  32  16  32  32
#     4   9  18  29  40  59  82 110 147 184 222 264
#     4  10  20  34  50  66  85 114 157 203 241 279
#     4  11  23  36  47  60  88 126 165 202 232 262
#     4   9  14  22  39  60  81 103 132 175 221 264
#     4   9  15  25  44  70  94 110 131 176 235 290
#
# _framework density 15.266182000000001
#
# number of rings (size 3 to 8) (size 9 to 14) (size 15 to 20)
#    0.000    2.500    2.500    1.125    0.000    5.500 
#    0.000    3.750    0.000    0.000    0.000    0.000 
#    0.000    0.000    0.000    0.000    0.000    3.750 
#
# Total GULP energy -396593.610892 kJ/mol
# GULP energy per Si atom -12393.550340 kJ/mol
# Density = 1.523144 g / cm^3
# Si number density = 15.266182 Si / 1000 Ang^3
#
#
#
# Elastic Constant Matrix: (Units=GPa)
#
#
# Indices 1 2 3 4 5 6 
#
# 1 84.0764 30.9730 57.9507 -0.0037 -0.0029 -0.0028
# 2 30.9730 46.6615 31.7394 -0.0504 0.0068 0.0042
# 3 57.9507 31.7394 135.0140 -0.0762 0.0094 0.0024
# 4 -0.0037 -0.0504 -0.0762 19.2089 0.0079 0.0028
# 5 -0.0029 0.0068 0.0094 0.0079 13.0626 -0.0010
# 6 -0.0028 0.0042 0.0024 0.0028 -0.0010 -0.4738
#
#
#
# Elastic Compliance Matrix: (Units=1/GPa)
#
#
# Indices 1 2 3 4 5 6 
#
# 1 0.019409 -0.008590 -0.006311 -0.000044 0.000013 -0.000223
# 2 -0.008590 0.029312 -0.003204 0.000063 -0.000015 0.000297
# 3 -0.006311 -0.003204 0.010869 0.000033 -0.000008 0.000064
# 4 -0.000044 0.000063 0.000033 0.052059 -0.000032 0.000304
# 5 0.000013 -0.000015 -0.000008 -0.000032 0.076554 -0.000162
# 6 -0.000223 0.000297 0.000064 0.000304 -0.000162 -2.110493
#
#
# Mechanical properties :
#
#
# Convention : Reuss Voigt Hill
#
# Bulk Modulus (GPa) = 42.77280 56.34203 49.55741
# Shear Modulus (GPa) = -2.66200 16.03213 6.68506
#
# Velocity S-wave (km/s) = -1.32193 3.24415 2.09488
# Velocity P-wave (km/s) = 5.07433 7.14278 6.19549
#
# Compressibility (1/GPa) = 0.02337934
#
# Stress axis : x y z
#
# Youngs Moduli (GPa) = 51.52377 34.11558 92.00774
#
# Poissons Ratio (x) = 0.29306 0.58067
# Poissons Ratio (y) = 0.44260 0.29476
# Poissons Ratio (z) = 0.32517 0.10929
#
# Static dielectric constant tensor:
#      x y z
#    x 2.754310 -0.000010 -0.000010 
#    y -0.000010 2.654810 -0.000040 
#    z -0.000010 -0.000040 3.241160 
# 
# 
# High freq. dielectric constant tensor:
#      x y z
#    x 1.545160 0.000000 0.000000 
#    y 0.000000 1.539070 0.000000 
#    z 0.000000 0.000000 1.609180 
# 
# From -- ./inp_files/5377.got.cif
#   From: 2010.03.12/outbox.cif.g09.slc.cpg/sg69_3_cif.got.tgz:5377.got - 2010.04.10 23:52:46.
