data_PCOD8284173
_publ_section_title
;
Structure prediction by ZEFSAII (Michael W. Deem and Ramdas Pophale) SiO2 
 PCOD8284173
Probable space group: F M M M
;
_chemical_formula_sum "Si O2"
_cell_formula_units_Z 240
_cell_length_a 29.790824
_cell_length_b 19.332425
_cell_length_c 26.216877
_cell_angle_alpha 90.000000
_cell_angle_beta 90.000000
_cell_angle_gamma 90.000000
_cell_volume 15099.056363
_symmetry_space_group_name_H-M "F M M M"
_symmetry_group_IT_number 69
_symmetry_cell_setting 'orthorhombic'
loop_
_space_group_symop_operation_xyz
x,y,z
-x,-y,z
x,-y,-z
-x,y,-z
-x,-y,-z
x,y,-z
-x,y,z
x,-y,z
x,1/2+y,1/2+z
-x,1/2-y,1/2+z
x,1/2-y,1/2-z
-x,1/2+y,1/2-z
-x,1/2-y,1/2-z
x,1/2+y,1/2-z
-x,1/2+y,1/2+z
x,1/2-y,1/2+z
1/2+x,y,1/2+z
1/2-x,-y,1/2+z
1/2+x,-y,1/2-z
1/2-x,y,1/2-z
1/2-x,-y,1/2-z
1/2+x,y,1/2-z
1/2-x,y,1/2+z
1/2+x,-y,1/2+z
1/2+x,1/2+y,z
1/2-x,1/2-y,z
1/2+x,1/2-y,-z
1/2-x,1/2+y,-z
1/2-x,1/2-y,-z
1/2+x,1/2+y,-z
1/2-x,1/2+y,z
1/2+x,1/2-y,z
loop_
_atom_site_type_symbol
_atom_site_label
_atom_site_fract_x
_atom_site_fract_y
_atom_site_fract_z
Si Si1 0.553096 0.348729 0.102167
Si Si2 0.948151 0.077244 0.618787
Si Si3 0.699422 0.825749 0.191178
Si Si4 0.877814 0.577939 0.797126
Si Si5 0.798544 0.670417 0.687618
Si Si6 0.946753 0.923177 0.000000
Si Si7 0.881001 0.918159 0.820083
Si Si8 0.553100 0.293582 0.556554
O O1 0.500000 0.359083 0.111201
O O2 0.570228 0.385439 0.050679
O O3 0.578509 0.382075 0.149864
O O4 0.566356 0.268128 0.095307
O O5 0.924011 0.086094 0.672778
O O6 0.929496 0.133251 0.578565
O O7 0.000000 0.091009 0.630470
O O8 0.940218 0.000000 0.596265
O O9 0.659716 0.876497 0.173701
O O10 0.748078 0.848491 0.168791
O O11 0.688440 0.748525 0.171296
O O12 0.701071 0.831346 0.251757
O O13 0.859265 0.500000 0.797859
O O14 0.888644 0.599880 0.739244
O O15 0.833400 0.615771 0.663203
O O16 0.000000 0.923466 0.000000
O O17 0.926637 0.000000 0.000000
O O18 0.880162 0.000000 0.831205
O O19 0.574096 0.282679 0.500000
O O20 0.500000 0.294289 0.550733
#
# Coordination Sequence:
#
# PCOD8284173 Si02
#       8
#    32  32  32  32  32  16  32  32
#     4  10  19  31  45  65  91 122 158 193 229 267
#     4   9  18  31  46  66  94 124 151 182 222 270
#     4   8  14  27  45  62  84 116 151 186 227 267
#     4   9  18  30  44  65  93 126 158 183 214 264
#     4   8  15  27  43  63  86 114 148 189 231 265
#     4   9  16  28  46  62  81 114 155 197 234 265
#     4  10  20  30  42  65  95 125 157 190 223 263
#     4   9  17  31  49  67  87 112 148 195 239 272
#
# _framework density 15.895033
#
# number of rings (size 3 to 8) (size 9 to 14) (size 15 to 20)
#    0.000    3.000    0.667    1.200    1.867    2.133 
#    0.000    5.333    0.000    2.400    0.000    0.000 
#    2.000    2.267    1.600    0.000    0.000    0.000 
#
# Total GULP energy -743584.515701 kJ/mol
# GULP energy per Si atom -12393.075262 kJ/mol
# Density = 1.585886 g / cm^3
# Si number density = 15.895033 Si / 1000 Ang^3
#
#
#
# Elastic Constant Matrix: (Units=GPa)
#
#
# Indices 1 2 3 4 5 6 
#
# 1 70.3537 51.8204 33.8866 0.0000 0.0000 0.0000
# 2 51.8204 121.5872 44.9724 0.0000 0.0000 0.0000
# 3 33.8866 44.9724 54.8754 0.0000 0.0000 0.0000
# 4 0.0000 0.0000 0.0000 22.4689 0.0000 0.0000
# 5 0.0000 0.0000 0.0000 0.0000 3.3900 0.0000
# 6 0.0000 0.0000 0.0000 0.0000 0.0000 26.8679
#
#
#
# Elastic Compliance Matrix: (Units=1/GPa)
#
#
# Indices 1 2 3 4 5 6 
#
# 1 0.023473 -0.006662 -0.009035 0.000000 0.000000 0.000000
# 2 -0.006662 0.013693 -0.007108 0.000000 0.000000 0.000000
# 3 -0.009035 -0.007108 0.029628 0.000000 0.000000 0.000000
# 4 0.000000 0.000000 0.000000 0.044506 0.000000 0.000000
# 5 0.000000 0.000000 0.000000 0.000000 0.294987 0.000000
# 6 0.000000 0.000000 0.000000 0.000000 0.000000 0.037219
#
#
# Mechanical properties :
#
#
# Convention : Reuss Voigt Hill
#
# Bulk Modulus (GPa) = 47.20718 56.46390 51.83554
# Shear Modulus (GPa) = 10.07704 18.28783 14.18244
#
# Velocity S-wave (km/s) = 2.52062 3.39564 2.99031
# Velocity P-wave (km/s) = 6.18346 7.13960 6.67866
#
# Compressibility (1/GPa) = 0.02118322
#
# Stress axis : x y z
#
# Youngs Moduli (GPa) = 42.60226 73.02970 33.75241
#
# Poissons Ratio (x) = 0.48655 0.30495
# Poissons Ratio (y) = 0.28383 0.23991
# Poissons Ratio (z) = 0.38491 0.51908
#
# Static dielectric constant tensor:
#      x y z
#    x 3.032130 0.000000 0.000000 
#    y 0.000000 3.351860 0.000000 
#    z 0.000000 0.000000 2.775690 
# 
# 
# High freq. dielectric constant tensor:
#      x y z
#    x 1.587490 0.000000 0.000000 
#    y 0.000000 1.627080 0.000000 
#    z 0.000000 0.000000 1.572600 
# 
# From -- ./inp_files/38593.got.cif
#   From: 2010.03.12/outbox.cif.g09.slc.cpg/sg69_20_cif.got.tgz:38593.got - 2010.04.10 23:52:46.
