data_PCOD8284042
_publ_section_title
;
Structure prediction by ZEFSAII (Michael W. Deem and Ramdas Pophale) SiO2 
 PCOD8284042
Probable space group: F M M M
;
_chemical_formula_sum "Si O2"
_cell_formula_units_Z 112
_cell_length_a 21.201009
_cell_length_b 29.026661
_cell_length_c 8.551759
_cell_angle_alpha 90.000000
_cell_angle_beta 90.000000
_cell_angle_gamma 90.000000
_cell_volume 5262.705463
_symmetry_space_group_name_H-M "F M M M"
_symmetry_group_IT_number 69
_symmetry_cell_setting 'orthorhombic'
loop_
_space_group_symop_operation_xyz
x,y,z
-x,-y,z
x,-y,-z
-x,y,-z
-x,-y,-z
x,y,-z
-x,y,z
x,-y,z
x,1/2+y,1/2+z
-x,1/2-y,1/2+z
x,1/2-y,1/2-z
-x,1/2+y,1/2-z
-x,1/2-y,1/2-z
x,1/2+y,1/2-z
-x,1/2+y,1/2+z
x,1/2-y,1/2+z
1/2+x,y,1/2+z
1/2-x,-y,1/2+z
1/2+x,-y,1/2-z
1/2-x,y,1/2-z
1/2-x,-y,1/2-z
1/2+x,y,1/2-z
1/2-x,y,1/2+z
1/2+x,-y,1/2+z
1/2+x,1/2+y,z
1/2-x,1/2-y,z
1/2+x,1/2-y,-z
1/2-x,1/2+y,-z
1/2-x,1/2-y,-z
1/2+x,1/2+y,-z
1/2-x,1/2+y,z
1/2+x,1/2-y,z
loop_
_atom_site_type_symbol
_atom_site_label
_atom_site_fract_x
_atom_site_fract_y
_atom_site_fract_z
Si Si1 0.128914 0.199112 0.815389
Si Si2 0.930127 0.551953 0.814296
Si Si3 0.314849 0.887058 0.814151
Si Si4 0.500000 0.698775 0.314450
O O1 0.141824 0.250000 0.750000
O O2 0.182733 0.164671 0.755875
O O3 0.063862 0.176120 0.750326
O O4 0.126862 0.202416 0.000000
O O5 0.920439 0.500000 0.751674
O O6 0.873872 0.583513 0.747046
O O7 0.000000 0.570120 0.762374
O O8 0.926541 0.552219 0.000000
O O9 0.250000 0.909431 0.750000
O O10 0.314416 0.885518 0.000000
O O11 0.500000 0.696751 0.500000
O O12 0.500000 0.750000 0.250000
#
# Coordination Sequence:
#
# PCOD8284042 Si02
#       4
#    32  32  32  16
#     4  11  22  38  58  84 118 158 203 252 301 355
#     4   8  16  34  61  91 119 151 196 247 298 356
#     4  11  23  38  58  87 122 161 203 248 301 361
#     4  10  18  32  54  82 113 148 193 242 296 349
#
# _framework density 21.281829999999999
#
# number of rings (size 3 to 8) (size 9 to 14) (size 15 to 20)
#    0.000    2.000    0.000    7.286    2.000    1.143 
#    0.000    2.857    0.000    2.571    0.000    8.000 
#    0.000    0.000    0.000    0.000    0.000    0.000 
#
# Total GULP energy -347093.403562 kJ/mol
# GULP energy per Si atom -12396.192984 kJ/mol
# Density = 2.123339 g / cm^3
# Si number density = 21.281830 Si / 1000 Ang^3
#
#
#
# Elastic Constant Matrix: (Units=GPa)
#
#
# Indices 1 2 3 4 5 6 
#
# 1 170.0807 74.6510 41.0870 -0.0002 0.0001 0.0002
# 2 74.6510 89.3576 28.2899 0.0000 0.0002 -0.0006
# 3 41.0870 28.2899 126.6213 -0.0009 0.0010 -0.0041
# 4 -0.0002 0.0000 -0.0009 14.4558 0.0003 -0.0004
# 5 0.0001 0.0002 0.0010 0.0003 35.5738 0.0004
# 6 0.0002 -0.0006 -0.0041 -0.0004 0.0004 80.7917
#
#
#
# Elastic Compliance Matrix: (Units=1/GPa)
#
#
# Indices 1 2 3 4 5 6 
#
# 1 0.009512 -0.007500 -0.001411 0.000000 0.000000 0.000000
# 2 -0.007500 0.017956 -0.001578 0.000000 0.000000 0.000000
# 3 -0.001411 -0.001578 0.008708 0.000001 0.000000 0.000000
# 4 0.000000 0.000000 0.000001 0.069177 -0.000001 0.000000
# 5 0.000000 0.000000 0.000000 -0.000001 0.028111 0.000000
# 6 0.000000 0.000000 0.000000 0.000000 0.000000 0.012378
#
#
# Mechanical properties :
#
#
# Convention : Reuss Voigt Hill
#
# Bulk Modulus (GPa) = 65.79685 74.90171 70.34928
# Shear Modulus (GPa) = 29.08910 42.29970 35.69440
#
# Velocity S-wave (km/s) = 3.70111 4.46308 4.09984
# Velocity P-wave (km/s) = 7.01771 7.86323 7.45247
#
# Compressibility (1/GPa) = 0.01519829
#
# Stress axis : x y z
#
# Youngs Moduli (GPa) = 105.12701 55.69070 114.83707
#
# Poissons Ratio (x) = 0.41768 0.16203
# Poissons Ratio (y) = 0.78846 0.18123
# Poissons Ratio (z) = 0.14833 0.08789
#
# Static dielectric constant tensor:
#      x y z
#    x 4.430670 0.000000 0.000000 
#    y 0.000000 3.927870 0.000000 
#    z 0.000000 0.000000 3.486120 
# 
# 
# High freq. dielectric constant tensor:
#      x y z
#    x 1.848050 0.000000 0.000000 
#    y 0.000000 1.824660 0.000000 
#    z 0.000000 0.000000 1.811250 
# 
# From -- ./inp_files/3700.got.cif
#   From: 2010.03.12/outbox.cif.g09.slc.cpg/sg69_2_cif.got.tgz:3700.got - 2010.04.10 23:52:46.
