data_PCOD8284707
_publ_section_title
;
Structure prediction by ZEFSAII (Michael W. Deem and Ramdas Pophale) SiO2 
 PCOD8284707
Probable space group: F M M M
;
_chemical_formula_sum "Si O2"
_cell_formula_units_Z 144
_cell_length_a 13.860530
_cell_length_b 33.550471
_cell_length_c 18.579414
_cell_angle_alpha 90.000000
_cell_angle_beta 90.000000
_cell_angle_gamma 90.000000
_cell_volume 8639.934910
_symmetry_space_group_name_H-M "F M M M"
_symmetry_group_IT_number 69
_symmetry_cell_setting 'orthorhombic'
loop_
_space_group_symop_operation_xyz
x,y,z
-x,-y,z
x,-y,-z
-x,y,-z
-x,-y,-z
x,y,-z
-x,y,z
x,-y,z
x,1/2+y,1/2+z
-x,1/2-y,1/2+z
x,1/2-y,1/2-z
-x,1/2+y,1/2-z
-x,1/2-y,1/2-z
x,1/2+y,1/2-z
-x,1/2+y,1/2+z
x,1/2-y,1/2+z
1/2+x,y,1/2+z
1/2-x,-y,1/2+z
1/2+x,-y,1/2-z
1/2-x,y,1/2-z
1/2-x,-y,1/2-z
1/2+x,y,1/2-z
1/2-x,y,1/2+z
1/2+x,-y,1/2+z
1/2+x,1/2+y,z
1/2-x,1/2-y,z
1/2+x,1/2-y,-z
1/2-x,1/2+y,-z
1/2-x,1/2-y,-z
1/2+x,1/2+y,-z
1/2-x,1/2+y,z
1/2+x,1/2-y,z
loop_
_atom_site_type_symbol
_atom_site_label
_atom_site_fract_x
_atom_site_fract_y
_atom_site_fract_z
Si Si1 0.385839 0.414511 0.580568
Si Si2 0.000000 0.236153 0.918064
Si Si3 0.294515 0.791713 0.416859
Si Si4 0.320213 0.846794 0.186397
Si Si5 0.500000 0.708205 0.294566
Si Si6 0.604611 0.000000 0.915405
O O1 0.348017 0.401699 0.500000
O O2 0.500000 0.419031 0.575600
O O3 0.362419 0.384227 0.644305
O O4 0.341272 0.458098 0.603607
O O5 0.091704 0.208931 0.899433
O O6 0.000000 0.278497 0.877655
O O7 0.000000 0.250263 0.000000
O O8 0.273397 0.800458 0.500000
O O9 0.250000 0.750000 0.392643
O O10 0.246336 0.825375 0.370984
O O11 0.250000 0.861263 0.250000
O O12 0.404425 0.818326 0.218979
O O13 0.500000 0.750000 0.250000
O O14 0.500000 0.000000 0.876521
O O15 0.588802 0.000000 0.000000
#
# Coordination Sequence:
#
# PCOD8284707 Si02
#       6
#    32  16  32  32  16  16
#     4   9  17  33  56  82 105 129 164 211 261 314
#     4  10  20  34  52  70  91 123 174 224 271 307
#     4  10  20  34  51  71  94 128 173 222 265 305
#     4  12  24  34  49  72 105 136 177 213 258 306
#     4  12  24  36  48  65  92 140 182 216 260 299
#     4   7  12  26  53  82 106 127 153 199 265 319
#
# _framework density 16.666791
#
# number of rings (size 3 to 8) (size 9 to 14) (size 15 to 20)
#    0.000    1.889    3.333    3.333    0.000    0.889 
#    0.000    0.556    0.000    0.000    0.000    0.000 
#    0.000    0.000    0.000   13.556    0.000    0.000 
#
# Total GULP energy -446030.865783 kJ/mol
# GULP energy per Si atom -12389.746272 kJ/mol
# Density = 1.662886 g / cm^3
# Si number density = 16.666791 Si / 1000 Ang^3
#
#
#
# Elastic Constant Matrix: (Units=GPa)
#
#
# Indices 1 2 3 4 5 6 
#
# 1 73.5399 31.1225 19.9241 0.0000 0.0000 0.0000
# 2 31.1225 112.3348 50.2993 0.0000 0.0000 0.0000
# 3 19.9241 50.2993 59.5972 0.0000 0.0000 0.0000
# 4 0.0000 0.0000 0.0000 25.0384 0.0000 0.0000
# 5 0.0000 0.0000 0.0000 0.0000 8.8852 0.0000
# 6 0.0000 0.0000 0.0000 0.0000 0.0000 10.9396
#
#
#
# Elastic Compliance Matrix: (Units=1/GPa)
#
#
# Indices 1 2 3 4 5 6 
#
# 1 0.015637 -0.003201 -0.002526 0.000000 0.000000 0.000000
# 2 -0.003201 0.014965 -0.011560 0.000000 0.000000 0.000000
# 3 -0.002526 -0.011560 0.027380 0.000000 0.000000 0.000000
# 4 0.000000 0.000000 0.000000 0.039939 0.000000 0.000000
# 5 0.000000 0.000000 0.000000 0.000000 0.112547 0.000000
# 6 0.000000 0.000000 0.000000 0.000000 0.000000 0.091411
#
#
# Mechanical properties :
#
#
# Convention : Reuss Voigt Hill
#
# Bulk Modulus (GPa) = 42.72028 49.79597 46.25813
# Shear Modulus (GPa) = 14.52407 18.58105 16.55256
#
# Velocity S-wave (km/s) = 2.95521 3.34257 3.15484
# Velocity P-wave (km/s) = 6.10999 6.69621 6.40981
#
# Compressibility (1/GPa) = 0.02340808
#
# Stress axis : x y z
#
# Youngs Moduli (GPa) = 63.95011 66.82227 36.52260
#
# Poissons Ratio (x) = 0.21392 0.09225
# Poissons Ratio (y) = 0.20473 0.42220
# Poissons Ratio (z) = 0.16153 0.77247
#
# Static dielectric constant tensor:
#      x y z
#    x 3.478600 0.000000 0.000000 
#    y 0.000000 3.364000 0.000000 
#    z 0.000000 0.000000 3.225500 
# 
# 
# High freq. dielectric constant tensor:
#      x y z
#    x 1.626880 0.000000 0.000000 
#    y 0.000000 1.630510 0.000000 
#    z 0.000000 0.000000 1.638090 
# 
# From -- ./inp_files/21784.got.cif
#   From: 2010.03.12/outbox.cif.g09.slc.cpg/sg69_11_cif.got.tgz:21784.got - 2010.04.10 23:52:46.
