data_PCOD8284524
_publ_section_title
;
Structure prediction by ZEFSAII (Michael W. Deem and Ramdas Pophale) SiO2 
 PCOD8284524
Probable space group: F M M M
;
_chemical_formula_sum "Si O2"
_cell_formula_units_Z 128
_cell_length_a 18.259921
_cell_length_b 17.575252
_cell_length_c 20.374420
_cell_angle_alpha 90.000000
_cell_angle_beta 90.000000
_cell_angle_gamma 90.000000
_cell_volume 6538.614144
_symmetry_space_group_name_H-M "F M M M"
_symmetry_group_IT_number 69
_symmetry_cell_setting 'orthorhombic'
loop_
_space_group_symop_operation_xyz
x,y,z
-x,-y,z
x,-y,-z
-x,y,-z
-x,-y,-z
x,y,-z
-x,y,z
x,-y,z
x,1/2+y,1/2+z
-x,1/2-y,1/2+z
x,1/2-y,1/2-z
-x,1/2+y,1/2-z
-x,1/2-y,1/2-z
x,1/2+y,1/2-z
-x,1/2+y,1/2+z
x,1/2-y,1/2+z
1/2+x,y,1/2+z
1/2-x,-y,1/2+z
1/2+x,-y,1/2-z
1/2-x,y,1/2-z
1/2-x,-y,1/2-z
1/2+x,y,1/2-z
1/2-x,y,1/2+z
1/2+x,-y,1/2+z
1/2+x,1/2+y,z
1/2-x,1/2-y,z
1/2+x,1/2-y,-z
1/2-x,1/2+y,-z
1/2-x,1/2-y,-z
1/2+x,1/2+y,-z
1/2-x,1/2+y,z
1/2+x,1/2-y,z
loop_
_atom_site_type_symbol
_atom_site_label
_atom_site_fract_x
_atom_site_fract_y
_atom_site_fract_z
Si Si1 0.180425 0.806035 0.500000
Si Si2 0.309922 0.412852 0.623897
Si Si3 0.586249 0.331571 0.000000
Si Si4 0.581823 0.909877 0.235594
Si Si5 0.641247 0.413376 0.870927
O O1 0.250000 0.750000 0.500000
O O2 0.178942 0.860022 0.437938
O O3 0.105767 0.757417 0.500000
O O4 0.331355 0.500000 0.606225
O O5 0.361191 0.379318 0.681666
O O6 0.226497 0.408554 0.647138
O O7 0.622661 0.367439 0.935899
O O8 0.500000 0.344684 0.000000
O O9 0.500000 0.884659 0.215326
O O10 0.599400 0.877502 0.308234
O O11 0.590007 0.000000 0.239770
O O12 0.616872 0.500000 0.884061
#
# Coordination Sequence:
#
# PCOD8284524 Si02
#       5
#    16  32  16  32  32
#     4  12  23  41  59  81 117 156 192 239 287 345
#     4  10  20  37  64  89 112 150 199 241 289 348
#     4  12  25  38  57  86 121 159 195 237 295 354
#     4   9  18  33  56  88 122 151 189 245 295 337
#     4  10  19  35  60  90 120 154 195 240 290 351
#
# _framework density 19.576013
#
# number of rings (size 3 to 8) (size 9 to 14) (size 15 to 20)
#    0.000    1.750    2.500    2.250    0.000    8.000 
#    0.000    1.250    0.000    6.750    0.000    0.000 
#    0.000    0.000    0.000    0.000    0.000    0.000 
#
# Total GULP energy -396808.306903 kJ/mol
# GULP energy per Si atom -12400.259591 kJ/mol
# Density = 1.953146 g / cm^3
# Si number density = 19.576013 Si / 1000 Ang^3
#
#
#
# Elastic Constant Matrix: (Units=GPa)
#
#
# Indices 1 2 3 4 5 6 
#
# 1 118.1563 25.9637 60.0580 0.0000 0.0000 0.0000
# 2 25.9637 64.8522 46.3926 0.0000 0.0000 0.0000
# 3 60.0580 46.3926 157.9097 0.0000 0.0000 0.0000
# 4 0.0000 0.0000 0.0000 -51.6770 0.0000 0.0000
# 5 0.0000 0.0000 0.0000 0.0000 27.2540 0.0000
# 6 0.0000 0.0000 0.0000 0.0000 0.0000 23.1728
#
#
#
# Elastic Compliance Matrix: (Units=1/GPa)
#
#
# Indices 1 2 3 4 5 6 
#
# 1 0.010642 -0.001728 -0.003540 0.000000 0.000000 0.000000
# 2 -0.001728 0.019803 -0.005161 0.000000 0.000000 0.000000
# 3 -0.003540 -0.005161 0.009195 0.000000 0.000000 0.000000
# 4 0.000000 0.000000 0.000000 -0.019351 0.000000 0.000000
# 5 0.000000 0.000000 0.000000 0.000000 0.036692 0.000000
# 6 0.000000 0.000000 0.000000 0.000000 0.000000 0.043154
#
#
# Mechanical properties :
#
#
# Convention : Reuss Voigt Hill
#
# Bulk Modulus (GPa) = 53.23939 67.30519 60.27229
# Shear Modulus (GPa) = 39.29118 13.65023 26.47071
#
# Velocity S-wave (km/s) = 4.48494 2.64350 3.68122
# Velocity P-wave (km/s) = 7.35356 6.61616 6.99458
#
# Compressibility (1/GPa) = 0.01878308
#
# Stress axis : x y z
#
# Youngs Moduli (GPa) = 93.96321 50.49630 108.75203
#
# Poissons Ratio (x) = 0.08728 0.38497
# Poissons Ratio (y) = 0.16241 0.56124
# Poissons Ratio (z) = 0.33262 0.26060
#
# Static dielectric constant tensor:
#      x y z
#    x 3.733770 0.000000 0.000000 
#    y 0.000000 3.418130 0.000000 
#    z 0.000000 0.000000 3.712360 
# 
# 
# High freq. dielectric constant tensor:
#      x y z
#    x 1.769780 0.000000 0.000000 
#    y 0.000000 1.732680 0.000000 
#    z 0.000000 0.000000 1.775500 
# 
# From -- ./inp_files/29641.got.cif
#   From: 2010.03.12/outbox.cif.g09.slc.cpg/sg69_15_cif.got.tgz:29641.got - 2010.04.10 23:52:46.
