data_PCOD8284532
_publ_section_title
;
Structure prediction by ZEFSAII (Michael W. Deem and Ramdas Pophale) SiO2 
 PCOD8284532
Probable space group: F M M M
;
_chemical_formula_sum "Si O2"
_cell_formula_units_Z 160
_cell_length_a 16.044110
_cell_length_b 17.564286
_cell_length_c 30.432666
_cell_angle_alpha 90.000000
_cell_angle_beta 90.000000
_cell_angle_gamma 90.000000
_cell_volume 8576.026822
_symmetry_space_group_name_H-M "F M M M"
_symmetry_group_IT_number 69
_symmetry_cell_setting 'orthorhombic'
loop_
_space_group_symop_operation_xyz
x,y,z
-x,-y,z
x,-y,-z
-x,y,-z
-x,-y,-z
x,y,-z
-x,y,z
x,-y,z
x,1/2+y,1/2+z
-x,1/2-y,1/2+z
x,1/2-y,1/2-z
-x,1/2+y,1/2-z
-x,1/2-y,1/2-z
x,1/2+y,1/2-z
-x,1/2+y,1/2+z
x,1/2-y,1/2+z
1/2+x,y,1/2+z
1/2-x,-y,1/2+z
1/2+x,-y,1/2-z
1/2-x,y,1/2-z
1/2-x,-y,1/2-z
1/2+x,y,1/2-z
1/2-x,y,1/2+z
1/2+x,-y,1/2+z
1/2+x,1/2+y,z
1/2-x,1/2-y,z
1/2+x,1/2-y,-z
1/2-x,1/2+y,-z
1/2-x,1/2-y,-z
1/2+x,1/2+y,-z
1/2-x,1/2+y,z
1/2+x,1/2-y,z
loop_
_atom_site_type_symbol
_atom_site_label
_atom_site_fract_x
_atom_site_fract_y
_atom_site_fract_z
Si Si1 0.181674 0.413839 0.163892
Si Si2 0.341213 0.226918 0.106860
Si Si3 0.366237 0.130204 0.662829
Si Si4 0.500000 0.917650 0.404551
Si Si5 0.500000 0.765368 0.449333
Si Si6 0.593393 0.834036 0.757033
O O1 0.149411 0.500000 0.155450
O O2 0.154290 0.359944 0.123603
O O3 0.280624 0.414562 0.166734
O O4 0.148051 0.383670 0.210192
O O5 0.250000 0.250000 0.086445
O O6 0.355845 0.281213 0.148940
O O7 0.415178 0.232731 0.071630
O O8 0.419154 0.088832 0.625733
O O9 0.410693 0.125116 0.709797
O O10 0.500000 0.856285 0.443394
O O11 0.500000 0.000000 0.427533
O O12 0.500000 0.743021 0.500000
O O13 0.500000 0.827366 0.776441
O O14 0.632827 0.750000 0.750000
#
# Coordination Sequence:
#
# PCOD8284532 Si02
#       6
#    32  32  32  16  16  32
#     4  11  23  35  53  81 111 148 196 238 275 315
#     4   9  20  38  61  83 111 149 184 227 278 330
#     4  10  19  36  56  76 109 155 195 225 271 329
#     4  10  20  35  58  85 116 143 174 230 285 322
#     4  10  22  39  64  91 110 141 185 218 270 357
#     4  11  22  34  53  75 109 156 198 235 272 317
#
# _framework density 18.656658
#
# number of rings (size 3 to 8) (size 9 to 14) (size 15 to 20)
#    0.000    1.800    3.000    1.200    1.400    4.200 
#    0.000    0.000    0.000    1.200    0.000    0.000 
#    0.000    0.000    0.000    0.000    0.000    0.000 
#
# Total GULP energy -495953.950917 kJ/mol
# GULP energy per Si atom -12398.848773 kJ/mol
# Density = 1.861419 g / cm^3
# Si number density = 18.656658 Si / 1000 Ang^3
#
#
#
# Elastic Constant Matrix: (Units=GPa)
#
#
# Indices 1 2 3 4 5 6 
#
# 1 121.3352 34.0805 48.0915 0.0000 0.0000 0.0000
# 2 34.0805 140.3864 34.2035 0.0000 0.0000 0.0000
# 3 48.0915 34.2035 94.2810 0.0000 0.0000 0.0000
# 4 0.0000 0.0000 0.0000 11.4571 0.0000 0.0000
# 5 0.0000 0.0000 0.0000 0.0000 19.2723 0.0000
# 6 0.0000 0.0000 0.0000 0.0000 0.0000 14.8718
#
#
#
# Elastic Compliance Matrix: (Units=1/GPa)
#
#
# Indices 1 2 3 4 5 6 
#
# 1 0.010566 -0.001373 -0.004891 0.000000 0.000000 0.000000
# 2 -0.001373 0.007992 -0.002199 0.000000 0.000000 0.000000
# 3 -0.004891 -0.002199 0.013899 0.000000 0.000000 0.000000
# 4 0.000000 0.000000 0.000000 0.087282 0.000000 0.000000
# 5 0.000000 0.000000 0.000000 0.000000 0.051888 0.000000
# 6 0.000000 0.000000 0.000000 0.000000 0.000000 0.067242
#
#
# Mechanical properties :
#
#
# Convention : Reuss Voigt Hill
#
# Bulk Modulus (GPa) = 64.38975 65.41707 64.90341
# Shear Modulus (GPa) = 19.15900 25.09536 22.12718
#
# Velocity S-wave (km/s) = 3.20804 3.67156 3.44760
# Velocity P-wave (km/s) = 6.95054 7.28791 7.12122
#
# Compressibility (1/GPa) = 0.01553042
#
# Stress axis : x y z
#
# Youngs Moduli (GPa) = 94.64236 125.11985 71.94564
#
# Poissons Ratio (x) = 0.17183 0.35192
# Poissons Ratio (y) = 0.12997 0.15821
# Poissons Ratio (z) = 0.46294 0.27513
#
# Static dielectric constant tensor:
#      x y z
#    x 3.564170 0.000000 0.000000 
#    y 0.000000 3.415620 0.000000 
#    z 0.000000 0.000000 2.978030 
# 
# 
# High freq. dielectric constant tensor:
#      x y z
#    x 1.737580 0.000000 0.000000 
#    y 0.000000 1.720390 0.000000 
#    z 0.000000 0.000000 1.685240 
# 
# From -- ./inp_files/15665.got.cif
#   From: 2010.03.12/outbox.cif.g09.slc.cpg/sg69_8_cif.got.tgz:15665.got - 2010.04.10 23:52:46.
