data_PCOD8284852
_publ_section_title
;
Structure prediction by ZEFSAII (Michael W. Deem and Ramdas Pophale) SiO2 
 PCOD8284852
Probable space group: F M M M
;
_chemical_formula_sum "Si O2"
_cell_formula_units_Z 144
_cell_length_a 33.732698
_cell_length_b 8.859425
_cell_length_c 25.317827
_cell_angle_alpha 90.000000
_cell_angle_beta 90.000000
_cell_angle_gamma 90.000000
_cell_volume 7566.291032
_symmetry_space_group_name_H-M "F M M M"
_symmetry_group_IT_number 69
_symmetry_cell_setting 'orthorhombic'
loop_
_space_group_symop_operation_xyz
x,y,z
-x,-y,z
x,-y,-z
-x,y,-z
-x,-y,-z
x,y,-z
-x,y,z
x,-y,z
x,1/2+y,1/2+z
-x,1/2-y,1/2+z
x,1/2-y,1/2-z
-x,1/2+y,1/2-z
-x,1/2-y,1/2-z
x,1/2+y,1/2-z
-x,1/2+y,1/2+z
x,1/2-y,1/2+z
1/2+x,y,1/2+z
1/2-x,-y,1/2+z
1/2+x,-y,1/2-z
1/2-x,y,1/2-z
1/2-x,-y,1/2-z
1/2+x,y,1/2-z
1/2-x,y,1/2+z
1/2+x,-y,1/2+z
1/2+x,1/2+y,z
1/2-x,1/2-y,z
1/2+x,1/2-y,-z
1/2-x,1/2+y,-z
1/2-x,1/2-y,-z
1/2+x,1/2+y,-z
1/2-x,1/2+y,z
1/2+x,1/2-y,z
loop_
_atom_site_type_symbol
_atom_site_label
_atom_site_fract_x
_atom_site_fract_y
_atom_site_fract_z
Si Si1 0.573762 0.170068 0.056999
Si Si2 0.543653 0.674334 0.667522
Si Si3 0.292947 0.321100 0.500000
Si Si4 0.151862 0.823454 0.084336
Si Si5 0.123725 0.323006 0.302411
O O1 0.543178 0.200610 0.104154
O O2 0.609685 0.287959 0.058521
O O3 0.591280 0.000000 0.062395
O O4 0.552270 0.189457 0.000000
O O5 0.500000 0.724111 0.688014
O O6 0.551809 0.500000 0.681306
O O7 0.577797 0.772698 0.694109
O O8 0.290134 0.500000 0.500000
O O9 0.250000 0.250000 0.500000
O O10 0.314481 0.268375 0.553723
O O11 0.149326 0.773983 0.146265
O O12 0.161008 0.000000 0.078484
O O13 0.124215 0.500000 0.295953
O O14 0.143115 0.250000 0.250000
#
# Coordination Sequence:
#
# PCOD8284852 Si02
#       5
#    32  32  16  32  32
#     4   9  16  27  46  71  99 137 181 221 269 324
#     4   9  18  31  46  68 101 139 181 231 282 329
#     4  12  24  38  60  90 121 150 175 206 254 309
#     4  10  20  35  55  81 112 143 178 220 264 315
#     4  10  21  36  56  79 104 140 185 231 276 322
#
# _framework density 19.031780999999999
#
# number of rings (size 3 to 8) (size 9 to 14) (size 15 to 20)
#    0.000    2.222    1.111    2.333    0.000    4.000 
#    0.000    2.222    0.000    0.667    0.000   10.889 
#    0.000    0.000    0.000    0.000    0.000    0.000 
#
# Total GULP energy -446190.022117 kJ/mol
# GULP energy per Si atom -12394.167281 kJ/mol
# Density = 1.898846 g / cm^3
# Si number density = 19.031781 Si / 1000 Ang^3
#
#
#
# Elastic Constant Matrix: (Units=GPa)
#
#
# Indices 1 2 3 4 5 6 
#
# 1 82.0938 38.5836 32.3999 0.0000 0.0000 0.0001
# 2 38.5836 89.2710 49.3808 -0.0001 0.0001 0.0001
# 3 32.3999 49.3808 141.5450 0.0000 0.0000 0.0001
# 4 0.0000 -0.0001 0.0000 28.7267 0.0000 0.0000
# 5 0.0000 0.0001 0.0000 0.0000 15.1718 0.0000
# 6 0.0001 0.0001 0.0001 0.0000 0.0000 25.9777
#
#
#
# Elastic Compliance Matrix: (Units=1/GPa)
#
#
# Indices 1 2 3 4 5 6 
#
# 1 0.015541 -0.005885 -0.001504 0.000000 0.000000 0.000000
# 2 -0.005885 0.016109 -0.004273 0.000000 0.000000 0.000000
# 3 -0.001504 -0.004273 0.008900 0.000000 0.000000 0.000000
# 4 0.000000 0.000000 0.000000 0.034811 0.000000 0.000000
# 5 0.000000 0.000000 0.000000 0.000000 0.065912 0.000000
# 6 0.000000 0.000000 0.000000 0.000000 0.000000 0.038494
#
#
# Mechanical properties :
#
#
# Convention : Reuss Voigt Hill
#
# Bulk Modulus (GPa) = 58.05284 61.51537 59.78411
# Shear Modulus (GPa) = 23.94267 26.81161 25.37714
#
# Velocity S-wave (km/s) = 3.55073 3.75744 3.65555
# Velocity P-wave (km/s) = 6.88328 7.15661 7.02128
#
# Compressibility (1/GPa) = 0.01722569
#
# Stress axis : x y z
#
# Youngs Moduli (GPa) = 64.34740 62.07791 112.36082
#
# Poissons Ratio (x) = 0.36531 0.16902
# Poissons Ratio (y) = 0.37866 0.48010
# Poissons Ratio (z) = 0.09680 0.26525
#
# Static dielectric constant tensor:
#      x y z
#    x 3.141900 0.000000 0.000000 
#    y 0.000000 3.471870 0.000000 
#    z 0.000000 0.000000 3.936100 
# 
# 
# High freq. dielectric constant tensor:
#      x y z
#    x 1.691130 0.000000 0.000000 
#    y 0.000000 1.741150 0.000000 
#    z 0.000000 0.000000 1.759220 
# 
# From -- ./inp_files/47392.got.cif
#   From: 2010.03.12/outbox.cif.g09.slc.cpg/sg69_24_cif.got.tgz:47392.got - 2010.04.10 23:52:46.
