data_PCOD8284377
_publ_section_title
;
Structure prediction by ZEFSAII (Michael W. Deem and Ramdas Pophale) SiO2 
 PCOD8284377
Probable space group: F M M M
;
_chemical_formula_sum "Si O2"
_cell_formula_units_Z 208
_cell_length_a 29.193625
_cell_length_b 20.201918
_cell_length_c 20.143842
_cell_angle_alpha 90.000000
_cell_angle_beta 90.000000
_cell_angle_gamma 90.000000
_cell_volume 11880.177664
_symmetry_space_group_name_H-M "F M M M"
_symmetry_group_IT_number 69
_symmetry_cell_setting 'orthorhombic'
loop_
_space_group_symop_operation_xyz
x,y,z
-x,-y,z
x,-y,-z
-x,y,-z
-x,-y,-z
x,y,-z
-x,y,z
x,-y,z
x,1/2+y,1/2+z
-x,1/2-y,1/2+z
x,1/2-y,1/2-z
-x,1/2+y,1/2-z
-x,1/2-y,1/2-z
x,1/2+y,1/2-z
-x,1/2+y,1/2+z
x,1/2-y,1/2+z
1/2+x,y,1/2+z
1/2-x,-y,1/2+z
1/2+x,-y,1/2-z
1/2-x,y,1/2-z
1/2-x,-y,1/2-z
1/2+x,y,1/2-z
1/2-x,y,1/2+z
1/2+x,-y,1/2+z
1/2+x,1/2+y,z
1/2-x,1/2-y,z
1/2+x,1/2-y,-z
1/2-x,1/2+y,-z
1/2-x,1/2-y,-z
1/2+x,1/2+y,-z
1/2-x,1/2+y,z
1/2+x,1/2-y,z
loop_
_atom_site_type_symbol
_atom_site_label
_atom_site_fract_x
_atom_site_fract_y
_atom_site_fract_z
Si Si1 0.554240 0.000000 0.072194
Si Si2 0.448591 0.629334 0.645559
Si Si3 0.726592 0.577265 0.320217
Si Si4 0.729717 0.821279 0.422942
Si Si5 0.358981 0.793178 0.352844
Si Si6 0.051079 0.265338 0.576820
Si Si7 0.859285 0.653757 0.788433
O O1 0.570738 0.064593 0.110106
O O2 0.500000 0.000000 0.065424
O O3 0.577478 0.000000 0.000000
O O4 0.500000 0.620732 0.674599
O O5 0.447208 0.687290 0.591348
O O6 0.413693 0.640823 0.705743
O O7 0.732203 0.500000 0.337988
O O8 0.750000 0.594838 0.250000
O O9 0.748729 0.620680 0.378599
O O10 0.672660 0.594642 0.314947
O O11 0.738876 0.837908 0.500000
O O12 0.750000 0.750000 0.402902
O O13 0.675286 0.817177 0.410188
O O14 0.410953 0.802468 0.379063
O O15 0.347485 0.718226 0.331940
O O16 0.350524 0.838829 0.289347
O O17 0.062453 0.276385 0.500000
O O18 0.000000 0.292628 0.594183
#
# Coordination Sequence:
#
# PCOD8284377 Si02
#       7
#    16  32  32  32  32  32  32
#     4   9  16  28  46  66  93 138 185 213 250 311
#     4   9  18  30  45  71 104 138 177 219 259 311
#     4  11  23  39  59  81 109 147 184 224 277 337
#     4  11  22  37  59  84 110 142 182 233 279 323
#     4  10  19  33  54  79 103 137 181 224 267 326
#     4   9  17  30  48  72 106 140 170 215 271 321
#     4  10  20  33  54  77 103 141 179 221 271 320
#
# _framework density 17.508154999999999
#
# number of rings (size 3 to 8) (size 9 to 14) (size 15 to 20)
#    0.000    2.077    3.077    0.923    1.077    3.077 
#    0.000    3.846    0.000    0.000    0.000    0.000 
#    0.000    0.000    0.000    5.231    0.000    0.000 
#
# Total GULP energy -644626.194010 kJ/mol
# GULP energy per Si atom -12396.657577 kJ/mol
# Density = 1.746831 g / cm^3
# Si number density = 17.508155 Si / 1000 Ang^3
#
#
#
# Elastic Constant Matrix: (Units=GPa)
#
#
# Indices 1 2 3 4 5 6 
#
# 1 117.1831 37.4315 45.1372 0.0000 0.0000 0.0000
# 2 37.4315 80.1480 44.1535 0.0000 0.0000 0.0000
# 3 45.1372 44.1535 84.8402 0.0000 0.0000 0.0000
# 4 0.0000 0.0000 0.0000 19.6475 0.0000 0.0000
# 5 0.0000 0.0000 0.0000 0.0000 28.3166 0.0000
# 6 0.0000 0.0000 0.0000 0.0000 0.0000 20.7842
#
#
#
# Elastic Compliance Matrix: (Units=1/GPa)
#
#
# Indices 1 2 3 4 5 6 
#
# 1 0.011140 -0.002716 -0.004513 0.000000 0.000000 0.000000
# 2 -0.002716 0.018154 -0.008003 0.000000 0.000000 0.000000
# 3 -0.004513 -0.008003 0.018353 0.000000 0.000000 0.000000
# 4 0.000000 0.000000 0.000000 0.050897 0.000000 0.000000
# 5 0.000000 0.000000 0.000000 0.000000 0.035315 0.000000
# 6 0.000000 0.000000 0.000000 0.000000 0.000000 0.048114
#
#
# Mechanical properties :
#
#
# Convention : Reuss Voigt Hill
#
# Bulk Modulus (GPa) = 58.19896 59.51284 58.85590
# Shear Modulus (GPa) = 22.91851 24.11292 23.51572
#
# Velocity S-wave (km/s) = 3.62196 3.71514 3.66885
# Velocity P-wave (km/s) = 7.12774 7.24350 7.18586
#
# Compressibility (1/GPa) = 0.01718244
#
# Stress axis : x y z
#
# Youngs Moduli (GPa) = 89.76950 55.08323 54.48770
#
# Poissons Ratio (x) = 0.14963 0.24590
# Poissons Ratio (y) = 0.24385 0.43606
# Poissons Ratio (z) = 0.40512 0.44082
#
# Static dielectric constant tensor:
#      x y z
#    x 3.330460 0.000000 0.000000 
#    y 0.000000 3.030110 0.000000 
#    z 0.000000 0.000000 3.156280 
# 
# 
# High freq. dielectric constant tensor:
#      x y z
#    x 1.686420 0.000000 0.000000 
#    y 0.000000 1.649630 0.000000 
#    z 0.000000 0.000000 1.669690 
# 
# From -- ./inp_files/34077.got.cif
#   From: 2010.03.12/outbox.cif.g09.slc.cpg/sg69_18_cif.got.tgz:34077.got - 2010.04.10 23:52:46.
