data_PCOD8284301
_publ_section_title
;
Structure prediction by ZEFSAII (Michael W. Deem and Ramdas Pophale) SiO2 
 PCOD8284301
Probable space group: F M M M
;
_chemical_formula_sum "Si O2"
_cell_formula_units_Z 208
_cell_length_a 28.278458
_cell_length_b 16.741480
_cell_length_c 23.152453
_cell_angle_alpha 90.000000
_cell_angle_beta 90.000000
_cell_angle_gamma 90.000000
_cell_volume 10960.909291
_symmetry_space_group_name_H-M "F M M M"
_symmetry_group_IT_number 69
_symmetry_cell_setting 'orthorhombic'
loop_
_space_group_symop_operation_xyz
x,y,z
-x,-y,z
x,-y,-z
-x,y,-z
-x,-y,-z
x,y,-z
-x,y,z
x,-y,z
x,1/2+y,1/2+z
-x,1/2-y,1/2+z
x,1/2-y,1/2-z
-x,1/2+y,1/2-z
-x,1/2-y,1/2-z
x,1/2+y,1/2-z
-x,1/2+y,1/2+z
x,1/2-y,1/2+z
1/2+x,y,1/2+z
1/2-x,-y,1/2+z
1/2+x,-y,1/2-z
1/2-x,y,1/2-z
1/2-x,-y,1/2-z
1/2+x,y,1/2-z
1/2-x,y,1/2+z
1/2+x,-y,1/2+z
1/2+x,1/2+y,z
1/2-x,1/2-y,z
1/2+x,1/2-y,-z
1/2-x,1/2+y,-z
1/2-x,1/2-y,-z
1/2+x,1/2+y,-z
1/2-x,1/2+y,z
1/2+x,1/2-y,z
loop_
_atom_site_type_symbol
_atom_site_label
_atom_site_fract_x
_atom_site_fract_y
_atom_site_fract_z
Si Si1 0.553377 0.500000 0.567263
Si Si2 0.945893 0.407973 0.749280
Si Si3 0.864916 0.910031 0.931528
Si Si4 0.405364 0.354263 0.365585
Si Si5 0.554893 0.320817 0.868673
Si Si6 0.824630 0.408151 0.934236
Si Si7 0.729449 0.331438 0.066835
O O1 0.500000 0.500000 0.586764
O O2 0.562275 0.500000 0.500000
O O3 0.573871 0.418708 0.591172
O O4 0.938104 0.500000 0.731655
O O5 0.909860 0.384042 0.799881
O O6 0.933904 0.351928 0.695437
O O7 0.000000 0.393945 0.770061
O O8 0.914112 0.869819 0.913910
O O9 0.820030 0.861147 0.905124
O O10 0.863312 0.000000 0.906898
O O11 0.861883 0.911675 0.000000
O O12 0.432327 0.271640 0.373150
O O13 0.350835 0.350327 0.387523
O O14 0.500000 0.333873 0.884376
O O15 0.839761 0.500000 0.924020
O O16 0.768467 0.400507 0.924551
O O17 0.837111 0.381603 0.000000
O O18 0.750000 0.250000 0.095552
O O19 0.719079 0.313921 0.000000
#
# Coordination Sequence:
#
# PCOD8284301 Si02
#       7
#    16  32  32  32  32  32  32
#     4  11  22  34  50  76 114 155 187 221 276 349
#     4  10  20  37  59  79 104 142 192 243 289 336
#     4  10  21  38  58  81 112 150 190 233 289 348
#     4  12  21  35  55  80 113 149 187 231 283 341
#     4  11  24  38  56  82 110 145 194 246 289 334
#     4  10  19  32  52  80 113 147 184 224 270 335
#     4   9  17  31  53  81 110 142 181 228 281 336
#
# _framework density 18.976527000000001
#
# number of rings (size 3 to 8) (size 9 to 14) (size 15 to 20)
#    0.000    1.615    1.538    4.154    0.000    6.769 
#    0.000    0.769    0.000    0.923    0.000    6.462 
#    0.000    0.000    0.000    0.000    0.000    0.000 
#
# Total GULP energy -644711.100752 kJ/mol
# GULP energy per Si atom -12398.290399 kJ/mol
# Density = 1.893334 g / cm^3
# Si number density = 18.976527 Si / 1000 Ang^3
#
#
#
# Elastic Constant Matrix: (Units=GPa)
#
#
# Indices 1 2 3 4 5 6 
#
# 1 118.6860 52.5393 35.6576 0.0000 0.0000 0.0000
# 2 52.5393 142.1200 42.5091 0.0000 0.0000 0.0000
# 3 35.6576 42.5091 56.4021 0.0000 0.0000 0.0000
# 4 0.0000 0.0000 0.0000 17.6350 0.0000 0.0000
# 5 0.0000 0.0000 0.0000 0.0000 19.4756 0.0000
# 6 0.0000 0.0000 0.0000 0.0000 0.0000 31.1369
#
#
#
# Elastic Compliance Matrix: (Units=1/GPa)
#
#
# Indices 1 2 3 4 5 6 
#
# 1 0.011091 -0.002586 -0.005063 0.000000 0.000000 0.000000
# 2 -0.002586 0.009687 -0.005666 0.000000 0.000000 0.000000
# 3 -0.005063 -0.005666 0.025201 0.000000 0.000000 0.000000
# 4 0.000000 0.000000 0.000000 0.056705 0.000000 0.000000
# 5 0.000000 0.000000 0.000000 0.000000 0.051346 0.000000
# 6 0.000000 0.000000 0.000000 0.000000 0.000000 0.032116
#
#
# Mechanical properties :
#
#
# Convention : Reuss Voigt Hill
#
# Bulk Modulus (GPa) = 51.68110 64.29112 57.98611
# Shear Modulus (GPa) = 22.80734 26.08297 24.44516
#
# Velocity S-wave (km/s) = 3.47056 3.71143 3.59301
# Velocity P-wave (km/s) = 6.58431 7.23319 6.91636
#
# Compressibility (1/GPa) = 0.01934943
#
# Stress axis : x y z
#
# Youngs Moduli (GPa) = 90.15951 103.23067 39.68066
#
# Poissons Ratio (x) = 0.26694 0.20091
# Poissons Ratio (y) = 0.23314 0.22484
# Poissons Ratio (z) = 0.45649 0.58492
#
# Static dielectric constant tensor:
#      x y z
#    x 3.766510 0.000000 0.000000 
#    y 0.000000 3.633740 0.000000 
#    z 0.000000 0.000000 3.207010 
# 
# 
# High freq. dielectric constant tensor:
#      x y z
#    x 1.743310 0.000000 0.000000 
#    y 0.000000 1.754230 0.000000 
#    z 0.000000 0.000000 1.699710 
# 
# From -- ./inp_files/39059.got.cif
#   From: 2010.03.12/outbox.cif.g09.slc.cpg/sg69_20_cif.got.tgz:39059.got - 2010.04.10 23:52:46.
