data_PCOD8284353
_publ_section_title
;
Structure prediction by ZEFSAII (Michael W. Deem and Ramdas Pophale) SiO2 
 PCOD8284353
Probable space group: F M M M
;
_chemical_formula_sum "Si O2"
_cell_formula_units_Z 208
_cell_length_a 32.412451
_cell_length_b 18.313055
_cell_length_c 19.954607
_cell_angle_alpha 90.000000
_cell_angle_beta 90.000000
_cell_angle_gamma 90.000000
_cell_volume 11844.475989
_symmetry_space_group_name_H-M "F M M M"
_symmetry_group_IT_number 69
_symmetry_cell_setting 'orthorhombic'
loop_
_space_group_symop_operation_xyz
x,y,z
-x,-y,z
x,-y,-z
-x,y,-z
-x,-y,-z
x,y,-z
-x,y,z
x,-y,z
x,1/2+y,1/2+z
-x,1/2-y,1/2+z
x,1/2-y,1/2-z
-x,1/2+y,1/2-z
-x,1/2-y,1/2-z
x,1/2+y,1/2-z
-x,1/2+y,1/2+z
x,1/2-y,1/2+z
1/2+x,y,1/2+z
1/2-x,-y,1/2+z
1/2+x,-y,1/2-z
1/2-x,y,1/2-z
1/2-x,-y,1/2-z
1/2+x,y,1/2-z
1/2-x,y,1/2+z
1/2+x,-y,1/2+z
1/2+x,1/2+y,z
1/2-x,1/2-y,z
1/2+x,1/2-y,-z
1/2-x,1/2+y,-z
1/2-x,1/2-y,-z
1/2+x,1/2+y,-z
1/2-x,1/2+y,z
1/2+x,1/2-y,z
loop_
_atom_site_type_symbol
_atom_site_label
_atom_site_fract_x
_atom_site_fract_y
_atom_site_fract_z
Si Si1 0.548172 0.919818 0.000000
Si Si2 0.829823 0.311615 0.423251
Si Si3 0.758364 0.081388 0.079320
Si Si4 0.399840 0.210953 0.681785
Si Si5 0.951759 0.582483 0.259784
Si Si6 0.414645 0.639838 0.369751
Si Si7 0.826015 0.355668 0.923885
O O1 0.561573 0.873870 0.937074
O O2 0.500000 0.929375 0.000000
O O3 0.569207 0.000000 0.000000
O O4 0.843695 0.332826 0.500000
O O5 0.793482 0.363469 0.395828
O O6 0.865771 0.320497 0.368757
O O7 0.813747 0.229185 0.423405
O O8 0.713105 0.102036 0.107558
O O9 0.769927 0.000000 0.103492
O O10 0.755272 0.087048 0.000000
O O11 0.381825 0.250000 0.750000
O O12 0.429967 0.142804 0.694093
O O13 0.425149 0.275753 0.646255
O O14 0.944997 0.500000 0.287711
O O15 0.931667 0.585298 0.186265
O O16 0.000000 0.601159 0.255476
O O17 0.365439 0.627849 0.377523
O O18 0.836175 0.380996 0.000000
#
# Coordination Sequence:
#
# PCOD8284353 Si02
#       7
#    16  32  32  32  32  32  32
#     4  11  22  32  46  76 114 141 161 199 263 324
#     4   9  17  31  53  75 101 131 170 216 262 304
#     4   9  17  27  43  73 105 134 171 211 252 305
#     4   9  20  35  56  78 102 133 179 219 260 312
#     4  10  21  37  55  74  99 136 179 218 261 317
#     4  10  19  33  52  77 105 137 174 212 258 313
#     4   9  16  29  47  71 103 137 169 206 256 313
#
# _framework density 17.560929000000002
#
# number of rings (size 3 to 8) (size 9 to 14) (size 15 to 20)
#    0.000    2.538    0.769    1.385    1.077    8.308 
#    0.000    0.000    0.000   15.692    0.000   11.846 
#    0.000    0.000    0.000    0.000    0.000    0.000 
#
# Total GULP energy -644516.946281 kJ/mol
# GULP energy per Si atom -12394.556659 kJ/mol
# Density = 1.752096 g / cm^3
# Si number density = 17.560929 Si / 1000 Ang^3
#
#
#
# Elastic Constant Matrix: (Units=GPa)
#
#
# Indices 1 2 3 4 5 6 
#
# 1 104.1899 57.1089 44.6922 0.0000 0.0000 0.0000
# 2 57.1089 94.8628 40.3658 0.0000 0.0000 0.0000
# 3 44.6922 40.3658 78.6695 0.0000 0.0000 0.0000
# 4 0.0000 0.0000 0.0000 22.1562 0.0000 0.0000
# 5 0.0000 0.0000 0.0000 0.0000 90.8334 0.0000
# 6 0.0000 0.0000 0.0000 0.0000 0.0000 26.5686
#
#
#
# Elastic Compliance Matrix: (Units=1/GPa)
#
#
# Indices 1 2 3 4 5 6 
#
# 1 0.015861 -0.007311 -0.005260 0.000000 0.000000 0.000000
# 2 -0.007311 0.016856 -0.004496 0.000000 0.000000 0.000000
# 3 -0.005260 -0.004496 0.018006 0.000000 0.000000 0.000000
# 4 0.000000 0.000000 0.000000 0.045134 0.000000 0.000000
# 5 0.000000 0.000000 0.000000 0.000000 0.011009 0.000000
# 6 0.000000 0.000000 0.000000 0.000000 0.000000 0.037638
#
#
# Mechanical properties :
#
#
# Convention : Reuss Voigt Hill
#
# Bulk Modulus (GPa) = 60.27262 62.45069 61.36165
# Shear Modulus (GPa) = 27.14943 36.94868 32.04905
#
# Velocity S-wave (km/s) = 3.93620 4.59194 4.27666
# Velocity P-wave (km/s) = 7.41989 7.98462 7.70743
#
# Compressibility (1/GPa) = 0.01659128
#
# Stress axis : x y z
#
# Youngs Moduli (GPa) = 63.04762 59.32768 55.53681
#
# Poissons Ratio (x) = 0.43372 0.29210
# Poissons Ratio (y) = 0.46091 0.24967
# Poissons Ratio (z) = 0.33160 0.26671
#
# Static dielectric constant tensor:
#      x y z
#    x 3.233910 0.000000 0.000000 
#    y 0.000000 3.403880 0.000000 
#    z 0.000000 0.000000 3.151210 
# 
# 
# High freq. dielectric constant tensor:
#      x y z
#    x 1.674710 0.000000 0.000000 
#    y 0.000000 1.687220 0.000000 
#    z 0.000000 0.000000 1.653340 
# 
# From -- ./inp_files/34017.got.cif
#   From: 2010.03.12/outbox.cif.g09.slc.cpg/sg69_18_cif.got.tgz:34017.got - 2010.04.10 23:52:46.
