data_PCOD8284930
_publ_section_title
;
Structure prediction by ZEFSAII (Michael W. Deem and Ramdas Pophale) SiO2 
 PCOD8284930
Probable space group: F M M M
;
_chemical_formula_sum "Si O2"
_cell_formula_units_Z 144
_cell_length_a 28.119338
_cell_length_b 19.110802
_cell_length_c 15.445402
_cell_angle_alpha 90.000000
_cell_angle_beta 90.000000
_cell_angle_gamma 90.000000
_cell_volume 8300.098021
_symmetry_space_group_name_H-M "F M M M"
_symmetry_group_IT_number 69
_symmetry_cell_setting 'orthorhombic'
loop_
_space_group_symop_operation_xyz
x,y,z
-x,-y,z
x,-y,-z
-x,y,-z
-x,-y,-z
x,y,-z
-x,y,z
x,-y,z
x,1/2+y,1/2+z
-x,1/2-y,1/2+z
x,1/2-y,1/2-z
-x,1/2+y,1/2-z
-x,1/2-y,1/2-z
x,1/2+y,1/2-z
-x,1/2+y,1/2+z
x,1/2-y,1/2+z
1/2+x,y,1/2+z
1/2-x,-y,1/2+z
1/2+x,-y,1/2-z
1/2-x,y,1/2-z
1/2-x,-y,1/2-z
1/2+x,y,1/2-z
1/2-x,y,1/2+z
1/2+x,-y,1/2+z
1/2+x,1/2+y,z
1/2-x,1/2-y,z
1/2+x,1/2-y,-z
1/2-x,1/2+y,-z
1/2-x,1/2-y,-z
1/2+x,1/2+y,-z
1/2-x,1/2+y,z
1/2+x,1/2-y,z
loop_
_atom_site_type_symbol
_atom_site_label
_atom_site_fract_x
_atom_site_fract_y
_atom_site_fract_z
Si Si1 0.448281 0.000000 0.101948
Si Si2 0.770154 0.077604 0.000000
Si Si3 0.786898 0.420695 0.175866
Si Si4 0.852793 0.707204 0.835003
Si Si5 0.195778 0.225386 0.000000
Si Si6 0.945124 0.348458 0.897859
O O1 0.424486 0.073849 0.127764
O O2 0.500000 0.000000 0.145885
O O3 0.455026 0.000000 0.000000
O O4 0.737213 0.085932 0.916941
O O5 0.808480 0.140402 0.000000
O O6 0.794742 0.000000 0.000000
O O7 0.804658 0.500000 0.192821
O O8 0.750000 0.397366 0.250000
O O9 0.832201 0.370444 0.177161
O O10 0.840844 0.750000 0.750000
O O11 0.829396 0.746103 0.915272
O O12 0.909875 0.704492 0.849193
O O13 0.250000 0.250000 0.000000
O O14 0.000000 0.337602 0.868109
O O15 0.941143 0.336019 0.000000
#
# Coordination Sequence:
#
# PCOD8284930 Si02
#       6
#    16  16  32  32  16  32
#     4   7  12  26  52  78 103 135 165 211 272 323
#     4  10  20  36  56  74 100 147 186 217 260 311
#     4  10  21  36  52  76 108 143 181 223 266 317
#     4  12  24  34  55  83 107 146 182 222 278 325
#     4  12  22  38  55  78 114 144 180 224 267 313
#     4   9  18  35  54  79 111 140 176 221 273 335
#
# _framework density 17.349193
#
# number of rings (size 3 to 8) (size 9 to 14) (size 15 to 20)
#    0.000    1.889    3.333    2.667    1.556    0.444 
#    0.000    0.000    0.000    0.000    0.000    0.000 
#    0.000    0.889    0.000    0.000    0.000    0.000 
#
# Total GULP energy -446079.505888 kJ/mol
# GULP energy per Si atom -12391.097386 kJ/mol
# Density = 1.730971 g / cm^3
# Si number density = 17.349193 Si / 1000 Ang^3
#
#
#
# Elastic Constant Matrix: (Units=GPa)
#
#
# Indices 1 2 3 4 5 6 
#
# 1 99.5041 55.8535 44.0706 0.0000 0.0000 0.0000
# 2 55.8535 109.3318 35.0433 0.0000 0.0000 0.0000
# 3 44.0706 35.0433 107.0030 0.0000 0.0000 0.0000
# 4 0.0000 0.0000 0.0000 25.3074 0.0000 0.0000
# 5 0.0000 0.0000 0.0000 0.0000 50.3078 0.0000
# 6 0.0000 0.0000 0.0000 0.0000 0.0000 23.2309
#
#
#
# Elastic Compliance Matrix: (Units=1/GPa)
#
#
# Indices 1 2 3 4 5 6 
#
# 1 0.015669 -0.006632 -0.004281 0.000000 0.000000 0.000000
# 2 -0.006632 0.013027 -0.001535 0.000000 0.000000 0.000000
# 3 -0.004281 -0.001535 0.011611 0.000000 0.000000 0.000000
# 4 0.000000 0.000000 0.000000 0.039514 0.000000 0.000000
# 5 0.000000 0.000000 0.000000 0.000000 0.019878 0.000000
# 6 0.000000 0.000000 0.000000 0.000000 0.000000 0.043046
#
#
# Mechanical properties :
#
#
# Convention : Reuss Voigt Hill
#
# Bulk Modulus (GPa) = 64.89150 65.08597 64.98873
# Shear Modulus (GPa) = 28.93885 31.82734 30.38309
#
# Velocity S-wave (km/s) = 4.08857 4.28777 4.18936
# Velocity P-wave (km/s) = 7.73130 7.88099 7.80650
#
# Compressibility (1/GPa) = 0.01541034
#
# Stress axis : x y z
#
# Youngs Moduli (GPa) = 63.82052 76.76625 86.12209
#
# Poissons Ratio (x) = 0.50914 0.36872
# Poissons Ratio (y) = 0.42328 0.13216
# Poissons Ratio (z) = 0.27324 0.11780
#
# Static dielectric constant tensor:
#      x y z
#    x 3.097340 0.000000 0.000000 
#    y 0.000000 3.597440 0.000000 
#    z 0.000000 0.000000 3.121440 
# 
# 
# High freq. dielectric constant tensor:
#      x y z
#    x 1.650420 0.000000 0.000000 
#    y 0.000000 1.678650 0.000000 
#    z 0.000000 0.000000 1.656560 
# 
# From -- ./inp_files/19489.got.cif
#   From: 2010.03.12/outbox.cif.g09.slc.cpg/sg69_10_cif.got.tgz:19489.got - 2010.04.10 23:52:46.
