data_PCOD8284733
_publ_section_title
;
Structure prediction by ZEFSAII (Michael W. Deem and Ramdas Pophale) SiO2 
 PCOD8284733
Probable space group: F M M M
;
_chemical_formula_sum "Si O2"
_cell_formula_units_Z 160
_cell_length_a 29.769589
_cell_length_b 8.920997
_cell_length_c 29.916244
_cell_angle_alpha 90.000000
_cell_angle_beta 90.000000
_cell_angle_gamma 90.000000
_cell_volume 7944.988974
_symmetry_space_group_name_H-M "F M M M"
_symmetry_group_IT_number 69
_symmetry_cell_setting 'orthorhombic'
loop_
_space_group_symop_operation_xyz
x,y,z
-x,-y,z
x,-y,-z
-x,y,-z
-x,-y,-z
x,y,-z
-x,y,z
x,-y,z
x,1/2+y,1/2+z
-x,1/2-y,1/2+z
x,1/2-y,1/2-z
-x,1/2+y,1/2-z
-x,1/2-y,1/2-z
x,1/2+y,1/2-z
-x,1/2+y,1/2+z
x,1/2-y,1/2+z
1/2+x,y,1/2+z
1/2-x,-y,1/2+z
1/2+x,-y,1/2-z
1/2-x,y,1/2-z
1/2-x,-y,1/2-z
1/2+x,y,1/2-z
1/2-x,y,1/2+z
1/2+x,-y,1/2+z
1/2+x,1/2+y,z
1/2-x,1/2-y,z
1/2+x,1/2-y,-z
1/2-x,1/2+y,-z
1/2-x,1/2-y,-z
1/2+x,1/2+y,-z
1/2-x,1/2+y,z
1/2+x,1/2-y,z
loop_
_atom_site_type_symbol
_atom_site_label
_atom_site_fract_x
_atom_site_fract_y
_atom_site_fract_z
Si Si1 0.051335 0.821935 0.000000
Si Si2 0.000000 0.176474 0.297874
Si Si3 0.413414 0.168166 0.325089
Si Si4 0.380815 0.332896 0.925018
Si Si5 0.672646 0.677333 0.706106
Si Si6 0.704164 0.323848 0.391939
O O1 0.080121 0.766061 0.042962
O O2 0.000000 0.755027 0.000000
O O3 0.046979 0.000000 0.000000
O O4 0.000000 0.250000 0.250000
O O5 0.957342 0.231556 0.325041
O O6 0.000000 0.000000 0.293607
O O7 0.399855 0.159252 0.375949
O O8 0.376673 0.250565 0.294910
O O9 0.421385 0.000000 0.306007
O O10 0.367436 0.500000 0.941469
O O11 0.336101 0.231331 0.924075
O O12 0.669665 0.500000 0.711810
O O13 0.697002 0.750000 0.750000
O O14 0.697694 0.722130 0.660207
O O15 0.707601 0.500000 0.397091
O O16 0.750000 0.250000 0.409144
#
# Coordination Sequence:
#
# PCOD8284733 Si02
#       6
#    16  16  32  32  32  32
#     4   9  18  34  62  95 122 147 182 229 276 333
#     4  12  24  36  50  71 102 141 187 236 279 328
#     4  10  20  34  53  76 105 143 185 229 278 333
#     4   9  19  36  60  87 116 148 184 228 278 336
#     4  10  20  34  52  76 108 146 186 233 282 331
#     4  10  21  37  58  82 113 150 191 236 284 337
#
# _framework density 20.138480000000001
#
# number of rings (size 3 to 8) (size 9 to 14) (size 15 to 20)
#    0.000    2.100    0.000    3.300    1.400    3.600 
#    0.000    3.000    0.000    0.600    0.000    0.000 
#    0.000    0.000    0.000    0.000    0.000    0.000 
#
# Total GULP energy -495890.726518 kJ/mol
# GULP energy per Si atom -12397.268163 kJ/mol
# Density = 2.009264 g / cm^3
# Si number density = 20.138480 Si / 1000 Ang^3
#
#
#
# Elastic Constant Matrix: (Units=GPa)
#
#
# Indices 1 2 3 4 5 6 
#
# 1 148.5006 54.7941 33.0711 0.0000 0.0000 0.0001
# 2 54.7941 106.7050 20.4474 0.0000 -0.0001 0.0005
# 3 33.0711 20.4474 69.1852 0.0000 0.0000 0.0000
# 4 0.0000 0.0000 0.0000 17.4586 0.0000 0.0000
# 5 0.0000 -0.0001 0.0000 0.0000 17.6480 0.0001
# 6 0.0001 0.0005 0.0000 0.0000 0.0001 31.7346
#
#
#
# Elastic Compliance Matrix: (Units=1/GPa)
#
#
# Indices 1 2 3 4 5 6 
#
# 1 0.008884 -0.003973 -0.003072 0.000000 0.000000 0.000000
# 2 -0.003973 0.011711 -0.001562 0.000000 0.000000 0.000000
# 3 -0.003072 -0.001562 0.016384 0.000000 0.000000 0.000000
# 4 0.000000 0.000000 0.000000 0.057278 0.000000 0.000000
# 5 0.000000 0.000000 0.000000 0.000000 0.056664 0.000000
# 6 0.000000 0.000000 0.000000 0.000000 0.000000 0.031511
#
#
# Mechanical properties :
#
#
# Convention : Reuss Voigt Hill
#
# Bulk Modulus (GPa) = 50.59626 60.11291 55.35459
# Shear Modulus (GPa) = 24.24399 27.77348 26.00873
#
# Velocity S-wave (km/s) = 3.47344 3.71769 3.59764
# Velocity P-wave (km/s) = 6.42379 6.95290 6.69358
#
# Compressibility (1/GPa) = 0.01976431
#
# Stress axis : x y z
#
# Youngs Moduli (GPa) = 112.55756 85.38738 61.03434
#
# Poissons Ratio (x) = 0.33928 0.18753
# Poissons Ratio (y) = 0.44724 0.09533
# Poissons Ratio (z) = 0.34583 0.13337
#
# Static dielectric constant tensor:
#      x y z
#    x 3.734040 0.000000 0.000000 
#    y 0.000000 3.798370 0.000000 
#    z 0.000000 0.000000 3.592480 
# 
# 
# High freq. dielectric constant tensor:
#      x y z
#    x 1.787500 0.000000 0.000000 
#    y 0.000000 1.780470 0.000000 
#    z 0.000000 0.000000 1.776560 
# 
# From -- ./inp_files/5753.got.cif
#   From: 2010.03.12/outbox.cif.g09.slc.cpg/sg69_3_cif.got.tgz:5753.got - 2010.04.10 23:52:46.
