data_PCOD8284515
_publ_section_title
;
Structure prediction by ZEFSAII (Michael W. Deem and Ramdas Pophale) SiO2 
 PCOD8284515
Probable space group: F M M M
;
_chemical_formula_sum "Si O2"
_cell_formula_units_Z 160
_cell_length_a 19.324108
_cell_length_b 14.457898
_cell_length_c 30.784246
_cell_angle_alpha 90.000000
_cell_angle_beta 90.000000
_cell_angle_gamma 90.000000
_cell_volume 8600.686811
_symmetry_space_group_name_H-M "F M M M"
_symmetry_group_IT_number 69
_symmetry_cell_setting 'orthorhombic'
loop_
_space_group_symop_operation_xyz
x,y,z
-x,-y,z
x,-y,-z
-x,y,-z
-x,-y,-z
x,y,-z
-x,y,z
x,-y,z
x,1/2+y,1/2+z
-x,1/2-y,1/2+z
x,1/2-y,1/2-z
-x,1/2+y,1/2-z
-x,1/2-y,1/2-z
x,1/2+y,1/2-z
-x,1/2+y,1/2+z
x,1/2-y,1/2+z
1/2+x,y,1/2+z
1/2-x,-y,1/2+z
1/2+x,-y,1/2-z
1/2-x,y,1/2-z
1/2-x,-y,1/2-z
1/2+x,y,1/2-z
1/2-x,y,1/2+z
1/2+x,-y,1/2+z
1/2+x,1/2+y,z
1/2-x,1/2-y,z
1/2+x,1/2-y,-z
1/2-x,1/2+y,-z
1/2-x,1/2-y,-z
1/2+x,1/2+y,-z
1/2-x,1/2+y,z
1/2+x,1/2-y,z
loop_
_atom_site_type_symbol
_atom_site_label
_atom_site_fract_x
_atom_site_fract_y
_atom_site_fract_z
Si Si1 0.679486 0.808627 0.360014
Si Si2 0.830806 0.265570 0.546461
Si Si3 0.702789 0.000000 0.686149
Si Si4 0.422018 0.604373 0.426533
Si Si5 0.856285 0.500000 0.778202
Si Si6 0.920563 0.161265 0.670311
O O1 0.750000 0.750000 0.359951
O O2 0.649744 0.820847 0.409517
O O3 0.624258 0.755475 0.329676
O O4 0.690295 0.910429 0.342706
O O5 0.851950 0.313822 0.500000
O O6 0.750000 0.250000 0.546074
O O7 0.868434 0.166574 0.547435
O O8 0.781338 0.000000 0.700707
O O9 0.650009 0.000000 0.726269
O O10 0.500000 0.637218 0.437213
O O11 0.410017 0.500000 0.442100
O O12 0.408914 0.608801 0.374998
O O13 0.896864 0.407409 0.791568
O O14 0.000000 0.188806 0.678213
#
# Coordination Sequence:
#
# PCOD8284515 Si02
#       6
#    32  32  16  32  16  32
#     4  10  20  39  60  79 115 154 190 234 284 340
#     4   9  19  34  51  77 114 151 188 228 275 337
#     4  11  24  38  57  86 110 149 199 234 275 334
#     4   9  17  30  55  86 115 146 181 227 289 350
#     4  11  21  36  58  88 117 142 188 244 280 336
#     4  10  19  35  59  87 116 152 188 230 292 342
#
# _framework density 18.603165000000001
#
# number of rings (size 3 to 8) (size 9 to 14) (size 15 to 20)
#    0.000    2.200    3.000    0.300    0.000    1.600 
#    0.000    5.000    0.000    0.000    0.000    0.000 
#    0.000    6.400    0.000    0.000    0.000    0.000 
#
# Total GULP energy -495794.474780 kJ/mol
# GULP energy per Si atom -12394.861870 kJ/mol
# Density = 1.856082 g / cm^3
# Si number density = 18.603165 Si / 1000 Ang^3
#
#
#
# Elastic Constant Matrix: (Units=GPa)
#
#
# Indices 1 2 3 4 5 6 
#
# 1 98.0541 45.9021 28.3572 0.0000 0.0000 0.0000
# 2 45.9021 119.3249 58.4958 0.0000 0.0000 0.0000
# 3 28.3572 58.4958 112.7195 0.0000 0.0000 0.0000
# 4 0.0000 0.0000 0.0000 22.4429 0.0000 0.0000
# 5 0.0000 0.0000 0.0000 0.0000 42.8139 0.0000
# 6 0.0000 0.0000 0.0000 0.0000 0.0000 32.4884
#
#
#
# Elastic Compliance Matrix: (Units=1/GPa)
#
#
# Indices 1 2 3 4 5 6 
#
# 1 0.012502 -0.004382 -0.000871 0.000000 0.000000 0.000000
# 2 -0.004382 0.012776 -0.005528 0.000000 0.000000 0.000000
# 3 -0.000871 -0.005528 0.011959 0.000000 0.000000 0.000000
# 4 0.000000 0.000000 0.000000 0.044558 0.000000 0.000000
# 5 0.000000 0.000000 0.000000 0.000000 0.023357 0.000000
# 6 0.000000 0.000000 0.000000 0.000000 0.000000 0.030780
#
#
# Mechanical properties :
#
#
# Convention : Reuss Voigt Hill
#
# Bulk Modulus (GPa) = 63.79436 66.17875 64.98655
# Shear Modulus (GPa) = 30.72788 32.70526 31.71657
#
# Velocity S-wave (km/s) = 4.06859 4.19746 4.13353
# Velocity P-wave (km/s) = 7.51251 7.69043 7.60199
#
# Compressibility (1/GPa) = 0.01567537
#
# Stress axis : x y z
#
# Youngs Moduli (GPa) = 79.98854 78.27146 83.61716
#
# Poissons Ratio (x) = 0.34301 0.07283
# Poissons Ratio (y) = 0.35053 0.46221
# Poissons Ratio (z) = 0.06966 0.43266
#
# Static dielectric constant tensor:
#      x y z
#    x 3.333700 0.000000 0.000000 
#    y 0.000000 3.199070 0.000000 
#    z 0.000000 0.000000 3.791810 
# 
# 
# High freq. dielectric constant tensor:
#      x y z
#    x 1.723100 0.000000 0.000000 
#    y 0.000000 1.694690 0.000000 
#    z 0.000000 0.000000 1.727300 
# 
# From -- ./inp_files/27482.got.cif
#   From: 2010.03.12/outbox.cif.g09.slc.cpg/sg69_14_cif.got.tgz:27482.got - 2010.04.10 23:52:46.
