data_PCOD8284595
_publ_section_title
;
Structure prediction by ZEFSAII (Michael W. Deem and Ramdas Pophale) SiO2 
 PCOD8284595
Probable space group: F M M M
;
_chemical_formula_sum "Si O2"
_cell_formula_units_Z 176
_cell_length_a 18.056744
_cell_length_b 28.509790
_cell_length_c 20.665507
_cell_angle_alpha 90.000000
_cell_angle_beta 90.000000
_cell_angle_gamma 90.000000
_cell_volume 10638.478587
_symmetry_space_group_name_H-M "F M M M"
_symmetry_group_IT_number 69
_symmetry_cell_setting 'orthorhombic'
loop_
_space_group_symop_operation_xyz
x,y,z
-x,-y,z
x,-y,-z
-x,y,-z
-x,-y,-z
x,y,-z
-x,y,z
x,-y,z
x,1/2+y,1/2+z
-x,1/2-y,1/2+z
x,1/2-y,1/2-z
-x,1/2+y,1/2-z
-x,1/2-y,1/2-z
x,1/2+y,1/2-z
-x,1/2+y,1/2+z
x,1/2-y,1/2+z
1/2+x,y,1/2+z
1/2-x,-y,1/2+z
1/2+x,-y,1/2-z
1/2-x,y,1/2-z
1/2-x,-y,1/2-z
1/2+x,y,1/2-z
1/2-x,y,1/2+z
1/2+x,-y,1/2+z
1/2+x,1/2+y,z
1/2-x,1/2-y,z
1/2+x,1/2-y,-z
1/2-x,1/2+y,-z
1/2-x,1/2-y,-z
1/2+x,1/2+y,-z
1/2-x,1/2+y,z
1/2+x,1/2-y,z
loop_
_atom_site_type_symbol
_atom_site_label
_atom_site_fract_x
_atom_site_fract_y
_atom_site_fract_z
Si Si1 0.194169 0.626594 0.691566
Si Si2 0.586732 0.949269 0.500000
Si Si3 0.082199 0.788507 0.198814
Si Si4 0.631897 0.750426 0.571207
Si Si5 0.242093 0.327985 0.928680
Si Si6 0.914989 0.555762 0.640061
O O1 0.250000 0.618795 0.750000
O O2 0.141989 0.670824 0.703807
O O3 0.242335 0.633208 0.626208
O O4 0.141680 0.580809 0.688351
O O5 0.500000 0.958720 0.500000
O O6 0.605530 0.923475 0.567826
O O7 0.626809 0.000000 0.500000
O O8 0.108774 0.750000 0.250000
O O9 0.075908 0.764498 0.128020
O O10 0.000000 0.807603 0.215571
O O11 0.593231 0.751472 0.500000
O O12 0.696661 0.788141 0.572365
O O13 0.664029 0.698217 0.584485
O O14 0.240775 0.352301 0.000000
O O15 0.903593 0.500000 0.642720
O O16 0.000000 0.568529 0.657758
#
# Coordination Sequence:
#
# PCOD8284595 Si02
#       6
#    32  16  32  32  32  32
#     4  11  21  30  46  70  95 126 162 198 239 289
#     4   7  12  26  48  70  90 119 151 179 227 288
#     4  10  20  32  45  63  91 124 160 201 242 285
#     4   8  14  27  44  61  84 114 151 194 236 274
#     4   8  15  27  43  62  86 118 153 190 231 274
#     4   9  18  33  51  70  96 127 158 195 241 294
#
# _framework density 16.543718999999999
#
# number of rings (size 3 to 8) (size 9 to 14) (size 15 to 20)
#    0.000    3.000    0.000    3.818    1.273    2.545 
#    0.000    0.000    0.000    0.000    0.000    0.000 
#    0.000    0.000    0.000    2.000    0.000    0.000 
#
# Total GULP energy -545086.732161 kJ/mol
# GULP energy per Si atom -12388.334822 kJ/mol
# Density = 1.650606 g / cm^3
# Si number density = 16.543719 Si / 1000 Ang^3
#
#
#
# Elastic Constant Matrix: (Units=GPa)
#
#
# Indices 1 2 3 4 5 6 
#
# 1 68.9505 36.0514 47.5137 0.0000 0.0000 0.0000
# 2 36.0514 56.0175 44.1887 0.0000 0.0000 0.0000
# 3 47.5137 44.1887 113.4030 0.0000 0.0000 0.0000
# 4 0.0000 0.0000 0.0000 9.7073 0.0000 0.0000
# 5 0.0000 0.0000 0.0000 0.0000 14.2192 0.0000
# 6 0.0000 0.0000 0.0000 0.0000 0.0000 18.4440
#
#
#
# Elastic Compliance Matrix: (Units=1/GPa)
#
#
# Indices 1 2 3 4 5 6 
#
# 1 0.024321 -0.010993 -0.005906 0.000000 0.000000 0.000000
# 2 -0.010993 0.030743 -0.007373 0.000000 0.000000 0.000000
# 3 -0.005906 -0.007373 0.014166 0.000000 0.000000 0.000000
# 4 0.000000 0.000000 0.000000 0.103016 0.000000 0.000000
# 5 0.000000 0.000000 0.000000 0.000000 0.070327 0.000000
# 6 0.000000 0.000000 0.000000 0.000000 0.000000 0.054218
#
#
# Mechanical properties :
#
#
# Convention : Reuss Voigt Hill
#
# Bulk Modulus (GPa) = 48.34680 54.87539 51.61109
# Shear Modulus (GPa) = 14.19520 15.84859 15.02189
#
# Velocity S-wave (km/s) = 2.93241 3.09849 3.01659
# Velocity P-wave (km/s) = 6.38377 6.78548 6.58769
#
# Compressibility (1/GPa) = 0.02068389
#
# Stress axis : x y z
#
# Youngs Moduli (GPa) = 41.11641 32.52785 70.59197
#
# Poissons Ratio (x) = 0.35759 0.41695
# Poissons Ratio (y) = 0.45200 0.52050
# Poissons Ratio (z) = 0.24285 0.23984
#
# Static dielectric constant tensor:
#      x y z
#    x 2.896110 0.000000 0.000000 
#    y 0.000000 2.813220 0.000000 
#    z 0.000000 0.000000 3.475120 
# 
# 
# High freq. dielectric constant tensor:
#      x y z
#    x 1.612640 0.000000 0.000000 
#    y 0.000000 1.602470 0.000000 
#    z 0.000000 0.000000 1.643850 
# 
# From -- ./inp_files/23587.got.cif
#   From: 2010.03.12/outbox.cif.g09.slc.cpg/sg69_12_cif.got.tgz:23587.got - 2010.04.10 23:52:46.
