data_PCOD8284164
_publ_section_title
;
Structure prediction by ZEFSAII (Michael W. Deem and Ramdas Pophale) SiO2 
 PCOD8284164
Probable space group: F M M M
;
_chemical_formula_sum "Si O2"
_cell_formula_units_Z 144
_cell_length_a 28.796890
_cell_length_b 9.157455
_cell_length_c 30.988879
_cell_angle_alpha 90.000000
_cell_angle_beta 90.000000
_cell_angle_gamma 90.000000
_cell_volume 8171.960277
_symmetry_space_group_name_H-M "F M M M"
_symmetry_group_IT_number 69
_symmetry_cell_setting 'orthorhombic'
loop_
_space_group_symop_operation_xyz
x,y,z
-x,-y,z
x,-y,-z
-x,y,-z
-x,-y,-z
x,y,-z
-x,y,z
x,-y,z
x,1/2+y,1/2+z
-x,1/2-y,1/2+z
x,1/2-y,1/2-z
-x,1/2+y,1/2-z
-x,1/2-y,1/2-z
x,1/2+y,1/2-z
-x,1/2+y,1/2+z
x,1/2-y,1/2+z
1/2+x,y,1/2+z
1/2-x,-y,1/2+z
1/2+x,-y,1/2-z
1/2-x,y,1/2-z
1/2-x,-y,1/2-z
1/2+x,y,1/2-z
1/2-x,y,1/2+z
1/2+x,-y,1/2+z
1/2+x,1/2+y,z
1/2-x,1/2-y,z
1/2+x,1/2-y,-z
1/2-x,1/2+y,-z
1/2-x,1/2-y,-z
1/2+x,1/2+y,-z
1/2-x,1/2+y,z
1/2+x,1/2-y,z
loop_
_atom_site_type_symbol
_atom_site_label
_atom_site_fract_x
_atom_site_fract_y
_atom_site_fract_z
Si Si1 0.553400 0.329174 0.794402
Si Si2 0.798058 0.330936 0.093472
Si Si3 0.797310 0.331865 0.000000
Si Si4 0.052503 0.173367 0.547335
Si Si5 0.606837 0.827517 0.130308
O O1 0.500000 0.300265 0.807428
O O2 0.563736 0.500000 0.789213
O O3 0.565647 0.250000 0.750000
O O4 0.586475 0.261813 0.830260
O O5 0.785302 0.500000 0.095578
O O6 0.750000 0.250000 0.103960
O O7 0.837993 0.293392 0.128119
O O8 0.821184 0.292489 0.046011
O O9 0.750000 0.250000 0.000000
O O10 0.785296 0.500000 0.000000
O O11 0.070660 0.227474 0.500000
O O12 0.083681 0.233351 0.586296
O O13 0.000000 0.228948 0.554476
O O14 0.054109 0.000000 0.547727
O O15 0.597240 0.000000 0.136465
#
# Coordination Sequence:
#
# PCOD8284164 Si02
#       5
#    32  32  16  32  32
#     4  10  21  37  57  80 105 132 163 203 253 308
#     4   9  18  30  46  69  99 136 175 217 259 298
#     4   8  14  26  42  62  91 128 171 215 254 289
#     4   8  14  24  40  66  99 132 166 204 244 289
#     4  10  19  30  50  77 103 133 171 214 257 301
#
# _framework density 17.621230000000001
#
# number of rings (size 3 to 8) (size 9 to 14) (size 15 to 20)
#    0.000    2.889    0.000    2.000    1.556    3.111 
#    0.000    0.000    0.000    1.333    0.000    7.778 
#    0.000    0.000    0.000    0.000    0.000    0.000 
#
# Total GULP energy -445975.766708 kJ/mol
# GULP energy per Si atom -12388.215742 kJ/mol
# Density = 1.758112 g / cm^3
# Si number density = 17.621230 Si / 1000 Ang^3
#
#
#
# Elastic Constant Matrix: (Units=GPa)
#
#
# Indices 1 2 3 4 5 6 
#
# 1 98.3688 46.4388 77.3249 0.0000 0.0000 0.0002
# 2 46.4388 58.4921 55.0389 -0.0001 0.0001 0.0004
# 3 77.3249 55.0389 127.7512 0.0000 0.0000 0.0000
# 4 0.0000 -0.0001 0.0000 24.3132 0.0000 0.0000
# 5 0.0000 0.0001 0.0000 0.0000 22.3904 -0.0001
# 6 0.0002 0.0004 0.0000 0.0000 -0.0001 23.3194
#
#
#
# Elastic Compliance Matrix: (Units=1/GPa)
#
#
# Indices 1 2 3 4 5 6 
#
# 1 0.021453 -0.008096 -0.009497 0.000000 0.000000 0.000000
# 2 -0.008096 0.031808 -0.008803 0.000000 0.000000 -0.000001
# 3 -0.009497 -0.008803 0.017369 0.000000 0.000000 0.000000
# 4 0.000000 0.000000 0.000000 0.041130 0.000000 0.000000
# 5 0.000000 0.000000 0.000000 0.000000 0.044662 0.000000
# 6 0.000000 -0.000001 0.000000 0.000000 0.000000 0.042883
#
#
# Mechanical properties :
#
#
# Convention : Reuss Voigt Hill
#
# Bulk Modulus (GPa) = 56.06394 71.35747 63.71071
# Shear Modulus (GPa) = 19.37660 21.05857 20.21759
#
# Velocity S-wave (km/s) = 3.31964 3.46073 3.39092
# Velocity P-wave (km/s) = 6.82485 7.52010 7.18090
#
# Compressibility (1/GPa) = 0.01783678
#
# Stress axis : x y z
#
# Youngs Moduli (GPa) = 46.61275 31.43906 57.57404
#
# Poissons Ratio (x) = 0.25453 0.54680
# Poissons Ratio (y) = 0.37737 0.50684
# Poissons Ratio (z) = 0.44269 0.27677
#
# Static dielectric constant tensor:
#      x y z
#    x 3.177550 0.000000 0.000000 
#    y 0.000000 3.016710 0.000000 
#    z 0.000000 0.000000 3.224230 
# 
# 
# High freq. dielectric constant tensor:
#      x y z
#    x 1.673640 0.000000 0.000000 
#    y 0.000000 1.653220 0.000000 
#    z 0.000000 0.000000 1.675800 
# 
# From -- ./inp_files/5568.got.cif
#   From: 2010.03.12/outbox.cif.g09.slc.cpg/sg69_3_cif.got.tgz:5568.got - 2010.04.10 23:52:46.
