data_PCOD8284405
_publ_section_title
;
Structure prediction by ZEFSAII (Michael W. Deem and Ramdas Pophale) SiO2 
 PCOD8284405
Probable space group: F M M M
;
_chemical_formula_sum "Si O2"
_cell_formula_units_Z 160
_cell_length_a 24.792962
_cell_length_b 18.431181
_cell_length_c 18.488298
_cell_angle_alpha 90.000000
_cell_angle_beta 90.000000
_cell_angle_gamma 90.000000
_cell_volume 8448.478660
_symmetry_space_group_name_H-M "F M M M"
_symmetry_group_IT_number 69
_symmetry_cell_setting 'orthorhombic'
loop_
_space_group_symop_operation_xyz
x,y,z
-x,-y,z
x,-y,-z
-x,y,-z
-x,-y,-z
x,y,-z
-x,y,z
x,-y,z
x,1/2+y,1/2+z
-x,1/2-y,1/2+z
x,1/2-y,1/2-z
-x,1/2+y,1/2-z
-x,1/2-y,1/2-z
x,1/2+y,1/2-z
-x,1/2+y,1/2+z
x,1/2-y,1/2+z
1/2+x,y,1/2+z
1/2-x,-y,1/2+z
1/2+x,-y,1/2-z
1/2-x,y,1/2-z
1/2-x,-y,1/2-z
1/2+x,y,1/2-z
1/2-x,y,1/2+z
1/2+x,-y,1/2+z
1/2+x,1/2+y,z
1/2-x,1/2-y,z
1/2+x,1/2-y,-z
1/2-x,1/2+y,-z
1/2-x,1/2-y,-z
1/2+x,1/2+y,-z
1/2-x,1/2+y,z
1/2+x,1/2-y,z
loop_
_atom_site_type_symbol
_atom_site_label
_atom_site_fract_x
_atom_site_fract_y
_atom_site_fract_z
Si Si1 0.094826 0.825442 0.416489
Si Si2 0.000000 0.086390 0.343519
Si Si3 0.806504 0.920676 0.084904
Si Si4 0.087425 0.341076 0.417241
Si Si5 0.500000 0.084689 0.676570
Si Si6 0.784122 0.318081 0.085832
O O1 0.095506 0.849110 0.500000
O O2 0.054425 0.879896 0.376619
O O3 0.074272 0.743382 0.407756
O O4 0.155378 0.827700 0.382680
O O5 0.000000 0.107517 0.259787
O O6 0.000000 0.000000 0.356912
O O7 0.851434 0.860834 0.104837
O O8 0.748357 0.890218 0.108884
O O9 0.816418 0.000000 0.121295
O O10 0.806492 0.931038 0.000000
O O11 0.075196 0.364712 0.500000
O O12 0.052412 0.385422 0.361762
O O13 0.500000 0.000000 0.667030
O O14 0.750000 0.250000 0.117438
O O15 0.789470 0.307065 0.000000
#
# Coordination Sequence:
#
# PCOD8284405 Si02
#       6
#    32  16  32  32  16  32
#     4  10  20  35  59  85 111 146 186 232 282 325
#     4  11  26  43  54  74 110 153 202 243 274 320
#     4   9  16  26  45  78 115 143 170 214 273 333
#     4  10  19  33  56  86 113 137 177 229 284 349
#     4  11  24  39  54  74 108 151 186 227 284 336
#     4   9  15  28  50  79 114 144 173 219 275 330
#
# _framework density 18.938320999999998
#
# number of rings (size 3 to 8) (size 9 to 14) (size 15 to 20)
#    0.000    2.200    2.000    1.800    0.000    6.400 
#    0.000    2.000    0.000    1.200    0.000    4.200 
#    0.000    0.000    0.000    0.000    0.000    0.000 
#
# Total GULP energy -495766.976764 kJ/mol
# GULP energy per Si atom -12394.174419 kJ/mol
# Density = 1.889522 g / cm^3
# Si number density = 18.938321 Si / 1000 Ang^3
#
#
#
# Elastic Constant Matrix: (Units=GPa)
#
#
# Indices 1 2 3 4 5 6 
#
# 1 151.5956 52.0718 51.7737 0.0000 0.0000 0.0000
# 2 52.0718 93.1871 42.5314 0.0000 0.0000 0.0000
# 3 51.7737 42.5314 67.7620 0.0000 0.0000 0.0000
# 4 0.0000 0.0000 0.0000 20.7599 0.0000 0.0000
# 5 0.0000 0.0000 0.0000 0.0000 0.7893 0.0000
# 6 0.0000 0.0000 0.0000 0.0000 0.0000 51.6949
#
#
#
# Elastic Compliance Matrix: (Units=1/GPa)
#
#
# Indices 1 2 3 4 5 6 
#
# 1 0.009410 -0.002770 -0.005451 0.000000 0.000000 0.000000
# 2 -0.002770 0.015855 -0.007835 0.000000 0.000000 0.000000
# 3 -0.005451 -0.007835 0.023840 0.000000 0.000000 0.000000
# 4 0.000000 0.000000 0.000000 0.048170 0.000000 0.000000
# 5 0.000000 0.000000 0.000000 0.000000 1.266875 0.000000
# 6 0.000000 0.000000 0.000000 0.000000 0.000000 0.019344
#
#
# Mechanical properties :
#
#
# Convention : Reuss Voigt Hill
#
# Bulk Modulus (GPa) = 58.84867 67.25538 63.05203
# Shear Modulus (GPa) = 3.51798 25.72668 14.62233
#
# Velocity S-wave (km/s) = 1.36442 3.68971 2.78169
# Velocity P-wave (km/s) = 5.79858 7.33089 6.60929
#
# Compressibility (1/GPa) = 0.01699274
#
# Stress axis : x y z
#
# Youngs Moduli (GPa) = 106.27463 63.07158 41.94671
#
# Poissons Ratio (x) = 0.17472 0.22864
# Poissons Ratio (y) = 0.29440 0.32865
# Poissons Ratio (z) = 0.57927 0.49416
#
# Static dielectric constant tensor:
#      x y z
#    x 3.706370 0.000000 0.000000 
#    y 0.000000 3.652390 0.000000 
#    z 0.000000 0.000000 3.044720 
# 
# 
# High freq. dielectric constant tensor:
#      x y z
#    x 1.753290 0.000000 0.000000 
#    y 0.000000 1.744910 0.000000 
#    z 0.000000 0.000000 1.675400 
# 
# From -- ./inp_files/26686.got.cif
#   From: 2010.03.12/outbox.cif.g09.slc.cpg/sg69_14_cif.got.tgz:26686.got - 2010.04.10 23:52:46.
