data_PCOD8284047
_publ_section_title
;
Structure prediction by ZEFSAII (Michael W. Deem and Ramdas Pophale) SiO2 
 PCOD8284047
Probable space group: F M M M
;
_chemical_formula_sum "Si O2"
_cell_formula_units_Z 96
_cell_length_a 8.516636
_cell_length_b 24.444138
_cell_length_c 20.038497
_cell_angle_alpha 90.000000
_cell_angle_beta 90.000000
_cell_angle_gamma 90.000000
_cell_volume 4171.650889
_symmetry_space_group_name_H-M "F M M M"
_symmetry_group_IT_number 69
_symmetry_cell_setting 'orthorhombic'
loop_
_space_group_symop_operation_xyz
x,y,z
-x,-y,z
x,-y,-z
-x,y,-z
-x,-y,-z
x,y,-z
-x,y,z
x,-y,z
x,1/2+y,1/2+z
-x,1/2-y,1/2+z
x,1/2-y,1/2-z
-x,1/2+y,1/2-z
-x,1/2-y,1/2-z
x,1/2+y,1/2-z
-x,1/2+y,1/2+z
x,1/2-y,1/2+z
1/2+x,y,1/2+z
1/2-x,-y,1/2+z
1/2+x,-y,1/2-z
1/2-x,y,1/2-z
1/2-x,-y,1/2-z
1/2+x,y,1/2-z
1/2-x,y,1/2+z
1/2+x,-y,1/2+z
1/2+x,1/2+y,z
1/2-x,1/2-y,z
1/2+x,1/2-y,-z
1/2-x,1/2+y,-z
1/2-x,1/2-y,-z
1/2+x,1/2+y,-z
1/2-x,1/2+y,z
1/2+x,1/2-y,z
loop_
_atom_site_type_symbol
_atom_site_label
_atom_site_fract_x
_atom_site_fract_y
_atom_site_fract_z
Si Si1 0.314384 0.082717 0.182169
Si Si2 0.686828 0.810747 0.000000
Si Si3 0.685491 0.810703 0.636825
Si Si4 0.813937 0.000000 0.922519
O O1 0.500000 0.079138 0.180369
O O2 0.250000 0.054138 0.250000
O O3 0.255078 0.145606 0.188156
O O4 0.248299 0.053399 0.116140
O O5 0.750000 0.750000 0.000000
O O6 0.756879 0.837012 0.066548
O O7 0.500000 0.813301 0.000000
O O8 0.500000 0.807909 0.640399
O O9 0.750000 0.750000 0.651447
O O10 0.000000 0.000000 0.920952
O O11 0.754394 0.000000 0.000000
#
# Coordination Sequence:
#
# PCOD8284047 Si02
#       4
#    32  16  32  16
#     4  12  26  46  71 101 139 182 230 281 343 409
#     4  10  18  32  54  85 124 171 220 272 329 388
#     4  11  22  39  63  96 137 181 229 280 339 403
#     4  11  26  49  76 105 137 175 226 283 343 406
#
# _framework density 23.012474000000001
#
# number of rings (size 3 to 8) (size 9 to 14) (size 15 to 20)
#    0.000    0.833    0.000   10.500    2.333    2.000 
#    0.000    3.333    0.000    0.000    0.000    0.000 
#    0.000    0.000    0.000    0.000    0.000    0.000 
#
# Total GULP energy -297494.098002 kJ/mol
# GULP energy per Si atom -12395.587417 kJ/mol
# Density = 2.296010 g / cm^3
# Si number density = 23.012474 Si / 1000 Ang^3
#
#
#
# Elastic Constant Matrix: (Units=GPa)
#
#
# Indices 1 2 3 4 5 6 
#
# 1 198.8067 44.3553 65.5971 0.0000 0.0000 0.0000
# 2 44.3553 127.1936 50.7488 0.0000 0.0000 0.0000
# 3 65.5971 50.7488 158.5550 0.0000 0.0000 0.0000
# 4 0.0000 0.0000 0.0000 13.7448 0.0000 0.0000
# 5 0.0000 0.0000 0.0000 0.0000 36.5697 0.0000
# 6 0.0000 0.0000 0.0000 0.0000 0.0000 38.5710
#
#
#
# Elastic Compliance Matrix: (Units=1/GPa)
#
#
# Indices 1 2 3 4 5 6 
#
# 1 0.005997 -0.001263 -0.002077 0.000000 0.000000 0.000000
# 2 -0.001263 0.009279 -0.002448 0.000000 0.000000 0.000000
# 3 -0.002077 -0.002448 0.007950 0.000000 0.000000 0.000000
# 4 0.000000 0.000000 0.000000 0.072755 0.000000 0.000000
# 5 0.000000 0.000000 0.000000 0.000000 0.027345 0.000000
# 6 0.000000 0.000000 0.000000 0.000000 0.000000 0.025926
#
#
# Mechanical properties :
#
#
# Convention : Reuss Voigt Hill
#
# Bulk Modulus (GPa) = 85.82724 89.55086 87.68905
# Shear Modulus (GPa) = 30.35645 39.36738 34.86192
#
# Velocity S-wave (km/s) = 3.63592 4.14055 3.89641
# Velocity P-wave (km/s) = 7.41644 7.86494 7.64398
#
# Compressibility (1/GPa) = 0.01165131
#
# Stress axis : x y z
#
# Youngs Moduli (GPa) = 166.74989 107.77180 125.79238
#
# Poissons Ratio (x) = 0.13607 0.26126
# Poissons Ratio (y) = 0.21054 0.30788
# Poissons Ratio (z) = 0.34633 0.26377
#
# Static dielectric constant tensor:
#      x y z
#    x 4.082290 0.000000 0.000000 
#    y 0.000000 3.691580 0.000000 
#    z 0.000000 0.000000 4.914450 
# 
# 
# High freq. dielectric constant tensor:
#      x y z
#    x 1.920870 0.000000 0.000000 
#    y 0.000000 1.909230 0.000000 
#    z 0.000000 0.000000 1.926060 
# 
# From -- ./inp_files/28450.got.cif
#   From: 2010.03.12/outbox.cif.g09.slc.cpg/sg69_15_cif.got.tgz:28450.got - 2010.04.10 23:52:46.
