data_PCOD8284902
_publ_section_title
;
Structure prediction by ZEFSAII (Michael W. Deem and Ramdas Pophale) SiO2 
 PCOD8284902
Probable space group: F M M M
;
_chemical_formula_sum "Si O2"
_cell_formula_units_Z 112
_cell_length_a 23.792059
_cell_length_b 14.603078
_cell_length_c 17.940371
_cell_angle_alpha 90.000000
_cell_angle_beta 90.000000
_cell_angle_gamma 90.000000
_cell_volume 6233.153942
_symmetry_space_group_name_H-M "F M M M"
_symmetry_group_IT_number 69
_symmetry_cell_setting 'orthorhombic'
loop_
_space_group_symop_operation_xyz
x,y,z
-x,-y,z
x,-y,-z
-x,y,-z
-x,-y,-z
x,y,-z
-x,y,z
x,-y,z
x,1/2+y,1/2+z
-x,1/2-y,1/2+z
x,1/2-y,1/2-z
-x,1/2+y,1/2-z
-x,1/2-y,1/2-z
x,1/2+y,1/2-z
-x,1/2+y,1/2+z
x,1/2-y,1/2+z
1/2+x,y,1/2+z
1/2-x,-y,1/2+z
1/2+x,-y,1/2-z
1/2-x,y,1/2-z
1/2-x,-y,1/2-z
1/2+x,y,1/2-z
1/2-x,y,1/2+z
1/2+x,-y,1/2+z
1/2+x,1/2+y,z
1/2-x,1/2-y,z
1/2+x,1/2-y,-z
1/2-x,1/2+y,-z
1/2-x,1/2-y,-z
1/2+x,1/2+y,-z
1/2-x,1/2+y,z
1/2+x,1/2-y,z
loop_
_atom_site_type_symbol
_atom_site_label
_atom_site_fract_x
_atom_site_fract_y
_atom_site_fract_z
Si Si1 0.190280 0.395339 0.217120
Si Si2 0.314755 0.269000 0.581373
Si Si3 0.880496 0.895015 0.138817
Si Si4 0.500000 0.892712 0.416469
O O1 0.198701 0.500000 0.192064
O O2 0.250000 0.358499 0.250000
O O3 0.168071 0.338925 0.146296
O O4 0.140534 0.383910 0.276633
O O5 0.329108 0.311417 0.500000
O O6 0.250000 0.250000 0.589058
O O7 0.345009 0.171140 0.586327
O O8 0.945395 0.863806 0.131348
O O9 0.871688 0.000000 0.111858
O O10 0.500000 0.847983 0.500000
O O11 0.500000 0.000000 0.427469
#
# Coordination Sequence:
#
# PCOD8284902 Si02
#       4
#    32  32  32  16
#     4  10  20  36  55  75 106 147 186 228 271 324
#     4  11  22  33  51  79 111 146 182 228 276 325
#     4  10  20  35  58  83 109 145 185 225 279 331
#     4   9  18  34  55  82 116 146 181 235 284 324
#
# _framework density 17.968430999999999
#
# number of rings (size 3 to 8) (size 9 to 14) (size 15 to 20)
#    0.000    1.857    2.857    1.714    0.000    2.286 
#    0.000    5.714    0.000    0.000    0.000    0.000 
#    0.000    9.143    0.000    0.000    0.000    0.000 
#
# Total GULP energy -347091.676736 kJ/mol
# GULP energy per Si atom -12396.131312 kJ/mol
# Density = 1.792753 g / cm^3
# Si number density = 17.968431 Si / 1000 Ang^3
#
#
#
# Elastic Constant Matrix: (Units=GPa)
#
#
# Indices 1 2 3 4 5 6 
#
# 1 140.9296 42.6136 57.9753 0.0000 0.0000 0.0000
# 2 42.6136 71.4485 48.3494 0.0000 0.0000 0.0000
# 3 57.9753 48.3494 129.7262 0.0000 0.0000 0.0000
# 4 0.0000 0.0000 0.0000 -38.8946 0.0000 0.0000
# 5 0.0000 0.0000 0.0000 0.0000 35.3886 0.0000
# 6 0.0000 0.0000 0.0000 0.0000 0.0000 17.6717
#
#
#
# Elastic Compliance Matrix: (Units=1/GPa)
#
#
# Indices 1 2 3 4 5 6 
#
# 1 0.009367 -0.003683 -0.002813 0.000000 0.000000 0.000000
# 2 -0.003683 0.020164 -0.005870 0.000000 0.000000 0.000000
# 3 -0.002813 -0.005870 0.011154 0.000000 0.000000 0.000000
# 4 0.000000 0.000000 0.000000 -0.025710 0.000000 0.000000
# 5 0.000000 0.000000 0.000000 0.000000 0.028258 0.000000
# 6 0.000000 0.000000 0.000000 0.000000 0.000000 0.056588
#
#
# Mechanical properties :
#
#
# Convention : Reuss Voigt Hill
#
# Bulk Modulus (GPa) = 62.68305 71.10898 66.89601
# Shear Modulus (GPa) = 38.50049 15.71088 27.10568
#
# Velocity S-wave (km/s) = 4.63392 2.96017 3.88818
# Velocity P-wave (km/s) = 7.97445 7.16546 7.58075
#
# Compressibility (1/GPa) = 0.01595328
#
# Stress axis : x y z
#
# Youngs Moduli (GPa) = 106.76135 49.59223 89.65782
#
# Poissons Ratio (x) = 0.18263 0.25225
# Poissons Ratio (y) = 0.39316 0.52625
# Poissons Ratio (z) = 0.30037 0.29109
#
# Static dielectric constant tensor:
#      x y z
#    x 3.231580 0.000000 0.000000 
#    y 0.000000 3.328840 0.000000 
#    z 0.000000 0.000000 3.490960 
# 
# 
# High freq. dielectric constant tensor:
#      x y z
#    x 1.683720 0.000000 0.000000 
#    y 0.000000 1.681330 0.000000 
#    z 0.000000 0.000000 1.698380 
# 
# From -- ./inp_files/14072.got.cif
#   From: 2010.03.12/outbox.cif.g09.slc.cpg/sg69_8_cif.got.tgz:14072.got - 2010.04.10 23:52:46.
