data_PCOD8284167
_publ_section_title
;
Structure prediction by ZEFSAII (Michael W. Deem and Ramdas Pophale) SiO2 
 PCOD8284167
Probable space group: F M M M
;
_chemical_formula_sum "Si O2"
_cell_formula_units_Z 160
_cell_length_a 25.178066
_cell_length_b 18.938830
_cell_length_c 18.271257
_cell_angle_alpha 90.000000
_cell_angle_beta 90.000000
_cell_angle_gamma 90.000000
_cell_volume 8712.523043
_symmetry_space_group_name_H-M "F M M M"
_symmetry_group_IT_number 69
_symmetry_cell_setting 'orthorhombic'
loop_
_space_group_symop_operation_xyz
x,y,z
-x,-y,z
x,-y,-z
-x,y,-z
-x,-y,-z
x,y,-z
-x,y,z
x,-y,z
x,1/2+y,1/2+z
-x,1/2-y,1/2+z
x,1/2-y,1/2-z
-x,1/2+y,1/2-z
-x,1/2-y,1/2-z
x,1/2+y,1/2-z
-x,1/2+y,1/2+z
x,1/2-y,1/2+z
1/2+x,y,1/2+z
1/2-x,-y,1/2+z
1/2+x,-y,1/2-z
1/2-x,y,1/2-z
1/2-x,-y,1/2-z
1/2+x,y,1/2-z
1/2-x,y,1/2+z
1/2+x,-y,1/2+z
1/2+x,1/2+y,z
1/2-x,1/2-y,z
1/2+x,1/2-y,-z
1/2-x,1/2+y,-z
1/2-x,1/2-y,-z
1/2+x,1/2+y,-z
1/2-x,1/2+y,z
1/2+x,1/2-y,z
loop_
_atom_site_type_symbol
_atom_site_label
_atom_site_fract_x
_atom_site_fract_y
_atom_site_fract_z
Si Si1 0.439610 0.919002 0.667555
Si Si2 0.144218 0.818076 0.417312
Si Si3 0.939536 0.183455 0.296199
Si Si4 0.847358 0.151547 0.919112
Si Si5 0.247030 0.665937 0.832822
O O1 0.500000 0.911448 0.638625
O O2 0.434894 0.887103 0.748535
O O3 0.402373 0.876433 0.612849
O O4 0.421660 0.000000 0.671433
O O5 0.138943 0.849096 0.500000
O O6 0.090997 0.831629 0.371300
O O7 0.153096 0.735296 0.422319
O O8 0.193016 0.855965 0.374847
O O9 0.915319 0.250000 0.250000
O O10 0.000000 0.201788 0.317292
O O11 0.796531 0.127888 0.872181
O O12 0.841245 0.119565 0.000000
O O13 0.250000 0.637499 0.750000
O O14 0.250000 0.750000 0.833676
#
# Coordination Sequence:
#
# PCOD8284167 Si02
#       5
#    32  32  32  32  32
#     4  10  21  36  54  77 106 144 186 224 266 321
#     4  10  19  30  50  80 110 136 172 224 276 320
#     4  10  19  33  54  77 104 140 181 223 266 314
#     4  10  19  31  48  74 109 142 174 217 269 322
#     4   9  17  28  48  74 103 139 176 218 265 317
#
# _framework density 18.364370999999998
#
# number of rings (size 3 to 8) (size 9 to 14) (size 15 to 20)
#    0.000    2.200    2.000    1.800    2.800    3.600 
#    0.000    3.000    0.000    6.000    0.000    2.800 
#    0.000    0.000    0.000    0.000    0.000    0.000 
#
# Total GULP energy -495924.901826 kJ/mol
# GULP energy per Si atom -12398.122546 kJ/mol
# Density = 1.832257 g / cm^3
# Si number density = 18.364371 Si / 1000 Ang^3
#
#
#
# Elastic Constant Matrix: (Units=GPa)
#
#
# Indices 1 2 3 4 5 6 
#
# 1 119.4764 13.0169 83.3997 0.0000 0.0000 0.0000
# 2 13.0169 24.2961 11.6609 0.0000 0.0000 0.0000
# 3 83.3997 11.6609 168.9426 0.0000 0.0000 0.0000
# 4 0.0000 0.0000 0.0000 7.1177 0.0000 0.0000
# 5 0.0000 0.0000 0.0000 0.0000 22.3458 0.0000
# 6 0.0000 0.0000 0.0000 0.0000 0.0000 12.3582
#
#
#
# Elastic Compliance Matrix: (Units=1/GPa)
#
#
# Indices 1 2 3 4 5 6 
#
# 1 0.013147 -0.004063 -0.006210 0.000000 0.000000 0.000000
# 2 -0.004063 0.043825 -0.001019 0.000000 0.000000 0.000000
# 3 -0.006210 -0.001019 0.009055 0.000000 0.000000 0.000000
# 4 0.000000 0.000000 0.000000 0.140495 0.000000 0.000000
# 5 0.000000 0.000000 0.000000 0.000000 0.044751 0.000000
# 6 0.000000 0.000000 0.000000 0.000000 0.000000 0.080918
#
#
# Mechanical properties :
#
#
# Convention : Reuss Voigt Hill
#
# Bulk Modulus (GPa) = 23.01871 58.76335 40.89103
# Shear Modulus (GPa) = 13.54073 22.00684 17.77379
#
# Velocity S-wave (km/s) = 2.71834 3.46547 3.11439
# Velocity P-wave (km/s) = 4.73436 6.93402 5.93695
#
# Compressibility (1/GPa) = 0.04344291
#
# Stress axis : x y z
#
# Youngs Moduli (GPa) = 76.06162 22.81803 110.43627
#
# Poissons Ratio (x) = 0.09272 0.68578
# Poissons Ratio (y) = 0.30907 0.11254
# Poissons Ratio (z) = 0.47232 0.02325
#
# Static dielectric constant tensor:
#      x y z
#    x 3.509590 0.000000 0.000000 
#    y 0.000000 2.949840 0.000000 
#    z 0.000000 0.000000 3.608620 
# 
# 
# High freq. dielectric constant tensor:
#      x y z
#    x 1.723780 0.000000 0.000000 
#    y 0.000000 1.655490 0.000000 
#    z 0.000000 0.000000 1.717720 
# 
# From -- ./inp_files/23419.got.cif
#   From: 2010.03.12/outbox.cif.g09.slc.cpg/sg69_12_cif.got.tgz:23419.got - 2010.04.10 23:52:46.
