data_PCOD8284502
_publ_section_title
;
Structure prediction by ZEFSAII (Michael W. Deem and Ramdas Pophale) SiO2 
 PCOD8284502
Probable space group: F M M M
;
_chemical_formula_sum "Si O2"
_cell_formula_units_Z 160
_cell_length_a 31.586463
_cell_length_b 14.366221
_cell_length_c 20.264490
_cell_angle_alpha 90.000000
_cell_angle_beta 90.000000
_cell_angle_gamma 90.000000
_cell_volume 9195.581933
_symmetry_space_group_name_H-M "F M M M"
_symmetry_group_IT_number 69
_symmetry_cell_setting 'orthorhombic'
loop_
_space_group_symop_operation_xyz
x,y,z
-x,-y,z
x,-y,-z
-x,y,-z
-x,-y,-z
x,y,-z
-x,y,z
x,-y,z
x,1/2+y,1/2+z
-x,1/2-y,1/2+z
x,1/2-y,1/2-z
-x,1/2+y,1/2-z
-x,1/2-y,1/2-z
x,1/2+y,1/2-z
-x,1/2+y,1/2+z
x,1/2-y,1/2+z
1/2+x,y,1/2+z
1/2-x,-y,1/2+z
1/2+x,-y,1/2-z
1/2-x,y,1/2-z
1/2-x,-y,1/2-z
1/2+x,y,1/2-z
1/2-x,y,1/2+z
1/2+x,-y,1/2+z
1/2+x,1/2+y,z
1/2-x,1/2-y,z
1/2+x,1/2-y,-z
1/2-x,1/2+y,-z
1/2-x,1/2-y,-z
1/2+x,1/2+y,-z
1/2-x,1/2+y,z
1/2+x,1/2-y,z
loop_
_atom_site_type_symbol
_atom_site_label
_atom_site_fract_x
_atom_site_fract_y
_atom_site_fract_z
Si Si1 0.092090 0.688572 0.424172
Si Si2 0.550129 0.500000 0.267676
Si Si3 0.686498 0.717094 0.078154
Si Si4 0.949859 0.804595 0.314048
Si Si5 0.050701 0.500000 0.382795
Si Si6 0.266100 0.396032 0.578539
O O1 0.090649 0.721434 0.500000
O O2 0.140261 0.685713 0.397293
O O3 0.067437 0.764547 0.381857
O O4 0.069807 0.589243 0.418692
O O5 0.500000 0.500000 0.263748
O O6 0.566455 0.589782 0.307102
O O7 0.566468 0.500000 0.192624
O O8 0.697832 0.822555 0.102322
O O9 0.720833 0.642620 0.104781
O O10 0.688597 0.715822 0.000000
O O11 0.932783 0.750000 0.250000
O O12 0.000000 0.797242 0.316873
O O13 0.000000 0.500000 0.389603
O O14 0.265566 0.401469 0.500000
O O15 0.274359 0.500000 0.607743
#
# Coordination Sequence:
#
# PCOD8284502 Si02
#       6
#    32  16  32  32  16  32
#     4  11  22  33  49  79 114 138 163 213 271 319
#     4   9  18  35  57  75  90 127 188 228 249 291
#     4   8  16  28  41  68 102 131 164 202 252 308
#     4  10  19  35  56  73  98 138 181 219 252 300
#     4  11  21  34  53  77 107 140 174 218 269 318
#     4   8  13  25  46  64  89 132 172 202 241 303
#
# _framework density 17.399660000000001
#
# number of rings (size 3 to 8) (size 9 to 14) (size 15 to 20)
#    0.000    2.600    2.000    2.100    1.400    2.000 
#    1.800    0.500    0.000    1.800    0.000    2.800 
#    0.000    8.000    0.000    0.000    0.000    0.000 
#
# Total GULP energy -495766.030455 kJ/mol
# GULP energy per Si atom -12394.150761 kJ/mol
# Density = 1.736006 g / cm^3
# Si number density = 17.399660 Si / 1000 Ang^3
#
#
#
# Elastic Constant Matrix: (Units=GPa)
#
#
# Indices 1 2 3 4 5 6 
#
# 1 85.7102 54.9724 20.6716 0.0000 0.0000 0.0000
# 2 54.9724 143.1422 33.2371 0.0000 0.0000 0.0000
# 3 20.6716 33.2371 62.6748 0.0000 0.0000 0.0000
# 4 0.0000 0.0000 0.0000 3.3648 0.0000 0.0000
# 5 0.0000 0.0000 0.0000 0.0000 0.7891 0.0000
# 6 0.0000 0.0000 0.0000 0.0000 0.0000 19.7421
#
#
#
# Elastic Compliance Matrix: (Units=1/GPa)
#
#
# Indices 1 2 3 4 5 6 
#
# 1 0.015758 -0.005525 -0.002267 0.000000 0.000000 0.000000
# 2 -0.005525 0.009904 -0.003430 0.000000 0.000000 0.000000
# 3 -0.002267 -0.003430 0.018522 0.000000 0.000000 0.000000
# 4 0.000000 0.000000 0.000000 0.297193 0.000000 0.000000
# 5 0.000000 0.000000 0.000000 0.000000 1.267304 0.000000
# 6 0.000000 0.000000 0.000000 0.000000 0.000000 0.050653
#
#
# Mechanical properties :
#
#
# Convention : Reuss Voigt Hill
#
# Bulk Modulus (GPa) = 45.99950 56.58771 51.29361
# Shear Modulus (GPa) = 2.96029 16.95560 9.95794
#
# Velocity S-wave (km/s) = 1.30577 3.12505 2.39489
# Velocity P-wave (km/s) = 5.36356 6.75383 6.09844
#
# Compressibility (1/GPa) = 0.02173937
#
# Stress axis : x y z
#
# Youngs Moduli (GPa) = 63.46091 100.96528 53.98939
#
# Poissons Ratio (x) = 0.55785 0.12241
# Poissons Ratio (y) = 0.35063 0.18519
# Poissons Ratio (z) = 0.14388 0.34632
#
# Static dielectric constant tensor:
#      x y z
#    x 3.368190 0.000000 0.000000 
#    y 0.000000 3.336600 0.000000 
#    z 0.000000 0.000000 2.845760 
# 
# 
# High freq. dielectric constant tensor:
#      x y z
#    x 1.661300 0.000000 0.000000 
#    y 0.000000 1.685590 0.000000 
#    z 0.000000 0.000000 1.625800 
# 
# From -- ./inp_files/15671.got.cif
#   From: 2010.03.12/outbox.cif.g09.slc.cpg/sg69_8_cif.got.tgz:15671.got - 2010.04.10 23:52:46.
