data_PCOD8284447
_publ_section_title
;
Structure prediction by ZEFSAII (Michael W. Deem and Ramdas Pophale) SiO2 
 PCOD8284447
Probable space group: F M M M
;
_chemical_formula_sum "Si O2"
_cell_formula_units_Z 176
_cell_length_a 26.987098
_cell_length_b 17.479797
_cell_length_c 20.659289
_cell_angle_alpha 90.000000
_cell_angle_beta 90.000000
_cell_angle_gamma 90.000000
_cell_volume 9745.585630
_symmetry_space_group_name_H-M "F M M M"
_symmetry_group_IT_number 69
_symmetry_cell_setting 'orthorhombic'
loop_
_space_group_symop_operation_xyz
x,y,z
-x,-y,z
x,-y,-z
-x,y,-z
-x,-y,-z
x,y,-z
-x,y,z
x,-y,z
x,1/2+y,1/2+z
-x,1/2-y,1/2+z
x,1/2-y,1/2-z
-x,1/2+y,1/2-z
-x,1/2-y,1/2-z
x,1/2+y,1/2-z
-x,1/2+y,1/2+z
x,1/2-y,1/2+z
1/2+x,y,1/2+z
1/2-x,-y,1/2+z
1/2+x,-y,1/2-z
1/2-x,y,1/2-z
1/2-x,-y,1/2-z
1/2+x,y,1/2-z
1/2-x,y,1/2+z
1/2+x,-y,1/2+z
1/2+x,1/2+y,z
1/2-x,1/2-y,z
1/2+x,1/2-y,-z
1/2-x,1/2+y,-z
1/2-x,1/2-y,-z
1/2+x,1/2+y,-z
1/2-x,1/2+y,z
1/2+x,1/2-y,z
loop_
_atom_site_type_symbol
_atom_site_label
_atom_site_fract_x
_atom_site_fract_y
_atom_site_fract_z
Si Si1 0.880891 0.086762 0.223638
Si Si2 0.057296 0.500000 0.923372
Si Si3 0.221768 0.829490 0.573713
Si Si4 0.945293 0.217961 0.178239
Si Si5 0.384629 0.854778 0.133012
Si Si6 0.728442 0.585547 0.813991
O O1 0.919217 0.135445 0.181124
O O2 0.870654 0.121675 0.294235
O O3 0.830415 0.090223 0.183795
O O4 0.900905 0.000000 0.230236
O O5 0.085394 0.424183 0.899369
O O6 0.000000 0.500000 0.898141
O O7 0.058297 0.500000 0.000000
O O8 0.224706 0.857913 0.500000
O O9 0.250000 0.750000 0.582508
O O10 0.164418 0.830237 0.594542
O O11 0.251840 0.886323 0.618161
O O12 0.948104 0.250000 0.250000
O O13 0.917726 0.278292 0.132134
O O14 0.000000 0.205726 0.149394
O O15 0.748846 0.500000 0.809258
O O16 0.750000 0.629632 0.750000
#
# Coordination Sequence:
#
# PCOD8284447 Si02
#       6
#    32  16  32  32  32  32
#     4  10  19  34  55  84 113 144 194 239 292 348
#     4  11  24  38  56  85 118 158 205 246 296 358
#     4  11  24  38  55  83 115 150 194 240 289 347
#     4   9  19  33  51  77 108 145 188 232 287 344
#     4  11  20  37  57  79 113 156 196 243 291 348
#     4  10  20  35  55  79 110 145 186 231 278 346
#
# _framework density 18.059459
#
# number of rings (size 3 to 8) (size 9 to 14) (size 15 to 20)
#    0.000    1.727    2.727    2.182    1.273    1.818 
#    0.000    0.000    0.000    0.000    0.000    0.000 
#    0.000    0.000    0.000   23.091    0.000    0.000 
#
# Total GULP energy -545443.757819 kJ/mol
# GULP energy per Si atom -12396.449041 kJ/mol
# Density = 1.801835 g / cm^3
# Si number density = 18.059459 Si / 1000 Ang^3
#
#
#
# Elastic Constant Matrix: (Units=GPa)
#
#
# Indices 1 2 3 4 5 6 
#
# 1 128.7427 68.4448 64.4343 0.0000 0.0000 0.0000
# 2 68.4448 111.9420 52.1734 0.0000 0.0000 0.0000
# 3 64.4343 52.1734 98.4496 0.0000 0.0000 0.0000
# 4 0.0000 0.0000 0.0000 15.7873 0.0000 0.0000
# 5 0.0000 0.0000 0.0000 0.0000 22.9731 0.0000
# 6 0.0000 0.0000 0.0000 0.0000 0.0000 33.1997
#
#
#
# Elastic Compliance Matrix: (Units=1/GPa)
#
#
# Indices 1 2 3 4 5 6 
#
# 1 0.013771 -0.005603 -0.006044 0.000000 0.000000 0.000000
# 2 -0.005603 0.014143 -0.003828 0.000000 0.000000 0.000000
# 3 -0.006044 -0.003828 0.016142 0.000000 0.000000 0.000000
# 4 0.000000 0.000000 0.000000 0.063342 0.000000 0.000000
# 5 0.000000 0.000000 0.000000 0.000000 0.043529 0.000000
# 6 0.000000 0.000000 0.000000 0.000000 0.000000 0.030121
#
#
# Mechanical properties :
#
#
# Convention : Reuss Voigt Hill
#
# Bulk Modulus (GPa) = 76.29903 78.80438 77.55170
# Shear Modulus (GPa) = 23.10893 24.66415 23.88654
#
# Velocity S-wave (km/s) = 3.58103 3.69957 3.64079
# Velocity P-wave (km/s) = 7.70966 7.87273 7.79162
#
# Compressibility (1/GPa) = 0.01310633
#
# Stress axis : x y z
#
# Youngs Moduli (GPa) = 72.61566 70.70452 61.95180
#
# Poissons Ratio (x) = 0.39618 0.37441
# Poissons Ratio (y) = 0.40689 0.23715
# Poissons Ratio (z) = 0.43886 0.27065
#
# Static dielectric constant tensor:
#      x y z
#    x 2.928760 0.000000 0.000000 
#    y 0.000000 6.271990 0.000000 
#    z 0.000000 0.000000 3.212320 
# 
# 
# High freq. dielectric constant tensor:
#      x y z
#    x 1.713380 0.000000 0.000000 
#    y 0.000000 1.701310 0.000000 
#    z 0.000000 0.000000 1.678390 
# 
# From -- ./inp_files/26732.got.cif
#   From: 2010.03.12/outbox.cif.g09.slc.cpg/sg69_14_cif.got.tgz:26732.got - 2010.04.10 23:52:46.
