data_PCOD8284088
_publ_section_title
;
Structure prediction by ZEFSAII (Michael W. Deem and Ramdas Pophale) SiO2 
 PCOD8284088
Probable space group: F M M M
;
_chemical_formula_sum "Si O2"
_cell_formula_units_Z 176
_cell_length_a 16.658640
_cell_length_b 28.422817
_cell_length_c 18.143983
_cell_angle_alpha 90.000000
_cell_angle_beta 90.000000
_cell_angle_gamma 90.000000
_cell_volume 8590.912431
_symmetry_space_group_name_H-M "F M M M"
_symmetry_group_IT_number 69
_symmetry_cell_setting 'orthorhombic'
loop_
_space_group_symop_operation_xyz
x,y,z
-x,-y,z
x,-y,-z
-x,y,-z
-x,-y,-z
x,y,-z
-x,y,z
x,-y,z
x,1/2+y,1/2+z
-x,1/2-y,1/2+z
x,1/2-y,1/2-z
-x,1/2+y,1/2-z
-x,1/2-y,1/2-z
x,1/2+y,1/2-z
-x,1/2+y,1/2+z
x,1/2-y,1/2+z
1/2+x,y,1/2+z
1/2-x,-y,1/2+z
1/2+x,-y,1/2-z
1/2-x,y,1/2-z
1/2-x,-y,1/2-z
1/2+x,y,1/2-z
1/2-x,y,1/2+z
1/2+x,-y,1/2+z
1/2+x,1/2+y,z
1/2-x,1/2-y,z
1/2+x,1/2-y,-z
1/2-x,1/2+y,-z
1/2-x,1/2-y,-z
1/2+x,1/2+y,-z
1/2-x,1/2+y,z
1/2+x,1/2-y,z
loop_
_atom_site_type_symbol
_atom_site_label
_atom_site_fract_x
_atom_site_fract_y
_atom_site_fract_z
Si Si1 0.907018 0.944962 0.584354
Si Si2 0.662605 0.387160 0.716568
Si Si3 0.591509 0.288550 0.686738
Si Si4 0.592533 0.112627 0.634219
Si Si5 0.403921 0.552413 0.000000
Si Si6 0.404260 0.210906 0.581968
O O1 0.883574 0.931469 0.500000
O O2 0.851876 0.916702 0.642191
O O3 0.000000 0.931960 0.598145
O O4 0.892731 0.000000 0.597407
O O5 0.750000 0.395332 0.750000
O O6 0.649346 0.332329 0.699565
O O7 0.604375 0.405137 0.782250
O O8 0.500000 0.307263 0.678152
O O9 0.595438 0.250000 0.750000
O O10 0.624070 0.260757 0.615078
O O11 0.500000 0.114697 0.614618
O O12 0.631039 0.078104 0.573059
O O13 0.629066 0.165481 0.626706
O O14 0.368189 0.500000 0.000000
O O15 0.500000 0.550919 0.000000
O O16 0.370276 0.207290 0.500000
O O17 0.500000 0.210092 0.584697
#
# Coordination Sequence:
#
# PCOD8284088 Si02
#       6
#    32  32  32  32  16  32
#     4   9  20  43  73  97 119 156 212 273 318 356
#     4  12  25  38  57  91 131 164 199 248 313 387
#     4  10  19  34  57  82 111 154 209 256 297 348
#     4  10  18  34  58  82 115 158 205 251 297 358
#     4   9  18  32  56  90 119 144 185 243 301 362
#     4   9  16  29  53  82 108 147 199 252 305 353
#
# _framework density 20.486764999999998
#
# number of rings (size 3 to 8) (size 9 to 14) (size 15 to 20)
#    0.000    2.091    2.727    2.182    0.000    2.182 
#    1.636    3.636    0.000    1.091    0.000    0.000 
#    0.000    0.000    0.000    0.000    0.000    0.000 
#
# Total GULP energy -545326.144950 kJ/mol
# GULP energy per Si atom -12393.776022 kJ/mol
# Density = 2.044014 g / cm^3
# Si number density = 20.486765 Si / 1000 Ang^3
#
#
#
# Elastic Constant Matrix: (Units=GPa)
#
#
# Indices 1 2 3 4 5 6 
#
# 1 46.7296 38.8168 31.9122 0.0000 0.0000 0.0000
# 2 38.8168 122.9755 75.2782 0.0000 0.0000 0.0000
# 3 31.9122 75.2782 159.9427 0.0000 0.0000 0.0000
# 4 0.0000 0.0000 0.0000 38.0811 0.0000 0.0000
# 5 0.0000 0.0000 0.0000 0.0000 21.7510 0.0000
# 6 0.0000 0.0000 0.0000 0.0000 0.0000 5.2169
#
#
#
# Elastic Compliance Matrix: (Units=1/GPa)
#
#
# Indices 1 2 3 4 5 6 
#
# 1 0.029504 -0.008020 -0.002112 0.000000 0.000000 0.000000
# 2 -0.008020 0.013603 -0.004802 0.000000 0.000000 0.000000
# 3 -0.002112 -0.004802 0.008934 0.000000 0.000000 0.000000
# 4 0.000000 0.000000 0.000000 0.026260 0.000000 0.000000
# 5 0.000000 0.000000 0.000000 0.000000 0.045975 0.000000
# 6 0.000000 0.000000 0.000000 0.000000 0.000000 0.191684
#
#
# Mechanical properties :
#
#
# Convention : Reuss Voigt Hill
#
# Bulk Modulus (GPa) = 45.10128 69.07355 57.08742
# Shear Modulus (GPa) = 14.15556 25.25253 19.70405
#
# Velocity S-wave (km/s) = 2.63147 3.51469 3.10464
# Velocity P-wave (km/s) = 5.59423 7.08943 6.38575
#
# Compressibility (1/GPa) = 0.02217232
#
# Stress axis : x y z
#
# Youngs Moduli (GPa) = 33.89374 73.51489 111.93501
#
# Poissons Ratio (x) = 0.58959 0.23641
# Poissons Ratio (y) = 0.27183 0.53752
# Poissons Ratio (z) = 0.07159 0.35302
#
# Static dielectric constant tensor:
#      x y z
#    x 3.198170 0.000000 0.000000 
#    y 0.000000 3.888590 0.000000 
#    z 0.000000 0.000000 4.146950 
# 
# 
# High freq. dielectric constant tensor:
#      x y z
#    x 1.748910 0.000000 0.000000 
#    y 0.000000 1.798710 0.000000 
#    z 0.000000 0.000000 1.817550 
# 
# From -- ./inp_files/23605.got.cif
#   From: 2010.03.12/outbox.cif.g09.slc.cpg/sg69_12_cif.got.tgz:23605.got - 2010.04.10 23:52:46.
