data_PCOD8284251
_publ_section_title
;
Structure prediction by ZEFSAII (Michael W. Deem and Ramdas Pophale) SiO2 
 PCOD8284251
Probable space group: F M M M
;
_chemical_formula_sum "Si O2"
_cell_formula_units_Z 192
_cell_length_a 17.433826
_cell_length_b 30.278102
_cell_length_c 20.061313
_cell_angle_alpha 90.000000
_cell_angle_beta 90.000000
_cell_angle_gamma 90.000000
_cell_volume 10589.628112
_symmetry_space_group_name_H-M "F M M M"
_symmetry_group_IT_number 69
_symmetry_cell_setting 'orthorhombic'
loop_
_space_group_symop_operation_xyz
x,y,z
-x,-y,z
x,-y,-z
-x,y,-z
-x,-y,-z
x,y,-z
-x,y,z
x,-y,z
x,1/2+y,1/2+z
-x,1/2-y,1/2+z
x,1/2-y,1/2-z
-x,1/2+y,1/2-z
-x,1/2-y,1/2-z
x,1/2+y,1/2-z
-x,1/2+y,1/2+z
x,1/2-y,1/2+z
1/2+x,y,1/2+z
1/2-x,-y,1/2+z
1/2+x,-y,1/2-z
1/2-x,y,1/2-z
1/2-x,-y,1/2-z
1/2+x,y,1/2-z
1/2-x,y,1/2+z
1/2+x,-y,1/2+z
1/2+x,1/2+y,z
1/2-x,1/2-y,z
1/2+x,1/2-y,-z
1/2-x,1/2+y,-z
1/2-x,1/2-y,-z
1/2+x,1/2+y,-z
1/2-x,1/2+y,z
1/2+x,1/2-y,z
loop_
_atom_site_type_symbol
_atom_site_label
_atom_site_fract_x
_atom_site_fract_y
_atom_site_fract_z
Si Si1 0.818853 0.950261 0.000000
Si Si2 0.412970 0.909959 0.613158
Si Si3 0.091452 0.705062 0.284896
Si Si4 0.849082 0.447719 0.000000
Si Si5 0.089180 0.448885 0.859096
Si Si6 0.586698 0.189102 0.571459
Si Si7 0.840567 0.386054 0.250027
O O1 0.867836 0.943097 0.066202
O O2 0.736287 0.925307 0.000000
O O3 0.792881 0.000000 0.000000
O O4 0.500000 0.926501 0.623754
O O5 0.411866 0.863410 0.576254
O O6 0.370837 0.909434 0.683667
O O7 0.117062 0.750000 0.250000
O O8 0.125174 0.708165 0.360938
O O9 0.125120 0.663505 0.244691
O O10 0.000000 0.698658 0.287275
O O11 0.894273 0.432227 0.934113
O O12 0.847555 0.500000 0.000000
O O13 0.115248 0.500000 0.848462
O O14 0.135676 0.416330 0.811505
O O15 0.000000 0.443741 0.843364
O O16 0.626742 0.202442 0.500000
O O17 0.500000 0.206591 0.568511
O O18 0.750000 0.381864 0.250000
#
# Coordination Sequence:
#
# PCOD8284251 Si02
#       7
#    16  32  32  16  32  32  32
#     4  11  21  31  47  75 112 143 168 215 275 323
#     4  10  19  32  48  71 102 138 180 217 255 318
#     4   9  18  33  54  79 107 141 181 224 267 320
#     4   9  19  35  53  75 102 137 180 221 269 327
#     4  10  20  36  58  79 102 139 187 231 268 319
#     4   8  13  25  47  71  94 127 170 209 246 301
#     4  11  22  35  54  80 109 144 180 225 280 330
#
# _framework density 18.130948
#
# number of rings (size 3 to 8) (size 9 to 14) (size 15 to 20)
#    0.000    2.333    0.833    4.000    0.000    3.000 
#    0.000    0.000    1.833    0.000    0.000    2.333 
#    0.000    0.000    0.000    0.000    0.000    0.000 
#
# Total GULP energy -594841.049931 kJ/mol
# GULP energy per Si atom -12392.521874 kJ/mol
# Density = 1.808968 g / cm^3
# Si number density = 18.130948 Si / 1000 Ang^3
#
#
#
# Elastic Constant Matrix: (Units=GPa)
#
#
# Indices 1 2 3 4 5 6 
#
# 1 76.4922 28.1306 29.0027 0.0000 0.0000 0.0000
# 2 28.1306 81.6227 61.3955 0.0000 0.0000 0.0000
# 3 29.0027 61.3955 136.4521 0.0000 0.0000 0.0000
# 4 0.0000 0.0000 0.0000 25.4433 0.0000 0.0000
# 5 0.0000 0.0000 0.0000 0.0000 23.9321 0.0000
# 6 0.0000 0.0000 0.0000 0.0000 0.0000 18.2223
#
#
#
# Elastic Compliance Matrix: (Units=1/GPa)
#
#
# Indices 1 2 3 4 5 6 
#
# 1 0.015125 -0.004224 -0.001314 0.000000 0.000000 0.000000
# 2 -0.004224 0.019699 -0.007965 0.000000 0.000000 0.000000
# 3 -0.001314 -0.007965 0.011192 0.000000 0.000000 0.000000
# 4 0.000000 0.000000 0.000000 0.039303 0.000000 0.000000
# 5 0.000000 0.000000 0.000000 0.000000 0.041785 0.000000
# 6 0.000000 0.000000 0.000000 0.000000 0.000000 0.054878
#
#
# Mechanical properties :
#
#
# Convention : Reuss Voigt Hill
#
# Bulk Modulus (GPa) = 52.60930 59.06942 55.83936
# Shear Modulus (GPa) = 23.22068 25.25542 24.23805
#
# Velocity S-wave (km/s) = 3.58260 3.73627 3.66024
# Velocity P-wave (km/s) = 6.79652 7.15982 6.98053
#
# Compressibility (1/GPa) = 0.01900805
#
# Stress axis : x y z
#
# Youngs Moduli (GPa) = 66.11571 50.76434 89.35036
#
# Poissons Ratio (x) = 0.21444 0.11742
# Poissons Ratio (y) = 0.27929 0.71172
# Poissons Ratio (z) = 0.08689 0.40436
#
# Static dielectric constant tensor:
#      x y z
#    x 3.254800 0.000000 0.000000 
#    y 0.000000 3.084990 0.000000 
#    z 0.000000 0.000000 3.677160 
# 
# 
# High freq. dielectric constant tensor:
#      x y z
#    x 1.690490 0.000000 0.000000 
#    y 0.000000 1.669950 0.000000 
#    z 0.000000 0.000000 1.720070 
# 
# From -- ./inp_files/23712.got.cif
#   From: 2010.03.12/outbox.cif.g09.slc.cpg/sg69_12_cif.got.tgz:23712.got - 2010.04.10 23:52:46.
