data_PCOD8284617
_publ_section_title
;
Structure prediction by ZEFSAII (Michael W. Deem and Ramdas Pophale) SiO2 
 PCOD8284617
Probable space group: F M M M
;
_chemical_formula_sum "Si O2"
_cell_formula_units_Z 144
_cell_length_a 9.369985
_cell_length_b 27.638005
_cell_length_c 32.266187
_cell_angle_alpha 90.000000
_cell_angle_beta 90.000000
_cell_angle_gamma 90.000000
_cell_volume 8355.899986
_symmetry_space_group_name_H-M "F M M M"
_symmetry_group_IT_number 69
_symmetry_cell_setting 'orthorhombic'
loop_
_space_group_symop_operation_xyz
x,y,z
-x,-y,z
x,-y,-z
-x,y,-z
-x,-y,-z
x,y,-z
-x,y,z
x,-y,z
x,1/2+y,1/2+z
-x,1/2-y,1/2+z
x,1/2-y,1/2-z
-x,1/2+y,1/2-z
-x,1/2-y,1/2-z
x,1/2+y,1/2-z
-x,1/2+y,1/2+z
x,1/2-y,1/2+z
1/2+x,y,1/2+z
1/2-x,-y,1/2+z
1/2+x,-y,1/2-z
1/2-x,y,1/2-z
1/2-x,-y,1/2-z
1/2+x,y,1/2-z
1/2-x,y,1/2+z
1/2+x,-y,1/2+z
1/2+x,1/2+y,z
1/2-x,1/2-y,z
1/2+x,1/2-y,-z
1/2-x,1/2+y,-z
1/2-x,1/2-y,-z
1/2+x,1/2+y,-z
1/2-x,1/2+y,z
1/2+x,1/2-y,z
loop_
_atom_site_type_symbol
_atom_site_label
_atom_site_fract_x
_atom_site_fract_y
_atom_site_fract_z
Si Si1 0.161607 0.110221 0.430666
Si Si2 0.500000 0.443306 0.277944
Si Si3 0.708540 0.943128 0.151869
Si Si4 0.166021 0.298910 0.548400
Si Si5 0.000000 0.942965 0.186613
Si Si6 0.835902 0.442755 0.500000
O O1 0.143582 0.086497 0.385821
O O2 0.249689 0.159888 0.426635
O O3 0.251350 0.074407 0.459626
O O4 0.000000 0.119210 0.447835
O O5 0.500000 0.500000 0.270446
O O6 0.363061 0.428067 0.304675
O O7 0.500000 0.418217 0.232459
O O8 0.870165 0.927010 0.157943
O O9 0.686547 0.000000 0.142865
O O10 0.175746 0.312200 0.500000
O O11 0.250000 0.250000 0.558373
O O12 0.000000 0.294862 0.562280
O O13 0.000000 0.000000 0.193556
O O14 0.838653 0.500000 0.500000
O O15 0.000000 0.422792 0.500000
#
# Coordination Sequence:
#
# PCOD8284617 Si02
#       6
#    32  16  32  32  16  16
#     4  12  23  36  54  77 108 143 182 219 265 316
#     4   9  16  32  50  71 102 139 182 223 266 313
#     4  10  20  32  49  75 108 145 183 223 261 308
#     4  10  21  38  60  81 104 132 171 221 273 321
#     4   9  18  30  50  73 100 141 182 223 270 313
#     4  11  25  39  52  71 102 147 191 227 257 305
#
# _framework density 17.233332000000001
#
# number of rings (size 3 to 8) (size 9 to 14) (size 15 to 20)
#    0.000    1.667    2.222    3.000    3.111    5.333 
#    0.000    0.000    0.000    0.000    0.000    0.000 
#    0.000    5.333    0.000    0.000    0.000    0.000 
#
# Total GULP energy -446260.070666 kJ/mol
# GULP energy per Si atom -12396.113074 kJ/mol
# Density = 1.719411 g / cm^3
# Si number density = 17.233332 Si / 1000 Ang^3
#
#
#
# Elastic Constant Matrix: (Units=GPa)
#
#
# Indices 1 2 3 4 5 6 
#
# 1 157.3074 38.3661 22.5590 0.0000 0.0000 0.0000
# 2 38.3661 70.8050 25.2499 0.0000 0.0000 0.0000
# 3 22.5590 25.2499 63.8654 0.0000 0.0000 0.0000
# 4 0.0000 0.0000 0.0000 6.3887 0.0000 0.0000
# 5 0.0000 0.0000 0.0000 0.0000 34.2288 0.0000
# 6 0.0000 0.0000 0.0000 0.0000 0.0000 25.4670
#
#
#
# Elastic Compliance Matrix: (Units=1/GPa)
#
#
# Indices 1 2 3 4 5 6 
#
# 1 0.007403 -0.003584 -0.001198 0.000000 0.000000 0.000000
# 2 -0.003584 0.018177 -0.005920 0.000000 0.000000 0.000000
# 3 -0.001198 -0.005920 0.018422 0.000000 0.000000 0.000000
# 4 0.000000 0.000000 0.000000 0.156526 0.000000 0.000000
# 5 0.000000 0.000000 0.000000 0.000000 0.029215 0.000000
# 6 0.000000 0.000000 0.000000 0.000000 0.000000 0.039267
#
#
# Mechanical properties :
#
#
# Convention : Reuss Voigt Hill
#
# Bulk Modulus (GPa) = 44.25447 51.59198 47.92322
# Shear Modulus (GPa) = 16.78159 26.93709 21.85934
#
# Velocity S-wave (km/s) = 3.12394 3.95787 3.56537
# Velocity P-wave (km/s) = 6.22474 7.13363 6.69462
#
# Compressibility (1/GPa) = 0.02259659
#
# Stress axis : x y z
#
# Youngs Moduli (GPa) = 135.08213 55.01565 54.28373
#
# Poissons Ratio (x) = 0.19718 0.06503
# Poissons Ratio (y) = 0.48415 0.32138
# Poissons Ratio (z) = 0.16181 0.32571
#
# Static dielectric constant tensor:
#      x y z
#    x 3.185570 0.000000 0.000000 
#    y 0.000000 2.900530 0.000000 
#    z 0.000000 0.000000 3.109800 
# 
# 
# High freq. dielectric constant tensor:
#      x y z
#    x 1.696220 0.000000 0.000000 
#    y 0.000000 1.622500 0.000000 
#    z 0.000000 0.000000 1.652700 
# 
# From -- ./inp_files/5640.got.cif
#   From: 2010.03.12/outbox.cif.g09.slc.cpg/sg69_3_cif.got.tgz:5640.got - 2010.04.10 23:52:46.
