data_PCOD8284586
_publ_section_title
;
Structure prediction by ZEFSAII (Michael W. Deem and Ramdas Pophale) SiO2 
 PCOD8284586
Probable space group: F M M M
;
_chemical_formula_sum "Si O2"
_cell_formula_units_Z 176
_cell_length_a 16.796760
_cell_length_b 34.028186
_cell_length_c 16.808436
_cell_angle_alpha 90.000000
_cell_angle_beta 90.000000
_cell_angle_gamma 90.000000
_cell_volume 9607.084702
_symmetry_space_group_name_H-M "F M M M"
_symmetry_group_IT_number 69
_symmetry_cell_setting 'orthorhombic'
loop_
_space_group_symop_operation_xyz
x,y,z
-x,-y,z
x,-y,-z
-x,y,-z
-x,-y,-z
x,y,-z
-x,y,z
x,-y,z
x,1/2+y,1/2+z
-x,1/2-y,1/2+z
x,1/2-y,1/2-z
-x,1/2+y,1/2-z
-x,1/2-y,1/2-z
x,1/2+y,1/2-z
-x,1/2+y,1/2+z
x,1/2-y,1/2+z
1/2+x,y,1/2+z
1/2-x,-y,1/2+z
1/2+x,-y,1/2-z
1/2-x,y,1/2-z
1/2-x,-y,1/2-z
1/2+x,y,1/2-z
1/2-x,y,1/2+z
1/2+x,-y,1/2+z
1/2+x,1/2+y,z
1/2-x,1/2-y,z
1/2+x,1/2-y,-z
1/2-x,1/2+y,-z
1/2-x,1/2-y,-z
1/2+x,1/2+y,-z
1/2-x,1/2+y,z
1/2+x,1/2-y,z
loop_
_atom_site_type_symbol
_atom_site_label
_atom_site_fract_x
_atom_site_fract_y
_atom_site_fract_z
Si Si1 0.326144 0.181221 0.699849
Si Si2 0.000000 0.453839 0.085986
Si Si3 0.739463 0.622526 0.591030
Si Si4 0.409806 0.668522 0.355162
Si Si5 0.591113 0.743091 0.091069
Si Si6 0.829625 0.543449 0.094920
O O1 0.250000 0.195386 0.750000
O O2 0.304257 0.143690 0.645870
O O3 0.395847 0.168467 0.760004
O O4 0.351931 0.217352 0.645700
O O5 0.916710 0.443999 0.131612
O O6 0.000000 0.500000 0.071604
O O7 0.000000 0.432272 0.000000
O O8 0.767414 0.626316 0.500000
O O9 0.651069 0.640307 0.599711
O O10 0.734907 0.576669 0.618374
O O11 0.500000 0.654307 0.372197
O O12 0.394854 0.711760 0.389052
O O13 0.500000 0.731066 0.107442
O O14 0.614636 0.735286 0.000000
O O15 0.802537 0.500000 0.125549
O O16 0.839637 0.542414 0.000000
#
# Coordination Sequence:
#
# PCOD8284586 Si02
#       6
#    32  16  32  32  32  32
#     4  10  21  35  49  68  98 133 166 194 234 292
#     4   7  10  18  34  58  88 120 149 178 221 279
#     4  10  20  31  48  74 101 127 156 200 246 286
#     4  10  21  35  50  69  96 131 166 198 239 291
#     4  10  20  35  55  75  94 120 162 213 252 282
#     4   8  14  25  42  67  97 126 156 193 241 291
#
# _framework density 18.319813
#
# number of rings (size 3 to 8) (size 9 to 14) (size 15 to 20)
#    0.000    2.636    0.000    3.273    1.273    7.636 
#    0.000    4.545    0.000    4.909    0.000    0.000 
#    0.000    2.182    0.000   20.545    0.000    0.000 
#
# Total GULP energy -545293.213437 kJ/mol
# GULP energy per Si atom -12393.027578 kJ/mol
# Density = 1.827812 g / cm^3
# Si number density = 18.319813 Si / 1000 Ang^3
#
#
#
# Elastic Constant Matrix: (Units=GPa)
#
#
# Indices 1 2 3 4 5 6 
#
# 1 36.3000 24.7463 16.7783 0.0000 0.0000 0.0000
# 2 24.7463 78.4466 26.6445 0.0000 0.0000 0.0000
# 3 16.7783 26.6445 72.4299 0.0000 0.0000 0.0000
# 4 0.0000 0.0000 0.0000 -4.5611 0.0000 0.0000
# 5 0.0000 0.0000 0.0000 0.0000 22.5174 0.0000
# 6 0.0000 0.0000 0.0000 0.0000 0.0000 24.4359
#
#
#
# Elastic Compliance Matrix: (Units=1/GPa)
#
#
# Indices 1 2 3 4 5 6 
#
# 1 0.036513 -0.009880 -0.004824 0.000000 0.000000 0.000000
# 2 -0.009880 0.017241 -0.004054 0.000000 0.000000 0.000000
# 3 -0.004824 -0.004054 0.016415 0.000000 0.000000 0.000000
# 4 0.000000 0.000000 0.000000 -0.219244 0.000000 0.000000
# 5 0.000000 0.000000 0.000000 0.000000 0.044410 0.000000
# 6 0.000000 0.000000 0.000000 0.000000 0.000000 0.040923
#
#
# Mechanical properties :
#
#
# Convention : Reuss Voigt Hill
#
# Bulk Modulus (GPa) = 30.62359 35.94608 33.28484
# Shear Modulus (GPa) = -325.90596 16.41224 -154.74686
#
# Velocity S-wave (km/s) = -13.35231 2.99636 -9.20071
# Velocity P-wave (km/s) = 14.86472 5.62449 9.72947
#
# Compressibility (1/GPa) = 0.03265456
#
# Stress axis : x y z
#
# Youngs Moduli (GPa) = 27.38749 58.00120 60.91954
#
# Poissons Ratio (x) = 0.57304 0.29386
# Poissons Ratio (y) = 0.27058 0.24695
# Poissons Ratio (z) = 0.13211 0.23512
#
# Static dielectric constant tensor:
#      x y z
#    x 3.379840 0.000000 0.000000 
#    y 0.000000 3.444790 0.000000 
#    z 0.000000 0.000000 3.248020 
# 
# 
# High freq. dielectric constant tensor:
#      x y z
#    x 1.692970 0.000000 0.000000 
#    y 0.000000 1.708920 0.000000 
#    z 0.000000 0.000000 1.687050 
# 
# From -- ./inp_files/23530.got.cif
#   From: 2010.03.12/outbox.cif.g09.slc.cpg/sg69_12_cif.got.tgz:23530.got - 2010.04.10 23:52:46.
