data_PCOD8284434
_publ_section_title
;
Structure prediction by ZEFSAII (Michael W. Deem and Ramdas Pophale) SiO2 
 PCOD8284434
Probable space group: F M M M
;
_chemical_formula_sum "Si O2"
_cell_formula_units_Z 160
_cell_length_a 14.129203
_cell_length_b 25.636573
_cell_length_c 24.880643
_cell_angle_alpha 90.000000
_cell_angle_beta 90.000000
_cell_angle_gamma 90.000000
_cell_volume 9012.374592
_symmetry_space_group_name_H-M "F M M M"
_symmetry_group_IT_number 69
_symmetry_cell_setting 'orthorhombic'
loop_
_space_group_symop_operation_xyz
x,y,z
-x,-y,z
x,-y,-z
-x,y,-z
-x,-y,-z
x,y,-z
-x,y,z
x,-y,z
x,1/2+y,1/2+z
-x,1/2-y,1/2+z
x,1/2-y,1/2-z
-x,1/2+y,1/2-z
-x,1/2-y,1/2-z
x,1/2+y,1/2-z
-x,1/2+y,1/2+z
x,1/2-y,1/2+z
1/2+x,y,1/2+z
1/2-x,-y,1/2+z
1/2+x,-y,1/2-z
1/2-x,y,1/2-z
1/2-x,-y,1/2-z
1/2+x,y,1/2-z
1/2-x,y,1/2+z
1/2+x,-y,1/2+z
1/2+x,1/2+y,z
1/2-x,1/2-y,z
1/2+x,1/2-y,-z
1/2-x,1/2+y,-z
1/2-x,1/2-y,-z
1/2+x,1/2+y,-z
1/2-x,1/2+y,z
1/2+x,1/2-y,z
loop_
_atom_site_type_symbol
_atom_site_label
_atom_site_fract_x
_atom_site_fract_y
_atom_site_fract_z
Si Si1 0.108994 0.500000 0.408172
Si Si2 0.250766 0.413829 0.561764
Si Si3 0.890256 0.252542 0.313438
Si Si4 0.891192 0.500000 0.718751
Si Si5 0.752647 0.335597 0.154484
Si Si6 0.250000 0.585768 0.750000
Si Si7 0.394634 0.500000 0.563858
O O1 0.155724 0.552055 0.432371
O O2 0.122627 0.500000 0.344684
O O3 0.000000 0.500000 0.425344
O O4 0.263648 0.397304 0.500000
O O5 0.246870 0.360774 0.595607
O O6 0.339208 0.448408 0.583099
O O7 0.871606 0.250000 0.250000
O O8 0.840364 0.204145 0.342763
O O9 0.846316 0.306368 0.334743
O O10 0.000000 0.251487 0.328285
O O11 0.843645 0.448717 0.743248
O O12 0.000000 0.500000 0.736059
O O13 0.768568 0.380224 0.197790
O O14 0.500000 0.500000 0.588769
O O15 0.397442 0.500000 0.500000
#
# Coordination Sequence:
#
# PCOD8284434 Si02
#       7
#    16  32  32  16  32  16  16
#     4  10  19  34  54  77 111 148 186 224 256 309
#     4  10  21  35  54  80 109 145 184 219 261 315
#     4  10  21  37  58  83 105 131 176 227 273 324
#     4  10  22  34  50  83 120 149 175 216 272 318
#     4  11  20  37  57  79 108 139 175 223 271 320
#     4  11  20  35  56  78 112 147 176 219 268 320
#     4   8  16  33  54  75 103 141 185 224 252 293
#
# _framework density 17.753367000000001
#
# number of rings (size 3 to 8) (size 9 to 14) (size 15 to 20)
#    0.000    1.900    4.000    1.500    0.000    4.000 
#    0.000    3.000    0.000    1.200    0.000    0.000 
#    0.000    0.000    0.000    0.000    0.000    0.000 
#
# Total GULP energy -496116.321707 kJ/mol
# GULP energy per Si atom -12402.908043 kJ/mol
# Density = 1.771296 g / cm^3
# Si number density = 17.753367 Si / 1000 Ang^3
#
#
#
# Elastic Constant Matrix: (Units=GPa)
#
#
# Indices 1 2 3 4 5 6 
#
# 1 144.4993 46.9040 39.2905 0.0000 0.0000 0.0000
# 2 46.9040 103.3963 57.7717 0.0000 0.0000 0.0000
# 3 39.2905 57.7717 95.3207 0.0000 0.0000 0.0000
# 4 0.0000 0.0000 0.0000 30.8782 0.0000 0.0000
# 5 0.0000 0.0000 0.0000 0.0000 19.6642 0.0000
# 6 0.0000 0.0000 0.0000 0.0000 0.0000 15.6822
#
#
#
# Elastic Compliance Matrix: (Units=1/GPa)
#
#
# Indices 1 2 3 4 5 6 
#
# 1 0.008298 -0.002802 -0.001722 0.000000 0.000000 0.000000
# 2 -0.002802 0.015570 -0.008282 0.000000 0.000000 0.000000
# 3 -0.001722 -0.008282 0.016220 0.000000 0.000000 0.000000
# 4 0.000000 0.000000 0.000000 0.032385 0.000000 0.000000
# 5 0.000000 0.000000 0.000000 0.000000 0.050854 0.000000
# 6 0.000000 0.000000 0.000000 0.000000 0.000000 0.063767
#
#
# Mechanical properties :
#
#
# Convention : Reuss Voigt Hill
#
# Bulk Modulus (GPa) = 69.07748 70.12763 69.60255
# Shear Modulus (GPa) = 22.98521 26.52825 24.75673
#
# Velocity S-wave (km/s) = 3.60209 3.86977 3.73833
# Velocity P-wave (km/s) = 7.50294 7.71710 7.61077
#
# Compressibility (1/GPa) = 0.01447650
#
# Stress axis : x y z
#
# Youngs Moduli (GPa) = 120.50676 64.22651 61.65220
#
# Poissons Ratio (x) = 0.17997 0.10618
# Poissons Ratio (y) = 0.33767 0.51058
# Poissons Ratio (z) = 0.20754 0.53189
#
# Static dielectric constant tensor:
#      x y z
#    x 3.431480 0.000000 0.000000 
#    y 0.000000 3.459460 0.000000 
#    z 0.000000 0.000000 3.181770 
# 
# 
# High freq. dielectric constant tensor:
#      x y z
#    x 1.691530 0.000000 0.000000 
#    y 0.000000 1.686090 0.000000 
#    z 0.000000 0.000000 1.676330 
# 
# From -- ./inp_files/41092.got.cif
#   From: 2010.03.12/outbox.cif.g09.slc.cpg/sg69_21_cif.got.tgz:41092.got - 2010.04.10 23:52:46.
