data_PCOD8284216
_publ_section_title
;
Structure prediction by ZEFSAII (Michael W. Deem and Ramdas Pophale) SiO2 
 PCOD8284216
Probable space group: F M M M
;
_chemical_formula_sum "Si O2"
_cell_formula_units_Z 192
_cell_length_a 29.089813
_cell_length_b 19.019722
_cell_length_c 19.631220
_cell_angle_alpha 90.000000
_cell_angle_beta 90.000000
_cell_angle_gamma 90.000000
_cell_volume 10861.564470
_symmetry_space_group_name_H-M "F M M M"
_symmetry_group_IT_number 69
_symmetry_cell_setting 'orthorhombic'
loop_
_space_group_symop_operation_xyz
x,y,z
-x,-y,z
x,-y,-z
-x,y,-z
-x,-y,-z
x,y,-z
-x,y,z
x,-y,z
x,1/2+y,1/2+z
-x,1/2-y,1/2+z
x,1/2-y,1/2-z
-x,1/2+y,1/2-z
-x,1/2-y,1/2-z
x,1/2+y,1/2-z
-x,1/2+y,1/2+z
x,1/2-y,1/2+z
1/2+x,y,1/2+z
1/2-x,-y,1/2+z
1/2+x,-y,1/2-z
1/2-x,y,1/2-z
1/2-x,-y,1/2-z
1/2+x,y,1/2-z
1/2-x,y,1/2+z
1/2+x,-y,1/2+z
1/2+x,1/2+y,z
1/2-x,1/2-y,z
1/2+x,1/2-y,-z
1/2-x,1/2+y,-z
1/2-x,1/2-y,-z
1/2+x,1/2+y,-z
1/2-x,1/2+y,z
1/2+x,1/2-y,z
loop_
_atom_site_type_symbol
_atom_site_label
_atom_site_fract_x
_atom_site_fract_y
_atom_site_fract_z
Si Si1 0.946918 0.582639 0.835472
Si Si2 0.122449 0.324686 0.921538
Si Si3 0.553944 0.423031 0.182594
Si Si4 0.892154 0.338341 0.421790
Si Si5 0.196904 0.578181 0.580702
Si Si6 0.725450 0.820130 0.918960
O O1 0.940664 0.500000 0.849446
O O2 0.913360 0.625523 0.884045
O O3 0.931796 0.601447 0.758364
O O4 0.000000 0.604375 0.849270
O O5 0.107344 0.244596 0.913138
O O6 0.173933 0.331338 0.890354
O O7 0.122204 0.347872 0.000000
O O8 0.500000 0.430245 0.181001
O O9 0.575610 0.500000 0.166459
O O10 0.567873 0.367453 0.125701
O O11 0.901596 0.359962 0.500000
O O12 0.844582 0.372027 0.395069
O O13 0.196244 0.573730 0.500000
O O14 0.192750 0.500000 0.612550
O O15 0.244727 0.612829 0.604667
O O16 0.750000 0.750000 0.889571
O O17 0.722492 0.812286 0.000000
#
# Coordination Sequence:
#
# PCOD8284216 Si02
#       6
#    32  32  32  32  32  32
#     4   9  20  39  57  73  99 137 181 225 267 313
#     4  10  20  32  52  80 107 137 173 213 263 313
#     4   9  19  36  55  73  98 136 176 213 259 314
#     4  10  19  31  49  78 110 135 164 210 263 314
#     4   9  16  26  44  71 101 134 169 203 247 306
#     4   9  15  28  47  69 103 139 167 206 257 304
#
# _framework density 17.677011
#
# number of rings (size 3 to 8) (size 9 to 14) (size 15 to 20)
#    0.000    2.667    1.667    1.500    0.000    4.000 
#    0.000    6.667    0.000    1.000    0.000    3.500 
#    0.000    0.000    0.000    0.000    0.000    0.000 
#
# Total GULP energy -594995.691530 kJ/mol
# GULP energy per Si atom -12395.743574 kJ/mol
# Density = 1.763678 g / cm^3
# Si number density = 17.677011 Si / 1000 Ang^3
#
#
#
# Elastic Constant Matrix: (Units=GPa)
#
#
# Indices 1 2 3 4 5 6 
#
# 1 77.2994 48.1780 43.3300 0.0000 0.0000 0.0000
# 2 48.1780 93.0979 42.9525 0.0000 0.0000 0.0000
# 3 43.3300 42.9525 62.6255 0.0000 0.0000 0.0000
# 4 0.0000 0.0000 0.0000 12.6362 0.0000 0.0000
# 5 0.0000 0.0000 0.0000 0.0000 0.9722 0.0000
# 6 0.0000 0.0000 0.0000 0.0000 0.0000 36.6556
#
#
#
# Elastic Compliance Matrix: (Units=1/GPa)
#
#
# Indices 1 2 3 4 5 6 
#
# 1 0.023829 -0.006912 -0.011746 0.000000 0.000000 0.000000
# 2 -0.006912 0.017719 -0.007370 0.000000 0.000000 0.000000
# 3 -0.011746 -0.007370 0.029150 0.000000 0.000000 0.000000
# 4 0.000000 0.000000 0.000000 0.079138 0.000000 0.000000
# 5 0.000000 0.000000 0.000000 0.000000 1.028588 0.000000
# 6 0.000000 0.000000 0.000000 0.000000 0.000000 0.027281
#
#
# Mechanical properties :
#
#
# Convention : Reuss Voigt Hill
#
# Bulk Modulus (GPa) = 53.64640 55.77151 54.70896
# Shear Modulus (GPa) = 3.95577 16.62364 10.28970
#
# Velocity S-wave (km/s) = 1.49755 3.06994 2.41528
# Velocity P-wave (km/s) = 5.77964 6.64717 6.22852
#
# Compressibility (1/GPa) = 0.01864058
#
# Stress axis : x y z
#
# Youngs Moduli (GPa) = 41.96528 56.43723 34.30521
#
# Poissons Ratio (x) = 0.39010 0.40296
# Poissons Ratio (y) = 0.29007 0.25284
# Poissons Ratio (z) = 0.49294 0.41595
#
# Static dielectric constant tensor:
#      x y z
#    x 3.315010 0.000000 0.000000 
#    y 0.000000 3.455780 0.000000 
#    z 0.000000 0.000000 3.004700 
# 
# 
# High freq. dielectric constant tensor:
#      x y z
#    x 1.688160 0.000000 0.000000 
#    y 0.000000 1.690030 0.000000 
#    z 0.000000 0.000000 1.640830 
# 
# From -- ./inp_files/32109.got.cif
#   From: 2010.03.12/outbox.cif.g09.slc.cpg/sg69_17_cif.got.tgz:32109.got - 2010.04.10 23:52:46.
