data_PCOD8284548
_publ_section_title
;
Structure prediction by ZEFSAII (Michael W. Deem and Ramdas Pophale) SiO2 
 PCOD8284548
Probable space group: F M M M
;
_chemical_formula_sum "Si O2"
_cell_formula_units_Z 144
_cell_length_a 18.791663
_cell_length_b 14.318042
_cell_length_c 26.009865
_cell_angle_alpha 90.000000
_cell_angle_beta 90.000000
_cell_angle_gamma 90.000000
_cell_volume 6998.209597
_symmetry_space_group_name_H-M "F M M M"
_symmetry_group_IT_number 69
_symmetry_cell_setting 'orthorhombic'
loop_
_space_group_symop_operation_xyz
x,y,z
-x,-y,z
x,-y,-z
-x,y,-z
-x,-y,-z
x,y,-z
-x,y,z
x,-y,z
x,1/2+y,1/2+z
-x,1/2-y,1/2+z
x,1/2-y,1/2-z
-x,1/2+y,1/2-z
-x,1/2-y,1/2-z
x,1/2+y,1/2-z
-x,1/2+y,1/2+z
x,1/2-y,1/2+z
1/2+x,y,1/2+z
1/2-x,-y,1/2+z
1/2+x,-y,1/2-z
1/2-x,y,1/2-z
1/2-x,-y,1/2-z
1/2+x,y,1/2-z
1/2-x,y,1/2+z
1/2+x,-y,1/2+z
1/2+x,1/2+y,z
1/2-x,1/2-y,z
1/2+x,1/2-y,-z
1/2-x,1/2+y,-z
1/2-x,1/2-y,-z
1/2+x,1/2+y,-z
1/2-x,1/2+y,z
1/2+x,1/2-y,z
loop_
_atom_site_type_symbol
_atom_site_label
_atom_site_fract_x
_atom_site_fract_y
_atom_site_fract_z
Si Si1 0.580076 0.610755 0.500000
Si Si2 0.579782 0.390834 0.130852
Si Si3 0.159995 0.610451 0.895951
Si Si4 0.803357 0.390754 0.555546
Si Si5 0.334550 0.248889 0.691450
O O1 0.581626 0.500000 0.500000
O O2 0.500000 0.649979 0.500000
O O3 0.617880 0.643889 0.447132
O O4 0.500000 0.348955 0.129753
O O5 0.577505 0.500000 0.142164
O O6 0.618044 0.368239 0.076636
O O7 0.629918 0.347367 0.173978
O O8 0.150650 0.500000 0.885204
O O9 0.241631 0.642821 0.905710
O O10 0.134908 0.666787 0.844890
O O11 0.796301 0.341524 0.500000
O O12 0.791418 0.500000 0.548514
O O13 0.360955 0.250000 0.750000
O O14 0.250000 0.250000 0.689107
#
# Coordination Sequence:
#
# PCOD8284548 Si02
#       5
#    16  32  32  32  32
#     4   9  18  34  59  92 128 162 197 244 307 376
#     4  10  22  41  62  85 120 162 204 254 306 359
#     4  10  19  36  62  91 124 161 199 249 312 374
#     4   9  16  31  58  88 118 155 198 243 299 368
#     4  11  24  40  61  90 122 160 210 263 309 364
#
# _framework density 20.576691
#
# number of rings (size 3 to 8) (size 9 to 14) (size 15 to 20)
#    0.000    2.111    3.333    0.000    0.000    2.667 
#    2.000    6.111    0.000    2.667    0.000    0.000 
#    0.000    0.000    0.000    0.000    0.000    0.000 
#
# Total GULP energy -446065.951561 kJ/mol
# GULP energy per Si atom -12390.720877 kJ/mol
# Density = 2.052986 g / cm^3
# Si number density = 20.576691 Si / 1000 Ang^3
#
#
#
# Elastic Constant Matrix: (Units=GPa)
#
#
# Indices 1 2 3 4 5 6 
#
# 1 131.2941 23.4215 41.9625 0.0000 0.0000 0.0000
# 2 23.4215 47.3025 50.5107 0.0000 0.0000 0.0000
# 3 41.9625 50.5107 173.0688 0.0000 0.0000 0.0000
# 4 0.0000 0.0000 0.0000 27.2395 0.0000 0.0000
# 5 0.0000 0.0000 0.0000 0.0000 18.1690 0.0000
# 6 0.0000 0.0000 0.0000 0.0000 0.0000 19.8101
#
#
#
# Elastic Compliance Matrix: (Units=1/GPa)
#
#
# Indices 1 2 3 4 5 6 
#
# 1 0.008526 -0.002926 -0.001213 0.000000 0.000000 0.000000
# 2 -0.002926 0.031716 -0.008547 0.000000 0.000000 0.000000
# 3 -0.001213 -0.008547 0.008567 0.000000 0.000000 0.000000
# 4 0.000000 0.000000 0.000000 0.036711 0.000000 0.000000
# 5 0.000000 0.000000 0.000000 0.000000 0.055039 0.000000
# 6 0.000000 0.000000 0.000000 0.000000 0.000000 0.050479
#
#
# Mechanical properties :
#
#
# Convention : Reuss Voigt Hill
#
# Bulk Modulus (GPa) = 42.66905 64.82833 53.74869
# Shear Modulus (GPa) = 22.29917 28.76175 25.53046
#
# Velocity S-wave (km/s) = 3.29555 3.74275 3.52624
# Velocity P-wave (km/s) = 5.93822 7.08884 6.53889
#
# Compressibility (1/GPa) = 0.02343619
#
# Stress axis : x y z
#
# Youngs Moduli (GPa) = 117.28477 31.52981 116.73143
#
# Poissons Ratio (x) = 0.09226 0.14163
# Poissons Ratio (y) = 0.34319 0.99770
# Poissons Ratio (z) = 0.14230 0.26948
#
# Static dielectric constant tensor:
#      x y z
#    x 3.833550 0.000000 0.000000 
#    y 0.000000 3.564700 0.000000 
#    z 0.000000 0.000000 3.895530 
# 
# 
# High freq. dielectric constant tensor:
#      x y z
#    x 1.797700 0.000000 0.000000 
#    y 0.000000 1.794440 0.000000 
#    z 0.000000 0.000000 1.801210 
# 
# From -- ./inp_files/41702.got.cif
#   From: 2010.03.12/outbox.cif.g09.slc.cpg/sg69_21_cif.got.tgz:41702.got - 2010.04.10 23:52:46.
