data_PCOD8284890
_publ_section_title
;
Structure prediction by ZEFSAII (Michael W. Deem and Ramdas Pophale) SiO2 
 PCOD8284890
Probable space group: F M M M
;
_chemical_formula_sum "Si O2"
_cell_formula_units_Z 128
_cell_length_a 22.227377
_cell_length_b 16.768773
_cell_length_c 17.153326
_cell_angle_alpha 90.000000
_cell_angle_beta 90.000000
_cell_angle_gamma 90.000000
_cell_volume 6393.487830
_symmetry_space_group_name_H-M "F M M M"
_symmetry_group_IT_number 69
_symmetry_cell_setting 'orthorhombic'
loop_
_space_group_symop_operation_xyz
x,y,z
-x,-y,z
x,-y,-z
-x,y,-z
-x,-y,-z
x,y,-z
-x,y,z
x,-y,z
x,1/2+y,1/2+z
-x,1/2-y,1/2+z
x,1/2-y,1/2-z
-x,1/2+y,1/2-z
-x,1/2-y,1/2-z
x,1/2+y,1/2-z
-x,1/2+y,1/2+z
x,1/2-y,1/2+z
1/2+x,y,1/2+z
1/2-x,-y,1/2+z
1/2+x,-y,1/2-z
1/2-x,y,1/2-z
1/2-x,-y,1/2-z
1/2+x,y,1/2-z
1/2-x,y,1/2+z
1/2+x,-y,1/2+z
1/2+x,1/2+y,z
1/2-x,1/2-y,z
1/2+x,1/2-y,-z
1/2-x,1/2+y,-z
1/2-x,1/2-y,-z
1/2+x,1/2+y,-z
1/2-x,1/2+y,z
1/2+x,1/2-y,z
loop_
_atom_site_type_symbol
_atom_site_label
_atom_site_fract_x
_atom_site_fract_y
_atom_site_fract_z
Si Si1 0.931848 0.000000 0.406722
Si Si2 0.121326 0.673543 0.407311
Si Si3 0.000000 0.089221 0.907610
Si Si4 0.262690 0.091853 0.659473
Si Si5 0.857303 0.148771 0.408672
O O1 0.898033 0.078021 0.372107
O O2 0.930691 0.000000 0.500000
O O3 0.000000 0.000000 0.375472
O O4 0.131672 0.665222 0.500000
O O5 0.058917 0.635600 0.378869
O O6 0.173184 0.627719 0.361712
O O7 0.119819 0.765374 0.379686
O O8 0.000000 0.000000 0.872419
O O9 0.000000 0.085377 0.000000
O O10 0.250000 0.102883 0.750000
O O11 0.212298 0.139386 0.612315
O O12 0.261224 0.000000 0.633891
O O13 0.864601 0.143847 0.500000
#
# Coordination Sequence:
#
# PCOD8284890 Si02
#       5
#    16  32  16  32  32
#     4   9  18  32  55  82 112 147 179 222 280 330
#     4  10  21  35  58  87 114 145 185 231 277 329
#     4   9  18  34  56  84 115 147 182 224 276 328
#     4  11  23  38  57  79 112 149 189 230 279 330
#     4  10  20  35  57  85 112 142 185 230 276 330
#
# _framework density 20.020371000000001
#
# number of rings (size 3 to 8) (size 9 to 14) (size 15 to 20)
#    0.000    2.000    1.250    2.250    1.750    6.500 
#    0.000    0.000    2.750    1.500    0.000    0.000 
#    0.000    0.000    0.000    0.000    0.000    0.000 
#
# Total GULP energy -396869.569238 kJ/mol
# GULP energy per Si atom -12402.174039 kJ/mol
# Density = 1.997480 g / cm^3
# Si number density = 20.020371 Si / 1000 Ang^3
#
#
#
# Elastic Constant Matrix: (Units=GPa)
#
#
# Indices 1 2 3 4 5 6 
#
# 1 194.5435 101.5607 19.2587 0.0000 0.0000 0.0000
# 2 101.5607 192.5633 33.5401 0.0000 0.0000 0.0000
# 3 19.2587 33.5401 12.4499 0.0000 0.0000 0.0000
# 4 0.0000 0.0000 0.0000 1.3050 0.0000 0.0000
# 5 0.0000 0.0000 0.0000 0.0000 2.2437 0.0000
# 6 0.0000 0.0000 0.0000 0.0000 0.0000 47.7382
#
#
#
# Elastic Compliance Matrix: (Units=1/GPa)
#
#
# Indices 1 2 3 4 5 6 
#
# 1 0.007112 -0.003457 -0.001689 0.000000 0.000000 0.000000
# 2 -0.003457 0.011464 -0.025538 0.000000 0.000000 0.000000
# 3 -0.001689 -0.025538 0.151732 0.000000 0.000000 0.000000
# 4 0.000000 0.000000 0.000000 0.766305 0.000000 0.000000
# 5 0.000000 0.000000 0.000000 0.000000 0.445691 0.000000
# 6 0.000000 0.000000 0.000000 0.000000 0.000000 0.020948
#
#
# Mechanical properties :
#
#
# Convention : Reuss Voigt Hill
#
# Bulk Modulus (GPa) = 9.17918 78.69732 43.93825
# Shear Modulus (GPa) = 3.33126 26.60386 14.96756
#
# Velocity S-wave (km/s) = 1.29134 3.64928 2.73722
# Velocity P-wave (km/s) = 2.61118 7.55978 5.65546
#
# Compressibility (1/GPa) = 0.10894221
#
# Stress axis : x y z
#
# Youngs Moduli (GPa) = 140.60628 87.22701 6.59055
#
# Poissons Ratio (x) = 0.30153 0.01113
# Poissons Ratio (y) = 0.48605 0.16831
# Poissons Ratio (z) = 0.23746 2.22756
#
# Static dielectric constant tensor:
#      x y z
#    x 3.745490 0.000000 0.000000 
#    y 0.000000 4.107100 0.000000 
#    z 0.000000 0.000000 3.182810 
# 
# 
# High freq. dielectric constant tensor:
#      x y z
#    x 1.792330 0.000000 0.000000 
#    y 0.000000 1.802500 0.000000 
#    z 0.000000 0.000000 1.739140 
# 
# From -- ./inp_files/16349.got.cif
#   From: 2010.03.12/outbox.cif.g09.slc.cpg/sg69_9_cif.got.tgz:16349.got - 2010.04.10 23:52:46.
