data_PCOD8284110
_publ_section_title
;
Structure prediction by ZEFSAII (Michael W. Deem and Ramdas Pophale) SiO2 
 PCOD8284110
Probable space group: F M M M
;
_chemical_formula_sum "Si O2"
_cell_formula_units_Z 112
_cell_length_a 27.479270
_cell_length_b 9.235114
_cell_length_c 30.573207
_cell_angle_alpha 90.000000
_cell_angle_beta 90.000000
_cell_angle_gamma 90.000000
_cell_volume 7758.690875
_symmetry_space_group_name_H-M "F M M M"
_symmetry_group_IT_number 69
_symmetry_cell_setting 'orthorhombic'
loop_
_space_group_symop_operation_xyz
x,y,z
-x,-y,z
x,-y,-z
-x,y,-z
-x,-y,-z
x,y,-z
-x,y,z
x,-y,z
x,1/2+y,1/2+z
-x,1/2-y,1/2+z
x,1/2-y,1/2-z
-x,1/2+y,1/2-z
-x,1/2-y,1/2-z
x,1/2+y,1/2-z
-x,1/2+y,1/2+z
x,1/2-y,1/2+z
1/2+x,y,1/2+z
1/2-x,-y,1/2+z
1/2+x,-y,1/2-z
1/2-x,y,1/2-z
1/2-x,-y,1/2-z
1/2+x,y,1/2-z
1/2-x,y,1/2+z
1/2+x,-y,1/2+z
1/2+x,1/2+y,z
1/2-x,1/2-y,z
1/2+x,1/2-y,-z
1/2-x,1/2+y,-z
1/2-x,1/2-y,-z
1/2+x,1/2+y,-z
1/2-x,1/2+y,z
1/2+x,1/2-y,z
loop_
_atom_site_type_symbol
_atom_site_label
_atom_site_fract_x
_atom_site_fract_y
_atom_site_fract_z
Si Si1 0.299120 0.663419 0.000000
Si Si2 0.443435 0.668549 0.377384
Si Si3 0.391308 0.163247 0.548497
Si Si4 0.942071 0.663852 0.291829
O O1 0.250000 0.750000 0.000000
O O2 0.333026 0.692841 0.042972
O O3 0.281555 0.500000 0.000000
O O4 0.500000 0.701023 0.385672
O O5 0.433946 0.500000 0.369054
O O6 0.413987 0.718825 0.419687
O O7 0.423872 0.755609 0.335411
O O8 0.415497 0.177452 0.500000
O O9 0.400371 0.000000 0.566443
O O10 0.921816 0.500000 0.291353
O O11 0.921179 0.750000 0.250000
O O12 0.000000 0.663557 0.290175
#
# Coordination Sequence:
#
# PCOD8284110 Si02
#       4
#    16  32  32  32
#     4   8  16  30  47  64  81 103 132 169 211 252
#     4  10  19  28  39  58  84 113 145 177 207 241
#     4   8  17  31  43  59  82 109 140 171 204 248
#     4   9  16  26  40  56  76 105 140 176 211 244
#
# _framework density 14.435423999999999
#
# number of rings (size 3 to 8) (size 9 to 14) (size 15 to 20)
#    0.857    2.286    0.000    1.714    0.000    7.429 
#    0.000    2.857    0.000    0.000    0.000    0.000 
#    0.000    1.143    0.000   12.000    0.000    7.143 
#
# Total GULP energy -346923.906291 kJ/mol
# GULP energy per Si atom -12390.139510 kJ/mol
# Density = 1.440257 g / cm^3
# Si number density = 14.435424 Si / 1000 Ang^3
#
#
#
# Elastic Constant Matrix: (Units=GPa)
#
#
# Indices 1 2 3 4 5 6 
#
# 1 43.2934 39.9853 33.1621 0.0000 0.0000 -0.0002
# 2 39.9853 114.0511 59.2464 0.0000 -0.0001 -0.0001
# 3 33.1621 59.2464 93.5358 0.0000 0.0000 0.0000
# 4 0.0000 0.0000 0.0000 33.1855 0.0000 0.0000
# 5 0.0000 -0.0001 0.0000 0.0000 -0.6684 0.0000
# 6 -0.0002 -0.0001 0.0000 0.0000 0.0000 22.9033
#
#
#
# Elastic Compliance Matrix: (Units=1/GPa)
#
#
# Indices 1 2 3 4 5 6 
#
# 1 0.037274 -0.009245 -0.007359 0.000000 -0.000001 0.000000
# 2 -0.009245 0.015361 -0.006452 0.000000 -0.000001 0.000000
# 3 -0.007359 -0.006452 0.017387 0.000000 0.000001 0.000000
# 4 0.000000 0.000000 0.000000 0.030134 0.000000 0.000000
# 5 -0.000001 -0.000001 0.000001 0.000000 -1.496010 0.000002
# 6 0.000000 0.000000 0.000000 0.000000 0.000002 0.043662
#
#
# Mechanical properties :
#
#
# Convention : Reuss Voigt Hill
#
# Bulk Modulus (GPa) = 41.82468 57.29643 49.56055
# Shear Modulus (GPa) = -3.85175 18.98317 7.56571
#
# Velocity S-wave (km/s) = -1.63525 3.63028 2.29182
# Velocity P-wave (km/s) = 5.04689 7.57296 6.43509
#
# Compressibility (1/GPa) = 0.02390933
#
# Stress axis : x y z
#
# Youngs Moduli (GPa) = 26.82850 65.10069 57.51448
#
# Poissons Ratio (x) = 0.60185 0.42326
# Poissons Ratio (y) = 0.24803 0.37108
# Poissons Ratio (z) = 0.19744 0.42003
#
# Static dielectric constant tensor:
#      x y z
#    x 2.349520 0.000000 0.000000 
#    y 0.000000 2.881790 0.000000 
#    z 0.000000 0.000000 2.774370 
# 
# 
# High freq. dielectric constant tensor:
#      x y z
#    x 1.493740 0.000000 0.000000 
#    y 0.000000 1.567020 0.000000 
#    z 0.000000 0.000000 1.548280 
# 
# From -- ./inp_files/5442.got.cif
#   From: 2010.03.12/outbox.cif.g09.slc.cpg/sg69_3_cif.got.tgz:5442.got - 2010.04.10 23:52:46.
