data_PCOD8284577
_publ_section_title
;
Structure prediction by ZEFSAII (Michael W. Deem and Ramdas Pophale) SiO2 
 PCOD8284577
Probable space group: F M M M
;
_chemical_formula_sum "Si O2"
_cell_formula_units_Z 160
_cell_length_a 32.350373
_cell_length_b 9.218492
_cell_length_c 30.726823
_cell_angle_alpha 90.000000
_cell_angle_beta 90.000000
_cell_angle_gamma 90.000000
_cell_volume 9163.403999
_symmetry_space_group_name_H-M "F M M M"
_symmetry_group_IT_number 69
_symmetry_cell_setting 'orthorhombic'
loop_
_space_group_symop_operation_xyz
x,y,z
-x,-y,z
x,-y,-z
-x,y,-z
-x,-y,-z
x,y,-z
-x,y,z
x,-y,z
x,1/2+y,1/2+z
-x,1/2-y,1/2+z
x,1/2-y,1/2-z
-x,1/2+y,1/2-z
-x,1/2-y,1/2-z
x,1/2+y,1/2-z
-x,1/2+y,1/2+z
x,1/2-y,1/2+z
1/2+x,y,1/2+z
1/2-x,-y,1/2+z
1/2+x,-y,1/2-z
1/2-x,y,1/2-z
1/2-x,-y,1/2-z
1/2+x,y,1/2-z
1/2-x,y,1/2+z
1/2+x,-y,1/2+z
1/2+x,1/2+y,z
1/2-x,1/2-y,z
1/2+x,1/2-y,-z
1/2-x,1/2+y,-z
1/2-x,1/2-y,-z
1/2+x,1/2+y,-z
1/2-x,1/2+y,z
1/2+x,1/2-y,z
loop_
_atom_site_type_symbol
_atom_site_label
_atom_site_fract_x
_atom_site_fract_y
_atom_site_fract_z
Si Si1 0.453273 0.168998 0.706472
Si Si2 0.877858 0.670764 0.650215
Si Si3 0.306285 0.843765 0.289621
Si Si4 0.325480 0.833791 0.082687
Si Si5 0.250000 0.750000 0.861071
Si Si6 0.294605 0.824920 0.500000
O O1 0.500000 0.213665 0.693793
O O2 0.438641 0.250000 0.750000
O O3 0.424518 0.208813 0.665013
O O4 0.449530 0.000000 0.717000
O O5 0.872306 0.500000 0.638829
O O6 0.849310 0.715849 0.691194
O O7 0.864360 0.768402 0.609234
O O8 0.289172 0.750000 0.250000
O O9 0.274021 0.859839 0.329367
O O10 0.313425 0.000000 0.268813
O O11 0.282737 0.836413 0.109635
O O12 0.320184 0.728886 0.041548
O O13 0.335342 0.000000 0.069173
O O14 0.250000 0.750000 0.500000
O O15 0.290119 0.000000 0.500000
#
# Coordination Sequence:
#
# PCOD8284577 Si02
#       6
#    32  32  32  32  16  16
#     4   9  17  30  50  76 106 141 179 219 262 309
#     4   9  19  34  49  69 101 134 169 212 260 308
#     4  10  20  31  43  61  87 125 166 207 249 289
#     4  11  22  36  55  76  99 130 169 209 255 308
#     4  10  21  33  48  64  94 124 166 207 249 294
#     4  12  24  38  58  80 105 132 165 208 258 309
#
# _framework density 17.460761000000002
#
# number of rings (size 3 to 8) (size 9 to 14) (size 15 to 20)
#    0.000    2.000    1.000    3.000    0.000    7.200 
#    0.000    0.000    0.000    0.000    0.000    0.700 
#    0.000    5.600    0.000    0.000    0.000    0.000 
#
# Total GULP energy -495795.585294 kJ/mol
# GULP energy per Si atom -12394.889632 kJ/mol
# Density = 1.742102 g / cm^3
# Si number density = 17.460761 Si / 1000 Ang^3
#
#
#
# Elastic Constant Matrix: (Units=GPa)
#
#
# Indices 1 2 3 4 5 6 
#
# 1 92.5916 32.9383 45.5075 0.0000 0.0000 0.0002
# 2 32.9383 99.4633 54.1729 0.0000 0.0000 0.0002
# 3 45.5075 54.1729 107.1629 0.0000 0.0000 0.0000
# 4 0.0000 0.0000 0.0000 27.1317 0.0000 0.0001
# 5 0.0000 0.0000 0.0000 0.0000 22.1577 0.0000
# 6 0.0002 0.0002 0.0000 0.0001 0.0000 19.0284
#
#
#
# Elastic Compliance Matrix: (Units=1/GPa)
#
#
# Indices 1 2 3 4 5 6 
#
# 1 0.013909 -0.001917 -0.004937 0.000000 0.000000 0.000000
# 2 -0.001917 0.014138 -0.006333 0.000000 0.000000 0.000000
# 3 -0.004937 -0.006333 0.014630 0.000000 0.000000 0.000000
# 4 0.000000 0.000000 0.000000 0.036857 0.000000 0.000000
# 5 0.000000 0.000000 0.000000 0.000000 0.045131 0.000000
# 6 0.000000 0.000000 0.000000 0.000000 0.000000 0.052553
#
#
# Mechanical properties :
#
#
# Convention : Reuss Voigt Hill
#
# Bulk Modulus (GPa) = 61.34260 62.71725 62.02992
# Shear Modulus (GPa) = 23.92043 24.77017 24.34530
#
# Velocity S-wave (km/s) = 3.70530 3.77054 3.73807
# Velocity P-wave (km/s) = 7.31530 7.41302 7.36433
#
# Compressibility (1/GPa) = 0.01630189
#
# Stress axis : x y z
#
# Youngs Moduli (GPa) = 71.89755 70.73114 68.35376
#
# Poissons Ratio (x) = 0.13558 0.33749
# Poissons Ratio (y) = 0.13782 0.43289
# Poissons Ratio (z) = 0.35499 0.44794
#
# Static dielectric constant tensor:
#      x y z
#    x 3.290080 0.000000 0.000000 
#    y 0.000000 3.173490 0.000000 
#    z 0.000000 0.000000 3.185320 
# 
# 
# High freq. dielectric constant tensor:
#      x y z
#    x 1.656630 0.000000 0.000000 
#    y 0.000000 1.676940 0.000000 
#    z 0.000000 0.000000 1.659410 
# 
# From -- ./inp_files/47514.got.cif
#   From: 2010.03.12/outbox.cif.g09.slc.cpg/sg69_24_cif.got.tgz:47514.got - 2010.04.10 23:52:46.
