data_PCOD8284804
_publ_section_title
;
Structure prediction by ZEFSAII (Michael W. Deem and Ramdas Pophale) SiO2 
 PCOD8284804
Probable space group: F M M M
;
_chemical_formula_sum "Si O2"
_cell_formula_units_Z 136
_cell_length_a 24.248550
_cell_length_b 22.995721
_cell_length_c 12.886192
_cell_angle_alpha 90.000000
_cell_angle_beta 90.000000
_cell_angle_gamma 90.000000
_cell_volume 7185.506768
_symmetry_space_group_name_H-M "F M M M"
_symmetry_group_IT_number 69
_symmetry_cell_setting 'orthorhombic'
loop_
_space_group_symop_operation_xyz
x,y,z
-x,-y,z
x,-y,-z
-x,y,-z
-x,-y,-z
x,y,-z
-x,y,z
x,-y,z
x,1/2+y,1/2+z
-x,1/2-y,1/2+z
x,1/2-y,1/2-z
-x,1/2+y,1/2-z
-x,1/2-y,1/2-z
x,1/2+y,1/2-z
-x,1/2+y,1/2+z
x,1/2-y,1/2+z
1/2+x,y,1/2+z
1/2-x,-y,1/2+z
1/2+x,-y,1/2-z
1/2-x,y,1/2-z
1/2-x,-y,1/2-z
1/2+x,y,1/2-z
1/2-x,y,1/2+z
1/2+x,-y,1/2+z
1/2+x,1/2+y,z
1/2-x,1/2-y,z
1/2+x,1/2-y,-z
1/2-x,1/2+y,-z
1/2-x,1/2-y,-z
1/2+x,1/2+y,-z
1/2-x,1/2+y,z
1/2+x,1/2-y,z
loop_
_atom_site_type_symbol
_atom_site_label
_atom_site_fract_x
_atom_site_fract_y
_atom_site_fract_z
Si Si1 0.437974 0.723127 0.382396
Si Si2 0.500000 0.565062 0.121296
Si Si3 0.407486 0.611440 0.253642
Si Si4 0.158941 0.813717 0.876831
Si Si5 0.566112 0.000000 0.121514
Si Si6 0.250000 0.750000 0.250000
O O1 0.429642 0.704421 0.500000
O O2 0.500000 0.747656 0.362232
O O3 0.429483 0.664598 0.320170
O O4 0.393725 0.772363 0.352808
O O5 0.500000 0.500000 0.168681
O O6 0.447077 0.599328 0.157841
O O7 0.500000 0.563280 0.000000
O O8 0.351033 0.627951 0.192299
O O9 0.403697 0.555815 0.328598
O O10 0.214265 0.787313 0.830093
O O11 0.166068 0.825927 0.000000
O O12 0.500000 0.000000 0.141550
O O13 0.578910 0.000000 0.000000
#
# Coordination Sequence:
#
# PCOD8284804 Si02
#       6
#    32  16  32  32  16   8
#     4  10  20  34  56  89 126 157 194 245 308 373
#     4  11  22  34  51  82 124 168 202 240 299 370
#     4  12  19  37  55  85 122 162 200 246 293 357
#     4  11  25  40  62  92 119 160 207 254 314 375
#     4  11  22  36  58  91 130 173 212 243 293 365
#     4  12  22  48  66  84 120 160 210 274 314 358
#
# _framework density 18.926988000000001
#
# number of rings (size 3 to 8) (size 9 to 14) (size 15 to 20)
#    0.000    0.941    5.882    1.765    1.647    2.824 
#    0.000    0.000    0.000    0.706    0.000    0.000 
#    0.000    0.000    0.000    0.000    0.000    0.000 
#
# Total GULP energy -421362.696729 kJ/mol
# GULP energy per Si atom -12393.020492 kJ/mol
# Density = 1.888391 g / cm^3
# Si number density = 18.926988 Si / 1000 Ang^3
#
#
#
# Elastic Constant Matrix: (Units=GPa)
#
#
# Indices 1 2 3 4 5 6 
#
# 1 102.9839 46.1555 51.5795 0.0000 0.0000 0.0000
# 2 46.1555 89.0755 75.2402 0.0000 0.0000 0.0000
# 3 51.5795 75.2402 152.8677 0.0000 0.0000 0.0000
# 4 0.0000 0.0000 0.0000 35.8268 0.0000 0.0000
# 5 0.0000 0.0000 0.0000 0.0000 31.3972 0.0000
# 6 0.0000 0.0000 0.0000 0.0000 0.0000 70.9688
#
#
#
# Elastic Compliance Matrix: (Units=1/GPa)
#
#
# Indices 1 2 3 4 5 6 
#
# 1 0.012938 -0.005163 -0.001824 0.000000 0.000000 0.000000
# 2 -0.005163 0.021275 -0.008729 0.000000 0.000000 0.000000
# 3 -0.001824 -0.008729 0.011454 0.000000 0.000000 0.000000
# 4 0.000000 0.000000 0.000000 0.027912 0.000000 0.000000
# 5 0.000000 0.000000 0.000000 0.000000 0.031850 0.000000
# 6 0.000000 0.000000 0.000000 0.000000 0.000000 0.014091
#
#
# Mechanical properties :
#
#
# Convention : Reuss Voigt Hill
#
# Bulk Modulus (GPa) = 70.25692 76.76417 73.51055
# Shear Modulus (GPa) = 32.11358 39.10205 35.60782
#
# Velocity S-wave (km/s) = 4.12358 4.55019 4.34213
# Velocity P-wave (km/s) = 7.73773 8.26146 8.00388
#
# Compressibility (1/GPa) = 0.01423347
#
# Stress axis : x y z
#
# Youngs Moduli (GPa) = 77.29238 47.00289 87.30832
#
# Poissons Ratio (x) = 0.24268 0.15927
# Poissons Ratio (y) = 0.39906 0.76215
# Poissons Ratio (z) = 0.14100 0.41031
#
# Static dielectric constant tensor:
#      x y z
#    x 3.277460 0.000000 0.000000 
#    y 0.000000 3.743090 0.000000 
#    z 0.000000 0.000000 3.851100 
# 
# 
# High freq. dielectric constant tensor:
#      x y z
#    x 1.698310 0.000000 0.000000 
#    y 0.000000 1.729590 0.000000 
#    z 0.000000 0.000000 1.777020 
# 
# From -- ./inp_files/16621.got.cif
#   From: 2010.03.12/outbox.cif.g09.slc.cpg/sg69_9_cif.got.tgz:16621.got - 2010.04.10 23:52:46.
