data_PCOD8284810
_publ_section_title
;
Structure prediction by ZEFSAII (Michael W. Deem and Ramdas Pophale) SiO2 
 PCOD8284810
Probable space group: F M M M
;
_chemical_formula_sum "Si O2"
_cell_formula_units_Z 136
_cell_length_a 20.102868
_cell_length_b 20.798920
_cell_length_c 17.505788
_cell_angle_alpha 90.000000
_cell_angle_beta 90.000000
_cell_angle_gamma 90.000000
_cell_volume 7319.484074
_symmetry_space_group_name_H-M "F M M M"
_symmetry_group_IT_number 69
_symmetry_cell_setting 'orthorhombic'
loop_
_space_group_symop_operation_xyz
x,y,z
-x,-y,z
x,-y,-z
-x,y,-z
-x,-y,-z
x,y,-z
-x,y,z
x,-y,z
x,1/2+y,1/2+z
-x,1/2-y,1/2+z
x,1/2-y,1/2-z
-x,1/2+y,1/2-z
-x,1/2-y,1/2-z
x,1/2+y,1/2-z
-x,1/2+y,1/2+z
x,1/2-y,1/2+z
1/2+x,y,1/2+z
1/2-x,-y,1/2+z
1/2+x,-y,1/2-z
1/2-x,y,1/2-z
1/2-x,-y,1/2-z
1/2+x,y,1/2-z
1/2-x,y,1/2+z
1/2+x,-y,1/2+z
1/2+x,1/2+y,z
1/2-x,1/2-y,z
1/2+x,1/2-y,-z
1/2-x,1/2+y,-z
1/2-x,1/2-y,-z
1/2+x,1/2+y,-z
1/2-x,1/2+y,z
1/2+x,1/2-y,z
loop_
_atom_site_type_symbol
_atom_site_label
_atom_site_fract_x
_atom_site_fract_y
_atom_site_fract_z
Si Si1 0.311560 0.797440 0.913712
Si Si2 0.076338 0.500000 0.767661
Si Si3 0.500000 0.639067 0.914787
Si Si4 0.000000 0.500000 0.376419
Si Si5 0.105148 0.791924 0.183441
Si Si6 0.318145 0.889702 0.218367
O O1 0.250000 0.750000 0.908913
O O2 0.373354 0.758324 0.880768
O O3 0.301095 0.862330 0.865403
O O4 0.326465 0.818974 0.000000
O O5 0.119391 0.437676 0.790668
O O6 0.000000 0.500000 0.804500
O O7 0.066539 0.500000 0.676325
O O8 0.500000 0.562761 0.928887
O O9 0.561639 0.657272 0.862095
O O10 0.500000 0.670575 0.000000
O O11 0.068100 0.750000 0.250000
O O12 0.164829 0.830707 0.224468
O O13 0.250000 0.922855 0.250000
#
# Coordination Sequence:
#
# PCOD8284810 Si02
#       6
#    32  16  16   8  32  32
#     4  10  20  35  56  85 121 150 182 239 303 347
#     4  10  21  40  63  81 113 151 201 247 289 329
#     4  12  22  37  55  82 119 154 196 244 300 354
#     4  10  21  38  54  80 105 162 186 238 295 346
#     4  10  20  34  58  83 115 151 196 235 289 353
#     4  11  20  36  62  87 110 151 204 236 281 353
#
# _framework density 18.580545000000001
#
# number of rings (size 3 to 8) (size 9 to 14) (size 15 to 20)
#    0.353    1.176    4.706    1.588    0.000    0.000 
#    2.118    0.588    0.000    0.706    0.000    0.000 
#    0.000    0.000    0.000    0.000    0.000    0.000 
#
# Total GULP energy -421252.176861 kJ/mol
# GULP energy per Si atom -12389.769908 kJ/mol
# Density = 1.853825 g / cm^3
# Si number density = 18.580545 Si / 1000 Ang^3
#
#
#
# Elastic Constant Matrix: (Units=GPa)
#
#
# Indices 1 2 3 4 5 6 
#
# 1 94.3991 35.4642 46.5379 0.0000 0.0000 0.0000
# 2 35.4642 87.3154 44.5337 0.0000 0.0000 0.0000
# 3 46.5379 44.5337 144.5942 0.0000 0.0000 0.0000
# 4 0.0000 0.0000 0.0000 11.1151 0.0000 0.0000
# 5 0.0000 0.0000 0.0000 0.0000 -8.2743 0.0000
# 6 0.0000 0.0000 0.0000 0.0000 0.0000 26.1022
#
#
#
# Elastic Compliance Matrix: (Units=1/GPa)
#
#
# Indices 1 2 3 4 5 6 
#
# 1 0.013633 -0.003914 -0.003182 0.000000 0.000000 0.000000
# 2 -0.003914 0.014711 -0.003271 0.000000 0.000000 0.000000
# 3 -0.003182 -0.003271 0.008948 0.000000 0.000000 0.000000
# 4 0.000000 0.000000 0.000000 0.089967 0.000000 0.000000
# 5 0.000000 0.000000 0.000000 0.000000 -0.120856 0.000000
# 6 0.000000 0.000000 0.000000 0.000000 0.000000 0.038311
#
#
# Mechanical properties :
#
#
# Convention : Reuss Voigt Hill
#
# Bulk Modulus (GPa) = 60.39960 64.37558 62.38759
# Shear Modulus (GPa) = 70.45562 19.10680 44.78121
#
# Velocity S-wave (km/s) = 6.16452 3.21023 4.91462
# Velocity P-wave (km/s) = 9.12392 6.96152 8.11507
#
# Compressibility (1/GPa) = 0.01655640
#
# Stress axis : x y z
#
# Youngs Moduli (GPa) = 73.35399 67.97729 111.76240
#
# Poissons Ratio (x) = 0.26606 0.35565
# Poissons Ratio (y) = 0.28711 0.36558
# Poissons Ratio (z) = 0.23343 0.22236
#
# Static dielectric constant tensor:
#      x y z
#    x 3.294570 0.000000 0.000000 
#    y 0.000000 3.269060 0.000000 
#    z 0.000000 0.000000 3.424370 
# 
# 
# High freq. dielectric constant tensor:
#      x y z
#    x 1.712860 0.000000 0.000000 
#    y 0.000000 1.712570 0.000000 
#    z 0.000000 0.000000 1.716100 
# 
# From -- ./inp_files/22611.got.cif
#   From: 2010.03.12/outbox.cif.g09.slc.cpg/sg69_12_cif.got.tgz:22611.got - 2010.04.10 23:52:46.
