data_PCOD8284989
_publ_section_title
;
Structure prediction by ZEFSAII (Michael W. Deem and Ramdas Pophale) SiO2 
 PCOD8284989
Probable space group: F M M M
;
_chemical_formula_sum "Si O2"
_cell_formula_units_Z 104
_cell_length_a 23.814316
_cell_length_b 8.748035
_cell_length_c 26.854152
_cell_angle_alpha 90.000000
_cell_angle_beta 90.000000
_cell_angle_gamma 90.000000
_cell_volume 5594.484396
_symmetry_space_group_name_H-M "F M M M"
_symmetry_group_IT_number 69
_symmetry_cell_setting 'orthorhombic'
loop_
_space_group_symop_operation_xyz
x,y,z
-x,-y,z
x,-y,-z
-x,y,-z
-x,-y,-z
x,y,-z
-x,y,z
x,-y,z
x,1/2+y,1/2+z
-x,1/2-y,1/2+z
x,1/2-y,1/2-z
-x,1/2+y,1/2-z
-x,1/2-y,1/2-z
x,1/2+y,1/2-z
-x,1/2+y,1/2+z
x,1/2-y,1/2+z
1/2+x,y,1/2+z
1/2-x,-y,1/2+z
1/2+x,-y,1/2-z
1/2-x,y,1/2-z
1/2-x,-y,1/2-z
1/2+x,y,1/2-z
1/2-x,y,1/2+z
1/2+x,-y,1/2+z
1/2+x,1/2+y,z
1/2-x,1/2-y,z
1/2+x,1/2-y,-z
1/2-x,1/2+y,-z
1/2-x,1/2-y,-z
1/2+x,1/2+y,-z
1/2-x,1/2+y,z
1/2+x,1/2-y,z
loop_
_atom_site_type_symbol
_atom_site_label
_atom_site_fract_x
_atom_site_fract_y
_atom_site_fract_z
Si Si1 0.250000 0.750000 0.750000
Si Si2 0.115623 0.180805 0.411951
Si Si3 0.303937 0.669103 0.845655
Si Si4 0.000000 0.680382 0.441734
Si Si5 0.188302 0.317947 0.500000
O O1 0.291829 0.654314 0.786105
O O2 0.141138 0.228803 0.358046
O O3 0.053191 0.244541 0.415507
O O4 0.155168 0.260700 0.452013
O O5 0.115233 0.000000 0.419076
O O6 0.311775 0.500000 0.868024
O O7 0.250000 0.750000 0.871760
O O8 0.000000 0.500000 0.432807
O O9 0.000000 0.720801 0.500000
O O10 0.190449 0.500000 0.500000
O O11 0.250000 0.250000 0.500000
#
# Coordination Sequence:
#
# PCOD8284989 Si02
#       5
#     8  32  32  16  16
#     4   8  22  36  66  88 122 152 198 236 308 354
#     4  12  24  38  59  86 119 157 200 244 291 352
#     4  10  20  36  59  89 121 154 193 240 295 353
#     4  11  23  41  63  84 114 159 206 248 292 342
#     4  12  24  39  56  81 118 158 196 242 296 348
#
# _framework density 18.589739000000002
#
# number of rings (size 3 to 8) (size 9 to 14) (size 15 to 20)
#    0.923    0.154    1.538    6.923    0.000    0.615 
#    0.000    0.000    0.000    0.923    0.000    0.000 
#    0.000    0.000    0.000    0.000    0.000    0.000 
#
# Total GULP energy -322225.727306 kJ/mol
# GULP energy per Si atom -12393.297204 kJ/mol
# Density = 1.854743 g / cm^3
# Si number density = 18.589739 Si / 1000 Ang^3
#
#
#
# Elastic Constant Matrix: (Units=GPa)
#
#
# Indices 1 2 3 4 5 6 
#
# 1 170.1156 70.6611 55.6895 0.0000 0.0000 0.0001
# 2 70.6611 168.6450 34.4495 0.0000 0.0000 0.0000
# 3 55.6895 34.4495 82.4947 0.0000 0.0000 0.0000
# 4 0.0000 0.0000 0.0000 21.9167 0.0000 0.0000
# 5 0.0000 0.0000 0.0000 0.0000 23.0775 0.0000
# 6 0.0001 0.0000 0.0000 0.0000 0.0000 37.0038
#
#
#
# Elastic Compliance Matrix: (Units=1/GPa)
#
#
# Indices 1 2 3 4 5 6 
#
# 1 0.008478 -0.002605 -0.004635 0.000000 0.000000 0.000000
# 2 -0.002605 0.007283 -0.001283 0.000000 0.000000 0.000000
# 3 -0.004635 -0.001283 0.015787 0.000000 0.000000 0.000000
# 4 0.000000 0.000000 0.000000 0.045627 0.000000 0.000000
# 5 0.000000 0.000000 0.000000 0.000000 0.043332 0.000000
# 6 0.000000 0.000000 0.000000 0.000000 0.000000 0.027024
#
#
# Mechanical properties :
#
#
# Convention : Reuss Voigt Hill
#
# Bulk Modulus (GPa) = 68.95859 82.53949 75.74904
# Shear Modulus (GPa) = 29.51384 33.76327 31.63856
#
# Velocity S-wave (km/s) = 3.98884 4.26635 4.12993
# Velocity P-wave (km/s) = 7.64134 8.29252 7.97358
#
# Compressibility (1/GPa) = 0.01450146
#
# Stress axis : x y z
#
# Youngs Moduli (GPa) = 117.95326 137.30123 63.34444
#
# Poissons Ratio (x) = 0.35772 0.29361
# Poissons Ratio (y) = 0.30731 0.08125
# Poissons Ratio (z) = 0.54674 0.17611
#
# Static dielectric constant tensor:
#      x y z
#    x 3.490490 0.000000 0.000000 
#    y 0.000000 3.498110 0.000000 
#    z 0.000000 0.000000 3.390710 
# 
# 
# High freq. dielectric constant tensor:
#      x y z
#    x 1.717240 0.000000 0.000000 
#    y 0.000000 1.741640 0.000000 
#    z 0.000000 0.000000 1.702380 
# 
# From -- ./inp_files/5189.got.cif
#   From: 2010.03.12/outbox.cif.g09.slc.cpg/sg69_3_cif.got.tgz:5189.got - 2010.04.10 23:52:46.
