data_PCOD8284935
_publ_section_title
;
Structure prediction by ZEFSAII (Michael W. Deem and Ramdas Pophale) SiO2 
 PCOD8284935
Probable space group: F M M M
;
_chemical_formula_sum "Si O2"
_cell_formula_units_Z 128
_cell_length_a 18.635890
_cell_length_b 22.878182
_cell_length_c 14.752975
_cell_angle_alpha 90.000000
_cell_angle_beta 90.000000
_cell_angle_gamma 90.000000
_cell_volume 6290.008833
_symmetry_space_group_name_H-M "F M M M"
_symmetry_group_IT_number 69
_symmetry_cell_setting 'orthorhombic'
loop_
_space_group_symop_operation_xyz
x,y,z
-x,-y,z
x,-y,-z
-x,y,-z
-x,-y,-z
x,y,-z
-x,y,z
x,-y,z
x,1/2+y,1/2+z
-x,1/2-y,1/2+z
x,1/2-y,1/2-z
-x,1/2+y,1/2-z
-x,1/2-y,1/2-z
x,1/2+y,1/2-z
-x,1/2+y,1/2+z
x,1/2-y,1/2+z
1/2+x,y,1/2+z
1/2-x,-y,1/2+z
1/2+x,-y,1/2-z
1/2-x,y,1/2-z
1/2-x,-y,1/2-z
1/2+x,y,1/2-z
1/2-x,y,1/2+z
1/2+x,-y,1/2+z
1/2+x,1/2+y,z
1/2-x,1/2-y,z
1/2+x,1/2-y,-z
1/2-x,1/2+y,-z
1/2-x,1/2-y,-z
1/2+x,1/2+y,-z
1/2-x,1/2+y,z
1/2+x,1/2-y,z
loop_
_atom_site_type_symbol
_atom_site_label
_atom_site_fract_x
_atom_site_fract_y
_atom_site_fract_z
Si Si1 0.000000 0.568813 0.739557
Si Si2 0.122505 0.933758 0.100359
Si Si3 0.000000 0.663503 0.891962
Si Si4 0.725343 0.162089 0.348164
Si Si5 0.358162 0.769417 0.898889
O O1 0.068145 0.586511 0.678555
O O2 0.000000 0.603611 0.834293
O O3 0.000000 0.500000 0.762167
O O4 0.192877 0.893765 0.102154
O O5 0.147146 0.000000 0.118120
O O6 0.087021 0.928450 0.000000
O O7 0.069252 0.701068 0.862421
O O8 0.000000 0.648656 0.000000
O O9 0.750000 0.142095 0.250000
O O10 0.666059 0.214182 0.337921
O O11 0.794332 0.183220 0.404117
O O12 0.371685 0.745278 0.000000
#
# Coordination Sequence:
#
# PCOD8284935 Si02
#       5
#    16  32  16  32  32
#     4  10  21  38  59  84 116 152 190 237 290 343
#     4  10  21  38  60  85 114 151 195 240 286 339
#     4  10  22  39  60  87 116 150 194 239 284 341
#     4  11  21  35  56  83 114 148 185 231 289 343
#     4  10  20  36  56  80 114 150 186 230 281 340
#
# _framework density 20.349734000000002
#
# number of rings (size 3 to 8) (size 9 to 14) (size 15 to 20)
#    0.000    1.750    0.000    6.375    0.000    3.250 
#    0.000    7.500    0.000    1.500    0.000    0.000 
#    0.000    0.000    0.000    0.000    0.000    0.000 
#
# Total GULP energy -396770.543795 kJ/mol
# GULP energy per Si atom -12399.079494 kJ/mol
# Density = 2.030342 g / cm^3
# Si number density = 20.349734 Si / 1000 Ang^3
#
#
#
# Elastic Constant Matrix: (Units=GPa)
#
#
# Indices 1 2 3 4 5 6 
#
# 1 126.1426 71.7107 26.4969 0.0000 0.0000 0.0000
# 2 71.7107 100.2389 33.7897 0.0000 0.0000 0.0000
# 3 26.4969 33.7897 89.1448 0.0000 0.0000 0.0000
# 4 0.0000 0.0000 0.0000 20.3216 0.0000 0.0000
# 5 0.0000 0.0000 0.0000 0.0000 32.4607 0.0000
# 6 0.0000 0.0000 0.0000 0.0000 0.0000 32.3724
#
#
#
# Elastic Compliance Matrix: (Units=1/GPa)
#
#
# Indices 1 2 3 4 5 6 
#
# 1 0.013374 -0.009433 -0.000400 0.000000 0.000000 0.000000
# 2 -0.009433 0.018091 -0.004053 0.000000 0.000000 0.000000
# 3 -0.000400 -0.004053 0.012873 0.000000 0.000000 0.000000
# 4 0.000000 0.000000 0.000000 0.049209 0.000000 0.000000
# 5 0.000000 0.000000 0.000000 0.000000 0.030806 0.000000
# 6 0.000000 0.000000 0.000000 0.000000 0.000000 0.030891
#
#
# Mechanical properties :
#
#
# Convention : Reuss Voigt Hill
#
# Bulk Modulus (GPa) = 60.36605 64.39120 62.37863
# Shear Modulus (GPa) = 26.51988 29.26621 27.89305
#
# Velocity S-wave (km/s) = 3.61391 3.79642 3.70629
# Velocity P-wave (km/s) = 6.86604 7.13639 7.00252
#
# Compressibility (1/GPa) = 0.01656560
#
# Stress axis : x y z
#
# Youngs Moduli (GPa) = 74.77136 55.27627 77.68241
#
# Poissons Ratio (x) = 0.52143 0.03105
# Poissons Ratio (y) = 0.70532 0.31488
# Poissons Ratio (z) = 0.02989 0.22406
#
# Static dielectric constant tensor:
#      x y z
#    x 3.715530 0.000000 0.000000 
#    y 0.000000 3.526520 0.000000 
#    z 0.000000 0.000000 3.636310 
# 
# 
# High freq. dielectric constant tensor:
#      x y z
#    x 1.790500 0.000000 0.000000 
#    y 0.000000 1.784580 0.000000 
#    z 0.000000 0.000000 1.802640 
# 
# From -- ./inp_files/16359.got.cif
#   From: 2010.03.12/outbox.cif.g09.slc.cpg/sg69_9_cif.got.tgz:16359.got - 2010.04.10 23:52:46.
