data_PCOD8284919
_publ_section_title
;
Structure prediction by ZEFSAII (Michael W. Deem and Ramdas Pophale) SiO2 
 PCOD8284919
Probable space group: F M M M
;
_chemical_formula_sum "Si O2"
_cell_formula_units_Z 176
_cell_length_a 24.411125
_cell_length_b 14.427090
_cell_length_c 23.518750
_cell_angle_alpha 90.000000
_cell_angle_beta 90.000000
_cell_angle_gamma 90.000000
_cell_volume 8282.868591
_symmetry_space_group_name_H-M "F M M M"
_symmetry_group_IT_number 69
_symmetry_cell_setting 'orthorhombic'
loop_
_space_group_symop_operation_xyz
x,y,z
-x,-y,z
x,-y,-z
-x,y,-z
-x,-y,-z
x,y,-z
-x,y,z
x,-y,z
x,1/2+y,1/2+z
-x,1/2-y,1/2+z
x,1/2-y,1/2-z
-x,1/2+y,1/2-z
-x,1/2-y,1/2-z
x,1/2+y,1/2-z
-x,1/2+y,1/2+z
x,1/2-y,1/2+z
1/2+x,y,1/2+z
1/2-x,-y,1/2+z
1/2+x,-y,1/2-z
1/2-x,y,1/2-z
1/2-x,-y,1/2-z
1/2+x,y,1/2-z
1/2-x,y,1/2+z
1/2+x,-y,1/2+z
1/2+x,1/2+y,z
1/2-x,1/2-y,z
1/2+x,1/2-y,-z
1/2-x,1/2+y,-z
1/2-x,1/2-y,-z
1/2+x,1/2+y,-z
1/2-x,1/2+y,z
1/2+x,1/2-y,z
loop_
_atom_site_type_symbol
_atom_site_label
_atom_site_fract_x
_atom_site_fract_y
_atom_site_fract_z
Si Si1 0.097684 0.391712 0.226730
Si Si2 0.250000 0.750000 0.393435
Si Si3 0.369661 0.229625 0.436080
Si Si4 0.785386 0.104551 0.694149
Si Si5 0.937565 0.390104 0.650926
Si Si6 0.939237 0.893930 0.393935
O O1 0.105596 0.500000 0.238413
O O2 0.156310 0.348489 0.209105
O O3 0.074956 0.349212 0.285774
O O4 0.057501 0.372794 0.173836
O O5 0.304104 0.764079 0.431085
O O6 0.244856 0.840790 0.355116
O O7 0.383566 0.197825 0.500000
O O8 0.396082 0.155697 0.393346
O O9 0.395118 0.330981 0.425498
O O10 0.750000 0.108128 0.750000
O O11 0.793200 0.000000 0.671863
O O12 0.929134 0.500000 0.648450
O O13 0.000000 0.363480 0.635177
O O14 0.000000 0.875321 0.418472
O O15 0.921186 0.000000 0.404380
#
# Coordination Sequence:
#
# PCOD8284919 Si02
#       6
#    32  16  32  32  32  32
#     4   9  17  35  62  95 128 154 192 246 308 380
#     4  12  24  42  64  84 122 167 215 262 312 356
#     4  12  27  44  62  87 121 168 224 268 304 356
#     4  10  20  35  60  93 127 162 198 244 308 381
#     4  10  22  41  66  96 130 166 203 250 310 376
#     4  10  21  40  67  96 125 157 197 254 322 383
#
# _framework density 21.248678000000002
#
# number of rings (size 3 to 8) (size 9 to 14) (size 15 to 20)
#    0.000    1.636    1.818    2.727    0.000    7.273 
#    0.000    3.636    0.000    3.273    0.000    0.000 
#    0.000    0.000    0.000    0.000    0.000    0.000 
#
# Total GULP energy -545607.937444 kJ/mol
# GULP energy per Si atom -12400.180396 kJ/mol
# Density = 2.120031 g / cm^3
# Si number density = 21.248678 Si / 1000 Ang^3
#
#
#
# Elastic Constant Matrix: (Units=GPa)
#
#
# Indices 1 2 3 4 5 6 
#
# 1 142.4995 32.2142 33.7954 0.0000 0.0000 0.0000
# 2 32.2142 53.3399 27.2751 0.0000 0.0000 0.0000
# 3 33.7954 27.2751 108.5118 0.0000 0.0000 0.0000
# 4 0.0000 0.0000 0.0000 19.3684 0.0000 0.0000
# 5 0.0000 0.0000 0.0000 0.0000 17.2142 0.0000
# 6 0.0000 0.0000 0.0000 0.0000 0.0000 38.6267
#
#
#
# Elastic Compliance Matrix: (Units=1/GPa)
#
#
# Indices 1 2 3 4 5 6 
#
# 1 0.008342 -0.004257 -0.001528 0.000000 0.000000 0.000000
# 2 -0.004257 0.023685 -0.004628 0.000000 0.000000 0.000000
# 3 -0.001528 -0.004628 0.010855 0.000000 0.000000 0.000000
# 4 0.000000 0.000000 0.000000 0.051630 0.000000 0.000000
# 5 0.000000 0.000000 0.000000 0.000000 0.058092 0.000000
# 6 0.000000 0.000000 0.000000 0.000000 0.000000 0.025889
#
#
# Mechanical properties :
#
#
# Convention : Reuss Voigt Hill
#
# Bulk Modulus (GPa) = 45.33770 54.54672 49.94221
# Shear Modulus (GPa) = 24.19315 29.11298 26.65307
#
# Velocity S-wave (km/s) = 3.37793 3.70551 3.54551
# Velocity P-wave (km/s) = 6.04954 6.63582 6.34945
#
# Compressibility (1/GPa) = 0.02205670
#
# Stress axis : x y z
#
# Youngs Moduli (GPa) = 119.87074 42.22110 92.12609
#
# Poissons Ratio (x) = 0.17973 0.14079
# Poissons Ratio (y) = 0.51027 0.42632
# Poissons Ratio (z) = 0.18318 0.19538
#
# Static dielectric constant tensor:
#      x y z
#    x 4.000760 0.000000 0.000000 
#    y 0.000000 3.805610 0.000000 
#    z 0.000000 0.000000 3.686530 
# 
# 
# High freq. dielectric constant tensor:
#      x y z
#    x 1.846940 0.000000 0.000000 
#    y 0.000000 1.828080 0.000000 
#    z 0.000000 0.000000 1.816920 
# 
# From -- ./inp_files/37843.got.cif
#   From: 2010.03.12/outbox.cif.g09.slc.cpg/sg69_19_cif.got.tgz:37843.got - 2010.04.10 23:52:46.
