data_PCOD8284607
_publ_section_title
;
Structure prediction by ZEFSAII (Michael W. Deem and Ramdas Pophale) SiO2 
 PCOD8284607
Probable space group: F M M M
;
_chemical_formula_sum "Si O2"
_cell_formula_units_Z 144
_cell_length_a 20.226324
_cell_length_b 19.970490
_cell_length_c 19.248318
_cell_angle_alpha 90.000000
_cell_angle_beta 90.000000
_cell_angle_gamma 90.000000
_cell_volume 7774.965413
_symmetry_space_group_name_H-M "F M M M"
_symmetry_group_IT_number 69
_symmetry_cell_setting 'orthorhombic'
loop_
_space_group_symop_operation_xyz
x,y,z
-x,-y,z
x,-y,-z
-x,y,-z
-x,-y,-z
x,y,-z
-x,y,z
x,-y,z
x,1/2+y,1/2+z
-x,1/2-y,1/2+z
x,1/2-y,1/2-z
-x,1/2+y,1/2-z
-x,1/2-y,1/2-z
x,1/2+y,1/2-z
-x,1/2+y,1/2+z
x,1/2-y,1/2+z
1/2+x,y,1/2+z
1/2-x,-y,1/2+z
1/2+x,-y,1/2-z
1/2-x,y,1/2-z
1/2-x,-y,1/2-z
1/2+x,y,1/2-z
1/2-x,y,1/2+z
1/2+x,-y,1/2+z
1/2+x,1/2+y,z
1/2-x,1/2-y,z
1/2+x,1/2-y,-z
1/2-x,1/2+y,-z
1/2-x,1/2-y,-z
1/2+x,1/2+y,-z
1/2-x,1/2+y,z
1/2+x,1/2-y,z
loop_
_atom_site_type_symbol
_atom_site_label
_atom_site_fract_x
_atom_site_fract_y
_atom_site_fract_z
Si Si1 0.750000 0.250000 0.643053
Si Si2 0.924968 0.670011 0.171221
Si Si3 0.876343 0.814155 0.177618
Si Si4 0.173808 0.424522 0.419159
Si Si5 0.813398 0.128482 0.420817
O O1 0.800470 0.291174 0.691882
O O2 0.790914 0.204577 0.589874
O O3 0.916997 0.748912 0.151442
O O4 0.906984 0.658252 0.251643
O O5 0.878647 0.619454 0.126822
O O6 0.000000 0.648377 0.157285
O O7 0.874996 0.873864 0.121298
O O8 0.166414 0.406840 0.500000
O O9 0.150913 0.500000 0.402627
O O10 0.251509 0.418225 0.398128
O O11 0.833978 0.114682 0.500000
#
# Coordination Sequence:
#
# PCOD8284607 Si02
#       5
#    16  32  32  32  32
#     4   8  15  25  44  72  95 119 154 202 263 311
#     4  10  20  32  48  70  98 135 173 206 245 290
#     4   9  17  30  49  72 101 130 161 207 255 300
#     4   9  18  33  54  79 104 129 158 199 255 310
#     4   9  17  29  46  69  97 125 158 203 249 293
#
# _framework density 18.520982
#
# number of rings (size 3 to 8) (size 9 to 14) (size 15 to 20)
#    0.000    2.889    0.000    1.667    0.000   19.111 
#    0.000    2.222    0.000    6.667    0.000    9.333 
#    0.000    0.000    0.000    0.000    0.000    0.000 
#
# Total GULP energy -446053.509493 kJ/mol
# GULP energy per Si atom -12390.375264 kJ/mol
# Density = 1.847883 g / cm^3
# Si number density = 18.520982 Si / 1000 Ang^3
#
#
#
# Elastic Constant Matrix: (Units=GPa)
#
#
# Indices 1 2 3 4 5 6 
#
# 1 68.4177 15.6093 26.6561 0.0000 0.0000 0.0000
# 2 15.6093 68.0409 33.5352 0.0000 0.0000 0.0000
# 3 26.6561 33.5352 64.3693 0.0000 0.0000 0.0000
# 4 0.0000 0.0000 0.0000 24.3934 0.0000 0.0000
# 5 0.0000 0.0000 0.0000 0.0000 7.2547 0.0000
# 6 0.0000 0.0000 0.0000 0.0000 0.0000 16.9022
#
#
#
# Elastic Compliance Matrix: (Units=1/GPa)
#
#
# Indices 1 2 3 4 5 6 
#
# 1 0.017446 -0.000594 -0.006915 0.000000 0.000000 0.000000
# 2 -0.000594 0.019795 -0.010067 0.000000 0.000000 0.000000
# 3 -0.006915 -0.010067 0.023644 0.000000 0.000000 0.000000
# 4 0.000000 0.000000 0.000000 0.040995 0.000000 0.000000
# 5 0.000000 0.000000 0.000000 0.000000 0.137842 0.000000
# 6 0.000000 0.000000 0.000000 0.000000 0.000000 0.059164
#
#
# Mechanical properties :
#
#
# Convention : Reuss Voigt Hill
#
# Bulk Modulus (GPa) = 38.86130 39.15881 39.01006
# Shear Modulus (GPa) = 14.59367 18.04521 16.31944
#
# Velocity S-wave (km/s) = 2.81010 3.12478 2.97161
# Velocity P-wave (km/s) = 5.61754 5.84875 5.73431
#
# Compressibility (1/GPa) = 0.02573254
#
# Stress axis : x y z
#
# Youngs Moduli (GPa) = 57.32047 50.51795 42.29485
#
# Poissons Ratio (x) = 0.03001 0.29247
# Poissons Ratio (y) = 0.03405 0.42577
# Poissons Ratio (z) = 0.39637 0.50855
#
# Static dielectric constant tensor:
#      x y z
#    x 3.368230 0.000000 0.000000 
#    y 0.000000 3.215220 0.000000 
#    z 0.000000 0.000000 3.290670 
# 
# 
# High freq. dielectric constant tensor:
#      x y z
#    x 1.703800 0.000000 0.000000 
#    y 0.000000 1.685710 0.000000 
#    z 0.000000 0.000000 1.709360 
# 
# From -- ./inp_files/24440.got.cif
#   From: 2010.03.12/outbox.cif.g09.slc.cpg/sg69_13_cif.got.tgz:24440.got - 2010.04.10 23:52:46.
