data_PCOD8284078
_publ_section_title
;
Structure prediction by ZEFSAII (Michael W. Deem and Ramdas Pophale) SiO2 
 PCOD8284078
Probable space group: F M M M
;
_chemical_formula_sum "Si O2"
_cell_formula_units_Z 176
_cell_length_a 28.293562
_cell_length_b 18.301485
_cell_length_c 16.862762
_cell_angle_alpha 90.000000
_cell_angle_beta 90.000000
_cell_angle_gamma 90.000000
_cell_volume 8731.777624
_symmetry_space_group_name_H-M "F M M M"
_symmetry_group_IT_number 69
_symmetry_cell_setting 'orthorhombic'
loop_
_space_group_symop_operation_xyz
x,y,z
-x,-y,z
x,-y,-z
-x,y,-z
-x,-y,-z
x,y,-z
-x,y,z
x,-y,z
x,1/2+y,1/2+z
-x,1/2-y,1/2+z
x,1/2-y,1/2-z
-x,1/2+y,1/2-z
-x,1/2-y,1/2-z
x,1/2+y,1/2-z
-x,1/2+y,1/2+z
x,1/2-y,1/2+z
1/2+x,y,1/2+z
1/2-x,-y,1/2+z
1/2+x,-y,1/2-z
1/2-x,y,1/2-z
1/2-x,-y,1/2-z
1/2+x,y,1/2-z
1/2-x,y,1/2+z
1/2+x,-y,1/2+z
1/2+x,1/2+y,z
1/2-x,1/2-y,z
1/2+x,1/2-y,-z
1/2-x,1/2+y,-z
1/2-x,1/2-y,-z
1/2+x,1/2+y,-z
1/2-x,1/2+y,z
1/2+x,1/2-y,z
loop_
_atom_site_type_symbol
_atom_site_label
_atom_site_fract_x
_atom_site_fract_y
_atom_site_fract_z
Si Si1 0.140765 0.187960 0.092389
Si Si2 0.446807 0.586826 0.500000
Si Si3 0.279573 0.917848 0.406214
Si Si4 0.446925 0.675680 0.203228
Si Si5 0.817586 0.845690 0.592727
Si Si6 0.097043 0.414910 0.840011
O O1 0.172666 0.120946 0.125307
O O2 0.089193 0.185127 0.131043
O O3 0.170094 0.261627 0.110797
O O4 0.131527 0.179867 0.000000
O O5 0.440501 0.500000 0.500000
O O6 0.500000 0.612647 0.500000
O O7 0.424547 0.620971 0.420385
O O8 0.282214 0.923715 0.500000
O O9 0.235868 0.865404 0.383244
O O10 0.275158 0.000000 0.370034
O O11 0.500000 0.655196 0.172944
O O12 0.448960 0.750000 0.250000
O O13 0.428172 0.613727 0.261885
O O14 0.827015 0.865467 0.500000
O O15 0.847858 0.895373 0.653272
O O16 0.088311 0.500000 0.839113
#
# Coordination Sequence:
#
# PCOD8284078 Si02
#       6
#    32  16  32  32  32  32
#     4  10  21  39  63  89 118 159 206 248 294 354
#     4   9  18  32  52  84 121 152 189 239 295 358
#     4   9  18  33  58  91 124 157 197 246 295 347
#     4  11  24  42  60  82 118 160 201 249 304 355
#     4  10  18  33  59  92 124 157 194 239 298 364
#     4  11  21  35  58  88 120 157 198 244 301 362
#
# _framework density 20.156262000000002
#
# number of rings (size 3 to 8) (size 9 to 14) (size 15 to 20)
#    0.000    1.909    2.727    1.636    0.000    5.091 
#    0.000    0.909    0.000    2.182    0.000    3.818 
#    0.000    0.000    0.000    0.000    0.000    0.000 
#
# Total GULP energy -545438.342210 kJ/mol
# GULP energy per Si atom -12396.325959 kJ/mol
# Density = 2.011039 g / cm^3
# Si number density = 20.156262 Si / 1000 Ang^3
#
#
#
# Elastic Constant Matrix: (Units=GPa)
#
#
# Indices 1 2 3 4 5 6 
#
# 1 163.7510 48.5280 44.8179 0.0000 0.0000 0.0000
# 2 48.5280 92.4477 33.1822 0.0000 0.0000 0.0000
# 3 44.8179 33.1822 52.2708 0.0000 0.0000 0.0000
# 4 0.0000 0.0000 0.0000 25.5472 0.0000 0.0000
# 5 0.0000 0.0000 0.0000 0.0000 51.9970 0.0000
# 6 0.0000 0.0000 0.0000 0.0000 0.0000 27.2960
#
#
#
# Elastic Compliance Matrix: (Units=1/GPa)
#
#
# Indices 1 2 3 4 5 6 
#
# 1 0.008356 -0.002350 -0.005673 0.000000 0.000000 0.000000
# 2 -0.002350 0.014670 -0.007298 0.000000 0.000000 0.000000
# 3 -0.005673 -0.007298 0.028627 0.000000 0.000000 0.000000
# 4 0.000000 0.000000 0.000000 0.039143 0.000000 0.000000
# 5 0.000000 0.000000 0.000000 0.000000 0.019232 0.000000
# 6 0.000000 0.000000 0.000000 0.000000 0.000000 0.036635
#
#
# Mechanical properties :
#
#
# Convention : Reuss Voigt Hill
#
# Bulk Modulus (GPa) = 47.59034 62.39174 54.99104
# Shear Modulus (GPa) = 27.12844 33.09747 30.11295
#
# Velocity S-wave (km/s) = 3.67264 4.05661 3.86939
# Velocity P-wave (km/s) = 6.45340 7.27755 6.87783
#
# Compressibility (1/GPa) = 0.02101267
#
# Stress axis : x y z
#
# Youngs Moduli (GPa) = 119.67659 68.16689 34.93151
#
# Poissons Ratio (x) = 0.16020 0.19815
# Poissons Ratio (y) = 0.28126 0.25491
# Poissons Ratio (z) = 0.67887 0.49745
#
# Static dielectric constant tensor:
#      x y z
#    x 3.916000 0.000000 0.000000 
#    y 0.000000 3.744520 0.000000 
#    z 0.000000 0.000000 3.664850 
# 
# 
# High freq. dielectric constant tensor:
#      x y z
#    x 1.797620 0.000000 0.000000 
#    y 0.000000 1.783180 0.000000 
#    z 0.000000 0.000000 1.756530 
# 
# From -- ./inp_files/23524.got.cif
#   From: 2010.03.12/outbox.cif.g09.slc.cpg/sg69_12_cif.got.tgz:23524.got - 2010.04.10 23:52:46.
