data_PCOD8284876
_publ_section_title
;
Structure prediction by ZEFSAII (Michael W. Deem and Ramdas Pophale) SiO2 
 PCOD8284876
Probable space group: F M M M
;
_chemical_formula_sum "Si O2"
_cell_formula_units_Z 192
_cell_length_a 19.878304
_cell_length_b 26.006335
_cell_length_c 19.599697
_cell_angle_alpha 90.000000
_cell_angle_beta 90.000000
_cell_angle_gamma 90.000000
_cell_volume 10132.295288
_symmetry_space_group_name_H-M "F M M M"
_symmetry_group_IT_number 69
_symmetry_cell_setting 'orthorhombic'
loop_
_space_group_symop_operation_xyz
x,y,z
-x,-y,z
x,-y,-z
-x,y,-z
-x,-y,-z
x,y,-z
-x,y,z
x,-y,z
x,1/2+y,1/2+z
-x,1/2-y,1/2+z
x,1/2-y,1/2-z
-x,1/2+y,1/2-z
-x,1/2-y,1/2-z
x,1/2+y,1/2-z
-x,1/2+y,1/2+z
x,1/2-y,1/2+z
1/2+x,y,1/2+z
1/2-x,-y,1/2+z
1/2+x,-y,1/2-z
1/2-x,y,1/2-z
1/2-x,-y,1/2-z
1/2+x,y,1/2-z
1/2-x,y,1/2+z
1/2+x,-y,1/2+z
1/2+x,1/2+y,z
1/2-x,1/2-y,z
1/2+x,1/2-y,-z
1/2-x,1/2+y,-z
1/2-x,1/2-y,-z
1/2+x,1/2+y,-z
1/2-x,1/2+y,z
1/2+x,1/2-y,z
loop_
_atom_site_type_symbol
_atom_site_label
_atom_site_fract_x
_atom_site_fract_y
_atom_site_fract_z
Si Si1 0.423734 0.385689 0.193650
Si Si2 0.679418 0.441265 0.714804
Si Si3 0.421832 0.768826 0.324684
Si Si4 0.315111 0.280362 0.421047
Si Si5 0.139036 0.441385 0.575881
Si Si6 0.783438 0.601404 0.076664
O O1 0.500000 0.387044 0.220578
O O2 0.377153 0.403984 0.255404
O O3 0.403736 0.328782 0.169648
O O4 0.417187 0.423354 0.128858
O O5 0.660615 0.500000 0.731306
O O6 0.750000 0.426409 0.750000
O O7 0.680675 0.433831 0.633149
O O8 0.500000 0.758141 0.339698
O O9 0.401172 0.750000 0.250000
O O10 0.380536 0.736925 0.380056
O O11 0.328218 0.267474 0.500000
O O12 0.250000 0.250000 0.393869
O O13 0.302521 0.340191 0.408797
O O14 0.108545 0.436694 0.500000
O O15 0.160854 0.500000 0.591712
O O16 0.203509 0.404987 0.584326
O O17 0.805823 0.584479 0.000000
#
# Coordination Sequence:
#
# PCOD8284876 Si02
#       6
#    32  32  32  32  32  32
#     4  11  23  38  58  84 117 154 190 235 288 342
#     4  11  22  36  57  85 113 148 196 241 283 340
#     4  10  22  40  59  82 113 149 190 234 285 346
#     4  10  21  36  56  85 116 147 189 238 282 332
#     4  10  20  35  56  83 117 154 189 228 281 346
#     4  10  20  36  58  83 113 148 190 240 289 335
#
# _framework density 18.949310000000001
#
# number of rings (size 3 to 8) (size 9 to 14) (size 15 to 20)
#    0.000    1.667    1.667    3.000    0.000    5.333 
#    0.000    2.500    0.000    1.500    0.000    1.167 
#    0.000    0.000    0.000    0.000    0.000    0.000 
#
# Total GULP energy -595352.902580 kJ/mol
# GULP energy per Si atom -12403.185470 kJ/mol
# Density = 1.890618 g / cm^3
# Si number density = 18.949310 Si / 1000 Ang^3
#
#
#
# Elastic Constant Matrix: (Units=GPa)
#
#
# Indices 1 2 3 4 5 6 
#
# 1 82.0753 46.1343 38.9318 0.0000 0.0000 0.0000
# 2 46.1343 86.9988 38.2221 0.0000 0.0000 0.0000
# 3 38.9318 38.2221 108.9683 0.0000 0.0000 0.0000
# 4 0.0000 0.0000 0.0000 31.8043 0.0000 0.0000
# 5 0.0000 0.0000 0.0000 0.0000 31.3864 0.0000
# 6 0.0000 0.0000 0.0000 0.0000 0.0000 28.3882
#
#
#
# Elastic Compliance Matrix: (Units=1/GPa)
#
#
# Indices 1 2 3 4 5 6 
#
# 1 0.018576 -0.008198 -0.003761 0.000000 0.000000 0.000000
# 2 -0.008198 0.017207 -0.003106 0.000000 0.000000 0.000000
# 3 -0.003761 -0.003106 0.011610 0.000000 0.000000 0.000000
# 4 0.000000 0.000000 0.000000 0.031442 0.000000 0.000000
# 5 0.000000 0.000000 0.000000 0.000000 0.031861 0.000000
# 6 0.000000 0.000000 0.000000 0.000000 0.000000 0.035226
#
#
# Mechanical properties :
#
#
# Convention : Reuss Voigt Hill
#
# Bulk Modulus (GPa) = 57.93247 58.29100 58.11174
# Shear Modulus (GPa) = 27.50152 28.63271 28.06711
#
# Velocity S-wave (km/s) = 3.81375 3.89140 3.85277
# Velocity P-wave (km/s) = 7.07331 7.14275 7.10812
#
# Compressibility (1/GPa) = 0.01726148
#
# Stress axis : x y z
#
# Youngs Moduli (GPa) = 53.83215 58.11718 86.12978
#
# Poissons Ratio (x) = 0.47646 0.32395
# Poissons Ratio (y) = 0.44133 0.26755
# Poissons Ratio (z) = 0.20247 0.18054
#
# Static dielectric constant tensor:
#      x y z
#    x 3.212190 0.000000 0.000000 
#    y 0.000000 3.545950 0.000000 
#    z 0.000000 0.000000 3.615370 
# 
# 
# High freq. dielectric constant tensor:
#      x y z
#    x 1.715110 0.000000 0.000000 
#    y 0.000000 1.748840 0.000000 
#    z 0.000000 0.000000 1.745360 
# 
# From -- ./inp_files/32019.got.cif
#   From: 2010.03.12/outbox.cif.g09.slc.cpg/sg69_17_cif.got.tgz:32019.got - 2010.04.10 23:52:46.
