data_PCOD8284489
_publ_section_title
;
Structure prediction by ZEFSAII (Michael W. Deem and Ramdas Pophale) SiO2 
 PCOD8284489
Probable space group: F M M M
;
_chemical_formula_sum "Si O2"
_cell_formula_units_Z 224
_cell_length_a 30.606583
_cell_length_b 20.615075
_cell_length_c 17.198055
_cell_angle_alpha 90.000000
_cell_angle_beta 90.000000
_cell_angle_gamma 90.000000
_cell_volume 10851.233258
_symmetry_space_group_name_H-M "F M M M"
_symmetry_group_IT_number 69
_symmetry_cell_setting 'orthorhombic'
loop_
_space_group_symop_operation_xyz
x,y,z
-x,-y,z
x,-y,-z
-x,y,-z
-x,-y,-z
x,y,-z
-x,y,z
x,-y,z
x,1/2+y,1/2+z
-x,1/2-y,1/2+z
x,1/2-y,1/2-z
-x,1/2+y,1/2-z
-x,1/2-y,1/2-z
x,1/2+y,1/2-z
-x,1/2+y,1/2+z
x,1/2-y,1/2+z
1/2+x,y,1/2+z
1/2-x,-y,1/2+z
1/2+x,-y,1/2-z
1/2-x,y,1/2-z
1/2-x,-y,1/2-z
1/2+x,y,1/2-z
1/2-x,y,1/2+z
1/2+x,-y,1/2+z
1/2+x,1/2+y,z
1/2-x,1/2-y,z
1/2+x,1/2-y,-z
1/2-x,1/2+y,-z
1/2-x,1/2-y,-z
1/2+x,1/2+y,-z
1/2-x,1/2+y,z
1/2+x,1/2-y,z
loop_
_atom_site_type_symbol
_atom_site_label
_atom_site_fract_x
_atom_site_fract_y
_atom_site_fract_z
Si Si1 0.406235 0.098297 0.913060
Si Si2 0.124062 0.572088 0.751147
Si Si3 0.858781 0.775600 0.586125
Si Si4 0.783105 0.071020 0.818794
Si Si5 0.917528 0.696437 0.685725
Si Si6 0.500000 0.371477 0.409467
Si Si7 0.266622 0.319074 0.591055
Si Si8 0.500000 0.273418 0.907097
O O1 0.375698 0.067885 0.846105
O O2 0.399910 0.175989 0.917293
O O3 0.456805 0.087146 0.887895
O O4 0.396204 0.068946 0.000000
O O5 0.111661 0.500000 0.720293
O O6 0.170915 0.593209 0.717760
O O7 0.089126 0.625810 0.724178
O O8 0.847751 0.747628 0.500000
O O9 0.872278 0.716595 0.641987
O O10 0.817661 0.818737 0.616894
O O11 0.750000 0.062740 0.750000
O O12 0.763711 0.124492 0.876018
O O13 0.787677 0.000000 0.860273
O O14 0.928776 0.750000 0.750000
O O15 0.957078 0.690022 0.625046
O O16 0.500000 0.357739 0.500000
O O17 0.500000 0.299722 0.372170
O O18 0.262281 0.327162 0.500000
O O19 0.250000 0.250000 0.621300
O O20 0.500000 0.278674 0.000000
#
# Coordination Sequence:
#
# PCOD8284489 Si02
#       8
#    32  32  32  32  32  16  32  16
#     4  10  19  35  59  89 122 156 195 241 304 374
#     4  11  24  41  58  86 127 166 206 253 305 360
#     4  10  19  34  59  90 124 152 191 249 308 363
#     4  10  22  40  61  85 120 163 204 245 294 362
#     4  12  22  36  62  93 124 161 209 252 306 371
#     4   9  16  31  57  90 120 150 190 246 303 362
#     4  10  21  37  58  88 120 152 197 253 306 358
#     4  11  21  37  61  90 124 161 206 262 311 347
#
# _framework density 20.642816
#
# number of rings (size 3 to 8) (size 9 to 14) (size 15 to 20)
#    0.000    1.571    2.857    2.357    0.000    1.429 
#    0.000    2.143    0.000   10.286    0.000    0.000 
#    0.000    0.000    0.000    0.000    0.000    0.000 
#
# Total GULP energy -693947.662747 kJ/mol
# GULP energy per Si atom -12391.922549 kJ/mol
# Density = 2.059583 g / cm^3
# Si number density = 20.642816 Si / 1000 Ang^3
#
#
#
# Elastic Constant Matrix: (Units=GPa)
#
#
# Indices 1 2 3 4 5 6 
#
# 1 111.6279 40.5981 49.6757 0.0000 0.0000 0.0000
# 2 40.5981 114.1876 46.2154 0.0000 0.0000 0.0000
# 3 49.6757 46.2154 94.3846 0.0000 0.0000 0.0000
# 4 0.0000 0.0000 0.0000 10.9618 0.0000 0.0000
# 5 0.0000 0.0000 0.0000 0.0000 37.5431 0.0000
# 6 0.0000 0.0000 0.0000 0.0000 0.0000 5.8729
#
#
#
# Elastic Compliance Matrix: (Units=1/GPa)
#
#
# Indices 1 2 3 4 5 6 
#
# 1 0.012108 -0.002152 -0.005319 0.000000 0.000000 0.000000
# 2 -0.002152 0.011305 -0.004403 0.000000 0.000000 0.000000
# 3 -0.005319 -0.004403 0.015550 0.000000 0.000000 0.000000
# 4 0.000000 0.000000 0.000000 0.091226 0.000000 0.000000
# 5 0.000000 0.000000 0.000000 0.000000 0.026636 0.000000
# 6 0.000000 0.000000 0.000000 0.000000 0.000000 0.170274
#
#
# Mechanical properties :
#
#
# Convention : Reuss Voigt Hill
#
# Bulk Modulus (GPa) = 65.72234 65.90874 65.81554
# Shear Modulus (GPa) = 14.04820 23.12296 18.58558
#
# Velocity S-wave (km/s) = 2.61154 3.35049 3.00382
# Velocity P-wave (km/s) = 6.40316 6.85311 6.63196
#
# Compressibility (1/GPa) = 0.01521553
#
# Stress axis : x y z
#
# Youngs Moduli (GPa) = 82.59019 88.45993 64.30878
#
# Poissons Ratio (x) = 0.19038 0.34204
# Poissons Ratio (y) = 0.17775 0.28312
# Poissons Ratio (z) = 0.43928 0.38945
#
# Static dielectric constant tensor:
#      x y z
#    x 4.196680 0.000000 0.000000 
#    y 0.000000 3.823810 0.000000 
#    z 0.000000 0.000000 3.668030 
# 
# 
# High freq. dielectric constant tensor:
#      x y z
#    x 1.815830 0.000000 0.000000 
#    y 0.000000 1.787280 0.000000 
#    z 0.000000 0.000000 1.795750 
# 
# From -- ./inp_files/27961.got.cif
#   From: 2010.03.12/outbox.cif.g09.slc.cpg/sg69_14_cif.got.tgz:27961.got - 2010.04.10 23:52:46.
