data_PCOD8284926
_publ_section_title
;
Structure prediction by ZEFSAII (Michael W. Deem and Ramdas Pophale) SiO2 
 PCOD8284926
Probable space group: F M M M
;
_chemical_formula_sum "Si O2"
_cell_formula_units_Z 192
_cell_length_a 19.203411
_cell_length_b 32.207412
_cell_length_c 15.700236
_cell_angle_alpha 90.000000
_cell_angle_beta 90.000000
_cell_angle_gamma 90.000000
_cell_volume 9710.473031
_symmetry_space_group_name_H-M "F M M M"
_symmetry_group_IT_number 69
_symmetry_cell_setting 'orthorhombic'
loop_
_space_group_symop_operation_xyz
x,y,z
-x,-y,z
x,-y,-z
-x,y,-z
-x,-y,-z
x,y,-z
-x,y,z
x,-y,z
x,1/2+y,1/2+z
-x,1/2-y,1/2+z
x,1/2-y,1/2-z
-x,1/2+y,1/2-z
-x,1/2-y,1/2-z
x,1/2+y,1/2-z
-x,1/2+y,1/2+z
x,1/2-y,1/2+z
1/2+x,y,1/2+z
1/2-x,-y,1/2+z
1/2+x,-y,1/2-z
1/2-x,y,1/2-z
1/2-x,-y,1/2-z
1/2+x,y,1/2-z
1/2-x,y,1/2+z
1/2+x,-y,1/2+z
1/2+x,1/2+y,z
1/2-x,1/2-y,z
1/2+x,1/2-y,-z
1/2-x,1/2+y,-z
1/2-x,1/2-y,-z
1/2+x,1/2+y,-z
1/2-x,1/2+y,z
1/2+x,1/2-y,z
loop_
_atom_site_type_symbol
_atom_site_label
_atom_site_fract_x
_atom_site_fract_y
_atom_site_fract_z
Si Si1 0.321081 0.047821 0.000000
Si Si2 0.175369 0.646176 0.399459
Si Si3 0.289236 0.589158 0.668378
Si Si4 0.421701 0.312256 0.367392
Si Si5 0.080496 0.877847 0.759718
Si Si6 0.324798 0.239831 0.349415
Si Si7 0.919175 0.377950 0.000000
O O1 0.279770 0.058417 0.912594
O O2 0.388844 0.076275 0.000000
O O3 0.342454 0.000000 0.000000
O O4 0.174666 0.637821 0.500000
O O5 0.249263 0.632327 0.357590
O O6 0.112616 0.619970 0.354895
O O7 0.158439 0.693388 0.376388
O O8 0.250000 0.569366 0.750000
O O9 0.370186 0.595747 0.695179
O O10 0.500000 0.302021 0.395425
O O11 0.417801 0.328992 0.269967
O O12 0.380300 0.270926 0.390674
O O13 0.392608 0.351733 0.419503
O O14 0.000000 0.894350 0.757264
O O15 0.325859 0.250000 0.250000
O O16 0.250000 0.250000 0.388961
O O17 0.000000 0.385018 0.000000
#
# Coordination Sequence:
#
# PCOD8284926 Si02
#       7
#    16  32  32  32  32  32  16
#     4  12  24  39  67  99 125 150 197 264 321 381
#     4  11  23  38  59  86 122 169 209 270 313 359
#     4  10  22  41  65  88 128 169 207 247 316 395
#     4  10  20  36  55  76 112 165 206 241 295 366
#     4  10  20  37  62  85 115 167 214 254 306 364
#     4  11  23  34  52  80 113 152 212 262 306 347
#     4  10  22  39  58  84 121 156 193 238 304 386
#
# _framework density 19.772466999999999
#
# number of rings (size 3 to 8) (size 9 to 14) (size 15 to 20)
#    0.000    1.500    4.167    1.000    5.833    2.167 
#    0.000    0.000    0.000    0.000    0.000    0.000 
#    0.000    3.333    0.000    0.000    0.000    0.000 
#
# Total GULP energy -594665.152363 kJ/mol
# GULP energy per Si atom -12388.857341 kJ/mol
# Density = 1.972746 g / cm^3
# Si number density = 19.772467 Si / 1000 Ang^3
#
#
#
# Elastic Constant Matrix: (Units=GPa)
#
#
# Indices 1 2 3 4 5 6 
#
# 1 122.1436 37.4299 49.8425 0.0000 0.0000 0.0000
# 2 37.4299 104.3174 35.4040 0.0000 0.0000 0.0000
# 3 49.8425 35.4040 141.8169 0.0000 0.0000 0.0000
# 4 0.0000 0.0000 0.0000 13.0755 0.0000 0.0000
# 5 0.0000 0.0000 0.0000 0.0000 23.3604 0.0000
# 6 0.0000 0.0000 0.0000 0.0000 0.0000 15.5865
#
#
#
# Elastic Compliance Matrix: (Units=1/GPa)
#
#
# Indices 1 2 3 4 5 6 
#
# 1 0.010195 -0.002668 -0.002917 0.000000 0.000000 0.000000
# 2 -0.002668 0.011172 -0.001851 0.000000 0.000000 0.000000
# 3 -0.002917 -0.001851 0.008539 0.000000 0.000000 0.000000
# 4 0.000000 0.000000 0.000000 0.076479 0.000000 0.000000
# 5 0.000000 0.000000 0.000000 0.000000 0.042807 0.000000
# 6 0.000000 0.000000 0.000000 0.000000 0.000000 0.064158
#
#
# Mechanical properties :
#
#
# Convention : Reuss Voigt Hill
#
# Bulk Modulus (GPa) = 66.52139 68.18120 67.35130
# Shear Modulus (GPa) = 21.43773 26.77791 24.10782
#
# Velocity S-wave (km/s) = 3.29632 3.68408 3.49558
# Velocity P-wave (km/s) = 6.94292 7.25633 7.10136
#
# Compressibility (1/GPa) = 0.01503276
#
# Stress axis : x y z
#
# Youngs Moduli (GPa) = 98.08698 89.51153 117.11351
#
# Poissons Ratio (x) = 0.23882 0.34163
# Poissons Ratio (y) = 0.26170 0.21681
# Poissons Ratio (z) = 0.28612 0.16571
#
# Static dielectric constant tensor:
#      x y z
#    x 3.646900 0.000000 0.000000 
#    y 0.000000 3.085680 0.000000 
#    z 0.000000 0.000000 3.859790 
# 
# 
# High freq. dielectric constant tensor:
#      x y z
#    x 1.771950 0.000000 0.000000 
#    y 0.000000 1.717020 0.000000 
#    z 0.000000 0.000000 1.784660 
# 
# From -- ./inp_files/23728.got.cif
#   From: 2010.03.12/outbox.cif.g09.slc.cpg/sg69_12_cif.got.tgz:23728.got - 2010.04.10 23:52:46.
