data_PCOD8284760
_publ_section_title
;
Structure prediction by ZEFSAII (Michael W. Deem and Ramdas Pophale) SiO2 
 PCOD8284760
Probable space group: F M M M
;
_chemical_formula_sum "Si O2"
_cell_formula_units_Z 240
_cell_length_a 25.334416
_cell_length_b 27.494739
_cell_length_c 19.432086
_cell_angle_alpha 90.000000
_cell_angle_beta 90.000000
_cell_angle_gamma 90.000000
_cell_volume 13535.675145
_symmetry_space_group_name_H-M "F M M M"
_symmetry_group_IT_number 69
_symmetry_cell_setting 'orthorhombic'
loop_
_space_group_symop_operation_xyz
x,y,z
-x,-y,z
x,-y,-z
-x,y,-z
-x,-y,-z
x,y,-z
-x,y,z
x,-y,z
x,1/2+y,1/2+z
-x,1/2-y,1/2+z
x,1/2-y,1/2-z
-x,1/2+y,1/2-z
-x,1/2-y,1/2-z
x,1/2+y,1/2-z
-x,1/2+y,1/2+z
x,1/2-y,1/2+z
1/2+x,y,1/2+z
1/2-x,-y,1/2+z
1/2+x,-y,1/2-z
1/2-x,y,1/2-z
1/2-x,-y,1/2-z
1/2+x,y,1/2-z
1/2-x,y,1/2+z
1/2+x,-y,1/2+z
1/2+x,1/2+y,z
1/2-x,1/2-y,z
1/2+x,1/2-y,-z
1/2-x,1/2+y,-z
1/2-x,1/2-y,-z
1/2+x,1/2+y,-z
1/2-x,1/2+y,z
1/2+x,1/2-y,z
loop_
_atom_site_type_symbol
_atom_site_label
_atom_site_fract_x
_atom_site_fract_y
_atom_site_fract_z
Si Si1 0.059504 0.650804 0.191299
Si Si2 0.689831 0.738491 0.827706
Si Si3 0.398361 0.278602 0.418673
Si Si4 0.188921 0.944673 0.251436
Si Si5 0.939743 0.826338 0.076755
Si Si6 0.601385 0.555187 0.644774
Si Si7 0.366339 0.643528 0.186757
Si Si8 0.559492 0.443449 0.500000
O O1 0.072991 0.676287 0.118553
O O2 0.063540 0.592171 0.185436
O O3 0.101392 0.667057 0.249125
O O4 0.000000 0.664291 0.213822
O O5 0.673096 0.750000 0.750000
O O6 0.750000 0.750000 0.842566
O O7 0.658485 0.770593 0.883530
O O8 0.679170 0.680969 0.836853
O O9 0.392840 0.290241 0.500000
O O10 0.432637 0.230409 0.404138
O O11 0.250000 0.929145 0.250000
O O12 0.162103 0.939411 0.327597
O O13 0.158582 0.909056 0.199858
O O14 0.182885 0.000000 0.224638
O O15 0.907138 0.862771 0.124558
O O16 0.000000 0.840812 0.085153
O O17 0.919018 0.835031 0.000000
O O18 0.581308 0.500000 0.657313
O O19 0.595977 0.570545 0.565053
O O20 0.548712 0.500000 0.500000
O O21 0.500000 0.418926 0.500000
#
# Coordination Sequence:
#
# PCOD8284760 Si02
#       8
#    32  32  32  32  32  32  32  16
#     4  11  21  31  48  74 102 135 171 207 254 300
#     4  10  20  34  54  75  98 132 171 211 260 302
#     4  10  21  35  48  72 106 136 169 210 256 308
#     4   9  19  35  56  77 100 133 171 214 263 306
#     4   9  18  34  55  76 102 137 170 205 258 316
#     4   9  19  33  48  69  97 131 173 212 247 301
#     4  10  20  34  55  77 104 130 173 218 252 305
#     4   9  16  28  46  66  94 132 165 198 243 293
#
# _framework density 17.730922
#
# number of rings (size 3 to 8) (size 9 to 14) (size 15 to 20)
#    0.000    2.333    1.333    1.200    2.800    1.867 
#    0.000    2.000    1.467    1.600    0.000    0.933 
#    0.000    0.000    0.000    0.000    0.000    0.000 
#
# Total GULP energy -743609.237345 kJ/mol
# GULP energy per Si atom -12393.487289 kJ/mol
# Density = 1.769057 g / cm^3
# Si number density = 17.730922 Si / 1000 Ang^3
#
#
#
# Elastic Constant Matrix: (Units=GPa)
#
#
# Indices 1 2 3 4 5 6 
#
# 1 109.6110 46.2836 53.3041 0.0000 0.0000 0.0000
# 2 46.2836 74.6455 32.6390 0.0000 0.0000 0.0000
# 3 53.3041 32.6390 89.9250 0.0000 0.0000 0.0000
# 4 0.0000 0.0000 0.0000 21.6947 0.0000 0.0000
# 5 0.0000 0.0000 0.0000 0.0000 26.6146 0.0000
# 6 0.0000 0.0000 0.0000 0.0000 0.0000 17.9991
#
#
#
# Elastic Compliance Matrix: (Units=1/GPa)
#
#
# Indices 1 2 3 4 5 6 
#
# 1 0.015047 -0.006454 -0.006577 0.000000 0.000000 0.000000
# 2 -0.006454 0.018692 -0.002959 0.000000 0.000000 0.000000
# 3 -0.006577 -0.002959 0.016093 0.000000 0.000000 0.000000
# 4 0.000000 0.000000 0.000000 0.046094 0.000000 0.000000
# 5 0.000000 0.000000 0.000000 0.000000 0.037573 0.000000
# 6 0.000000 0.000000 0.000000 0.000000 0.000000 0.055558
#
#
# Mechanical properties :
#
#
# Convention : Reuss Voigt Hill
#
# Bulk Modulus (GPa) = 56.01370 59.84830 57.93100
# Shear Modulus (GPa) = 22.02772 22.72533 22.37652
#
# Velocity S-wave (km/s) = 3.52850 3.58394 3.55633
# Velocity P-wave (km/s) = 6.94694 7.13814 7.04319
#
# Compressibility (1/GPa) = 0.01785278
#
# Stress axis : x y z
#
# Youngs Moduli (GPa) = 66.46043 53.49839 62.14032
#
# Poissons Ratio (x) = 0.34528 0.40867
# Poissons Ratio (y) = 0.42893 0.18386
# Poissons Ratio (z) = 0.43708 0.15829
#
# Static dielectric constant tensor:
#      x y z
#    x 3.286960 0.000000 0.000000 
#    y 0.000000 3.180860 0.000000 
#    z 0.000000 0.000000 3.393850 
# 
# 
# High freq. dielectric constant tensor:
#      x y z
#    x 1.683000 0.000000 0.000000 
#    y 0.000000 1.676850 0.000000 
#    z 0.000000 0.000000 1.676740 
# 
# From -- ./inp_files/33055.got.cif
#   From: 2010.03.12/outbox.cif.g09.slc.cpg/sg69_17_cif.got.tgz:33055.got - 2010.04.10 23:52:46.
