data_PCOD8284728
_publ_section_title
;
Structure prediction by ZEFSAII (Michael W. Deem and Ramdas Pophale) SiO2 
 PCOD8284728
Probable space group: F M M M
;
_chemical_formula_sum "Si O2"
_cell_formula_units_Z 240
_cell_length_a 28.918075
_cell_length_b 14.467263
_cell_length_c 29.082644
_cell_angle_alpha 90.000000
_cell_angle_beta 90.000000
_cell_angle_gamma 90.000000
_cell_volume 12167.171888
_symmetry_space_group_name_H-M "F M M M"
_symmetry_group_IT_number 69
_symmetry_cell_setting 'orthorhombic'
loop_
_space_group_symop_operation_xyz
x,y,z
-x,-y,z
x,-y,-z
-x,y,-z
-x,-y,-z
x,y,-z
-x,y,z
x,-y,z
x,1/2+y,1/2+z
-x,1/2-y,1/2+z
x,1/2-y,1/2-z
-x,1/2+y,1/2-z
-x,1/2-y,1/2-z
x,1/2+y,1/2-z
-x,1/2+y,1/2+z
x,1/2-y,1/2+z
1/2+x,y,1/2+z
1/2-x,-y,1/2+z
1/2+x,-y,1/2-z
1/2-x,y,1/2-z
1/2-x,-y,1/2-z
1/2+x,y,1/2-z
1/2-x,y,1/2+z
1/2+x,-y,1/2+z
1/2+x,1/2+y,z
1/2-x,1/2-y,z
1/2+x,1/2-y,-z
1/2-x,1/2+y,-z
1/2-x,1/2-y,-z
1/2+x,1/2+y,-z
1/2-x,1/2+y,z
1/2+x,1/2-y,z
loop_
_atom_site_type_symbol
_atom_site_label
_atom_site_fract_x
_atom_site_fract_y
_atom_site_fract_z
Si Si1 0.917763 0.218622 0.090015
Si Si2 0.616975 0.609338 0.823429
Si Si3 0.191131 0.604464 0.883399
Si Si4 0.910209 0.892930 0.643690
Si Si5 0.552032 0.108966 0.242337
Si Si6 0.209264 0.893995 0.133073
Si Si7 0.821149 0.733001 0.447678
Si Si8 0.500000 0.102166 0.552910
O O1 0.906985 0.159502 0.134756
O O2 0.930873 0.324260 0.104881
O O3 0.876104 0.220968 0.053989
O O4 0.957381 0.165796 0.064520
O O5 0.609500 0.500000 0.827490
O O6 0.590950 0.647333 0.777735
O O7 0.672321 0.634874 0.826796
O O8 0.191048 0.500000 0.901452
O O9 0.145369 0.623998 0.852925
O O10 0.237127 0.623465 0.851888
O O11 0.192332 0.665914 0.929132
O O12 0.932416 0.861905 0.691607
O O13 0.921770 0.000000 0.631464
O O14 0.500000 0.148111 0.252550
O O15 0.550607 0.000000 0.246146
O O16 0.202513 0.841662 0.085128
O O17 0.200362 0.000000 0.121081
O O18 0.803662 0.721466 0.500000
O O19 0.500000 0.080671 0.500000
O O20 0.500000 0.000000 0.577656
#
# Coordination Sequence:
#
# PCOD8284728 Si02
#       8
#    32  32  32  32  32  32  32  16
#     4  10  21  36  56  78 105 144 182 217 269 333
#     4   9  18  33  51  76 110 143 177 222 272 328
#     4   9  18  33  52  74 103 140 180 223 271 323
#     4   9  19  36  55  78 109 144 182 226 272 318
#     4   9  18  32  53  80 109 139 178 230 275 319
#     4   9  18  32  50  74 105 141 179 220 270 326
#     4  10  20  34  52  75 104 137 175 221 270 322
#     4  11  24  40  59  84 111 139 178 226 269 321
#
# _framework density 19.725207999999999
#
# number of rings (size 3 to 8) (size 9 to 14) (size 15 to 20)
#    0.000    2.600    0.000    1.200    1.867    2.667 
#    0.000    2.667    0.000    5.600    0.000    5.600 
#    0.000    0.000    0.000    0.000    0.000    0.400 
#
# Total GULP energy -743324.148426 kJ/mol
# GULP energy per Si atom -12388.735807 kJ/mol
# Density = 1.968031 g / cm^3
# Si number density = 19.725208 Si / 1000 Ang^3
#
#
#
# Elastic Constant Matrix: (Units=GPa)
#
#
# Indices 1 2 3 4 5 6 
#
# 1 138.1043 44.1072 45.4588 0.0000 0.0000 0.0000
# 2 44.1072 77.2835 21.3398 0.0000 0.0000 0.0000
# 3 45.4588 21.3398 68.9527 0.0000 0.0000 0.0000
# 4 0.0000 0.0000 0.0000 19.5928 0.0000 0.0000
# 5 0.0000 0.0000 0.0000 0.0000 8.8476 0.0000
# 6 0.0000 0.0000 0.0000 0.0000 0.0000 19.8127
#
#
#
# Elastic Compliance Matrix: (Units=1/GPa)
#
#
# Indices 1 2 3 4 5 6 
#
# 1 0.010486 -0.004456 -0.005534 0.000000 0.000000 0.000000
# 2 -0.004456 0.016042 -0.002027 0.000000 0.000000 0.000000
# 3 -0.005534 -0.002027 0.018778 0.000000 0.000000 0.000000
# 4 0.000000 0.000000 0.000000 0.051039 0.000000 0.000000
# 5 0.000000 0.000000 0.000000 0.000000 0.113025 0.000000
# 6 0.000000 0.000000 0.000000 0.000000 0.000000 0.050473
#
#
# Mechanical properties :
#
#
# Convention : Reuss Voigt Hill
#
# Bulk Modulus (GPa) = 47.00960 56.23912 51.62436
# Shear Modulus (GPa) = 17.18404 21.21294 19.19849
#
# Velocity S-wave (km/s) = 2.95476 3.28292 3.12316
# Velocity P-wave (km/s) = 5.96027 6.55311 6.26371
#
# Compressibility (1/GPa) = 0.02127225
#
# Stress axis : x y z
#
# Youngs Moduli (GPa) = 95.36820 62.33487 53.25311
#
# Poissons Ratio (x) = 0.27779 0.29469
# Poissons Ratio (y) = 0.42500 0.10794
# Poissons Ratio (z) = 0.52774 0.12635
#
# Static dielectric constant tensor:
#      x y z
#    x 4.236400 0.000000 0.000000 
#    y 0.000000 3.838930 0.000000 
#    z 0.000000 0.000000 3.296450 
# 
# 
# High freq. dielectric constant tensor:
#      x y z
#    x 1.782460 0.000000 0.000000 
#    y 0.000000 1.782570 0.000000 
#    z 0.000000 0.000000 1.728690 
# 
# From -- ./inp_files/47587.got.cif
#   From: 2010.03.12/outbox.cif.g09.slc.cpg/sg69_24_cif.got.tgz:47587.got - 2010.04.10 23:52:46.
