data_PCOD8284908
_publ_section_title
;
Structure prediction by ZEFSAII (Michael W. Deem and Ramdas Pophale) SiO2 
 PCOD8284908
Probable space group: F M M M
;
_chemical_formula_sum "Si O2"
_cell_formula_units_Z 160
_cell_length_a 24.239952
_cell_length_b 24.034910
_cell_length_c 14.730015
_cell_angle_alpha 90.000000
_cell_angle_beta 90.000000
_cell_angle_gamma 90.000000
_cell_volume 8581.781342
_symmetry_space_group_name_H-M "F M M M"
_symmetry_group_IT_number 69
_symmetry_cell_setting 'orthorhombic'
loop_
_space_group_symop_operation_xyz
x,y,z
-x,-y,z
x,-y,-z
-x,y,-z
-x,-y,-z
x,y,-z
-x,y,z
x,-y,z
x,1/2+y,1/2+z
-x,1/2-y,1/2+z
x,1/2-y,1/2-z
-x,1/2+y,1/2-z
-x,1/2-y,1/2-z
x,1/2+y,1/2-z
-x,1/2+y,1/2+z
x,1/2-y,1/2+z
1/2+x,y,1/2+z
1/2-x,-y,1/2+z
1/2+x,-y,1/2-z
1/2-x,y,1/2-z
1/2-x,-y,1/2-z
1/2+x,y,1/2-z
1/2-x,y,1/2+z
1/2+x,-y,1/2+z
1/2+x,1/2+y,z
1/2-x,1/2-y,z
1/2+x,1/2-y,-z
1/2-x,1/2+y,-z
1/2-x,1/2-y,-z
1/2+x,1/2+y,-z
1/2-x,1/2+y,z
1/2+x,1/2-y,z
loop_
_atom_site_type_symbol
_atom_site_label
_atom_site_fract_x
_atom_site_fract_y
_atom_site_fract_z
Si Si1 0.377776 0.763723 0.500000
Si Si2 0.000000 0.564598 0.100168
Si Si3 0.386612 0.607830 0.670165
Si Si4 0.298383 0.370059 0.000000
Si Si5 0.302279 0.565625 0.189320
Si Si6 0.059612 0.220744 0.658180
Si Si7 0.672684 0.640750 0.500000
O O1 0.336185 0.815166 0.500000
O O2 0.415876 0.766478 0.410904
O O3 0.352199 0.702123 0.500000
O O4 0.945426 0.579252 0.156127
O O5 0.000000 0.500000 0.084574
O O6 0.000000 0.593732 0.000000
O O7 0.358224 0.581028 0.757818
O O8 0.396302 0.673334 0.680692
O O9 0.345825 0.602103 0.584346
O O10 0.307058 0.405976 0.909108
O O11 0.236916 0.347883 0.000000
O O12 0.298265 0.500000 0.173443
O O13 0.250000 0.586440 0.250000
O O14 0.045913 0.250000 0.750000
O O15 0.000000 0.197298 0.621025
#
# Coordination Sequence:
#
# PCOD8284908 Si02
#       7
#    16  16  32  16  32  32  16
#     4  10  22  35  59  86 123 155 193 240 306 361
#     4  11  22  34  57  91 121 155 194 244 309 366
#     4  11  20  39  59  90 125 157 191 251 309 360
#     4  12  22  43  60  85 118 164 208 251 298 359
#     4  11  24  40  62  87 119 165 210 254 302 354
#     4  10  20  35  58  88 117 153 197 240 296 361
#     4  10  21  35  61  88 123 153 197 245 303 376
#
# _framework density 18.644148000000001
#
# number of rings (size 3 to 8) (size 9 to 14) (size 15 to 20)
#    0.000    1.300    4.000    2.700    0.000    0.000 
#    0.000    0.000    0.000    0.000    0.000    2.100 
#    0.000    0.000    0.000    0.000    0.000    0.000 
#
# Total GULP energy -495766.394074 kJ/mol
# GULP energy per Si atom -12394.159852 kJ/mol
# Density = 1.860171 g / cm^3
# Si number density = 18.644148 Si / 1000 Ang^3
#
#
#
# Elastic Constant Matrix: (Units=GPa)
#
#
# Indices 1 2 3 4 5 6 
#
# 1 121.7270 20.4406 56.8242 0.0000 0.0000 0.0000
# 2 20.4406 55.0122 34.1171 0.0000 0.0000 0.0000
# 3 56.8242 34.1171 138.6195 0.0000 0.0000 0.0000
# 4 0.0000 0.0000 0.0000 29.1959 0.0000 0.0000
# 5 0.0000 0.0000 0.0000 0.0000 31.8439 0.0000
# 6 0.0000 0.0000 0.0000 0.0000 0.0000 19.3726
#
#
#
# Elastic Compliance Matrix: (Units=1/GPa)
#
#
# Indices 1 2 3 4 5 6 
#
# 1 0.010252 -0.001420 -0.003853 0.000000 0.000000 0.000000
# 2 -0.001420 0.021649 -0.004746 0.000000 0.000000 0.000000
# 3 -0.003853 -0.004746 0.009962 0.000000 0.000000 0.000000
# 4 0.000000 0.000000 0.000000 0.034251 0.000000 0.000000
# 5 0.000000 0.000000 0.000000 0.000000 0.031403 0.000000
# 6 0.000000 0.000000 0.000000 0.000000 0.000000 0.051619
#
#
# Mechanical properties :
#
#
# Convention : Reuss Voigt Hill
#
# Bulk Modulus (GPa) = 45.82041 59.79139 52.80590
# Shear Modulus (GPa) = 26.81685 29.68093 28.24889
#
# Velocity S-wave (km/s) = 3.79668 3.99428 3.89673
# Velocity P-wave (km/s) = 6.62188 7.30834 6.97356
#
# Compressibility (1/GPa) = 0.02182434
#
# Stress axis : x y z
#
# Youngs Moduli (GPa) = 97.53926 46.19202 100.38432
#
# Poissons Ratio (x) = 0.06558 0.38681
# Poissons Ratio (y) = 0.13847 0.47645
# Poissons Ratio (z) = 0.37585 0.21924
#
# Static dielectric constant tensor:
#      x y z
#    x 4.526200 0.000000 0.000000 
#    y 0.000000 3.248180 0.000000 
#    z 0.000000 0.000000 3.585130 
# 
# 
# High freq. dielectric constant tensor:
#      x y z
#    x 1.735310 0.000000 0.000000 
#    y 0.000000 1.714850 0.000000 
#    z 0.000000 0.000000 1.729710 
# 
# From -- ./inp_files/17832.got.cif
#   From: 2010.03.12/outbox.cif.g09.slc.cpg/sg69_9_cif.got.tgz:17832.got - 2010.04.10 23:52:46.
