data_PCOD8284232
_publ_section_title
;
Structure prediction by ZEFSAII (Michael W. Deem and Ramdas Pophale) SiO2 
 PCOD8284232
Probable space group: F M M M
;
_chemical_formula_sum "Si O2"
_cell_formula_units_Z 192
_cell_length_a 19.835941
_cell_length_b 19.037176
_cell_length_c 26.264525
_cell_angle_alpha 90.000000
_cell_angle_beta 90.000000
_cell_angle_gamma 90.000000
_cell_volume 9918.017808
_symmetry_space_group_name_H-M "F M M M"
_symmetry_group_IT_number 69
_symmetry_cell_setting 'orthorhombic'
loop_
_space_group_symop_operation_xyz
x,y,z
-x,-y,z
x,-y,-z
-x,y,-z
-x,-y,-z
x,y,-z
-x,y,z
x,-y,z
x,1/2+y,1/2+z
-x,1/2-y,1/2+z
x,1/2-y,1/2-z
-x,1/2+y,1/2-z
-x,1/2-y,1/2-z
x,1/2+y,1/2-z
-x,1/2+y,1/2+z
x,1/2-y,1/2+z
1/2+x,y,1/2+z
1/2-x,-y,1/2+z
1/2+x,-y,1/2-z
1/2-x,y,1/2-z
1/2-x,-y,1/2-z
1/2+x,y,1/2-z
1/2-x,y,1/2+z
1/2+x,-y,1/2+z
1/2+x,1/2+y,z
1/2-x,1/2-y,z
1/2+x,1/2-y,-z
1/2-x,1/2+y,-z
1/2-x,1/2-y,-z
1/2+x,1/2+y,-z
1/2-x,1/2+y,z
1/2+x,1/2-y,z
loop_
_atom_site_type_symbol
_atom_site_label
_atom_site_fract_x
_atom_site_fract_y
_atom_site_fract_z
Si Si1 0.650554 0.423082 0.056086
Si Si2 0.077844 0.419700 0.704727
Si Si3 0.175833 0.781279 0.442026
Si Si4 0.310123 0.581907 0.282901
Si Si5 0.422873 0.316728 0.887430
Si Si6 0.209308 0.919465 0.396168
O O1 0.618723 0.500000 0.059105
O O2 0.589034 0.370705 0.066311
O O3 0.710152 0.414283 0.097021
O O4 0.681185 0.408038 0.000000
O O5 0.094874 0.500000 0.685735
O O6 0.118818 0.402030 0.755962
O O7 0.096867 0.360800 0.663182
O O8 0.000000 0.414254 0.719586
O O9 0.153005 0.764139 0.500000
O O10 0.250000 0.750000 0.431568
O O11 0.125229 0.749228 0.399508
O O12 0.174233 0.865701 0.435286
O O13 0.295092 0.500000 0.287750
O O14 0.250000 0.617047 0.250000
O O15 0.309516 0.610396 0.340357
O O16 0.500000 0.291155 0.885774
O O17 0.184727 0.000000 0.406081
#
# Coordination Sequence:
#
# PCOD8284232 Si02
#       6
#    32  32  32  32  32  32
#     4  10  19  31  51  81 116 151 186 228 282 346
#     4   9  18  34  57  86 121 157 188 224 280 351
#     4  11  23  39  58  81 112 153 197 239 284 338
#     4   9  17  30  53  84 113 145 187 235 280 326
#     4  11  22  36  56  82 116 156 190 228 285 348
#     4  10  20  36  59  84 111 146 193 244 287 330
#
# _framework density 19.358706999999999
#
# number of rings (size 3 to 8) (size 9 to 14) (size 15 to 20)
#    0.000    2.000    1.667    2.500    0.000    6.000 
#    0.000    2.500    0.000    3.500    0.000    1.167 
#    0.000    0.000    0.000    0.000    0.000    0.000 
#
# Total GULP energy -594818.565936 kJ/mol
# GULP energy per Si atom -12392.053457 kJ/mol
# Density = 1.931465 g / cm^3
# Si number density = 19.358707 Si / 1000 Ang^3
#
#
#
# Elastic Constant Matrix: (Units=GPa)
#
#
# Indices 1 2 3 4 5 6 
#
# 1 71.7942 20.1198 36.1709 0.0000 0.0000 0.0000
# 2 20.1198 87.1680 25.0593 0.0000 0.0000 0.0000
# 3 36.1709 25.0593 89.6941 0.0000 0.0000 0.0000
# 4 0.0000 0.0000 0.0000 20.4410 0.0000 0.0000
# 5 0.0000 0.0000 0.0000 0.0000 28.1482 0.0000
# 6 0.0000 0.0000 0.0000 0.0000 0.0000 27.4618
#
#
#
# Elastic Compliance Matrix: (Units=1/GPa)
#
#
# Indices 1 2 3 4 5 6 
#
# 1 0.017871 -0.002232 -0.006583 0.000000 0.000000 0.000000
# 2 -0.002232 0.012753 -0.002663 0.000000 0.000000 0.000000
# 3 -0.006583 -0.002663 0.014548 0.000000 0.000000 0.000000
# 4 0.000000 0.000000 0.000000 0.048921 0.000000 0.000000
# 5 0.000000 0.000000 0.000000 0.000000 0.035526 0.000000
# 6 0.000000 0.000000 0.000000 0.000000 0.000000 0.036414
#
#
# Mechanical properties :
#
#
# Convention : Reuss Voigt Hill
#
# Bulk Modulus (GPa) = 45.01446 45.70627 45.36037
# Shear Modulus (GPa) = 25.45891 26.36395 25.91143
#
# Velocity S-wave (km/s) = 3.63038 3.69435 3.66251
# Velocity P-wave (km/s) = 6.39345 6.46986 6.43177
#
# Compressibility (1/GPa) = 0.02221508
#
# Stress axis : x y z
#
# Youngs Moduli (GPa) = 55.95657 78.41378 68.73936
#
# Poissons Ratio (x) = 0.17505 0.45252
# Poissons Ratio (y) = 0.12492 0.18303
# Poissons Ratio (z) = 0.36837 0.20879
#
# Static dielectric constant tensor:
#      x y z
#    x 3.309250 0.000000 0.000000 
#    y 0.000000 3.503940 0.000000 
#    z 0.000000 0.000000 3.647820 
# 
# 
# High freq. dielectric constant tensor:
#      x y z
#    x 1.727720 0.000000 0.000000 
#    y 0.000000 1.739590 0.000000 
#    z 0.000000 0.000000 1.754720 
# 
# From -- ./inp_files/37335.got.cif
#   From: 2010.03.12/outbox.cif.g09.slc.cpg/sg69_19_cif.got.tgz:37335.got - 2010.04.10 23:52:46.
