data_PCOD8284233
_publ_section_title
;
Structure prediction by ZEFSAII (Michael W. Deem and Ramdas Pophale) SiO2 
 PCOD8284233
Probable space group: F M M M
;
_chemical_formula_sum "Si O2"
_cell_formula_units_Z 112
_cell_length_a 24.044013
_cell_length_b 18.005131
_cell_length_c 13.150681
_cell_angle_alpha 90.000000
_cell_angle_beta 90.000000
_cell_angle_gamma 90.000000
_cell_volume 5693.135006
_symmetry_space_group_name_H-M "F M M M"
_symmetry_group_IT_number 69
_symmetry_cell_setting 'orthorhombic'
loop_
_space_group_symop_operation_xyz
x,y,z
-x,-y,z
x,-y,-z
-x,y,-z
-x,-y,-z
x,y,-z
-x,y,z
x,-y,z
x,1/2+y,1/2+z
-x,1/2-y,1/2+z
x,1/2-y,1/2-z
-x,1/2+y,1/2-z
-x,1/2-y,1/2-z
x,1/2+y,1/2-z
-x,1/2+y,1/2+z
x,1/2-y,1/2+z
1/2+x,y,1/2+z
1/2-x,-y,1/2+z
1/2+x,-y,1/2-z
1/2-x,y,1/2-z
1/2-x,-y,1/2-z
1/2+x,y,1/2-z
1/2-x,y,1/2+z
1/2+x,-y,1/2+z
1/2+x,1/2+y,z
1/2-x,1/2-y,z
1/2+x,1/2-y,-z
1/2-x,1/2+y,-z
1/2-x,1/2-y,-z
1/2+x,1/2+y,-z
1/2-x,1/2+y,z
1/2+x,1/2-y,z
loop_
_atom_site_type_symbol
_atom_site_label
_atom_site_fract_x
_atom_site_fract_y
_atom_site_fract_z
Si Si1 0.351067 0.314430 0.887649
Si Si2 0.562634 0.587448 0.500000
Si Si3 0.362105 0.350535 0.673783
Si Si4 0.253698 0.417699 0.386925
O O1 0.386919 0.342196 0.789434
O O2 0.342460 0.226723 0.875905
O O3 0.292040 0.354169 0.879467
O O4 0.378022 0.331401 0.000000
O O5 0.563344 0.500000 0.500000
O O6 0.500000 0.618980 0.500000
O O7 0.591072 0.614254 0.603595
O O8 0.306319 0.400419 0.685199
O O9 0.279006 0.418338 0.500000
O O10 0.229818 0.500000 0.359915
#
# Coordination Sequence:
#
# PCOD8284233 Si02
#       4
#    32  16  32  32
#     4  10  21  35  54  85 122 153 194 228 278 353
#     4  11  24  42  65  90 111 141 198 259 298 332
#     4  11  20  36  60  80 116 159 194 238 291 338
#     4  10  19  31  51  83 121 161 197 230 275 341
#
# _framework density 19.672816999999998
#
# number of rings (size 3 to 8) (size 9 to 14) (size 15 to 20)
#    0.000    1.571    2.857    2.571    0.000    8.000 
#    0.000    2.857    0.000    0.000    0.000    2.000 
#    0.000    0.000    0.000    0.000    0.000    0.000 
#
# Total GULP energy -346892.986387 kJ/mol
# GULP energy per Si atom -12389.035228 kJ/mol
# Density = 1.962804 g / cm^3
# Si number density = 19.672817 Si / 1000 Ang^3
#
#
#
# Elastic Constant Matrix: (Units=GPa)
#
#
# Indices 1 2 3 4 5 6 
#
# 1 66.2776 39.1045 25.0541 0.0000 0.0000 0.0000
# 2 39.1045 96.7094 24.5096 0.0000 0.0000 0.0000
# 3 25.0541 24.5096 188.4318 0.0000 0.0000 0.0000
# 4 0.0000 0.0000 0.0000 16.8148 0.0000 0.0000
# 5 0.0000 0.0000 0.0000 0.0000 6.7324 0.0000
# 6 0.0000 0.0000 0.0000 0.0000 0.0000 9.9889
#
#
#
# Elastic Compliance Matrix: (Units=1/GPa)
#
#
# Indices 1 2 3 4 5 6 
#
# 1 0.020322 -0.007789 -0.001689 0.000000 0.000000 0.000000
# 2 -0.007789 0.013678 -0.000743 0.000000 0.000000 0.000000
# 3 -0.001689 -0.000743 0.005628 0.000000 0.000000 0.000000
# 4 0.000000 0.000000 0.000000 0.059472 0.000000 0.000000
# 5 0.000000 0.000000 0.000000 0.000000 0.148535 0.000000
# 6 0.000000 0.000000 0.000000 0.000000 0.000000 0.100111
#
#
# Mechanical properties :
#
#
# Convention : Reuss Voigt Hill
#
# Bulk Modulus (GPa) = 52.12294 58.75061 55.43677
# Shear Modulus (GPa) = 13.34813 24.22393 18.78603
#
# Velocity S-wave (km/s) = 2.60764 3.51285 3.09354
# Velocity P-wave (km/s) = 5.96815 6.81045 6.40316
#
# Compressibility (1/GPa) = 0.01918541
#
# Stress axis : x y z
#
# Youngs Moduli (GPa) = 49.20709 73.10859 177.67592
#
# Poissons Ratio (x) = 0.56946 0.30008
# Poissons Ratio (y) = 0.38329 0.13210
# Poissons Ratio (z) = 0.08311 0.05435
#
# Static dielectric constant tensor:
#      x y z
#    x 3.034460 0.000000 0.000000 
#    y 0.000000 3.741030 0.000000 
#    z 0.000000 0.000000 4.411710 
# 
# 
# High freq. dielectric constant tensor:
#      x y z
#    x 1.688570 0.000000 0.000000 
#    y 0.000000 1.781010 0.000000 
#    z 0.000000 0.000000 1.806710 
# 
# From -- ./inp_files/14069.got.cif
#   From: 2010.03.12/outbox.cif.g09.slc.cpg/sg69_8_cif.got.tgz:14069.got - 2010.04.10 23:52:46.
