data_PCOD8284114
_publ_section_title
;
Structure prediction by ZEFSAII (Michael W. Deem and Ramdas Pophale) SiO2 
 PCOD8284114
Probable space group: F M M M
;
_chemical_formula_sum "Si O2"
_cell_formula_units_Z 208
_cell_length_a 27.646177
_cell_length_b 26.819930
_cell_length_c 17.223377
_cell_angle_alpha 90.000000
_cell_angle_beta 90.000000
_cell_angle_gamma 90.000000
_cell_volume 12770.592059
_symmetry_space_group_name_H-M "F M M M"
_symmetry_group_IT_number 69
_symmetry_cell_setting 'orthorhombic'
loop_
_space_group_symop_operation_xyz
x,y,z
-x,-y,z
x,-y,-z
-x,y,-z
-x,-y,-z
x,y,-z
-x,y,z
x,-y,z
x,1/2+y,1/2+z
-x,1/2-y,1/2+z
x,1/2-y,1/2-z
-x,1/2+y,1/2-z
-x,1/2-y,1/2-z
x,1/2+y,1/2-z
-x,1/2+y,1/2+z
x,1/2-y,1/2+z
1/2+x,y,1/2+z
1/2-x,-y,1/2+z
1/2+x,-y,1/2-z
1/2-x,y,1/2-z
1/2-x,-y,1/2-z
1/2+x,y,1/2-z
1/2-x,y,1/2+z
1/2+x,-y,1/2+z
1/2+x,1/2+y,z
1/2-x,1/2-y,z
1/2+x,1/2-y,-z
1/2-x,1/2+y,-z
1/2-x,1/2-y,-z
1/2+x,1/2+y,-z
1/2-x,1/2+y,z
1/2+x,1/2-y,z
loop_
_atom_site_type_symbol
_atom_site_label
_atom_site_fract_x
_atom_site_fract_y
_atom_site_fract_z
Si Si1 0.500000 0.559030 0.089855
Si Si2 0.444642 0.138266 0.914103
Si Si3 0.617056 0.057534 0.157335
Si Si4 0.056909 0.194074 0.261843
Si Si5 0.592234 0.099946 0.679520
Si Si6 0.715047 0.941139 0.085945
Si Si7 0.678501 0.056724 0.591888
O O1 0.500000 0.500000 0.097535
O O2 0.547193 0.580399 0.130842
O O3 0.500000 0.575630 0.000000
O O4 0.500000 0.122638 0.902467
O O5 0.414336 0.087996 0.904238
O O6 0.430165 0.179511 0.850391
O O7 0.435421 0.160697 0.000000
O O8 0.598118 0.066927 0.243552
O O9 0.673281 0.074422 0.146851
O O10 0.610930 0.000000 0.135648
O O11 0.075998 0.250000 0.250000
O O12 0.084542 0.157709 0.202184
O O13 0.000000 0.189980 0.244756
O O14 0.640534 0.094845 0.629063
O O15 0.767956 0.923528 0.115716
O O16 0.718469 0.000000 0.077902
O O17 0.703763 0.918808 0.000000
O O18 0.672402 0.057916 0.500000
O O19 0.669197 0.000000 0.622057
#
# Coordination Sequence:
#
# PCOD8284114 Si02
#       7
#    16  32  32  32  32  32  32
#     4  11  22  34  47  66 101 139 162 187 230 290
#     4   9  18  31  46  68  95 123 156 189 234 298
#     4  10  19  28  44  69  98 131 162 198 232 275
#     4   9  18  35  54  67  90 123 155 203 258 285
#     4  11  20  32  47  71  93 124 167 200 237 291
#     4   8  15  28  44  64  93 130 166 196 233 278
#     4   9  17  30  47  67  98 134 162 196 240 285
#
# _framework density 16.287420000000001
#
# number of rings (size 3 to 8) (size 9 to 14) (size 15 to 20)
#    0.000    2.538    0.769    3.231    1.077    3.077 
#    0.000    4.615    0.000    0.000    0.000    8.615 
#    0.000   11.077    0.000    0.000    0.000    0.000 
#
# Total GULP energy -644615.709880 kJ/mol
# GULP energy per Si atom -12396.455959 kJ/mol
# Density = 1.625035 g / cm^3
# Si number density = 16.287420 Si / 1000 Ang^3
#
#
#
# Elastic Constant Matrix: (Units=GPa)
#
#
# Indices 1 2 3 4 5 6 
#
# 1 104.1658 51.7137 60.2202 0.0000 0.0000 0.0000
# 2 51.7137 98.1658 45.9909 0.0000 0.0000 0.0000
# 3 60.2202 45.9909 93.7483 0.0000 0.0000 0.0000
# 4 0.0000 0.0000 0.0000 15.3353 0.0000 0.0000
# 5 0.0000 0.0000 0.0000 0.0000 29.8227 0.0000
# 6 0.0000 0.0000 0.0000 0.0000 0.0000 6.9096
#
#
#
# Elastic Compliance Matrix: (Units=1/GPa)
#
#
# Indices 1 2 3 4 5 6 
#
# 1 0.016955 -0.004972 -0.008452 0.000000 0.000000 0.000000
# 2 -0.004972 0.014685 -0.004010 0.000000 0.000000 0.000000
# 3 -0.008452 -0.004010 0.018063 0.000000 0.000000 0.000000
# 4 0.000000 0.000000 0.000000 0.065209 0.000000 0.000000
# 5 0.000000 0.000000 0.000000 0.000000 0.033531 0.000000
# 6 0.000000 0.000000 0.000000 0.000000 0.000000 0.144727
#
#
# Mechanical properties :
#
#
# Convention : Reuss Voigt Hill
#
# Bulk Modulus (GPa) = 67.40969 67.99216 67.70092
# Shear Modulus (GPa) = 15.01577 19.62385 17.31981
#
# Velocity S-wave (km/s) = 3.03961 3.47486 3.26450
# Velocity P-wave (km/s) = 7.33461 7.61153 7.47435
#
# Compressibility (1/GPa) = 0.01483466
#
# Stress axis : x y z
#
# Youngs Moduli (GPa) = 58.98100 68.09705 55.36065
#
# Poissons Ratio (x) = 0.33858 0.46790
# Poissons Ratio (y) = 0.29325 0.22201
# Poissons Ratio (z) = 0.49850 0.27309
#
# Static dielectric constant tensor:
#      x y z
#    x 3.343940 0.000000 0.000000 
#    y 0.000000 2.827790 0.000000 
#    z 0.000000 0.000000 3.198370 
# 
# 
# High freq. dielectric constant tensor:
#      x y z
#    x 1.631670 0.000000 0.000000 
#    y 0.000000 1.581940 0.000000 
#    z 0.000000 0.000000 1.634240 
# 
# From -- ./inp_files/27062.got.cif
#   From: 2010.03.12/outbox.cif.g09.slc.cpg/sg69_14_cif.got.tgz:27062.got - 2010.04.10 23:52:46.
