data_PCOD8284228
_publ_section_title
;
Structure prediction by ZEFSAII (Michael W. Deem and Ramdas Pophale) SiO2 
 PCOD8284228
Probable space group: F M M M
;
_chemical_formula_sum "Si O2"
_cell_formula_units_Z 192
_cell_length_a 17.694143
_cell_length_b 30.978397
_cell_length_c 19.240770
_cell_angle_alpha 90.000000
_cell_angle_beta 90.000000
_cell_angle_gamma 90.000000
_cell_volume 10546.562292
_symmetry_space_group_name_H-M "F M M M"
_symmetry_group_IT_number 69
_symmetry_cell_setting 'orthorhombic'
loop_
_space_group_symop_operation_xyz
x,y,z
-x,-y,z
x,-y,-z
-x,y,-z
-x,-y,-z
x,y,-z
-x,y,z
x,-y,z
x,1/2+y,1/2+z
-x,1/2-y,1/2+z
x,1/2-y,1/2-z
-x,1/2+y,1/2-z
-x,1/2-y,1/2-z
x,1/2+y,1/2-z
-x,1/2+y,1/2+z
x,1/2-y,1/2+z
1/2+x,y,1/2+z
1/2-x,-y,1/2+z
1/2+x,-y,1/2-z
1/2-x,y,1/2-z
1/2-x,-y,1/2-z
1/2+x,y,1/2-z
1/2-x,y,1/2+z
1/2+x,-y,1/2+z
1/2+x,1/2+y,z
1/2-x,1/2-y,z
1/2+x,1/2-y,-z
1/2-x,1/2+y,-z
1/2-x,1/2-y,-z
1/2+x,1/2+y,-z
1/2-x,1/2+y,z
1/2+x,1/2-y,z
loop_
_atom_site_type_symbol
_atom_site_label
_atom_site_fract_x
_atom_site_fract_y
_atom_site_fract_z
Si Si1 0.085068 0.584091 0.358239
Si Si2 0.414725 0.424591 0.693805
Si Si3 0.343783 0.836961 0.825362
Si Si4 0.414840 0.249417 0.667272
Si Si5 0.673442 0.333390 0.839480
Si Si6 0.799599 0.500000 0.820446
Si Si7 0.337882 0.000000 0.581496
O O1 0.088108 0.577246 0.276363
O O2 0.131928 0.626928 0.377574
O O3 0.117148 0.542356 0.395989
O O4 0.000000 0.591338 0.384157
O O5 0.500000 0.436820 0.669825
O O6 0.391421 0.379754 0.656996
O O7 0.352874 0.458931 0.671148
O O8 0.386921 0.796147 0.858478
O O9 0.337275 0.834738 0.742763
O O10 0.261046 0.837390 0.859796
O O11 0.500000 0.241026 0.641531
O O12 0.410619 0.250000 0.750000
O O13 0.361745 0.212064 0.634824
O O14 0.750000 0.500000 0.750000
O O15 0.744531 0.500000 0.885439
O O16 0.327217 0.000000 0.500000
#
# Coordination Sequence:
#
# PCOD8284228 Si02
#       7
#    32  32  32  32  32  16  16
#     4  10  19  32  49  72 101 136 175 215 263 320
#     4  10  19  31  51  77 102 133 173 218 264 318
#     4   9  16  24  39  61  97 130 169 210 264 310
#     4   9  15  23  34  55  90 133 172 209 256 314
#     4   9  16  25  40  61  90 132 175 212 252 314
#     4  12  21  35  57  75 103 134 174 220 266 319
#     4  12  25  38  53  76 105 140 180 223 271 321
#
# _framework density 18.204984
#
# number of rings (size 3 to 8) (size 9 to 14) (size 15 to 20)
#    0.000    2.167    1.667    3.000    2.333    8.000 
#    0.000    0.000    0.000    1.000    0.000    0.000 
#    0.000   10.667    0.000    4.667    0.000    0.500 
#
# Total GULP energy -595064.931185 kJ/mol
# GULP energy per Si atom -12397.186066 kJ/mol
# Density = 1.816355 g / cm^3
# Si number density = 18.204984 Si / 1000 Ang^3
#
#
#
# Elastic Constant Matrix: (Units=GPa)
#
#
# Indices 1 2 3 4 5 6 
#
# 1 158.1098 75.2081 35.7015 0.0000 0.0000 0.0000
# 2 75.2081 162.7307 33.7907 0.0000 0.0000 0.0000
# 3 35.7015 33.7907 25.2453 0.0000 0.0000 0.0000
# 4 0.0000 0.0000 0.0000 0.0637 0.0000 0.0000
# 5 0.0000 0.0000 0.0000 0.0000 7.1549 0.0000
# 6 0.0000 0.0000 0.0000 0.0000 0.0000 47.7237
#
#
#
# Elastic Compliance Matrix: (Units=1/GPa)
#
#
# Indices 1 2 3 4 5 6 
#
# 1 0.009879 -0.002306 -0.010885 0.000000 0.000000 0.000000
# 2 -0.002306 0.009049 -0.008851 0.000000 0.000000 0.000000
# 3 -0.010885 -0.008851 0.066852 0.000000 0.000000 0.000000
# 4 0.000000 0.000000 0.000000 15.700003 0.000000 0.000000
# 5 0.000000 0.000000 0.000000 0.000000 0.139765 0.000000
# 6 0.000000 0.000000 0.000000 0.000000 0.000000 0.020954
#
#
# Mechanical properties :
#
#
# Convention : Reuss Voigt Hill
#
# Bulk Modulus (GPa) = 23.98287 70.60961 47.29624
# Shear Modulus (GPa) = 0.31241 24.41414 12.36328
#
# Velocity S-wave (km/s) = 0.41471 3.66603 2.60881
# Velocity P-wave (km/s) = 3.66493 7.53590 5.92543
#
# Compressibility (1/GPa) = 0.04169644
#
# Stress axis : x y z
#
# Youngs Moduli (GPa) = 101.22188 110.51488 14.95843
#
# Poissons Ratio (x) = 0.25480 0.16282
# Poissons Ratio (y) = 0.23337 0.13240
# Poissons Ratio (z) = 1.10181 0.97816
#
# Static dielectric constant tensor:
#      x y z
#    x 3.681840 0.000000 0.000000 
#    y 0.000000 3.704840 0.000000 
#    z 0.000000 0.000000 2.574800 
# 
# 
# High freq. dielectric constant tensor:
#      x y z
#    x 1.728840 0.000000 0.000000 
#    y 0.000000 1.728700 0.000000 
#    z 0.000000 0.000000 1.606830 
# 
# From -- ./inp_files/23670.got.cif
#   From: 2010.03.12/outbox.cif.g09.slc.cpg/sg69_12_cif.got.tgz:23670.got - 2010.04.10 23:52:46.
