data_PCOD8284360
_publ_section_title
;
Structure prediction by ZEFSAII (Michael W. Deem and Ramdas Pophale) SiO2 
 PCOD8284360
Probable space group: F M M M
;
_chemical_formula_sum "Si O2"
_cell_formula_units_Z 160
_cell_length_a 28.752097
_cell_length_b 23.016146
_cell_length_c 15.316614
_cell_angle_alpha 90.000000
_cell_angle_beta 90.000000
_cell_angle_gamma 90.000000
_cell_volume 10135.960196
_symmetry_space_group_name_H-M "F M M M"
_symmetry_group_IT_number 69
_symmetry_cell_setting 'orthorhombic'
loop_
_space_group_symop_operation_xyz
x,y,z
-x,-y,z
x,-y,-z
-x,y,-z
-x,-y,-z
x,y,-z
-x,y,z
x,-y,z
x,1/2+y,1/2+z
-x,1/2-y,1/2+z
x,1/2-y,1/2-z
-x,1/2+y,1/2-z
-x,1/2-y,1/2-z
x,1/2+y,1/2-z
-x,1/2+y,1/2+z
x,1/2-y,1/2+z
1/2+x,y,1/2+z
1/2-x,-y,1/2+z
1/2+x,-y,1/2-z
1/2-x,y,1/2-z
1/2-x,-y,1/2-z
1/2+x,y,1/2-z
1/2-x,y,1/2+z
1/2+x,-y,1/2+z
1/2+x,1/2+y,z
1/2-x,1/2-y,z
1/2+x,1/2-y,-z
1/2-x,1/2+y,-z
1/2-x,1/2-y,-z
1/2+x,1/2+y,-z
1/2-x,1/2+y,z
1/2+x,1/2-y,z
loop_
_atom_site_type_symbol
_atom_site_label
_atom_site_fract_x
_atom_site_fract_y
_atom_site_fract_z
Si Si1 0.170604 0.252254 0.500000
Si Si2 0.947651 0.373744 0.101887
Si Si3 0.632099 0.705600 0.671095
Si Si4 0.253530 0.661176 0.000000
Si Si5 0.784829 0.884308 0.329380
Si Si6 0.930668 0.000000 0.404677
Si Si7 0.322162 0.500000 0.401876
O O1 0.138617 0.244024 0.584506
O O2 0.213630 0.209020 0.500000
O O3 0.193578 0.315808 0.500000
O O4 0.913456 0.334175 0.159291
O O5 0.946598 0.439755 0.141125
O O6 0.000000 0.349092 0.110494
O O7 0.931099 0.373816 0.000000
O O8 0.624289 0.750000 0.750000
O O9 0.677633 0.666359 0.687297
O O10 0.247230 0.623747 0.086257
O O11 0.750000 0.886767 0.250000
O O12 0.810163 0.944970 0.342898
O O13 0.954519 0.000000 0.500000
O O14 0.876244 0.000000 0.415129
O O15 0.299448 0.500000 0.500000
#
# Coordination Sequence:
#
# PCOD8284360 Si02
#       7
#    16  32  32  16  32  16  16
#     4   9  18  32  47  66  94 133 171 208 240 278
#     4  10  19  33  53  78 103 131 166 208 260 313
#     4  11  21  33  51  73 101 138 174 208 249 301
#     4   9  18  31  48  66  93 131 172 207 241 284
#     4  11  21  33  50  73 102 134 171 214 251 297
#     4   9  17  29  54  76 100 131 164 205 259 318
#     4  11  19  32  53  74  99 135 170 205 261 307
#
# _framework density 15.785382
#
# number of rings (size 3 to 8) (size 9 to 14) (size 15 to 20)
#    0.000    1.800    4.000    1.800    0.000    3.600 
#    0.000    0.000    0.000    0.000    0.000    0.000 
#    0.000    0.000    0.000    1.900    0.000    0.000 
#
# Total GULP energy -495794.914015 kJ/mol
# GULP energy per Si atom -12394.872850 kJ/mol
# Density = 1.574945 g / cm^3
# Si number density = 15.785382 Si / 1000 Ang^3
#
#
#
# Elastic Constant Matrix: (Units=GPa)
#
#
# Indices 1 2 3 4 5 6 
#
# 1 80.7996 36.1259 39.7346 0.0000 0.0000 0.0000
# 2 36.1259 89.5845 42.0015 0.0000 0.0000 0.0000
# 3 39.7346 42.0015 98.7116 0.0000 0.0000 0.0000
# 4 0.0000 0.0000 0.0000 32.8376 0.0000 0.0000
# 5 0.0000 0.0000 0.0000 0.0000 25.2705 0.0000
# 6 0.0000 0.0000 0.0000 0.0000 0.0000 18.2449
#
#
#
# Elastic Compliance Matrix: (Units=1/GPa)
#
#
# Indices 1 2 3 4 5 6 
#
# 1 0.016763 -0.004493 -0.004836 0.000000 0.000000 0.000000
# 2 -0.004493 0.015148 -0.004637 0.000000 0.000000 0.000000
# 3 -0.004836 -0.004637 0.014050 0.000000 0.000000 0.000000
# 4 0.000000 0.000000 0.000000 0.030453 0.000000 0.000000
# 5 0.000000 0.000000 0.000000 0.000000 0.039572 0.000000
# 6 0.000000 0.000000 0.000000 0.000000 0.000000 0.054810
#
#
# Mechanical properties :
#
#
# Convention : Reuss Voigt Hill
#
# Bulk Modulus (GPa) = 55.46260 56.09106 55.77683
# Shear Modulus (GPa) = 24.42139 25.35285 24.88712
#
# Velocity S-wave (km/s) = 3.93757 4.01196 3.97494
# Velocity P-wave (km/s) = 7.47558 7.55459 7.51519
#
# Compressibility (1/GPa) = 0.01803017
#
# Stress axis : x y z
#
# Youngs Moduli (GPa) = 59.65455 66.01328 71.17248
#
# Poissons Ratio (x) = 0.29657 0.34420
# Poissons Ratio (y) = 0.26800 0.33004
# Poissons Ratio (z) = 0.28850 0.30612
#
# Static dielectric constant tensor:
#      x y z
#    x 2.946920 0.000000 0.000000 
#    y 0.000000 3.273380 0.000000 
#    z 0.000000 0.000000 20.420370 
# 
# 
# High freq. dielectric constant tensor:
#      x y z
#    x 1.602070 0.000000 0.000000 
#    y 0.000000 1.605500 0.000000 
#    z 0.000000 0.000000 1.581970 
# 
# From -- ./inp_files/18939.got.cif
#   From: 2010.03.12/outbox.cif.g09.slc.cpg/sg69_10_cif.got.tgz:18939.got - 2010.04.10 23:52:46.
