data_PCOD8284612
_publ_section_title
;
Structure prediction by ZEFSAII (Michael W. Deem and Ramdas Pophale) SiO2 
 PCOD8284612
Probable space group: F M M M
;
_chemical_formula_sum "Si O2"
_cell_formula_units_Z 192
_cell_length_a 15.058800
_cell_length_b 25.122644
_cell_length_c 26.384152
_cell_angle_alpha 90.000000
_cell_angle_beta 90.000000
_cell_angle_gamma 90.000000
_cell_volume 9981.569841
_symmetry_space_group_name_H-M "F M M M"
_symmetry_group_IT_number 69
_symmetry_cell_setting 'orthorhombic'
loop_
_space_group_symop_operation_xyz
x,y,z
-x,-y,z
x,-y,-z
-x,y,-z
-x,-y,-z
x,y,-z
-x,y,z
x,-y,z
x,1/2+y,1/2+z
-x,1/2-y,1/2+z
x,1/2-y,1/2-z
-x,1/2+y,1/2-z
-x,1/2-y,1/2-z
x,1/2+y,1/2-z
-x,1/2+y,1/2+z
x,1/2-y,1/2+z
1/2+x,y,1/2+z
1/2-x,-y,1/2+z
1/2+x,-y,1/2-z
1/2-x,y,1/2-z
1/2-x,-y,1/2-z
1/2+x,y,1/2-z
1/2-x,y,1/2+z
1/2+x,-y,1/2+z
1/2+x,1/2+y,z
1/2-x,1/2-y,z
1/2+x,1/2-y,-z
1/2-x,1/2+y,-z
1/2-x,1/2-y,-z
1/2+x,1/2+y,-z
1/2-x,1/2+y,z
1/2+x,1/2-y,z
loop_
_atom_site_type_symbol
_atom_site_label
_atom_site_fract_x
_atom_site_fract_y
_atom_site_fract_z
Si Si1 0.403156 0.500000 0.322222
Si Si2 0.399044 0.085894 0.640081
Si Si3 0.645897 0.691320 0.691194
Si Si4 0.756454 0.061892 0.058280
Si Si5 0.855132 0.188474 0.805506
Si Si6 0.840982 0.500000 0.717883
Si Si7 0.898984 0.099707 0.619087
O O1 0.500000 0.500000 0.346438
O O2 0.414361 0.500000 0.261646
O O3 0.358830 0.445885 0.343076
O O4 0.500000 0.065684 0.631389
O O5 0.344311 0.079425 0.588502
O O6 0.402307 0.147335 0.656904
O O7 0.350156 0.052229 0.683786
O O8 0.750419 0.683064 0.688504
O O9 0.616983 0.751801 0.679137
O O10 0.614106 0.676268 0.747899
O O11 0.599811 0.654967 0.649232
O O12 0.670384 0.098069 0.072576
O O13 0.733945 0.000000 0.068231
O O14 0.778379 0.072858 0.000000
O O15 0.750000 0.500000 0.750000
O O16 0.000000 0.089789 0.599857
#
# Coordination Sequence:
#
# PCOD8284612 Si02
#       7
#    16  32  32  32  32  16  32
#     4  10  20  32  48  81 120 151 178 217 277 344
#     4  12  24  39  60  88 119 156 204 251 295 349
#     4   9  18  34  57  88 123 166 202 233 282 341
#     4  11  24  43  64  84 112 152 196 251 316 367
#     4   9  19  34  57  86 124 165 204 237 274 343
#     4  12  24  34  54  83 122 160 189 234 285 349
#     4  11  21  36  60  89 121 152 194 244 295 361
#
# _framework density 19.235451999999999
#
# number of rings (size 3 to 8) (size 9 to 14) (size 15 to 20)
#    0.000    1.500    3.333    3.750    2.333    3.333 
#    0.000    3.333    0.000    2.000    0.000    2.333 
#    0.000    0.000    0.000    0.000    0.000    0.000 
#
# Total GULP energy -595056.229032 kJ/mol
# GULP energy per Si atom -12397.004772 kJ/mol
# Density = 1.919167 g / cm^3
# Si number density = 19.235452 Si / 1000 Ang^3
#
#
#
# Elastic Constant Matrix: (Units=GPa)
#
#
# Indices 1 2 3 4 5 6 
#
# 1 118.0748 28.0507 51.4146 0.0000 0.0000 0.0000
# 2 28.0507 106.2439 51.5919 0.0000 0.0000 0.0000
# 3 51.4146 51.5919 114.1089 0.0000 0.0000 0.0000
# 4 0.0000 0.0000 0.0000 25.7477 0.0000 0.0000
# 5 0.0000 0.0000 0.0000 0.0000 10.9785 0.0000
# 6 0.0000 0.0000 0.0000 0.0000 0.0000 18.6021
#
#
#
# Elastic Compliance Matrix: (Units=1/GPa)
#
#
# Indices 1 2 3 4 5 6 
#
# 1 0.010567 -0.000612 -0.004485 0.000000 0.000000 0.000000
# 2 -0.000612 0.012096 -0.005193 0.000000 0.000000 0.000000
# 3 -0.004485 -0.005193 0.013132 0.000000 0.000000 0.000000
# 4 0.000000 0.000000 0.000000 0.038838 0.000000 0.000000
# 5 0.000000 0.000000 0.000000 0.000000 0.091088 0.000000
# 6 0.000000 0.000000 0.000000 0.000000 0.000000 0.053757
#
#
# Mechanical properties :
#
#
# Convention : Reuss Voigt Hill
#
# Bulk Modulus (GPa) = 65.72224 66.72689 66.22457
# Shear Modulus (GPa) = 20.39735 24.89034 22.64385
#
# Velocity S-wave (km/s) = 3.25992 3.60110 3.43475
# Velocity P-wave (km/s) = 6.95779 7.21494 7.08753
#
# Compressibility (1/GPa) = 0.01521555
#
# Stress axis : x y z
#
# Youngs Moduli (GPa) = 94.63028 82.67449 76.14962
#
# Poissons Ratio (x) = 0.05062 0.34150
# Poissons Ratio (y) = 0.05795 0.39544
# Poissons Ratio (z) = 0.42438 0.42932
#
# Static dielectric constant tensor:
#      x y z
#    x 3.547030 0.000000 0.000000 
#    y 0.000000 3.645870 0.000000 
#    z 0.000000 0.000000 3.289570 
# 
# 
# High freq. dielectric constant tensor:
#      x y z
#    x 1.756120 0.000000 0.000000 
#    y 0.000000 1.748720 0.000000 
#    z 0.000000 0.000000 1.713980 
# 
# From -- ./inp_files/36120.got.cif
#   From: 2010.03.12/outbox.cif.g09.slc.cpg/sg69_19_cif.got.tgz:36120.got - 2010.04.10 23:52:46.
