data_PCOD8284688
_publ_section_title
;
Structure prediction by ZEFSAII (Michael W. Deem and Ramdas Pophale) SiO2 
 PCOD8284688
Probable space group: F M M M
;
_chemical_formula_sum "Si O2"
_cell_formula_units_Z 176
_cell_length_a 20.924174
_cell_length_b 17.861505
_cell_length_c 26.283524
_cell_angle_alpha 90.000000
_cell_angle_beta 90.000000
_cell_angle_gamma 90.000000
_cell_volume 9823.131678
_symmetry_space_group_name_H-M "F M M M"
_symmetry_group_IT_number 69
_symmetry_cell_setting 'orthorhombic'
loop_
_space_group_symop_operation_xyz
x,y,z
-x,-y,z
x,-y,-z
-x,y,-z
-x,-y,-z
x,y,-z
-x,y,z
x,-y,z
x,1/2+y,1/2+z
-x,1/2-y,1/2+z
x,1/2-y,1/2-z
-x,1/2+y,1/2-z
-x,1/2-y,1/2-z
x,1/2+y,1/2-z
-x,1/2+y,1/2+z
x,1/2-y,1/2+z
1/2+x,y,1/2+z
1/2-x,-y,1/2+z
1/2+x,-y,1/2-z
1/2-x,y,1/2-z
1/2-x,-y,1/2-z
1/2+x,y,1/2-z
1/2-x,y,1/2+z
1/2+x,-y,1/2+z
1/2+x,1/2+y,z
1/2-x,1/2-y,z
1/2+x,1/2-y,-z
1/2-x,1/2+y,-z
1/2-x,1/2-y,-z
1/2+x,1/2+y,-z
1/2-x,1/2+y,z
1/2+x,1/2-y,z
loop_
_atom_site_type_symbol
_atom_site_label
_atom_site_fract_x
_atom_site_fract_y
_atom_site_fract_z
Si Si1 0.072283 0.587916 0.702670
Si Si2 0.749758 0.085614 0.058670
Si Si3 0.124214 0.351020 0.599337
Si Si4 0.179952 0.334764 0.767150
Si Si5 0.427481 0.081895 0.500000
Si Si6 0.813619 0.702569 0.120485
O O1 0.079650 0.500000 0.698602
O O2 0.085032 0.621684 0.647480
O O3 0.123742 0.616720 0.742959
O O4 0.000000 0.610113 0.719424
O O5 0.808674 0.104689 0.095648
O O6 0.692574 0.140809 0.075708
O O7 0.728026 0.000000 0.065941
O O8 0.768541 0.102451 0.000000
O O9 0.085634 0.368071 0.548803
O O10 0.132149 0.261308 0.603782
O O11 0.171298 0.250000 0.750000
O O12 0.250000 0.364956 0.750000
O O13 0.170262 0.340885 0.827604
O O14 0.500000 0.059833 0.500000
O O15 0.390190 0.000000 0.500000
O O16 0.750000 0.750000 0.130406
#
# Coordination Sequence:
#
# PCOD8284688 Si02
#       6
#    32  32  32  32  16  32
#     4  11  24  39  57  84 117 152 191 234 283 343
#     4  10  20  33  53  82 114 146 183 229 283 338
#     4  11  20  34  54  77 109 147 185 223 274 335
#     4  11  19  38  59  82 111 145 190 233 279 333
#     4  11  22  34  49  70 103 141 178 221 264 324
#     4  10  20  33  55  81 110 142 181 231 282 331
#
# _framework density 17.916892000000001
#
# number of rings (size 3 to 8) (size 9 to 14) (size 15 to 20)
#    0.000    1.364    4.545    3.273    1.273    4.000 
#    0.000    0.000    0.000    0.000    0.000    0.000 
#    0.000    0.727    0.000    0.000    0.000    0.000 
#
# Total GULP energy -545566.856681 kJ/mol
# GULP energy per Si atom -12399.246743 kJ/mol
# Density = 1.787611 g / cm^3
# Si number density = 17.916892 Si / 1000 Ang^3
#
#
#
# Elastic Constant Matrix: (Units=GPa)
#
#
# Indices 1 2 3 4 5 6 
#
# 1 83.4446 52.4914 20.6208 0.0000 0.0000 0.0000
# 2 52.4914 96.2884 38.1842 0.0000 0.0000 0.0000
# 3 20.6208 38.1842 76.2001 0.0000 0.0000 0.0000
# 4 0.0000 0.0000 0.0000 26.2608 0.0000 0.0000
# 5 0.0000 0.0000 0.0000 0.0000 20.2270 0.0000
# 6 0.0000 0.0000 0.0000 0.0000 0.0000 26.6626
#
#
#
# Elastic Compliance Matrix: (Units=1/GPa)
#
#
# Indices 1 2 3 4 5 6 
#
# 1 0.018239 -0.009966 0.000058 0.000000 0.000000 0.000000
# 2 -0.009966 0.018407 -0.006527 0.000000 0.000000 0.000000
# 3 0.000058 -0.006527 0.016378 0.000000 0.000000 0.000000
# 4 0.000000 0.000000 0.000000 0.038080 0.000000 0.000000
# 5 0.000000 0.000000 0.000000 0.000000 0.049439 0.000000
# 6 0.000000 0.000000 0.000000 0.000000 0.000000 0.037506
#
#
# Mechanical properties :
#
#
# Convention : Reuss Voigt Hill
#
# Bulk Modulus (GPa) = 49.61594 53.16954 51.39274
# Shear Modulus (GPa) = 22.97429 24.27252 23.62341
#
# Velocity S-wave (km/s) = 3.58476 3.68466 3.63505
# Velocity P-wave (km/s) = 6.69973 6.91681 6.80914
#
# Compressibility (1/GPa) = 0.02015481
#
# Stress axis : x y z
#
# Youngs Moduli (GPa) = 54.82841 54.32835 61.05706
#
# Poissons Ratio (x) = 0.54143 -0.00356
# Poissons Ratio (y) = 0.54642 0.39850
# Poissons Ratio (z) = -0.00320 0.35459
#
# Static dielectric constant tensor:
#      x y z
#    x 3.280430 0.000000 0.000000 
#    y 0.000000 3.408140 0.000000 
#    z 0.000000 0.000000 3.481440 
# 
# 
# High freq. dielectric constant tensor:
#      x y z
#    x 1.668090 0.000000 0.000000 
#    y 0.000000 1.691710 0.000000 
#    z 0.000000 0.000000 1.701570 
# 
# From -- ./inp_files/41825.got.cif
#   From: 2010.03.12/outbox.cif.g09.slc.cpg/sg69_21_cif.got.tgz:41825.got - 2010.04.10 23:52:46.
