data_PCOD8284417
_publ_section_title
;
Structure prediction by ZEFSAII (Michael W. Deem and Ramdas Pophale) SiO2 
 PCOD8284417
Probable space group: F M M M
;
_chemical_formula_sum "Si O2"
_cell_formula_units_Z 136
_cell_length_a 20.397300
_cell_length_b 13.308835
_cell_length_c 26.124505
_cell_angle_alpha 90.000000
_cell_angle_beta 90.000000
_cell_angle_gamma 90.000000
_cell_volume 7091.870466
_symmetry_space_group_name_H-M "F M M M"
_symmetry_group_IT_number 69
_symmetry_cell_setting 'orthorhombic'
loop_
_space_group_symop_operation_xyz
x,y,z
-x,-y,z
x,-y,-z
-x,y,-z
-x,-y,-z
x,y,-z
-x,y,z
x,-y,z
x,1/2+y,1/2+z
-x,1/2-y,1/2+z
x,1/2-y,1/2-z
-x,1/2+y,1/2-z
-x,1/2-y,1/2-z
x,1/2+y,1/2-z
-x,1/2+y,1/2+z
x,1/2-y,1/2+z
1/2+x,y,1/2+z
1/2-x,-y,1/2+z
1/2+x,-y,1/2-z
1/2-x,y,1/2-z
1/2-x,-y,1/2-z
1/2+x,y,1/2-z
1/2-x,y,1/2+z
1/2+x,-y,1/2+z
1/2+x,1/2+y,z
1/2-x,1/2-y,z
1/2+x,1/2-y,-z
1/2-x,1/2+y,-z
1/2-x,1/2-y,-z
1/2+x,1/2+y,-z
1/2-x,1/2+y,z
1/2+x,1/2-y,z
loop_
_atom_site_type_symbol
_atom_site_label
_atom_site_fract_x
_atom_site_fract_y
_atom_site_fract_z
Si Si1 0.820733 0.000000 0.500000
Si Si2 0.927400 0.709705 0.113786
Si Si3 0.309634 0.173423 0.661600
Si Si4 0.426740 0.830964 0.000000
Si Si5 0.325992 0.000000 0.261681
Si Si6 0.248878 0.000000 0.103475
Si Si7 0.384813 0.000000 0.154302
O O1 0.867217 0.906165 0.500000
O O2 0.770934 0.000000 0.546024
O O3 0.872890 0.765094 0.145879
O O4 0.918471 0.731156 0.052782
O O5 0.921740 0.592697 0.128270
O O6 0.000000 0.746743 0.129968
O O7 0.250000 0.250000 0.676287
O O8 0.290818 0.102102 0.614020
O O9 0.335219 0.104126 0.707811
O O10 0.500000 0.880437 0.000000
O O11 0.250000 0.000000 0.250000
O O12 0.380598 0.000000 0.216370
O O13 0.308508 0.000000 0.142375
#
# Coordination Sequence:
#
# PCOD8284417 Si02
#       7
#     8  32  32  16  16  16  16
#     4  12  17  32  56  90 121 150 184 240 310 336
#     4  11  23  39  61  88 121 156 192 239 295 351
#     4  11  21  40  60  86 119 152 198 245 289 346
#     4  10  19  33  58  86 115 156 195 226 283 365
#     4  11  22  37  61  87 112 156 206 240 286 347
#     4  11  22  35  56  90 121 148 189 243 294 336
#     4  12  20  39  56  90 120 144 195 252 285 336
#
# _framework density 19.176888000000002
#
# number of rings (size 3 to 8) (size 9 to 14) (size 15 to 20)
#    0.000    0.941    7.059    0.529    0.000    6.118 
#    0.000    8.235    0.000    0.000    0.000   10.706 
#    0.000    0.000    0.000    0.000    0.000    0.000 
#
# Total GULP energy -421284.372117 kJ/mol
# GULP energy per Si atom -12390.716827 kJ/mol
# Density = 1.913324 g / cm^3
# Si number density = 19.176888 Si / 1000 Ang^3
#
#
#
# Elastic Constant Matrix: (Units=GPa)
#
#
# Indices 1 2 3 4 5 6 
#
# 1 92.9134 26.4269 31.0305 0.0000 0.0000 0.0000
# 2 26.4269 88.8763 29.0991 0.0000 0.0000 0.0000
# 3 31.0305 29.0991 122.0464 0.0000 0.0000 0.0000
# 4 0.0000 0.0000 0.0000 19.8556 0.0000 0.0000
# 5 0.0000 0.0000 0.0000 0.0000 164.5676 0.0000
# 6 0.0000 0.0000 0.0000 0.0000 0.0000 16.2343
#
#
#
# Elastic Compliance Matrix: (Units=1/GPa)
#
#
# Indices 1 2 3 4 5 6 
#
# 1 0.012406 -0.002881 -0.002467 0.000000 0.000000 0.000000
# 2 -0.002881 0.012873 -0.002337 0.000000 0.000000 0.000000
# 3 -0.002467 -0.002337 0.009378 0.000000 0.000000 0.000000
# 4 0.000000 0.000000 0.000000 0.050364 0.000000 0.000000
# 5 0.000000 0.000000 0.000000 0.000000 0.006077 0.000000
# 6 0.000000 0.000000 0.000000 0.000000 0.000000 0.061598
#
#
# Mechanical properties :
#
#
# Convention : Reuss Voigt Hill
#
# Bulk Modulus (GPa) = 51.84810 52.99434 52.42122
# Shear Modulus (GPa) = 28.65408 54.61681 41.63545
#
# Velocity S-wave (km/s) = 3.86968 5.34251 4.66459
# Velocity P-wave (km/s) = 6.86013 8.10870 7.51040
#
# Compressibility (1/GPa) = 0.01928711
#
# Stress axis : x y z
#
# Youngs Moduli (GPa) = 80.60489 77.67966 106.63136
#
# Poissons Ratio (x) = 0.22380 0.26310
# Poissons Ratio (y) = 0.23223 0.24918
# Poissons Ratio (z) = 0.19888 0.18153
#
# Static dielectric constant tensor:
#      x y z
#    x 3.468240 0.000000 0.000000 
#    y 0.000000 2.521800 0.000000 
#    z 0.000000 0.000000 3.971580 
# 
# 
# High freq. dielectric constant tensor:
#      x y z
#    x 1.743580 0.000000 0.000000 
#    y 0.000000 1.733450 0.000000 
#    z 0.000000 0.000000 1.754000 
# 
# From -- ./inp_files/29125.got.cif
#   From: 2010.03.12/outbox.cif.g09.slc.cpg/sg69_15_cif.got.tgz:29125.got - 2010.04.10 23:52:46.
