data_PCOD8284510
_publ_section_title
;
Structure prediction by ZEFSAII (Michael W. Deem and Ramdas Pophale) SiO2 
 PCOD8284510
Probable space group: F M M M
;
_chemical_formula_sum "Si O2"
_cell_formula_units_Z 224
_cell_length_a 18.227544
_cell_length_b 30.342466
_cell_length_c 21.992883
_cell_angle_alpha 90.000000
_cell_angle_beta 90.000000
_cell_angle_gamma 90.000000
_cell_volume 12163.573760
_symmetry_space_group_name_H-M "F M M M"
_symmetry_group_IT_number 69
_symmetry_cell_setting 'orthorhombic'
loop_
_space_group_symop_operation_xyz
x,y,z
-x,-y,z
x,-y,-z
-x,y,-z
-x,-y,-z
x,y,-z
-x,y,z
x,-y,z
x,1/2+y,1/2+z
-x,1/2-y,1/2+z
x,1/2-y,1/2-z
-x,1/2+y,1/2-z
-x,1/2-y,1/2-z
x,1/2+y,1/2-z
-x,1/2+y,1/2+z
x,1/2-y,1/2+z
1/2+x,y,1/2+z
1/2-x,-y,1/2+z
1/2+x,-y,1/2-z
1/2-x,y,1/2-z
1/2-x,-y,1/2-z
1/2+x,y,1/2-z
1/2-x,y,1/2+z
1/2+x,-y,1/2+z
1/2+x,1/2+y,z
1/2-x,1/2-y,z
1/2+x,1/2-y,-z
1/2-x,1/2+y,-z
1/2-x,1/2-y,-z
1/2+x,1/2+y,-z
1/2-x,1/2+y,z
1/2+x,1/2-y,z
loop_
_atom_site_type_symbol
_atom_site_label
_atom_site_fract_x
_atom_site_fract_y
_atom_site_fract_z
Si Si1 0.672401 0.048527 0.721082
Si Si2 0.084046 0.627043 0.238576
Si Si3 0.274313 0.448876 0.500000
Si Si4 0.709752 0.394088 0.892736
Si Si5 0.641452 0.344325 0.612887
Si Si6 0.415860 0.100818 0.000000
Si Si7 0.083931 0.243981 0.430207
Si Si8 0.415871 0.335585 0.868351
O O1 0.750000 0.040569 0.750000
O O2 0.624432 0.079830 0.764501
O O3 0.683096 0.073183 0.658599
O O4 0.635183 0.000000 0.712529
O O5 0.100154 0.653457 0.177152
O O6 0.105906 0.656872 0.297268
O O7 0.000000 0.614827 0.242622
O O8 0.257472 0.500000 0.500000
O O9 0.235614 0.426542 0.443980
O O10 0.362169 0.441414 0.500000
O O11 0.775539 0.360583 0.876097
O O12 0.638515 0.364856 0.910205
O O13 0.599618 0.371471 0.560726
O O14 0.640198 0.293687 0.591374
O O15 0.500000 0.084752 0.000000
O O16 0.100790 0.257365 0.500000
O O17 0.096663 0.285016 0.385676
O O18 0.000000 0.226910 0.424551
O O19 0.500000 0.349680 0.881359
#
# Coordination Sequence:
#
# PCOD8284510 Si02
#       8
#    32  32  16  32  32  16  32  32
#     4  10  19  35  58  79 106 146 185 222 272 330
#     4  10  20  35  56  83 113 145 183 230 279 327
#     4  10  22  37  56  83 109 140 184 226 274 335
#     4  10  21  37  58  81 111 147 180 229 280 332
#     4  11  20  34  56  83 113 149 186 225 273 328
#     4  10  20  35  53  78 112 151 185 220 268 323
#     4  10  20  35  56  81 111 149 190 227 270 332
#     4   9  21  38  56  81 110 144 186 232 283 328
#
# _framework density 18.415641000000001
#
# number of rings (size 3 to 8) (size 9 to 14) (size 15 to 20)
#    0.000    2.000    2.143    1.714    1.000    1.571 
#    0.000    2.857    0.000    5.143    0.000    0.000 
#    0.000    0.000    0.000    0.000    0.000    0.000 
#
# Total GULP energy -694169.158647 kJ/mol
# GULP energy per Si atom -12395.877833 kJ/mol
# Density = 1.837373 g / cm^3
# Si number density = 18.415641 Si / 1000 Ang^3
#
#
#
# Elastic Constant Matrix: (Units=GPa)
#
#
# Indices 1 2 3 4 5 6 
#
# 1 67.9970 37.0969 28.1457 0.0000 0.0000 0.0000
# 2 37.0969 118.7921 42.1791 0.0000 0.0000 0.0000
# 3 28.1457 42.1791 81.1784 0.0000 0.0000 0.0000
# 4 0.0000 0.0000 0.0000 14.9599 0.0000 0.0000
# 5 0.0000 0.0000 0.0000 0.0000 7.8696 0.0000
# 6 0.0000 0.0000 0.0000 0.0000 0.0000 24.0669
#
#
#
# Elastic Compliance Matrix: (Units=1/GPa)
#
#
# Indices 1 2 3 4 5 6 
#
# 1 0.018859 -0.004375 -0.004266 0.000000 0.000000 0.000000
# 2 -0.004375 0.011337 -0.004374 0.000000 0.000000 0.000000
# 3 -0.004266 -0.004374 0.016070 0.000000 0.000000 0.000000
# 4 0.000000 0.000000 0.000000 0.066845 0.000000 0.000000
# 5 0.000000 0.000000 0.000000 0.000000 0.127071 0.000000
# 6 0.000000 0.000000 0.000000 0.000000 0.000000 0.041551
#
#
# Mechanical properties :
#
#
# Convention : Reuss Voigt Hill
#
# Bulk Modulus (GPa) = 49.41252 53.64565 51.52908
# Shear Modulus (GPa) = 15.89784 20.08234 17.99009
#
# Velocity S-wave (km/s) = 2.94135 3.30586 3.12892
# Velocity P-wave (km/s) = 6.19883 6.61554 6.41057
#
# Compressibility (1/GPa) = 0.02023779
#
# Stress axis : x y z
#
# Youngs Moduli (GPa) = 53.02539 88.20483 62.22746
#
# Poissons Ratio (x) = 0.38588 0.26544
# Poissons Ratio (y) = 0.23197 0.27217
# Poissons Ratio (z) = 0.22618 0.38580
#
# Static dielectric constant tensor:
#      x y z
#    x 3.517470 0.000000 0.000000 
#    y 0.000000 3.454410 0.000000 
#    z 0.000000 0.000000 3.453990 
# 
# 
# High freq. dielectric constant tensor:
#      x y z
#    x 1.713060 0.000000 0.000000 
#    y 0.000000 1.711900 0.000000 
#    z 0.000000 0.000000 1.717900 
# 
# From -- ./inp_files/31217.got.cif
#   From: 2010.03.12/outbox.cif.g09.slc.cpg/sg69_16_cif.got.tgz:31217.got - 2010.04.10 23:52:46.
