data_PCOD8284723
_publ_section_title
;
Structure prediction by ZEFSAII (Michael W. Deem and Ramdas Pophale) SiO2 
 PCOD8284723
Probable space group: F M M M
;
_chemical_formula_sum "Si O2"
_cell_formula_units_Z 208
_cell_length_a 23.718350
_cell_length_b 27.488645
_cell_length_c 18.245663
_cell_angle_alpha 90.000000
_cell_angle_beta 90.000000
_cell_angle_gamma 90.000000
_cell_volume 11895.904122
_symmetry_space_group_name_H-M "F M M M"
_symmetry_group_IT_number 69
_symmetry_cell_setting 'orthorhombic'
loop_
_space_group_symop_operation_xyz
x,y,z
-x,-y,z
x,-y,-z
-x,y,-z
-x,-y,-z
x,y,-z
-x,y,z
x,-y,z
x,1/2+y,1/2+z
-x,1/2-y,1/2+z
x,1/2-y,1/2-z
-x,1/2+y,1/2-z
-x,1/2-y,1/2-z
x,1/2+y,1/2-z
-x,1/2+y,1/2+z
x,1/2-y,1/2+z
1/2+x,y,1/2+z
1/2-x,-y,1/2+z
1/2+x,-y,1/2-z
1/2-x,y,1/2-z
1/2-x,-y,1/2-z
1/2+x,y,1/2-z
1/2-x,y,1/2+z
1/2+x,-y,1/2+z
1/2+x,1/2+y,z
1/2-x,1/2-y,z
1/2+x,1/2-y,-z
1/2-x,1/2+y,-z
1/2-x,1/2-y,-z
1/2+x,1/2+y,-z
1/2-x,1/2+y,z
1/2+x,1/2-y,z
loop_
_atom_site_type_symbol
_atom_site_label
_atom_site_fract_x
_atom_site_fract_y
_atom_site_fract_z
Si Si1 0.434662 0.000000 0.914041
Si Si2 0.933148 0.767220 0.918196
Si Si3 0.064463 0.827308 0.668042
Si Si4 0.935979 0.357716 0.667544
Si Si5 0.752899 0.556127 0.582476
Si Si6 0.859749 0.915836 0.645434
Si Si7 0.853197 0.557121 0.690120
O O1 0.406909 0.953228 0.879160
O O2 0.500000 0.000000 0.892634
O O3 0.424463 0.000000 0.000000
O O4 0.915008 0.724720 0.862370
O O5 0.909615 0.819422 0.890500
O O6 0.000000 0.770760 0.918587
O O7 0.909778 0.756824 0.000000
O O8 0.067977 0.829547 0.755410
O O9 0.109473 0.864726 0.635819
O O10 0.000000 0.838692 0.642164
O O11 0.904979 0.409483 0.664525
O O12 0.000000 0.370788 0.648397
O O13 0.774889 0.565871 0.500000
O O14 0.736824 0.500000 0.594208
O O15 0.695484 0.585962 0.594883
O O16 0.800434 0.571834 0.639840
O O17 0.838307 0.929647 0.726618
O O18 0.868712 0.500000 0.681208
#
# Coordination Sequence:
#
# PCOD8284723 Si02
#       7
#    16  32  32  32  32  32  32
#     4  11  22  32  45  72 111 145 167 198 246 298
#     4   9  17  30  49  72  99 133 171 209 249 301
#     4   9  18  31  49  75 104 134 168 206 248 300
#     4   9  18  32  51  75 103 134 166 205 259 309
#     4  10  20  34  52  71  98 135 177 220 261 302
#     4  11  19  33  52  74 103 139 176 209 248 302
#     4  10  20  34  52  78 102 133 174 219 254 301
#
# _framework density 17.485009999999999
#
# number of rings (size 3 to 8) (size 9 to 14) (size 15 to 20)
#    0.000    2.231    1.538    1.846    0.000    5.846 
#    0.000    1.538    0.000    0.923    0.000   10.769 
#    0.000    0.000    0.000    0.000    0.000    0.000 
#
# Total GULP energy -644667.549629 kJ/mol
# GULP energy per Si atom -12397.452877 kJ/mol
# Density = 1.744521 g / cm^3
# Si number density = 17.485010 Si / 1000 Ang^3
#
#
#
# Elastic Constant Matrix: (Units=GPa)
#
#
# Indices 1 2 3 4 5 6 
#
# 1 70.8455 33.7013 39.8266 0.0000 0.0000 0.0000
# 2 33.7013 95.7241 30.2428 0.0000 0.0000 0.0000
# 3 39.8266 30.2428 77.6483 0.0000 0.0000 0.0000
# 4 0.0000 0.0000 0.0000 -11.3681 0.0000 0.0000
# 5 0.0000 0.0000 0.0000 0.0000 23.5526 0.0000
# 6 0.0000 0.0000 0.0000 0.0000 0.0000 12.9501
#
#
#
# Elastic Compliance Matrix: (Units=1/GPa)
#
#
# Indices 1 2 3 4 5 6 
#
# 1 0.021516 -0.004662 -0.009220 0.000000 0.000000 0.000000
# 2 -0.004662 0.012923 -0.002642 0.000000 0.000000 0.000000
# 3 -0.009220 -0.002642 0.018637 0.000000 0.000000 0.000000
# 4 0.000000 0.000000 0.000000 -0.087965 0.000000 0.000000
# 5 0.000000 0.000000 0.000000 0.000000 0.042458 0.000000
# 6 0.000000 0.000000 0.000000 0.000000 0.000000 0.077220
#
#
# Mechanical properties :
#
#
# Convention : Reuss Voigt Hill
#
# Bulk Modulus (GPa) = 49.93189 50.19549 50.06369
# Shear Modulus (GPa) = 40.15678 14.39006 27.27342
#
# Velocity S-wave (km/s) = 4.79753 2.87190 3.95374
# Velocity P-wave (km/s) = 7.70112 6.30612 7.03827
#
# Compressibility (1/GPa) = 0.02002728
#
# Stress axis : x y z
#
# Youngs Moduli (GPa) = 46.47664 77.38270 53.65785
#
# Poissons Ratio (x) = 0.36077 0.49473
# Poissons Ratio (y) = 0.21668 0.14176
# Poissons Ratio (z) = 0.42852 0.20444
#
# Static dielectric constant tensor:
#      x y z
#    x 3.061900 0.000000 0.000000 
#    y 0.000000 3.254400 0.000000 
#    z 0.000000 0.000000 3.412460 
# 
# 
# High freq. dielectric constant tensor:
#      x y z
#    x 1.651920 0.000000 0.000000 
#    y 0.000000 1.668880 0.000000 
#    z 0.000000 0.000000 1.683370 
# 
# From -- ./inp_files/26120.got.cif
#   From: 2010.03.12/outbox.cif.g09.slc.cpg/sg69_14_cif.got.tgz:26120.got - 2010.04.10 23:52:46.
