data_PCOD8284399
_publ_section_title
;
Structure prediction by ZEFSAII (Michael W. Deem and Ramdas Pophale) SiO2 
 PCOD8284399
Probable space group: F M M M
;
_chemical_formula_sum "Si O2"
_cell_formula_units_Z 144
_cell_length_a 16.572249
_cell_length_b 20.454418
_cell_length_c 20.286001
_cell_angle_alpha 90.000000
_cell_angle_beta 90.000000
_cell_angle_gamma 90.000000
_cell_volume 6876.461556
_symmetry_space_group_name_H-M "F M M M"
_symmetry_group_IT_number 69
_symmetry_cell_setting 'orthorhombic'
loop_
_space_group_symop_operation_xyz
x,y,z
-x,-y,z
x,-y,-z
-x,y,-z
-x,-y,-z
x,y,-z
-x,y,z
x,-y,z
x,1/2+y,1/2+z
-x,1/2-y,1/2+z
x,1/2-y,1/2-z
-x,1/2+y,1/2-z
-x,1/2-y,1/2-z
x,1/2+y,1/2-z
-x,1/2+y,1/2+z
x,1/2-y,1/2+z
1/2+x,y,1/2+z
1/2-x,-y,1/2+z
1/2+x,-y,1/2-z
1/2-x,y,1/2-z
1/2-x,-y,1/2-z
1/2+x,y,1/2-z
1/2-x,y,1/2+z
1/2+x,-y,1/2+z
1/2+x,1/2+y,z
1/2-x,1/2-y,z
1/2+x,1/2-y,-z
1/2-x,1/2+y,-z
1/2-x,1/2-y,-z
1/2+x,1/2+y,-z
1/2-x,1/2+y,z
1/2+x,1/2-y,z
loop_
_atom_site_type_symbol
_atom_site_label
_atom_site_fract_x
_atom_site_fract_y
_atom_site_fract_z
Si Si1 0.403580 0.861976 0.425340
Si Si2 0.406786 0.500000 0.875333
Si Si3 0.406466 0.745322 0.177234
Si Si4 0.342627 0.000000 0.767711
Si Si5 0.411999 0.924436 0.000000
Si Si6 0.094170 0.108603 0.361799
O O1 0.375654 0.844212 0.500000
O O2 0.500000 0.861242 0.421545
O O3 0.368373 0.809424 0.371983
O O4 0.368785 0.933953 0.406672
O O5 0.500000 0.500000 0.893483
O O6 0.396941 0.500000 0.797072
O O7 0.500000 0.727378 0.186327
O O8 0.365769 0.750000 0.250000
O O9 0.392463 0.815314 0.146164
O O10 0.250000 0.000000 0.750000
O O11 0.360571 0.066023 0.807517
O O12 0.365613 0.905195 0.066796
O O13 0.500000 0.888604 0.000000
O O14 0.426733 0.000000 0.000000
O O15 0.000000 0.088383 0.359754
#
# Coordination Sequence:
#
# PCOD8284399 Si02
#       6
#    32  16  32  16  16  32
#     4   9  17  29  50  82 114 141 177 227 274 319
#     4  10  19  34  57  78 107 146 185 225 274 325
#     4   9  17  28  46  78 115 144 173 217 272 324
#     4  12  24  36  53  78 109 141 184 231 275 325
#     4   9  16  28  50  80 106 132 172 222 268 328
#     4  10  19  33  56  82 111 144 180 221 278 339
#
# _framework density 20.941002999999998
#
# number of rings (size 3 to 8) (size 9 to 14) (size 15 to 20)
#    0.000    2.333    1.111    2.667    1.556    4.889 
#    0.000    0.000    4.889    6.000    0.000    1.556 
#    0.000    0.000    0.000    0.000    0.000    0.000 
#
# Total GULP energy -446132.193265 kJ/mol
# GULP energy per Si atom -12392.560924 kJ/mol
# Density = 2.089334 g / cm^3
# Si number density = 20.941003 Si / 1000 Ang^3
#
#
#
# Elastic Constant Matrix: (Units=GPa)
#
#
# Indices 1 2 3 4 5 6 
#
# 1 24.5076 18.1426 11.9716 0.0000 0.0000 0.0000
# 2 18.1426 147.0727 91.5608 0.0000 0.0000 0.0000
# 3 11.9716 91.5608 211.5562 0.0000 0.0000 0.0000
# 4 0.0000 0.0000 0.0000 10.1812 0.0000 0.0000
# 5 0.0000 0.0000 0.0000 0.0000 8.5790 0.0000
# 6 0.0000 0.0000 0.0000 0.0000 0.0000 3.0790
#
#
#
# Elastic Compliance Matrix: (Units=1/GPa)
#
#
# Indices 1 2 3 4 5 6 
#
# 1 0.044910 -0.005418 -0.000197 0.000000 0.000000 0.000000
# 2 -0.005418 0.009961 -0.004004 0.000000 0.000000 0.000000
# 3 -0.000197 -0.004004 0.006471 0.000000 0.000000 0.000000
# 4 0.000000 0.000000 0.000000 0.098221 0.000000 0.000000
# 5 0.000000 0.000000 0.000000 0.000000 0.116563 0.000000
# 6 0.000000 0.000000 0.000000 0.000000 0.000000 0.324779
#
#
# Mechanical properties :
#
#
# Convention : Reuss Voigt Hill
#
# Bulk Modulus (GPa) = 23.75029 69.60961 46.67995
# Shear Modulus (GPa) = 7.88424 21.79861 14.84143
#
# Velocity S-wave (km/s) = 1.94246 3.22988 2.66508
# Velocity P-wave (km/s) = 4.04932 6.87186 5.64001
#
# Compressibility (1/GPa) = 0.04210474
#
# Stress axis : x y z
#
# Youngs Moduli (GPa) = 22.26658 100.39571 154.53411
#
# Poissons Ratio (x) = 0.54391 0.03039
# Poissons Ratio (y) = 0.12063 0.61881
# Poissons Ratio (z) = 0.00438 0.40202
#
# Static dielectric constant tensor:
#      x y z
#    x 3.050140 0.000000 0.000000 
#    y 0.000000 4.050210 0.000000 
#    z 0.000000 0.000000 4.235540 
# 
# 
# High freq. dielectric constant tensor:
#      x y z
#    x 1.735990 0.000000 0.000000 
#    y 0.000000 1.831870 0.000000 
#    z 0.000000 0.000000 1.846320 
# 
# From -- ./inp_files/30782.got.cif
#   From: 2010.03.12/outbox.cif.g09.slc.cpg/sg69_16_cif.got.tgz:30782.got - 2010.04.10 23:52:46.
