data_PCOD8284168
_publ_section_title
;
Structure prediction by ZEFSAII (Michael W. Deem and Ramdas Pophale) SiO2 
 PCOD8284168
Probable space group: F M M M
;
_chemical_formula_sum "Si O2"
_cell_formula_units_Z 176
_cell_length_a 34.101679
_cell_length_b 18.209838
_cell_length_c 16.175738
_cell_angle_alpha 90.000000
_cell_angle_beta 90.000000
_cell_angle_gamma 90.000000
_cell_volume 10044.907648
_symmetry_space_group_name_H-M "F M M M"
_symmetry_group_IT_number 69
_symmetry_cell_setting 'orthorhombic'
loop_
_space_group_symop_operation_xyz
x,y,z
-x,-y,z
x,-y,-z
-x,y,-z
-x,-y,-z
x,y,-z
-x,y,z
x,-y,z
x,1/2+y,1/2+z
-x,1/2-y,1/2+z
x,1/2-y,1/2-z
-x,1/2+y,1/2-z
-x,1/2-y,1/2-z
x,1/2+y,1/2-z
-x,1/2+y,1/2+z
x,1/2-y,1/2+z
1/2+x,y,1/2+z
1/2-x,-y,1/2+z
1/2+x,-y,1/2-z
1/2-x,y,1/2-z
1/2-x,-y,1/2-z
1/2+x,y,1/2-z
1/2-x,y,1/2+z
1/2+x,-y,1/2+z
1/2+x,1/2+y,z
1/2-x,1/2-y,z
1/2+x,1/2-y,-z
1/2-x,1/2+y,-z
1/2-x,1/2-y,-z
1/2+x,1/2+y,-z
1/2-x,1/2+y,z
1/2+x,1/2-y,z
loop_
_atom_site_type_symbol
_atom_site_label
_atom_site_fract_x
_atom_site_fract_y
_atom_site_fract_z
Si Si1 0.545092 0.418484 0.808692
Si Si2 0.342921 0.250000 0.250000
Si Si3 0.097248 0.148508 0.322069
Si Si4 0.205503 0.725681 0.904626
Si Si5 0.545437 0.726196 0.904325
Si Si6 0.833546 0.920954 0.594867
O O1 0.500000 0.411468 0.783088
O O2 0.553861 0.500000 0.845276
O O3 0.569471 0.408264 0.724845
O O4 0.556089 0.356270 0.875412
O O5 0.369908 0.178564 0.240628
O O6 0.318418 0.230953 0.333770
O O7 0.071833 0.215711 0.356628
O O8 0.121602 0.106229 0.392237
O O9 0.250000 0.750000 0.896645
O O10 0.199081 0.639882 0.879960
O O11 0.190660 0.740308 0.000000
O O12 0.500000 0.744257 0.886254
O O13 0.555465 0.731513 0.000000
O O14 0.828607 0.936182 0.500000
O O15 0.826188 0.000000 0.640649
#
# Coordination Sequence:
#
# PCOD8284168 Si02
#       6
#    32  16  32  32  32  32
#     4  10  20  33  49  69  97 135 176 217 263 315
#     4  10  19  30  51  78 104 132 164 210 257 304
#     4  11  18  32  49  75 100 133 167 213 263 309
#     4   9  18  33  54  78 103 134 169 205 246 302
#     4  10  20  33  50  71  97 133 180 227 265 310
#     4   9  18  31  50  77 105 131 163 205 256 312
#
# _framework density 17.521315999999999
#
# number of rings (size 3 to 8) (size 9 to 14) (size 15 to 20)
#    0.000    2.182    1.818    1.909    0.000    2.545 
#    0.000    1.818    0.000    9.818    0.000    7.636 
#    0.000    0.000    0.000    0.000    0.000    0.000 
#
# Total GULP energy -545145.927876 kJ/mol
# GULP energy per Si atom -12389.680179 kJ/mol
# Density = 1.748144 g / cm^3
# Si number density = 17.521316 Si / 1000 Ang^3
#
#
#
# Elastic Constant Matrix: (Units=GPa)
#
#
# Indices 1 2 3 4 5 6 
#
# 1 84.8140 51.3336 42.3261 0.0000 0.0000 0.0000
# 2 51.3336 113.3439 34.3814 0.0000 0.0000 0.0000
# 3 42.3261 34.3814 77.9994 0.0000 0.0000 0.0000
# 4 0.0000 0.0000 0.0000 18.7054 0.0000 0.0000
# 5 0.0000 0.0000 0.0000 0.0000 28.3364 0.0000
# 6 0.0000 0.0000 0.0000 0.0000 0.0000 19.9741
#
#
#
# Elastic Compliance Matrix: (Units=1/GPa)
#
#
# Indices 1 2 3 4 5 6 
#
# 1 0.019619 -0.006529 -0.007768 0.000000 0.000000 0.000000
# 2 -0.006529 0.012357 -0.001904 0.000000 0.000000 0.000000
# 3 -0.007768 -0.001904 0.017875 0.000000 0.000000 0.000000
# 4 0.000000 0.000000 0.000000 0.053461 0.000000 0.000000
# 5 0.000000 0.000000 0.000000 0.000000 0.035290 0.000000
# 6 0.000000 0.000000 0.000000 0.000000 0.000000 0.050065
#
#
# Mechanical properties :
#
#
# Convention : Reuss Voigt Hill
#
# Bulk Modulus (GPa) = 57.31000 59.13770 58.22385
# Shear Modulus (GPa) = 22.03751 23.27758 22.65755
#
# Velocity S-wave (km/s) = 3.55033 3.64885 3.59993
# Velocity P-wave (km/s) = 7.04175 7.18173 7.11209
#
# Compressibility (1/GPa) = 0.01744896
#
# Stress axis : x y z
#
# Youngs Moduli (GPa) = 50.97131 80.92399 55.94324
#
# Poissons Ratio (x) = 0.52836 0.43458
# Poissons Ratio (y) = 0.33279 0.10652
# Poissons Ratio (z) = 0.39595 0.15408
#
# Static dielectric constant tensor:
#      x y z
#    x 3.275020 0.000000 0.000000 
#    y 0.000000 3.773240 0.000000 
#    z 0.000000 0.000000 3.322570 
# 
# 
# High freq. dielectric constant tensor:
#      x y z
#    x 1.671990 0.000000 0.000000 
#    y 0.000000 1.675750 0.000000 
#    z 0.000000 0.000000 1.669610 
# 
# From -- ./inp_files/27707.got.cif
#   From: 2010.03.12/outbox.cif.g09.slc.cpg/sg69_14_cif.got.tgz:27707.got - 2010.04.10 23:52:46.
