data_PCOD8284487
_publ_section_title
;
Structure prediction by ZEFSAII (Michael W. Deem and Ramdas Pophale) SiO2 
 PCOD8284487
Probable space group: F M M M
;
_chemical_formula_sum "Si O2"
_cell_formula_units_Z 136
_cell_length_a 24.365039
_cell_length_b 15.959644
_cell_length_c 16.294680
_cell_angle_alpha 90.000000
_cell_angle_beta 90.000000
_cell_angle_gamma 90.000000
_cell_volume 6336.306059
_symmetry_space_group_name_H-M "F M M M"
_symmetry_group_IT_number 69
_symmetry_cell_setting 'orthorhombic'
loop_
_space_group_symop_operation_xyz
x,y,z
-x,-y,z
x,-y,-z
-x,y,-z
-x,-y,-z
x,y,-z
-x,y,z
x,-y,z
x,1/2+y,1/2+z
-x,1/2-y,1/2+z
x,1/2-y,1/2-z
-x,1/2+y,1/2-z
-x,1/2-y,1/2-z
x,1/2+y,1/2-z
-x,1/2+y,1/2+z
x,1/2-y,1/2+z
1/2+x,y,1/2+z
1/2-x,-y,1/2+z
1/2+x,-y,1/2-z
1/2-x,y,1/2-z
1/2-x,-y,1/2-z
1/2+x,y,1/2-z
1/2-x,y,1/2+z
1/2+x,-y,1/2+z
1/2+x,1/2+y,z
1/2-x,1/2-y,z
1/2+x,1/2-y,-z
1/2-x,1/2+y,-z
1/2-x,1/2-y,-z
1/2+x,1/2+y,-z
1/2-x,1/2+y,z
1/2+x,1/2-y,z
loop_
_atom_site_type_symbol
_atom_site_label
_atom_site_fract_x
_atom_site_fract_y
_atom_site_fract_z
Si Si1 0.000000 0.310691 0.672449
Si Si2 0.677939 0.405604 0.354417
Si Si3 0.293775 0.902482 0.595449
Si Si4 0.894496 0.100451 0.500000
Si Si5 0.500000 0.787647 0.000000
Si Si6 0.118914 0.839416 0.794281
O O1 0.000000 0.250000 0.750000
O O2 0.056122 0.364708 0.682359
O O3 0.000000 0.267414 0.583090
O O4 0.686642 0.500000 0.384168
O O5 0.739665 0.368280 0.355812
O O6 0.637861 0.364478 0.421014
O O7 0.648128 0.404644 0.266744
O O8 0.283450 0.887476 0.500000
O O9 0.344995 0.844453 0.623129
O O10 0.306860 0.000000 0.614227
O O11 0.950440 0.149192 0.500000
O O12 0.905072 0.000000 0.500000
O O13 0.122284 0.750000 0.750000
#
# Coordination Sequence:
#
# PCOD8284487 Si02
#       6
#    16  32  32  16   8  32
#     4  10  24  43  60  82 122 165 210 247 304 371
#     4  10  20  38  62  89 123 159 197 249 310 364
#     4  10  21  40  64  91 126 163 201 250 311 373
#     4  10  19  34  59  90 115 149 205 254 296 360
#     4  12  23  40  62  80 123 170 194 252 320 360
#     4  11  23  40  60  88 122 164 208 253 301 366
#
# _framework density 21.463609000000002
#
# number of rings (size 3 to 8) (size 9 to 14) (size 15 to 20)
#    0.000    1.647    1.176    4.412    1.647    3.765 
#    2.118    4.706    0.000    1.412    0.000    0.000 
#    0.000    0.000    0.000    0.000    0.000    0.000 
#
# Total GULP energy -421347.922695 kJ/mol
# GULP energy per Si atom -12392.585962 kJ/mol
# Density = 2.141476 g / cm^3
# Si number density = 21.463609 Si / 1000 Ang^3
#
#
#
# Elastic Constant Matrix: (Units=GPa)
#
#
# Indices 1 2 3 4 5 6 
#
# 1 237.5306 37.3193 64.8027 0.0000 0.0000 0.0000
# 2 37.3193 33.4689 16.7343 0.0000 0.0000 0.0000
# 3 64.8027 16.7343 118.8307 0.0000 0.0000 0.0000
# 4 0.0000 0.0000 0.0000 32.7671 0.0000 0.0000
# 5 0.0000 0.0000 0.0000 0.0000 41.7224 0.0000
# 6 0.0000 0.0000 0.0000 0.0000 0.0000 27.4403
#
#
#
# Elastic Compliance Matrix: (Units=1/GPa)
#
#
# Indices 1 2 3 4 5 6 
#
# 1 0.005661 -0.005130 -0.002365 0.000000 0.000000 0.000000
# 2 -0.005130 0.036790 -0.002383 0.000000 0.000000 0.000000
# 3 -0.002365 -0.002383 0.010041 0.000000 0.000000 0.000000
# 4 0.000000 0.000000 0.000000 0.030518 0.000000 0.000000
# 5 0.000000 0.000000 0.000000 0.000000 0.023968 0.000000
# 6 0.000000 0.000000 0.000000 0.000000 0.000000 0.036443
#
#
# Mechanical properties :
#
#
# Convention : Reuss Voigt Hill
#
# Bulk Modulus (GPa) = 30.54769 69.72697 50.13733
# Shear Modulus (GPa) = 28.72082 38.45087 33.58585
#
# Velocity S-wave (km/s) = 3.66200 4.23714 3.96002
# Velocity P-wave (km/s) = 5.66952 7.51628 6.65725
#
# Compressibility (1/GPa) = 0.03273570
#
# Stress axis : x y z
#
# Youngs Moduli (GPa) = 176.64277 27.18097 99.59584
#
# Poissons Ratio (x) = 0.13944 0.23552
# Poissons Ratio (y) = 0.90619 0.23738
# Poissons Ratio (z) = 0.41772 0.06478
#
# Static dielectric constant tensor:
#      x y z
#    x 4.339580 0.000000 0.000000 
#    y 0.000000 3.448380 0.000000 
#    z 0.000000 0.000000 4.186800 
# 
# 
# High freq. dielectric constant tensor:
#      x y z
#    x 1.862960 0.000000 0.000000 
#    y 0.000000 1.801180 0.000000 
#    z 0.000000 0.000000 1.855740 
# 
# From -- ./inp_files/22607.got.cif
#   From: 2010.03.12/outbox.cif.g09.slc.cpg/sg69_12_cif.got.tgz:22607.got - 2010.04.10 23:52:46.
