data_PCOD8284326
_publ_section_title
;
Structure prediction by ZEFSAII (Michael W. Deem and Ramdas Pophale) SiO2 
 PCOD8284326
Probable space group: F M M M
;
_chemical_formula_sum "Si O2"
_cell_formula_units_Z 136
_cell_length_a 25.751333
_cell_length_b 19.234964
_cell_length_c 14.952701
_cell_angle_alpha 90.000000
_cell_angle_beta 90.000000
_cell_angle_gamma 90.000000
_cell_volume 7406.461025
_symmetry_space_group_name_H-M "F M M M"
_symmetry_group_IT_number 69
_symmetry_cell_setting 'orthorhombic'
loop_
_space_group_symop_operation_xyz
x,y,z
-x,-y,z
x,-y,-z
-x,y,-z
-x,-y,-z
x,y,-z
-x,y,z
x,-y,z
x,1/2+y,1/2+z
-x,1/2-y,1/2+z
x,1/2-y,1/2-z
-x,1/2+y,1/2-z
-x,1/2-y,1/2-z
x,1/2+y,1/2-z
-x,1/2+y,1/2+z
x,1/2-y,1/2+z
1/2+x,y,1/2+z
1/2-x,-y,1/2+z
1/2+x,-y,1/2-z
1/2-x,y,1/2-z
1/2-x,-y,1/2-z
1/2+x,y,1/2-z
1/2-x,y,1/2+z
1/2+x,-y,1/2+z
1/2+x,1/2+y,z
1/2-x,1/2-y,z
1/2+x,1/2-y,-z
1/2-x,1/2+y,-z
1/2-x,1/2-y,-z
1/2+x,1/2+y,-z
1/2-x,1/2+y,z
1/2+x,1/2-y,z
loop_
_atom_site_type_symbol
_atom_site_label
_atom_site_fract_x
_atom_site_fract_y
_atom_site_fract_z
Si Si1 0.560798 0.000000 0.191796
Si Si2 0.437633 0.125656 0.687578
Si Si3 0.891236 0.500000 0.000000
Si Si4 0.443122 0.918964 0.500000
Si Si5 0.778815 0.682386 0.159015
Si Si6 0.872494 0.750000 0.250000
Si Si7 0.207528 0.578226 0.000000
O O1 0.582752 0.930706 0.239850
O O2 0.500000 0.000000 0.205526
O O3 0.573355 0.000000 0.087353
O O4 0.500000 0.131626 0.690601
O O5 0.414923 0.103450 0.590888
O O6 0.411356 0.199312 0.699826
O O7 0.854985 0.568943 0.000000
O O8 0.500000 0.883850 0.500000
O O9 0.449397 0.000000 0.500000
O O10 0.750000 0.657929 0.250000
O O11 0.750000 0.750000 0.118379
O O12 0.837663 0.705509 0.180786
O O13 0.775953 0.619687 0.088735
O O14 0.233150 0.500000 0.000000
#
# Coordination Sequence:
#
# PCOD8284326 Si02
#       7
#    16  32   8  16  32  16  16
#     4  10  19  33  52  73 109 152 187 228 268 325
#     4  10  19  32  54  80 112 148 187 232 276 319
#     4  10  21  32  50  82 110 138 188 212 273 320
#     4   9  16  31  51  76 105 144 190 227 271 319
#     4   9  20  39  61  79 106 146 179 218 278 332
#     4  10  20  34  54  80 114 148 184 224 270 322
#     4  10  21  35  60  87 108 139 175 222 272 323
#
# _framework density 18.362345999999999
#
# number of rings (size 3 to 8) (size 9 to 14) (size 15 to 20)
#    0.353    2.235    1.176    2.294    0.000    1.412 
#    0.000    2.353    2.588    8.471    0.000    0.000 
#    0.000    0.000    0.000    0.000    0.000    0.000 
#
# Total GULP energy -421289.391733 kJ/mol
# GULP energy per Si atom -12390.864463 kJ/mol
# Density = 1.832055 g / cm^3
# Si number density = 18.362346 Si / 1000 Ang^3
#
#
#
# Elastic Constant Matrix: (Units=GPa)
#
#
# Indices 1 2 3 4 5 6 
#
# 1 48.7090 34.5085 29.9439 0.0000 0.0000 0.0000
# 2 34.5085 127.1485 84.4422 0.0000 0.0000 0.0000
# 3 29.9439 84.4422 155.8503 0.0000 0.0000 0.0000
# 4 0.0000 0.0000 0.0000 35.9099 0.0000 0.0000
# 5 0.0000 0.0000 0.0000 0.0000 5.3185 0.0000
# 6 0.0000 0.0000 0.0000 0.0000 0.0000 34.8392
#
#
#
# Elastic Compliance Matrix: (Units=1/GPa)
#
#
# Indices 1 2 3 4 5 6 
#
# 1 0.025741 -0.005782 -0.001813 0.000000 0.000000 0.000000
# 2 -0.005782 0.013584 -0.006249 0.000000 0.000000 0.000000
# 3 -0.001813 -0.006249 0.010151 0.000000 0.000000 0.000000
# 4 0.000000 0.000000 0.000000 0.027847 0.000000 0.000000
# 5 0.000000 0.000000 0.000000 0.000000 0.188022 0.000000
# 6 0.000000 0.000000 0.000000 0.000000 0.000000 0.028703
#
#
# Mechanical properties :
#
#
# Convention : Reuss Voigt Hill
#
# Bulk Modulus (GPa) = 45.89797 69.94410 57.92103
# Shear Modulus (GPa) = 15.19754 27.40107 21.29931
#
# Velocity S-wave (km/s) = 2.88001 3.86715 3.40949
# Velocity P-wave (km/s) = 6.00909 7.62322 6.86377
#
# Compressibility (1/GPa) = 0.02178746
#
# Stress axis : x y z
#
# Youngs Moduli (GPa) = 38.84849 73.61350 98.51556
#
# Poissons Ratio (x) = 0.42566 0.17858
# Poissons Ratio (y) = 0.22463 0.61566
# Poissons Ratio (z) = 0.07042 0.46003
#
# Static dielectric constant tensor:
#      x y z
#    x 3.187030 0.000000 0.000000 
#    y 0.000000 3.350960 0.000000 
#    z 0.000000 0.000000 3.283220 
# 
# 
# High freq. dielectric constant tensor:
#      x y z
#    x 1.690040 0.000000 0.000000 
#    y 0.000000 1.711750 0.000000 
#    z 0.000000 0.000000 1.716870 
# 
# From -- ./inp_files/17597.got.cif
#   From: 2010.03.12/outbox.cif.g09.slc.cpg/sg69_9_cif.got.tgz:17597.got - 2010.04.10 23:52:46.
