data_PCOD8284390
_publ_section_title
;
Structure prediction by ZEFSAII (Michael W. Deem and Ramdas Pophale) SiO2 
 PCOD8284390
Probable space group: F M M M
;
_chemical_formula_sum "Si O2"
_cell_formula_units_Z 160
_cell_length_a 25.252457
_cell_length_b 18.313214
_cell_length_c 18.366899
_cell_angle_alpha 90.000000
_cell_angle_beta 90.000000
_cell_angle_gamma 90.000000
_cell_volume 8493.839465
_symmetry_space_group_name_H-M "F M M M"
_symmetry_group_IT_number 69
_symmetry_cell_setting 'orthorhombic'
loop_
_space_group_symop_operation_xyz
x,y,z
-x,-y,z
x,-y,-z
-x,y,-z
-x,-y,-z
x,y,-z
-x,y,z
x,-y,z
x,1/2+y,1/2+z
-x,1/2-y,1/2+z
x,1/2-y,1/2-z
-x,1/2+y,1/2-z
-x,1/2-y,1/2-z
x,1/2+y,1/2-z
-x,1/2+y,1/2+z
x,1/2-y,1/2+z
1/2+x,y,1/2+z
1/2-x,-y,1/2+z
1/2+x,-y,1/2-z
1/2-x,y,1/2-z
1/2-x,-y,1/2-z
1/2+x,y,1/2-z
1/2-x,y,1/2+z
1/2+x,-y,1/2+z
1/2+x,1/2+y,z
1/2-x,1/2-y,z
1/2+x,1/2-y,-z
1/2-x,1/2+y,-z
1/2-x,1/2-y,-z
1/2+x,1/2+y,-z
1/2-x,1/2+y,z
1/2+x,1/2-y,z
loop_
_atom_site_type_symbol
_atom_site_label
_atom_site_fract_x
_atom_site_fract_y
_atom_site_fract_z
Si Si1 0.653766 0.080578 0.723248
Si Si2 0.287114 0.178925 0.168093
Si Si3 0.559603 0.182097 0.696633
Si Si4 0.298141 0.888302 0.579097
Si Si5 0.629186 0.253536 0.920289
O O1 0.698812 0.134700 0.757044
O O2 0.595993 0.117090 0.727888
O O3 0.668512 0.066915 0.638538
O O4 0.652511 0.000000 0.760628
O O5 0.250000 0.250000 0.185244
O O6 0.260793 0.124656 0.109876
O O7 0.345192 0.195185 0.134797
O O8 0.500000 0.151826 0.689802
O O9 0.562575 0.250000 0.750000
O O10 0.578426 0.208870 0.616951
O O11 0.295381 0.928609 0.500000
O O12 0.324089 0.810244 0.566938
O O13 0.612713 0.221453 0.000000
#
# Coordination Sequence:
#
# PCOD8284390 Si02
#       5
#    32  32  32  32  32
#     4  11  23  36  54  81 111 145 185 228 276 329
#     4  10  19  33  55  80 112 149 184 221 265 325
#     4  10  20  36  58  81 104 138 182 228 277 327
#     4   9  19  32  50  76 110 148 184 220 262 320
#     4   9  17  31  54  83 109 139 181 226 269 319
#
# _framework density 18.837181999999999
#
# number of rings (size 3 to 8) (size 9 to 14) (size 15 to 20)
#    0.000    2.200    2.000    1.200    0.000    9.200 
#    0.000    0.000    0.000    1.800    0.000    5.600 
#    0.000    3.200    0.000    0.000    0.000    0.000 
#
# Total GULP energy -495559.822022 kJ/mol
# GULP energy per Si atom -12388.995551 kJ/mol
# Density = 1.879431 g / cm^3
# Si number density = 18.837182 Si / 1000 Ang^3
#
#
#
# Elastic Constant Matrix: (Units=GPa)
#
#
# Indices 1 2 3 4 5 6 
#
# 1 123.1445 43.9025 36.9712 0.0000 0.0000 0.0000
# 2 43.9025 83.8342 26.6380 0.0000 0.0000 0.0000
# 3 36.9712 26.6380 123.1319 0.0000 0.0000 0.0000
# 4 0.0000 0.0000 0.0000 2.7726 0.0000 0.0000
# 5 0.0000 0.0000 0.0000 0.0000 13.2060 0.0000
# 6 0.0000 0.0000 0.0000 0.0000 0.0000 11.4220
#
#
#
# Elastic Compliance Matrix: (Units=1/GPa)
#
#
# Indices 1 2 3 4 5 6 
#
# 1 0.010468 -0.004814 -0.002102 0.000000 0.000000 0.000000
# 2 -0.004814 0.015023 -0.001805 0.000000 0.000000 0.000000
# 3 -0.002102 -0.001805 0.009143 0.000000 0.000000 0.000000
# 4 0.000000 0.000000 0.000000 0.360678 0.000000 0.000000
# 5 0.000000 0.000000 0.000000 0.000000 0.075723 0.000000
# 6 0.000000 0.000000 0.000000 0.000000 0.000000 0.087550
#
#
# Mechanical properties :
#
#
# Convention : Reuss Voigt Hill
#
# Bulk Modulus (GPa) = 58.16314 60.57041 59.36678
# Shear Modulus (GPa) = 8.59467 20.32005 14.45736
#
# Velocity S-wave (km/s) = 2.13834 3.28795 2.77337
# Velocity P-wave (km/s) = 6.08609 6.82925 6.46835
#
# Compressibility (1/GPa) = 0.01719302
#
# Stress axis : x y z
#
# Youngs Moduli (GPa) = 95.53169 66.56594 109.37610
#
# Poissons Ratio (x) = 0.32045 0.22986
# Poissons Ratio (y) = 0.45989 0.19737
# Poissons Ratio (z) = 0.20077 0.12012
#
# Static dielectric constant tensor:
#      x y z
#    x 3.386760 0.000000 0.000000 
#    y 0.000000 3.180900 0.000000 
#    z 0.000000 0.000000 3.909500 
# 
# 
# High freq. dielectric constant tensor:
#      x y z
#    x 1.712830 0.000000 0.000000 
#    y 0.000000 1.699110 0.000000 
#    z 0.000000 0.000000 1.743120 
# 
# From -- ./inp_files/23125.got.cif
#   From: 2010.03.12/outbox.cif.g09.slc.cpg/sg69_12_cif.got.tgz:23125.got - 2010.04.10 23:52:46.
