data_PCOD8284843
_publ_section_title
;
Structure prediction by ZEFSAII (Michael W. Deem and Ramdas Pophale) SiO2 
 PCOD8284843
Probable space group: F M M M
;
_chemical_formula_sum "Si O2"
_cell_formula_units_Z 80
_cell_length_a 14.568011
_cell_length_b 33.150126
_cell_length_c 8.596723
_cell_angle_alpha 90.000000
_cell_angle_beta 90.000000
_cell_angle_gamma 90.000000
_cell_volume 4151.627476
_symmetry_space_group_name_H-M "F M M M"
_symmetry_group_IT_number 69
_symmetry_cell_setting 'orthorhombic'
loop_
_space_group_symop_operation_xyz
x,y,z
-x,-y,z
x,-y,-z
-x,y,-z
-x,-y,-z
x,y,-z
-x,y,z
x,-y,z
x,1/2+y,1/2+z
-x,1/2-y,1/2+z
x,1/2-y,1/2-z
-x,1/2+y,1/2-z
-x,1/2-y,1/2-z
x,1/2+y,1/2-z
-x,1/2+y,1/2+z
x,1/2-y,1/2+z
1/2+x,y,1/2+z
1/2-x,-y,1/2+z
1/2+x,-y,1/2-z
1/2-x,y,1/2-z
1/2-x,-y,1/2-z
1/2+x,y,1/2-z
1/2-x,y,1/2+z
1/2+x,-y,1/2+z
1/2+x,1/2+y,z
1/2-x,1/2-y,z
1/2+x,1/2-y,-z
1/2-x,1/2+y,-z
1/2-x,1/2-y,-z
1/2+x,1/2+y,-z
1/2-x,1/2+y,z
1/2+x,1/2-y,z
loop_
_atom_site_type_symbol
_atom_site_label
_atom_site_fract_x
_atom_site_fract_y
_atom_site_fract_z
Si Si1 0.348564 0.208283 0.182138
Si Si2 0.000000 0.058103 0.817518
Si Si3 0.146977 0.500000 0.814991
Si Si4 0.500000 0.355323 0.318656
O O1 0.388765 0.250000 0.250000
O O2 0.250000 0.198066 0.250000
O O3 0.411849 0.170844 0.226806
O O4 0.341705 0.214309 0.000000
O O5 0.092099 0.039389 0.743021
O O6 0.000000 0.105454 0.787436
O O7 0.000000 0.048977 0.000000
O O8 0.250000 0.500000 0.750000
O O9 0.150910 0.500000 0.000000
O O10 0.500000 0.367388 0.500000
#
# Coordination Sequence:
#
# PCOD8284843 Si02
#       4
#    32  16  16  16
#     4  10  20  35  55  78 108 145 188 233 280 333
#     4  11  23  39  60  89 119 149 189 233 280 339
#     4  11  22  41  66  88 116 151 186 229 280 338
#     4  10  22  38  55  79 113 151 186 230 283 332
#
# _framework density 19.269551
#
# number of rings (size 3 to 8) (size 9 to 14) (size 15 to 20)
#    0.000    1.600    0.000    7.800    0.000    4.800 
#    0.000    4.000    0.000    0.000    0.000    0.000 
#    0.000    0.000    0.000    0.000    0.000    0.000 
#
# Total GULP energy -248044.539114 kJ/mol
# GULP energy per Si atom -12402.226956 kJ/mol
# Density = 1.922569 g / cm^3
# Si number density = 19.269551 Si / 1000 Ang^3
#
#
#
# Elastic Constant Matrix: (Units=GPa)
#
#
# Indices 1 2 3 4 5 6 
#
# 1 142.7425 73.1978 66.3709 0.0000 0.0000 0.0000
# 2 73.1978 152.3118 66.2720 0.0000 0.0000 0.0000
# 3 66.3709 66.2720 146.2924 0.0000 0.0000 0.0000
# 4 0.0000 0.0000 0.0000 33.9695 0.0000 0.0000
# 5 0.0000 0.0000 0.0000 0.0000 27.9066 0.0000
# 6 0.0000 0.0000 0.0000 0.0000 0.0000 18.8854
#
#
#
# Elastic Compliance Matrix: (Units=1/GPa)
#
#
# Indices 1 2 3 4 5 6 
#
# 1 0.010265 -0.003620 -0.003017 0.000000 0.000000 0.000000
# 2 -0.003620 0.009454 -0.002640 0.000000 0.000000 0.000000
# 3 -0.003017 -0.002640 0.009400 0.000000 0.000000 0.000000
# 4 0.000000 0.000000 0.000000 0.029438 0.000000 0.000000
# 5 0.000000 0.000000 0.000000 0.000000 0.035834 0.000000
# 6 0.000000 0.000000 0.000000 0.000000 0.000000 0.052951
#
#
# Mechanical properties :
#
#
# Convention : Reuss Voigt Hill
#
# Bulk Modulus (GPa) = 94.65928 94.78089 94.72008
# Shear Modulus (GPa) = 29.51257 31.85270 30.68263
#
# Velocity S-wave (km/s) = 3.91777 4.07013 3.99467
# Velocity P-wave (km/s) = 8.34839 8.44876 8.39873
#
# Compressibility (1/GPa) = 0.01056421
#
# Stress axis : x y z
#
# Youngs Moduli (GPa) = 97.41875 105.77318 106.37744
#
# Poissons Ratio (x) = 0.38294 0.32094
# Poissons Ratio (y) = 0.35270 0.28087
# Poissons Ratio (z) = 0.29391 0.27927
#
# Static dielectric constant tensor:
#      x y z
#    x 3.305360 0.000000 0.000000 
#    y 0.000000 3.516970 0.000000 
#    z 0.000000 0.000000 3.629340 
# 
# 
# High freq. dielectric constant tensor:
#      x y z
#    x 1.758180 0.000000 0.000000 
#    y 0.000000 1.751890 0.000000 
#    z 0.000000 0.000000 1.765430 
# 
# From -- ./inp_files/2297.got.cif
#   From: 2010.03.12/outbox.cif.g09.slc.cpg/sg69_2_cif.got.tgz:2297.got - 2010.04.10 23:52:46.
