data_PCOD8284704
_publ_section_title
;
Structure prediction by ZEFSAII (Michael W. Deem and Ramdas Pophale) SiO2 
 PCOD8284704
Probable space group: F M M M
;
_chemical_formula_sum "Si O2"
_cell_formula_units_Z 208
_cell_length_a 20.198932
_cell_length_b 30.013144
_cell_length_c 18.142937
_cell_angle_alpha 90.000000
_cell_angle_beta 90.000000
_cell_angle_gamma 90.000000
_cell_volume 10998.855377
_symmetry_space_group_name_H-M "F M M M"
_symmetry_group_IT_number 69
_symmetry_cell_setting 'orthorhombic'
loop_
_space_group_symop_operation_xyz
x,y,z
-x,-y,z
x,-y,-z
-x,y,-z
-x,-y,-z
x,y,-z
-x,y,z
x,-y,z
x,1/2+y,1/2+z
-x,1/2-y,1/2+z
x,1/2-y,1/2-z
-x,1/2+y,1/2-z
-x,1/2-y,1/2-z
x,1/2+y,1/2-z
-x,1/2+y,1/2+z
x,1/2-y,1/2+z
1/2+x,y,1/2+z
1/2-x,-y,1/2+z
1/2+x,-y,1/2-z
1/2-x,y,1/2-z
1/2-x,-y,1/2-z
1/2+x,y,1/2-z
1/2-x,y,1/2+z
1/2+x,-y,1/2+z
1/2+x,1/2+y,z
1/2-x,1/2-y,z
1/2+x,1/2-y,-z
1/2-x,1/2+y,-z
1/2-x,1/2-y,-z
1/2+x,1/2+y,-z
1/2-x,1/2+y,z
1/2+x,1/2-y,z
loop_
_atom_site_type_symbol
_atom_site_label
_atom_site_fract_x
_atom_site_fract_y
_atom_site_fract_z
Si Si1 0.425588 0.776839 0.361286
Si Si2 0.261160 0.108630 0.412683
Si Si3 0.818077 0.449562 0.293847
Si Si4 0.000000 0.449657 0.913021
Si Si5 0.073585 0.816912 0.295425
Si Si6 0.126074 0.906455 0.341744
Si Si7 0.713050 0.707327 0.083121
O O1 0.500000 0.791226 0.388156
O O2 0.405912 0.800637 0.285315
O O3 0.424781 0.723874 0.351989
O O4 0.367098 0.789230 0.417277
O O5 0.275379 0.104623 0.500000
O O6 0.316512 0.080382 0.367930
O O7 0.190421 0.086869 0.392952
O O8 0.264969 0.159738 0.383283
O O9 0.834260 0.500000 0.317388
O O10 0.750000 0.445633 0.250000
O O11 0.873048 0.432251 0.236399
O O12 0.935582 0.423743 0.887135
O O13 0.000000 0.500000 0.881939
O O14 0.000000 0.449952 0.000000
O O15 0.123002 0.854021 0.324856
O O16 0.000000 0.837370 0.292319
O O17 0.750000 0.750000 0.122707
O O18 0.738508 0.706947 0.000000
#
# Coordination Sequence:
#
# PCOD8284704 Si02
#       7
#    32  32  32  16  32  32  32
#     4   9  18  32  52  75 106 139 184 226 270 325
#     4  10  21  35  54  79 110 147 185 229 284 335
#     4   9  19  34  53  77 102 134 180 228 270 324
#     4  11  24  38  54  81 115 147 179 218 274 346
#     4   9  17  31  50  76 104 140 174 221 269 315
#     4  11  19  35  57  79 110 143 183 225 277 332
#     4  10  20  34  50  73 108 144 181 229 279 331
#
# _framework density 18.911059999999999
#
# number of rings (size 3 to 8) (size 9 to 14) (size 15 to 20)
#    0.000    2.231    0.769    3.692    0.000    1.231 
#    0.000    5.385    0.000    0.000    0.000    0.000 
#    0.000    1.846    0.000    0.000    0.000    0.000 
#
# Total GULP energy -644559.826027 kJ/mol
# GULP energy per Si atom -12395.381270 kJ/mol
# Density = 1.886802 g / cm^3
# Si number density = 18.911060 Si / 1000 Ang^3
#
#
#
# Elastic Constant Matrix: (Units=GPa)
#
#
# Indices 1 2 3 4 5 6 
#
# 1 80.0896 22.3026 19.6239 0.0000 0.0000 0.0000
# 2 22.3026 122.2312 41.6087 0.0000 0.0000 0.0000
# 3 19.6239 41.6087 70.2136 0.0000 0.0000 0.0000
# 4 0.0000 0.0000 0.0000 21.9819 0.0000 0.0000
# 5 0.0000 0.0000 0.0000 0.0000 15.3134 0.0000
# 6 0.0000 0.0000 0.0000 0.0000 0.0000 18.3488
#
#
#
# Elastic Compliance Matrix: (Units=1/GPa)
#
#
# Indices 1 2 3 4 5 6 
#
# 1 0.013617 -0.001490 -0.002923 0.000000 0.000000 0.000000
# 2 -0.001490 0.010412 -0.005754 0.000000 0.000000 0.000000
# 3 -0.002923 -0.005754 0.018469 0.000000 0.000000 0.000000
# 4 0.000000 0.000000 0.000000 0.045492 0.000000 0.000000
# 5 0.000000 0.000000 0.000000 0.000000 0.065302 0.000000
# 6 0.000000 0.000000 0.000000 0.000000 0.000000 0.054500
#
#
# Mechanical properties :
#
#
# Convention : Reuss Voigt Hill
#
# Bulk Modulus (GPa) = 45.11631 48.84499 46.98065
# Shear Modulus (GPa) = 21.23031 23.72875 22.47953
#
# Velocity S-wave (km/s) = 3.35422 3.54610 3.45149
# Velocity P-wave (km/s) = 6.23778 6.53079 6.38597
#
# Compressibility (1/GPa) = 0.02216493
#
# Stress axis : x y z
#
# Youngs Moduli (GPa) = 73.43741 96.04687 54.14528
#
# Poissons Ratio (x) = 0.14307 0.15827
# Poissons Ratio (y) = 0.10939 0.31153
# Poissons Ratio (z) = 0.21467 0.55262
#
# Static dielectric constant tensor:
#      x y z
#    x 3.358530 0.000000 0.000000 
#    y 0.000000 3.619810 0.000000 
#    z 0.000000 0.000000 3.243930 
# 
# 
# High freq. dielectric constant tensor:
#      x y z
#    x 1.723130 0.000000 0.000000 
#    y 0.000000 1.740770 0.000000 
#    z 0.000000 0.000000 1.714550 
# 
# From -- ./inp_files/25177.got.cif
#   From: 2010.03.12/outbox.cif.g09.slc.cpg/sg69_13_cif.got.tgz:25177.got - 2010.04.10 23:52:46.
