data_PCOD8284503
_publ_section_title
;
Structure prediction by ZEFSAII (Michael W. Deem and Ramdas Pophale) SiO2 
 PCOD8284503
Probable space group: F M M M
;
_chemical_formula_sum "Si O2"
_cell_formula_units_Z 168
_cell_length_a 31.960660
_cell_length_b 19.407971
_cell_length_c 13.920801
_cell_angle_alpha 90.000000
_cell_angle_beta 90.000000
_cell_angle_gamma 90.000000
_cell_volume 8634.955402
_symmetry_space_group_name_H-M "F M M M"
_symmetry_group_IT_number 69
_symmetry_cell_setting 'orthorhombic'
loop_
_space_group_symop_operation_xyz
x,y,z
-x,-y,z
x,-y,-z
-x,y,-z
-x,-y,-z
x,y,-z
-x,y,z
x,-y,z
x,1/2+y,1/2+z
-x,1/2-y,1/2+z
x,1/2-y,1/2-z
-x,1/2+y,1/2-z
-x,1/2-y,1/2-z
x,1/2+y,1/2-z
-x,1/2+y,1/2+z
x,1/2-y,1/2+z
1/2+x,y,1/2+z
1/2-x,-y,1/2+z
1/2+x,-y,1/2-z
1/2-x,y,1/2-z
1/2-x,-y,1/2-z
1/2+x,y,1/2-z
1/2-x,y,1/2+z
1/2+x,-y,1/2+z
1/2+x,1/2+y,z
1/2-x,1/2-y,z
1/2+x,1/2-y,-z
1/2-x,1/2+y,-z
1/2-x,1/2-y,-z
1/2+x,1/2+y,-z
1/2-x,1/2+y,z
1/2+x,1/2-y,z
loop_
_atom_site_type_symbol
_atom_site_label
_atom_site_fract_x
_atom_site_fract_y
_atom_site_fract_z
Si Si1 0.808870 0.827009 0.895777
Si Si2 0.758169 0.575337 0.861923
Si Si3 0.950761 0.078384 0.110042
Si Si4 0.250000 0.250000 0.750000
Si Si5 0.610202 0.830863 0.272116
Si Si6 0.649903 0.580348 0.609271
O O1 0.781991 0.895306 0.917317
O O2 0.780173 0.790306 0.818902
O O3 0.853560 0.841601 0.850346
O O4 0.814673 0.789483 0.000000
O O5 0.763884 0.500000 0.904603
O O6 0.750000 0.576705 0.750000
O O7 0.802929 0.611963 0.882613
O O8 0.930386 0.134144 0.181254
O O9 0.000000 0.085611 0.123778
O O10 0.936695 0.000000 0.135749
O O11 0.938173 0.094731 0.000000
O O12 0.602486 0.750000 0.250000
O O13 0.620504 0.871549 0.174266
O O14 0.633883 0.586759 0.500000
O O15 0.648057 0.500000 0.643712
#
# Coordination Sequence:
#
# PCOD8284503 Si02
#       6
#    32  32  32   8  32  32
#     4  12  24  37  55  80 113 156 204 249 297 351
#     4  10  19  35  56  77 107 147 199 259 306 348
#     4   9  20  42  71  98 122 151 189 240 309 377
#     4  12  22  44  50  74 110 168 206 242 284 334
#     4  12  24  39  57  90 128 157 199 246 301 360
#     4  10  21  38  59  81 113 163 213 256 304 358
#
# _framework density 19.455805000000002
#
# number of rings (size 3 to 8) (size 9 to 14) (size 15 to 20)
#    0.000    1.333    3.810    2.571    0.000    3.810 
#    0.000    0.000    0.000    0.571    0.000    2.667 
#    0.000    0.000    0.000    0.000    0.000    0.000 
#
# Total GULP energy -520390.764190 kJ/mol
# GULP energy per Si atom -12390.256290 kJ/mol
# Density = 1.941152 g / cm^3
# Si number density = 19.455805 Si / 1000 Ang^3
#
#
#
# Elastic Constant Matrix: (Units=GPa)
#
#
# Indices 1 2 3 4 5 6 
#
# 1 78.2658 46.7170 42.3783 0.0000 0.0000 0.0000
# 2 46.7170 113.0953 52.1598 0.0000 0.0000 0.0000
# 3 42.3783 52.1598 140.1089 0.0000 0.0000 0.0000
# 4 0.0000 0.0000 0.0000 -5.9987 0.0000 0.0000
# 5 0.0000 0.0000 0.0000 0.0000 2.5245 0.0000
# 6 0.0000 0.0000 0.0000 0.0000 0.0000 32.0025
#
#
#
# Elastic Compliance Matrix: (Units=1/GPa)
#
#
# Indices 1 2 3 4 5 6 
#
# 1 0.018107 -0.005980 -0.003250 0.000000 0.000000 0.000000
# 2 -0.005980 0.012650 -0.002901 0.000000 0.000000 0.000000
# 3 -0.003250 -0.002901 0.009200 0.000000 0.000000 0.000000
# 4 0.000000 0.000000 0.000000 -0.166703 0.000000 0.000000
# 5 0.000000 0.000000 0.000000 0.000000 0.396117 0.000000
# 6 0.000000 0.000000 0.000000 0.000000 0.000000 0.031248
#
#
# Mechanical properties :
#
#
# Convention : Reuss Voigt Hill
#
# Bulk Modulus (GPa) = 63.71612 68.22001 65.96806
# Shear Modulus (GPa) = 15.14638 18.38667 16.76652
#
# Velocity S-wave (km/s) = 2.79319 3.07750 2.93878
# Velocity P-wave (km/s) = 6.57441 6.91145 6.74504
#
# Compressibility (1/GPa) = 0.01569462
#
# Stress axis : x y z
#
# Youngs Moduli (GPa) = 55.22853 79.05025 108.69306
#
# Poissons Ratio (x) = 0.47275 0.35328
# Poissons Ratio (y) = 0.33029 0.31527
# Poissons Ratio (z) = 0.17951 0.22929
#
# Static dielectric constant tensor:
#      x y z
#    x 3.375950 0.000000 0.000000 
#    y 0.000000 4.008510 0.000000 
#    z 0.000000 0.000000 3.722920 
# 
# 
# High freq. dielectric constant tensor:
#      x y z
#    x 1.729550 0.000000 0.000000 
#    y 0.000000 1.755730 0.000000 
#    z 0.000000 0.000000 1.777140 
# 
# From -- ./inp_files/18821.got.cif
#   From: 2010.03.12/outbox.cif.g09.slc.cpg/sg69_10_cif.got.tgz:18821.got - 2010.04.10 23:52:46.
