data_PCOD8284969
_publ_section_title
;
Structure prediction by ZEFSAII (Michael W. Deem and Ramdas Pophale) SiO2 
 PCOD8284969
Probable space group: F M M M
;
_chemical_formula_sum "Si O2"
_cell_formula_units_Z 176
_cell_length_a 14.607826
_cell_length_b 22.165028
_cell_length_c 26.909856
_cell_angle_alpha 90.000000
_cell_angle_beta 90.000000
_cell_angle_gamma 90.000000
_cell_volume 8712.950469
_symmetry_space_group_name_H-M "F M M M"
_symmetry_group_IT_number 69
_symmetry_cell_setting 'orthorhombic'
loop_
_space_group_symop_operation_xyz
x,y,z
-x,-y,z
x,-y,-z
-x,y,-z
-x,-y,-z
x,y,-z
-x,y,z
x,-y,z
x,1/2+y,1/2+z
-x,1/2-y,1/2+z
x,1/2-y,1/2-z
-x,1/2+y,1/2-z
-x,1/2-y,1/2-z
x,1/2+y,1/2-z
-x,1/2+y,1/2+z
x,1/2-y,1/2+z
1/2+x,y,1/2+z
1/2-x,-y,1/2+z
1/2+x,-y,1/2-z
1/2-x,y,1/2-z
1/2-x,-y,1/2-z
1/2+x,y,1/2-z
1/2-x,y,1/2+z
1/2+x,-y,1/2+z
1/2+x,1/2+y,z
1/2-x,1/2-y,z
1/2+x,1/2-y,-z
1/2-x,1/2+y,-z
1/2-x,1/2-y,-z
1/2+x,1/2+y,-z
1/2-x,1/2+y,z
1/2+x,1/2-y,z
loop_
_atom_site_type_symbol
_atom_site_label
_atom_site_fract_x
_atom_site_fract_y
_atom_site_fract_z
Si Si1 0.721137 0.928598 0.092875
Si Si2 0.397921 0.363568 0.057461
Si Si3 0.849770 0.767572 0.130536
Si Si4 0.897096 0.860583 0.330609
Si Si5 0.602976 0.428346 0.500000
Si Si6 0.106720 0.312984 0.271298
O O1 0.824735 0.906867 0.084245
O O2 0.678396 0.901285 0.142811
O O3 0.656522 0.905150 0.048350
O O4 0.722284 0.000000 0.097247
O O5 0.500000 0.391875 0.062503
O O6 0.399061 0.297912 0.083468
O O7 0.371340 0.355523 0.000000
O O8 0.750000 0.750000 0.111899
O O9 0.902389 0.708043 0.148953
O O10 0.842928 0.818302 0.175174
O O11 0.870216 0.862037 0.271537
O O12 0.000000 0.887199 0.337459
O O13 0.599919 0.500000 0.500000
O O14 0.500000 0.401635 0.500000
O O15 0.141216 0.250000 0.250000
O O16 0.000000 0.313177 0.283461
#
# Coordination Sequence:
#
# PCOD8284969 Si02
#       6
#    32  32  32  32  16  32
#     4  11  22  39  60  88 119 154 207 255 297 359
#     4  11  24  42  62  85 118 159 203 257 312 361
#     4  11  20  36  61  90 122 158 197 247 301 360
#     4  10  20  36  58  90 126 160 193 237 299 364
#     4   9  18  34  57  82 113 151 193 245 296 349
#     4   8  16  31  54  84 117 152 193 231 275 347
#
# _framework density 20.199815000000001
#
# number of rings (size 3 to 8) (size 9 to 14) (size 15 to 20)
#    0.000    1.909    2.727    3.273    0.000    5.091 
#    1.636    0.909    0.000    2.182    0.000    2.545 
#    0.000    0.000    0.000    0.000    0.000    0.000 
#
# Total GULP energy -545289.389270 kJ/mol
# GULP energy per Si atom -12392.940665 kJ/mol
# Density = 2.015384 g / cm^3
# Si number density = 20.199815 Si / 1000 Ang^3
#
#
#
# Elastic Constant Matrix: (Units=GPa)
#
#
# Indices 1 2 3 4 5 6 
#
# 1 120.3597 28.5241 46.3060 0.0000 0.0000 0.0000
# 2 28.5241 62.7535 40.6340 0.0000 0.0000 0.0000
# 3 46.3060 40.6340 103.4367 0.0000 0.0000 0.0000
# 4 0.0000 0.0000 0.0000 20.0017 0.0000 0.0000
# 5 0.0000 0.0000 0.0000 0.0000 25.5964 0.0000
# 6 0.0000 0.0000 0.0000 0.0000 0.0000 21.3901
#
#
#
# Elastic Compliance Matrix: (Units=1/GPa)
#
#
# Indices 1 2 3 4 5 6 
#
# 1 0.010272 -0.002269 -0.003708 0.000000 0.000000 0.000000
# 2 -0.002269 0.021873 -0.007577 0.000000 0.000000 0.000000
# 3 -0.003708 -0.007577 0.014304 0.000000 0.000000 0.000000
# 4 0.000000 0.000000 0.000000 0.049996 0.000000 0.000000
# 5 0.000000 0.000000 0.000000 0.000000 0.039068 0.000000
# 6 0.000000 0.000000 0.000000 0.000000 0.000000 0.046751
#
#
# Mechanical properties :
#
#
# Convention : Reuss Voigt Hill
#
# Bulk Modulus (GPa) = 51.69776 57.49758 54.59767
# Shear Modulus (GPa) = 23.16777 24.80337 23.98557
#
# Velocity S-wave (km/s) = 3.39031 3.50794 3.44963
# Velocity P-wave (km/s) = 6.40112 6.70326 6.55393
#
# Compressibility (1/GPa) = 0.01934320
#
# Stress axis : x y z
#
# Youngs Moduli (GPa) = 97.34768 45.71920 69.91053
#
# Poissons Ratio (x) = 0.10372 0.25920
# Poissons Ratio (y) = 0.22084 0.52970
# Poissons Ratio (z) = 0.36092 0.34641
#
# Static dielectric constant tensor:
#      x y z
#    x 3.734790 0.000000 0.000000 
#    y 0.000000 3.207890 0.000000 
#    z 0.000000 0.000000 3.966220 
# 
# 
# High freq. dielectric constant tensor:
#      x y z
#    x 1.805070 0.000000 0.000000 
#    y 0.000000 1.730840 0.000000 
#    z 0.000000 0.000000 1.798910 
# 
# From -- ./inp_files/17913.got.cif
#   From: 2010.03.12/outbox.cif.g09.slc.cpg/sg69_9_cif.got.tgz:17913.got - 2010.04.10 23:52:46.
