data_PCOD8284334
_publ_section_title
;
Structure prediction by ZEFSAII (Michael W. Deem and Ramdas Pophale) SiO2 
 PCOD8284334
Probable space group: F M M M
;
_chemical_formula_sum "Si O2"
_cell_formula_units_Z 160
_cell_length_a 20.556106
_cell_length_b 26.008421
_cell_length_c 16.277766
_cell_angle_alpha 90.000000
_cell_angle_beta 90.000000
_cell_angle_gamma 90.000000
_cell_volume 8702.612296
_symmetry_space_group_name_H-M "F M M M"
_symmetry_group_IT_number 69
_symmetry_cell_setting 'orthorhombic'
loop_
_space_group_symop_operation_xyz
x,y,z
-x,-y,z
x,-y,-z
-x,y,-z
-x,-y,-z
x,y,-z
-x,y,z
x,-y,z
x,1/2+y,1/2+z
-x,1/2-y,1/2+z
x,1/2-y,1/2-z
-x,1/2+y,1/2-z
-x,1/2-y,1/2-z
x,1/2+y,1/2-z
-x,1/2+y,1/2+z
x,1/2-y,1/2+z
1/2+x,y,1/2+z
1/2-x,-y,1/2+z
1/2+x,-y,1/2-z
1/2-x,y,1/2-z
1/2-x,-y,1/2-z
1/2+x,y,1/2-z
1/2-x,y,1/2+z
1/2+x,-y,1/2+z
1/2+x,1/2+y,z
1/2-x,1/2-y,z
1/2+x,1/2-y,-z
1/2-x,1/2+y,-z
1/2-x,1/2-y,-z
1/2+x,1/2+y,-z
1/2-x,1/2+y,z
1/2+x,1/2-y,z
loop_
_atom_site_type_symbol
_atom_site_label
_atom_site_fract_x
_atom_site_fract_y
_atom_site_fract_z
Si Si1 0.141600 0.774566 0.500000
Si Si2 0.279138 0.099186 0.368248
Si Si3 0.922822 0.711342 0.175605
Si Si4 0.646597 0.500000 0.911564
Si Si5 0.145621 0.602823 0.201353
Si Si6 0.424052 0.000000 0.756034
Si Si7 0.229227 0.177078 0.000000
O O1 0.099330 0.771230 0.583915
O O2 0.194624 0.730746 0.500000
O O3 0.191135 0.822952 0.500000
O O4 0.200575 0.095469 0.367582
O O5 0.313513 0.109024 0.283115
O O6 0.298050 0.148325 0.420769
O O7 0.305559 0.047877 0.408453
O O8 0.899165 0.750000 0.250000
O O9 0.897509 0.653656 0.190320
O O10 0.000000 0.709764 0.175744
O O11 0.593020 0.500000 0.840428
O O12 0.610139 0.500000 0.000000
O O13 0.102213 0.551466 0.200809
O O14 0.500000 0.000000 0.766870
#
# Coordination Sequence:
#
# PCOD8284334 Si02
#       7
#    16  32  32  16  32  16  16
#     4  11  23  38  56  86 113 149 190 239 285 339
#     4  10  19  34  56  85 114 142 177 237 290 343
#     4  11  23  40  60  82 115 157 196 234 284 346
#     4  10  19  32  55  81 113 146 178 223 292 343
#     4  10  20  36  57  84 110 145 192 233 286 342
#     4  10  21  36  55  78 111 150 192 236 274 337
#     4  11  20  35  56  84 115 137 184 236 292 336
#
# _framework density 18.385283999999999
#
# number of rings (size 3 to 8) (size 9 to 14) (size 15 to 20)
#    0.000    1.600    3.000    2.700    0.000    2.600 
#    0.000    0.000    0.000    1.200    0.000    2.800 
#    0.000    0.000    0.000    0.000    0.000    0.000 
#
# Total GULP energy -495598.468635 kJ/mol
# GULP energy per Si atom -12389.961716 kJ/mol
# Density = 1.834344 g / cm^3
# Si number density = 18.385284 Si / 1000 Ang^3
#
#
#
# Elastic Constant Matrix: (Units=GPa)
#
#
# Indices 1 2 3 4 5 6 
#
# 1 102.8322 45.0765 28.3635 0.0000 0.0000 0.0000
# 2 45.0765 95.1294 40.6054 0.0000 0.0000 0.0000
# 3 28.3635 40.6054 89.0026 0.0000 0.0000 0.0000
# 4 0.0000 0.0000 0.0000 29.8029 0.0000 0.0000
# 5 0.0000 0.0000 0.0000 0.0000 9.1759 0.0000
# 6 0.0000 0.0000 0.0000 0.0000 0.0000 28.3025
#
#
#
# Elastic Compliance Matrix: (Units=1/GPa)
#
#
# Indices 1 2 3 4 5 6 
#
# 1 0.012451 -0.005224 -0.001585 0.000000 0.000000 0.000000
# 2 -0.005224 0.015245 -0.005291 0.000000 0.000000 0.000000
# 3 -0.001585 -0.005291 0.014155 0.000000 0.000000 0.000000
# 4 0.000000 0.000000 0.000000 0.033554 0.000000 0.000000
# 5 0.000000 0.000000 0.000000 0.000000 0.108982 0.000000
# 6 0.000000 0.000000 0.000000 0.000000 0.000000 0.035333
#
#
# Mechanical properties :
#
#
# Convention : Reuss Voigt Hill
#
# Bulk Modulus (GPa) = 56.64761 57.22833 56.93797
# Shear Modulus (GPa) = 20.01583 24.98416 22.50000
#
# Velocity S-wave (km/s) = 3.30311 3.69035 3.50209
# Velocity P-wave (km/s) = 6.73985 7.02518 6.88399
#
# Compressibility (1/GPa) = 0.01765299
#
# Stress axis : x y z
#
# Youngs Moduli (GPa) = 80.31173 65.59325 70.64885
#
# Poissons Ratio (x) = 0.34263 0.11197
# Poissons Ratio (y) = 0.41951 0.37379
# Poissons Ratio (z) = 0.12729 0.34704
#
# Static dielectric constant tensor:
#      x y z
#    x 3.333370 0.000000 0.000000 
#    y 0.000000 2.655500 0.000000 
#    z 0.000000 0.000000 3.159030 
# 
# 
# High freq. dielectric constant tensor:
#      x y z
#    x 1.708520 0.000000 0.000000 
#    y 0.000000 1.725430 0.000000 
#    z 0.000000 0.000000 1.717570 
# 
# From -- ./inp_files/23274.got.cif
#   From: 2010.03.12/outbox.cif.g09.slc.cpg/sg69_12_cif.got.tgz:23274.got - 2010.04.10 23:52:46.
