data_PCOD8284525
_publ_section_title
;
Structure prediction by ZEFSAII (Michael W. Deem and Ramdas Pophale) SiO2 
 PCOD8284525
Probable space group: F M M M
;
_chemical_formula_sum "Si O2"
_cell_formula_units_Z 192
_cell_length_a 18.375466
_cell_length_b 19.959419
_cell_length_c 27.407877
_cell_angle_alpha 90.000000
_cell_angle_beta 90.000000
_cell_angle_gamma 90.000000
_cell_volume 10052.212328
_symmetry_space_group_name_H-M "F M M M"
_symmetry_group_IT_number 69
_symmetry_cell_setting 'orthorhombic'
loop_
_space_group_symop_operation_xyz
x,y,z
-x,-y,z
x,-y,-z
-x,y,-z
-x,-y,-z
x,y,-z
-x,y,z
x,-y,z
x,1/2+y,1/2+z
-x,1/2-y,1/2+z
x,1/2-y,1/2-z
-x,1/2+y,1/2-z
-x,1/2-y,1/2-z
x,1/2+y,1/2-z
-x,1/2+y,1/2+z
x,1/2-y,1/2+z
1/2+x,y,1/2+z
1/2-x,-y,1/2+z
1/2+x,-y,1/2-z
1/2-x,y,1/2-z
1/2-x,-y,1/2-z
1/2+x,y,1/2-z
1/2-x,y,1/2+z
1/2+x,-y,1/2+z
1/2+x,1/2+y,z
1/2-x,1/2-y,z
1/2+x,1/2-y,-z
1/2-x,1/2+y,-z
1/2-x,1/2-y,-z
1/2+x,1/2+y,-z
1/2-x,1/2+y,z
1/2+x,1/2-y,z
loop_
_atom_site_type_symbol
_atom_site_label
_atom_site_fract_x
_atom_site_fract_y
_atom_site_fract_z
Si Si1 0.138902 0.366175 0.350450
Si Si2 0.918600 0.263146 0.805748
Si Si3 0.915067 0.680038 0.445199
Si Si4 0.303906 0.365810 0.652277
Si Si5 0.816376 0.699603 0.945165
Si Si6 0.816728 0.000000 0.288642
Si Si7 0.586078 0.500000 0.799712
O O1 0.085625 0.307534 0.333155
O O2 0.127652 0.370587 0.409045
O O3 0.220822 0.346191 0.336035
O O4 0.118593 0.435900 0.326351
O O5 0.902197 0.250000 0.750000
O O6 0.858166 0.314400 0.823039
O O7 0.000000 0.292447 0.813679
O O8 0.896015 0.656276 0.500000
O O9 0.889679 0.757020 0.437688
O O10 0.000000 0.676969 0.434532
O O11 0.315921 0.361706 0.593493
O O12 0.317817 0.438396 0.674297
O O13 0.750000 0.750000 0.934552
O O14 0.811660 0.669789 0.000000
O O15 0.750000 0.000000 0.250000
O O16 0.890381 0.000000 0.256904
O O17 0.500000 0.500000 0.802635
#
# Coordination Sequence:
#
# PCOD8284525 Si02
#       7
#    32  32  32  32  32  16  16
#     4  12  22  39  61  91 123 164 213 254 314 374
#     4  11  24  38  58  90 124 156 209 270 316 371
#     4  10  20  35  58  90 127 162 201 255 314 371
#     4  12  23  39  63  89 122 170 207 261 318 369
#     4  10  19  35  60  91 124 159 203 251 309 371
#     4  12  26  46  61  85 123 168 217 253 307 392
#     4  12  26  44  67  88 123 172 211 260 314 373
#
# _framework density 19.100273000000001
#
# number of rings (size 3 to 8) (size 9 to 14) (size 15 to 20)
#    0.000    0.833    5.000    3.000    0.000    2.667 
#    0.000    0.833    0.000    3.500    0.000    0.000 
#    0.000    4.667    0.000    0.000    0.000    0.000 
#
# Total GULP energy -595133.102508 kJ/mol
# GULP energy per Si atom -12398.606302 kJ/mol
# Density = 1.905680 g / cm^3
# Si number density = 19.100273 Si / 1000 Ang^3
#
#
#
# Elastic Constant Matrix: (Units=GPa)
#
#
# Indices 1 2 3 4 5 6 
#
# 1 130.1621 44.8269 59.7636 0.0000 0.0000 0.0000
# 2 44.8269 112.6507 75.2924 0.0000 0.0000 0.0000
# 3 59.7636 75.2924 156.6692 0.0000 0.0000 0.0000
# 4 0.0000 0.0000 0.0000 46.0699 0.0000 0.0000
# 5 0.0000 0.0000 0.0000 0.0000 31.6441 0.0000
# 6 0.0000 0.0000 0.0000 0.0000 0.0000 21.1550
#
#
#
# Elastic Compliance Matrix: (Units=1/GPa)
#
#
# Indices 1 2 3 4 5 6 
#
# 1 0.009618 -0.002026 -0.002695 0.000000 0.000000 0.000000
# 2 -0.002026 0.013504 -0.005717 0.000000 0.000000 0.000000
# 3 -0.002695 -0.005717 0.010159 0.000000 0.000000 0.000000
# 4 0.000000 0.000000 0.000000 0.021706 0.000000 0.000000
# 5 0.000000 0.000000 0.000000 0.000000 0.031601 0.000000
# 6 0.000000 0.000000 0.000000 0.000000 0.000000 0.047270
#
#
# Mechanical properties :
#
#
# Convention : Reuss Voigt Hill
#
# Bulk Modulus (GPa) = 80.61719 84.36086 82.48903
# Shear Modulus (GPa) = 31.47230 34.41375 32.94302
#
# Velocity S-wave (km/s) = 4.06364 4.24930 4.15751
# Velocity P-wave (km/s) = 8.01976 8.26672 8.14417
#
# Compressibility (1/GPa) = 0.01240430
#
# Stress axis : x y z
#
# Youngs Moduli (GPa) = 103.97229 74.05057 98.43853
#
# Poissons Ratio (x) = 0.15001 0.26533
# Poissons Ratio (y) = 0.21062 0.56279
# Poissons Ratio (z) = 0.28024 0.42336
#
# Static dielectric constant tensor:
#      x y z
#    x 3.736350 0.000000 0.000000 
#    y 0.000000 3.321410 0.000000 
#    z 0.000000 0.000000 3.926310 
# 
# 
# High freq. dielectric constant tensor:
#      x y z
#    x 1.759100 0.000000 0.000000 
#    y 0.000000 1.706240 0.000000 
#    z 0.000000 0.000000 1.763820 
# 
# From -- ./inp_files/46438.got.cif
#   From: 2010.03.12/outbox.cif.g09.slc.cpg/sg69_24_cif.got.tgz:46438.got - 2010.04.10 23:52:46.
