data_PCOD8284544
_publ_section_title
;
Structure prediction by ZEFSAII (Michael W. Deem and Ramdas Pophale) SiO2 
 PCOD8284544
Probable space group: F M M M
;
_chemical_formula_sum "Si O2"
_cell_formula_units_Z 128
_cell_length_a 17.802700
_cell_length_b 13.514189
_cell_length_c 27.340961
_cell_angle_alpha 90.000000
_cell_angle_beta 90.000000
_cell_angle_gamma 90.000000
_cell_volume 6577.935902
_symmetry_space_group_name_H-M "F M M M"
_symmetry_group_IT_number 69
_symmetry_cell_setting 'orthorhombic'
loop_
_space_group_symop_operation_xyz
x,y,z
-x,-y,z
x,-y,-z
-x,y,-z
-x,-y,-z
x,y,-z
-x,y,z
x,-y,z
x,1/2+y,1/2+z
-x,1/2-y,1/2+z
x,1/2-y,1/2-z
-x,1/2+y,1/2-z
-x,1/2-y,1/2-z
x,1/2+y,1/2-z
-x,1/2+y,1/2+z
x,1/2-y,1/2+z
1/2+x,y,1/2+z
1/2-x,-y,1/2+z
1/2+x,-y,1/2-z
1/2-x,y,1/2-z
1/2-x,-y,1/2-z
1/2+x,y,1/2-z
1/2-x,y,1/2+z
1/2+x,-y,1/2+z
1/2+x,1/2+y,z
1/2-x,1/2-y,z
1/2+x,1/2-y,-z
1/2-x,1/2+y,-z
1/2-x,1/2-y,-z
1/2+x,1/2+y,-z
1/2-x,1/2+y,z
1/2+x,1/2-y,z
loop_
_atom_site_type_symbol
_atom_site_label
_atom_site_fract_x
_atom_site_fract_y
_atom_site_fract_z
Si Si1 0.500000 0.618074 0.851742
Si Si2 0.715305 0.612419 0.349494
Si Si3 0.642549 0.887966 0.945788
Si Si4 0.640597 0.720292 0.193833
Si Si5 0.500000 0.252655 0.556348
O O1 0.500000 0.500000 0.854906
O O2 0.430325 0.655492 0.820117
O O3 0.500000 0.659058 0.907107
O O4 0.707095 0.500000 0.332249
O O5 0.713491 0.623414 0.408716
O O6 0.641505 0.673141 0.332683
O O7 0.788304 0.656963 0.324212
O O8 0.573839 0.816484 0.932569
O O9 0.611197 0.000000 0.942648
O O10 0.673837 0.864786 0.000000
O O11 0.644199 0.750000 0.250000
O O12 0.500000 0.215213 0.500000
#
# Coordination Sequence:
#
# PCOD8284544 Si02
#       5
#    16  32  32  32  16
#     4  12  25  43  63  87 124 163 207 254 308 364
#     4  10  20  37  63  92 122 156 198 248 305 364
#     4   9  17  32  59  94 128 161 200 248 305 366
#     4  11  24  42  61  86 120 160 205 251 306 365
#     4  10  19  36  60  90 127 166 204 246 303 364
#
# _framework density 19.458993
#
# number of rings (size 3 to 8) (size 9 to 14) (size 15 to 20)
#    0.000    1.750    2.500    3.000    0.000    4.750 
#    0.000    4.375    0.000    3.000    0.000    0.000 
#    0.000    0.000    0.000    0.000    0.000    0.000 
#
# Total GULP energy -396492.902032 kJ/mol
# GULP energy per Si atom -12390.403189 kJ/mol
# Density = 1.941470 g / cm^3
# Si number density = 19.458993 Si / 1000 Ang^3
#
#
#
# Elastic Constant Matrix: (Units=GPa)
#
#
# Indices 1 2 3 4 5 6 
#
# 1 87.3942 61.2512 63.4648 0.0000 0.0000 0.0000
# 2 61.2512 167.5007 77.9115 0.0000 0.0000 0.0000
# 3 63.4648 77.9115 163.3841 0.0000 0.0000 0.0000
# 4 0.0000 0.0000 0.0000 28.4911 0.0000 0.0000
# 5 0.0000 0.0000 0.0000 0.0000 21.4959 0.0000
# 6 0.0000 0.0000 0.0000 0.0000 0.0000 27.6247
#
#
#
# Elastic Compliance Matrix: (Units=1/GPa)
#
#
# Indices 1 2 3 4 5 6 
#
# 1 0.018059 -0.004293 -0.004967 0.000000 0.000000 0.000000
# 2 -0.004293 0.008692 -0.002477 0.000000 0.000000 0.000000
# 3 -0.004967 -0.002477 0.009232 0.000000 0.000000 0.000000
# 4 0.000000 0.000000 0.000000 0.035099 0.000000 0.000000
# 5 0.000000 0.000000 0.000000 0.000000 0.046521 0.000000
# 6 0.000000 0.000000 0.000000 0.000000 0.000000 0.036200
#
#
# Mechanical properties :
#
#
# Convention : Reuss Voigt Hill
#
# Bulk Modulus (GPa) = 79.95847 91.50378 85.73113
# Shear Modulus (GPa) = 27.55641 29.89909 28.72775
#
# Velocity S-wave (km/s) = 3.76723 3.92410 3.84646
# Velocity P-wave (km/s) = 7.75259 8.22541 7.99250
#
# Compressibility (1/GPa) = 0.01250649
#
# Stress axis : x y z
#
# Youngs Moduli (GPa) = 55.37537 115.04353 108.32457
#
# Poissons Ratio (x) = 0.49389 0.53810
# Poissons Ratio (y) = 0.23773 0.26837
# Poissons Ratio (z) = 0.27508 0.28502
#
# Static dielectric constant tensor:
#      x y z
#    x 3.384800 0.000000 0.000000 
#    y 0.000000 3.775800 0.000000 
#    z 0.000000 0.000000 3.804880 
# 
# 
# High freq. dielectric constant tensor:
#      x y z
#    x 1.736750 0.000000 0.000000 
#    y 0.000000 1.765350 0.000000 
#    z 0.000000 0.000000 1.776100 
# 
# From -- ./inp_files/15314.got.cif
#   From: 2010.03.12/outbox.cif.g09.slc.cpg/sg69_8_cif.got.tgz:15314.got - 2010.04.10 23:52:46.
