data_PCOD8284758
_publ_section_title
;
Structure prediction by ZEFSAII (Michael W. Deem and Ramdas Pophale) SiO2 
 PCOD8284758
Probable space group: F M M M
;
_chemical_formula_sum "Si O2"
_cell_formula_units_Z 160
_cell_length_a 14.442339
_cell_length_b 18.042712
_cell_length_c 27.745015
_cell_angle_alpha 90.000000
_cell_angle_beta 90.000000
_cell_angle_gamma 90.000000
_cell_volume 7229.767242
_symmetry_space_group_name_H-M "F M M M"
_symmetry_group_IT_number 69
_symmetry_cell_setting 'orthorhombic'
loop_
_space_group_symop_operation_xyz
x,y,z
-x,-y,z
x,-y,-z
-x,y,-z
-x,-y,-z
x,y,-z
-x,y,z
x,-y,z
x,1/2+y,1/2+z
-x,1/2-y,1/2+z
x,1/2-y,1/2-z
-x,1/2+y,1/2-z
-x,1/2-y,1/2-z
x,1/2+y,1/2-z
-x,1/2+y,1/2+z
x,1/2-y,1/2+z
1/2+x,y,1/2+z
1/2-x,-y,1/2+z
1/2+x,-y,1/2-z
1/2-x,y,1/2-z
1/2-x,-y,1/2-z
1/2+x,y,1/2-z
1/2-x,y,1/2+z
1/2+x,-y,1/2+z
1/2+x,1/2+y,z
1/2-x,1/2-y,z
1/2+x,1/2-y,-z
1/2-x,1/2+y,-z
1/2-x,1/2-y,-z
1/2+x,1/2+y,-z
1/2-x,1/2+y,z
1/2+x,1/2-y,z
loop_
_atom_site_type_symbol
_atom_site_label
_atom_site_fract_x
_atom_site_fract_y
_atom_site_fract_z
Si Si1 0.106473 0.184561 0.679435
Si Si2 0.795880 0.414462 0.553549
Si Si3 0.399141 0.915199 0.088141
Si Si4 0.109180 0.081804 0.238058
Si Si5 0.608521 0.160362 0.357739
O O1 0.121277 0.128457 0.636397
O O2 0.152778 0.145002 0.726511
O O3 0.150992 0.263051 0.663675
O O4 0.000000 0.201458 0.691440
O O5 0.833645 0.395606 0.500000
O O6 0.818192 0.500000 0.566551
O O7 0.684803 0.400730 0.551426
O O8 0.842820 0.360726 0.592209
O O9 0.500000 0.892301 0.065681
O O10 0.402062 0.000000 0.103978
O O11 0.130494 0.098590 0.182236
O O12 0.000000 0.081339 0.247357
O O13 0.149991 0.000000 0.249639
O O14 0.500000 0.167949 0.368988
#
# Coordination Sequence:
#
# PCOD8284758 Si02
#       5
#    32  32  32  32  32
#     4   9  17  31  53  82 114 147 184 227 279 339
#     4  10  22  39  58  81 109 145 193 243 285 329
#     4   9  18  35  59  83 107 138 181 237 297 349
#     4   9  16  28  51  82 115 153 193 231 276 331
#     4  10  20  34  53  81 120 160 193 227 271 327
#
# _framework density 22.130725999999999
#
# number of rings (size 3 to 8) (size 9 to 14) (size 15 to 20)
#    0.000    2.600    0.000    1.800    0.000    7.600 
#    0.000    6.000    0.000    9.600    0.000    0.000 
#    0.000    0.000    0.000    0.000    0.000    0.000 
#
# Total GULP energy -495672.397578 kJ/mol
# GULP energy per Si atom -12391.809939 kJ/mol
# Density = 2.208036 g / cm^3
# Si number density = 22.130726 Si / 1000 Ang^3
#
#
#
# Elastic Constant Matrix: (Units=GPa)
#
#
# Indices 1 2 3 4 5 6 
#
# 1 52.9715 34.0139 36.0390 0.0000 0.0000 0.0000
# 2 34.0139 126.8801 86.6545 0.0000 0.0000 0.0000
# 3 36.0390 86.6545 141.4527 0.0000 0.0000 0.0000
# 4 0.0000 0.0000 0.0000 -60.1590 0.0000 0.0000
# 5 0.0000 0.0000 0.0000 0.0000 23.7217 0.0000
# 6 0.0000 0.0000 0.0000 0.0000 0.0000 12.9729
#
#
#
# Elastic Compliance Matrix: (Units=1/GPa)
#
#
# Indices 1 2 3 4 5 6 
#
# 1 0.023890 -0.003864 -0.003719 0.000000 0.000000 0.000000
# 2 -0.003864 0.014176 -0.007700 0.000000 0.000000 0.000000
# 3 -0.003719 -0.007700 0.012734 0.000000 0.000000 0.000000
# 4 0.000000 0.000000 0.000000 -0.016623 0.000000 0.000000
# 5 0.000000 0.000000 0.000000 0.000000 0.042156 0.000000
# 6 0.000000 0.000000 0.000000 0.000000 0.000000 0.077084
#
#
# Mechanical properties :
#
#
# Convention : Reuss Voigt Hill
#
# Bulk Modulus (GPa) = 49.42372 70.52433 59.97402
# Shear Modulus (GPa) = 26.21539 6.28024 16.24781
#
# Velocity S-wave (km/s) = 3.44549 1.68640 2.71250
# Velocity P-wave (km/s) = 6.18140 5.97731 6.08021
#
# Compressibility (1/GPa) = 0.02023320
#
# Stress axis : x y z
#
# Youngs Moduli (GPa) = 41.85889 70.54162 78.52963
#
# Poissons Ratio (x) = 0.27258 0.29208
# Poissons Ratio (y) = 0.16175 0.60466
# Poissons Ratio (z) = 0.15569 0.54316
#
# Static dielectric constant tensor:
#      x y z
#    x 3.901150 0.000000 0.000000 
#    y 0.000000 4.124210 0.000000 
#    z 0.000000 0.000000 3.777540 
# 
# 
# High freq. dielectric constant tensor:
#      x y z
#    x 1.853590 0.000000 0.000000 
#    y 0.000000 1.872060 0.000000 
#    z 0.000000 0.000000 1.858750 
# 
# From -- ./inp_files/41749.got.cif
#   From: 2010.03.12/outbox.cif.g09.slc.cpg/sg69_21_cif.got.tgz:41749.got - 2010.04.10 23:52:46.
