data_PCOD8284934
_publ_section_title
;
Structure prediction by ZEFSAII (Michael W. Deem and Ramdas Pophale) SiO2 
 PCOD8284934
Probable space group: F M M M
;
_chemical_formula_sum "Si O2"
_cell_formula_units_Z 176
_cell_length_a 24.494945
_cell_length_b 22.165965
_cell_length_c 16.464842
_cell_angle_alpha 90.000000
_cell_angle_beta 90.000000
_cell_angle_gamma 90.000000
_cell_volume 8939.653364
_symmetry_space_group_name_H-M "F M M M"
_symmetry_group_IT_number 69
_symmetry_cell_setting 'orthorhombic'
loop_
_space_group_symop_operation_xyz
x,y,z
-x,-y,z
x,-y,-z
-x,y,-z
-x,-y,-z
x,y,-z
-x,y,z
x,-y,z
x,1/2+y,1/2+z
-x,1/2-y,1/2+z
x,1/2-y,1/2-z
-x,1/2+y,1/2-z
-x,1/2-y,1/2-z
x,1/2+y,1/2-z
-x,1/2+y,1/2+z
x,1/2-y,1/2+z
1/2+x,y,1/2+z
1/2-x,-y,1/2+z
1/2+x,-y,1/2-z
1/2-x,y,1/2-z
1/2-x,-y,1/2-z
1/2+x,y,1/2-z
1/2-x,y,1/2+z
1/2+x,-y,1/2+z
1/2+x,1/2+y,z
1/2-x,1/2-y,z
1/2+x,1/2-y,-z
1/2-x,1/2+y,-z
1/2-x,1/2-y,-z
1/2+x,1/2+y,-z
1/2-x,1/2+y,z
1/2+x,1/2-y,z
loop_
_atom_site_type_symbol
_atom_site_label
_atom_site_fract_x
_atom_site_fract_y
_atom_site_fract_z
Si Si1 0.906434 0.566745 0.500000
Si Si2 0.787304 0.927984 0.826687
Si Si3 0.561401 0.879601 0.832327
Si Si4 0.901537 0.633783 0.658630
Si Si5 0.564091 0.256524 0.595298
Si Si6 0.564972 0.500000 0.592671
Si Si7 0.275943 0.933917 0.500000
O O1 0.931518 0.500000 0.500000
O O2 0.927454 0.600370 0.580622
O O3 0.841406 0.565224 0.500000
O O4 0.750000 0.912241 0.750000
O O5 0.842318 0.890456 0.815912
O O6 0.799866 0.000000 0.832198
O O7 0.758910 0.905132 0.912424
O O8 0.500000 0.880741 0.865993
O O9 0.560116 0.878723 0.735191
O O10 0.588336 0.819341 0.869812
O O11 0.590815 0.940444 0.864975
O O12 0.900570 0.704809 0.639021
O O13 0.574752 0.254251 0.500000
O O14 0.500000 0.248182 0.616408
O O15 0.500000 0.500000 0.603460
O O16 0.583490 0.500000 0.500000
O O17 0.250130 0.000000 0.500000
#
# Coordination Sequence:
#
# PCOD8284934 Si02
#       7
#    16  32  32  32  32  16  16
#     4   9  18  30  47  76 110 147 179 218 276 340
#     4   9  18  32  54  81 111 147 187 230 280 338
#     4  10  21  34  54  80 110 145 186 235 281 335
#     4  11  19  32  55  81 112 147 187 231 277 333
#     4  10  20  36  56  80 111 149 194 237 278 334
#     4   9  18  34  54  75 100 139 185 224 276 334
#     4   7  12  26  48  71  99 137 175 215 265 327
#
# _framework density 19.687563999999998
#
# number of rings (size 3 to 8) (size 9 to 14) (size 15 to 20)
#    0.000    2.455    0.909    3.273    2.545    3.636 
#    0.000    0.000    4.000    4.364    0.000    1.273 
#    0.000    0.000    0.000    0.000    0.000    0.000 
#
# Total GULP energy -545231.507843 kJ/mol
# GULP energy per Si atom -12391.625178 kJ/mol
# Density = 1.964275 g / cm^3
# Si number density = 19.687564 Si / 1000 Ang^3
#
#
#
# Elastic Constant Matrix: (Units=GPa)
#
#
# Indices 1 2 3 4 5 6 
#
# 1 34.4441 25.2003 19.3333 0.0000 0.0000 0.0000
# 2 25.2003 173.3068 69.6547 0.0000 0.0000 0.0000
# 3 19.3333 69.6547 157.4645 0.0000 0.0000 0.0000
# 4 0.0000 0.0000 0.0000 32.0369 0.0000 0.0000
# 5 0.0000 0.0000 0.0000 0.0000 26.1425 0.0000
# 6 0.0000 0.0000 0.0000 0.0000 0.0000 20.2764
#
#
#
# Elastic Compliance Matrix: (Units=1/GPa)
#
#
# Indices 1 2 3 4 5 6 
#
# 1 0.033195 -0.003878 -0.002360 0.000000 0.000000 0.000000
# 2 -0.003878 0.007471 -0.002829 0.000000 0.000000 0.000000
# 3 -0.002360 -0.002829 0.007892 0.000000 0.000000 0.000000
# 4 0.000000 0.000000 0.000000 0.031214 0.000000 0.000000
# 5 0.000000 0.000000 0.000000 0.000000 0.038252 0.000000
# 6 0.000000 0.000000 0.000000 0.000000 0.000000 0.049319
#
#
# Mechanical properties :
#
#
# Convention : Reuss Voigt Hill
#
# Bulk Modulus (GPa) = 32.86946 65.95469 49.41208
# Shear Modulus (GPa) = 25.56022 32.42630 28.99326
#
# Velocity S-wave (km/s) = 3.60709 4.06278 3.84170
# Velocity P-wave (km/s) = 5.83780 7.45531 6.69558
#
# Compressibility (1/GPa) = 0.03042338
#
# Stress axis : x y z
#
# Youngs Moduli (GPa) = 30.12534 133.85258 126.71641
#
# Poissons Ratio (x) = 0.51911 0.29906
# Poissons Ratio (y) = 0.11683 0.35843
# Poissons Ratio (z) = 0.07110 0.37862
#
# Static dielectric constant tensor:
#      x y z
#    x 2.947540 0.000000 0.000000 
#    y 0.000000 3.753220 0.000000 
#    z 0.000000 0.000000 3.953270 
# 
# 
# High freq. dielectric constant tensor:
#      x y z
#    x 1.701410 0.000000 0.000000 
#    y 0.000000 1.763890 0.000000 
#    z 0.000000 0.000000 1.795740 
# 
# From -- ./inp_files/26819.got.cif
#   From: 2010.03.12/outbox.cif.g09.slc.cpg/sg69_14_cif.got.tgz:26819.got - 2010.04.10 23:52:46.
