data_PCOD8284898
_publ_section_title
;
Structure prediction by ZEFSAII (Michael W. Deem and Ramdas Pophale) SiO2 
 PCOD8284898
Probable space group: F M M M
;
_chemical_formula_sum "Si O2"
_cell_formula_units_Z 160
_cell_length_a 25.235188
_cell_length_b 18.647881
_cell_length_c 18.210333
_cell_angle_alpha 90.000000
_cell_angle_beta 90.000000
_cell_angle_gamma 90.000000
_cell_volume 8569.469180
_symmetry_space_group_name_H-M "F M M M"
_symmetry_group_IT_number 69
_symmetry_cell_setting 'orthorhombic'
loop_
_space_group_symop_operation_xyz
x,y,z
-x,-y,z
x,-y,-z
-x,y,-z
-x,-y,-z
x,y,-z
-x,y,z
x,-y,z
x,1/2+y,1/2+z
-x,1/2-y,1/2+z
x,1/2-y,1/2-z
-x,1/2+y,1/2-z
-x,1/2-y,1/2-z
x,1/2+y,1/2-z
-x,1/2+y,1/2+z
x,1/2-y,1/2+z
1/2+x,y,1/2+z
1/2-x,-y,1/2+z
1/2+x,-y,1/2-z
1/2-x,y,1/2-z
1/2-x,-y,1/2-z
1/2+x,y,1/2-z
1/2-x,y,1/2+z
1/2+x,-y,1/2+z
1/2+x,1/2+y,z
1/2-x,1/2-y,z
1/2+x,1/2-y,-z
1/2-x,1/2+y,-z
1/2-x,1/2-y,-z
1/2+x,1/2+y,-z
1/2-x,1/2+y,z
1/2+x,1/2-y,z
loop_
_atom_site_type_symbol
_atom_site_label
_atom_site_fract_x
_atom_site_fract_y
_atom_site_fract_z
Si Si1 0.836461 0.082219 0.146863
Si Si2 0.943069 0.782965 0.329754
Si Si3 0.756667 0.333996 0.080499
Si Si4 0.940337 0.359476 0.413833
Si Si5 0.835460 0.671494 0.211350
O O1 0.799900 0.127944 0.092122
O O2 0.898038 0.088560 0.124169
O O3 0.828805 0.110311 0.228949
O O4 0.818892 0.000000 0.143462
O O5 0.948850 0.750000 0.250000
O O6 0.929663 0.721696 0.388651
O O7 0.893203 0.836185 0.327157
O O8 0.000000 0.820185 0.349865
O O9 0.750000 0.250000 0.078711
O O10 0.794862 0.350935 0.148150
O O11 0.778399 0.359064 0.000000
O O12 0.932489 0.363582 0.500000
O O13 0.000000 0.383449 0.391143
O O14 0.826229 0.750000 0.250000
#
# Coordination Sequence:
#
# PCOD8284898 Si02
#       5
#    32  32  32  32  32
#     4  12  25  39  58  86 118 154 194 238 293 357
#     4   9  16  31  57  85 111 147 193 235 276 325
#     4  11  23  38  59  83 111 150 197 241 284 340
#     4  10  20  35  57  86 121 158 193 233 286 350
#     4  11  20  37  61  85 111 153 195 239 286 339
#
# _framework density 18.670933999999999
#
# number of rings (size 3 to 8) (size 9 to 14) (size 15 to 20)
#    0.000    1.400    6.000    1.200    0.000    6.000 
#    0.000    1.000    0.000    0.000    0.000    0.000 
#    0.000    0.000    0.000   10.400    0.000    0.000 
#
# Total GULP energy -495718.894068 kJ/mol
# GULP energy per Si atom -12392.972352 kJ/mol
# Density = 1.862844 g / cm^3
# Si number density = 18.670934 Si / 1000 Ang^3
#
#
#
# Elastic Constant Matrix: (Units=GPa)
#
#
# Indices 1 2 3 4 5 6 
#
# 1 116.1641 35.5479 52.2985 0.0000 0.0000 0.0000
# 2 35.5479 80.3104 35.4313 0.0000 0.0000 0.0000
# 3 52.2985 35.4313 118.3193 0.0000 0.0000 0.0000
# 4 0.0000 0.0000 0.0000 -36.2091 0.0000 0.0000
# 5 0.0000 0.0000 0.0000 0.0000 20.5283 0.0000
# 6 0.0000 0.0000 0.0000 0.0000 0.0000 17.4991
#
#
#
# Elastic Compliance Matrix: (Units=1/GPa)
#
#
# Indices 1 2 3 4 5 6 
#
# 1 0.011445 -0.003266 -0.004081 0.000000 0.000000 0.000000
# 2 -0.003266 0.015279 -0.003132 0.000000 0.000000 0.000000
# 3 -0.004081 -0.003132 0.011193 0.000000 0.000000 0.000000
# 4 0.000000 0.000000 0.000000 -0.027617 0.000000 0.000000
# 5 0.000000 0.000000 0.000000 0.000000 0.048713 0.000000
# 6 0.000000 0.000000 0.000000 0.000000 0.000000 0.057146
#
#
# Mechanical properties :
#
#
# Convention : Reuss Voigt Hill
#
# Bulk Modulus (GPa) = 58.96053 62.37215 60.66634
# Shear Modulus (GPa) = 35.02153 13.13141 24.07647
#
# Velocity S-wave (km/s) = 4.33566 2.65487 3.59488
# Velocity P-wave (km/s) = 7.53069 6.54800 7.05647
#
# Compressibility (1/GPa) = 0.01696050
#
# Stress axis : x y z
#
# Youngs Moduli (GPa) = 87.37338 65.44997 89.33813
#
# Poissons Ratio (x) = 0.21373 0.36459
# Poissons Ratio (y) = 0.28532 0.27980
# Poissons Ratio (z) = 0.35657 0.20498
#
# Static dielectric constant tensor:
#      x y z
#    x 4.161660 0.000000 0.000000 
#    y 0.000000 2.911410 0.000000 
#    z 0.000000 0.000000 3.540600 
# 
# 
# High freq. dielectric constant tensor:
#      x y z
#    x 1.744900 0.000000 0.000000 
#    y 0.000000 1.669700 0.000000 
#    z 0.000000 0.000000 1.734970 
# 
# From -- ./inp_files/23136.got.cif
#   From: 2010.03.12/outbox.cif.g09.slc.cpg/sg69_12_cif.got.tgz:23136.got - 2010.04.10 23:52:46.
