data_PCOD8284126
_publ_section_title
;
Structure prediction by ZEFSAII (Michael W. Deem and Ramdas Pophale) SiO2 
 PCOD8284126
Probable space group: F M M M
;
_chemical_formula_sum "Si O2"
_cell_formula_units_Z 192
_cell_length_a 26.276629
_cell_length_b 27.411656
_cell_length_c 16.244987
_cell_angle_alpha 90.000000
_cell_angle_beta 90.000000
_cell_angle_gamma 90.000000
_cell_volume 11701.035325
_symmetry_space_group_name_H-M "F M M M"
_symmetry_group_IT_number 69
_symmetry_cell_setting 'orthorhombic'
loop_
_space_group_symop_operation_xyz
x,y,z
-x,-y,z
x,-y,-z
-x,y,-z
-x,-y,-z
x,y,-z
-x,y,z
x,-y,z
x,1/2+y,1/2+z
-x,1/2-y,1/2+z
x,1/2-y,1/2-z
-x,1/2+y,1/2-z
-x,1/2-y,1/2-z
x,1/2+y,1/2-z
-x,1/2+y,1/2+z
x,1/2-y,1/2+z
1/2+x,y,1/2+z
1/2-x,-y,1/2+z
1/2+x,-y,1/2-z
1/2-x,y,1/2-z
1/2-x,-y,1/2-z
1/2+x,y,1/2-z
1/2-x,y,1/2+z
1/2+x,-y,1/2+z
1/2+x,1/2+y,z
1/2-x,1/2-y,z
1/2+x,1/2-y,-z
1/2-x,1/2+y,-z
1/2-x,1/2-y,-z
1/2+x,1/2+y,-z
1/2-x,1/2+y,z
1/2+x,1/2-y,z
loop_
_atom_site_type_symbol
_atom_site_label
_atom_site_fract_x
_atom_site_fract_y
_atom_site_fract_z
Si Si1 0.397929 0.941793 0.000000
Si Si2 0.060017 0.803751 0.242267
Si Si3 0.390098 0.443542 0.178238
Si Si4 0.059877 0.600990 0.166637
Si Si5 0.560113 0.138338 0.589343
Si Si6 0.274017 0.057873 0.665737
Si Si7 0.721125 0.442648 0.500000
O O1 0.423955 0.915435 0.923285
O O2 0.338365 0.930040 0.000000
O O3 0.408604 0.000000 0.000000
O O4 0.085046 0.750000 0.250000
O O5 0.072572 0.841356 0.317051
O O6 0.083118 0.825644 0.157947
O O7 0.000000 0.797946 0.233886
O O8 0.395843 0.500000 0.160140
O O9 0.408831 0.432350 0.270309
O O10 0.424128 0.416677 0.110506
O O11 0.332400 0.425953 0.165894
O O12 0.000000 0.591835 0.180290
O O13 0.581586 0.153433 0.500000
O O14 0.500000 0.140819 0.590092
O O15 0.250000 0.079486 0.750000
O O16 0.246558 0.079283 0.583442
O O17 0.267680 0.000000 0.666349
O O18 0.730270 0.500000 0.500000
#
# Coordination Sequence:
#
# PCOD8284126 Si02
#       7
#    16  32  32  32  32  32  16
#     4  11  21  32  47  68 101 139 165 194 236 281
#     4   8  15  31  50  65  88 121 154 195 243 277
#     4  10  19  29  45  64  92 131 163 189 227 271
#     4  10  20  32  46  69  99 129 165 199 227 281
#     4   9  18  30  43  65  95 122 152 187 222 274
#     4   9  17  29  44  63  86 117 161 204 238 272
#     4   9  18  31  46  63  90 126 162 203 243 273
#
# _framework density 16.408804
#
# number of rings (size 3 to 8) (size 9 to 14) (size 15 to 20)
#    0.000    2.667    0.000    3.250    1.167    5.667 
#    1.500    0.833    0.000    0.000    0.000    0.000 
#    0.000   48.000    0.000    0.000    0.000    0.000 
#
# Total GULP energy -594877.289078 kJ/mol
# GULP energy per Si atom -12393.276856 kJ/mol
# Density = 1.637146 g / cm^3
# Si number density = 16.408804 Si / 1000 Ang^3
#
#
#
# Elastic Constant Matrix: (Units=GPa)
#
#
# Indices 1 2 3 4 5 6 
#
# 1 30.6240 23.0536 34.3255 0.0000 0.0000 0.0000
# 2 23.0536 90.4599 48.0071 0.0000 0.0000 0.0000
# 3 34.3255 48.0071 138.5821 0.0000 0.0000 0.0000
# 4 0.0000 0.0000 0.0000 10.7668 0.0000 0.0000
# 5 0.0000 0.0000 0.0000 0.0000 25.4696 0.0000
# 6 0.0000 0.0000 0.0000 0.0000 0.0000 1.2703
#
#
#
# Elastic Compliance Matrix: (Units=1/GPa)
#
#
# Indices 1 2 3 4 5 6 
#
# 1 0.048938 -0.007399 -0.009558 0.000000 0.000000 0.000000
# 2 -0.007399 0.014663 -0.003247 0.000000 0.000000 0.000000
# 3 -0.009558 -0.003247 0.010708 0.000000 0.000000 0.000000
# 4 0.000000 0.000000 0.000000 0.092878 0.000000 0.000000
# 5 0.000000 0.000000 0.000000 0.000000 0.039263 0.000000
# 6 0.000000 0.000000 0.000000 0.000000 0.000000 0.787212
#
#
# Mechanical properties :
#
#
# Convention : Reuss Voigt Hill
#
# Bulk Modulus (GPa) = 29.49797 52.27096 40.88447
# Shear Modulus (GPa) = 4.78299 17.78667 11.28483
#
# Velocity S-wave (km/s) = 1.70916 3.29594 2.62531
# Velocity P-wave (km/s) = 4.68091 6.81241 5.84465
#
# Compressibility (1/GPa) = 0.03390064
#
# Stress axis : x y z
#
# Youngs Moduli (GPa) = 20.43418 68.19682 93.38618
#
# Poissons Ratio (x) = 0.50460 0.89261
# Poissons Ratio (y) = 0.15120 0.30322
# Poissons Ratio (z) = 0.19531 0.22143
#
# Static dielectric constant tensor:
#      x y z
#    x 3.005250 0.000000 0.000000 
#    y 0.000000 3.029820 0.000000 
#    z 0.000000 0.000000 3.512920 
# 
# 
# High freq. dielectric constant tensor:
#      x y z
#    x 1.615570 0.000000 0.000000 
#    y 0.000000 1.595370 0.000000 
#    z 0.000000 0.000000 1.646180 
# 
# From -- ./inp_files/19929.got.cif
#   From: 2010.03.12/outbox.cif.g09.slc.cpg/sg69_10_cif.got.tgz:19929.got - 2010.04.10 23:52:46.
