data_PCOD8284866
_publ_section_title
;
Structure prediction by ZEFSAII (Michael W. Deem and Ramdas Pophale) SiO2 
 PCOD8284866
Probable space group: F M M M
;
_chemical_formula_sum "Si O2"
_cell_formula_units_Z 160
_cell_length_a 27.814330
_cell_length_b 10.280615
_cell_length_c 28.793853
_cell_angle_alpha 90.000000
_cell_angle_beta 90.000000
_cell_angle_gamma 90.000000
_cell_volume 8233.556720
_symmetry_space_group_name_H-M "F M M M"
_symmetry_group_IT_number 69
_symmetry_cell_setting 'orthorhombic'
loop_
_space_group_symop_operation_xyz
x,y,z
-x,-y,z
x,-y,-z
-x,y,-z
-x,-y,-z
x,y,-z
-x,y,z
x,-y,z
x,1/2+y,1/2+z
-x,1/2-y,1/2+z
x,1/2-y,1/2-z
-x,1/2+y,1/2-z
-x,1/2-y,1/2-z
x,1/2+y,1/2-z
-x,1/2+y,1/2+z
x,1/2-y,1/2+z
1/2+x,y,1/2+z
1/2-x,-y,1/2+z
1/2+x,-y,1/2-z
1/2-x,y,1/2-z
1/2-x,-y,1/2-z
1/2+x,y,1/2-z
1/2-x,y,1/2+z
1/2+x,-y,1/2+z
1/2+x,1/2+y,z
1/2-x,1/2-y,z
1/2+x,1/2-y,-z
1/2-x,1/2+y,-z
1/2-x,1/2-y,-z
1/2+x,1/2+y,-z
1/2-x,1/2+y,z
1/2+x,1/2-y,z
loop_
_atom_site_type_symbol
_atom_site_label
_atom_site_fract_x
_atom_site_fract_y
_atom_site_fract_z
Si Si1 0.722119 0.361358 0.201094
Si Si2 0.110936 0.149274 0.787646
Si Si3 0.213202 0.144225 0.444727
Si Si4 0.604631 0.648665 0.554612
Si Si5 0.444309 0.352429 0.881519
O O1 0.725740 0.500000 0.174976
O O2 0.750000 0.371520 0.250000
O O3 0.750000 0.250000 0.171275
O O4 0.667229 0.322100 0.207537
O O5 0.089558 0.250000 0.750000
O O6 0.085589 0.181141 0.835828
O O7 0.101402 0.000000 0.771980
O O8 0.215065 0.145607 0.500000
O O9 0.250000 0.250000 0.423627
O O10 0.159077 0.178489 0.428823
O O11 0.227622 0.000000 0.426885
O O12 0.599180 0.669520 0.500000
O O13 0.590847 0.500000 0.567823
O O14 0.569237 0.750442 0.578709
O O15 0.500000 0.336681 0.869289
O O16 0.433068 0.500000 0.898392
#
# Coordination Sequence:
#
# PCOD8284866 Si02
#       5
#    32  32  32  32  32
#     4   9  15  26  48  77 105 137 173 212 260 316
#     4  10  20  35  56  81 110 144 182 225 273 328
#     4   8  14  26  47  76 108 140 174 214 263 321
#     4   9  19  37  60  85 113 146 187 237 288 335
#     4  10  23  41  57  78 111 147 187 238 291 344
#
# _framework density 19.432670999999999
#
# number of rings (size 3 to 8) (size 9 to 14) (size 15 to 20)
#    0.000    2.800    2.000    1.200    0.000    3.200 
#    0.000    5.000    0.000    4.800    0.000    0.000 
#    0.000    0.000    0.000    0.000    0.000    0.000 
#
# Total GULP energy -495708.178288 kJ/mol
# GULP energy per Si atom -12392.704457 kJ/mol
# Density = 1.938844 g / cm^3
# Si number density = 19.432671 Si / 1000 Ang^3
#
#
#
# Elastic Constant Matrix: (Units=GPa)
#
#
# Indices 1 2 3 4 5 6 
#
# 1 100.5408 53.5206 40.1044 0.0000 0.0000 0.0000
# 2 53.5206 146.6894 51.2814 0.0000 0.0000 -0.0001
# 3 40.1044 51.2814 57.8206 0.0000 0.0000 0.0000
# 4 0.0000 0.0000 0.0000 23.3961 0.0000 0.0000
# 5 0.0000 0.0000 0.0000 0.0000 18.0349 0.0000
# 6 0.0000 -0.0001 0.0000 0.0000 0.0000 28.4304
#
#
#
# Elastic Compliance Matrix: (Units=1/GPa)
#
#
# Indices 1 2 3 4 5 6 
#
# 1 0.014380 -0.002551 -0.007712 0.000000 0.000000 0.000000
# 2 -0.002551 0.010333 -0.007395 0.000000 0.000000 0.000000
# 3 -0.007712 -0.007395 0.029203 0.000000 0.000000 0.000000
# 4 0.000000 0.000000 0.000000 0.042742 0.000000 0.000000
# 5 0.000000 0.000000 0.000000 0.000000 0.055448 0.000000
# 6 0.000000 0.000000 0.000000 0.000000 0.000000 0.035174
#
#
# Mechanical properties :
#
#
# Convention : Reuss Voigt Hill
#
# Bulk Modulus (GPa) = 53.76262 66.09596 59.92929
# Shear Modulus (GPa) = 21.85356 24.64858 23.25107
#
# Velocity S-wave (km/s) = 3.35711 3.56534 3.46279
# Velocity P-wave (km/s) = 6.53858 7.14391 6.84794
#
# Compressibility (1/GPa) = 0.01860028
#
# Stress axis : x y z
#
# Youngs Moduli (GPa) = 69.54024 96.77625 34.24334
#
# Poissons Ratio (x) = 0.24685 0.26408
# Poissons Ratio (y) = 0.17738 0.25324
# Poissons Ratio (z) = 0.53628 0.71569
#
# Static dielectric constant tensor:
#      x y z
#    x 3.583260 0.000000 0.000000 
#    y 0.000000 5.006280 0.000000 
#    z 0.000000 0.000000 3.095410 
# 
# 
# High freq. dielectric constant tensor:
#      x y z
#    x 1.751570 0.000000 0.000000 
#    y 0.000000 1.776070 0.000000 
#    z 0.000000 0.000000 1.722560 
# 
# From -- ./inp_files/40267.got.cif
#   From: 2010.03.12/outbox.cif.g09.slc.cpg/sg69_21_cif.got.tgz:40267.got - 2010.04.10 23:52:46.
