data_PCOD8284646
_publ_section_title
;
Structure prediction by ZEFSAII (Michael W. Deem and Ramdas Pophale) SiO2 
 PCOD8284646
Probable space group: F M M M
;
_chemical_formula_sum "Si O2"
_cell_formula_units_Z 160
_cell_length_a 9.405946
_cell_length_b 25.851374
_cell_length_c 36.516727
_cell_angle_alpha 90.000000
_cell_angle_beta 90.000000
_cell_angle_gamma 90.000000
_cell_volume 8879.284198
_symmetry_space_group_name_H-M "F M M M"
_symmetry_group_IT_number 69
_symmetry_cell_setting 'orthorhombic'
loop_
_space_group_symop_operation_xyz
x,y,z
-x,-y,z
x,-y,-z
-x,y,-z
-x,-y,-z
x,y,-z
-x,y,z
x,-y,z
x,1/2+y,1/2+z
-x,1/2-y,1/2+z
x,1/2-y,1/2-z
-x,1/2+y,1/2-z
-x,1/2-y,1/2-z
x,1/2+y,1/2-z
-x,1/2+y,1/2+z
x,1/2-y,1/2+z
1/2+x,y,1/2+z
1/2-x,-y,1/2+z
1/2+x,-y,1/2-z
1/2-x,y,1/2-z
1/2-x,-y,1/2-z
1/2+x,y,1/2-z
1/2-x,y,1/2+z
1/2+x,-y,1/2+z
1/2+x,1/2+y,z
1/2-x,1/2-y,z
1/2+x,1/2-y,-z
1/2-x,1/2+y,-z
1/2-x,1/2-y,-z
1/2+x,1/2+y,-z
1/2-x,1/2+y,z
1/2+x,1/2-y,z
loop_
_atom_site_type_symbol
_atom_site_label
_atom_site_fract_x
_atom_site_fract_y
_atom_site_fract_z
Si Si1 0.165997 0.800272 0.085924
Si Si2 0.831732 0.500000 0.334944
Si Si3 0.169227 0.600886 0.541299
Si Si4 0.664636 0.200119 0.329559
Si Si5 0.169921 0.500000 0.582829
Si Si6 0.168121 0.902929 0.212412
O O1 0.250000 0.750000 0.072317
O O2 0.223338 0.848420 0.062492
O O3 0.199009 0.812341 0.128255
O O4 0.000000 0.790389 0.079319
O O5 0.768412 0.500000 0.375949
O O6 0.779368 0.448867 0.313998
O O7 0.000000 0.500000 0.337592
O O8 0.228817 0.601782 0.500000
O O9 0.228750 0.550368 0.561866
O O10 0.000000 0.599476 0.541309
O O11 0.500000 0.212585 0.323948
O O12 0.750000 0.250000 0.315480
O O13 0.712535 0.151050 0.305949
O O14 0.000000 0.500000 0.583267
O O15 0.250000 0.909324 0.250000
O O16 0.000000 0.906024 0.219479
#
# Coordination Sequence:
#
# PCOD8284646 Si02
#       6
#    32  16  32  32  16  32
#     4   9  17  30  47  67  93 124 157 191 226 267
#     4   9  17  30  48  67  89 120 155 189 226 273
#     4   9  16  25  40  66  98 125 150 187 233 274
#     4   9  18  32  49  68  91 122 158 192 226 269
#     4   9  15  25  44  68  93 121 153 189 230 273
#     4  10  20  33  49  70  95 121 151 188 232 278
#
# _framework density 18.019469999999998
#
# number of rings (size 3 to 8) (size 9 to 14) (size 15 to 20)
#    0.000    2.800    0.000    1.800    0.000    7.600 
#    0.000    2.000    0.000    0.000    0.000    2.100 
#    0.000    1.600    0.000    0.000    0.000    0.000 
#
# Total GULP energy -496027.918240 kJ/mol
# GULP energy per Si atom -12400.697956 kJ/mol
# Density = 1.797846 g / cm^3
# Si number density = 18.019470 Si / 1000 Ang^3
#
#
#
# Elastic Constant Matrix: (Units=GPa)
#
#
# Indices 1 2 3 4 5 6 
#
# 1 19.2292 27.2920 20.9344 0.0000 0.0000 0.0000
# 2 27.2920 147.9282 66.8879 0.0000 0.0000 0.0000
# 3 20.9344 66.8879 117.6242 0.0000 0.0000 0.0000
# 4 0.0000 0.0000 0.0000 25.5731 0.0000 0.0000
# 5 0.0000 0.0000 0.0000 0.0000 17.8105 0.0000
# 6 0.0000 0.0000 0.0000 0.0000 0.0000 21.0223
#
#
#
# Elastic Compliance Matrix: (Units=1/GPa)
#
#
# Indices 1 2 3 4 5 6 
#
# 1 0.074913 -0.010490 -0.007368 0.000000 0.000000 0.000000
# 2 -0.010490 0.010569 -0.004143 0.000000 0.000000 0.000000
# 3 -0.007368 -0.004143 0.012169 0.000000 0.000000 0.000000
# 4 0.000000 0.000000 0.000000 0.039104 0.000000 0.000000
# 5 0.000000 0.000000 0.000000 0.000000 0.056147 0.000000
# 6 0.000000 0.000000 0.000000 0.000000 0.000000 0.047568
#
#
# Mechanical properties :
#
#
# Convention : Reuss Voigt Hill
#
# Bulk Modulus (GPa) = 18.63939 57.22335 37.93137
# Shear Modulus (GPa) = 16.53692 24.19234 20.36463
#
# Velocity S-wave (km/s) = 3.03268 3.66808 3.36541
# Velocity P-wave (km/s) = 4.75704 7.05444 6.01641
#
# Compressibility (1/GPa) = 0.05364982
#
# Stress axis : x y z
#
# Youngs Moduli (GPa) = 13.34878 94.61944 82.17652
#
# Poissons Ratio (x) = 0.99252 0.60546
# Poissons Ratio (y) = 0.14002 0.34046
# Poissons Ratio (z) = 0.09835 0.39201
#
# Static dielectric constant tensor:
#      x y z
#    x 2.852080 0.000000 0.000000 
#    y 0.000000 3.568610 0.000000 
#    z 0.000000 0.000000 3.442950 
# 
# 
# High freq. dielectric constant tensor:
#      x y z
#    x 1.642370 0.000000 0.000000 
#    y 0.000000 1.715530 0.000000 
#    z 0.000000 0.000000 1.705410 
# 
# From -- ./inp_files/45096.got.cif
#   From: 2010.03.12/outbox.cif.g09.slc.cpg/sg69_23_cif.got.tgz:45096.got - 2010.04.10 23:52:46.
