data_PCOD8284324
_publ_section_title
;
Structure prediction by ZEFSAII (Michael W. Deem and Ramdas Pophale) SiO2 
 PCOD8284324
Probable space group: F M M M
;
_chemical_formula_sum "Si O2"
_cell_formula_units_Z 208
_cell_length_a 27.575673
_cell_length_b 17.119674
_cell_length_c 23.485416
_cell_angle_alpha 90.000000
_cell_angle_beta 90.000000
_cell_angle_gamma 90.000000
_cell_volume 11087.148594
_symmetry_space_group_name_H-M "F M M M"
_symmetry_group_IT_number 69
_symmetry_cell_setting 'orthorhombic'
loop_
_space_group_symop_operation_xyz
x,y,z
-x,-y,z
x,-y,-z
-x,y,-z
-x,-y,-z
x,y,-z
-x,y,z
x,-y,z
x,1/2+y,1/2+z
-x,1/2-y,1/2+z
x,1/2-y,1/2-z
-x,1/2+y,1/2-z
-x,1/2-y,1/2-z
x,1/2+y,1/2-z
-x,1/2+y,1/2+z
x,1/2-y,1/2+z
1/2+x,y,1/2+z
1/2-x,-y,1/2+z
1/2+x,-y,1/2-z
1/2-x,y,1/2-z
1/2-x,-y,1/2-z
1/2+x,y,1/2-z
1/2-x,y,1/2+z
1/2+x,-y,1/2+z
1/2+x,1/2+y,z
1/2-x,1/2-y,z
1/2+x,1/2-y,-z
1/2-x,1/2+y,-z
1/2-x,1/2-y,-z
1/2+x,1/2+y,-z
1/2-x,1/2+y,z
1/2+x,1/2-y,z
loop_
_atom_site_type_symbol
_atom_site_label
_atom_site_fract_x
_atom_site_fract_y
_atom_site_fract_z
Si Si1 0.446332 0.500000 0.932348
Si Si2 0.889878 0.175029 0.434520
Si Si3 0.444843 0.407594 0.335248
Si Si4 0.359190 0.411723 0.740248
Si Si5 0.115782 0.145818 0.064981
Si Si6 0.306681 0.165359 0.345799
Si Si7 0.802676 0.656313 0.142588
O O1 0.500000 0.500000 0.905653
O O2 0.420755 0.579782 0.910758
O O3 0.449098 0.500000 0.000000
O O4 0.895756 0.148183 0.500000
O O5 0.927265 0.129346 0.394654
O O6 0.904540 0.266350 0.427915
O O7 0.833777 0.156845 0.416279
O O8 0.500000 0.381920 0.323153
O O9 0.439772 0.500000 0.342361
O O10 0.411920 0.379416 0.281226
O O11 0.364250 0.500000 0.760786
O O12 0.334683 0.365909 0.791132
O O13 0.324982 0.406483 0.685307
O O14 0.165620 0.138906 0.098209
O O15 0.128113 0.127071 0.000000
O O16 0.253513 0.132030 0.360890
O O17 0.305825 0.256800 0.332516
#
# Coordination Sequence:
#
# PCOD8284324 Si02
#       7
#    16  32  32  32  32  32  32
#     4   9  18  34  52  68  97 138 172 212 267 310
#     4   9  18  33  54  80 108 139 177 216 257 318
#     4   9  19  36  55  76 106 139 170 216 273 315
#     4  10  20  33  51  74 101 134 174 218 260 309
#     4   9  19  34  52  76 105 136 172 217 264 311
#     4  10  19  32  54  75 101 136 178 211 251 316
#     4   9  19  34  50  75 105 139 168 213 264 302
#
# _framework density 18.760459999999998
#
# number of rings (size 3 to 8) (size 9 to 14) (size 15 to 20)
#    0.000    2.692    0.000    0.923    1.077    4.308 
#    0.000    6.154    0.000   12.000    0.000    0.000 
#    0.000    0.000    0.000    0.000    0.000    0.000 
#
# Total GULP energy -644343.216588 kJ/mol
# GULP energy per Si atom -12391.215704 kJ/mol
# Density = 1.871776 g / cm^3
# Si number density = 18.760460 Si / 1000 Ang^3
#
#
#
# Elastic Constant Matrix: (Units=GPa)
#
#
# Indices 1 2 3 4 5 6 
#
# 1 164.7032 44.1105 51.1034 0.0000 0.0000 0.0000
# 2 44.1105 45.2095 32.0582 0.0000 0.0000 0.0000
# 3 51.1034 32.0582 67.5015 0.0000 0.0000 0.0000
# 4 0.0000 0.0000 0.0000 9.3588 0.0000 0.0000
# 5 0.0000 0.0000 0.0000 0.0000 21.1477 0.0000
# 6 0.0000 0.0000 0.0000 0.0000 0.0000 27.0546
#
#
#
# Elastic Compliance Matrix: (Units=1/GPa)
#
#
# Indices 1 2 3 4 5 6 
#
# 1 0.008858 -0.005862 -0.003923 0.000000 0.000000 0.000000
# 2 -0.005862 0.037229 -0.013244 0.000000 0.000000 0.000000
# 3 -0.003923 -0.013244 0.024074 0.000000 0.000000 0.000000
# 4 0.000000 0.000000 0.000000 0.106852 0.000000 0.000000
# 5 0.000000 0.000000 0.000000 0.000000 0.047287 0.000000
# 6 0.000000 0.000000 0.000000 0.000000 0.000000 0.036962
#
#
# Mechanical properties :
#
#
# Convention : Reuss Voigt Hill
#
# Bulk Modulus (GPa) = 41.48315 59.10648 50.29481
# Shear Modulus (GPa) = 15.85523 21.52168 18.68846
#
# Velocity S-wave (km/s) = 2.91028 3.39068 3.15963
# Velocity P-wave (km/s) = 5.78386 6.84860 6.33862
#
# Compressibility (1/GPa) = 0.02410617
#
# Stress axis : x y z
#
# Youngs Moduli (GPa) = 112.88628 26.86050 41.53870
#
# Poissons Ratio (x) = 0.15744 0.16294
# Poissons Ratio (y) = 0.66169 0.55012
# Poissons Ratio (z) = 0.44282 0.35573
#
# Static dielectric constant tensor:
#      x y z
#    x 3.726390 0.000000 0.000000 
#    y 0.000000 3.448090 0.000000 
#    z 0.000000 0.000000 3.379610 
# 
# 
# High freq. dielectric constant tensor:
#      x y z
#    x 1.730390 0.000000 0.000000 
#    y 0.000000 1.725110 0.000000 
#    z 0.000000 0.000000 1.717280 
# 
# From -- ./inp_files/38486.got.cif
#   From: 2010.03.12/outbox.cif.g09.slc.cpg/sg69_20_cif.got.tgz:38486.got - 2010.04.10 23:52:46.
