data_PCOD8284653
_publ_section_title
;
Structure prediction by ZEFSAII (Michael W. Deem and Ramdas Pophale) SiO2 
 PCOD8284653
Probable space group: F M M M
;
_chemical_formula_sum "Si O2"
_cell_formula_units_Z 192
_cell_length_a 20.543620
_cell_length_b 16.154798
_cell_length_c 27.926727
_cell_angle_alpha 90.000000
_cell_angle_beta 90.000000
_cell_angle_gamma 90.000000
_cell_volume 9268.267177
_symmetry_space_group_name_H-M "F M M M"
_symmetry_group_IT_number 69
_symmetry_cell_setting 'orthorhombic'
loop_
_space_group_symop_operation_xyz
x,y,z
-x,-y,z
x,-y,-z
-x,y,-z
-x,-y,-z
x,y,-z
-x,y,z
x,-y,z
x,1/2+y,1/2+z
-x,1/2-y,1/2+z
x,1/2-y,1/2-z
-x,1/2+y,1/2-z
-x,1/2-y,1/2-z
x,1/2+y,1/2-z
-x,1/2+y,1/2+z
x,1/2-y,1/2+z
1/2+x,y,1/2+z
1/2-x,-y,1/2+z
1/2+x,-y,1/2-z
1/2-x,y,1/2-z
1/2-x,-y,1/2-z
1/2+x,y,1/2-z
1/2-x,y,1/2+z
1/2+x,-y,1/2+z
1/2+x,1/2+y,z
1/2-x,1/2-y,z
1/2+x,1/2-y,-z
1/2-x,1/2+y,-z
1/2-x,1/2-y,-z
1/2+x,1/2+y,-z
1/2-x,1/2+y,z
1/2+x,1/2-y,z
loop_
_atom_site_type_symbol
_atom_site_label
_atom_site_fract_x
_atom_site_fract_y
_atom_site_fract_z
Si Si1 0.678801 0.598465 0.946233
Si Si2 0.071420 0.901555 0.553737
Si Si3 0.925787 0.095932 0.129732
Si Si4 0.073808 0.156697 0.233562
Si Si5 0.303953 0.095205 0.215359
Si Si6 0.194706 0.900957 0.390743
O O1 0.679395 0.500000 0.948364
O O2 0.618825 0.629203 0.913531
O O3 0.745647 0.631394 0.922929
O O4 0.671537 0.634626 0.000000
O O5 0.082656 0.868443 0.500000
O O6 0.127593 0.864662 0.587535
O O7 0.000000 0.872959 0.572519
O O8 0.075084 0.000000 0.553451
O O9 0.910258 0.148368 0.177315
O O10 0.000000 0.107801 0.113150
O O11 0.910555 0.000000 0.141476
O O12 0.083638 0.250000 0.250000
O O13 0.123358 0.101471 0.263903
O O14 0.000000 0.125785 0.243691
O O15 0.250000 0.138064 0.250000
O O16 0.298974 0.135898 0.162770
O O17 0.285223 0.000000 0.209688
O O18 0.192840 0.000000 0.390155
#
# Coordination Sequence:
#
# PCOD8284653 Si02
#       6
#    32  32  32  32  32  32
#     4   9  16  26  43  69 101 133 163 199 246 302
#     4   8  13  21  33  51  78 110 142 178 221 269
#     4   9  17  30  49  73 102 133 164 205 257 307
#     4  10  21  36  53  74 100 133 174 216 260 312
#     4  10  20  33  50  73 101 132 167 208 254 305
#     4   9  16  25  39  61  89 121 156 193 234 282
#
# _framework density 20.715845999999999
#
# number of rings (size 3 to 8) (size 9 to 14) (size 15 to 20)
#    0.000    2.833    0.000    2.500    0.000    7.000 
#    0.000    3.333    0.000    0.000    0.000    3.500 
#    0.000    2.667    0.000    0.000    0.000    0.167 
#
# Total GULP energy -595053.509716 kJ/mol
# GULP energy per Si atom -12396.948119 kJ/mol
# Density = 2.066870 g / cm^3
# Si number density = 20.715846 Si / 1000 Ang^3
#
#
#
# Elastic Constant Matrix: (Units=GPa)
#
#
# Indices 1 2 3 4 5 6 
#
# 1 165.8184 17.2708 114.4560 0.0000 0.0000 0.0000
# 2 17.2708 11.9150 21.7821 0.0000 0.0000 0.0000
# 3 114.4560 21.7821 202.0083 0.0000 0.0000 0.0000
# 4 0.0000 0.0000 0.0000 9.0798 0.0000 0.0000
# 5 0.0000 0.0000 0.0000 0.0000 46.7874 0.0000
# 6 0.0000 0.0000 0.0000 0.0000 0.0000 8.7064
#
#
#
# Elastic Compliance Matrix: (Units=1/GPa)
#
#
# Indices 1 2 3 4 5 6 
#
# 1 0.010160 -0.005235 -0.005192 0.000000 0.000000 0.000000
# 2 -0.005235 0.107231 -0.008596 0.000000 0.000000 0.000000
# 3 -0.005192 -0.008596 0.008819 0.000000 0.000000 0.000000
# 4 0.000000 0.000000 0.000000 0.110135 0.000000 0.000000
# 5 0.000000 0.000000 0.000000 0.000000 0.021373 0.000000
# 6 0.000000 0.000000 0.000000 0.000000 0.000000 0.114858
#
#
# Mechanical properties :
#
#
# Convention : Reuss Voigt Hill
#
# Bulk Modulus (GPa) = 11.34259 76.30663 43.82461
# Shear Modulus (GPa) = 11.36337 27.99690 19.68013
#
# Velocity S-wave (km/s) = 2.34462 3.68023 3.08556
# Velocity P-wave (km/s) = 3.58007 7.41442 5.82196
#
# Compressibility (1/GPa) = 0.08816327
#
# Stress axis : x y z
#
# Youngs Moduli (GPa) = 98.42882 9.32563 113.39293
#
# Poissons Ratio (x) = 0.04882 0.58872
# Poissons Ratio (y) = 0.51527 0.97477
# Poissons Ratio (z) = 0.51103 0.08017
#
# Static dielectric constant tensor:
#      x y z
#    x 4.025550 0.000000 0.000000 
#    y 0.000000 3.003040 0.000000 
#    z 0.000000 0.000000 4.011590 
# 
# 
# High freq. dielectric constant tensor:
#      x y z
#    x 1.825970 0.000000 0.000000 
#    y 0.000000 1.742040 0.000000 
#    z 0.000000 0.000000 1.818060 
# 
# From -- ./inp_files/42768.got.cif
#   From: 2010.03.12/outbox.cif.g09.slc.cpg/sg69_22_cif.got.tgz:42768.got - 2010.04.10 23:52:46.
