data_PCOD8284987
_publ_section_title
;
Structure prediction by ZEFSAII (Michael W. Deem and Ramdas Pophale) SiO2 
 PCOD8284987
Probable space group: F M M M
;
_chemical_formula_sum "Si O2"
_cell_formula_units_Z 176
_cell_length_a 17.873814
_cell_length_b 18.163389
_cell_length_c 24.557707
_cell_angle_alpha 90.000000
_cell_angle_beta 90.000000
_cell_angle_gamma 90.000000
_cell_volume 7972.635919
_symmetry_space_group_name_H-M "F M M M"
_symmetry_group_IT_number 69
_symmetry_cell_setting 'orthorhombic'
loop_
_space_group_symop_operation_xyz
x,y,z
-x,-y,z
x,-y,-z
-x,y,-z
-x,-y,-z
x,y,-z
-x,y,z
x,-y,z
x,1/2+y,1/2+z
-x,1/2-y,1/2+z
x,1/2-y,1/2-z
-x,1/2+y,1/2-z
-x,1/2-y,1/2-z
x,1/2+y,1/2-z
-x,1/2+y,1/2+z
x,1/2-y,1/2+z
1/2+x,y,1/2+z
1/2-x,-y,1/2+z
1/2+x,-y,1/2-z
1/2-x,y,1/2-z
1/2-x,-y,1/2-z
1/2+x,y,1/2-z
1/2-x,y,1/2+z
1/2+x,-y,1/2+z
1/2+x,1/2+y,z
1/2-x,1/2-y,z
1/2+x,1/2-y,-z
1/2-x,1/2+y,-z
1/2-x,1/2-y,-z
1/2+x,1/2+y,-z
1/2-x,1/2+y,z
1/2+x,1/2-y,z
loop_
_atom_site_type_symbol
_atom_site_label
_atom_site_fract_x
_atom_site_fract_y
_atom_site_fract_z
Si Si1 0.630243 0.916392 0.161977
Si Si2 0.853511 0.163918 0.937457
Si Si3 0.084301 0.667473 0.262635
Si Si4 0.799687 0.914800 0.159222
Si Si5 0.500000 0.418519 0.935444
Si Si6 0.913205 0.322878 0.061819
O O1 0.579839 0.874256 0.205308
O O2 0.716022 0.910950 0.182842
O O3 0.616551 0.885035 0.101842
O O4 0.603425 0.000000 0.159941
O O5 0.791201 0.127777 0.898804
O O6 0.862261 0.250794 0.928929
O O7 0.928121 0.124914 0.915377
O O8 0.834400 0.145055 0.000000
O O9 0.112310 0.750000 0.250000
O O10 0.141628 0.627784 0.303033
O O11 0.000000 0.667897 0.287569
O O12 0.824702 0.000000 0.152136
O O13 0.500000 0.500000 0.909764
O O14 0.500000 0.421756 0.000000
O O15 0.000000 0.302799 0.072582
O O16 0.902986 0.351237 0.000000
#
# Coordination Sequence:
#
# PCOD8284987 Si02
#       6
#    32  32  32  32  16  32
#     4  11  25  44  63  88 126 167 205 254 314 368
#     4  10  20  36  59  88 126 166 203 250 306 364
#     4  11  25  44  68  95 121 154 202 258 312 372
#     4  11  25  41  61  92 128 164 206 254 304 371
#     4   9  16  28  50  80 114 155 195 235 291 351
#     4  10  21  39  64  93 124 161 212 266 308 360
#
# _framework density 22.075509
#
# number of rings (size 3 to 8) (size 9 to 14) (size 15 to 20)
#    0.000    1.545    0.909    3.273    1.273   11.273 
#    0.000    4.545    0.000    0.000    0.000    0.000 
#    0.000    0.000    0.000    0.000    0.000    0.000 
#
# Total GULP energy -545626.638676 kJ/mol
# GULP energy per Si atom -12400.605424 kJ/mol
# Density = 2.202526 g / cm^3
# Si number density = 22.075509 Si / 1000 Ang^3
#
#
#
# Elastic Constant Matrix: (Units=GPa)
#
#
# Indices 1 2 3 4 5 6 
#
# 1 53.3821 23.1217 19.9089 0.0000 0.0000 0.0000
# 2 23.1217 156.1420 65.0916 0.0000 0.0000 0.0000
# 3 19.9089 65.0916 106.7958 0.0000 0.0000 0.0000
# 4 0.0000 0.0000 0.0000 39.9818 0.0000 0.0000
# 5 0.0000 0.0000 0.0000 0.0000 31.0888 0.0000
# 6 0.0000 0.0000 0.0000 0.0000 0.0000 30.7862
#
#
#
# Elastic Compliance Matrix: (Units=1/GPa)
#
#
# Indices 1 2 3 4 5 6 
#
# 1 0.020562 -0.001940 -0.002651 0.000000 0.000000 0.000000
# 2 -0.001940 0.008769 -0.004983 0.000000 0.000000 0.000000
# 3 -0.002651 -0.004983 0.012895 0.000000 0.000000 0.000000
# 4 0.000000 0.000000 0.000000 0.025011 0.000000 0.000000
# 5 0.000000 0.000000 0.000000 0.000000 0.032166 0.000000
# 6 0.000000 0.000000 0.000000 0.000000 0.000000 0.032482
#
#
# Mechanical properties :
#
#
# Convention : Reuss Voigt Hill
#
# Bulk Modulus (GPa) = 43.33062 59.17382 51.25222
# Shear Modulus (GPa) = 31.50102 34.25122 32.87612
#
# Velocity S-wave (km/s) = 3.78162 3.94324 3.86328
# Velocity P-wave (km/s) = 6.22403 6.89896 6.57016
#
# Compressibility (1/GPa) = 0.02307837
#
# Stress axis : x y z
#
# Youngs Moduli (GPa) = 48.63418 114.03858 77.54959
#
# Poissons Ratio (x) = 0.22120 0.20557
# Poissons Ratio (y) = 0.09434 0.38643
# Poissons Ratio (z) = 0.12892 0.56826
#
# Static dielectric constant tensor:
#      x y z
#    x 3.954480 0.000000 0.000000 
#    y 0.000000 4.005880 0.000000 
#    z 0.000000 0.000000 3.935670 
# 
# 
# High freq. dielectric constant tensor:
#      x y z
#    x 1.865540 0.000000 0.000000 
#    y 0.000000 1.874150 0.000000 
#    z 0.000000 0.000000 1.870310 
# 
# From -- ./inp_files/41846.got.cif
#   From: 2010.03.12/outbox.cif.g09.slc.cpg/sg69_21_cif.got.tgz:41846.got - 2010.04.10 23:52:46.
