data_PCOD8284255
_publ_section_title
;
Structure prediction by ZEFSAII (Michael W. Deem and Ramdas Pophale) SiO2 
 PCOD8284255
Probable space group: F M M M
;
_chemical_formula_sum "Si O2"
_cell_formula_units_Z 128
_cell_length_a 19.818850
_cell_length_b 14.502240
_cell_length_c 24.525012
_cell_angle_alpha 90.000000
_cell_angle_beta 90.000000
_cell_angle_gamma 90.000000
_cell_volume 7048.923013
_symmetry_space_group_name_H-M "F M M M"
_symmetry_group_IT_number 69
_symmetry_cell_setting 'orthorhombic'
loop_
_space_group_symop_operation_xyz
x,y,z
-x,-y,z
x,-y,-z
-x,y,-z
-x,-y,-z
x,y,-z
-x,y,z
x,-y,z
x,1/2+y,1/2+z
-x,1/2-y,1/2+z
x,1/2-y,1/2-z
-x,1/2+y,1/2-z
-x,1/2-y,1/2-z
x,1/2+y,1/2-z
-x,1/2+y,1/2+z
x,1/2-y,1/2+z
1/2+x,y,1/2+z
1/2-x,-y,1/2+z
1/2+x,-y,1/2-z
1/2-x,y,1/2-z
1/2-x,-y,1/2-z
1/2+x,y,1/2-z
1/2-x,y,1/2+z
1/2+x,-y,1/2+z
1/2+x,1/2+y,z
1/2-x,1/2-y,z
1/2+x,1/2-y,-z
1/2-x,1/2+y,-z
1/2-x,1/2-y,-z
1/2+x,1/2+y,-z
1/2-x,1/2+y,z
1/2+x,1/2-y,z
loop_
_atom_site_type_symbol
_atom_site_label
_atom_site_fract_x
_atom_site_fract_y
_atom_site_fract_z
Si Si1 0.574093 0.105374 0.347180
Si Si2 0.500000 0.102203 0.064176
Si Si3 0.750000 0.250000 0.892844
Si Si4 0.285822 0.892651 0.304551
Si Si5 0.606367 0.250184 0.062588
O O1 0.500000 0.123772 0.320662
O O2 0.633104 0.127340 0.302992
O O3 0.581915 0.164401 0.401636
O O4 0.580897 0.000000 0.366257
O O5 0.566779 0.158443 0.082354
O O6 0.500000 0.000000 0.091710
O O7 0.500000 0.089365 0.000000
O O8 0.745441 0.340888 0.855937
O O9 0.685933 0.234730 0.931312
O O10 0.250000 0.854796 0.250000
O O11 0.269629 0.000000 0.312101
O O12 0.588690 0.272538 0.000000
#
# Coordination Sequence:
#
# PCOD8284255 Si02
#       5
#    32  16  16  32  32
#     4   9  17  30  51  78 103 128 162 206 254 305
#     4   9  18  32  49  67  94 139 182 210 243 291
#     4  10  20  32  52  74 102 132 174 214 252 298
#     4   9  18  33  53  74  99 132 166 205 258 310
#     4  10  19  32  49  73 104 138 172 208 251 299
#
# _framework density 18.158802000000001
#
# number of rings (size 3 to 8) (size 9 to 14) (size 15 to 20)
#    0.000    2.625    1.250    0.750    0.000    1.500 
#    0.000    1.250    2.750    7.500    0.000    0.000 
#    0.000    0.000    0.000    0.000    0.000    0.000 
#
# Total GULP energy -396644.937403 kJ/mol
# GULP energy per Si atom -12395.154294 kJ/mol
# Density = 1.811747 g / cm^3
# Si number density = 18.158802 Si / 1000 Ang^3
#
#
#
# Elastic Constant Matrix: (Units=GPa)
#
#
# Indices 1 2 3 4 5 6 
#
# 1 154.3451 53.0925 45.2153 0.0000 0.0000 0.0000
# 2 53.0925 84.1537 30.7125 0.0000 0.0000 0.0000
# 3 45.2153 30.7125 66.9586 0.0000 0.0000 0.0000
# 4 0.0000 0.0000 0.0000 21.8659 0.0000 0.0000
# 5 0.0000 0.0000 0.0000 0.0000 23.9122 0.0000
# 6 0.0000 0.0000 0.0000 0.0000 0.0000 24.3245
#
#
#
# Elastic Compliance Matrix: (Units=1/GPa)
#
#
# Indices 1 2 3 4 5 6 
#
# 1 0.009185 -0.004241 -0.004257 0.000000 0.000000 0.000000
# 2 -0.004241 0.016231 -0.004581 0.000000 0.000000 0.000000
# 3 -0.004257 -0.004581 0.019910 0.000000 0.000000 0.000000
# 4 0.000000 0.000000 0.000000 0.045733 0.000000 0.000000
# 5 0.000000 0.000000 0.000000 0.000000 0.041820 0.000000
# 6 0.000000 0.000000 0.000000 0.000000 0.000000 0.041111
#
#
# Mechanical properties :
#
#
# Convention : Reuss Voigt Hill
#
# Bulk Modulus (GPa) = 52.17002 62.61090 57.39046
# Shear Modulus (GPa) = 24.20877 25.78298 24.99587
#
# Velocity S-wave (km/s) = 3.65522 3.77219 3.71417
# Velocity P-wave (km/s) = 6.82689 7.31622 7.07579
#
# Compressibility (1/GPa) = 0.01916810
#
# Stress axis : x y z
#
# Youngs Moduli (GPa) = 108.87337 61.61233 50.22521
#
# Poissons Ratio (x) = 0.26131 0.21381
# Poissons Ratio (y) = 0.46175 0.23006
# Poissons Ratio (z) = 0.46348 0.28223
#
# Static dielectric constant tensor:
#      x y z
#    x 3.790600 0.000000 0.000000 
#    y 0.000000 3.470950 0.000000 
#    z 0.000000 0.000000 3.014380 
# 
# 
# High freq. dielectric constant tensor:
#      x y z
#    x 1.722850 0.000000 0.000000 
#    y 0.000000 1.709050 0.000000 
#    z 0.000000 0.000000 1.666960 
# 
# From -- ./inp_files/36445.got.cif
#   From: 2010.03.12/outbox.cif.g09.slc.cpg/sg69_19_cif.got.tgz:36445.got - 2010.04.10 23:52:46.
