data_PCOD8284737
_publ_section_title
;
Structure prediction by ZEFSAII (Michael W. Deem and Ramdas Pophale) SiO2 
 PCOD8284737
Probable space group: F M M M
;
_chemical_formula_sum "Si O2"
_cell_formula_units_Z 160
_cell_length_a 27.204272
_cell_length_b 17.617122
_cell_length_c 16.753365
_cell_angle_alpha 90.000000
_cell_angle_beta 90.000000
_cell_angle_gamma 90.000000
_cell_volume 8029.234107
_symmetry_space_group_name_H-M "F M M M"
_symmetry_group_IT_number 69
_symmetry_cell_setting 'orthorhombic'
loop_
_space_group_symop_operation_xyz
x,y,z
-x,-y,z
x,-y,-z
-x,y,-z
-x,-y,-z
x,y,-z
-x,y,z
x,-y,z
x,1/2+y,1/2+z
-x,1/2-y,1/2+z
x,1/2-y,1/2-z
-x,1/2+y,1/2-z
-x,1/2-y,1/2-z
x,1/2+y,1/2-z
-x,1/2+y,1/2+z
x,1/2-y,1/2+z
1/2+x,y,1/2+z
1/2-x,-y,1/2+z
1/2+x,-y,1/2-z
1/2-x,y,1/2-z
1/2-x,-y,1/2-z
1/2+x,y,1/2-z
1/2-x,y,1/2+z
1/2+x,-y,1/2+z
1/2+x,1/2+y,z
1/2-x,1/2-y,z
1/2+x,1/2-y,-z
1/2-x,1/2+y,-z
1/2-x,1/2-y,-z
1/2+x,1/2+y,-z
1/2-x,1/2+y,z
1/2+x,1/2-y,z
loop_
_atom_site_type_symbol
_atom_site_label
_atom_site_fract_x
_atom_site_fract_y
_atom_site_fract_z
Si Si1 0.150336 0.814763 0.152617
Si Si2 0.681064 0.651621 0.331017
Si Si3 0.228041 0.913177 0.089679
Si Si4 0.408237 0.917191 0.094144
Si Si5 0.944635 0.255862 0.906055
O O1 0.176201 0.735149 0.131971
O O2 0.162439 0.845186 0.240486
O O3 0.173741 0.875876 0.092658
O O4 0.091749 0.802494 0.139605
O O5 0.737303 0.626437 0.343892
O O6 0.648060 0.590979 0.378246
O O7 0.222090 0.000000 0.113727
O O8 0.249208 0.903773 0.000000
O O9 0.438363 0.843312 0.125056
O O10 0.428135 0.000000 0.125529
O O11 0.410536 0.918548 0.000000
O O12 0.000000 0.229872 0.886558
O O13 0.933276 0.251800 0.000000
#
# Coordination Sequence:
#
# PCOD8284737 Si02
#       5
#    32  32  32  32  32
#     4  10  21  36  53  78 109 140 179 224 263 309
#     4  10  20  34  52  78 108 142 178 212 262 320
#     4  11  23  36  53  79 109 141 176 215 263 320
#     4   9  17  30  50  78 111 143 177 218 263 316
#     4   9  18  34  57  81 105 140 183 224 267 310
#
# _framework density 19.92718
#
# number of rings (size 3 to 8) (size 9 to 14) (size 15 to 20)
#    0.000    2.200    0.000    3.000    0.000    9.200 
#    0.000   10.000    0.000    0.600    0.000    2.800 
#    0.000    0.000    0.000    0.000    0.000    0.000 
#
# Total GULP energy -495734.914890 kJ/mol
# GULP energy per Si atom -12393.372872 kJ/mol
# Density = 1.988182 g / cm^3
# Si number density = 19.927180 Si / 1000 Ang^3
#
#
#
# Elastic Constant Matrix: (Units=GPa)
#
#
# Indices 1 2 3 4 5 6 
#
# 1 133.3937 56.0571 31.7428 0.0000 0.0000 0.0000
# 2 56.0571 86.5072 33.1362 0.0000 0.0000 0.0000
# 3 31.7428 33.1362 37.6971 0.0000 0.0000 0.0000
# 4 0.0000 0.0000 0.0000 24.2516 0.0000 0.0000
# 5 0.0000 0.0000 0.0000 0.0000 19.8214 0.0000
# 6 0.0000 0.0000 0.0000 0.0000 0.0000 6.0504
#
#
#
# Elastic Compliance Matrix: (Units=1/GPa)
#
#
# Indices 1 2 3 4 5 6 
#
# 1 0.010770 -0.005285 -0.004424 0.000000 0.000000 0.000000
# 2 -0.005285 0.020021 -0.013149 0.000000 0.000000 0.000000
# 3 -0.004424 -0.013149 0.041810 0.000000 0.000000 0.000000
# 4 0.000000 0.000000 0.000000 0.041234 0.000000 0.000000
# 5 0.000000 0.000000 0.000000 0.000000 0.050451 0.000000
# 6 0.000000 0.000000 0.000000 0.000000 0.000000 0.165279
#
#
# Mechanical properties :
#
#
# Convention : Reuss Voigt Hill
#
# Bulk Modulus (GPa) = 37.19265 55.49668 46.34467
# Shear Modulus (GPa) = 13.01268 19.13546 16.07407
#
# Velocity S-wave (km/s) = 2.55818 3.10218 2.84322
# Velocity P-wave (km/s) = 5.23742 6.38291 5.83833
#
# Compressibility (1/GPa) = 0.02688703
#
# Stress axis : x y z
#
# Youngs Moduli (GPa) = 92.84990 49.94844 23.91778
#
# Poissons Ratio (x) = 0.26396 0.10581
# Poissons Ratio (y) = 0.49067 0.31448
# Poissons Ratio (z) = 0.41074 0.65675
#
# Static dielectric constant tensor:
#      x y z
#    x 3.591850 0.000000 0.000000 
#    y 0.000000 3.977740 0.000000 
#    z 0.000000 0.000000 3.434080 
# 
# 
# High freq. dielectric constant tensor:
#      x y z
#    x 1.763090 0.000000 0.000000 
#    y 0.000000 1.773640 0.000000 
#    z 0.000000 0.000000 1.763440 
# 
# From -- ./inp_files/23097.got.cif
#   From: 2010.03.12/outbox.cif.g09.slc.cpg/sg69_12_cif.got.tgz:23097.got - 2010.04.10 23:52:46.
