data_PCOD8284259
_publ_section_title
;
Structure prediction by ZEFSAII (Michael W. Deem and Ramdas Pophale) SiO2 
 PCOD8284259
Probable space group: F M M M
;
_chemical_formula_sum "Si O2"
_cell_formula_units_Z 160
_cell_length_a 18.031017
_cell_length_b 27.360800
_cell_length_c 17.635841
_cell_angle_alpha 90.000000
_cell_angle_beta 90.000000
_cell_angle_gamma 90.000000
_cell_volume 8700.519587
_symmetry_space_group_name_H-M "F M M M"
_symmetry_group_IT_number 69
_symmetry_cell_setting 'orthorhombic'
loop_
_space_group_symop_operation_xyz
x,y,z
-x,-y,z
x,-y,-z
-x,y,-z
-x,-y,-z
x,y,-z
-x,y,z
x,-y,z
x,1/2+y,1/2+z
-x,1/2-y,1/2+z
x,1/2-y,1/2-z
-x,1/2+y,1/2-z
-x,1/2-y,1/2-z
x,1/2+y,1/2-z
-x,1/2+y,1/2+z
x,1/2-y,1/2+z
1/2+x,y,1/2+z
1/2-x,-y,1/2+z
1/2+x,-y,1/2-z
1/2-x,y,1/2-z
1/2-x,-y,1/2-z
1/2+x,y,1/2-z
1/2-x,y,1/2+z
1/2+x,-y,1/2+z
1/2+x,1/2+y,z
1/2-x,1/2-y,z
1/2+x,1/2-y,-z
1/2-x,1/2+y,-z
1/2-x,1/2-y,-z
1/2+x,1/2+y,-z
1/2-x,1/2+y,z
1/2+x,1/2-y,z
loop_
_atom_site_type_symbol
_atom_site_label
_atom_site_fract_x
_atom_site_fract_y
_atom_site_fract_z
Si Si1 0.701582 0.900390 0.089058
Si Si2 0.223389 0.801096 0.089081
Si Si3 0.919484 0.352555 0.411842
Si Si4 0.152710 0.555936 0.649235
Si Si5 0.584672 0.943325 0.810425
O O1 0.716452 0.843172 0.105374
O O2 0.760782 0.934034 0.133489
O O3 0.620142 0.913054 0.120147
O O4 0.706515 0.911964 0.000000
O O5 0.250000 0.750000 0.126522
O O6 0.143922 0.817666 0.124700
O O7 0.212622 0.793779 0.000000
O O8 0.924557 0.341502 0.500000
O O9 0.897397 0.409278 0.402905
O O10 0.000000 0.342256 0.373916
O O11 0.133265 0.500000 0.629310
O O12 0.133281 0.567582 0.736184
O O13 0.500000 0.925760 0.798215
O O14 0.586739 0.000000 0.832012
#
# Coordination Sequence:
#
# PCOD8284259 Si02
#       5
#    32  32  32  32  32
#     4  10  20  33  52  77 100 126 165 210 252 292
#     4   8  15  30  50  70  94 124 159 201 248 297
#     4   9  17  28  45  72 101 126 156 200 252 296
#     4  10  19  32  50  71  97 132 170 200 234 290
#     4  10  21  35  50  70 100 138 172 201 240 292
#
# _framework density 18.389706
#
# number of rings (size 3 to 8) (size 9 to 14) (size 15 to 20)
#    0.000    2.600    0.000    3.600    0.000    6.000 
#    0.000    3.000    0.000   13.200    0.000    7.000 
#    0.000    0.000    0.000    0.000    0.000    0.000 
#
# Total GULP energy -495833.161692 kJ/mol
# GULP energy per Si atom -12395.829042 kJ/mol
# Density = 1.834785 g / cm^3
# Si number density = 18.389706 Si / 1000 Ang^3
#
#
#
# Elastic Constant Matrix: (Units=GPa)
#
#
# Indices 1 2 3 4 5 6 
#
# 1 117.7307 63.1996 45.4325 0.0000 0.0000 0.0000
# 2 63.1996 112.1514 27.6161 0.0000 0.0000 0.0000
# 3 45.4325 27.6161 52.6726 0.0000 0.0000 0.0000
# 4 0.0000 0.0000 0.0000 7.7182 0.0000 0.0000
# 5 0.0000 0.0000 0.0000 0.0000 26.1086 0.0000
# 6 0.0000 0.0000 0.0000 0.0000 0.0000 18.8339
#
#
#
# Elastic Compliance Matrix: (Units=1/GPa)
#
#
# Indices 1 2 3 4 5 6 
#
# 1 0.015958 -0.006434 -0.010391 0.000000 0.000000 0.000000
# 2 -0.006434 0.012832 -0.001179 0.000000 0.000000 0.000000
# 3 -0.010391 -0.001179 0.028566 0.000000 0.000000 0.000000
# 4 0.000000 0.000000 0.000000 0.129564 0.000000 0.000000
# 5 0.000000 0.000000 0.000000 0.000000 0.038302 0.000000
# 6 0.000000 0.000000 0.000000 0.000000 0.000000 0.053096
#
#
# Mechanical properties :
#
#
# Convention : Reuss Voigt Hill
#
# Bulk Modulus (GPa) = 46.84020 61.67233 54.25626
# Shear Modulus (GPa) = 15.55500 20.28591 17.92046
#
# Velocity S-wave (km/s) = 2.91151 3.32492 3.12506
# Velocity P-wave (km/s) = 6.06867 6.95336 6.52602
#
# Compressibility (1/GPa) = 0.02134918
#
# Stress axis : x y z
#
# Youngs Moduli (GPa) = 62.66622 77.92856 35.00698
#
# Poissons Ratio (x) = 0.50137 0.36375
# Poissons Ratio (y) = 0.40318 0.04126
# Poissons Ratio (z) = 0.65116 0.09184
#
# Static dielectric constant tensor:
#      x y z
#    x 3.761220 0.000000 0.000000 
#    y 0.000000 3.460540 0.000000 
#    z 0.000000 0.000000 3.077570 
# 
# 
# High freq. dielectric constant tensor:
#      x y z
#    x 1.717410 0.000000 0.000000 
#    y 0.000000 1.700420 0.000000 
#    z 0.000000 0.000000 1.683170 
# 
# From -- ./inp_files/23092.got.cif
#   From: 2010.03.12/outbox.cif.g09.slc.cpg/sg69_12_cif.got.tgz:23092.got - 2010.04.10 23:52:46.
