data_PCOD8284410
_publ_section_title
;
Structure prediction by ZEFSAII (Michael W. Deem and Ramdas Pophale) SiO2 
 PCOD8284410
Probable space group: F M M M
;
_chemical_formula_sum "Si O2"
_cell_formula_units_Z 160
_cell_length_a 21.833543
_cell_length_b 18.423986
_cell_length_c 19.977062
_cell_angle_alpha 90.000000
_cell_angle_beta 90.000000
_cell_angle_gamma 90.000000
_cell_volume 8035.990751
_symmetry_space_group_name_H-M "F M M M"
_symmetry_group_IT_number 69
_symmetry_cell_setting 'orthorhombic'
loop_
_space_group_symop_operation_xyz
x,y,z
-x,-y,z
x,-y,-z
-x,y,-z
-x,-y,-z
x,y,-z
-x,y,z
x,-y,z
x,1/2+y,1/2+z
-x,1/2-y,1/2+z
x,1/2-y,1/2-z
-x,1/2+y,1/2-z
-x,1/2-y,1/2-z
x,1/2+y,1/2-z
-x,1/2+y,1/2+z
x,1/2-y,1/2+z
1/2+x,y,1/2+z
1/2-x,-y,1/2+z
1/2+x,-y,1/2-z
1/2-x,y,1/2-z
1/2-x,-y,1/2-z
1/2+x,y,1/2-z
1/2-x,y,1/2+z
1/2+x,-y,1/2+z
1/2+x,1/2+y,z
1/2-x,1/2-y,z
1/2+x,1/2-y,-z
1/2-x,1/2+y,-z
1/2-x,1/2-y,-z
1/2+x,1/2+y,-z
1/2-x,1/2+y,z
1/2+x,1/2-y,z
loop_
_atom_site_type_symbol
_atom_site_label
_atom_site_fract_x
_atom_site_fract_y
_atom_site_fract_z
Si Si1 0.071650 0.295238 0.816281
Si Si2 0.500000 0.920157 0.420674
Si Si3 0.392143 0.680994 0.077587
Si Si4 0.644065 0.085481 0.130104
Si Si5 0.067878 0.914959 0.500000
Si Si6 0.244710 0.833098 0.077048
O O1 0.084780 0.250000 0.750000
O O2 0.099788 0.253827 0.880113
O O3 0.108990 0.371367 0.810405
O O4 0.000000 0.310903 0.826050
O O5 0.500000 0.926246 0.500000
O O6 0.440354 0.877810 0.395367
O O7 0.500000 0.000000 0.388058
O O8 0.325841 0.644079 0.086729
O O9 0.403456 0.702132 0.000000
O O10 0.713665 0.113792 0.121834
O O11 0.644918 0.000000 0.145642
O O12 0.605702 0.107884 0.064818
O O13 0.000000 0.878164 0.500000
O O14 0.058954 0.000000 0.500000
O O15 0.250000 0.750000 0.100936
O O16 0.265443 0.840766 0.000000
#
# Coordination Sequence:
#
# PCOD8284410 Si02
#       6
#    32  16  32  32  16  32
#     4  11  24  41  62  89 125 163 209 258 317 377
#     4   9  18  34  55  84 113 141 197 270 316 348
#     4  10  20  36  62  90 116 157 208 254 309 371
#     4  11  22  38  60  92 129 162 202 253 315 378
#     4   9  18  32  53  88 128 159 190 241 306 370
#     4  10  19  33  56  91 127 163 203 248 302 365
#
# _framework density 19.910426000000001
#
# number of rings (size 3 to 8) (size 9 to 14) (size 15 to 20)
#    0.000    1.800    4.000    0.600    1.400    2.000 
#    0.000    5.000    0.000    1.200    0.000    0.000 
#    0.000    0.000    0.000    0.000    0.000    0.000 
#
# Total GULP energy -495987.415780 kJ/mol
# GULP energy per Si atom -12399.685395 kJ/mol
# Density = 1.986511 g / cm^3
# Si number density = 19.910426 Si / 1000 Ang^3
#
#
#
# Elastic Constant Matrix: (Units=GPa)
#
#
# Indices 1 2 3 4 5 6 
#
# 1 148.3185 66.0735 36.0695 0.0000 0.0000 0.0000
# 2 66.0735 139.8675 39.7665 0.0000 0.0000 0.0000
# 3 36.0695 39.7665 54.1408 0.0000 0.0000 0.0000
# 4 0.0000 0.0000 0.0000 21.0948 0.0000 0.0000
# 5 0.0000 0.0000 0.0000 0.0000 22.9115 0.0000
# 6 0.0000 0.0000 0.0000 0.0000 0.0000 33.8851
#
#
#
# Elastic Compliance Matrix: (Units=1/GPa)
#
#
# Indices 1 2 3 4 5 6 
#
# 1 0.009080 -0.003248 -0.003664 0.000000 0.000000 0.000000
# 2 -0.003248 0.010198 -0.005327 0.000000 0.000000 0.000000
# 3 -0.003664 -0.005327 0.024824 0.000000 0.000000 0.000000
# 4 0.000000 0.000000 0.000000 0.047405 0.000000 0.000000
# 5 0.000000 0.000000 0.000000 0.000000 0.043646 0.000000
# 6 0.000000 0.000000 0.000000 0.000000 0.000000 0.029512
#
#
# Mechanical properties :
#
#
# Convention : Reuss Voigt Hill
#
# Bulk Modulus (GPa) = 50.95478 69.57175 60.26327
# Shear Modulus (GPa) = 25.55134 28.93941 27.24538
#
# Velocity S-wave (km/s) = 3.58622 3.81659 3.70320
# Velocity P-wave (km/s) = 6.54183 7.37835 6.97265
#
# Compressibility (1/GPa) = 0.01962525
#
# Stress axis : x y z
#
# Youngs Moduli (GPa) = 110.13125 98.05433 40.28357
#
# Poissons Ratio (x) = 0.31846 0.14759
# Poissons Ratio (y) = 0.35768 0.21459
# Poissons Ratio (z) = 0.40350 0.52234
#
# Static dielectric constant tensor:
#      x y z
#    x 3.862330 0.000000 0.000000 
#    y 0.000000 3.579430 0.000000 
#    z 0.000000 0.000000 3.270960 
# 
# 
# High freq. dielectric constant tensor:
#      x y z
#    x 1.795540 0.000000 0.000000 
#    y 0.000000 1.771380 0.000000 
#    z 0.000000 0.000000 1.732560 
# 
# From -- ./inp_files/31744.got.cif
#   From: 2010.03.12/outbox.cif.g09.slc.cpg/sg69_16_cif.got.tgz:31744.got - 2010.04.10 23:52:46.
