data_PCOD8284329
_publ_section_title
;
Structure prediction by ZEFSAII (Michael W. Deem and Ramdas Pophale) SiO2 
 PCOD8284329
Probable space group: F M M M
;
_chemical_formula_sum "Si O2"
_cell_formula_units_Z 160
_cell_length_a 28.423897
_cell_length_b 15.895846
_cell_length_c 18.451477
_cell_angle_alpha 90.000000
_cell_angle_beta 90.000000
_cell_angle_gamma 90.000000
_cell_volume 8336.781201
_symmetry_space_group_name_H-M "F M M M"
_symmetry_group_IT_number 69
_symmetry_cell_setting 'orthorhombic'
loop_
_space_group_symop_operation_xyz
x,y,z
-x,-y,z
x,-y,-z
-x,y,-z
-x,-y,-z
x,y,-z
-x,y,z
x,-y,z
x,1/2+y,1/2+z
-x,1/2-y,1/2+z
x,1/2-y,1/2-z
-x,1/2+y,1/2-z
-x,1/2-y,1/2-z
x,1/2+y,1/2-z
-x,1/2+y,1/2+z
x,1/2-y,1/2+z
1/2+x,y,1/2+z
1/2-x,-y,1/2+z
1/2+x,-y,1/2-z
1/2-x,y,1/2-z
1/2-x,-y,1/2-z
1/2+x,y,1/2-z
1/2-x,y,1/2+z
1/2+x,-y,1/2+z
1/2+x,1/2+y,z
1/2-x,1/2-y,z
1/2+x,1/2-y,-z
1/2-x,1/2+y,-z
1/2-x,1/2-y,-z
1/2+x,1/2+y,-z
1/2-x,1/2+y,z
1/2+x,1/2-y,z
loop_
_atom_site_type_symbol
_atom_site_label
_atom_site_fract_x
_atom_site_fract_y
_atom_site_fract_z
Si Si1 0.640212 0.655992 0.916766
Si Si2 0.306016 0.500000 0.414169
Si Si3 0.633297 0.342037 0.415887
Si Si4 0.052521 0.906536 0.841830
Si Si5 0.053099 0.171512 0.699315
Si Si6 0.799192 0.000000 0.086467
O O1 0.659696 0.751335 0.906659
O O2 0.589498 0.655853 0.878534
O O3 0.675048 0.584799 0.884114
O O4 0.631930 0.634107 0.000000
O O5 0.302918 0.500000 0.500000
O O6 0.332325 0.584437 0.387552
O O7 0.253470 0.500000 0.381140
O O8 0.619554 0.356346 0.500000
O O9 0.586002 0.344399 0.369256
O O10 0.056934 0.907235 0.754373
O O11 0.000000 0.876411 0.864034
O O12 0.062445 0.000000 0.870786
O O13 0.068254 0.250000 0.750000
O O14 0.000000 0.183455 0.669851
O O15 0.797314 0.000000 0.000000
#
# Coordination Sequence:
#
# PCOD8284329 Si02
#       6
#    32  16  32  32  32  16
#     4  10  19  32  54  84 111 141 177 218 272 323
#     4   9  20  38  56  79 106 138 185 233 272 311
#     4  10  21  36  56  81 108 141 182 224 267 312
#     4  10  20  33  51  79 112 146 181 215 262 328
#     4  10  20  35  54  79 109 146 183 214 259 318
#     4   9  18  34  56  81 110 136 173 229 276 329
#
# _framework density 19.192060000000001
#
# number of rings (size 3 to 8) (size 9 to 14) (size 15 to 20)
#    0.000    2.200    3.000    0.000    1.400    1.600 
#    0.000    7.000    0.000    4.200    0.000    0.000 
#    0.000    0.000    0.000    0.000    0.000    0.000 
#
# Total GULP energy -495726.241052 kJ/mol
# GULP energy per Si atom -12393.156026 kJ/mol
# Density = 1.914838 g / cm^3
# Si number density = 19.192060 Si / 1000 Ang^3
#
#
#
# Elastic Constant Matrix: (Units=GPa)
#
#
# Indices 1 2 3 4 5 6 
#
# 1 136.2507 73.1764 42.7174 0.0000 0.0000 0.0000
# 2 73.1764 141.6261 26.3314 0.0000 0.0000 0.0000
# 3 42.7174 26.3314 44.4944 0.0000 0.0000 0.0000
# 4 0.0000 0.0000 0.0000 19.7892 0.0000 0.0000
# 5 0.0000 0.0000 0.0000 0.0000 8.8887 0.0000
# 6 0.0000 0.0000 0.0000 0.0000 0.0000 21.3979
#
#
#
# Elastic Compliance Matrix: (Units=1/GPa)
#
#
# Indices 1 2 3 4 5 6 
#
# 1 0.012981 -0.004933 -0.009543 0.000000 0.000000 0.000000
# 2 -0.004933 0.009808 -0.001069 0.000000 0.000000 0.000000
# 3 -0.009543 -0.001069 0.032269 0.000000 0.000000 0.000000
# 4 0.000000 0.000000 0.000000 0.050533 0.000000 0.000000
# 5 0.000000 0.000000 0.000000 0.000000 0.112503 0.000000
# 6 0.000000 0.000000 0.000000 0.000000 0.000000 0.046734
#
#
# Mechanical properties :
#
#
# Convention : Reuss Voigt Hill
#
# Bulk Modulus (GPa) = 41.72057 67.42463 54.57260
# Shear Modulus (GPa) = 16.45249 22.02489 19.23869
#
# Velocity S-wave (km/s) = 2.93107 3.39131 3.16955
# Velocity P-wave (km/s) = 5.76546 7.10932 6.47236
#
# Compressibility (1/GPa) = 0.02396899
#
# Stress axis : x y z
#
# Youngs Moduli (GPa) = 77.03858 101.95584 30.98933
#
# Poissons Ratio (x) = 0.50291 0.29573
# Poissons Ratio (y) = 0.38000 0.03312
# Poissons Ratio (z) = 0.73518 0.10897
#
# Static dielectric constant tensor:
#      x y z
#    x 3.462400 0.000000 0.000000 
#    y 0.000000 3.868790 0.000000 
#    z 0.000000 0.000000 3.227550 
# 
# 
# High freq. dielectric constant tensor:
#      x y z
#    x 1.730560 0.000000 0.000000 
#    y 0.000000 1.765660 0.000000 
#    z 0.000000 0.000000 1.712640 
# 
# From -- ./inp_files/25832.got.cif
#   From: 2010.03.12/outbox.cif.g09.slc.cpg/sg69_13_cif.got.tgz:25832.got - 2010.04.10 23:52:46.
