data_PCOD8284975
_publ_section_title
;
Structure prediction by ZEFSAII (Michael W. Deem and Ramdas Pophale) SiO2 
 PCOD8284975
Probable space group: F M M M
;
_chemical_formula_sum "Si O2"
_cell_formula_units_Z 128
_cell_length_a 30.646359
_cell_length_b 9.298894
_cell_length_c 22.772653
_cell_angle_alpha 90.000000
_cell_angle_beta 90.000000
_cell_angle_gamma 90.000000
_cell_volume 6489.687887
_symmetry_space_group_name_H-M "F M M M"
_symmetry_group_IT_number 69
_symmetry_cell_setting 'orthorhombic'
loop_
_space_group_symop_operation_xyz
x,y,z
-x,-y,z
x,-y,-z
-x,y,-z
-x,-y,-z
x,y,-z
-x,y,z
x,-y,z
x,1/2+y,1/2+z
-x,1/2-y,1/2+z
x,1/2-y,1/2-z
-x,1/2+y,1/2-z
-x,1/2-y,1/2-z
x,1/2+y,1/2-z
-x,1/2+y,1/2+z
x,1/2-y,1/2+z
1/2+x,y,1/2+z
1/2-x,-y,1/2+z
1/2+x,-y,1/2-z
1/2-x,y,1/2-z
1/2-x,-y,1/2-z
1/2+x,y,1/2-z
1/2-x,y,1/2+z
1/2+x,-y,1/2+z
1/2+x,1/2+y,z
1/2-x,1/2-y,z
1/2+x,1/2-y,-z
1/2-x,1/2+y,-z
1/2-x,1/2-y,-z
1/2+x,1/2+y,-z
1/2-x,1/2+y,z
1/2+x,1/2-y,z
loop_
_atom_site_type_symbol
_atom_site_label
_atom_site_fract_x
_atom_site_fract_y
_atom_site_fract_z
Si Si1 0.708934 0.161414 0.159803
Si Si2 0.657230 0.666716 0.067538
Si Si3 0.140580 0.250000 0.750000
Si Si4 0.080046 0.158953 0.150441
Si Si5 0.500000 0.670990 0.311997
O O1 0.750000 0.250000 0.184967
O O2 0.693044 0.237535 0.100222
O O3 0.671059 0.152499 0.208658
O O4 0.723618 0.000000 0.144679
O O5 0.669861 0.500000 0.075914
O O6 0.609324 0.696417 0.094017
O O7 0.656384 0.713013 0.000000
O O8 0.109850 0.153052 0.791059
O O9 0.042894 0.280358 0.152724
O O10 0.058986 0.000000 0.144239
O O11 0.500000 0.500000 0.303579
O O12 0.500000 0.750000 0.250000
#
# Coordination Sequence:
#
# PCOD8284975 Si02
#       5
#    32  32  16  32  16
#     4  11  23  37  56  84 115 151 191 235 285 339
#     4   9  20  40  63  85 111 146 189 237 286 336
#     4  10  21  35  58  82 114 146 188 229 285 340
#     4  10  20  36  59  85 114 147 185 229 280 338
#     4  12  24  36  55  84 119 153 186 226 274 331
#
# _framework density 19.723597999999999
#
# number of rings (size 3 to 8) (size 9 to 14) (size 15 to 20)
#    0.000    1.750    1.250    3.000    0.000    9.000 
#    0.000    0.625    0.000    3.750    0.000    0.000 
#    0.000    0.000    0.000    0.000    0.000    0.000 
#
# Total GULP energy -396826.676022 kJ/mol
# GULP energy per Si atom -12400.833626 kJ/mol
# Density = 1.967871 g / cm^3
# Si number density = 19.723598 Si / 1000 Ang^3
#
#
#
# Elastic Constant Matrix: (Units=GPa)
#
#
# Indices 1 2 3 4 5 6 
#
# 1 102.8775 51.7149 30.1247 0.0000 0.0000 0.0000
# 2 51.7149 135.7138 24.9420 0.0000 0.0000 0.0000
# 3 30.1247 24.9420 103.2660 0.0000 0.0000 0.0000
# 4 0.0000 0.0000 0.0000 19.7115 0.0000 0.0000
# 5 0.0000 0.0000 0.0000 0.0000 17.7406 0.0000
# 6 0.0000 0.0000 0.0000 0.0000 0.0000 33.6124
#
#
#
# Elastic Compliance Matrix: (Units=1/GPa)
#
#
# Indices 1 2 3 4 5 6 
#
# 1 0.012680 -0.004345 -0.002650 0.000000 0.000000 0.000000
# 2 -0.004345 0.009200 -0.000954 0.000000 0.000000 0.000000
# 3 -0.002650 -0.000954 0.010687 0.000000 0.000000 0.000000
# 4 0.000000 0.000000 0.000000 0.050732 0.000000 0.000000
# 5 0.000000 0.000000 0.000000 0.000000 0.056368 0.000000
# 6 0.000000 0.000000 0.000000 0.000000 0.000000 0.029751
#
#
# Mechanical properties :
#
#
# Convention : Reuss Voigt Hill
#
# Bulk Modulus (GPa) = 59.99197 61.71341 60.85269
# Shear Modulus (GPa) = 26.19551 29.88459 28.04005
#
# Velocity S-wave (km/s) = 3.64831 3.89674 3.77457
# Velocity P-wave (km/s) = 6.94473 7.18353 7.06514
#
# Compressibility (1/GPa) = 0.01666890
#
# Stress axis : x y z
#
# Youngs Moduli (GPa) = 78.86233 108.70086 93.56970
#
# Poissons Ratio (x) = 0.47230 0.24793
# Poissons Ratio (y) = 0.34266 0.08931
# Poissons Ratio (z) = 0.20896 0.10375
#
# Static dielectric constant tensor:
#      x y z
#    x 3.694230 0.000000 0.000000 
#    y 0.000000 3.441520 0.000000 
#    z 0.000000 0.000000 3.514300 
# 
# 
# High freq. dielectric constant tensor:
#      x y z
#    x 1.771320 0.000000 0.000000 
#    y 0.000000 1.765650 0.000000 
#    z 0.000000 0.000000 1.754950 
# 
# From -- ./inp_files/43766.got.cif
#   From: 2010.03.12/outbox.cif.g09.slc.cpg/sg69_22_cif.got.tgz:43766.got - 2010.04.10 23:52:46.
