data_PCOD8284179
_publ_section_title
;
Structure prediction by ZEFSAII (Michael W. Deem and Ramdas Pophale) SiO2 
 PCOD8284179
Probable space group: F M M M
;
_chemical_formula_sum "Si O2"
_cell_formula_units_Z 144
_cell_length_a 26.900564
_cell_length_b 33.530813
_cell_length_c 10.050408
_cell_angle_alpha 90.000000
_cell_angle_beta 90.000000
_cell_angle_gamma 90.000000
_cell_volume 9065.445715
_symmetry_space_group_name_H-M "F M M M"
_symmetry_group_IT_number 69
_symmetry_cell_setting 'orthorhombic'
loop_
_space_group_symop_operation_xyz
x,y,z
-x,-y,z
x,-y,-z
-x,y,-z
-x,-y,-z
x,y,-z
-x,y,z
x,-y,z
x,1/2+y,1/2+z
-x,1/2-y,1/2+z
x,1/2-y,1/2-z
-x,1/2+y,1/2-z
-x,1/2-y,1/2-z
x,1/2+y,1/2-z
-x,1/2+y,1/2+z
x,1/2-y,1/2+z
1/2+x,y,1/2+z
1/2-x,-y,1/2+z
1/2+x,-y,1/2-z
1/2-x,y,1/2-z
1/2-x,-y,1/2-z
1/2+x,y,1/2-z
1/2-x,y,1/2+z
1/2+x,-y,1/2+z
1/2+x,1/2+y,z
1/2-x,1/2-y,z
1/2+x,1/2-y,-z
1/2-x,1/2+y,-z
1/2-x,1/2-y,-z
1/2+x,1/2+y,-z
1/2-x,1/2+y,z
1/2+x,1/2-y,z
loop_
_atom_site_type_symbol
_atom_site_label
_atom_site_fract_x
_atom_site_fract_y
_atom_site_fract_z
Si Si1 0.704324 0.000000 0.650949
Si Si2 0.192265 0.290514 0.500000
Si Si3 0.691121 0.343910 0.758474
Si Si4 0.557355 0.953534 0.848850
Si Si5 0.310142 0.798485 0.000000
Si Si6 0.362593 0.076739 0.344335
O O1 0.750000 0.000000 0.750000
O O2 0.671399 0.038502 0.678582
O O3 0.724744 0.000000 0.500000
O O4 0.173371 0.313412 0.370864
O O5 0.251543 0.291349 0.500000
O O6 0.168013 0.246389 0.500000
O O7 0.750000 0.350243 0.750000
O O8 0.670985 0.324072 0.624199
O O9 0.666974 0.386247 0.785195
O O10 0.500000 0.941802 0.832172
O O11 0.587350 0.927825 0.741063
O O12 0.565321 0.000000 0.818281
O O13 0.574957 0.943997 0.000000
O O14 0.375759 0.082548 0.500000
#
# Coordination Sequence:
#
# PCOD8284179 Si02
#       6
#    16  16  32  32  16  32
#     4  10  22  36  47  66  97 139 178 205 231 278
#     4   9  16  32  46  67  98 129 166 211 248 291
#     4  10  19  31  46  70 102 135 169 207 242 284
#     4   9  19  36  56  76  96 121 160 209 258 302
#     4   9  18  28  50  69  90 133 174 201 250 295
#     4  11  21  34  49  71 102 133 169 205 245 289
#
# _framework density 15.884492
#
# number of rings (size 3 to 8) (size 9 to 14) (size 15 to 20)
#    0.000    2.222    2.222    2.000    1.556    4.000 
#    0.000    1.111    0.000    0.000    0.000    0.000 
#    0.000    5.333    0.000    0.000    0.000    0.000 
#
# Total GULP energy -446327.314206 kJ/mol
# GULP energy per Si atom -12397.980950 kJ/mol
# Density = 1.584834 g / cm^3
# Si number density = 15.884492 Si / 1000 Ang^3
#
#
#
# Elastic Constant Matrix: (Units=GPa)
#
#
# Indices 1 2 3 4 5 6 
#
# 1 54.0690 35.4255 48.8208 -0.0001 0.0104 0.0005
# 2 35.4255 134.8690 72.2271 0.0020 0.0043 -0.0001
# 3 48.8208 72.2271 145.5239 0.0065 -0.0080 -0.0065
# 4 -0.0001 0.0020 0.0065 30.8332 0.0048 -0.0013
# 5 0.0104 0.0043 -0.0080 0.0048 561.4147 0.0160
# 6 0.0005 -0.0001 -0.0065 -0.0013 0.0160 -14.7163
#
#
#
# Elastic Compliance Matrix: (Units=1/GPa)
#
#
# Indices 1 2 3 4 5 6 
#
# 1 0.027454 -0.003104 -0.007670 0.000002 -0.000001 0.000004
# 2 -0.003104 0.010450 -0.004145 0.000000 0.000000 0.000002
# 3 -0.007670 -0.004145 0.011502 -0.000002 0.000000 -0.000005
# 4 0.000002 0.000000 -0.000002 0.032433 0.000000 -0.000003
# 5 -0.000001 0.000000 0.000000 0.000000 0.001781 0.000002
# 6 0.000004 0.000002 -0.000005 -0.000003 0.000002 -0.067952
#
#
# Mechanical properties :
#
#
# Convention : Reuss Voigt Hill
#
# Bulk Modulus (GPa) = 51.10338 71.93432 61.51885
# Shear Modulus (GPa) = 96.10250 127.37222 111.73736
#
# Velocity S-wave (km/s) = 7.78667 8.96441 8.39621
# Velocity P-wave (km/s) = 10.63412 12.35037 11.52424
#
# Compressibility (1/GPa) = 0.01956818
#
# Stress axis : x y z
#
# Youngs Moduli (GPa) = 36.42490 95.69598 86.93988
#
# Poissons Ratio (x) = 0.29701 0.66681
# Poissons Ratio (y) = 0.11305 0.36039
# Poissons Ratio (z) = 0.27937 0.39668
#
# Static dielectric constant tensor:
#      x y z
#    x 2.660190 0.000010 -0.000170 
#    y 0.000010 3.042950 0.000120 
#    z -0.000170 0.000120 2.931330 
# 
# 
# High freq. dielectric constant tensor:
#      x y z
#    x 1.563230 0.000000 0.000000 
#    y 0.000000 1.613360 0.000000 
#    z 0.000000 0.000000 1.630670 
# 
# From -- ./inp_files/5656.got.cif
#   From: 2010.03.12/outbox.cif.g09.slc.cpg/sg69_3_cif.got.tgz:5656.got - 2010.04.10 23:52:46.
