data_PCOD8284783
_publ_section_title
;
Structure prediction by ZEFSAII (Michael W. Deem and Ramdas Pophale) SiO2 
 PCOD8284783
Probable space group: F M M M
;
_chemical_formula_sum "Si O2"
_cell_formula_units_Z 160
_cell_length_a 26.024838
_cell_length_b 33.864632
_cell_length_c 9.631882
_cell_angle_alpha 90.000000
_cell_angle_beta 90.000000
_cell_angle_gamma 90.000000
_cell_volume 8488.785287
_symmetry_space_group_name_H-M "F M M M"
_symmetry_group_IT_number 69
_symmetry_cell_setting 'orthorhombic'
loop_
_space_group_symop_operation_xyz
x,y,z
-x,-y,z
x,-y,-z
-x,y,-z
-x,-y,-z
x,y,-z
-x,y,z
x,-y,z
x,1/2+y,1/2+z
-x,1/2-y,1/2+z
x,1/2-y,1/2-z
-x,1/2+y,1/2-z
-x,1/2-y,1/2-z
x,1/2+y,1/2-z
-x,1/2+y,1/2+z
x,1/2-y,1/2+z
1/2+x,y,1/2+z
1/2-x,-y,1/2+z
1/2+x,-y,1/2-z
1/2-x,y,1/2-z
1/2-x,-y,1/2-z
1/2+x,y,1/2-z
1/2-x,y,1/2+z
1/2+x,-y,1/2+z
1/2+x,1/2+y,z
1/2-x,1/2-y,z
1/2+x,1/2-y,-z
1/2-x,1/2+y,-z
1/2-x,1/2-y,-z
1/2+x,1/2+y,-z
1/2-x,1/2+y,z
1/2+x,1/2-y,z
loop_
_atom_site_type_symbol
_atom_site_label
_atom_site_fract_x
_atom_site_fract_y
_atom_site_fract_z
Si Si1 0.940994 0.324201 0.659531
Si Si2 0.059429 0.543688 0.000000
Si Si3 0.597784 0.092534 0.746191
Si Si4 0.558747 0.953543 0.500000
Si Si5 0.855507 0.286289 0.837579
Si Si6 0.800230 0.132032 0.660770
O O1 0.921520 0.319564 0.500000
O O2 0.935139 0.369175 0.707201
O O3 0.909491 0.296281 0.763662
O O4 0.000000 0.311523 0.671752
O O5 0.073371 0.570959 0.873923
O O6 0.086636 0.500000 0.000000
O O7 0.000000 0.535057 0.000000
O O8 0.593162 0.060599 0.626706
O O9 0.656532 0.103603 0.776547
O O10 0.500000 0.936417 0.500000
O O11 0.555468 0.000000 0.500000
O O12 0.831151 0.250000 0.750000
O O13 0.816446 0.322471 0.824069
O O14 0.864813 0.275598 0.000000
O O15 0.790151 0.121537 0.500000
O O16 0.750000 0.124009 0.750000
#
# Coordination Sequence:
#
# PCOD8284783 Si02
#       6
#    32  16  32  16  32  32
#     4  10  20  34  55  82 115 160 203 239 286 344
#     4  11  22  36  59  89 124 163 195 237 297 355
#     4  11  21  38  58  88 123 158 201 249 292 351
#     4  11  22  36  59  93 128 161 197 237 291 355
#     4  10  22  39  58  86 119 150 190 240 295 352
#     4  10  23  41  64  89 112 151 202 249 300 350
#
# _framework density 18.848398
#
# number of rings (size 3 to 8) (size 9 to 14) (size 15 to 20)
#    0.000    1.600    2.000    3.000    2.800    4.400 
#    0.000    2.000    0.000    3.600    0.000    0.000 
#    0.000    0.000    0.000    0.000    0.000    0.000 
#
# Total GULP energy -495912.471028 kJ/mol
# GULP energy per Si atom -12397.811776 kJ/mol
# Density = 1.880550 g / cm^3
# Si number density = 18.848398 Si / 1000 Ang^3
#
#
#
# Elastic Constant Matrix: (Units=GPa)
#
#
# Indices 1 2 3 4 5 6 
#
# 1 104.8861 32.3499 59.4235 -0.0017 0.0042 -0.0008
# 2 32.3499 75.0461 48.5250 -0.0010 0.0002 0.0001
# 3 59.4235 48.5250 173.6197 -0.0100 0.0190 0.0018
# 4 -0.0017 -0.0010 -0.0100 49.8664 0.0065 -0.0019
# 5 0.0042 0.0002 0.0190 0.0065 34.3464 -0.0050
# 6 -0.0008 0.0001 0.0018 -0.0019 -0.0050 19.2688
#
#
#
# Elastic Compliance Matrix: (Units=1/GPa)
#
#
# Indices 1 2 3 4 5 6 
#
# 1 0.012420 -0.003180 -0.003362 0.000000 0.000000 0.000001
# 2 -0.003180 0.017079 -0.003685 -0.000001 0.000002 0.000000
# 3 -0.003362 -0.003685 0.007940 0.000001 -0.000004 -0.000001
# 4 0.000000 -0.000001 0.000001 0.020054 -0.000004 0.000002
# 5 0.000000 0.000002 -0.000004 -0.000004 0.029115 0.000008
# 6 0.000001 0.000000 -0.000001 0.000002 0.000008 0.051897
#
#
# Mechanical properties :
#
#
# Convention : Reuss Voigt Hill
#
# Bulk Modulus (GPa) = 58.87576 70.46095 64.66836
# Shear Modulus (GPa) = 30.37298 34.91322 32.64310
#
# Velocity S-wave (km/s) = 4.01862 4.30853 4.16610
# Velocity P-wave (km/s) = 7.26889 7.88767 7.58459
#
# Compressibility (1/GPa) = 0.01698492
#
# Stress axis : x y z
#
# Youngs Moduli (GPa) = 80.51737 58.55302 125.93928
#
# Poissons Ratio (x) = 0.18619 0.42342
# Poissons Ratio (y) = 0.25603 0.46408
# Poissons Ratio (z) = 0.27070 0.21577
#
# Static dielectric constant tensor:
#      x y z
#    x 3.222770 0.000020 0.000010 
#    y 0.000020 3.608840 0.000010 
#    z 0.000010 0.000010 3.797160 
# 
# 
# High freq. dielectric constant tensor:
#      x y z
#    x 1.714130 0.000000 0.000000 
#    y 0.000000 1.735390 0.000000 
#    z 0.000000 0.000000 1.754820 
# 
# From -- ./inp_files/5810.got.cif
#   From: 2010.03.12/outbox.cif.g09.slc.cpg/sg69_3_cif.got.tgz:5810.got - 2010.04.10 23:52:46.
