data_PCOD8284099
_publ_section_title
;
Structure prediction by ZEFSAII (Michael W. Deem and Ramdas Pophale) SiO2 
 PCOD8284099
Probable space group: F M M M
;
_chemical_formula_sum "Si O2"
_cell_formula_units_Z 128
_cell_length_a 29.234836
_cell_length_b 14.842852
_cell_length_c 15.001599
_cell_angle_alpha 90.000000
_cell_angle_beta 90.000000
_cell_angle_gamma 90.000000
_cell_volume 6509.619011
_symmetry_space_group_name_H-M "F M M M"
_symmetry_group_IT_number 69
_symmetry_cell_setting 'orthorhombic'
loop_
_space_group_symop_operation_xyz
x,y,z
-x,-y,z
x,-y,-z
-x,y,-z
-x,-y,-z
x,y,-z
-x,y,z
x,-y,z
x,1/2+y,1/2+z
-x,1/2-y,1/2+z
x,1/2-y,1/2-z
-x,1/2+y,1/2-z
-x,1/2-y,1/2-z
x,1/2+y,1/2-z
-x,1/2+y,1/2+z
x,1/2-y,1/2+z
1/2+x,y,1/2+z
1/2-x,-y,1/2+z
1/2+x,-y,1/2-z
1/2-x,y,1/2-z
1/2-x,-y,1/2-z
1/2+x,y,1/2-z
1/2-x,y,1/2+z
1/2+x,-y,1/2+z
1/2+x,1/2+y,z
1/2-x,1/2-y,z
1/2+x,1/2-y,-z
1/2-x,1/2+y,-z
1/2-x,1/2-y,-z
1/2+x,1/2+y,-z
1/2-x,1/2+y,z
1/2+x,1/2-y,z
loop_
_atom_site_type_symbol
_atom_site_label
_atom_site_fract_x
_atom_site_fract_y
_atom_site_fract_z
Si Si1 0.138742 0.640586 0.344142
Si Si2 0.710014 0.500000 0.892260
Si Si3 0.375882 0.160106 0.855241
Si Si4 0.689713 0.000000 0.901477
Si Si5 0.425950 0.902732 0.500000
Si Si6 0.448709 0.299936 0.500000
O O1 0.186494 0.587779 0.347985
O O2 0.148938 0.744023 0.369007
O O3 0.113770 0.637535 0.247751
O O4 0.104732 0.593862 0.412242
O O5 0.761509 0.500000 0.851061
O O6 0.704538 0.500000 0.000000
O O7 0.340380 0.087684 0.888888
O O8 0.422852 0.162305 0.912246
O O9 0.708513 0.000000 0.000000
O O10 0.454350 0.809555 0.500000
O O11 0.453363 0.000000 0.500000
O O12 0.500000 0.339737 0.500000
#
# Coordination Sequence:
#
# PCOD8284099 Si02
#       6
#    32  16  32  16  16  16
#     4  10  19  36  60  87 116 159 194 232 292 357
#     4  11  21  35  61  90 118 156 199 240 289 355
#     4  10  22  38  58  85 117 160 196 242 296 344
#     4  11  23  37  55  86 123 158 200 247 283 338
#     4  10  18  35  61  92 118 147 187 245 301 353
#     4  10  22  42  64  85 116 156 197 246 299 356
#
# _framework density 19.663208999999998
#
# number of rings (size 3 to 8) (size 9 to 14) (size 15 to 20)
#    0.000    1.750    3.750    0.750    0.000    3.250 
#    0.000   16.250    0.000    0.000    0.000    0.000 
#    0.000    0.000    0.000    0.000    0.000    0.000 
#
# Total GULP energy -396481.929783 kJ/mol
# GULP energy per Si atom -12390.060306 kJ/mol
# Density = 1.961846 g / cm^3
# Si number density = 19.663209 Si / 1000 Ang^3
#
#
#
# Elastic Constant Matrix: (Units=GPa)
#
#
# Indices 1 2 3 4 5 6 
#
# 1 151.9994 61.6202 53.9439 0.0000 0.0000 0.0000
# 2 61.6202 114.1392 46.8205 0.0000 0.0000 0.0000
# 3 53.9439 46.8205 119.1861 0.0000 0.0000 0.0000
# 4 0.0000 0.0000 0.0000 28.8332 0.0000 0.0000
# 5 0.0000 0.0000 0.0000 0.0000 11.9631 0.0000
# 6 0.0000 0.0000 0.0000 0.0000 0.0000 14.5402
#
#
#
# Elastic Compliance Matrix: (Units=1/GPa)
#
#
# Indices 1 2 3 4 5 6 
#
# 1 0.009049 -0.003821 -0.002595 0.000000 0.000000 0.000000
# 2 -0.003821 0.012058 -0.003007 0.000000 0.000000 0.000000
# 3 -0.002595 -0.003007 0.010746 0.000000 0.000000 0.000000
# 4 0.000000 0.000000 0.000000 0.034682 0.000000 0.000000
# 5 0.000000 0.000000 0.000000 0.000000 0.083591 0.000000
# 6 0.000000 0.000000 0.000000 0.000000 0.000000 0.068775
#
#
# Mechanical properties :
#
#
# Convention : Reuss Voigt Hill
#
# Bulk Modulus (GPa) = 76.88243 78.89930 77.89087
# Shear Modulus (GPa) = 20.65427 25.92998 23.29212
#
# Velocity S-wave (km/s) = 3.24451 3.63534 3.44547
# Velocity P-wave (km/s) = 7.29522 7.60482 7.45163
#
# Compressibility (1/GPa) = 0.01300687
#
# Stress axis : x y z
#
# Youngs Moduli (GPa) = 110.51302 82.93520 93.05875
#
# Poissons Ratio (x) = 0.31688 0.24144
# Poissons Ratio (y) = 0.42225 0.27986
# Poissons Ratio (z) = 0.28673 0.24941
#
# Static dielectric constant tensor:
#      x y z
#    x 3.233490 0.000000 0.000000 
#    y 0.000000 3.581970 0.000000 
#    z 0.000000 0.000000 3.908110 
# 
# 
# High freq. dielectric constant tensor:
#      x y z
#    x 1.732740 0.000000 0.000000 
#    y 0.000000 1.780870 0.000000 
#    z 0.000000 0.000000 1.781320 
# 
# From -- ./inp_files/26530.got.cif
#   From: 2010.03.12/outbox.cif.g09.slc.cpg/sg69_14_cif.got.tgz:26530.got - 2010.04.10 23:52:46.
