data_PCOD8284018
_publ_section_title
;
Structure prediction by ZEFSAII (Michael W. Deem and Ramdas Pophale) SiO2 
 PCOD8284018
Probable space group: F M M M
;
_chemical_formula_sum "Si O2"
_cell_formula_units_Z 176
_cell_length_a 13.410466
_cell_length_b 26.760550
_cell_length_c 26.636029
_cell_angle_alpha 90.000000
_cell_angle_beta 90.000000
_cell_angle_gamma 90.000000
_cell_volume 9558.910241
_symmetry_space_group_name_H-M "F M M M"
_symmetry_group_IT_number 69
_symmetry_cell_setting 'orthorhombic'
loop_
_space_group_symop_operation_xyz
x,y,z
-x,-y,z
x,-y,-z
-x,y,-z
-x,-y,-z
x,y,-z
-x,y,z
x,-y,z
x,1/2+y,1/2+z
-x,1/2-y,1/2+z
x,1/2-y,1/2-z
-x,1/2+y,1/2-z
-x,1/2-y,1/2-z
x,1/2+y,1/2-z
-x,1/2+y,1/2+z
x,1/2-y,1/2+z
1/2+x,y,1/2+z
1/2-x,-y,1/2+z
1/2+x,-y,1/2-z
1/2-x,y,1/2-z
1/2-x,-y,1/2-z
1/2+x,y,1/2-z
1/2-x,y,1/2+z
1/2+x,-y,1/2+z
1/2+x,1/2+y,z
1/2-x,1/2-y,z
1/2+x,1/2-y,-z
1/2-x,1/2+y,-z
1/2-x,1/2-y,-z
1/2+x,1/2+y,-z
1/2-x,1/2+y,z
1/2+x,1/2-y,z
loop_
_atom_site_type_symbol
_atom_site_label
_atom_site_fract_x
_atom_site_fract_y
_atom_site_fract_z
Si Si1 0.114143 0.630660 0.557682
Si Si2 0.791995 0.887249 0.697382
Si Si3 0.185314 0.202081 0.141199
Si Si4 0.000000 0.748277 0.691036
Si Si5 0.219916 0.443541 0.904253
Si Si6 0.500000 0.943354 0.099644
Si Si7 0.500000 0.860404 0.817494
O O1 0.120322 0.646783 0.500000
O O2 0.144102 0.678744 0.589866
O O3 0.195227 0.587452 0.567374
O O4 0.000000 0.613390 0.570855
O O5 0.750000 0.907132 0.750000
O O6 0.745678 0.837086 0.674648
O O7 0.786422 0.929944 0.654981
O O8 0.903274 0.873140 0.714698
O O9 0.250000 0.250000 0.125935
O O10 0.095665 0.217689 0.175888
O O11 0.000000 0.750000 0.750000
O O12 0.000000 0.802718 0.665119
O O13 0.256581 0.500000 0.908571
O O14 0.107543 0.437823 0.929273
O O15 0.500000 0.895879 0.134840
O O16 0.500000 0.000000 0.123914
#
# Coordination Sequence:
#
# PCOD8284018 Si02
#       7
#    32  32  32  16  32  16  16
#     4  10  22  41  61  82 112 151 191 235 288 342
#     4  10  20  33  51  78 112 149 186 229 278 336
#     4  11  22  36  56  82 113 147 191 235 278 328
#     4  12  22  32  53  82 117 152 186 230 274 329
#     4   9  19  36  59  84 110 143 187 237 289 344
#     4   8  16  34  59  81 107 139 176 233 295 343
#     4  10  18  32  50  74 104 145 190 222 271 336
#
# _framework density 18.412140000000001
#
# number of rings (size 3 to 8) (size 9 to 14) (size 15 to 20)
#    0.000    2.000    2.727    1.091    0.000    1.455 
#    1.636    1.364    0.000    1.636    0.000    0.000 
#    0.000    0.000    0.000    0.000    0.000    0.000 
#
# Total GULP energy -545082.209204 kJ/mol
# GULP energy per Si atom -12388.232027 kJ/mol
# Density = 1.837023 g / cm^3
# Si number density = 18.412140 Si / 1000 Ang^3
#
#
#
# Elastic Constant Matrix: (Units=GPa)
#
#
# Indices 1 2 3 4 5 6 
#
# 1 163.7169 48.8843 52.7749 0.0000 0.0000 0.0000
# 2 48.8843 101.4466 30.1647 0.0000 0.0000 0.0000
# 3 52.7749 30.1647 91.9975 0.0000 0.0000 0.0000
# 4 0.0000 0.0000 0.0000 25.9433 0.0000 0.0000
# 5 0.0000 0.0000 0.0000 0.0000 19.4512 0.0000
# 6 0.0000 0.0000 0.0000 0.0000 0.0000 5.9874
#
#
#
# Elastic Compliance Matrix: (Units=1/GPa)
#
#
# Indices 1 2 3 4 5 6 
#
# 1 0.008160 -0.002815 -0.003758 0.000000 0.000000 0.000000
# 2 -0.002815 0.011893 -0.002285 0.000000 0.000000 0.000000
# 3 -0.003758 -0.002285 0.013775 0.000000 0.000000 0.000000
# 4 0.000000 0.000000 0.000000 0.038546 0.000000 0.000000
# 5 0.000000 0.000000 0.000000 0.000000 0.051411 0.000000
# 6 0.000000 0.000000 0.000000 0.000000 0.000000 0.167016
#
#
# Mechanical properties :
#
#
# Convention : Reuss Voigt Hill
#
# Bulk Modulus (GPa) = 62.06326 68.97875 65.52101
# Shear Modulus (GPa) = 15.92931 25.29887 20.61409
#
# Velocity S-wave (km/s) = 2.94454 3.71082 3.34966
# Velocity P-wave (km/s) = 6.73360 7.47698 7.11501
#
# Compressibility (1/GPa) = 0.01611259
#
# Stress axis : x y z
#
# Youngs Moduli (GPa) = 122.54948 84.08237 72.59552
#
# Poissons Ratio (x) = 0.23666 0.27282
# Poissons Ratio (y) = 0.34493 0.16588
# Poissons Ratio (z) = 0.46056 0.19213
#
# Static dielectric constant tensor:
#      x y z
#    x 3.999250 0.000000 0.000000 
#    y 0.000000 3.467230 0.000000 
#    z 0.000000 0.000000 3.094810 
# 
# 
# High freq. dielectric constant tensor:
#      x y z
#    x 1.744720 0.000000 0.000000 
#    y 0.000000 1.716740 0.000000 
#    z 0.000000 0.000000 1.683810 
# 
# From -- ./inp_files/11578.got.cif
#   From: 2010.03.12/outbox.cif.g09.slc.cpg/sg69_6_cif.got.tgz:11578.got - 2010.04.10 23:52:46.
