data_PCOD8284380
_publ_section_title
;
Structure prediction by ZEFSAII (Michael W. Deem and Ramdas Pophale) SiO2 
 PCOD8284380
Probable space group: F M M M
;
_chemical_formula_sum "Si O2"
_cell_formula_units_Z 160
_cell_length_a 27.049929
_cell_length_b 17.422069
_cell_length_c 17.526271
_cell_angle_alpha 90.000000
_cell_angle_beta 90.000000
_cell_angle_gamma 90.000000
_cell_volume 8259.530888
_symmetry_space_group_name_H-M "F M M M"
_symmetry_group_IT_number 69
_symmetry_cell_setting 'orthorhombic'
loop_
_space_group_symop_operation_xyz
x,y,z
-x,-y,z
x,-y,-z
-x,y,-z
-x,-y,-z
x,y,-z
-x,y,z
x,-y,z
x,1/2+y,1/2+z
-x,1/2-y,1/2+z
x,1/2-y,1/2-z
-x,1/2+y,1/2-z
-x,1/2-y,1/2-z
x,1/2+y,1/2-z
-x,1/2+y,1/2+z
x,1/2-y,1/2+z
1/2+x,y,1/2+z
1/2-x,-y,1/2+z
1/2+x,-y,1/2-z
1/2-x,y,1/2-z
1/2-x,-y,1/2-z
1/2+x,y,1/2-z
1/2-x,y,1/2+z
1/2+x,-y,1/2+z
1/2+x,1/2+y,z
1/2-x,1/2-y,z
1/2+x,1/2-y,-z
1/2-x,1/2+y,-z
1/2-x,1/2-y,-z
1/2+x,1/2+y,-z
1/2-x,1/2+y,z
1/2+x,1/2-y,z
loop_
_atom_site_type_symbol
_atom_site_label
_atom_site_fract_x
_atom_site_fract_y
_atom_site_fract_z
Si Si1 0.653852 0.912960 0.586443
Si Si2 0.944071 0.135154 0.153023
Si Si3 0.103239 0.910492 0.305882
Si Si4 0.443531 0.798638 0.086322
Si Si5 0.805839 0.161707 0.231090
O O1 0.664459 0.886795 0.500000
O O2 0.594884 0.912024 0.602264
O O3 0.683166 0.854813 0.641842
O O4 0.672235 0.000000 0.600129
O O5 0.935334 0.117962 0.241883
O O6 0.935034 0.225090 0.139524
O O7 0.000000 0.111524 0.130078
O O8 0.090790 0.867449 0.384280
O O9 0.159246 0.892334 0.281553
O O10 0.097459 0.000000 0.320348
O O11 0.500000 0.826174 0.089450
O O12 0.427809 0.778103 0.000000
O O13 0.817078 0.250000 0.250000
O O14 0.750000 0.139341 0.250000
#
# Coordination Sequence:
#
# PCOD8284380 Si02
#       5
#    32  32  32  32  32
#     4  10  21  36  55  81 114 147 175 215 274 328
#     4  10  19  33  54  79 108 144 187 226 260 309
#     4  11  22  35  55  81 109 142 178 221 272 323
#     4  10  21  36  54  77 109 149 186 222 265 311
#     4  10  21  39  61  83 105 137 182 226 270 320
#
# _framework density 19.371561
#
# number of rings (size 3 to 8) (size 9 to 14) (size 15 to 20)
#    0.000    1.800    0.000    6.600    0.000    7.600 
#    0.000    5.000    0.000    0.000    0.000    0.000 
#    0.000    0.000    0.000    0.000    0.000    0.000 
#
# Total GULP energy -496085.779486 kJ/mol
# GULP energy per Si atom -12402.144487 kJ/mol
# Density = 1.932747 g / cm^3
# Si number density = 19.371561 Si / 1000 Ang^3
#
#
#
# Elastic Constant Matrix: (Units=GPa)
#
#
# Indices 1 2 3 4 5 6 
#
# 1 95.8806 29.2848 36.9760 0.0000 0.0000 0.0000
# 2 29.2848 105.4144 35.9595 0.0000 0.0000 0.0000
# 3 36.9760 35.9595 75.1672 0.0000 0.0000 0.0000
# 4 0.0000 0.0000 0.0000 32.8913 0.0000 0.0000
# 5 0.0000 0.0000 0.0000 0.0000 14.6737 0.0000
# 6 0.0000 0.0000 0.0000 0.0000 0.0000 18.2348
#
#
#
# Elastic Compliance Matrix: (Units=1/GPa)
#
#
# Indices 1 2 3 4 5 6 
#
# 1 0.013129 -0.001726 -0.005633 0.000000 0.000000 0.000000
# 2 -0.001726 0.011563 -0.004683 0.000000 0.000000 0.000000
# 3 -0.005633 -0.004683 0.018315 0.000000 0.000000 0.000000
# 4 0.000000 0.000000 0.000000 0.030403 0.000000 0.000000
# 5 0.000000 0.000000 0.000000 0.000000 0.068149 0.000000
# 6 0.000000 0.000000 0.000000 0.000000 0.000000 0.054840
#
#
# Mechanical properties :
#
#
# Convention : Reuss Voigt Hill
#
# Bulk Modulus (GPa) = 52.84240 53.43363 53.13802
# Shear Modulus (GPa) = 22.04679 24.77609 23.41144
#
# Velocity S-wave (km/s) = 3.37723 3.58018 3.48019
# Velocity P-wave (km/s) = 6.52267 6.68832 6.60601
#
# Compressibility (1/GPa) = 0.01892420
#
# Stress axis : x y z
#
# Youngs Moduli (GPa) = 76.16718 86.48093 54.60086
#
# Poissons Ratio (x) = 0.14925 0.30755
# Poissons Ratio (y) = 0.13145 0.25568
# Poissons Ratio (z) = 0.42903 0.40497
#
# Static dielectric constant tensor:
#      x y z
#    x 3.464980 0.000000 0.000000 
#    y 0.000000 3.457190 0.000000 
#    z 0.000000 0.000000 3.519340 
# 
# 
# High freq. dielectric constant tensor:
#      x y z
#    x 1.742550 0.000000 0.000000 
#    y 0.000000 1.755410 0.000000 
#    z 0.000000 0.000000 1.749380 
# 
# From -- ./inp_files/26637.got.cif
#   From: 2010.03.12/outbox.cif.g09.slc.cpg/sg69_14_cif.got.tgz:26637.got - 2010.04.10 23:52:46.
