data_PCOD8284148
_publ_section_title
;
Structure prediction by ZEFSAII (Michael W. Deem and Ramdas Pophale) SiO2 
 PCOD8284148
Probable space group: F M M M
;
_chemical_formula_sum "Si O2"
_cell_formula_units_Z 160
_cell_length_a 32.705456
_cell_length_b 16.293260
_cell_length_c 16.395878
_cell_angle_alpha 90.000000
_cell_angle_beta 90.000000
_cell_angle_gamma 90.000000
_cell_volume 8737.010842
_symmetry_space_group_name_H-M "F M M M"
_symmetry_group_IT_number 69
_symmetry_cell_setting 'orthorhombic'
loop_
_space_group_symop_operation_xyz
x,y,z
-x,-y,z
x,-y,-z
-x,y,-z
-x,-y,-z
x,y,-z
-x,y,z
x,-y,z
x,1/2+y,1/2+z
-x,1/2-y,1/2+z
x,1/2-y,1/2-z
-x,1/2+y,1/2-z
-x,1/2-y,1/2-z
x,1/2+y,1/2-z
-x,1/2+y,1/2+z
x,1/2-y,1/2+z
1/2+x,y,1/2+z
1/2-x,-y,1/2+z
1/2+x,-y,1/2-z
1/2-x,y,1/2-z
1/2-x,-y,1/2-z
1/2+x,y,1/2-z
1/2-x,y,1/2+z
1/2+x,-y,1/2+z
1/2+x,1/2+y,z
1/2-x,1/2-y,z
1/2+x,1/2-y,-z
1/2-x,1/2+y,-z
1/2-x,1/2-y,-z
1/2+x,1/2+y,-z
1/2-x,1/2+y,z
1/2+x,1/2-y,z
loop_
_atom_site_type_symbol
_atom_site_label
_atom_site_fract_x
_atom_site_fract_y
_atom_site_fract_z
Si Si1 0.332262 0.177323 0.692751
Si Si2 0.264465 0.593547 0.093665
Si Si3 0.175494 0.408316 0.150812
Si Si4 0.385989 0.785256 0.091974
Si Si5 0.954035 0.091712 0.596967
O O1 0.314589 0.250000 0.750000
O O2 0.299780 0.154253 0.623790
O O3 0.339918 0.102233 0.755234
O O4 0.374574 0.206976 0.648788
O O5 0.279728 0.500000 0.103504
O O6 0.223927 0.608135 0.146753
O O7 0.254781 0.614169 0.000000
O O8 0.165186 0.500000 0.121456
O O9 0.152900 0.346046 0.090244
O O10 0.423955 0.836960 0.130351
O O11 0.395250 0.755122 0.000000
O O12 0.951478 0.091842 0.500000
O O13 0.000000 0.112331 0.626260
O O14 0.941566 0.000000 0.628302
#
# Coordination Sequence:
#
# PCOD8284148 Si02
#       5
#    32  32  32  32  32
#     4  10  21  33  45  64  94 127 156 187 231 286
#     4  10  20  34  51  68  87 117 163 212 246 272
#     4  10  20  33  48  65  89 124 163 198 233 276
#     4  10  19  30  47  71  97 120 147 188 234 280
#     4   8  14  26  46  72  99 124 150 184 229 278
#
# _framework density 18.312899999999999
#
# number of rings (size 3 to 8) (size 9 to 14) (size 15 to 20)
#    0.000    2.400    0.000    3.600    0.000    9.200 
#    0.000    5.000    0.000    5.400    0.000    0.000 
#    0.000    2.400    0.000   22.600    0.000    0.000 
#
# Total GULP energy -495741.411507 kJ/mol
# GULP energy per Si atom -12393.535288 kJ/mol
# Density = 1.827122 g / cm^3
# Si number density = 18.312900 Si / 1000 Ang^3
#
#
#
# Elastic Constant Matrix: (Units=GPa)
#
#
# Indices 1 2 3 4 5 6 
#
# 1 94.1777 37.8329 26.9573 0.0000 0.0000 0.0000
# 2 37.8329 50.2700 25.3210 0.0000 0.0000 0.0000
# 3 26.9573 25.3210 74.2466 0.0000 0.0000 0.0000
# 4 0.0000 0.0000 0.0000 26.5572 0.0000 0.0000
# 5 0.0000 0.0000 0.0000 0.0000 14.6839 0.0000
# 6 0.0000 0.0000 0.0000 0.0000 0.0000 35.7062
#
#
#
# Elastic Compliance Matrix: (Units=1/GPa)
#
#
# Indices 1 2 3 4 5 6 
#
# 1 0.015458 -0.010633 -0.001986 0.000000 0.000000 0.000000
# 2 -0.010633 0.031333 -0.006825 0.000000 0.000000 0.000000
# 3 -0.001986 -0.006825 0.016517 0.000000 0.000000 0.000000
# 4 0.000000 0.000000 0.000000 0.037655 0.000000 0.000000
# 5 0.000000 0.000000 0.000000 0.000000 0.068102 0.000000
# 6 0.000000 0.000000 0.000000 0.000000 0.000000 0.028006
#
#
# Mechanical properties :
#
#
# Convention : Reuss Voigt Hill
#
# Bulk Modulus (GPa) = 40.95090 44.32406 42.63748
# Shear Modulus (GPa) = 20.48334 23.96165 22.22250
#
# Velocity S-wave (km/s) = 3.34806 3.62118 3.48730
# Velocity P-wave (km/s) = 6.11198 6.46067 6.28874
#
# Compressibility (1/GPa) = 0.02441949
#
# Stress axis : x y z
#
# Youngs Moduli (GPa) = 64.68973 31.91526 60.54235
#
# Poissons Ratio (x) = 0.33937 0.12025
# Poissons Ratio (y) = 0.68787 0.41320
# Poissons Ratio (z) = 0.12849 0.21782
#
# Static dielectric constant tensor:
#      x y z
#    x 3.355260 0.000000 0.000000 
#    y 0.000000 3.474790 0.000000 
#    z 0.000000 0.000000 3.284880 
# 
# 
# High freq. dielectric constant tensor:
#      x y z
#    x 1.684250 0.000000 0.000000 
#    y 0.000000 1.702080 0.000000 
#    z 0.000000 0.000000 1.693350 
# 
# From -- ./inp_files/23404.got.cif
#   From: 2010.03.12/outbox.cif.g09.slc.cpg/sg69_12_cif.got.tgz:23404.got - 2010.04.10 23:52:46.
