data_PCOD8284642
_publ_section_title
;
Structure prediction by ZEFSAII (Michael W. Deem and Ramdas Pophale) SiO2 
 PCOD8284642
Probable space group: F M M M
;
_chemical_formula_sum "Si O2"
_cell_formula_units_Z 144
_cell_length_a 7.841570
_cell_length_b 34.553039
_cell_length_c 26.849128
_cell_angle_alpha 90.000000
_cell_angle_beta 90.000000
_cell_angle_gamma 90.000000
_cell_volume 7274.773219
_symmetry_space_group_name_H-M "F M M M"
_symmetry_group_IT_number 69
_symmetry_cell_setting 'orthorhombic'
loop_
_space_group_symop_operation_xyz
x,y,z
-x,-y,z
x,-y,-z
-x,y,-z
-x,-y,-z
x,y,-z
-x,y,z
x,-y,z
x,1/2+y,1/2+z
-x,1/2-y,1/2+z
x,1/2-y,1/2-z
-x,1/2+y,1/2-z
-x,1/2-y,1/2-z
x,1/2+y,1/2-z
-x,1/2+y,1/2+z
x,1/2-y,1/2+z
1/2+x,y,1/2+z
1/2-x,-y,1/2+z
1/2+x,-y,1/2-z
1/2-x,y,1/2-z
1/2-x,-y,1/2-z
1/2+x,y,1/2-z
1/2-x,y,1/2+z
1/2+x,-y,1/2+z
1/2+x,1/2+y,z
1/2-x,1/2-y,z
1/2+x,1/2-y,-z
1/2-x,1/2+y,-z
1/2-x,1/2-y,-z
1/2+x,1/2+y,-z
1/2-x,1/2+y,z
1/2+x,1/2-y,z
loop_
_atom_site_type_symbol
_atom_site_label
_atom_site_fract_x
_atom_site_fract_y
_atom_site_fract_z
Si Si1 0.194107 0.129220 0.804529
Si Si2 0.299060 0.675452 0.446107
Si Si3 0.000000 0.454446 0.442294
Si Si4 0.806567 0.906138 0.403140
Si Si5 0.200497 0.707694 0.844676
O O1 0.250000 0.115617 0.750000
O O2 0.304437 0.106055 0.845070
O O3 0.216583 0.175629 0.809106
O O4 0.000000 0.117851 0.813689
O O5 0.219683 0.687441 0.500000
O O6 0.500000 0.680216 0.448111
O O7 0.252254 0.630922 0.435752
O O8 0.227229 0.702166 0.401317
O O9 0.828187 0.439454 0.415627
O O10 0.000000 0.500000 0.435626
O O11 0.000000 0.442209 0.500000
O O12 0.000000 0.919903 0.415685
O O13 0.250000 0.750000 0.824864
O O14 0.000000 0.701134 0.843231
#
# Coordination Sequence:
#
# PCOD8284642 Si02
#       5
#    32  32  16  32  32
#     4  11  21  37  61  89 113 147 201 252 303 360
#     4   8  15  29  51  75 103 145 196 242 289 347
#     4  11  24  40  62  96 132 165 200 238 289 354
#     4  10  20  38  61  89 123 160 199 248 296 347
#     4  10  20  33  48  72 111 152 194 248 305 358
#
# _framework density 19.794430999999999
#
# number of rings (size 3 to 8) (size 9 to 14) (size 15 to 20)
#    0.000    2.111    1.111    4.667    0.000    2.667 
#    0.000    3.333    0.000    0.667    0.000    0.000 
#    0.000    0.000    0.000    0.000    0.000    0.000 
#
# Total GULP energy -446317.504015 kJ/mol
# GULP energy per Si atom -12397.708445 kJ/mol
# Density = 1.974938 g / cm^3
# Si number density = 19.794431 Si / 1000 Ang^3
#
#
#
# Elastic Constant Matrix: (Units=GPa)
#
#
# Indices 1 2 3 4 5 6 
#
# 1 91.8532 26.4758 9.9390 0.0000 0.0000 0.0000
# 2 26.4758 71.4297 15.8230 0.0000 0.0000 0.0000
# 3 9.9390 15.8230 93.9369 0.0000 0.0000 0.0000
# 4 0.0000 0.0000 0.0000 12.2644 0.0000 0.0000
# 5 0.0000 0.0000 0.0000 0.0000 21.0875 0.0000
# 6 0.0000 0.0000 0.0000 0.0000 0.0000 27.3213
#
#
#
# Elastic Compliance Matrix: (Units=1/GPa)
#
#
# Indices 1 2 3 4 5 6 
#
# 1 0.012217 -0.004406 -0.000550 0.000000 0.000000 0.000000
# 2 -0.004406 0.016132 -0.002251 0.000000 0.000000 0.000000
# 3 -0.000550 -0.002251 0.011083 0.000000 0.000000 0.000000
# 4 0.000000 0.000000 0.000000 0.081537 0.000000 0.000000
# 5 0.000000 0.000000 0.000000 0.000000 0.047421 0.000000
# 6 0.000000 0.000000 0.000000 0.000000 0.000000 0.036601
#
#
# Mechanical properties :
#
#
# Convention : Reuss Voigt Hill
#
# Bulk Modulus (GPa) = 39.97484 40.18836 40.08160
# Shear Modulus (GPa) = 21.95445 25.80012 23.87729
#
# Velocity S-wave (km/s) = 3.33396 3.61418 3.47690
# Velocity P-wave (km/s) = 5.92108 6.14519 6.03418
#
# Compressibility (1/GPa) = 0.02501573
#
# Stress axis : x y z
#
# Youngs Moduli (GPa) = 81.85627 61.99012 90.22952
#
# Poissons Ratio (x) = 0.27314 0.04966
# Poissons Ratio (y) = 0.36068 0.20311
# Poissons Ratio (z) = 0.04505 0.13954
#
# Static dielectric constant tensor:
#      x y z
#    x 3.537760 0.000000 0.000000 
#    y 0.000000 3.250180 0.000000 
#    z 0.000000 0.000000 3.846500 
# 
# 
# High freq. dielectric constant tensor:
#      x y z
#    x 1.771730 0.000000 0.000000 
#    y 0.000000 1.729570 0.000000 
#    z 0.000000 0.000000 1.779190 
# 
# From -- ./inp_files/44514.got.cif
#   From: 2010.03.12/outbox.cif.g09.slc.cpg/sg69_23_cif.got.tgz:44514.got - 2010.04.10 23:52:46.
