data_PCOD8284093
_publ_section_title
;
Structure prediction by ZEFSAII (Michael W. Deem and Ramdas Pophale) SiO2 
 PCOD8284093
Probable space group: F M M M
;
_chemical_formula_sum "Si O2"
_cell_formula_units_Z 192
_cell_length_a 18.817505
_cell_length_b 20.639795
_cell_length_c 28.200141
_cell_angle_alpha 90.000000
_cell_angle_beta 90.000000
_cell_angle_gamma 90.000000
_cell_volume 10952.637129
_symmetry_space_group_name_H-M "F M M M"
_symmetry_group_IT_number 69
_symmetry_cell_setting 'orthorhombic'
loop_
_space_group_symop_operation_xyz
x,y,z
-x,-y,z
x,-y,-z
-x,y,-z
-x,-y,-z
x,y,-z
-x,y,z
x,-y,z
x,1/2+y,1/2+z
-x,1/2-y,1/2+z
x,1/2-y,1/2-z
-x,1/2+y,1/2-z
-x,1/2-y,1/2-z
x,1/2+y,1/2-z
-x,1/2+y,1/2+z
x,1/2-y,1/2+z
1/2+x,y,1/2+z
1/2-x,-y,1/2+z
1/2+x,-y,1/2-z
1/2-x,y,1/2-z
1/2-x,-y,1/2-z
1/2+x,y,1/2-z
1/2-x,y,1/2+z
1/2+x,-y,1/2+z
1/2+x,1/2+y,z
1/2-x,1/2-y,z
1/2+x,1/2-y,-z
1/2-x,1/2+y,-z
1/2-x,1/2-y,-z
1/2+x,1/2+y,-z
1/2-x,1/2+y,z
1/2+x,1/2-y,z
loop_
_atom_site_type_symbol
_atom_site_label
_atom_site_fract_x
_atom_site_fract_y
_atom_site_fract_z
Si Si1 0.577411 0.429145 0.245414
Si Si2 0.167777 0.229812 0.641292
Si Si3 0.789525 0.924749 0.888774
Si Si4 0.211655 0.681023 0.948015
Si Si5 0.418222 0.859113 0.650088
Si Si6 0.296385 0.119248 0.203275
O O1 0.500000 0.417729 0.269411
O O2 0.579457 0.500000 0.221082
O O3 0.589996 0.376083 0.205170
O O4 0.638679 0.428314 0.284872
O O5 0.250000 0.250000 0.635936
O O6 0.150465 0.190070 0.592367
O O7 0.112695 0.287346 0.645490
O O8 0.164366 0.185460 0.687788
O O9 0.762199 0.878138 0.930709
O O10 0.873070 0.908956 0.881901
O O11 0.750737 0.910349 0.838709
O O12 0.779417 0.000000 0.902773
O O13 0.250000 0.750000 0.953719
O O14 0.180729 0.661815 0.000000
O O15 0.500000 0.861359 0.633205
O O16 0.250000 0.132179 0.250000
#
# Coordination Sequence:
#
# PCOD8284093 Si02
#       6
#    32  32  32  32  32  32
#     4  10  21  34  46  67 104 149 186 219 268 319
#     4  10  18  35  52  76 100 133 177 221 269 317
#     4  11  21  34  54  82 109 142 185 222 263 318
#     4   9  17  34  59  79 100 133 175 222 269 313
#     4  11  21  34  50  75 111 146 182 218 260 321
#     4  11  20  32  53  74 104 138 184 231 271 313
#
# _framework density 17.530024999999998
#
# number of rings (size 3 to 8) (size 9 to 14) (size 15 to 20)
#    0.000    1.667    6.667    1.000    0.000    5.000 
#    0.000    1.667    0.000    2.000    0.000    1.167 
#    0.000    0.000    0.000   17.667    0.000    0.000 
#
# Total GULP energy -594638.448807 kJ/mol
# GULP energy per Si atom -12388.301017 kJ/mol
# Density = 1.749013 g / cm^3
# Si number density = 17.530025 Si / 1000 Ang^3
#
#
#
# Elastic Constant Matrix: (Units=GPa)
#
#
# Indices 1 2 3 4 5 6 
#
# 1 93.9787 42.6625 39.2714 0.0000 0.0000 0.0000
# 2 42.6625 117.1770 43.3534 0.0000 0.0000 0.0000
# 3 39.2714 43.3534 101.5761 0.0000 0.0000 0.0000
# 4 0.0000 0.0000 0.0000 1.9658 0.0000 0.0000
# 5 0.0000 0.0000 0.0000 0.0000 12.5742 0.0000
# 6 0.0000 0.0000 0.0000 0.0000 0.0000 25.2744
#
#
#
# Elastic Compliance Matrix: (Units=1/GPa)
#
#
# Indices 1 2 3 4 5 6 
#
# 1 0.013890 -0.003646 -0.003814 0.000000 0.000000 0.000000
# 2 -0.003646 0.011091 -0.003324 0.000000 0.000000 0.000000
# 3 -0.003814 -0.003324 0.012738 0.000000 0.000000 0.000000
# 4 0.000000 0.000000 0.000000 0.508700 0.000000 0.000000
# 5 0.000000 0.000000 0.000000 0.000000 0.079528 0.000000
# 6 0.000000 0.000000 0.000000 0.000000 0.000000 0.039566
#
#
# Mechanical properties :
#
#
# Convention : Reuss Voigt Hill
#
# Bulk Modulus (GPa) = 61.91582 62.58959 62.25271
# Shear Modulus (GPa) = 7.22059 20.45918 13.83988
#
# Velocity S-wave (km/s) = 2.03173 3.41998 2.81285
# Velocity P-wave (km/s) = 6.39535 7.16776 6.79254
#
# Compressibility (1/GPa) = 0.01615096
#
# Stress axis : x y z
#
# Youngs Moduli (GPa) = 71.99666 90.15941 78.50401
#
# Poissons Ratio (x) = 0.32871 0.29940
# Poissons Ratio (y) = 0.26249 0.26097
# Poissons Ratio (z) = 0.27459 0.29972
#
# Static dielectric constant tensor:
#      x y z
#    x 3.214700 0.000000 0.000000 
#    y 0.000000 3.638550 0.000000 
#    z 0.000000 0.000000 3.578160 
# 
# 
# High freq. dielectric constant tensor:
#      x y z
#    x 1.653750 0.000000 0.000000 
#    y 0.000000 1.685900 0.000000 
#    z 0.000000 0.000000 1.661100 
# 
# From -- ./inp_files/42793.got.cif
#   From: 2010.03.12/outbox.cif.g09.slc.cpg/sg69_22_cif.got.tgz:42793.got - 2010.04.10 23:52:46.
