data_PCOD8284306
_publ_section_title
;
Structure prediction by ZEFSAII (Michael W. Deem and Ramdas Pophale) SiO2 
 PCOD8284306
Probable space group: F M M M
;
_chemical_formula_sum "Si O2"
_cell_formula_units_Z 160
_cell_length_a 33.713787
_cell_length_b 13.581115
_cell_length_c 18.609570
_cell_angle_alpha 90.000000
_cell_angle_beta 90.000000
_cell_angle_gamma 90.000000
_cell_volume 8520.779045
_symmetry_space_group_name_H-M "F M M M"
_symmetry_group_IT_number 69
_symmetry_cell_setting 'orthorhombic'
loop_
_space_group_symop_operation_xyz
x,y,z
-x,-y,z
x,-y,-z
-x,y,-z
-x,-y,-z
x,y,-z
-x,y,z
x,-y,z
x,1/2+y,1/2+z
-x,1/2-y,1/2+z
x,1/2-y,1/2-z
-x,1/2+y,1/2-z
-x,1/2-y,1/2-z
x,1/2+y,1/2-z
-x,1/2+y,1/2+z
x,1/2-y,1/2+z
1/2+x,y,1/2+z
1/2-x,-y,1/2+z
1/2+x,-y,1/2-z
1/2-x,y,1/2-z
1/2-x,-y,1/2-z
1/2+x,y,1/2-z
1/2-x,y,1/2+z
1/2+x,-y,1/2+z
1/2+x,1/2+y,z
1/2-x,1/2-y,z
1/2+x,1/2-y,-z
1/2-x,1/2+y,-z
1/2-x,1/2-y,-z
1/2+x,1/2+y,-z
1/2-x,1/2+y,z
1/2+x,1/2-y,z
loop_
_atom_site_type_symbol
_atom_site_label
_atom_site_fract_x
_atom_site_fract_y
_atom_site_fract_z
Si Si1 0.045833 0.111344 0.276597
Si Si2 0.327180 0.611003 0.000000
Si Si3 0.420822 0.783465 0.357251
Si Si4 0.328505 0.216211 0.643121
Si Si5 0.078330 0.889229 0.000000
Si Si6 0.794707 0.112022 0.274384
O O1 0.072081 0.141326 0.208135
O O2 0.056280 0.180956 0.344001
O O3 0.000000 0.124368 0.255707
O O4 0.055921 0.000000 0.298800
O O5 0.311542 0.668255 0.070239
O O6 0.374415 0.606207 0.000000
O O7 0.309821 0.500000 0.000000
O O8 0.374614 0.759088 0.364275
O O9 0.437470 0.832286 0.429889
O O10 0.323159 0.138673 0.707839
O O11 0.304684 0.317289 0.658440
O O12 0.060989 0.000000 0.000000
O O13 0.750000 0.130828 0.250000
O O14 0.802088 0.000000 0.298278
#
# Coordination Sequence:
#
# PCOD8284306 Si02
#       6
#    32  16  32  32  16  32
#     4  10  20  34  51  72 101 134 165 201 247 298
#     4   9  18  32  50  75 105 132 161 202 253 300
#     4  10  19  32  53  77 100 127 165 210 249 292
#     4  10  19  32  53  77  99 129 168 208 249 295
#     4   9  18  32  50  75 104 129 159 205 255 297
#     4  10  20  34  51  73 103 135 167 206 249 293
#
# _framework density 18.777626000000001
#
# number of rings (size 3 to 8) (size 9 to 14) (size 15 to 20)
#    0.000    2.200    0.000    6.000    0.000    4.800 
#    0.000    5.000    0.000   10.800    0.000    0.000 
#    0.000    0.000    0.000    0.000    0.000    0.000 
#
# Total GULP energy -496041.443740 kJ/mol
# GULP energy per Si atom -12401.036094 kJ/mol
# Density = 1.873489 g / cm^3
# Si number density = 18.777626 Si / 1000 Ang^3
#
#
#
# Elastic Constant Matrix: (Units=GPa)
#
#
# Indices 1 2 3 4 5 6 
#
# 1 47.9775 36.2332 11.5246 0.0000 0.0000 0.0000
# 2 36.2332 194.1013 84.3120 0.0000 0.0000 0.0000
# 3 11.5246 84.3120 133.1343 0.0000 0.0000 0.0000
# 4 0.0000 0.0000 0.0000 28.5241 0.0000 0.0000
# 5 0.0000 0.0000 0.0000 0.0000 5.9683 0.0000
# 6 0.0000 0.0000 0.0000 0.0000 0.0000 30.7003
#
#
#
# Elastic Compliance Matrix: (Units=1/GPa)
#
#
# Indices 1 2 3 4 5 6 
#
# 1 0.024373 -0.005012 0.001064 0.000000 0.000000 0.000000
# 2 -0.005012 0.008138 -0.004720 0.000000 0.000000 0.000000
# 3 0.001064 -0.004720 0.010408 0.000000 0.000000 0.000000
# 4 0.000000 0.000000 0.000000 0.035058 0.000000 0.000000
# 5 0.000000 0.000000 0.000000 0.000000 0.167551 0.000000
# 6 0.000000 0.000000 0.000000 0.000000 0.000000 0.032573
#
#
# Mechanical properties :
#
#
# Convention : Reuss Voigt Hill
#
# Bulk Modulus (GPa) = 39.08771 71.03918 55.06345
# Shear Modulus (GPa) = 16.44938 29.24810 22.84874
#
# Velocity S-wave (km/s) = 2.96296 3.95093 3.49206
# Velocity P-wave (km/s) = 5.70673 7.66336 6.75625
#
# Compressibility (1/GPa) = 0.02558349
#
# Stress axis : x y z
#
# Youngs Moduli (GPa) = 41.02975 122.88679 96.08067
#
# Poissons Ratio (x) = 0.61590 -0.10225
# Poissons Ratio (y) = 0.20564 0.45346
# Poissons Ratio (z) = -0.04366 0.57997
#
# Static dielectric constant tensor:
#      x y z
#    x 3.303580 0.000000 0.000000 
#    y 0.000000 3.628450 0.000000 
#    z 0.000000 0.000000 3.450880 
# 
# 
# High freq. dielectric constant tensor:
#      x y z
#    x 1.718820 0.000000 0.000000 
#    y 0.000000 1.738310 0.000000 
#    z 0.000000 0.000000 1.712820 
# 
# From -- ./inp_files/27491.got.cif
#   From: 2010.03.12/outbox.cif.g09.slc.cpg/sg69_14_cif.got.tgz:27491.got - 2010.04.10 23:52:46.
