data_PCOD8284847
_publ_section_title
;
Structure prediction by ZEFSAII (Michael W. Deem and Ramdas Pophale) SiO2 
 PCOD8284847
Probable space group: F M M M
;
_chemical_formula_sum "Si O2"
_cell_formula_units_Z 144
_cell_length_a 27.071892
_cell_length_b 8.842647
_cell_length_c 31.623597
_cell_angle_alpha 90.000000
_cell_angle_beta 90.000000
_cell_angle_gamma 90.000000
_cell_volume 7570.283852
_symmetry_space_group_name_H-M "F M M M"
_symmetry_group_IT_number 69
_symmetry_cell_setting 'orthorhombic'
loop_
_space_group_symop_operation_xyz
x,y,z
-x,-y,z
x,-y,-z
-x,y,-z
-x,-y,-z
x,y,-z
-x,y,z
x,-y,z
x,1/2+y,1/2+z
-x,1/2-y,1/2+z
x,1/2-y,1/2-z
-x,1/2+y,1/2-z
-x,1/2-y,1/2-z
x,1/2+y,1/2-z
-x,1/2+y,1/2+z
x,1/2-y,1/2+z
1/2+x,y,1/2+z
1/2-x,-y,1/2+z
1/2+x,-y,1/2-z
1/2-x,y,1/2-z
1/2-x,-y,1/2-z
1/2+x,y,1/2-z
1/2-x,y,1/2+z
1/2+x,-y,1/2+z
1/2+x,1/2+y,z
1/2-x,1/2-y,z
1/2+x,1/2-y,-z
1/2-x,1/2+y,-z
1/2-x,1/2-y,-z
1/2+x,1/2+y,-z
1/2-x,1/2+y,z
1/2+x,1/2-y,z
loop_
_atom_site_type_symbol
_atom_site_label
_atom_site_fract_x
_atom_site_fract_y
_atom_site_fract_z
Si Si1 0.850636 0.327276 0.078685
Si Si2 0.444286 0.326004 0.370571
Si Si3 0.303362 0.323907 0.000000
Si Si4 0.396024 0.321389 0.793492
Si Si5 0.698010 0.675808 0.667383
O O1 0.847362 0.500000 0.063043
O O2 0.906777 0.283929 0.091604
O O3 0.834418 0.219174 0.041166
O O4 0.814665 0.299533 0.118242
O O5 0.500000 0.300466 0.386908
O O6 0.434538 0.500000 0.357155
O O7 0.434774 0.222607 0.329912
O O8 0.250000 0.250000 0.000000
O O9 0.294275 0.500000 0.000000
O O10 0.393206 0.500000 0.789389
O O11 0.415653 0.250000 0.750000
O O12 0.342068 0.256370 0.803401
O O13 0.699183 0.500000 0.679126
O O14 0.750000 0.750000 0.677849
#
# Coordination Sequence:
#
# PCOD8284847 Si02
#       5
#    32  32  16  32  32
#     4   9  19  36  57  81 110 141 177 221 266 317
#     4   9  19  38  62  84 107 139 179 223 272 324
#     4  12  24  36  55  82 113 147 182 221 263 312
#     4  11  22  36  54  78 109 143 181 226 272 320
#     4  10  20  35  55  79 107 142 182 223 271 327
#
# _framework density 19.021743000000001
#
# number of rings (size 3 to 8) (size 9 to 14) (size 15 to 20)
#    0.000    2.000    0.000    5.667    0.000    7.556 
#    0.000    2.778    0.000    3.333    0.000    0.000 
#    0.000    0.000    0.000    0.000    0.000    0.000 
#
# Total GULP energy -446532.234460 kJ/mol
# GULP energy per Si atom -12403.673179 kJ/mol
# Density = 1.897845 g / cm^3
# Si number density = 19.021743 Si / 1000 Ang^3
#
#
#
# Elastic Constant Matrix: (Units=GPa)
#
#
# Indices 1 2 3 4 5 6 
#
# 1 125.3683 43.6565 34.9094 0.0001 0.0000 -0.0007
# 2 43.6565 140.7705 55.5927 0.0001 0.0001 -0.0012
# 3 34.9094 55.5927 92.9699 0.0000 0.0000 -0.0001
# 4 0.0001 0.0001 0.0000 33.2737 0.0000 0.0000
# 5 0.0000 0.0001 0.0000 0.0000 13.8213 -0.0001
# 6 -0.0007 -0.0012 -0.0001 0.0000 -0.0001 28.7069
#
#
#
# Elastic Compliance Matrix: (Units=1/GPa)
#
#
# Indices 1 2 3 4 5 6 
#
# 1 0.009308 -0.001972 -0.002316 0.000000 0.000000 0.000000
# 2 -0.001972 0.009718 -0.005070 0.000000 0.000000 0.000000
# 3 -0.002316 -0.005070 0.014658 0.000000 0.000000 0.000000
# 4 0.000000 0.000000 0.000000 0.030054 0.000000 0.000000
# 5 0.000000 0.000000 0.000000 0.000000 0.072352 0.000000
# 6 0.000000 0.000000 0.000000 0.000000 0.000000 0.034835
#
#
# Mechanical properties :
#
#
# Convention : Reuss Voigt Hill
#
# Bulk Modulus (GPa) = 66.81438 69.71400 68.26419
# Shear Modulus (GPa) = 25.68980 30.15705 27.92343
#
# Velocity S-wave (km/s) = 3.67897 3.98603 3.83557
# Velocity P-wave (km/s) = 7.29712 7.61011 7.45526
#
# Compressibility (1/GPa) = 0.01496684
#
# Stress axis : x y z
#
# Youngs Moduli (GPa) = 107.43327 102.90472 68.22381
#
# Poissons Ratio (x) = 0.20294 0.15800
# Poissons Ratio (y) = 0.21187 0.34592
# Poissons Ratio (z) = 0.24880 0.52176
#
# Static dielectric constant tensor:
#      x y z
#    x 3.532340 0.000000 0.000000 
#    y 0.000000 3.495440 0.000000 
#    z 0.000000 0.000000 3.377760 
# 
# 
# High freq. dielectric constant tensor:
#      x y z
#    x 1.743520 0.000000 0.000000 
#    y 0.000000 1.743880 0.000000 
#    z 0.000000 0.000000 1.728670 
# 
# From -- ./inp_files/44504.got.cif
#   From: 2010.03.12/outbox.cif.g09.slc.cpg/sg69_23_cif.got.tgz:44504.got - 2010.04.10 23:52:46.
