data_PCOD8284134
_publ_section_title
;
Structure prediction by ZEFSAII (Michael W. Deem and Ramdas Pophale) SiO2 
 PCOD8284134
Probable space group: F M M M
;
_chemical_formula_sum "Si O2"
_cell_formula_units_Z 192
_cell_length_a 21.771296
_cell_length_b 22.657094
_cell_length_c 24.221476
_cell_angle_alpha 90.000000
_cell_angle_beta 90.000000
_cell_angle_gamma 90.000000
_cell_volume 11947.831618
_symmetry_space_group_name_H-M "F M M M"
_symmetry_group_IT_number 69
_symmetry_cell_setting 'orthorhombic'
loop_
_space_group_symop_operation_xyz
x,y,z
-x,-y,z
x,-y,-z
-x,y,-z
-x,-y,-z
x,y,-z
-x,y,z
x,-y,z
x,1/2+y,1/2+z
-x,1/2-y,1/2+z
x,1/2-y,1/2-z
-x,1/2+y,1/2-z
-x,1/2-y,1/2-z
x,1/2+y,1/2-z
-x,1/2+y,1/2+z
x,1/2-y,1/2+z
1/2+x,y,1/2+z
1/2-x,-y,1/2+z
1/2+x,-y,1/2-z
1/2-x,y,1/2-z
1/2-x,-y,1/2-z
1/2+x,y,1/2-z
1/2-x,y,1/2+z
1/2+x,-y,1/2+z
1/2+x,1/2+y,z
1/2-x,1/2-y,z
1/2+x,1/2-y,-z
1/2-x,1/2+y,-z
1/2-x,1/2-y,-z
1/2+x,1/2+y,-z
1/2-x,1/2+y,z
1/2+x,1/2-y,z
loop_
_atom_site_type_symbol
_atom_site_label
_atom_site_fract_x
_atom_site_fract_y
_atom_site_fract_z
Si Si1 0.429267 0.226580 0.128350
Si Si2 0.873015 0.695691 0.287674
Si Si3 0.622486 0.631509 0.435919
Si Si4 0.500000 0.064906 0.065029
Si Si5 0.932066 0.883736 0.290205
Si Si6 0.680540 0.567160 0.340959
Si Si7 0.250000 0.139944 0.750000
O O1 0.500000 0.243346 0.114017
O O2 0.391897 0.284321 0.150130
O O3 0.391416 0.201076 0.075274
O O4 0.426046 0.174096 0.172310
O O5 0.893501 0.750000 0.250000
O O6 0.912889 0.637918 0.271300
O O7 0.801362 0.681770 0.277552
O O8 0.638247 0.621208 0.500000
O O9 0.560411 0.598717 0.415251
O O10 0.677345 0.603517 0.399070
O O11 0.500000 0.000000 0.091591
O O12 0.500000 0.060883 0.000000
O O13 0.885806 0.933813 0.311308
O O14 0.000000 0.911009 0.289997
O O15 0.701595 0.500000 0.352465
O O16 0.727655 0.599196 0.300199
#
# Coordination Sequence:
#
# PCOD8284134 Si02
#       7
#    32  32  32  16  32  32  16
#     4   9  15  25  42  63  86 113 142 174 218 268
#     4   9  16  26  44  62  80 110 144 183 227 270
#     4  10  19  30  43  66  94 119 149 181 217 266
#     4   9  16  26  40  58  87 122 150 176 205 248
#     4   8  15  26  39  62  89 108 137 181 223 268
#     4  10  20  31  46  63  85 121 155 191 232 274
#     4  10  20  34  46  62  86 112 158 206 236 266
#
# _framework density 16.069861
#
# number of rings (size 3 to 8) (size 9 to 14) (size 15 to 20)
#    0.000    2.750    0.833    2.500    1.167    3.333 
#    0.000    0.000    0.000    2.000    0.000    0.000 
#    0.000    0.000    0.000    0.000    0.000    0.000 
#
# Total GULP energy -594674.388917 kJ/mol
# GULP energy per Si atom -12389.049769 kJ/mol
# Density = 1.603329 g / cm^3
# Si number density = 16.069861 Si / 1000 Ang^3
#
#
#
# Elastic Constant Matrix: (Units=GPa)
#
#
# Indices 1 2 3 4 5 6 
#
# 1 39.8200 5.9578 17.7702 0.0000 0.0000 0.0000
# 2 5.9578 42.5264 31.1870 0.0000 0.0000 0.0000
# 3 17.7702 31.1870 80.5329 0.0000 0.0000 0.0000
# 4 0.0000 0.0000 0.0000 18.8882 0.0000 0.0000
# 5 0.0000 0.0000 0.0000 0.0000 22.9906 0.0000
# 6 0.0000 0.0000 0.0000 0.0000 0.0000 10.9531
#
#
#
# Elastic Compliance Matrix: (Units=1/GPa)
#
#
# Indices 1 2 3 4 5 6 
#
# 1 0.027878 0.000846 -0.006479 0.000000 0.000000 0.000000
# 2 0.000846 0.032867 -0.012915 0.000000 0.000000 0.000000
# 3 -0.006479 -0.012915 0.018848 0.000000 0.000000 0.000000
# 4 0.000000 0.000000 0.000000 0.052943 0.000000 0.000000
# 5 0.000000 0.000000 0.000000 0.000000 0.043496 0.000000
# 6 0.000000 0.000000 0.000000 0.000000 0.000000 0.091298
#
#
# Mechanical properties :
#
#
# Convention : Reuss Voigt Hill
#
# Bulk Modulus (GPa) = 23.53074 30.30103 26.91589
# Shear Modulus (GPa) = 15.69400 17.76399 16.72899
#
# Velocity S-wave (km/s) = 3.12847 3.32840 3.22998
# Velocity P-wave (km/s) = 5.26539 5.80239 5.54040
#
# Compressibility (1/GPa) = 0.04249761
#
# Stress axis : x y z
#
# Youngs Moduli (GPa) = 35.87082 30.42521 53.05515
#
# Poissons Ratio (x) = -0.02574 0.34375
# Poissons Ratio (y) = -0.03034 0.68520
# Poissons Ratio (z) = 0.23241 0.39294
#
# Static dielectric constant tensor:
#      x y z
#    x 2.973360 0.000000 0.000000 
#    y 0.000000 3.048820 0.000000 
#    z 0.000000 0.000000 3.029790 
# 
# 
# High freq. dielectric constant tensor:
#      x y z
#    x 1.600400 0.000000 0.000000 
#    y 0.000000 1.595080 0.000000 
#    z 0.000000 0.000000 1.594370 
# 
# From -- ./inp_files/37962.got.cif
#   From: 2010.03.12/outbox.cif.g09.slc.cpg/sg69_19_cif.got.tgz:37962.got - 2010.04.10 23:52:46.
