data_PCOD8284991
_publ_section_title
;
Structure prediction by ZEFSAII (Michael W. Deem and Ramdas Pophale) SiO2 
 PCOD8284991
Probable space group: F M M M
;
_chemical_formula_sum "Si O2"
_cell_formula_units_Z 160
_cell_length_a 28.900499
_cell_length_b 32.436063
_cell_length_c 8.792994
_cell_angle_alpha 90.000000
_cell_angle_beta 90.000000
_cell_angle_gamma 90.000000
_cell_volume 8242.714422
_symmetry_space_group_name_H-M "F M M M"
_symmetry_group_IT_number 69
_symmetry_cell_setting 'orthorhombic'
loop_
_space_group_symop_operation_xyz
x,y,z
-x,-y,z
x,-y,-z
-x,y,-z
-x,-y,-z
x,y,-z
-x,y,z
x,-y,z
x,1/2+y,1/2+z
-x,1/2-y,1/2+z
x,1/2-y,1/2-z
-x,1/2+y,1/2-z
-x,1/2-y,1/2-z
x,1/2+y,1/2-z
-x,1/2+y,1/2+z
x,1/2-y,1/2+z
1/2+x,y,1/2+z
1/2-x,-y,1/2+z
1/2+x,-y,1/2-z
1/2-x,y,1/2-z
1/2-x,-y,1/2-z
1/2+x,y,1/2-z
1/2-x,y,1/2+z
1/2+x,-y,1/2+z
1/2+x,1/2+y,z
1/2-x,1/2-y,z
1/2+x,1/2-y,-z
1/2-x,1/2+y,-z
1/2-x,1/2-y,-z
1/2+x,1/2+y,-z
1/2-x,1/2+y,z
1/2+x,1/2-y,z
loop_
_atom_site_type_symbol
_atom_site_label
_atom_site_fract_x
_atom_site_fract_y
_atom_site_fract_z
Si Si1 0.921485 0.500000 0.177786
Si Si2 0.175260 0.000000 0.825519
Si Si3 0.372371 0.361610 0.330868
Si Si4 0.291136 0.423299 0.669469
Si Si5 0.552602 0.414268 0.826884
Si Si6 0.799344 0.205584 0.682893
O O1 0.867530 0.500000 0.210592
O O2 0.943335 0.541995 0.242587
O O3 0.930949 0.500000 0.000000
O O4 0.205749 0.960642 0.787876
O O5 0.158702 0.000000 0.000000
O O6 0.389893 0.350133 0.500000
O O7 0.339311 0.400595 0.337969
O O8 0.416414 0.376044 0.233593
O O9 0.341865 0.323806 0.263575
O O10 0.277167 0.437285 0.500000
O O11 0.250000 0.396302 0.750000
O O12 0.500000 0.398841 0.812406
O O13 0.567303 0.422269 0.000000
O O14 0.795437 0.206013 0.500000
O O15 0.811714 0.250000 0.750000
O O16 0.750000 0.190505 0.750000
#
# Coordination Sequence:
#
# PCOD8284991 Si02
#       6
#    16  16  32  32  32  32
#     4  12  23  38  59  82 110 149 194 240 292 344
#     4  12  23  36  53  75 105 146 189 236 282 328
#     4  10  22  38  58  83 114 149 189 233 283 341
#     4  11  22  36  53  76 107 147 189 230 277 334
#     4  11  24  40  60  86 114 147 191 241 292 343
#     4  10  20  36  59  90 122 156 192 229 276 334
#
# _framework density 19.411082
#
# number of rings (size 3 to 8) (size 9 to 14) (size 15 to 20)
#    0.000    1.200    2.000    5.400    0.000    5.200 
#    0.000    0.000    0.000    0.600    0.000    0.000 
#    0.000    0.000    0.000    0.000    0.000    0.000 
#
# Total GULP energy -495728.979570 kJ/mol
# GULP energy per Si atom -12393.224489 kJ/mol
# Density = 1.936690 g / cm^3
# Si number density = 19.411082 Si / 1000 Ang^3
#
#
#
# Elastic Constant Matrix: (Units=GPa)
#
#
# Indices 1 2 3 4 5 6 
#
# 1 113.9064 45.9550 55.4527 0.1380 -0.1165 -0.1426
# 2 45.9550 108.4615 47.1450 0.0544 -0.0601 -0.1879
# 3 55.4527 47.1450 131.6507 0.0988 -0.1289 -0.2503
# 4 0.1380 0.0544 0.0988 22.0029 -0.0892 -0.2751
# 5 -0.1165 -0.0601 -0.1289 -0.0892 32.2593 0.1014
# 6 -0.1426 -0.1879 -0.2503 -0.2751 0.1014 -3.4289
#
#
#
# Elastic Compliance Matrix: (Units=1/GPa)
#
#
# Indices 1 2 3 4 5 6 
#
# 1 0.012032 -0.003429 -0.003840 -0.000050 0.000022 -0.000027
# 2 -0.003429 0.011896 -0.002817 0.000001 0.000000 -0.000304
# 3 -0.003840 -0.002817 0.010221 -0.000020 0.000023 -0.000430
# 4 -0.000050 0.000001 -0.000020 0.045404 0.000137 -0.003636
# 5 0.000022 0.000000 0.000023 0.000137 0.030996 0.000903
# 6 -0.000027 -0.000304 -0.000430 -0.003636 0.000903 -0.291267
#
#
# Mechanical properties :
#
#
# Convention : Reuss Voigt Hill
#
# Bulk Modulus (GPa) = 71.53729 72.34711 71.94220
# Shear Modulus (GPa) = -32.07451 23.86438 -4.10506
#
# Velocity S-wave (km/s) = -4.06936 3.51011 -1.45581
# Velocity P-wave (km/s) = 3.85412 7.33347 5.85807
#
# Compressibility (1/GPa) = 0.01397872
#
# Stress axis : x y z
#
# Youngs Moduli (GPa) = 83.11184 84.05943 97.83592
#
# Poissons Ratio (x) = 0.28822 0.37570
# Poissons Ratio (y) = 0.28497 0.27556
# Poissons Ratio (z) = 0.31916 0.23675
#
# Static dielectric constant tensor:
#      x y z
#    x 3.574550 0.000110 0.000190 
#    y 0.000110 3.484950 -0.000190 
#    z 0.000190 -0.000190 3.735280 
# 
# 
# High freq. dielectric constant tensor:
#      x y z
#    x 1.757170 0.000010 0.000010 
#    y 0.000010 1.735020 -0.000010 
#    z 0.000010 -0.000010 1.768320 
# 
# From -- ./inp_files/5759.got.cif
#   From: 2010.03.12/outbox.cif.g09.slc.cpg/sg69_3_cif.got.tgz:5759.got - 2010.04.10 23:52:46.
