data_PCOD8284389
_publ_section_title
;
Structure prediction by ZEFSAII (Michael W. Deem and Ramdas Pophale) SiO2 
 PCOD8284389
Probable space group: F M M M
;
_chemical_formula_sum "Si O2"
_cell_formula_units_Z 128
_cell_length_a 17.524039
_cell_length_b 20.817337
_cell_length_c 15.197396
_cell_angle_alpha 90.000000
_cell_angle_beta 90.000000
_cell_angle_gamma 90.000000
_cell_volume 5544.068198
_symmetry_space_group_name_H-M "F M M M"
_symmetry_group_IT_number 69
_symmetry_cell_setting 'orthorhombic'
loop_
_space_group_symop_operation_xyz
x,y,z
-x,-y,z
x,-y,-z
-x,y,-z
-x,-y,-z
x,y,-z
-x,y,z
x,-y,z
x,1/2+y,1/2+z
-x,1/2-y,1/2+z
x,1/2-y,1/2-z
-x,1/2+y,1/2-z
-x,1/2-y,1/2-z
x,1/2+y,1/2-z
-x,1/2+y,1/2+z
x,1/2-y,1/2+z
1/2+x,y,1/2+z
1/2-x,-y,1/2+z
1/2+x,-y,1/2-z
1/2-x,y,1/2-z
1/2-x,-y,1/2-z
1/2+x,y,1/2-z
1/2-x,y,1/2+z
1/2+x,-y,1/2+z
1/2+x,1/2+y,z
1/2-x,1/2-y,z
1/2+x,1/2-y,-z
1/2-x,1/2+y,-z
1/2-x,1/2-y,-z
1/2+x,1/2+y,-z
1/2-x,1/2+y,z
1/2+x,1/2-y,z
loop_
_atom_site_type_symbol
_atom_site_label
_atom_site_fract_x
_atom_site_fract_y
_atom_site_fract_z
Si Si1 0.659472 0.500000 0.403588
Si Si2 0.589557 0.613335 0.103592
Si Si3 0.810392 0.500000 0.332494
Si Si4 0.664359 0.253424 0.895559
Si Si5 0.086020 0.873486 0.605073
O O1 0.622094 0.500000 0.500000
O O2 0.751106 0.500000 0.413627
O O3 0.630075 0.564525 0.354774
O O4 0.500000 0.608337 0.125167
O O5 0.635513 0.561988 0.161866
O O6 0.620285 0.682654 0.134048
O O7 0.604025 0.601065 0.000000
O O8 0.750000 0.500000 0.250000
O O9 0.750000 0.250000 0.857923
O O10 0.621335 0.191638 0.855578
O O11 0.665267 0.249978 0.000000
O O12 0.092809 0.871985 0.500000
O O13 0.000000 0.878263 0.637948
#
# Coordination Sequence:
#
# PCOD8284389 Si02
#       5
#    16  32  16  32  32
#     4  10  19  33  55  80 107 144 190 235 280 339
#     4  10  20  37  63  91 117 150 197 250 300 351
#     4  12  25  39  55  79 112 150 186 235 299 363
#     4   9  16  27  49  84 120 148 180 233 296 347
#     4   9  16  27  46  77 113 142 175 225 281 334
#
# _framework density 23.087738999999999
#
# number of rings (size 3 to 8) (size 9 to 14) (size 15 to 20)
#    0.000    2.250    0.000    4.125    0.000    9.500 
#    0.000    2.500    0.000    6.750    0.000    8.750 
#    0.000    0.000    0.000    0.000    0.000    0.000 
#
# Total GULP energy -396619.551034 kJ/mol
# GULP energy per Si atom -12394.360970 kJ/mol
# Density = 2.303519 g / cm^3
# Si number density = 23.087739 Si / 1000 Ang^3
#
#
#
# Elastic Constant Matrix: (Units=GPa)
#
#
# Indices 1 2 3 4 5 6 
#
# 1 214.4583 123.0357 16.7040 0.0000 0.0000 0.0000
# 2 123.0357 251.3915 20.1586 0.0000 0.0000 0.0000
# 3 16.7040 20.1586 47.5364 0.0000 0.0000 0.0000
# 4 0.0000 0.0000 0.0000 -5.9678 0.0000 0.0000
# 5 0.0000 0.0000 0.0000 0.0000 16.6934 0.0000
# 6 0.0000 0.0000 0.0000 0.0000 0.0000 58.1519
#
#
#
# Elastic Compliance Matrix: (Units=1/GPa)
#
#
# Indices 1 2 3 4 5 6 
#
# 1 0.006526 -0.003116 -0.000972 0.000000 0.000000 0.000000
# 2 -0.003116 0.005606 -0.001282 0.000000 0.000000 0.000000
# 3 -0.000972 -0.001282 0.021922 0.000000 0.000000 0.000000
# 4 0.000000 0.000000 0.000000 -0.167565 0.000000 0.000000
# 5 0.000000 0.000000 0.000000 0.000000 0.059904 0.000000
# 6 0.000000 0.000000 0.000000 0.000000 0.000000 0.017196
#
#
# Mechanical properties :
#
#
# Convention : Reuss Voigt Hill
#
# Bulk Modulus (GPa) = 42.89381 92.57587 67.73484
# Shear Modulus (GPa) = -131.93023 37.34136 -47.29443
#
# Velocity S-wave (km/s) = -7.56750 4.02601 -4.53091
# Velocity P-wave (km/s) = 7.59849 7.86105 1.42462
#
# Compressibility (1/GPa) = 0.02331339
#
# Stress axis : x y z
#
# Youngs Moduli (GPa) = 153.22410 178.38644 45.61679
#
# Poissons Ratio (x) = 0.55589 0.04433
# Poissons Ratio (y) = 0.47748 0.05849
# Poissons Ratio (z) = 0.14891 0.22873
#
# Static dielectric constant tensor:
#      x y z
#    x 4.368380 0.000000 0.000000 
#    y 0.000000 4.444620 0.000000 
#    z 0.000000 0.000000 3.594260 
# 
# 
# High freq. dielectric constant tensor:
#      x y z
#    x 1.925200 0.000000 0.000000 
#    y 0.000000 1.929360 0.000000 
#    z 0.000000 0.000000 1.869470 
# 
# From -- ./inp_files/30686.got.cif
#   From: 2010.03.12/outbox.cif.g09.slc.cpg/sg69_16_cif.got.tgz:30686.got - 2010.04.10 23:52:46.
