data_PCOD8284901
_publ_section_title
;
Structure prediction by ZEFSAII (Michael W. Deem and Ramdas Pophale) SiO2 
 PCOD8284901
Probable space group: F M M M
;
_chemical_formula_sum "Si O2"
_cell_formula_units_Z 128
_cell_length_a 21.354759
_cell_length_b 19.093846
_cell_length_c 14.416164
_cell_angle_alpha 90.000000
_cell_angle_beta 90.000000
_cell_angle_gamma 90.000000
_cell_volume 5878.111290
_symmetry_space_group_name_H-M "F M M M"
_symmetry_group_IT_number 69
_symmetry_cell_setting 'orthorhombic'
loop_
_space_group_symop_operation_xyz
x,y,z
-x,-y,z
x,-y,-z
-x,y,-z
-x,-y,-z
x,y,-z
-x,y,z
x,-y,z
x,1/2+y,1/2+z
-x,1/2-y,1/2+z
x,1/2-y,1/2-z
-x,1/2+y,1/2-z
-x,1/2-y,1/2-z
x,1/2+y,1/2-z
-x,1/2+y,1/2+z
x,1/2-y,1/2+z
1/2+x,y,1/2+z
1/2-x,-y,1/2+z
1/2+x,-y,1/2-z
1/2-x,y,1/2-z
1/2-x,-y,1/2-z
1/2+x,y,1/2-z
1/2-x,y,1/2+z
1/2+x,-y,1/2+z
1/2+x,1/2+y,z
1/2-x,1/2-y,z
1/2+x,1/2-y,-z
1/2-x,1/2+y,-z
1/2-x,1/2-y,-z
1/2+x,1/2+y,-z
1/2-x,1/2+y,z
1/2+x,1/2-y,z
loop_
_atom_site_type_symbol
_atom_site_label
_atom_site_fract_x
_atom_site_fract_y
_atom_site_fract_z
Si Si1 0.173127 0.261361 0.000000
Si Si2 0.665959 0.820397 0.194232
Si Si3 0.066704 0.650439 0.500000
Si Si4 0.609168 0.077746 0.670767
Si Si5 0.247763 0.077472 0.895264
O O1 0.250000 0.250000 0.000000
O O2 0.146489 0.300787 0.909917
O O3 0.133435 0.189857 0.000000
O O4 0.683327 0.750000 0.250000
O O5 0.611767 0.865911 0.244467
O O6 0.726814 0.869539 0.182169
O O7 0.061211 0.603324 0.592821
O O8 0.000000 0.693817 0.500000
O O9 0.674530 0.074258 0.617562
O O10 0.590461 0.000000 0.707719
O O11 0.277134 0.000000 0.879749
O O12 0.263651 0.103911 0.000000
#
# Coordination Sequence:
#
# PCOD8284901 Si02
#       5
#    16  32  16  32  32
#     4  12  26  43  62 101 142 176 226 282 342 407
#     4  12  24  36  61  90 130 175 223 275 343 405
#     4  12  25  46  72  98 133 176 224 286 345 404
#     4  11  23  40  60  92 129 172 225 280 337 402
#     4  10  20  35  57  89 133 173 212 270 339 402
#
# _framework density 21.775701999999999
#
# number of rings (size 3 to 8) (size 9 to 14) (size 15 to 20)
#    0.000    0.750    5.000    3.375    3.500    3.000 
#    0.000    2.500    0.000    0.000    0.000    0.000 
#    0.000    4.000    0.000    0.000    0.000    0.000 
#
# Total GULP energy -396429.626236 kJ/mol
# GULP energy per Si atom -12388.425820 kJ/mol
# Density = 2.172614 g / cm^3
# Si number density = 21.775702 Si / 1000 Ang^3
#
#
#
# Elastic Constant Matrix: (Units=GPa)
#
#
# Indices 1 2 3 4 5 6 
#
# 1 73.8833 29.7921 18.2325 0.0000 0.0000 0.0000
# 2 29.7921 150.3727 76.0010 0.0000 0.0000 0.0000
# 3 18.2325 76.0010 170.0677 0.0000 0.0000 0.0000
# 4 0.0000 0.0000 0.0000 38.7606 0.0000 0.0000
# 5 0.0000 0.0000 0.0000 0.0000 -10.3032 0.0000
# 6 0.0000 0.0000 0.0000 0.0000 0.0000 14.2784
#
#
#
# Elastic Compliance Matrix: (Units=1/GPa)
#
#
# Indices 1 2 3 4 5 6 
#
# 1 0.014727 -0.002738 -0.000355 0.000000 0.000000 0.000000
# 2 -0.002738 0.009100 -0.003773 0.000000 0.000000 0.000000
# 3 -0.000355 -0.003773 0.007604 0.000000 0.000000 0.000000
# 4 0.000000 0.000000 0.000000 0.025799 0.000000 0.000000
# 5 0.000000 0.000000 0.000000 0.000000 -0.097057 0.000000
# 6 0.000000 0.000000 0.000000 0.000000 0.000000 0.070036
#
#
# Mechanical properties :
#
#
# Convention : Reuss Voigt Hill
#
# Bulk Modulus (GPa) = 56.50406 71.37500 63.93953
# Shear Modulus (GPa) = 100.32106 26.56703 63.44405
#
# Velocity S-wave (km/s) = 6.79487 3.49668 5.40356
# Velocity P-wave (km/s) = 9.35761 7.01077 8.26788
#
# Compressibility (1/GPa) = 0.01769784
#
# Stress axis : x y z
#
# Youngs Moduli (GPa) = 67.90426 109.89578 131.50710
#
# Poissons Ratio (x) = 0.30091 0.04671
# Poissons Ratio (y) = 0.18593 0.49616
# Poissons Ratio (z) = 0.02412 0.41463
#
# Static dielectric constant tensor:
#      x y z
#    x 3.336460 0.000000 0.000000 
#    y 0.000000 4.542250 0.000000 
#    z 0.000000 0.000000 4.156190 
# 
# 
# High freq. dielectric constant tensor:
#      x y z
#    x 1.788310 0.000000 0.000000 
#    y 0.000000 1.874660 0.000000 
#    z 0.000000 0.000000 1.875240 
# 
# From -- ./inp_files/16367.got.cif
#   From: 2010.03.12/outbox.cif.g09.slc.cpg/sg69_9_cif.got.tgz:16367.got - 2010.04.10 23:52:46.
