data_PCOD8284880
_publ_section_title
;
Structure prediction by ZEFSAII (Michael W. Deem and Ramdas Pophale) SiO2 
 PCOD8284880
Probable space group: F M M M
;
_chemical_formula_sum "Si O2"
_cell_formula_units_Z 144
_cell_length_a 27.647600
_cell_length_b 13.759977
_cell_length_c 18.340548
_cell_angle_alpha 90.000000
_cell_angle_beta 90.000000
_cell_angle_gamma 90.000000
_cell_volume 6977.300913
_symmetry_space_group_name_H-M "F M M M"
_symmetry_group_IT_number 69
_symmetry_cell_setting 'orthorhombic'
loop_
_space_group_symop_operation_xyz
x,y,z
-x,-y,z
x,-y,-z
-x,y,-z
-x,-y,-z
x,y,-z
-x,y,z
x,-y,z
x,1/2+y,1/2+z
-x,1/2-y,1/2+z
x,1/2-y,1/2-z
-x,1/2+y,1/2-z
-x,1/2-y,1/2-z
x,1/2+y,1/2-z
-x,1/2+y,1/2+z
x,1/2-y,1/2+z
1/2+x,y,1/2+z
1/2-x,-y,1/2+z
1/2+x,-y,1/2-z
1/2-x,y,1/2-z
1/2-x,-y,1/2-z
1/2+x,y,1/2-z
1/2-x,y,1/2+z
1/2+x,-y,1/2+z
1/2+x,1/2+y,z
1/2-x,1/2-y,z
1/2+x,1/2-y,-z
1/2-x,1/2+y,-z
1/2-x,1/2-y,-z
1/2+x,1/2+y,-z
1/2-x,1/2+y,z
1/2+x,1/2-y,z
loop_
_atom_site_type_symbol
_atom_site_label
_atom_site_fract_x
_atom_site_fract_y
_atom_site_fract_z
Si Si1 0.056934 0.767874 0.139624
Si Si2 0.369102 0.390115 0.637707
Si Si3 0.943020 0.108795 0.000000
Si Si4 0.194946 0.769981 0.917369
Si Si5 0.365541 0.389944 0.197861
O O1 0.077569 0.658905 0.133173
O O2 0.073590 0.829301 0.069061
O O3 0.084264 0.828446 0.202531
O O4 0.000000 0.764793 0.154173
O O5 0.374647 0.500000 0.609788
O O6 0.332576 0.333003 0.585546
O O7 0.346385 0.386411 0.719296
O O8 0.000000 0.098604 0.000000
O O9 0.919987 0.000000 0.000000
O O10 0.250000 0.750000 0.896254
O O11 0.172814 0.844095 0.858282
O O12 0.190496 0.811872 0.000000
O O13 0.376274 0.500000 0.173470
#
# Coordination Sequence:
#
# PCOD8284880 Si02
#       5
#    32  32  16  32  32
#     4  10  20  35  56  84 117 155 197 241 287 335
#     4  10  23  40  57  84 120 158 196 233 284 349
#     4   9  18  32  51  79 112 145 187 238 290 335
#     4  10  22  40  62  88 115 146 190 243 296 350
#     4  10  22  38  58  87 119 152 194 241 291 347
#
# _framework density 20.638354
#
# number of rings (size 3 to 8) (size 9 to 14) (size 15 to 20)
#    0.000    2.111    0.000    3.333    6.222    7.111 
#    0.000    6.667    0.000    2.000    0.000    0.000 
#    0.000    0.000    0.000    0.000    0.000    0.000 
#
# Total GULP energy -446253.113723 kJ/mol
# GULP energy per Si atom -12395.919826 kJ/mol
# Density = 2.059138 g / cm^3
# Si number density = 20.638354 Si / 1000 Ang^3
#
#
#
# Elastic Constant Matrix: (Units=GPa)
#
#
# Indices 1 2 3 4 5 6 
#
# 1 124.0254 37.0695 12.8863 0.0000 0.0000 0.0000
# 2 37.0695 149.9625 10.7683 0.0000 0.0000 0.0000
# 3 12.8863 10.7683 53.8782 0.0000 0.0000 0.0000
# 4 0.0000 0.0000 0.0000 44.7095 0.0000 0.0000
# 5 0.0000 0.0000 0.0000 0.0000 22.4393 0.0000
# 6 0.0000 0.0000 0.0000 0.0000 0.0000 13.9073
#
#
#
# Elastic Compliance Matrix: (Units=1/GPa)
#
#
# Indices 1 2 3 4 5 6 
#
# 1 0.008858 -0.002067 -0.001705 0.000000 0.000000 0.000000
# 2 -0.002067 0.007248 -0.000954 0.000000 0.000000 0.000000
# 3 -0.001705 -0.000954 0.019159 0.000000 0.000000 0.000000
# 4 0.000000 0.000000 0.000000 0.022367 0.000000 0.000000
# 5 0.000000 0.000000 0.000000 0.000000 0.044565 0.000000
# 6 0.000000 0.000000 0.000000 0.000000 0.000000 0.071905
#
#
# Mechanical properties :
#
#
# Convention : Reuss Voigt Hill
#
# Bulk Modulus (GPa) = 38.74286 49.92381 44.33334
# Shear Modulus (GPa) = 26.02025 34.02069 30.02047
#
# Velocity S-wave (km/s) = 3.55459 4.06448 3.81805
# Velocity P-wave (km/s) = 5.97158 6.80213 6.40034
#
# Compressibility (1/GPa) = 0.02581121
#
# Stress axis : x y z
#
# Youngs Moduli (GPa) = 112.89356 137.97240 52.19488
#
# Poissons Ratio (x) = 0.28521 0.08902
# Poissons Ratio (y) = 0.23337 0.04980
# Poissons Ratio (z) = 0.19253 0.13165
#
# Static dielectric constant tensor:
#      x y z
#    x 3.546200 0.000000 0.000000 
#    y 0.000000 3.901860 0.000000 
#    z 0.000000 0.000000 3.871010 
# 
# 
# High freq. dielectric constant tensor:
#      x y z
#    x 1.791690 0.000000 0.000000 
#    y 0.000000 1.810890 0.000000 
#    z 0.000000 0.000000 1.817550 
# 
# From -- ./inp_files/27390.got.cif
#   From: 2010.03.12/outbox.cif.g09.slc.cpg/sg69_14_cif.got.tgz:27390.got - 2010.04.10 23:52:46.
