data_PCOD8284398
_publ_section_title
;
Structure prediction by ZEFSAII (Michael W. Deem and Ramdas Pophale) SiO2 
 PCOD8284398
Probable space group: F M M M
;
_chemical_formula_sum "Si O2"
_cell_formula_units_Z 208
_cell_length_a 26.722236
_cell_length_b 23.549254
_cell_length_c 17.382981
_cell_angle_alpha 90.000000
_cell_angle_beta 90.000000
_cell_angle_gamma 90.000000
_cell_volume 10938.913916
_symmetry_space_group_name_H-M "F M M M"
_symmetry_group_IT_number 69
_symmetry_cell_setting 'orthorhombic'
loop_
_space_group_symop_operation_xyz
x,y,z
-x,-y,z
x,-y,-z
-x,y,-z
-x,-y,-z
x,y,-z
-x,y,z
x,-y,z
x,1/2+y,1/2+z
-x,1/2-y,1/2+z
x,1/2-y,1/2-z
-x,1/2+y,1/2-z
-x,1/2-y,1/2-z
x,1/2+y,1/2-z
-x,1/2+y,1/2+z
x,1/2-y,1/2+z
1/2+x,y,1/2+z
1/2-x,-y,1/2+z
1/2+x,-y,1/2-z
1/2-x,y,1/2-z
1/2-x,-y,1/2-z
1/2+x,y,1/2-z
1/2-x,y,1/2+z
1/2+x,-y,1/2+z
1/2+x,1/2+y,z
1/2-x,1/2-y,z
1/2+x,1/2-y,-z
1/2-x,1/2+y,-z
1/2-x,1/2-y,-z
1/2+x,1/2+y,-z
1/2-x,1/2+y,z
1/2+x,1/2-y,z
loop_
_atom_site_type_symbol
_atom_site_label
_atom_site_fract_x
_atom_site_fract_y
_atom_site_fract_z
Si Si1 0.207625 0.871371 0.589187
Si Si2 0.380391 0.933567 0.165566
Si Si3 0.856816 0.262882 0.911358
Si Si4 0.556241 0.339942 0.591520
Si Si5 0.102929 0.933513 0.841992
Si Si6 0.818140 0.645604 0.410183
Si Si7 0.500000 0.432521 0.087033
O O1 0.205148 0.890217 0.500000
O O2 0.174919 0.915880 0.637910
O O3 0.187529 0.807718 0.599553
O O4 0.263787 0.871219 0.623462
O O5 0.423308 0.900704 0.119112
O O6 0.386425 0.917181 0.254497
O O7 0.388700 0.000000 0.151402
O O8 0.908189 0.289265 0.875946
O O9 0.840265 0.203569 0.871487
O O10 0.867499 0.250190 0.000000
O O11 0.558344 0.341125 0.500000
O O12 0.500000 0.330223 0.621999
O O13 0.144360 0.905650 0.896026
O O14 0.048618 0.910076 0.867490
O O15 0.106578 0.000000 0.856827
O O16 0.810191 0.656539 0.500000
O O17 0.500000 0.500000 0.085184
O O18 0.500000 0.408192 0.000000
#
# Coordination Sequence:
#
# PCOD8284398 Si02
#       7
#    32  32  32  32  32  32  16
#     4   9  18  33  54  79 109 142 177 222 268 311
#     4  10  21  35  52  75 108 148 182 216 264 327
#     4   8  15  31  53  78 107 137 173 218 268 317
#     4   9  18  33  54  80 110 141 175 222 269 313
#     4  10  22  37  53  76 107 140 176 224 275 320
#     4  10  19  33  56  81 102 135 184 227 267 324
#     4   9  18  36  58  74  96 133 175 223 274 313
#
# _framework density 19.014685
#
# number of rings (size 3 to 8) (size 9 to 14) (size 15 to 20)
#    0.000    2.692    0.000    2.308    1.077    5.538 
#    1.385    6.923    0.000    4.615    0.000    0.000 
#    0.000    0.000    0.000    0.000    0.000    0.000 
#
# Total GULP energy -644689.883349 kJ/mol
# GULP energy per Si atom -12397.882372 kJ/mol
# Density = 1.897141 g / cm^3
# Si number density = 19.014685 Si / 1000 Ang^3
#
#
#
# Elastic Constant Matrix: (Units=GPa)
#
#
# Indices 1 2 3 4 5 6 
#
# 1 192.3799 54.9240 43.3479 0.0000 0.0000 0.0000
# 2 54.9240 58.1224 31.1060 0.0000 0.0000 0.0000
# 3 43.3479 31.1060 48.2124 0.0000 0.0000 0.0000
# 4 0.0000 0.0000 0.0000 12.7664 0.0000 0.0000
# 5 0.0000 0.0000 0.0000 0.0000 19.6124 0.0000
# 6 0.0000 0.0000 0.0000 0.0000 0.0000 22.5745
#
#
#
# Elastic Compliance Matrix: (Units=1/GPa)
#
#
# Indices 1 2 3 4 5 6 
#
# 1 0.007445 -0.005274 -0.003291 0.000000 0.000000 0.000000
# 2 -0.005274 0.030015 -0.014623 0.000000 0.000000 0.000000
# 3 -0.003291 -0.014623 0.033136 0.000000 0.000000 0.000000
# 4 0.000000 0.000000 0.000000 0.078331 0.000000 0.000000
# 5 0.000000 0.000000 0.000000 0.000000 0.050988 0.000000
# 6 0.000000 0.000000 0.000000 0.000000 0.000000 0.044298
#
#
# Mechanical properties :
#
#
# Convention : Reuss Voigt Hill
#
# Bulk Modulus (GPa) = 41.29090 61.94116 51.61603
# Shear Modulus (GPa) = 16.74124 22.27977 19.51050
#
# Velocity S-wave (km/s) = 2.97044 3.42674 3.20672
# Velocity P-wave (km/s) = 5.79026 6.95003 6.39648
#
# Compressibility (1/GPa) = 0.02421841
#
# Stress axis : x y z
#
# Youngs Moduli (GPa) = 134.30992 33.31638 30.17902
#
# Poissons Ratio (x) = 0.17572 0.09933
# Poissons Ratio (y) = 0.70839 0.44132
# Poissons Ratio (z) = 0.44206 0.48720
#
# Static dielectric constant tensor:
#      x y z
#    x 3.815680 0.000000 0.000000 
#    y 0.000000 3.383620 0.000000 
#    z 0.000000 0.000000 3.256330 
# 
# 
# High freq. dielectric constant tensor:
#      x y z
#    x 1.752580 0.000000 0.000000 
#    y 0.000000 1.728960 0.000000 
#    z 0.000000 0.000000 1.711380 
# 
# From -- ./inp_files/27025.got.cif
#   From: 2010.03.12/outbox.cif.g09.slc.cpg/sg69_14_cif.got.tgz:27025.got - 2010.04.10 23:52:46.
