data_PCOD8284109
_publ_section_title
;
Structure prediction by ZEFSAII (Michael W. Deem and Ramdas Pophale) SiO2 
 PCOD8284109
Probable space group: F M M M
;
_chemical_formula_sum "Si O2"
_cell_formula_units_Z 160
_cell_length_a 33.262689
_cell_length_b 13.769914
_cell_length_c 22.565681
_cell_angle_alpha 90.000000
_cell_angle_beta 90.000000
_cell_angle_gamma 90.000000
_cell_volume 10335.631755
_symmetry_space_group_name_H-M "F M M M"
_symmetry_group_IT_number 69
_symmetry_cell_setting 'orthorhombic'
loop_
_space_group_symop_operation_xyz
x,y,z
-x,-y,z
x,-y,-z
-x,y,-z
-x,-y,-z
x,y,-z
-x,y,z
x,-y,z
x,1/2+y,1/2+z
-x,1/2-y,1/2+z
x,1/2-y,1/2-z
-x,1/2+y,1/2-z
-x,1/2-y,1/2-z
x,1/2+y,1/2-z
-x,1/2+y,1/2+z
x,1/2-y,1/2+z
1/2+x,y,1/2+z
1/2-x,-y,1/2+z
1/2+x,-y,1/2-z
1/2-x,y,1/2-z
1/2-x,-y,1/2-z
1/2+x,y,1/2-z
1/2-x,y,1/2+z
1/2+x,-y,1/2+z
1/2+x,1/2+y,z
1/2-x,1/2-y,z
1/2+x,1/2-y,-z
1/2-x,1/2+y,-z
1/2-x,1/2-y,-z
1/2+x,1/2+y,-z
1/2-x,1/2+y,z
1/2+x,1/2-y,z
loop_
_atom_site_type_symbol
_atom_site_label
_atom_site_fract_x
_atom_site_fract_y
_atom_site_fract_z
Si Si1 0.047626 0.606785 0.721132
Si Si2 0.547500 0.703514 0.341864
Si Si3 0.229242 0.106755 0.929487
Si Si4 0.606778 0.613067 0.430259
Si Si5 0.689436 0.298455 0.429613
O O1 0.065349 0.500000 0.705783
O O2 0.062245 0.639121 0.786239
O O3 0.060451 0.684677 0.671175
O O4 0.000000 0.603881 0.723338
O O5 0.500000 0.694318 0.352481
O O6 0.569193 0.666514 0.400622
O O7 0.273543 0.136272 0.906049
O O8 0.196427 0.186659 0.908586
O O9 0.217845 0.000000 0.904340
O O10 0.230412 0.104911 0.000000
O O11 0.602736 0.630095 0.500000
O O12 0.606605 0.500000 0.414201
O O13 0.647715 0.660271 0.404252
O O14 0.688329 0.304442 0.500000
#
# Coordination Sequence:
#
# PCOD8284109 Si02
#       5
#    32  32  32  32  32
#     4   8  14  27  47  65  78  95 126 174 223 250
#     4   9  17  28  43  63  83 105 137 172 202 237
#     4   8  12  20  36  53  69  94 130 169 202 231
#     4  10  19  28  38  55  84 117 140 161 195 242
#     4   8  14  23  34  51  75 103 134 163 193 233
#
# _framework density 15.480427000000001
#
# number of rings (size 3 to 8) (size 9 to 14) (size 15 to 20)
#    0.000    3.400    0.000    3.600    0.000    4.000 
#    0.000    2.000    0.000    1.800    0.000    2.800 
#    0.000   12.800    0.000   46.400    0.000   17.600 
#
# Total GULP energy -495630.216753 kJ/mol
# GULP energy per Si atom -12390.755419 kJ/mol
# Density = 1.544519 g / cm^3
# Si number density = 15.480427 Si / 1000 Ang^3
#
#
#
# Elastic Constant Matrix: (Units=GPa)
#
#
# Indices 1 2 3 4 5 6 
#
# 1 70.6041 49.0553 28.6206 0.0000 0.0000 0.0000
# 2 49.0553 157.0133 35.4158 0.0000 0.0000 0.0000
# 3 28.6206 35.4158 31.5385 0.0000 0.0000 0.0000
# 4 0.0000 0.0000 0.0000 15.8564 0.0000 0.0000
# 5 0.0000 0.0000 0.0000 0.0000 2.1865 0.0000
# 6 0.0000 0.0000 0.0000 0.0000 0.0000 22.4272
#
#
#
# Elastic Compliance Matrix: (Units=1/GPa)
#
#
# Indices 1 2 3 4 5 6 
#
# 1 0.023702 -0.003420 -0.017669 0.000000 0.000000 0.000000
# 2 -0.003420 0.009023 -0.007029 0.000000 0.000000 0.000000
# 3 -0.017669 -0.007029 0.055634 0.000000 0.000000 0.000000
# 4 0.000000 0.000000 0.000000 0.063066 0.000000 0.000000
# 5 0.000000 0.000000 0.000000 0.000000 0.457344 0.000000
# 6 0.000000 0.000000 0.000000 0.000000 0.000000 0.044589
#
#
# Mechanical properties :
#
#
# Convention : Reuss Voigt Hill
#
# Bulk Modulus (GPa) = 31.12902 53.92659 42.52780
# Shear Modulus (GPa) = 6.94156 17.83164 12.38660
#
# Velocity S-wave (km/s) = 2.11986 3.39762 2.83175
# Velocity P-wave (km/s) = 5.11312 7.09244 6.18251
#
# Compressibility (1/GPa) = 0.03212437
#
# Stress axis : x y z
#
# Youngs Moduli (GPa) = 42.19072 110.83190 17.97458
#
# Poissons Ratio (x) = 0.37902 0.31759
# Poissons Ratio (y) = 0.14428 0.12634
# Poissons Ratio (z) = 0.74546 0.77899
#
# Static dielectric constant tensor:
#      x y z
#    x 2.836960 0.000000 0.000000 
#    y 0.000000 3.552650 0.000000 
#    z 0.000000 0.000000 2.439760 
# 
# 
# High freq. dielectric constant tensor:
#      x y z
#    x 1.572500 0.000000 0.000000 
#    y 0.000000 1.613720 0.000000 
#    z 0.000000 0.000000 1.533120 
# 
# From -- ./inp_files/38248.got.cif
#   From: 2010.03.12/outbox.cif.g09.slc.cpg/sg69_20_cif.got.tgz:38248.got - 2010.04.10 23:52:46.
