data_PCOD8284655
_publ_section_title
;
Structure prediction by ZEFSAII (Michael W. Deem and Ramdas Pophale) SiO2 
 PCOD8284655
Probable space group: F M M M
;
_chemical_formula_sum "Si O2"
_cell_formula_units_Z 144
_cell_length_a 9.023669
_cell_length_b 32.457920
_cell_length_c 26.905873
_cell_angle_alpha 90.000000
_cell_angle_beta 90.000000
_cell_angle_gamma 90.000000
_cell_volume 7880.448403
_symmetry_space_group_name_H-M "F M M M"
_symmetry_group_IT_number 69
_symmetry_cell_setting 'orthorhombic'
loop_
_space_group_symop_operation_xyz
x,y,z
-x,-y,z
x,-y,-z
-x,y,-z
-x,-y,-z
x,y,-z
-x,y,z
x,-y,z
x,1/2+y,1/2+z
-x,1/2-y,1/2+z
x,1/2-y,1/2-z
-x,1/2+y,1/2-z
-x,1/2-y,1/2-z
x,1/2+y,1/2-z
-x,1/2+y,1/2+z
x,1/2-y,1/2+z
1/2+x,y,1/2+z
1/2-x,-y,1/2+z
1/2+x,-y,1/2-z
1/2-x,y,1/2-z
1/2-x,-y,1/2-z
1/2+x,y,1/2-z
1/2-x,y,1/2+z
1/2+x,-y,1/2+z
1/2+x,1/2+y,z
1/2-x,1/2-y,z
1/2+x,1/2-y,-z
1/2-x,1/2+y,-z
1/2-x,1/2-y,-z
1/2+x,1/2+y,-z
1/2-x,1/2+y,z
1/2+x,1/2-y,z
loop_
_atom_site_type_symbol
_atom_site_label
_atom_site_fract_x
_atom_site_fract_y
_atom_site_fract_z
Si Si1 0.829133 0.337047 0.442933
Si Si2 0.824565 0.708201 0.857258
Si Si3 0.675702 0.000000 0.944139
Si Si4 0.825317 0.585879 0.900978
Si Si5 0.328754 0.872976 0.800372
O O1 0.813320 0.323952 0.500000
O O2 0.740311 0.303352 0.411095
O O3 0.760648 0.382310 0.435887
O O4 0.000000 0.337641 0.425973
O O5 0.750000 0.750000 0.837659
O O6 0.781348 0.672629 0.818143
O O7 0.000000 0.713578 0.862159
O O8 0.731013 0.959724 0.914691
O O9 0.500000 0.000000 0.946518
O O10 0.741220 0.000000 0.000000
O O11 0.787410 0.594253 0.843258
O O12 0.000000 0.591933 0.910812
O O13 0.500000 0.873978 0.788408
O O14 0.250000 0.886109 0.750000
#
# Coordination Sequence:
#
# PCOD8284655 Si02
#       5
#    32  32  16  32  32
#     4  10  20  33  50  73 102 137 172 206 250 302
#     4  10  21  36  53  75 101 130 167 210 254 300
#     4   9  16  28  52  81 105 133 169 209 250 293
#     4   9  18  33  52  76 103 132 171 213 252 297
#     4   9  19  34  52  73  98 131 168 208 253 300
#
# _framework density 18.273071999999999
#
# number of rings (size 3 to 8) (size 9 to 14) (size 15 to 20)
#    0.000    2.556    0.000    3.333    0.000    8.000 
#    0.000    3.333    0.000    2.000    0.000    0.000 
#    0.000    0.000    0.000    0.000    0.000    0.000 
#
# Total GULP energy -446426.737189 kJ/mol
# GULP energy per Si atom -12400.742700 kJ/mol
# Density = 1.823148 g / cm^3
# Si number density = 18.273072 Si / 1000 Ang^3
#
#
#
# Elastic Constant Matrix: (Units=GPa)
#
#
# Indices 1 2 3 4 5 6 
#
# 1 59.1893 23.7888 33.7755 0.0000 0.0000 0.0000
# 2 23.7888 114.9634 44.5546 0.0000 0.0000 0.0000
# 3 33.7755 44.5546 113.3301 0.0000 0.0000 0.0000
# 4 0.0000 0.0000 0.0000 16.5867 0.0000 0.0000
# 5 0.0000 0.0000 0.0000 0.0000 32.1899 0.0000
# 6 0.0000 0.0000 0.0000 0.0000 0.0000 22.1103
#
#
#
# Elastic Compliance Matrix: (Units=1/GPa)
#
#
# Indices 1 2 3 4 5 6 
#
# 1 0.020838 -0.002247 -0.005327 0.000000 0.000000 0.000000
# 2 -0.002247 0.010504 -0.003460 0.000000 0.000000 0.000000
# 3 -0.005327 -0.003460 0.011772 0.000000 0.000000 0.000000
# 4 0.000000 0.000000 0.000000 0.060289 0.000000 0.000000
# 5 0.000000 0.000000 0.000000 0.000000 0.031066 0.000000
# 6 0.000000 0.000000 0.000000 0.000000 0.000000 0.045228
#
#
# Mechanical properties :
#
#
# Convention : Reuss Voigt Hill
#
# Bulk Modulus (GPa) = 47.51584 54.63562 51.07573
# Shear Modulus (GPa) = 23.94871 26.53499 25.24185
#
# Velocity S-wave (km/s) = 3.62415 3.81482 3.72071
# Velocity P-wave (km/s) = 6.60093 7.02626 6.81691
#
# Compressibility (1/GPa) = 0.02104561
#
# Stress axis : x y z
#
# Youngs Moduli (GPa) = 47.98965 95.19843 84.95094
#
# Poissons Ratio (x) = 0.21396 0.45251
# Poissons Ratio (y) = 0.10786 0.29392
# Poissons Ratio (z) = 0.25563 0.32937
#
# Static dielectric constant tensor:
#      x y z
#    x 3.288560 0.000000 0.000000 
#    y 0.000000 3.475650 0.000000 
#    z 0.000000 0.000000 3.303750 
# 
# 
# High freq. dielectric constant tensor:
#      x y z
#    x 1.700810 0.000000 0.000000 
#    y 0.000000 1.703010 0.000000 
#    z 0.000000 0.000000 1.705960 
# 
# From -- ./inp_files/5600.got.cif
#   From: 2010.03.12/outbox.cif.g09.slc.cpg/sg69_3_cif.got.tgz:5600.got - 2010.04.10 23:52:46.
