data_PCOD8284791
_publ_section_title
;
Structure prediction by ZEFSAII (Michael W. Deem and Ramdas Pophale) SiO2 
 PCOD8284791
Probable space group: F M M M
;
_chemical_formula_sum "Si O2"
_cell_formula_units_Z 144
_cell_length_a 32.109180
_cell_length_b 26.722062
_cell_length_c 9.277359
_cell_angle_alpha 90.000000
_cell_angle_beta 90.000000
_cell_angle_gamma 90.000000
_cell_volume 7960.192028
_symmetry_space_group_name_H-M "F M M M"
_symmetry_group_IT_number 69
_symmetry_cell_setting 'orthorhombic'
loop_
_space_group_symop_operation_xyz
x,y,z
-x,-y,z
x,-y,-z
-x,y,-z
-x,-y,-z
x,y,-z
-x,y,z
x,-y,z
x,1/2+y,1/2+z
-x,1/2-y,1/2+z
x,1/2-y,1/2-z
-x,1/2+y,1/2-z
-x,1/2-y,1/2-z
x,1/2+y,1/2-z
-x,1/2+y,1/2+z
x,1/2-y,1/2+z
1/2+x,y,1/2+z
1/2-x,-y,1/2+z
1/2+x,-y,1/2-z
1/2-x,y,1/2-z
1/2-x,-y,1/2-z
1/2+x,y,1/2-z
1/2-x,y,1/2+z
1/2+x,-y,1/2+z
1/2+x,1/2+y,z
1/2-x,1/2-y,z
1/2+x,1/2-y,-z
1/2-x,1/2+y,-z
1/2-x,1/2-y,-z
1/2+x,1/2+y,-z
1/2-x,1/2+y,z
1/2+x,1/2-y,z
loop_
_atom_site_type_symbol
_atom_site_label
_atom_site_fract_x
_atom_site_fract_y
_atom_site_fract_z
Si Si1 0.920359 0.197969 0.668772
Si Si2 0.500000 0.804411 0.324401
Si Si3 0.216294 0.320046 0.000000
Si Si4 0.661206 0.852576 0.245078
Si Si5 0.808848 0.205910 0.000000
Si Si6 0.708661 0.443737 0.166328
O O1 0.931422 0.208992 0.500000
O O2 0.908833 0.250000 0.750000
O O3 0.958211 0.170926 0.757244
O O4 0.883176 0.157153 0.670458
O O5 0.500000 0.804641 0.500000
O O6 0.500000 0.750000 0.250000
O O7 0.199937 0.347471 0.139295
O O8 0.198925 0.264129 0.000000
O O9 0.265787 0.324519 0.000000
O O10 0.664195 0.809181 0.363368
O O11 0.667994 0.908573 0.305965
O O12 0.695724 0.500000 0.212434
O O13 0.750000 0.426270 0.250000
O O14 0.720741 0.440980 0.000000
#
# Coordination Sequence:
#
# PCOD8284791 Si02
#       6
#    32  16  16  32  16  32
#     4  11  22  36  55  79 113 147 185 224 270 327
#     4  10  20  34  56  80 109 144 183 222 272 325
#     4  11  22  36  47  74 108 146 188 214 267 315
#     4  12  23  34  54  78 106 144 187 228 274 319
#     4  11  22  34  51  70 108 150 182 226 255 321
#     4  10  22  39  58  78 102 138 186 239 288 329
#
# _framework density 18.090015999999999
#
# number of rings (size 3 to 8) (size 9 to 14) (size 15 to 20)
#    0.000    1.111    2.222    7.000    4.667    1.778 
#    0.000    0.000    0.000    0.000    0.000    0.778 
#    0.000    4.444    0.000    0.000    0.000    0.000 
#
# Total GULP energy -446168.572414 kJ/mol
# GULP energy per Si atom -12393.571456 kJ/mol
# Density = 1.804884 g / cm^3
# Si number density = 18.090016 Si / 1000 Ang^3
#
#
#
# Elastic Constant Matrix: (Units=GPa)
#
#
# Indices 1 2 3 4 5 6 
#
# 1 90.9601 37.7880 30.0796 0.0002 -0.0003 -0.0001
# 2 37.7880 52.2407 14.6266 -0.0090 0.0004 0.0002
# 3 30.0796 14.6266 128.0825 -0.0179 0.0020 0.0008
# 4 0.0002 -0.0090 -0.0179 24.4492 0.0025 0.0015
# 5 -0.0003 0.0004 0.0020 0.0025 31.3980 0.0004
# 6 -0.0001 0.0002 0.0008 0.0015 0.0004 18.1119
#
#
#
# Elastic Compliance Matrix: (Units=1/GPa)
#
#
# Indices 1 2 3 4 5 6 
#
# 1 0.016513 -0.011217 -0.002597 -0.000006 0.000000 0.000000
# 2 -0.011217 0.027394 -0.000494 0.000010 0.000000 0.000000
# 3 -0.002597 -0.000494 0.008474 0.000006 -0.000001 0.000000
# 4 -0.000006 0.000010 0.000006 0.040901 -0.000003 -0.000003
# 5 0.000000 0.000000 -0.000001 -0.000003 0.031849 -0.000001
# 6 0.000000 0.000000 0.000000 -0.000003 -0.000001 0.055212
#
#
# Mechanical properties :
#
#
# Convention : Reuss Voigt Hill
#
# Bulk Modulus (GPa) = 42.07974 48.47461 45.27718
# Shear Modulus (GPa) = 23.05410 27.37777 25.21593
#
# Velocity S-wave (km/s) = 3.57376 3.89449 3.73757
# Velocity P-wave (km/s) = 6.35144 6.86128 6.61128
#
# Compressibility (1/GPa) = 0.02376441
#
# Stress axis : x y z
#
# Youngs Moduli (GPa) = 60.55968 36.50386 118.01121
#
# Poissons Ratio (x) = 0.40947 0.30647
# Poissons Ratio (y) = 0.67931 0.05830
# Poissons Ratio (z) = 0.15727 0.01803
#
# Static dielectric constant tensor:
#      x y z
#    x 3.671340 0.000000 0.000000 
#    y 0.000000 3.154360 -0.000010 
#    z 0.000000 -0.000010 3.573900 
# 
# 
# High freq. dielectric constant tensor:
#      x y z
#    x 1.689340 0.000000 0.000000 
#    y 0.000000 1.661770 0.000000 
#    z 0.000000 0.000000 1.725890 
# 
# From -- ./inp_files/5636.got.cif
#   From: 2010.03.12/outbox.cif.g09.slc.cpg/sg69_3_cif.got.tgz:5636.got - 2010.04.10 23:52:46.
