data_PCOD8284507
_publ_section_title
;
Structure prediction by ZEFSAII (Michael W. Deem and Ramdas Pophale) SiO2 
 PCOD8284507
Probable space group: F M M M
;
_chemical_formula_sum "Si O2"
_cell_formula_units_Z 160
_cell_length_a 18.856315
_cell_length_b 22.525981
_cell_length_c 20.820049
_cell_angle_alpha 90.000000
_cell_angle_beta 90.000000
_cell_angle_gamma 90.000000
_cell_volume 8843.461416
_symmetry_space_group_name_H-M "F M M M"
_symmetry_group_IT_number 69
_symmetry_cell_setting 'orthorhombic'
loop_
_space_group_symop_operation_xyz
x,y,z
-x,-y,z
x,-y,-z
-x,y,-z
-x,-y,-z
x,y,-z
-x,y,z
x,-y,z
x,1/2+y,1/2+z
-x,1/2-y,1/2+z
x,1/2-y,1/2-z
-x,1/2+y,1/2-z
-x,1/2-y,1/2-z
x,1/2+y,1/2-z
-x,1/2+y,1/2+z
x,1/2-y,1/2+z
1/2+x,y,1/2+z
1/2-x,-y,1/2+z
1/2+x,-y,1/2-z
1/2-x,y,1/2-z
1/2-x,-y,1/2-z
1/2+x,y,1/2-z
1/2-x,y,1/2+z
1/2+x,-y,1/2+z
1/2+x,1/2+y,z
1/2-x,1/2-y,z
1/2+x,1/2-y,-z
1/2-x,1/2+y,-z
1/2-x,1/2-y,-z
1/2+x,1/2+y,-z
1/2-x,1/2+y,z
1/2+x,1/2-y,z
loop_
_atom_site_type_symbol
_atom_site_label
_atom_site_fract_x
_atom_site_fract_y
_atom_site_fract_z
Si Si1 0.920854 0.371190 0.094900
Si Si2 0.819891 0.000000 0.289391
Si Si3 0.922847 0.102958 0.736280
Si Si4 0.581092 0.284372 0.811404
Si Si5 0.139245 0.000000 0.428470
Si Si6 0.831906 0.739855 0.928875
O O1 0.919685 0.358701 0.170913
O O2 0.907778 0.440497 0.078058
O O3 0.858785 0.328943 0.066915
O O4 0.000000 0.355461 0.068207
O O5 0.750000 0.000000 0.250000
O O6 0.860821 0.943430 0.264284
O O7 0.807066 0.000000 0.367071
O O8 0.912963 0.145734 0.796979
O O9 0.000000 0.071294 0.740038
O O10 0.500000 0.263936 0.821546
O O11 0.614330 0.250000 0.750000
O O12 0.622242 0.274808 0.877246
O O13 0.175558 0.000000 0.500000
O O14 0.750000 0.750000 0.909151
O O15 0.843045 0.767439 0.000000
#
# Coordination Sequence:
#
# PCOD8284507 Si02
#       6
#    32  16  32  32  16  32
#     4  10  19  35  57  81 112 147 181 220 271 331
#     4  10  21  35  54  80 110 144 184 215 261 336
#     4   9  18  34  56  80 107 137 175 228 275 317
#     4  10  19  35  57  80 103 135 185 230 267 319
#     4  10  21  34  53  85 116 142 176 223 273 331
#     4  11  24  37  50  76 115 153 186 224 273 331
#
# _framework density 18.092462999999999
#
# number of rings (size 3 to 8) (size 9 to 14) (size 15 to 20)
#    0.000    2.000    2.000    1.800    0.000    9.200 
#    0.000    0.000    0.000    0.000    0.000    0.000 
#    0.000    4.000    0.000    0.000    0.000    0.000 
#
# Total GULP energy -495595.044329 kJ/mol
# GULP energy per Si atom -12389.876108 kJ/mol
# Density = 1.805128 g / cm^3
# Si number density = 18.092463 Si / 1000 Ang^3
#
#
#
# Elastic Constant Matrix: (Units=GPa)
#
#
# Indices 1 2 3 4 5 6 
#
# 1 126.2329 49.2189 63.2071 0.0000 0.0000 0.0000
# 2 49.2189 73.1591 39.4350 0.0000 0.0000 0.0000
# 3 63.2071 39.4350 136.0816 0.0000 0.0000 0.0000
# 4 0.0000 0.0000 0.0000 14.4045 0.0000 0.0000
# 5 0.0000 0.0000 0.0000 0.0000 13.3502 0.0000
# 6 0.0000 0.0000 0.0000 0.0000 0.0000 24.5314
#
#
#
# Elastic Compliance Matrix: (Units=1/GPa)
#
#
# Indices 1 2 3 4 5 6 
#
# 1 0.012284 -0.006149 -0.003924 0.000000 0.000000 0.000000
# 2 -0.006149 0.019278 -0.002730 0.000000 0.000000 0.000000
# 3 -0.003924 -0.002730 0.009962 0.000000 0.000000 0.000000
# 4 0.000000 0.000000 0.000000 0.069423 0.000000 0.000000
# 5 0.000000 0.000000 0.000000 0.000000 0.074905 0.000000
# 6 0.000000 0.000000 0.000000 0.000000 0.000000 0.040764
#
#
# Mechanical properties :
#
#
# Convention : Reuss Voigt Hill
#
# Bulk Modulus (GPa) = 62.82428 71.02174 66.92301
# Shear Modulus (GPa) = 19.41533 22.69806 21.05669
#
# Velocity S-wave (km/s) = 3.27940 3.54582 3.41521
# Velocity P-wave (km/s) = 7.00990 7.49025 7.25405
#
# Compressibility (1/GPa) = 0.01591741
#
# Stress axis : x y z
#
# Youngs Moduli (GPa) = 81.40512 51.87369 100.37934
#
# Poissons Ratio (x) = 0.31899 0.39386
# Poissons Ratio (y) = 0.50059 0.27405
# Poissons Ratio (z) = 0.31941 0.14162
#
# Static dielectric constant tensor:
#      x y z
#    x 3.232760 0.000000 0.000000 
#    y 0.000000 3.301620 0.000000 
#    z 0.000000 0.000000 3.484590 
# 
# 
# High freq. dielectric constant tensor:
#      x y z
#    x 1.680580 0.000000 0.000000 
#    y 0.000000 1.696770 0.000000 
#    z 0.000000 0.000000 1.705280 
# 
# From -- ./inp_files/24899.got.cif
#   From: 2010.03.12/outbox.cif.g09.slc.cpg/sg69_13_cif.got.tgz:24899.got - 2010.04.10 23:52:46.
