data_PCOD8284382
_publ_section_title
;
Structure prediction by ZEFSAII (Michael W. Deem and Ramdas Pophale) SiO2 
 PCOD8284382
Probable space group: F M M M
;
_chemical_formula_sum "Si O2"
_cell_formula_units_Z 192
_cell_length_a 17.914820
_cell_length_b 16.692184
_cell_length_c 32.409429
_cell_angle_alpha 90.000000
_cell_angle_beta 90.000000
_cell_angle_gamma 90.000000
_cell_volume 9691.633710
_symmetry_space_group_name_H-M "F M M M"
_symmetry_group_IT_number 69
_symmetry_cell_setting 'orthorhombic'
loop_
_space_group_symop_operation_xyz
x,y,z
-x,-y,z
x,-y,-z
-x,y,-z
-x,-y,-z
x,y,-z
-x,y,z
x,-y,z
x,1/2+y,1/2+z
-x,1/2-y,1/2+z
x,1/2-y,1/2-z
-x,1/2+y,1/2-z
-x,1/2-y,1/2-z
x,1/2+y,1/2-z
-x,1/2+y,1/2+z
x,1/2-y,1/2+z
1/2+x,y,1/2+z
1/2-x,-y,1/2+z
1/2+x,-y,1/2-z
1/2-x,y,1/2-z
1/2-x,-y,1/2-z
1/2+x,y,1/2-z
1/2-x,y,1/2+z
1/2+x,-y,1/2+z
1/2+x,1/2+y,z
1/2-x,1/2-y,z
1/2+x,1/2-y,-z
1/2-x,1/2+y,-z
1/2-x,1/2-y,-z
1/2+x,1/2+y,-z
1/2-x,1/2+y,z
1/2+x,1/2-y,z
loop_
_atom_site_type_symbol
_atom_site_label
_atom_site_fract_x
_atom_site_fract_y
_atom_site_fract_z
Si Si1 0.413822 0.327463 0.583244
Si Si2 0.843443 0.593030 0.838551
Si Si3 0.170745 0.407034 0.676320
Si Si4 0.911344 0.590354 0.000000
Si Si5 0.085621 0.146773 0.900175
Si Si6 0.411276 0.000000 0.545762
Si Si7 0.416600 0.095045 0.244295
O O1 0.500000 0.352141 0.591217
O O2 0.363518 0.357877 0.620762
O O3 0.382113 0.365620 0.541097
O O4 0.405735 0.232326 0.578064
O O5 0.860366 0.500000 0.847327
O O6 0.758411 0.606747 0.825675
O O7 0.891693 0.627435 0.800437
O O8 0.149280 0.500000 0.669499
O O9 0.132128 0.353457 0.641695
O O10 0.140006 0.375424 0.720251
O O11 0.880497 0.500000 0.000000
O O12 0.000000 0.592459 0.000000
O O13 0.117653 0.079291 0.930977
O O14 0.000000 0.128066 0.888993
O O15 0.500000 0.000000 0.543008
O O16 0.376367 0.000000 0.500000
O O17 0.500000 0.126430 0.253966
O O18 0.414015 0.000000 0.242454
#
# Coordination Sequence:
#
# PCOD8284382 Si02
#       7
#    32  32  32  16  32  16  32
#     4  10  21  35  55  82 112 144 185 235 280 326
#     4  10  20  34  54  79 113 151 189 228 276 328
#     4  10  19  33  54  79 112 148 189 226 273 331
#     4   9  18  34  58  84 109 145 188 230 278 326
#     4  10  20  34  55  82 111 144 183 229 280 332
#     4   9  18  32  56  84 109 140 179 227 286 340
#     4   9  17  30  53  83 111 144 188 233 275 325
#
# _framework density 19.810901000000001
#
# number of rings (size 3 to 8) (size 9 to 14) (size 15 to 20)
#    0.000    2.333    0.833    2.000    1.167    5.000 
#    0.000    0.833    1.833    6.000    0.000    0.000 
#    0.000    0.000    0.000    0.000    0.000    0.000 
#
# Total GULP energy -595286.729711 kJ/mol
# GULP energy per Si atom -12401.806869 kJ/mol
# Density = 1.976581 g / cm^3
# Si number density = 19.810901 Si / 1000 Ang^3
#
#
#
# Elastic Constant Matrix: (Units=GPa)
#
#
# Indices 1 2 3 4 5 6 
#
# 1 71.9536 28.2393 47.6840 0.0000 0.0000 0.0000
# 2 28.2393 85.9621 54.2620 0.0000 0.0000 0.0000
# 3 47.6840 54.2620 171.1471 0.0000 0.0000 0.0000
# 4 0.0000 0.0000 0.0000 21.4082 0.0000 0.0000
# 5 0.0000 0.0000 0.0000 0.0000 7.5973 0.0000
# 6 0.0000 0.0000 0.0000 0.0000 0.0000 18.2500
#
#
#
# Elastic Compliance Matrix: (Units=1/GPa)
#
#
# Indices 1 2 3 4 5 6 
#
# 1 0.017805 -0.003398 -0.003883 0.000000 0.000000 0.000000
# 2 -0.003398 0.015192 -0.003870 0.000000 0.000000 0.000000
# 3 -0.003883 -0.003870 0.008152 0.000000 0.000000 0.000000
# 4 0.000000 0.000000 0.000000 0.046711 0.000000 0.000000
# 5 0.000000 0.000000 0.000000 0.000000 0.131625 0.000000
# 6 0.000000 0.000000 0.000000 0.000000 0.000000 0.054794
#
#
# Mechanical properties :
#
#
# Convention : Reuss Voigt Hill
#
# Bulk Modulus (GPa) = 53.06007 65.49261 59.27634
# Shear Modulus (GPa) = 16.50905 22.70961 19.60933
#
# Velocity S-wave (km/s) = 2.88988 3.38941 3.14956
# Velocity P-wave (km/s) = 6.16252 6.96047 6.57361
#
# Compressibility (1/GPa) = 0.01884656
#
# Stress axis : x y z
#
# Youngs Moduli (GPa) = 56.16428 65.82390 122.67099
#
# Poissons Ratio (x) = 0.22365 0.47639
# Poissons Ratio (y) = 0.19083 0.47473
# Poissons Ratio (z) = 0.21811 0.25474
#
# Static dielectric constant tensor:
#      x y z
#    x 3.405930 0.000000 0.000000 
#    y 0.000000 3.425440 0.000000 
#    z 0.000000 0.000000 3.745520 
# 
# 
# High freq. dielectric constant tensor:
#      x y z
#    x 1.751340 0.000000 0.000000 
#    y 0.000000 1.754310 0.000000 
#    z 0.000000 0.000000 1.782940 
# 
# From -- ./inp_files/46426.got.cif
#   From: 2010.03.12/outbox.cif.g09.slc.cpg/sg69_24_cif.got.tgz:46426.got - 2010.04.10 23:52:46.
