data_PCOD8284761
_publ_section_title
;
Structure prediction by ZEFSAII (Michael W. Deem and Ramdas Pophale) SiO2 
 PCOD8284761
Probable space group: F M M M
;
_chemical_formula_sum "Si O2"
_cell_formula_units_Z 144
_cell_length_a 31.698566
_cell_length_b 27.512794
_cell_length_c 9.287141
_cell_angle_alpha 90.000000
_cell_angle_beta 90.000000
_cell_angle_gamma 90.000000
_cell_volume 8099.465342
_symmetry_space_group_name_H-M "F M M M"
_symmetry_group_IT_number 69
_symmetry_cell_setting 'orthorhombic'
loop_
_space_group_symop_operation_xyz
x,y,z
-x,-y,z
x,-y,-z
-x,y,-z
-x,-y,-z
x,y,-z
-x,y,z
x,-y,z
x,1/2+y,1/2+z
-x,1/2-y,1/2+z
x,1/2-y,1/2-z
-x,1/2+y,1/2-z
-x,1/2-y,1/2-z
x,1/2+y,1/2-z
-x,1/2+y,1/2+z
x,1/2-y,1/2+z
1/2+x,y,1/2+z
1/2-x,-y,1/2+z
1/2+x,-y,1/2-z
1/2-x,y,1/2-z
1/2-x,-y,1/2-z
1/2+x,y,1/2-z
1/2-x,y,1/2+z
1/2+x,-y,1/2+z
1/2+x,1/2+y,z
1/2-x,1/2-y,z
1/2+x,1/2-y,-z
1/2-x,1/2+y,-z
1/2-x,1/2-y,-z
1/2+x,1/2+y,-z
1/2-x,1/2+y,z
1/2+x,1/2-y,z
loop_
_atom_site_type_symbol
_atom_site_label
_atom_site_fract_x
_atom_site_fract_y
_atom_site_fract_z
Si Si1 0.293376 0.055539 0.830352
Si Si2 0.000000 0.302863 0.675177
Si Si3 0.287433 0.692822 0.500000
Si Si4 0.811849 0.202493 0.000000
Si Si5 0.919988 0.799626 0.333972
Si Si6 0.838493 0.646322 0.229564
O O1 0.250000 0.068522 0.750000
O O2 0.331654 0.087988 0.762168
O O3 0.306329 0.000000 0.800830
O O4 0.287674 0.065643 0.000000
O O5 0.000000 0.250000 0.750000
O O6 0.042481 0.326370 0.742450
O O7 0.000000 0.303570 0.500000
O O8 0.238224 0.701256 0.500000
O O9 0.319262 0.739658 0.500000
O O10 0.297646 0.662388 0.640148
O O11 0.835634 0.175821 0.874212
O O12 0.933265 0.787305 0.500000
O O13 0.906725 0.750000 0.250000
O O14 0.882686 0.839259 0.342246
#
# Coordination Sequence:
#
# PCOD8284761 Si02
#       6
#    32  16  16  16  32  32
#     4  10  21  38  57  77 102 137 183 234 280 319
#     4  10  20  34  54  78 107 140 179 215 265 320
#     4  11  20  38  47  72 106 144 186 212 261 309
#     4  11  24  32  51  70 108 148 178 222 253 319
#     4  11  21  35  54  77 110 142 180 219 266 322
#     4  12  23  34  53  78 104 142 185 224 270 315
#
# _framework density 17.778952
#
# number of rings (size 3 to 8) (size 9 to 14) (size 15 to 20)
#    0.000    1.111    2.222    7.000    4.667    1.778 
#    0.000    0.000    0.000    0.000    0.000    0.778 
#    0.000    4.444    0.000    0.000    0.000    0.000 
#
# Total GULP energy -446039.363659 kJ/mol
# GULP energy per Si atom -12389.982324 kJ/mol
# Density = 1.773849 g / cm^3
# Si number density = 17.778952 Si / 1000 Ang^3
#
#
#
# Elastic Constant Matrix: (Units=GPa)
#
#
# Indices 1 2 3 4 5 6 
#
# 1 79.0064 37.4764 21.8079 0.0013 -0.0015 -0.0002
# 2 37.4764 83.3431 15.1832 0.0029 -0.0052 -0.0005
# 3 21.8079 15.1832 107.5704 0.0075 -0.0215 -0.0006
# 4 0.0013 0.0029 0.0075 44.0566 -0.0045 -0.0001
# 5 -0.0015 -0.0052 -0.0215 -0.0045 24.9343 0.0012
# 6 -0.0002 -0.0005 -0.0006 -0.0001 0.0012 19.8735
#
#
#
# Elastic Compliance Matrix: (Units=1/GPa)
#
#
# Indices 1 2 3 4 5 6 
#
# 1 0.016663 -0.007059 -0.002382 0.000000 -0.000003 0.000000
# 2 -0.007059 0.015306 -0.000729 -0.000001 0.000002 0.000000
# 3 -0.002382 -0.000729 0.009882 -0.000002 0.000008 0.000000
# 4 0.000000 -0.000001 -0.000002 0.022698 0.000004 0.000000
# 5 -0.000003 0.000002 0.000008 0.000004 0.040105 -0.000002
# 6 0.000000 0.000000 0.000000 0.000000 -0.000002 0.050318
#
#
# Mechanical properties :
#
#
# Convention : Reuss Voigt Hill
#
# Bulk Modulus (GPa) = 46.48832 46.53943 46.51387
# Shear Modulus (GPa) = 27.39993 30.80305 29.10149
#
# Velocity S-wave (km/s) = 3.93000 4.16692 4.05019
# Velocity P-wave (km/s) = 6.84090 7.02741 6.93478
#
# Compressibility (1/GPa) = 0.02151078
#
# Stress axis : x y z
#
# Youngs Moduli (GPa) = 60.01337 65.33582 101.19374
#
# Poissons Ratio (x) = 0.46119 0.24102
# Poissons Ratio (y) = 0.42362 0.07380
# Poissons Ratio (z) = 0.14294 0.04765
#
# Static dielectric constant tensor:
#      x y z
#    x 3.617230 0.000000 0.000000 
#    y 0.000000 3.296970 -0.000010 
#    z 0.000000 -0.000010 3.419570 
# 
# 
# High freq. dielectric constant tensor:
#      x y z
#    x 1.676650 0.000000 0.000000 
#    y 0.000000 1.655430 0.000000 
#    z 0.000000 0.000000 1.708310 
# 
# From -- ./inp_files/5637.got.cif
#   From: 2010.03.12/outbox.cif.g09.slc.cpg/sg69_3_cif.got.tgz:5637.got - 2010.04.10 23:52:46.
