data_PCOD8284619
_publ_section_title
;
Structure prediction by ZEFSAII (Michael W. Deem and Ramdas Pophale) SiO2 
 PCOD8284619
Probable space group: F M M M
;
_chemical_formula_sum "Si O2"
_cell_formula_units_Z 192
_cell_length_a 30.936146
_cell_length_b 19.391526
_cell_length_c 16.605318
_cell_angle_alpha 90.000000
_cell_angle_beta 90.000000
_cell_angle_gamma 90.000000
_cell_volume 9961.514983
_symmetry_space_group_name_H-M "F M M M"
_symmetry_group_IT_number 69
_symmetry_cell_setting 'orthorhombic'
loop_
_space_group_symop_operation_xyz
x,y,z
-x,-y,z
x,-y,-z
-x,y,-z
-x,-y,-z
x,y,-z
-x,y,z
x,-y,z
x,1/2+y,1/2+z
-x,1/2-y,1/2+z
x,1/2-y,1/2-z
-x,1/2+y,1/2-z
-x,1/2-y,1/2-z
x,1/2+y,1/2-z
-x,1/2+y,1/2+z
x,1/2-y,1/2+z
1/2+x,y,1/2+z
1/2-x,-y,1/2+z
1/2+x,-y,1/2-z
1/2-x,y,1/2-z
1/2-x,-y,1/2-z
1/2+x,y,1/2-z
1/2-x,y,1/2+z
1/2+x,-y,1/2+z
1/2+x,1/2+y,z
1/2-x,1/2-y,z
1/2+x,1/2-y,-z
1/2-x,1/2+y,-z
1/2-x,1/2-y,-z
1/2+x,1/2+y,-z
1/2-x,1/2+y,z
1/2+x,1/2-y,z
loop_
_atom_site_type_symbol
_atom_site_label
_atom_site_fract_x
_atom_site_fract_y
_atom_site_fract_z
Si Si1 0.000000 0.257132 0.344748
Si Si2 0.093094 0.295501 0.406718
Si Si3 0.652303 0.329094 0.590899
Si Si4 0.411372 0.424994 0.344748
Si Si5 0.795924 0.920639 0.283940
Si Si6 0.123231 0.422210 0.679756
Si Si7 0.500000 0.394599 0.406990
O O1 0.000000 0.250000 0.250000
O O2 0.045181 0.293934 0.367611
O O3 0.000000 0.186042 0.392313
O O4 0.086763 0.280245 0.500000
O O5 0.129717 0.241080 0.374214
O O6 0.113088 0.371349 0.393758
O O7 0.670994 0.318919 0.500000
O O8 0.611921 0.381219 0.586358
O O9 0.688580 0.364388 0.648637
O O10 0.388769 0.500000 0.342695
O O11 0.405074 0.394034 0.255407
O O12 0.460859 0.432087 0.364342
O O13 0.750000 0.896050 0.250000
O O14 0.826930 0.918394 0.206399
O O15 0.793705 0.000000 0.318099
O O16 0.110584 0.500000 0.653428
O O17 0.500000 0.412257 0.500000
#
# Coordination Sequence:
#
# PCOD8284619 Si02
#       7
#    16  32  32  32  32  32  16
#     4  12  24  37  58  81 110 154 198 242 286 339
#     4  11  23  39  58  84 117 150 192 244 293 341
#     4  10  20  34  55  83 118 152 185 231 289 348
#     4  10  20  32  49  77 113 150 187 227 272 333
#     4   9  19  37  61  88 117 150 191 236 280 341
#     4   9  20  39  60  81 108 147 197 242 286 345
#     4  12  21  32  48  75 113 147 184 227 281 340
#
# _framework density 19.274177000000002
#
# number of rings (size 3 to 8) (size 9 to 14) (size 15 to 20)
#    0.000    1.833    1.667    4.000    2.333    3.000 
#    0.000    3.750    0.000    6.000    0.000    0.000 
#    0.000    0.000    0.000    0.000    0.000    0.000 
#
# Total GULP energy -594680.907637 kJ/mol
# GULP energy per Si atom -12389.185576 kJ/mol
# Density = 1.923031 g / cm^3
# Si number density = 19.274177 Si / 1000 Ang^3
#
#
#
# Elastic Constant Matrix: (Units=GPa)
#
#
# Indices 1 2 3 4 5 6 
#
# 1 132.7731 40.2269 48.1759 0.0000 0.0000 0.0000
# 2 40.2269 108.3351 31.0460 0.0000 0.0000 0.0000
# 3 48.1759 31.0460 61.3486 0.0000 0.0000 0.0000
# 4 0.0000 0.0000 0.0000 21.6026 0.0000 0.0000
# 5 0.0000 0.0000 0.0000 0.0000 24.0154 0.0000
# 6 0.0000 0.0000 0.0000 0.0000 0.0000 21.4499
#
#
#
# Elastic Compliance Matrix: (Units=1/GPa)
#
#
# Indices 1 2 3 4 5 6 
#
# 1 0.010842 -0.001855 -0.007576 0.000000 0.000000 0.000000
# 2 -0.001855 0.011114 -0.004167 0.000000 0.000000 0.000000
# 3 -0.007576 -0.004167 0.024358 0.000000 0.000000 0.000000
# 4 0.000000 0.000000 0.000000 0.046291 0.000000 0.000000
# 5 0.000000 0.000000 0.000000 0.000000 0.041640 0.000000
# 6 0.000000 0.000000 0.000000 0.000000 0.000000 0.046620
#
#
# Mechanical properties :
#
#
# Convention : Reuss Voigt Hill
#
# Bulk Modulus (GPa) = 52.30624 60.15049 56.22836
# Shear Modulus (GPa) = 23.31716 25.61411 24.46563
#
# Velocity S-wave (km/s) = 3.48194 3.64941 3.56666
# Velocity P-wave (km/s) = 6.58499 7.00237 6.79688
#
# Compressibility (1/GPa) = 0.01911818
#
# Stress axis : x y z
#
# Youngs Moduli (GPa) = 92.23024 89.97892 41.05387
#
# Poissons Ratio (x) = 0.16691 0.31101
# Poissons Ratio (y) = 0.17109 0.17109
# Poissons Ratio (z) = 0.69870 0.37499
#
# Static dielectric constant tensor:
#      x y z
#    x 3.584770 0.000000 0.000000 
#    y 0.000000 3.562320 0.000000 
#    z 0.000000 0.000000 3.321580 
# 
# 
# High freq. dielectric constant tensor:
#      x y z
#    x 1.744790 0.000000 0.000000 
#    y 0.000000 1.754460 0.000000 
#    z 0.000000 0.000000 1.731820 
# 
# From -- ./inp_files/27788.got.cif
#   From: 2010.03.12/outbox.cif.g09.slc.cpg/sg69_14_cif.got.tgz:27788.got - 2010.04.10 23:52:46.
