data_PCOD8284644
_publ_section_title
;
Structure prediction by ZEFSAII (Michael W. Deem and Ramdas Pophale) SiO2 
 PCOD8284644
Probable space group: F M M M
;
_chemical_formula_sum "Si O2"
_cell_formula_units_Z 112
_cell_length_a 19.728537
_cell_length_b 39.446663
_cell_length_c 7.956987
_cell_angle_alpha 90.000000
_cell_angle_beta 90.000000
_cell_angle_gamma 90.000000
_cell_volume 6192.325814
_symmetry_space_group_name_H-M "F M M M"
_symmetry_group_IT_number 69
_symmetry_cell_setting 'orthorhombic'
loop_
_space_group_symop_operation_xyz
x,y,z
-x,-y,z
x,-y,-z
-x,y,-z
-x,-y,-z
x,y,-z
-x,y,z
x,-y,z
x,1/2+y,1/2+z
-x,1/2-y,1/2+z
x,1/2-y,1/2-z
-x,1/2+y,1/2-z
-x,1/2-y,1/2-z
x,1/2+y,1/2-z
-x,1/2+y,1/2+z
x,1/2-y,1/2+z
1/2+x,y,1/2+z
1/2-x,-y,1/2+z
1/2+x,-y,1/2-z
1/2-x,y,1/2-z
1/2-x,-y,1/2-z
1/2+x,y,1/2-z
1/2-x,y,1/2+z
1/2+x,-y,1/2+z
1/2+x,1/2+y,z
1/2-x,1/2-y,z
1/2+x,1/2-y,-z
1/2-x,1/2+y,-z
1/2-x,1/2-y,-z
1/2+x,1/2+y,-z
1/2-x,1/2+y,z
1/2+x,1/2-y,z
loop_
_atom_site_type_symbol
_atom_site_label
_atom_site_fract_x
_atom_site_fract_y
_atom_site_fract_z
Si Si1 0.077174 0.345627 0.300535
Si Si2 0.326054 0.712688 0.196378
Si Si3 0.080500 0.081398 0.313180
Si Si4 0.419051 0.961622 0.500000
O O1 0.082399 0.349213 0.500000
O O2 0.122966 0.315139 0.226640
O O3 0.105158 0.380304 0.219967
O O4 0.000000 0.338405 0.245164
O O5 0.349491 0.750000 0.250000
O O6 0.250000 0.704415 0.250000
O O7 0.330765 0.710471 0.000000
O O8 0.104968 0.069860 0.500000
O O9 0.109711 0.056584 0.168522
O O10 0.000000 0.080580 0.302503
O O11 0.500000 0.960443 0.500000
O O12 0.392111 0.000000 0.500000
#
# Coordination Sequence:
#
# PCOD8284644 Si02
#       4
#    32  32  32  16
#     4   9  17  31  49  67  91 126 163 202 246 289
#     4  10  20  33  49  67  93 127 159 199 249 294
#     4   9  16  26  42  64  90 124 162 197 239 285
#     4   9  16  26  40  60  94 131 158 194 237 286
#
# _framework density 18.086904000000001
#
# number of rings (size 3 to 8) (size 9 to 14) (size 15 to 20)
#    0.000    2.714    1.429    1.714    0.000    3.429 
#    0.000    2.857    0.000    0.000    0.000    0.000 
#    0.000    1.143    0.571    0.000    0.000    0.000 
#
# Total GULP energy -347070.443528 kJ/mol
# GULP energy per Si atom -12395.372983 kJ/mol
# Density = 1.804574 g / cm^3
# Si number density = 18.086904 Si / 1000 Ang^3
#
#
#
# Elastic Constant Matrix: (Units=GPa)
#
#
# Indices 1 2 3 4 5 6 
#
# 1 38.7763 52.0244 21.3362 0.0003 -0.0007 0.0001
# 2 52.0244 167.1477 72.3602 0.0000 0.0001 0.0000
# 3 21.3362 72.3602 102.5278 0.0012 0.0006 0.0004
# 4 0.0003 0.0000 0.0012 19.9929 -0.0005 0.0001
# 5 -0.0007 0.0001 0.0006 -0.0005 12.1775 -0.0002
# 6 0.0001 0.0000 0.0004 0.0001 -0.0002 4.5966
#
#
#
# Elastic Compliance Matrix: (Units=1/GPa)
#
#
# Indices 1 2 3 4 5 6 
#
# 1 0.044318 -0.014114 0.000738 -0.000001 0.000003 -0.000001
# 2 -0.014114 0.013109 -0.006315 0.000001 -0.000001 0.000001
# 3 0.000738 -0.006315 0.014057 -0.000001 -0.000001 -0.000001
# 4 -0.000001 0.000001 -0.000001 0.050018 0.000002 -0.000001
# 5 0.000003 -0.000001 -0.000001 0.000002 0.082119 0.000004
# 6 -0.000001 0.000001 -0.000001 -0.000001 0.000004 0.217554
#
#
# Mechanical properties :
#
#
# Convention : Reuss Voigt Hill
#
# Bulk Modulus (GPa) = 31.14925 66.65484 48.90205
# Shear Modulus (GPa) = 10.60991 18.20213 14.40602
#
# Velocity S-wave (km/s) = 2.42463 3.17578 2.82528
# Velocity P-wave (km/s) = 5.00977 7.09788 6.14320
#
# Compressibility (1/GPa) = 0.03210350
#
# Stress axis : x y z
#
# Youngs Moduli (GPa) = 22.56403 76.28108 71.13998
#
# Poissons Ratio (x) = 1.07659 -0.05251
# Poissons Ratio (y) = 0.31846 0.44925
# Poissons Ratio (z) = -0.01665 0.48172
#
# Static dielectric constant tensor:
#      x y z
#    x 2.710940 -0.000010 0.000000 
#    y -0.000010 1.859200 0.000000 
#    z 0.000000 0.000000 3.514450 
# 
# 
# High freq. dielectric constant tensor:
#      x y z
#    x 1.637950 0.000000 0.000000 
#    y 0.000000 1.704800 0.000000 
#    z 0.000000 0.000000 1.712550 
# 
# From -- ./inp_files/3965.got.cif
#   From: 2010.03.12/outbox.cif.g09.slc.cpg/sg69_2_cif.got.tgz:3965.got - 2010.04.10 23:52:46.
