data_PCOD8284558
_publ_section_title
;
Structure prediction by ZEFSAII (Michael W. Deem and Ramdas Pophale) SiO2 
 PCOD8284558
Probable space group: F M M M
;
_chemical_formula_sum "Si O2"
_cell_formula_units_Z 224
_cell_length_a 16.879306
_cell_length_b 28.127922
_cell_length_c 22.258003
_cell_angle_alpha 90.000000
_cell_angle_beta 90.000000
_cell_angle_gamma 90.000000
_cell_volume 10567.650270
_symmetry_space_group_name_H-M "F M M M"
_symmetry_group_IT_number 69
_symmetry_cell_setting 'orthorhombic'
loop_
_space_group_symop_operation_xyz
x,y,z
-x,-y,z
x,-y,-z
-x,y,-z
-x,-y,-z
x,y,-z
-x,y,z
x,-y,z
x,1/2+y,1/2+z
-x,1/2-y,1/2+z
x,1/2-y,1/2-z
-x,1/2+y,1/2-z
-x,1/2-y,1/2-z
x,1/2+y,1/2-z
-x,1/2+y,1/2+z
x,1/2-y,1/2+z
1/2+x,y,1/2+z
1/2-x,-y,1/2+z
1/2+x,-y,1/2-z
1/2-x,y,1/2-z
1/2-x,-y,1/2-z
1/2+x,y,1/2-z
1/2-x,y,1/2+z
1/2+x,-y,1/2+z
1/2+x,1/2+y,z
1/2-x,1/2-y,z
1/2+x,1/2-y,-z
1/2-x,1/2+y,-z
1/2-x,1/2-y,-z
1/2+x,1/2+y,-z
1/2-x,1/2+y,z
1/2+x,1/2-y,z
loop_
_atom_site_type_symbol
_atom_site_label
_atom_site_fract_x
_atom_site_fract_y
_atom_site_fract_z
Si Si1 0.759256 0.694610 0.818524
Si Si2 0.195217 0.551745 0.165996
Si Si3 0.593459 0.250587 0.500000
Si Si4 0.909384 0.182851 0.606302
Si Si5 0.404933 0.641205 0.000000
Si Si6 0.088198 0.055198 0.223859
Si Si7 0.089242 0.576606 0.935515
Si Si8 0.337511 0.116119 0.626778
O O1 0.750000 0.678758 0.750000
O O2 0.750000 0.750000 0.828012
O O3 0.848322 0.680300 0.838271
O O4 0.687100 0.669629 0.854980
O O5 0.233868 0.500000 0.177589
O O6 0.155595 0.570160 0.228000
O O7 0.127420 0.545980 0.116884
O O8 0.257696 0.586824 0.137254
O O9 0.500000 0.254388 0.500000
O O10 0.623193 0.277057 0.560150
O O11 0.622123 0.196162 0.500000
O O12 0.905893 0.132932 0.573336
O O13 0.000000 0.193652 0.628452
O O14 0.368538 0.615437 0.941519
O O15 0.500000 0.636424 0.000000
O O16 0.095792 0.091011 0.167590
O O17 0.000000 0.062736 0.250857
O O18 0.098707 0.000000 0.204426
O O19 0.000000 0.559257 0.937292
O O20 0.129783 0.565275 0.000000
#
# Coordination Sequence:
#
# PCOD8284558 Si02
#       8
#    32  32  16  32  16  32  32  32
#     4  11  24  41  59  91 130 165 210 265 320 384
#     4  11  23  39  63  94 128 163 208 262 318 381
#     4   9  18  37  67  95 116 152 211 266 307 369
#     4  10  19  37  63  89 121 163 209 255 314 382
#     4  11  26  45  64  92 127 165 216 272 318 368
#     4  10  22  43  70  97 125 164 215 268 325 391
#     4  10  20  35  57  89 125 163 203 251 310 381
#     4  12  24  42  65  92 126 169 213 266 322 382
#
# _framework density 21.196764999999999
#
# number of rings (size 3 to 8) (size 9 to 14) (size 15 to 20)
#    0.000    1.429    2.143    3.429    1.000    2.857 
#    0.000    6.071    0.000    2.571    0.000    0.000 
#    0.000    0.000    0.000    0.000    0.000    0.000 
#
# Total GULP energy -694154.505437 kJ/mol
# GULP energy per Si atom -12395.616169 kJ/mol
# Density = 2.114852 g / cm^3
# Si number density = 21.196765 Si / 1000 Ang^3
#
#
#
# Elastic Constant Matrix: (Units=GPa)
#
#
# Indices 1 2 3 4 5 6 
#
# 1 99.9829 28.5736 49.7280 0.0000 0.0000 0.0000
# 2 28.5736 83.8828 37.4462 0.0000 0.0000 0.0000
# 3 49.7280 37.4462 144.3332 0.0000 0.0000 0.0000
# 4 0.0000 0.0000 0.0000 24.8002 0.0000 0.0000
# 5 0.0000 0.0000 0.0000 0.0000 36.5610 0.0000
# 6 0.0000 0.0000 0.0000 0.0000 0.0000 205.6358
#
#
#
# Elastic Compliance Matrix: (Units=1/GPa)
#
#
# Indices 1 2 3 4 5 6 
#
# 1 0.012573 -0.002657 -0.003642 0.000000 0.000000 0.000000
# 2 -0.002657 0.014044 -0.002728 0.000000 0.000000 0.000000
# 3 -0.003642 -0.002728 0.008891 0.000000 0.000000 0.000000
# 4 0.000000 0.000000 0.000000 0.040322 0.000000 0.000000
# 5 0.000000 0.000000 0.000000 0.000000 0.027352 0.000000
# 6 0.000000 0.000000 0.000000 0.000000 0.000000 0.004863
#
#
# Mechanical properties :
#
#
# Convention : Reuss Voigt Hill
#
# Bulk Modulus (GPa) = 57.29626 62.18827 59.74226
# Shear Modulus (GPa) = 37.90243 67.56281 52.73262
#
# Velocity S-wave (km/s) = 4.23321 5.65184 4.99316
# Velocity P-wave (km/s) = 7.14022 8.48489 7.84143
#
# Compressibility (1/GPa) = 0.01745315
#
# Stress axis : x y z
#
# Youngs Moduli (GPa) = 79.53819 71.20308 112.47043
#
# Poissons Ratio (x) = 0.18916 0.40967
# Poissons Ratio (y) = 0.21131 0.30686
# Poissons Ratio (z) = 0.28971 0.19427
#
# Static dielectric constant tensor:
#      x y z
#    x 3.974110 0.000000 0.000000 
#    y 0.000000 3.951190 0.000000 
#    z 0.000000 0.000000 3.907970 
# 
# 
# High freq. dielectric constant tensor:
#      x y z
#    x 1.827980 0.000000 0.000000 
#    y 0.000000 1.837130 0.000000 
#    z 0.000000 0.000000 1.829790 
# 
# From -- ./inp_files/31215.got.cif
#   From: 2010.03.12/outbox.cif.g09.slc.cpg/sg69_16_cif.got.tgz:31215.got - 2010.04.10 23:52:46.
