data_PCOD8284098
_publ_section_title
;
Structure prediction by ZEFSAII (Michael W. Deem and Ramdas Pophale) SiO2 
 PCOD8284098
Probable space group: F M M M
;
_chemical_formula_sum "Si O2"
_cell_formula_units_Z 112
_cell_length_a 22.099747
_cell_length_b 25.268724
_cell_length_c 9.981201
_cell_angle_alpha 90.000000
_cell_angle_beta 90.000000
_cell_angle_gamma 90.000000
_cell_volume 5573.826103
_symmetry_space_group_name_H-M "F M M M"
_symmetry_group_IT_number 69
_symmetry_cell_setting 'orthorhombic'
loop_
_space_group_symop_operation_xyz
x,y,z
-x,-y,z
x,-y,-z
-x,y,-z
-x,-y,-z
x,y,-z
-x,y,z
x,-y,z
x,1/2+y,1/2+z
-x,1/2-y,1/2+z
x,1/2-y,1/2-z
-x,1/2+y,1/2-z
-x,1/2-y,1/2-z
x,1/2+y,1/2-z
-x,1/2+y,1/2+z
x,1/2-y,1/2+z
1/2+x,y,1/2+z
1/2-x,-y,1/2+z
1/2+x,-y,1/2-z
1/2-x,y,1/2-z
1/2-x,-y,1/2-z
1/2+x,y,1/2-z
1/2-x,y,1/2+z
1/2+x,-y,1/2+z
1/2+x,1/2+y,z
1/2-x,1/2-y,z
1/2+x,1/2-y,-z
1/2-x,1/2+y,-z
1/2-x,1/2-y,-z
1/2+x,1/2+y,-z
1/2-x,1/2+y,z
1/2+x,1/2-y,z
loop_
_atom_site_type_symbol
_atom_site_label
_atom_site_fract_x
_atom_site_fract_y
_atom_site_fract_z
Si Si1 0.500000 0.313680 0.142515
Si Si2 0.396246 0.750000 0.250000
Si Si3 0.500000 0.406270 0.657663
Si Si4 0.129410 0.057483 0.341534
Si Si5 0.694296 0.162730 0.156051
O O1 0.560553 0.278304 0.142435
O O2 0.500000 0.349993 0.271895
O O3 0.500000 0.344722 0.000000
O O4 0.356196 0.792514 0.170144
O O5 0.500000 0.394873 0.500000
O O6 0.559485 0.437966 0.703660
O O7 0.132125 0.059603 0.500000
O O8 0.169360 0.106249 0.287704
O O9 0.153480 0.000000 0.289429
O O10 0.750000 0.178736 0.250000
O O11 0.714149 0.159293 0.000000
#
# Coordination Sequence:
#
# PCOD8284098 Si02
#       5
#    16  16  16  32  32
#     4  11  23  36  60  92 121 152 189 240 300 351
#     4  11  23  40  60  86 117 161 194 240 286 361
#     4  10  18  35  61  90 120 152 191 236 291 357
#     4   9  18  35  61  90 117 150 194 241 289 349
#     4  11  24  41  61  86 117 156 202 247 290 343
#
# _framework density 20.093917999999999
#
# number of rings (size 3 to 8) (size 9 to 14) (size 15 to 20)
#    0.000    1.714    2.857    1.714    0.000    8.000 
#    0.000    0.000    0.000    3.429    0.000    0.000 
#    0.000    0.000    0.000    0.000    0.000    0.000 
#
# Total GULP energy -347050.780588 kJ/mol
# GULP energy per Si atom -12394.670735 kJ/mol
# Density = 2.004818 g / cm^3
# Si number density = 20.093918 Si / 1000 Ang^3
#
#
#
# Elastic Constant Matrix: (Units=GPa)
#
#
# Indices 1 2 3 4 5 6 
#
# 1 102.1299 35.6151 30.9526 0.0000 0.0000 0.0000
# 2 35.6151 130.1286 21.6039 0.0000 0.0000 0.0000
# 3 30.9526 21.6039 69.1402 -0.0001 0.0000 0.0000
# 4 0.0000 0.0000 -0.0001 22.0358 0.0000 0.0000
# 5 0.0000 0.0000 0.0000 0.0000 -5.7853 0.0000
# 6 0.0000 0.0000 0.0000 0.0000 0.0000 26.6903
#
#
#
# Elastic Compliance Matrix: (Units=1/GPa)
#
#
# Indices 1 2 3 4 5 6 
#
# 1 0.012075 -0.002539 -0.004612 0.000000 0.000000 0.000000
# 2 -0.002539 0.008639 -0.001563 0.000000 0.000000 0.000000
# 3 -0.004612 -0.001563 0.017016 0.000000 0.000000 0.000000
# 4 0.000000 0.000000 0.000000 0.045381 0.000000 0.000000
# 5 0.000000 0.000000 0.000000 0.000000 -0.172853 0.000000
# 6 0.000000 0.000000 0.000000 0.000000 0.000000 0.037467
#
#
# Mechanical properties :
#
#
# Convention : Reuss Voigt Hill
#
# Bulk Modulus (GPa) = 49.25565 53.08245 51.16905
# Shear Modulus (GPa) = -178.06342 22.80331 -77.63005
#
# Velocity S-wave (km/s) = -9.42380 3.37239 -6.22234
# Velocity P-wave (km/s) = 9.68735 6.45279 5.10912
#
# Compressibility (1/GPa) = 0.02030224
#
# Stress axis : x y z
#
# Youngs Moduli (GPa) = 82.81778 115.75339 58.76655
#
# Poissons Ratio (x) = 0.29390 0.27105
# Poissons Ratio (y) = 0.21028 0.09184
# Poissons Ratio (z) = 0.38198 0.18089
#
# Static dielectric constant tensor:
#      x y z
#    x 3.741860 0.000000 0.000000 
#    y 0.000000 4.004260 0.000000 
#    z 0.000000 0.000000 3.194760 
# 
# 
# High freq. dielectric constant tensor:
#      x y z
#    x 1.786530 0.000000 0.000000 
#    y 0.000000 1.795270 0.000000 
#    z 0.000000 0.000000 1.746130 
# 
# From -- ./inp_files/10052.got.cif
#   From: 2010.03.12/outbox.cif.g09.slc.cpg/sg69_6_cif.got.tgz:10052.got - 2010.04.10 23:52:46.
