data_PCOD8284599
_publ_section_title
;
Structure prediction by ZEFSAII (Michael W. Deem and Ramdas Pophale) SiO2 
 PCOD8284599
Probable space group: F M M M
;
_chemical_formula_sum "Si O2"
_cell_formula_units_Z 152
_cell_length_a 21.581608
_cell_length_b 14.146782
_cell_length_c 28.562483
_cell_angle_alpha 90.000000
_cell_angle_beta 90.000000
_cell_angle_gamma 90.000000
_cell_volume 8720.420356
_symmetry_space_group_name_H-M "F M M M"
_symmetry_group_IT_number 69
_symmetry_cell_setting 'orthorhombic'
loop_
_space_group_symop_operation_xyz
x,y,z
-x,-y,z
x,-y,-z
-x,y,-z
-x,-y,-z
x,y,-z
-x,y,z
x,-y,z
x,1/2+y,1/2+z
-x,1/2-y,1/2+z
x,1/2-y,1/2-z
-x,1/2+y,1/2-z
-x,1/2-y,1/2-z
x,1/2+y,1/2-z
-x,1/2+y,1/2+z
x,1/2-y,1/2+z
1/2+x,y,1/2+z
1/2-x,-y,1/2+z
1/2+x,-y,1/2-z
1/2-x,y,1/2-z
1/2-x,-y,1/2-z
1/2+x,y,1/2-z
1/2-x,y,1/2+z
1/2+x,-y,1/2+z
1/2+x,1/2+y,z
1/2-x,1/2-y,z
1/2+x,1/2-y,-z
1/2-x,1/2+y,-z
1/2-x,1/2-y,-z
1/2+x,1/2+y,-z
1/2-x,1/2+y,z
1/2+x,1/2-y,z
loop_
_atom_site_type_symbol
_atom_site_label
_atom_site_fract_x
_atom_site_fract_y
_atom_site_fract_z
Si Si1 0.427356 0.795225 0.907481
Si Si2 0.426025 0.107743 0.000000
Si Si3 0.250000 0.250000 0.750000
Si Si4 0.428235 0.396166 0.867736
Si Si5 0.429658 0.889008 0.813219
Si Si6 0.650853 0.609419 0.223770
O O1 0.500000 0.815834 0.908860
O O2 0.412339 0.682809 0.906714
O O3 0.401043 0.842159 0.860074
O O4 0.397689 0.840796 0.954076
O O5 0.500000 0.114345 0.000000
O O6 0.403304 0.000000 0.000000
O O7 0.290911 0.320417 0.782134
O O8 0.500000 0.390942 0.853924
O O9 0.411081 0.500000 0.887995
O O10 0.392631 0.374324 0.820307
O O11 0.500000 0.853813 0.803738
O O12 0.386673 0.859361 0.769985
O O13 0.428918 0.000000 0.821030
O O14 0.672629 0.500000 0.226972
#
# Coordination Sequence:
#
# PCOD8284599 Si02
#       6
#    32  16   8  32  32  32
#     4   9  16  25  39  61  88 118 150 179 213 260
#     4   9  16  26  39  57  87 124 152 175 209 256
#     4  12  22  32  42  58  88 126 158 182 212 258
#     4   9  17  30  47  66  88 115 149 188 224 257
#     4   9  16  27  45  68  90 113 146 187 225 261
#     4  10  20  32  46  64  89 120 151 183 221 263
#
# _framework density 17.430351999999999
#
# number of rings (size 3 to 8) (size 9 to 14) (size 15 to 20)
#    0.000    2.632    0.000    2.842    0.000    5.053 
#    0.000    4.737    0.000    3.158    0.000    0.000 
#    0.000   13.474    0.000   39.579    0.000    9.263 
#
# Total GULP energy -471024.438024 kJ/mol
# GULP energy per Si atom -12395.379948 kJ/mol
# Density = 1.739068 g / cm^3
# Si number density = 17.430352 Si / 1000 Ang^3
#
#
#
# Elastic Constant Matrix: (Units=GPa)
#
#
# Indices 1 2 3 4 5 6 
#
# 1 42.0818 38.2022 24.6588 0.0000 0.0000 0.0000
# 2 38.2022 119.3264 75.5360 0.0000 0.0000 0.0000
# 3 24.6588 75.5360 104.2512 0.0000 0.0000 0.0000
# 4 0.0000 0.0000 0.0000 30.3805 0.0000 0.0000
# 5 0.0000 0.0000 0.0000 0.0000 0.7113 0.0000
# 6 0.0000 0.0000 0.0000 0.0000 0.0000 26.3877
#
#
#
# Elastic Compliance Matrix: (Units=1/GPa)
#
#
# Indices 1 2 3 4 5 6 
#
# 1 0.033504 -0.010547 -0.000283 0.000000 0.000000 0.000000
# 2 -0.010547 0.018801 -0.011128 0.000000 0.000000 0.000000
# 3 -0.000283 -0.011128 0.017722 0.000000 0.000000 0.000000
# 4 0.000000 0.000000 0.000000 0.032916 0.000000 0.000000
# 5 0.000000 0.000000 0.000000 0.000000 1.405837 0.000000
# 6 0.000000 0.000000 0.000000 0.000000 0.000000 0.037896
#
#
# Mechanical properties :
#
#
# Convention : Reuss Voigt Hill
#
# Bulk Modulus (GPa) = 38.29744 60.27260 49.28502
# Shear Modulus (GPa) = 3.12638 19.98008 11.55323
#
# Velocity S-wave (km/s) = 1.34072 3.38935 2.57733
# Velocity P-wave (km/s) = 4.94127 7.06902 6.09866
#
# Compressibility (1/GPa) = 0.02611140
#
# Stress axis : x y z
#
# Youngs Moduli (GPa) = 29.84736 53.18816 56.42783
#
# Poissons Ratio (x) = 0.56099 0.01595
# Poissons Ratio (y) = 0.31481 0.62791
# Poissons Ratio (z) = 0.00843 0.59186
#
# Static dielectric constant tensor:
#      x y z
#    x 2.867310 0.000000 0.000000 
#    y 0.000000 3.608870 0.000000 
#    z 0.000000 0.000000 3.210920 
# 
# 
# High freq. dielectric constant tensor:
#      x y z
#    x 1.615040 0.000000 0.000000 
#    y 0.000000 1.700950 0.000000 
#    z 0.000000 0.000000 1.651090 
# 
# From -- ./inp_files/46719.got.cif
#   From: 2010.03.12/outbox.cif.g09.slc.cpg/sg69_24_cif.got.tgz:46719.got - 2010.04.10 23:52:46.
