data_PCOD8284695
_publ_section_title
;
Structure prediction by ZEFSAII (Michael W. Deem and Ramdas Pophale) SiO2 
 PCOD8284695
Probable space group: F M M M
;
_chemical_formula_sum "Si O2"
_cell_formula_units_Z 176
_cell_length_a 28.508366
_cell_length_b 16.713016
_cell_length_c 20.104920
_cell_angle_alpha 90.000000
_cell_angle_beta 90.000000
_cell_angle_gamma 90.000000
_cell_volume 9579.205807
_symmetry_space_group_name_H-M "F M M M"
_symmetry_group_IT_number 69
_symmetry_cell_setting 'orthorhombic'
loop_
_space_group_symop_operation_xyz
x,y,z
-x,-y,z
x,-y,-z
-x,y,-z
-x,-y,-z
x,y,-z
-x,y,z
x,-y,z
x,1/2+y,1/2+z
-x,1/2-y,1/2+z
x,1/2-y,1/2-z
-x,1/2+y,1/2-z
-x,1/2-y,1/2-z
x,1/2+y,1/2-z
-x,1/2+y,1/2+z
x,1/2-y,1/2+z
1/2+x,y,1/2+z
1/2-x,-y,1/2+z
1/2+x,-y,1/2-z
1/2-x,y,1/2-z
1/2-x,-y,1/2-z
1/2+x,y,1/2-z
1/2-x,y,1/2+z
1/2+x,-y,1/2+z
1/2+x,1/2+y,z
1/2-x,1/2-y,z
1/2+x,1/2-y,-z
1/2-x,1/2+y,-z
1/2-x,1/2-y,-z
1/2+x,1/2+y,-z
1/2-x,1/2+y,z
1/2+x,1/2-y,z
loop_
_atom_site_type_symbol
_atom_site_label
_atom_site_fract_x
_atom_site_fract_y
_atom_site_fract_z
Si Si1 0.551712 0.811207 0.189389
Si Si2 0.943857 0.904469 0.000000
Si Si3 0.616687 0.086712 0.269245
Si Si4 0.286442 0.411267 0.303532
Si Si5 0.701429 0.204934 0.073110
Si Si6 0.889635 0.801955 0.108004
O O1 0.500000 0.835912 0.165622
O O2 0.549199 0.750000 0.250000
O O3 0.577794 0.890049 0.214878
O O4 0.577779 0.773593 0.125747
O O5 0.918997 0.863232 0.062779
O O6 0.000000 0.888252 0.000000
O O7 0.934142 0.000000 0.000000
O O8 0.665084 0.080375 0.232552
O O9 0.623492 0.151673 0.325675
O O10 0.602608 0.000000 0.299053
O O11 0.267820 0.500000 0.324253
O O12 0.250000 0.372136 0.250000
O O13 0.296385 0.360257 0.369190
O O14 0.750000 0.250000 0.077690
O O15 0.658750 0.268595 0.078212
O O16 0.696808 0.163924 0.000000
#
# Coordination Sequence:
#
# PCOD8284695 Si02
#       6
#    32  16  32  32  32  32
#     4   9  18  32  53  79 107 144 190 239 291 344
#     4  11  24  40  59  84 117 159 202 247 306 370
#     4  10  20  33  54  83 114 148 189 240 294 345
#     4  10  21  38  60  87 118 154 196 243 297 352
#     4  11  23  38  60  88 118 154 199 242 292 357
#     4  11  20  37  57  82 115 154 197 245 291 356
#
# _framework density 18.373131000000001
#
# number of rings (size 3 to 8) (size 9 to 14) (size 15 to 20)
#    0.000    1.727    2.727    2.182    0.000    3.273 
#    0.000    0.909    0.000    0.000    0.000    0.000 
#    0.000    5.818    0.000    0.000    0.000    0.000 
#
# Total GULP energy -545287.898467 kJ/mol
# GULP energy per Si atom -12392.906783 kJ/mol
# Density = 1.833131 g / cm^3
# Si number density = 18.373131 Si / 1000 Ang^3
#
#
#
# Elastic Constant Matrix: (Units=GPa)
#
#
# Indices 1 2 3 4 5 6 
#
# 1 137.1625 42.0359 37.2653 0.0000 0.0000 0.0000
# 2 42.0359 79.7317 49.9101 0.0000 0.0000 0.0000
# 3 37.2653 49.9101 101.6521 0.0000 0.0000 0.0000
# 4 0.0000 0.0000 0.0000 25.7601 0.0000 0.0000
# 5 0.0000 0.0000 0.0000 0.0000 19.4287 0.0000
# 6 0.0000 0.0000 0.0000 0.0000 0.0000 28.3359
#
#
#
# Elastic Compliance Matrix: (Units=1/GPa)
#
#
# Indices 1 2 3 4 5 6 
#
# 1 0.008826 -0.003794 -0.001373 0.000000 0.000000 0.000000
# 2 -0.003794 0.019738 -0.008300 0.000000 0.000000 0.000000
# 3 -0.001373 -0.008300 0.014416 0.000000 0.000000 0.000000
# 4 0.000000 0.000000 0.000000 0.038820 0.000000 0.000000
# 5 0.000000 0.000000 0.000000 0.000000 0.051470 0.000000
# 6 0.000000 0.000000 0.000000 0.000000 0.000000 0.035291
#
#
# Mechanical properties :
#
#
# Convention : Reuss Voigt Hill
#
# Bulk Modulus (GPa) = 62.32023 64.10767 63.21395
# Shear Modulus (GPa) = 24.89486 27.32728 26.11107
#
# Velocity S-wave (km/s) = 3.68497 3.86080 3.77391
# Velocity P-wave (km/s) = 7.21791 7.40555 7.31233
#
# Compressibility (1/GPa) = 0.01604615
#
# Stress axis : x y z
#
# Youngs Moduli (GPa) = 113.29704 50.66336 69.36659
#
# Poissons Ratio (x) = 0.19222 0.09523
# Poissons Ratio (y) = 0.42985 0.57577
# Poissons Ratio (z) = 0.15555 0.42052
#
# Static dielectric constant tensor:
#      x y z
#    x 3.636250 0.000000 0.000000 
#    y 0.000000 4.105770 0.000000 
#    z 0.000000 0.000000 3.748990 
# 
# 
# High freq. dielectric constant tensor:
#      x y z
#    x 1.731300 0.000000 0.000000 
#    y 0.000000 1.702610 0.000000 
#    z 0.000000 0.000000 1.707080 
# 
# From -- ./inp_files/23539.got.cif
#   From: 2010.03.12/outbox.cif.g09.slc.cpg/sg69_12_cif.got.tgz:23539.got - 2010.04.10 23:52:46.
