data_PCOD8284286
_publ_section_title
;
Structure prediction by ZEFSAII (Michael W. Deem and Ramdas Pophale) SiO2 
 PCOD8284286
Probable space group: F M M M
;
_chemical_formula_sum "Si O2"
_cell_formula_units_Z 128
_cell_length_a 10.950720
_cell_length_b 16.803575
_cell_length_c 33.473364
_cell_angle_alpha 90.000000
_cell_angle_beta 90.000000
_cell_angle_gamma 90.000000
_cell_volume 6159.475378
_symmetry_space_group_name_H-M "F M M M"
_symmetry_group_IT_number 69
_symmetry_cell_setting 'orthorhombic'
loop_
_space_group_symop_operation_xyz
x,y,z
-x,-y,z
x,-y,-z
-x,y,-z
-x,-y,-z
x,y,-z
-x,y,z
x,-y,z
x,1/2+y,1/2+z
-x,1/2-y,1/2+z
x,1/2-y,1/2-z
-x,1/2+y,1/2-z
-x,1/2-y,1/2-z
x,1/2+y,1/2-z
-x,1/2+y,1/2+z
x,1/2-y,1/2+z
1/2+x,y,1/2+z
1/2-x,-y,1/2+z
1/2+x,-y,1/2-z
1/2-x,y,1/2-z
1/2-x,-y,1/2-z
1/2+x,y,1/2-z
1/2-x,y,1/2+z
1/2+x,-y,1/2+z
1/2+x,1/2+y,z
1/2-x,1/2-y,z
1/2+x,1/2-y,-z
1/2-x,1/2+y,-z
1/2-x,1/2-y,-z
1/2+x,1/2+y,-z
1/2-x,1/2+y,z
1/2+x,1/2-y,z
loop_
_atom_site_type_symbol
_atom_site_label
_atom_site_fract_x
_atom_site_fract_y
_atom_site_fract_z
Si Si1 0.500000 0.906850 0.955731
Si Si2 0.500000 0.156459 0.799710
Si Si3 0.750497 0.905792 0.579833
Si Si4 0.359401 0.587083 0.000000
Si Si5 0.000000 0.654871 0.291753
Si Si6 0.242755 0.843066 0.834400
O O1 0.612027 0.880293 0.928832
O O2 0.500000 0.000000 0.962721
O O3 0.500000 0.866375 0.000000
O O4 0.500000 0.251393 0.799992
O O5 0.500000 0.128068 0.754075
O O6 0.624120 0.121929 0.820862
O O7 0.677282 0.870438 0.541428
O O8 0.710963 0.861268 0.619711
O O9 0.729175 0.000000 0.585476
O O10 0.291950 0.500000 0.000000
O O11 0.500000 0.573923 0.000000
O O12 0.873125 0.620315 0.310251
O O13 0.250000 0.750000 0.826555
#
# Coordination Sequence:
#
# PCOD8284286 Si02
#       6
#    16  16  32  16  16  32
#     4   9  15  28  50  72  90 121 171 212 237 273
#     4   9  17  34  55  76 100 130 170 205 242 298
#     4  10  19  32  52  74  99 131 169 208 246 291
#     4   9  18  31  48  69  95 134 176 206 233 284
#     4   9  18  32  55  78  98 132 170 204 242 295
#     4  10  20  33  52  78 105 129 162 209 253 295
#
# _framework density 20.780989999999999
#
# number of rings (size 3 to 8) (size 9 to 14) (size 15 to 20)
#    0.000    2.500    1.250    1.500    1.750    3.000 
#    0.000    0.625    0.000    4.500    0.000    0.000 
#    0.000    0.000    0.000    0.000    0.000    0.000 
#
# Total GULP energy -396456.686517 kJ/mol
# GULP energy per Si atom -12389.271454 kJ/mol
# Density = 2.073369 g / cm^3
# Si number density = 20.780990 Si / 1000 Ang^3
#
#
#
# Elastic Constant Matrix: (Units=GPa)
#
#
# Indices 1 2 3 4 5 6 
#
# 1 160.2667 7.7896 73.2117 0.0000 0.0000 0.0000
# 2 7.7896 1.9084 -1.9689 0.0000 0.0000 0.0000
# 3 73.2117 -1.9689 172.2140 0.0000 0.0000 0.0000
# 4 0.0000 0.0000 0.0000 -131.9141 0.0000 0.0000
# 5 0.0000 0.0000 0.0000 0.0000 39.8998 0.0000
# 6 0.0000 0.0000 0.0000 0.0000 0.0000 0.3554
#
#
#
# Elastic Compliance Matrix: (Units=1/GPa)
#
#
# Indices 1 2 3 4 5 6 
#
# 1 0.011150 -0.051005 -0.005323 0.000000 0.000000 0.000000
# 2 -0.051005 0.763550 0.030413 0.000000 0.000000 0.000000
# 3 -0.005323 0.030413 0.008418 0.000000 0.000000 0.000000
# 4 0.000000 0.000000 0.000000 -0.007581 0.000000 0.000000
# 5 0.000000 0.000000 0.000000 0.000000 0.025063 0.000000
# 6 0.000000 0.000000 0.000000 0.000000 0.000000 2.813669
#
#
# Mechanical properties :
#
#
# Convention : Reuss Voigt Hill
#
# Bulk Modulus (GPa) = 1.36745 54.71711 28.04228
# Shear Modulus (GPa) = 1.27882 -1.30801 -0.01459
#
# Velocity S-wave (km/s) = 0.78531 -0.79422 -0.08389
# Velocity P-wave (km/s) = 1.21727 5.05435 3.67615
#
# Compressibility (1/GPa) = 0.73128747
#
# Stress axis : x y z
#
# Youngs Moduli (GPa) = 89.68248 1.30967 118.79954
#
# Poissons Ratio (x) = 0.06680 0.63242
# Poissons Ratio (y) = 4.57423 -3.61303
# Poissons Ratio (z) = 0.47742 -0.03983
#
# Static dielectric constant tensor:
#      x y z
#    x 3.974830 0.000000 0.000000 
#    y 0.000000 3.015080 0.000000 
#    z 0.000000 0.000000 3.857180 
# 
# 
# High freq. dielectric constant tensor:
#      x y z
#    x 1.832900 0.000000 0.000000 
#    y 0.000000 1.734240 0.000000 
#    z 0.000000 0.000000 1.830360 
# 
# From -- ./inp_files/35020.got.cif
#   From: 2010.03.12/outbox.cif.g09.slc.cpg/sg69_18_cif.got.tgz:35020.got - 2010.04.10 23:52:46.
