data_PCOD8284328
_publ_section_title
;
Structure prediction by ZEFSAII (Michael W. Deem and Ramdas Pophale) SiO2 
 PCOD8284328
Probable space group: F M M M
;
_chemical_formula_sum "Si O2"
_cell_formula_units_Z 104
_cell_length_a 19.503271
_cell_length_b 11.871255
_cell_length_c 23.574139
_cell_angle_alpha 90.000000
_cell_angle_beta 90.000000
_cell_angle_gamma 90.000000
_cell_volume 5458.080406
_symmetry_space_group_name_H-M "F M M M"
_symmetry_group_IT_number 69
_symmetry_cell_setting 'orthorhombic'
loop_
_space_group_symop_operation_xyz
x,y,z
-x,-y,z
x,-y,-z
-x,y,-z
-x,-y,-z
x,y,-z
-x,y,z
x,-y,z
x,1/2+y,1/2+z
-x,1/2-y,1/2+z
x,1/2-y,1/2-z
-x,1/2+y,1/2-z
-x,1/2-y,1/2-z
x,1/2+y,1/2-z
-x,1/2+y,1/2+z
x,1/2-y,1/2+z
1/2+x,y,1/2+z
1/2-x,-y,1/2+z
1/2+x,-y,1/2-z
1/2-x,y,1/2-z
1/2-x,-y,1/2-z
1/2+x,y,1/2-z
1/2-x,y,1/2+z
1/2+x,-y,1/2+z
1/2+x,1/2+y,z
1/2-x,1/2-y,z
1/2+x,1/2-y,-z
1/2-x,1/2+y,-z
1/2-x,1/2-y,-z
1/2+x,1/2+y,-z
1/2-x,1/2+y,z
1/2+x,1/2-y,z
loop_
_atom_site_type_symbol
_atom_site_label
_atom_site_fract_x
_atom_site_fract_y
_atom_site_fract_z
Si Si1 0.383386 0.500000 0.500000
Si Si2 0.578884 0.780096 0.189686
Si Si3 0.921877 0.869263 0.087531
Si Si4 0.169348 0.258471 0.000000
Si Si5 0.077705 0.500000 0.871587
O O1 0.336956 0.608668 0.500000
O O2 0.424649 0.500000 0.440467
O O3 0.500000 0.809900 0.201178
O O4 0.615018 0.750000 0.250000
O O5 0.585635 0.667030 0.152569
O O6 0.612537 0.887565 0.156215
O O7 0.866442 0.797212 0.053961
O O8 0.000000 0.844564 0.066144
O O9 0.904251 0.000000 0.080811
O O10 0.250000 0.250000 0.000000
O O11 0.000000 0.500000 0.852174
#
# Coordination Sequence:
#
# PCOD8284328 Si02
#       5
#     8  32  32  16  16
#     4  12  23  38  56  82 111 154 194 238 294 356
#     4   9  18  31  51  83 118 150 186 231 286 341
#     4  10  21  38  60  85 115 154 195 238 286 345
#     4  12  26  40  58  83 116 150 193 241 297 353
#     4  10  19  32  54  83 118 149 184 241 293 343
#
# _framework density 19.054317000000001
#
# number of rings (size 3 to 8) (size 9 to 14) (size 15 to 20)
#    0.000    1.846    3.077    1.154    4.308    2.462 
#    0.000    0.000    0.000    0.923    0.000    4.308 
#    0.000    0.000    0.000    0.000    0.000    0.000 
#
# Total GULP energy -322091.154623 kJ/mol
# GULP energy per Si atom -12388.121332 kJ/mol
# Density = 1.901095 g / cm^3
# Si number density = 19.054317 Si / 1000 Ang^3
#
#
#
# Elastic Constant Matrix: (Units=GPa)
#
#
# Indices 1 2 3 4 5 6 
#
# 1 82.6046 47.3224 30.3055 0.0000 0.0000 0.0000
# 2 47.3224 153.4970 60.3569 0.0000 0.0000 0.0000
# 3 30.3055 60.3569 153.6821 0.0000 0.0000 0.0000
# 4 0.0000 0.0000 0.0000 32.0477 0.0000 0.0000
# 5 0.0000 0.0000 0.0000 0.0000 -13.3190 0.0000
# 6 0.0000 0.0000 0.0000 0.0000 0.0000 13.8430
#
#
#
# Elastic Compliance Matrix: (Units=1/GPa)
#
#
# Indices 1 2 3 4 5 6 
#
# 1 0.014934 -0.004075 -0.001344 0.000000 0.000000 0.000000
# 2 -0.004075 0.008817 -0.002659 0.000000 0.000000 0.000000
# 3 -0.001344 -0.002659 0.007816 0.000000 0.000000 0.000000
# 4 0.000000 0.000000 0.000000 0.031203 0.000000 0.000000
# 5 0.000000 0.000000 0.000000 0.000000 -0.075081 0.000000
# 6 0.000000 0.000000 0.000000 0.000000 0.000000 0.072239
#
#
# Mechanical properties :
#
#
# Convention : Reuss Voigt Hill
#
# Bulk Modulus (GPa) = 64.89556 73.97260 69.43408
# Shear Modulus (GPa) = 61.55935 23.30094 42.43015
#
# Velocity S-wave (km/s) = 5.69012 3.50075 4.72402
# Velocity P-wave (km/s) = 8.79216 7.43280 8.14090
#
# Compressibility (1/GPa) = 0.01540937
#
# Stress axis : x y z
#
# Youngs Moduli (GPa) = 66.96235 113.42011 127.93719
#
# Poissons Ratio (x) = 0.46223 0.17199
# Poissons Ratio (y) = 0.27290 0.34019
# Poissons Ratio (z) = 0.09002 0.30159
#
# Static dielectric constant tensor:
#      x y z
#    x 2.901850 0.000000 0.000000 
#    y 0.000000 3.976930 0.000000 
#    z 0.000000 0.000000 3.699830 
# 
# 
# High freq. dielectric constant tensor:
#      x y z
#    x 1.666310 0.000000 0.000000 
#    y 0.000000 1.763540 0.000000 
#    z 0.000000 0.000000 1.754140 
# 
# From -- ./inp_files/9118.got.cif
#   From: 2010.03.12/outbox.cif.g09.slc.cpg/sg69_5_cif.got.tgz:9118.got - 2010.04.10 23:52:46.
