data_PCOD8284206
_publ_section_title
;
Structure prediction by ZEFSAII (Michael W. Deem and Ramdas Pophale) SiO2 
 PCOD8284206
Probable space group: F M M M
;
_chemical_formula_sum "Si O2"
_cell_formula_units_Z 176
_cell_length_a 33.922403
_cell_length_b 13.738647
_cell_length_c 23.195619
_cell_angle_alpha 90.000000
_cell_angle_beta 90.000000
_cell_angle_gamma 90.000000
_cell_volume 10810.269993
_symmetry_space_group_name_H-M "F M M M"
_symmetry_group_IT_number 69
_symmetry_cell_setting 'orthorhombic'
loop_
_space_group_symop_operation_xyz
x,y,z
-x,-y,z
x,-y,-z
-x,y,-z
-x,-y,-z
x,y,-z
-x,y,z
x,-y,z
x,1/2+y,1/2+z
-x,1/2-y,1/2+z
x,1/2-y,1/2-z
-x,1/2+y,1/2-z
-x,1/2-y,1/2-z
x,1/2+y,1/2-z
-x,1/2+y,1/2+z
x,1/2-y,1/2+z
1/2+x,y,1/2+z
1/2-x,-y,1/2+z
1/2+x,-y,1/2-z
1/2-x,y,1/2-z
1/2-x,-y,1/2-z
1/2+x,y,1/2-z
1/2-x,y,1/2+z
1/2+x,-y,1/2+z
1/2+x,1/2+y,z
1/2-x,1/2-y,z
1/2+x,1/2-y,-z
1/2-x,1/2+y,-z
1/2-x,1/2-y,-z
1/2+x,1/2+y,-z
1/2-x,1/2+y,z
1/2+x,1/2-y,z
loop_
_atom_site_type_symbol
_atom_site_label
_atom_site_fract_x
_atom_site_fract_y
_atom_site_fract_z
Si Si1 0.621823 0.296479 0.432924
Si Si2 0.693968 0.750000 0.250000
Si Si3 0.667254 0.109445 0.434265
Si Si4 0.768836 0.110956 0.840557
Si Si5 0.178016 0.388899 0.155907
Si Si6 0.956888 0.890405 0.431620
O O1 0.625564 0.324086 0.500000
O O2 0.631007 0.182579 0.421960
O O3 0.652826 0.364521 0.400262
O O4 0.577654 0.318515 0.409545
O O5 0.721617 0.822219 0.286293
O O6 0.666393 0.683499 0.291338
O O7 0.681868 0.118905 0.500000
O O8 0.704058 0.139058 0.394779
O O9 0.652298 0.000000 0.420988
O O10 0.723883 0.128858 0.859342
O O11 0.775985 0.000000 0.821373
O O12 0.170046 0.500000 0.174503
O O13 0.958061 0.889436 0.500000
O O14 0.000000 0.856219 0.408156
O O15 0.947959 0.000000 0.409818
#
# Coordination Sequence:
#
# PCOD8284206 Si02
#       6
#    32  16  32  32  32  32
#     4  10  19  31  49  72  98 123 148 187 236 282
#     4  12  21  34  48  62  89 126 165 200 236 270
#     4   9  18  32  48  66  90 122 159 193 227 275
#     4  10  20  33  48  64  88 124 161 197 236 274
#     4  11  22  32  46  69  93 120 158 201 237 272
#     4   8  14  26  45  69  97 125 147 171 217 284
#
# _framework density 16.280813999999999
#
# number of rings (size 3 to 8) (size 9 to 14) (size 15 to 20)
#    0.000    2.182    1.818    3.273    0.000    3.273 
#    0.000    3.636    0.000    0.545    0.000    4.455 
#    0.000    0.000    0.000    0.000    0.000    0.000 
#
# Total GULP energy -545420.718528 kJ/mol
# GULP energy per Si atom -12395.925421 kJ/mol
# Density = 1.624376 g / cm^3
# Si number density = 16.280814 Si / 1000 Ang^3
#
#
#
# Elastic Constant Matrix: (Units=GPa)
#
#
# Indices 1 2 3 4 5 6 
#
# 1 100.7952 56.5521 46.1357 0.0000 0.0000 0.0000
# 2 56.5521 101.9099 46.6545 0.0000 0.0000 0.0000
# 3 46.1357 46.6545 62.2291 0.0000 0.0000 0.0000
# 4 0.0000 0.0000 0.0000 26.2179 0.0000 0.0000
# 5 0.0000 0.0000 0.0000 0.0000 7.6741 0.0000
# 6 0.0000 0.0000 0.0000 0.0000 0.0000 23.8718
#
#
#
# Elastic Compliance Matrix: (Units=1/GPa)
#
#
# Indices 1 2 3 4 5 6 
#
# 1 0.016840 -0.005526 -0.008342 0.000000 0.000000 0.000000
# 2 -0.005526 0.016754 -0.008464 0.000000 0.000000 0.000000
# 3 -0.008342 -0.008464 0.028600 0.000000 0.000000 0.000000
# 4 0.000000 0.000000 0.000000 0.038142 0.000000 0.000000
# 5 0.000000 0.000000 0.000000 0.000000 0.130308 0.000000
# 6 0.000000 0.000000 0.000000 0.000000 0.000000 0.041891
#
#
# Mechanical properties :
#
#
# Convention : Reuss Voigt Hill
#
# Bulk Modulus (GPa) = 57.04491 62.62431 59.83461
# Shear Modulus (GPa) = 15.47798 19.25889 17.36843
#
# Velocity S-wave (km/s) = 3.08667 3.44309 3.26974
# Velocity P-wave (km/s) = 6.91502 7.37259 7.14747
#
# Compressibility (1/GPa) = 0.01753005
#
# Stress axis : x y z
#
# Youngs Moduli (GPa) = 59.38389 59.68796 34.96530
#
# Poissons Ratio (x) = 0.32982 0.29167
# Poissons Ratio (y) = 0.32814 0.29595
# Poissons Ratio (z) = 0.49537 0.50520
#
# Static dielectric constant tensor:
#      x y z
#    x 3.145490 0.000000 0.000000 
#    y 0.000000 3.416410 0.000000 
#    z 0.000000 0.000000 3.028350 
# 
# 
# High freq. dielectric constant tensor:
#      x y z
#    x 1.595810 0.000000 0.000000 
#    y 0.000000 1.642400 0.000000 
#    z 0.000000 0.000000 1.606100 
# 
# From -- ./inp_files/37832.got.cif
#   From: 2010.03.12/outbox.cif.g09.slc.cpg/sg69_19_cif.got.tgz:37832.got - 2010.04.10 23:52:46.
