data_PCOD8284236
_publ_section_title
;
Structure prediction by ZEFSAII (Michael W. Deem and Ramdas Pophale) SiO2 
 PCOD8284236
Probable space group: F M M M
;
_chemical_formula_sum "Si O2"
_cell_formula_units_Z 208
_cell_length_a 23.463269
_cell_length_b 27.179141
_cell_length_c 17.587155
_cell_angle_alpha 90.000000
_cell_angle_beta 90.000000
_cell_angle_gamma 90.000000
_cell_volume 11215.530934
_symmetry_space_group_name_H-M "F M M M"
_symmetry_group_IT_number 69
_symmetry_cell_setting 'orthorhombic'
loop_
_space_group_symop_operation_xyz
x,y,z
-x,-y,z
x,-y,-z
-x,y,-z
-x,-y,-z
x,y,-z
-x,y,z
x,-y,z
x,1/2+y,1/2+z
-x,1/2-y,1/2+z
x,1/2-y,1/2-z
-x,1/2+y,1/2-z
-x,1/2-y,1/2-z
x,1/2+y,1/2-z
-x,1/2+y,1/2+z
x,1/2-y,1/2+z
1/2+x,y,1/2+z
1/2-x,-y,1/2+z
1/2+x,-y,1/2-z
1/2-x,y,1/2-z
1/2-x,-y,1/2-z
1/2+x,y,1/2-z
1/2-x,y,1/2+z
1/2+x,-y,1/2+z
1/2+x,1/2+y,z
1/2-x,1/2-y,z
1/2+x,1/2-y,-z
1/2-x,1/2+y,-z
1/2-x,1/2-y,-z
1/2+x,1/2+y,-z
1/2-x,1/2+y,z
1/2+x,1/2-y,z
loop_
_atom_site_type_symbol
_atom_site_label
_atom_site_fract_x
_atom_site_fract_y
_atom_site_fract_z
Si Si1 0.000000 0.442100 0.914957
Si Si2 0.436567 0.865548 0.283109
Si Si3 0.609013 0.557719 0.683395
Si Si4 0.566105 0.806114 0.864235
Si Si5 0.167757 0.872017 0.586152
Si Si6 0.103693 0.801575 0.911143
Si Si7 0.735337 0.197927 0.588614
O O1 0.055255 0.425655 0.868246
O O2 0.000000 0.500000 0.923024
O O3 0.000000 0.418747 0.000000
O O4 0.500000 0.886301 0.277933
O O5 0.396321 0.912398 0.262638
O O6 0.426492 0.820384 0.224403
O O7 0.426962 0.846289 0.368276
O O8 0.614278 0.500000 0.699206
O O9 0.662849 0.578223 0.636350
O O10 0.500000 0.815227 0.890351
O O11 0.610575 0.838609 0.912412
O O12 0.582627 0.749460 0.875744
O O13 0.179180 0.888523 0.500000
O O14 0.222255 0.843441 0.621930
O O15 0.169779 0.812980 0.896308
O O16 0.088157 0.802927 0.000000
O O17 0.750356 0.201352 0.500000
O O18 0.750000 0.250000 0.627753
#
# Coordination Sequence:
#
# PCOD8284236 Si02
#       7
#    16  32  32  32  32  32  32
#     4   9  16  28  50  80 108 133 171 215 252 312
#     4  10  21  36  53  76 110 147 178 217 274 335
#     4  10  20  35  53  77 108 145 180 214 270 329
#     4  10  20  33  49  76 113 149 174 209 271 336
#     4  10  19  31  52  80 112 147 179 217 263 321
#     4  11  21  34  56  78 102 139 187 236 271 313
#     4   9  17  33  53  75 106 142 181 222 269 322
#
# _framework density 18.545711000000001
#
# number of rings (size 3 to 8) (size 9 to 14) (size 15 to 20)
#    0.000    2.077    2.308    1.846    1.077    4.308 
#    0.000    3.077    0.000    2.308    0.000    3.231 
#    0.000    0.000    0.000    0.000    0.000    0.000 
#
# Total GULP energy -644520.354816 kJ/mol
# GULP energy per Si atom -12394.622208 kJ/mol
# Density = 1.850350 g / cm^3
# Si number density = 18.545711 Si / 1000 Ang^3
#
#
#
# Elastic Constant Matrix: (Units=GPa)
#
#
# Indices 1 2 3 4 5 6 
#
# 1 74.3461 33.0054 18.8793 0.0000 0.0000 0.0000
# 2 33.0054 118.7617 43.1561 0.0000 0.0000 0.0000
# 3 18.8793 43.1561 61.1493 0.0000 0.0000 0.0000
# 4 0.0000 0.0000 0.0000 18.8651 0.0000 0.0000
# 5 0.0000 0.0000 0.0000 0.0000 17.8235 0.0000
# 6 0.0000 0.0000 0.0000 0.0000 0.0000 28.3680
#
#
#
# Elastic Compliance Matrix: (Units=1/GPa)
#
#
# Indices 1 2 3 4 5 6 
#
# 1 0.015593 -0.003475 -0.002361 0.000000 0.000000 0.000000
# 2 -0.003475 0.012099 -0.007466 0.000000 0.000000 0.000000
# 3 -0.002361 -0.007466 0.022352 0.000000 0.000000 0.000000
# 4 0.000000 0.000000 0.000000 0.053008 0.000000 0.000000
# 5 0.000000 0.000000 0.000000 0.000000 0.056106 0.000000
# 6 0.000000 0.000000 0.000000 0.000000 0.000000 0.035251
#
#
# Mechanical properties :
#
#
# Convention : Reuss Voigt Hill
#
# Bulk Modulus (GPa) = 42.66544 49.37098 46.01821
# Shear Modulus (GPa) = 21.85060 23.62575 22.73817
#
# Velocity S-wave (km/s) = 3.43622 3.57307 3.50531
# Velocity P-wave (km/s) = 6.22888 6.61071 6.42263
#
# Compressibility (1/GPa) = 0.02343817
#
# Stress axis : x y z
#
# Youngs Moduli (GPa) = 64.13072 82.65091 44.73961
#
# Poissons Ratio (x) = 0.28725 0.10565
# Poissons Ratio (y) = 0.22288 0.33402
# Poissons Ratio (z) = 0.15144 0.61706
#
# Static dielectric constant tensor:
#      x y z
#    x 3.502800 0.000000 0.000000 
#    y 0.000000 3.282080 0.000000 
#    z 0.000000 0.000000 3.222100 
# 
# 
# High freq. dielectric constant tensor:
#      x y z
#    x 1.713680 0.000000 0.000000 
#    y 0.000000 1.705110 0.000000 
#    z 0.000000 0.000000 1.695390 
# 
# From -- ./inp_files/26139.got.cif
#   From: 2010.03.12/outbox.cif.g09.slc.cpg/sg69_14_cif.got.tgz:26139.got - 2010.04.10 23:52:46.
