data_PCOD8284824
_publ_section_title
;
Structure prediction by ZEFSAII (Michael W. Deem and Ramdas Pophale) SiO2 
 PCOD8284824
Probable space group: F M M M
;
_chemical_formula_sum "Si O2"
_cell_formula_units_Z 128
_cell_length_a 19.315103
_cell_length_b 24.149948
_cell_length_c 12.143478
_cell_angle_alpha 90.000000
_cell_angle_beta 90.000000
_cell_angle_gamma 90.000000
_cell_volume 5664.431363
_symmetry_space_group_name_H-M "F M M M"
_symmetry_group_IT_number 69
_symmetry_cell_setting 'orthorhombic'
loop_
_space_group_symop_operation_xyz
x,y,z
-x,-y,z
x,-y,-z
-x,y,-z
-x,-y,-z
x,y,-z
-x,y,z
x,-y,z
x,1/2+y,1/2+z
-x,1/2-y,1/2+z
x,1/2-y,1/2-z
-x,1/2+y,1/2-z
-x,1/2-y,1/2-z
x,1/2+y,1/2-z
-x,1/2+y,1/2+z
x,1/2-y,1/2+z
1/2+x,y,1/2+z
1/2-x,-y,1/2+z
1/2+x,-y,1/2-z
1/2-x,y,1/2-z
1/2-x,-y,1/2-z
1/2+x,y,1/2-z
1/2-x,y,1/2+z
1/2+x,-y,1/2+z
1/2+x,1/2+y,z
1/2-x,1/2-y,z
1/2+x,1/2-y,-z
1/2-x,1/2+y,-z
1/2-x,1/2-y,-z
1/2+x,1/2+y,-z
1/2-x,1/2+y,z
1/2+x,1/2-y,z
loop_
_atom_site_type_symbol
_atom_site_label
_atom_site_fract_x
_atom_site_fract_y
_atom_site_fract_z
Si Si1 0.000000 0.561254 0.770309
Si Si2 0.134849 0.938485 0.126877
Si Si3 0.000000 0.673487 0.874397
Si Si4 0.712538 0.169515 0.369607
Si Si5 0.356050 0.782008 0.868543
O O1 0.065835 0.570238 0.694535
O O2 0.000000 0.606842 0.865761
O O3 0.000000 0.500000 0.824490
O O4 0.189640 0.892117 0.163843
O O5 0.166485 0.000000 0.147402
O O6 0.114579 0.930477 0.000000
O O7 0.069991 0.698167 0.819684
O O8 0.000000 0.691163 0.000000
O O9 0.716861 0.176857 0.500000
O O10 0.658278 0.218130 0.330262
O O11 0.791547 0.179140 0.323567
O O12 0.356509 0.787024 0.000000
#
# Coordination Sequence:
#
# PCOD8284824 Si02
#       5
#    16  32  16  32  32
#     4  10  21  36  51  72 104 134 164 207 252 296
#     4   9  17  31  53  78 102 130 163 202 253 308
#     4  10  20  35  54  73  96 132 176 210 240 288
#     4   8  14  28  51  77 104 132 163 204 255 300
#     4   8  15  29  50  75 103 135 168 205 248 293
#
# _framework density 22.597147
#
# number of rings (size 3 to 8) (size 9 to 14) (size 15 to 20)
#    0.000    3.250    0.000    1.875    0.000    2.750 
#    0.000    8.750    0.000   10.500    0.000    0.000 
#    0.000    0.000    0.000    0.000    0.000    0.000 
#
# Total GULP energy -396786.085150 kJ/mol
# GULP energy per Si atom -12399.565161 kJ/mol
# Density = 2.254572 g / cm^3
# Si number density = 22.597147 Si / 1000 Ang^3
#
#
#
# Elastic Constant Matrix: (Units=GPa)
#
#
# Indices 1 2 3 4 5 6 
#
# 1 197.2857 106.3206 35.0717 0.0000 0.0000 0.0000
# 2 106.3206 186.6139 28.7067 0.0000 0.0000 0.0000
# 3 35.0717 28.7067 41.5649 0.0000 0.0000 0.0000
# 4 0.0000 0.0000 0.0000 36.6075 0.0000 0.0000
# 5 0.0000 0.0000 0.0000 0.0000 27.4698 0.0000
# 6 0.0000 0.0000 0.0000 0.0000 0.0000 34.5960
#
#
#
# Elastic Compliance Matrix: (Units=1/GPa)
#
#
# Indices 1 2 3 4 5 6 
#
# 1 0.007857 -0.003867 -0.003958 0.000000 0.000000 0.000000
# 2 -0.003867 0.007899 -0.002192 0.000000 0.000000 0.000000
# 3 -0.003958 -0.002192 0.028913 0.000000 0.000000 0.000000
# 4 0.000000 0.000000 0.000000 0.027317 0.000000 0.000000
# 5 0.000000 0.000000 0.000000 0.000000 0.036404 0.000000
# 6 0.000000 0.000000 0.000000 0.000000 0.000000 0.028905
#
#
# Mechanical properties :
#
#
# Convention : Reuss Voigt Hill
#
# Bulk Modulus (GPa) = 40.59650 85.07361 62.83506
# Shear Modulus (GPa) = 30.20392 36.75901 33.48146
#
# Velocity S-wave (km/s) = 3.65995 4.03763 3.85342
# Velocity P-wave (km/s) = 5.98871 7.71143 6.90402
#
# Compressibility (1/GPa) = 0.02463266
#
# Stress axis : x y z
#
# Youngs Moduli (GPa) = 127.28132 126.59432 34.58657
#
# Poissons Ratio (x) = 0.48958 0.13691
# Poissons Ratio (y) = 0.49223 0.07583
# Poissons Ratio (z) = 0.50382 0.27755
#
# Static dielectric constant tensor:
#      x y z
#    x 4.396430 0.000000 0.000000 
#    y 0.000000 4.292060 0.000000 
#    z 0.000000 0.000000 4.335800 
# 
# 
# High freq. dielectric constant tensor:
#      x y z
#    x 1.888880 0.000000 0.000000 
#    y 0.000000 1.890060 0.000000 
#    z 0.000000 0.000000 1.926870 
# 
# From -- ./inp_files/16360.got.cif
#   From: 2010.03.12/outbox.cif.g09.slc.cpg/sg69_9_cif.got.tgz:16360.got - 2010.04.10 23:52:46.
