data_PCOD8284089
_publ_section_title
;
Structure prediction by ZEFSAII (Michael W. Deem and Ramdas Pophale) SiO2 
 PCOD8284089
Probable space group: F M M M
;
_chemical_formula_sum "Si O2"
_cell_formula_units_Z 144
_cell_length_a 18.359133
_cell_length_b 26.200688
_cell_length_c 14.230913
_cell_angle_alpha 90.000000
_cell_angle_beta 90.000000
_cell_angle_gamma 90.000000
_cell_volume 6845.381033
_symmetry_space_group_name_H-M "F M M M"
_symmetry_group_IT_number 69
_symmetry_cell_setting 'orthorhombic'
loop_
_space_group_symop_operation_xyz
x,y,z
-x,-y,z
x,-y,-z
-x,y,-z
-x,-y,-z
x,y,-z
-x,y,z
x,-y,z
x,1/2+y,1/2+z
-x,1/2-y,1/2+z
x,1/2-y,1/2-z
-x,1/2+y,1/2-z
-x,1/2-y,1/2-z
x,1/2+y,1/2-z
-x,1/2+y,1/2+z
x,1/2-y,1/2+z
1/2+x,y,1/2+z
1/2-x,-y,1/2+z
1/2+x,-y,1/2-z
1/2-x,y,1/2-z
1/2-x,-y,1/2-z
1/2+x,y,1/2-z
1/2-x,y,1/2+z
1/2+x,-y,1/2+z
1/2+x,1/2+y,z
1/2-x,1/2-y,z
1/2+x,1/2-y,-z
1/2-x,1/2+y,-z
1/2-x,1/2-y,-z
1/2+x,1/2+y,-z
1/2-x,1/2+y,z
1/2+x,1/2-y,z
loop_
_atom_site_type_symbol
_atom_site_label
_atom_site_fract_x
_atom_site_fract_y
_atom_site_fract_z
Si Si1 0.858430 0.840569 0.604221
Si Si2 0.000000 0.807479 0.716859
Si Si3 0.581296 0.555074 0.374941
Si Si4 0.000000 0.379857 0.601308
Si Si5 0.750000 0.127345 0.750000
Si Si6 0.373493 0.057472 0.669617
O O1 0.844039 0.815925 0.500000
O O2 0.929864 0.817290 0.652351
O O3 0.866619 0.901168 0.586207
O O4 0.791602 0.834624 0.677380
O O5 0.000000 0.750000 0.750000
O O6 0.000000 0.841806 0.810290
O O7 0.500000 0.566061 0.411087
O O8 0.608802 0.500000 0.412600
O O9 0.579086 0.554580 0.263320
O O10 0.072895 0.414516 0.597406
O O11 0.000000 0.350425 0.500000
O O12 0.698521 0.091011 0.687617
O O13 0.352227 0.000000 0.635330
#
# Coordination Sequence:
#
# PCOD8284089 Si02
#       6
#    32  16  32  16  16  32
#     4  11  22  41  68  96 129 170 212 257 319 384
#     4  12  25  48  73  93 119 152 215 292 341 378
#     4   9  15  28  55  88 124 162 204 256 306 358
#     4  12  23  39  64  93 126 168 217 274 331 383
#     4  10  21  38  61  96 140 178 205 258 309 374
#     4  10  18  34  58  90 132 179 219 250 300 374
#
# _framework density 21.036082
#
# number of rings (size 3 to 8) (size 9 to 14) (size 15 to 20)
#    0.000    1.556    6.667    1.000    0.000    4.000 
#    0.000    1.667    0.000    1.333    0.000    0.000 
#    0.000    0.000    0.000    0.000    0.000    0.000 
#
# Total GULP energy -445973.275821 kJ/mol
# GULP energy per Si atom -12388.146551 kJ/mol
# Density = 2.098820 g / cm^3
# Si number density = 21.036082 Si / 1000 Ang^3
#
#
#
# Elastic Constant Matrix: (Units=GPa)
#
#
# Indices 1 2 3 4 5 6 
#
# 1 131.8285 30.3758 53.4278 0.0000 0.0000 0.0000
# 2 30.3758 74.5978 32.9532 0.0000 0.0000 0.0000
# 3 53.4278 32.9532 153.6818 0.0000 0.0000 0.0000
# 4 0.0000 0.0000 0.0000 -3.5296 0.0000 0.0000
# 5 0.0000 0.0000 0.0000 0.0000 92.7796 0.0000
# 6 0.0000 0.0000 0.0000 0.0000 0.0000 7.0141
#
#
#
# Elastic Compliance Matrix: (Units=1/GPa)
#
#
# Indices 1 2 3 4 5 6 
#
# 1 0.009263 -0.002595 -0.002664 0.000000 0.000000 0.000000
# 2 -0.002595 0.015535 -0.002429 0.000000 0.000000 0.000000
# 3 -0.002664 -0.002429 0.007954 0.000000 0.000000 0.000000
# 4 0.000000 0.000000 0.000000 -0.283320 0.000000 0.000000
# 5 0.000000 0.000000 0.000000 0.000000 0.010778 0.000000
# 6 0.000000 0.000000 0.000000 0.000000 0.000000 0.142570
#
#
# Mechanical properties :
#
#
# Convention : Reuss Voigt Hill
#
# Bulk Modulus (GPa) = 57.55019 65.95796 61.75408
# Shear Modulus (GPa) = -65.74461 35.47626 -15.13417
#
# Velocity S-wave (km/s) = -5.59653 4.11109 -2.68515
# Velocity P-wave (km/s) = 3.78738 7.34558 4.45047
#
# Compressibility (1/GPa) = 0.01737614
#
# Stress axis : x y z
#
# Youngs Moduli (GPa) = 107.95377 64.37118 125.72498
#
# Poissons Ratio (x) = 0.16705 0.33492
# Poissons Ratio (y) = 0.28016 0.30537
# Poissons Ratio (z) = 0.28758 0.15635
#
# Static dielectric constant tensor:
#      x y z
#    x 3.702290 0.000000 0.000000 
#    y 0.000000 3.669840 0.000000 
#    z 0.000000 0.000000 4.032300 
# 
# 
# High freq. dielectric constant tensor:
#      x y z
#    x 1.814230 0.000000 0.000000 
#    y 0.000000 1.787500 0.000000 
#    z 0.000000 0.000000 1.831270 
# 
# From -- ./inp_files/15621.got.cif
#   From: 2010.03.12/outbox.cif.g09.slc.cpg/sg69_8_cif.got.tgz:15621.got - 2010.04.10 23:52:46.
