data_PCOD8284219
_publ_section_title
;
Structure prediction by ZEFSAII (Michael W. Deem and Ramdas Pophale) SiO2 
 PCOD8284219
Probable space group: F M M M
;
_chemical_formula_sum "Si O2"
_cell_formula_units_Z 176
_cell_length_a 17.951212
_cell_length_b 25.273572
_cell_length_c 20.738813
_cell_angle_alpha 90.000000
_cell_angle_beta 90.000000
_cell_angle_gamma 90.000000
_cell_volume 9409.017972
_symmetry_space_group_name_H-M "F M M M"
_symmetry_group_IT_number 69
_symmetry_cell_setting 'orthorhombic'
loop_
_space_group_symop_operation_xyz
x,y,z
-x,-y,z
x,-y,-z
-x,y,-z
-x,-y,-z
x,y,-z
-x,y,z
x,-y,z
x,1/2+y,1/2+z
-x,1/2-y,1/2+z
x,1/2-y,1/2-z
-x,1/2+y,1/2-z
-x,1/2-y,1/2-z
x,1/2+y,1/2-z
-x,1/2+y,1/2+z
x,1/2-y,1/2+z
1/2+x,y,1/2+z
1/2-x,-y,1/2+z
1/2+x,-y,1/2-z
1/2-x,y,1/2-z
1/2-x,-y,1/2-z
1/2+x,y,1/2-z
1/2-x,y,1/2+z
1/2+x,-y,1/2+z
1/2+x,1/2+y,z
1/2-x,1/2-y,z
1/2+x,1/2-y,-z
1/2-x,1/2+y,-z
1/2-x,1/2-y,-z
1/2+x,1/2+y,-z
1/2-x,1/2+y,z
1/2+x,1/2-y,z
loop_
_atom_site_type_symbol
_atom_site_label
_atom_site_fract_x
_atom_site_fract_y
_atom_site_fract_z
Si Si1 0.582988 0.210183 0.300761
Si Si2 0.584096 0.937054 0.000000
Si Si3 0.088015 0.338801 0.428059
Si Si4 0.661151 0.440388 0.876109
Si Si5 0.916385 0.407371 0.251128
Si Si6 0.666608 0.938010 0.873445
O O1 0.500000 0.233521 0.310951
O O2 0.625296 0.250000 0.250000
O O3 0.619688 0.201917 0.372759
O O4 0.580666 0.153304 0.269443
O O5 0.628415 0.915856 0.061914
O O6 0.500000 0.914437 0.000000
O O7 0.582911 0.000000 0.000000
O O8 0.106948 0.317493 0.500000
O O9 0.120023 0.398095 0.421274
O O10 0.000000 0.344314 0.417122
O O11 0.653076 0.500000 0.904839
O O12 0.627453 0.441051 0.804405
O O13 0.746979 0.423285 0.873501
O O14 0.872983 0.408929 0.184732
O O15 0.000000 0.430400 0.243835
O O16 0.653571 0.000000 0.865571
#
# Coordination Sequence:
#
# PCOD8284219 Si02
#       6
#    32  16  32  32  32  32
#     4   8  15  30  52  74  97 126 163 209 257 306
#     4   9  18  32  48  66  89 126 173 211 246 291
#     4   9  18  31  49  75 104 135 170 208 251 302
#     4  10  20  31  46  70 104 139 173 206 246 301
#     4  10  19  31  50  74  98 128 168 216 263 304
#     4  10  20  32  48  69  98 135 171 208 251 300
#
# _framework density 18.705459999999999
#
# number of rings (size 3 to 8) (size 9 to 14) (size 15 to 20)
#    0.000    2.636    0.000    3.273    1.273    5.091 
#    0.000    0.909    2.000    8.727    0.000    1.273 
#    0.000    0.000    0.000    0.000    0.000    0.000 
#
# Total GULP energy -545278.503564 kJ/mol
# GULP energy per Si atom -12392.693263 kJ/mol
# Density = 1.866289 g / cm^3
# Si number density = 18.705460 Si / 1000 Ang^3
#
#
#
# Elastic Constant Matrix: (Units=GPa)
#
#
# Indices 1 2 3 4 5 6 
#
# 1 81.5988 17.5498 37.2530 0.0000 0.0000 0.0000
# 2 17.5498 48.7475 40.1471 0.0000 0.0000 0.0000
# 3 37.2530 40.1471 157.0523 0.0000 0.0000 0.0000
# 4 0.0000 0.0000 0.0000 19.7060 0.0000 0.0000
# 5 0.0000 0.0000 0.0000 0.0000 24.3147 0.0000
# 6 0.0000 0.0000 0.0000 0.0000 0.0000 7.7636
#
#
#
# Elastic Compliance Matrix: (Units=1/GPa)
#
#
# Indices 1 2 3 4 5 6 
#
# 1 0.014067 -0.002934 -0.002587 0.000000 0.000000 0.000000
# 2 -0.002934 0.026596 -0.006103 0.000000 0.000000 0.000000
# 3 -0.002587 -0.006103 0.008541 0.000000 0.000000 0.000000
# 4 0.000000 0.000000 0.000000 0.050746 0.000000 0.000000
# 5 0.000000 0.000000 0.000000 0.000000 0.041127 0.000000
# 6 0.000000 0.000000 0.000000 0.000000 0.000000 0.128806
#
#
# Mechanical properties :
#
#
# Convention : Reuss Voigt Hill
#
# Bulk Modulus (GPa) = 38.52497 53.03313 45.77905
# Shear Modulus (GPa) = 16.56821 23.18679 19.87750
#
# Velocity S-wave (km/s) = 2.97937 3.52458 3.26338
# Velocity P-wave (km/s) = 5.69876 6.70647 6.22304
#
# Compressibility (1/GPa) = 0.02595719
#
# Stress axis : x y z
#
# Youngs Moduli (GPa) = 71.08815 37.59926 117.08325
#
# Poissons Ratio (x) = 0.11032 0.30286
# Poissons Ratio (y) = 0.20857 0.71454
# Poissons Ratio (z) = 0.18388 0.22946
#
# Static dielectric constant tensor:
#      x y z
#    x 3.433540 0.000000 0.000000 
#    y 0.000000 3.131800 0.000000 
#    z 0.000000 0.000000 3.846960 
# 
# 
# High freq. dielectric constant tensor:
#      x y z
#    x 1.712090 0.000000 0.000000 
#    y 0.000000 1.690380 0.000000 
#    z 0.000000 0.000000 1.739800 
# 
# From -- ./inp_files/23558.got.cif
#   From: 2010.03.12/outbox.cif.g09.slc.cpg/sg69_12_cif.got.tgz:23558.got - 2010.04.10 23:52:46.
