data_PCOD8284424
_publ_section_title
;
Structure prediction by ZEFSAII (Michael W. Deem and Ramdas Pophale) SiO2 
 PCOD8284424
Probable space group: F M M M
;
_chemical_formula_sum "Si O2"
_cell_formula_units_Z 144
_cell_length_a 24.981025
_cell_length_b 23.567222
_cell_length_c 13.773486
_cell_angle_alpha 90.000000
_cell_angle_beta 90.000000
_cell_angle_gamma 90.000000
_cell_volume 8108.910719
_symmetry_space_group_name_H-M "F M M M"
_symmetry_group_IT_number 69
_symmetry_cell_setting 'orthorhombic'
loop_
_space_group_symop_operation_xyz
x,y,z
-x,-y,z
x,-y,-z
-x,y,-z
-x,-y,-z
x,y,-z
-x,y,z
x,-y,z
x,1/2+y,1/2+z
-x,1/2-y,1/2+z
x,1/2-y,1/2-z
-x,1/2+y,1/2-z
-x,1/2-y,1/2-z
x,1/2+y,1/2-z
-x,1/2+y,1/2+z
x,1/2-y,1/2+z
1/2+x,y,1/2+z
1/2-x,-y,1/2+z
1/2+x,-y,1/2-z
1/2-x,y,1/2-z
1/2-x,-y,1/2-z
1/2+x,y,1/2-z
1/2-x,y,1/2+z
1/2+x,-y,1/2+z
1/2+x,1/2+y,z
1/2-x,1/2-y,z
1/2+x,1/2-y,-z
1/2-x,1/2+y,-z
1/2-x,1/2-y,-z
1/2+x,1/2+y,-z
1/2-x,1/2+y,z
1/2+x,1/2-y,z
loop_
_atom_site_type_symbol
_atom_site_label
_atom_site_fract_x
_atom_site_fract_y
_atom_site_fract_z
Si Si1 0.000000 0.936162 0.115073
Si Si2 0.387247 0.891900 0.613485
Si Si3 0.319849 0.289374 0.887036
Si Si4 0.687679 0.938213 0.230652
Si Si5 0.206745 0.168020 0.614626
O O1 0.947368 0.902910 0.151616
O O2 0.000000 0.000000 0.157575
O O3 0.000000 0.938384 0.000000
O O4 0.381035 0.907163 0.500000
O O5 0.373508 0.825378 0.632833
O O6 0.345788 0.931521 0.670240
O O7 0.268714 0.326078 0.848811
O O8 0.323049 0.225205 0.844616
O O9 0.308716 0.280088 0.000000
O O10 0.750000 0.938667 0.250000
O O11 0.675653 0.886020 0.158409
O O12 0.671715 0.000000 0.185828
O O13 0.203002 0.160711 0.500000
#
# Coordination Sequence:
#
# PCOD8284424 Si02
#       5
#    16  32  32  32  32
#     4   9  18  32  52  73  97 139 180 207 255 313
#     4  10  19  34  52  75 104 132 167 215 256 299
#     4   8  15  29  51  72  94 128 166 206 252 294
#     4  11  22  31  44  72 103 136 171 201 254 313
#     4   9  17  32  49  70  99 131 169 203 242 305
#
# _framework density 17.758243
#
# number of rings (size 3 to 8) (size 9 to 14) (size 15 to 20)
#    0.000    2.556    2.222    2.000    0.000    2.667 
#    0.000    2.222    0.000    2.667    0.000    2.333 
#    0.000    2.667    0.000    0.000    0.000    0.000 
#
# Total GULP energy -446082.804614 kJ/mol
# GULP energy per Si atom -12391.189017 kJ/mol
# Density = 1.771782 g / cm^3
# Si number density = 17.758243 Si / 1000 Ang^3
#
#
#
# Elastic Constant Matrix: (Units=GPa)
#
#
# Indices 1 2 3 4 5 6 
#
# 1 120.8861 63.8648 30.2917 0.0000 0.0000 0.0000
# 2 63.8648 176.2179 42.9433 0.0000 0.0000 0.0000
# 3 30.2917 42.9433 36.0758 0.0000 0.0000 0.0000
# 4 0.0000 0.0000 0.0000 20.3376 0.0000 0.0000
# 5 0.0000 0.0000 0.0000 0.0000 17.6059 0.0000
# 6 0.0000 0.0000 0.0000 0.0000 0.0000 66.4264
#
#
#
# Elastic Compliance Matrix: (Units=1/GPa)
#
#
# Indices 1 2 3 4 5 6 
#
# 1 0.011202 -0.002490 -0.006442 0.000000 0.000000 0.000000
# 2 -0.002490 0.008547 -0.008083 0.000000 0.000000 0.000000
# 3 -0.006442 -0.008083 0.042751 0.000000 0.000000 0.000000
# 4 0.000000 0.000000 0.000000 0.049170 0.000000 0.000000
# 5 0.000000 0.000000 0.000000 0.000000 0.056799 0.000000
# 6 0.000000 0.000000 0.000000 0.000000 0.000000 0.015054
#
#
# Mechanical properties :
#
#
# Convention : Reuss Voigt Hill
#
# Bulk Modulus (GPa) = 35.12584 67.48657 51.30621
# Shear Modulus (GPa) = 22.02223 33.94599 27.98411
#
# Velocity S-wave (km/s) = 3.52534 4.37688 3.97399
# Velocity P-wave (km/s) = 6.03272 7.97673 7.07184
#
# Compressibility (1/GPa) = 0.02846907
#
# Stress axis : x y z
#
# Youngs Moduli (GPa) = 89.27038 116.99924 23.39145
#
# Poissons Ratio (x) = 0.29132 0.15069
# Poissons Ratio (y) = 0.22228 0.18908
# Poissons Ratio (z) = 0.57508 0.94575
#
# Static dielectric constant tensor:
#      x y z
#    x 3.159880 0.000000 0.000000 
#    y 0.000000 3.787830 0.000000 
#    z 0.000000 0.000000 3.101250 
# 
# 
# High freq. dielectric constant tensor:
#      x y z
#    x 1.641250 0.000000 0.000000 
#    y 0.000000 1.705040 0.000000 
#    z 0.000000 0.000000 1.668530 
# 
# From -- ./inp_files/26846.got.cif
#   From: 2010.03.12/outbox.cif.g09.slc.cpg/sg69_14_cif.got.tgz:26846.got - 2010.04.10 23:52:46.
