data_PCOD8284682
_publ_section_title
;
Structure prediction by ZEFSAII (Michael W. Deem and Ramdas Pophale) SiO2 
 PCOD8284682
Probable space group: F M M M
;
_chemical_formula_sum "Si O2"
_cell_formula_units_Z 192
_cell_length_a 24.631842
_cell_length_b 21.978030
_cell_length_c 17.900056
_cell_angle_alpha 90.000000
_cell_angle_beta 90.000000
_cell_angle_gamma 90.000000
_cell_volume 9690.362904
_symmetry_space_group_name_H-M "F M M M"
_symmetry_group_IT_number 69
_symmetry_cell_setting 'orthorhombic'
loop_
_space_group_symop_operation_xyz
x,y,z
-x,-y,z
x,-y,-z
-x,y,-z
-x,-y,-z
x,y,-z
-x,y,z
x,-y,z
x,1/2+y,1/2+z
-x,1/2-y,1/2+z
x,1/2-y,1/2-z
-x,1/2+y,1/2-z
-x,1/2-y,1/2-z
x,1/2+y,1/2-z
-x,1/2+y,1/2+z
x,1/2-y,1/2+z
1/2+x,y,1/2+z
1/2-x,-y,1/2+z
1/2+x,-y,1/2-z
1/2-x,y,1/2-z
1/2-x,-y,1/2-z
1/2+x,y,1/2-z
1/2-x,y,1/2+z
1/2+x,-y,1/2+z
1/2+x,1/2+y,z
1/2-x,1/2-y,z
1/2+x,1/2-y,-z
1/2-x,1/2+y,-z
1/2-x,1/2-y,-z
1/2+x,1/2+y,-z
1/2-x,1/2+y,z
1/2+x,1/2-y,z
loop_
_atom_site_type_symbol
_atom_site_label
_atom_site_fract_x
_atom_site_fract_y
_atom_site_fract_z
Si Si1 0.258400 0.428532 0.163269
Si Si2 0.561212 0.232014 0.585050
Si Si3 0.062207 0.358256 0.154581
Si Si4 0.136067 0.382519 0.412427
Si Si5 0.438594 0.432494 0.796745
Si Si6 0.848822 0.567256 0.914983
O O1 0.270147 0.500000 0.146691
O O2 0.250000 0.415908 0.250000
O O3 0.305475 0.386679 0.127461
O O4 0.202644 0.405189 0.127549
O O5 0.566111 0.256635 0.500000
O O6 0.500000 0.204987 0.597000
O O7 0.570306 0.286125 0.644609
O O8 0.608046 0.183008 0.600244
O O9 0.080507 0.381532 0.236745
O O10 0.098481 0.391304 0.093215
O O11 0.000000 0.377178 0.140168
O O12 0.140975 0.398509 0.500000
O O13 0.097372 0.430682 0.371327
O O14 0.500000 0.419833 0.821070
O O15 0.432080 0.500000 0.761427
O O16 0.861974 0.500000 0.883525
O O17 0.831531 0.564274 0.000000
#
# Coordination Sequence:
#
# PCOD8284682 Si02
#       6
#    32  32  32  32  32  32
#     4  10  21  38  59  81 109 147 189 234 286 343
#     4   9  19  36  58  86 119 154 194 239 283 332
#     4  10  20  36  58  81 112 155 196 233 282 342
#     4  11  22  37  59  85 114 152 195 234 280 342
#     4  10  21  35  53  82 117 150 189 240 292 341
#     4  10  20  33  52  81 112 139 178 236 292 341
#
# _framework density 19.813499
#
# number of rings (size 3 to 8) (size 9 to 14) (size 15 to 20)
#    0.000    2.000    0.000    3.500    0.000    7.000 
#    0.000    5.000    0.000    4.000    0.000    0.000 
#    0.000    0.000    0.000    0.000    0.000    0.000 
#
# Total GULP energy -595052.438271 kJ/mol
# GULP energy per Si atom -12396.925797 kJ/mol
# Density = 1.976840 g / cm^3
# Si number density = 19.813499 Si / 1000 Ang^3
#
#
#
# Elastic Constant Matrix: (Units=GPa)
#
#
# Indices 1 2 3 4 5 6 
#
# 1 124.9448 52.7397 59.9378 0.0000 0.0000 0.0000
# 2 52.7397 87.7287 44.6848 0.0000 0.0000 0.0000
# 3 59.9378 44.6848 113.6248 0.0000 0.0000 0.0000
# 4 0.0000 0.0000 0.0000 30.2380 0.0000 0.0000
# 5 0.0000 0.0000 0.0000 0.0000 37.6053 0.0000
# 6 0.0000 0.0000 0.0000 0.0000 0.0000 27.3535
#
#
#
# Elastic Compliance Matrix: (Units=1/GPa)
#
#
# Indices 1 2 3 4 5 6 
#
# 1 0.012315 -0.005120 -0.004483 0.000000 0.000000 0.000000
# 2 -0.005120 0.016383 -0.003742 0.000000 0.000000 0.000000
# 3 -0.004483 -0.003742 0.012637 0.000000 0.000000 0.000000
# 4 0.000000 0.000000 0.000000 0.033071 0.000000 0.000000
# 5 0.000000 0.000000 0.000000 0.000000 0.026592 0.000000
# 6 0.000000 0.000000 0.000000 0.000000 0.000000 0.036558
#
#
# Mechanical properties :
#
#
# Convention : Reuss Voigt Hill
#
# Bulk Modulus (GPa) = 68.28036 71.22478 69.75257
# Shear Modulus (GPa) = 29.56338 30.30175 29.93257
#
# Velocity S-wave (km/s) = 3.86694 3.91493 3.89101
# Velocity P-wave (km/s) = 7.38065 7.51407 7.44766
#
# Compressibility (1/GPa) = 0.01464550
#
# Stress axis : x y z
#
# Youngs Moduli (GPa) = 81.20012 61.03952 79.13192
#
# Poissons Ratio (x) = 0.31254 0.35473
# Poissons Ratio (y) = 0.41576 0.29610
# Poissons Ratio (z) = 0.36400 0.22840
#
# Static dielectric constant tensor:
#      x y z
#    x 3.649950 0.000000 0.000000 
#    y 0.000000 3.440360 0.000000 
#    z 0.000000 0.000000 3.618250 
# 
# 
# High freq. dielectric constant tensor:
#      x y z
#    x 1.776200 0.000000 0.000000 
#    y 0.000000 1.751990 0.000000 
#    z 0.000000 0.000000 1.778180 
# 
# From -- ./inp_files/32838.got.cif
#   From: 2010.03.12/outbox.cif.g09.slc.cpg/sg69_17_cif.got.tgz:32838.got - 2010.04.10 23:52:46.
