data_PCOD8284789
_publ_section_title
;
Structure prediction by ZEFSAII (Michael W. Deem and Ramdas Pophale) SiO2 
 PCOD8284789
Probable space group: F M M M
;
_chemical_formula_sum "Si O2"
_cell_formula_units_Z 168
_cell_length_a 21.274766
_cell_length_b 24.496317
_cell_length_c 14.603387
_cell_angle_alpha 90.000000
_cell_angle_beta 90.000000
_cell_angle_gamma 90.000000
_cell_volume 7610.604962
_symmetry_space_group_name_H-M "F M M M"
_symmetry_group_IT_number 69
_symmetry_cell_setting 'orthorhombic'
loop_
_space_group_symop_operation_xyz
x,y,z
-x,-y,z
x,-y,-z
-x,y,-z
-x,-y,-z
x,y,-z
-x,y,z
x,-y,z
x,1/2+y,1/2+z
-x,1/2-y,1/2+z
x,1/2-y,1/2-z
-x,1/2+y,1/2-z
-x,1/2-y,1/2-z
x,1/2+y,1/2-z
-x,1/2+y,1/2+z
x,1/2-y,1/2+z
1/2+x,y,1/2+z
1/2-x,-y,1/2+z
1/2+x,-y,1/2-z
1/2-x,y,1/2-z
1/2-x,-y,1/2-z
1/2+x,y,1/2-z
1/2-x,y,1/2+z
1/2+x,-y,1/2+z
1/2+x,1/2+y,z
1/2-x,1/2-y,z
1/2+x,1/2-y,-z
1/2-x,1/2+y,-z
1/2-x,1/2-y,-z
1/2+x,1/2+y,-z
1/2-x,1/2+y,z
1/2+x,1/2-y,z
loop_
_atom_site_type_symbol
_atom_site_label
_atom_site_fract_x
_atom_site_fract_y
_atom_site_fract_z
Si Si1 0.427888 0.789025 0.104434
Si Si2 0.250000 0.750000 0.750000
Si Si3 0.571342 0.611230 0.733345
Si Si4 0.737195 0.167175 0.897812
Si Si5 0.306030 0.560286 0.677928
Si Si6 0.117763 0.673269 0.395601
O O1 0.500000 0.773643 0.117984
O O2 0.408452 0.840469 0.164685
O O3 0.389464 0.735898 0.135711
O O4 0.412058 0.804900 0.000000
O O5 0.288958 0.790146 0.820285
O O6 0.500000 0.590041 0.713395
O O7 0.623802 0.564214 0.721901
O O8 0.573579 0.633879 0.836471
O O9 0.702757 0.108672 0.895062
O O10 0.810387 0.157129 0.878319
O O11 0.726227 0.191766 0.000000
O O12 0.301254 0.500000 0.632523
O O13 0.250000 0.567648 0.750000
O O14 0.096256 0.665523 0.500000
#
# Coordination Sequence:
#
# PCOD8284789 Si02
#       6
#    32   8  32  32  32  32
#     4   9  19  34  54  86 130 173 211 255 318 399
#     4  12  22  40  58  98 146 172 202 274 338 398
#     4  11  22  38  64  95 125 166 218 274 333 389
#     4  11  24  40  65 100 135 177 222 271 331 395
#     4  11  24  46  69  89 124 176 228 281 334 391
#     4  10  20  34  55  91 132 173 216 258 313 391
#
# _framework density 22.074459999999998
#
# number of rings (size 3 to 8) (size 9 to 14) (size 15 to 20)
#    0.000    1.524    2.857    1.429    5.333    4.190 
#    0.000    0.000    0.000    0.571    0.000    5.333 
#    0.000    0.000    0.000    0.000    0.000    0.000 
#
# Total GULP energy -520542.505363 kJ/mol
# GULP energy per Si atom -12393.869175 kJ/mol
# Density = 2.202422 g / cm^3
# Si number density = 22.074460 Si / 1000 Ang^3
#
#
#
# Elastic Constant Matrix: (Units=GPa)
#
#
# Indices 1 2 3 4 5 6 
#
# 1 126.3587 41.8424 6.6472 0.0000 0.0000 0.0000
# 2 41.8424 115.0086 48.6924 0.0000 0.0000 0.0000
# 3 6.6472 48.6924 101.4467 0.0000 0.0000 0.0000
# 4 0.0000 0.0000 0.0000 7.8883 0.0000 0.0000
# 5 0.0000 0.0000 0.0000 0.0000 18.5109 0.0000
# 6 0.0000 0.0000 0.0000 0.0000 0.0000 10.8232
#
#
#
# Elastic Compliance Matrix: (Units=1/GPa)
#
#
# Indices 1 2 3 4 5 6 
#
# 1 0.009122 -0.003848 0.001249 0.000000 0.000000 0.000000
# 2 -0.003848 0.012536 -0.005765 0.000000 0.000000 0.000000
# 3 0.001249 -0.005765 0.012542 0.000000 0.000000 0.000000
# 4 0.000000 0.000000 0.000000 0.126770 0.000000 0.000000
# 5 0.000000 0.000000 0.000000 0.000000 0.054022 0.000000
# 6 0.000000 0.000000 0.000000 0.000000 0.000000 0.092394
#
#
# Mechanical properties :
#
#
# Convention : Reuss Voigt Hill
#
# Bulk Modulus (GPa) = 57.22867 59.68644 58.45756
# Shear Modulus (GPa) = 15.15437 23.81995 19.48716
#
# Velocity S-wave (km/s) = 2.62298 3.28849 2.97441
# Velocity P-wave (km/s) = 5.92916 6.44331 6.19157
#
# Compressibility (1/GPa) = 0.01747376
#
# Stress axis : x y z
#
# Youngs Moduli (GPa) = 109.62011 79.77313 79.72902
#
# Poissons Ratio (x) = 0.30695 -0.09959
# Poissons Ratio (y) = 0.42179 0.45961
# Poissons Ratio (z) = -0.13693 0.45987
#
# Static dielectric constant tensor:
#      x y z
#    x 4.042910 0.000000 0.000000 
#    y 0.000000 3.821550 0.000000 
#    z 0.000000 0.000000 4.001190 
# 
# 
# High freq. dielectric constant tensor:
#      x y z
#    x 1.884600 0.000000 0.000000 
#    y 0.000000 1.836230 0.000000 
#    z 0.000000 0.000000 1.864080 
# 
# From -- ./inp_files/16856.got.cif
#   From: 2010.03.12/outbox.cif.g09.slc.cpg/sg69_9_cif.got.tgz:16856.got - 2010.04.10 23:52:46.
