data_PCOD8284091
_publ_section_title
;
Structure prediction by ZEFSAII (Michael W. Deem and Ramdas Pophale) SiO2 
 PCOD8284091
Probable space group: F M M M
;
_chemical_formula_sum "Si O2"
_cell_formula_units_Z 160
_cell_length_a 22.614453
_cell_length_b 23.758979
_cell_length_c 14.862013
_cell_angle_alpha 90.000000
_cell_angle_beta 90.000000
_cell_angle_gamma 90.000000
_cell_volume 7985.304802
_symmetry_space_group_name_H-M "F M M M"
_symmetry_group_IT_number 69
_symmetry_cell_setting 'orthorhombic'
loop_
_space_group_symop_operation_xyz
x,y,z
-x,-y,z
x,-y,-z
-x,y,-z
-x,-y,-z
x,y,-z
-x,y,z
x,-y,z
x,1/2+y,1/2+z
-x,1/2-y,1/2+z
x,1/2-y,1/2-z
-x,1/2+y,1/2-z
-x,1/2-y,1/2-z
x,1/2+y,1/2-z
-x,1/2+y,1/2+z
x,1/2-y,1/2+z
1/2+x,y,1/2+z
1/2-x,-y,1/2+z
1/2+x,-y,1/2-z
1/2-x,y,1/2-z
1/2-x,-y,1/2-z
1/2+x,y,1/2-z
1/2-x,y,1/2+z
1/2+x,-y,1/2+z
1/2+x,1/2+y,z
1/2-x,1/2-y,z
1/2+x,1/2-y,-z
1/2-x,1/2+y,-z
1/2-x,1/2-y,-z
1/2+x,1/2+y,-z
1/2-x,1/2+y,z
1/2+x,1/2-y,z
loop_
_atom_site_type_symbol
_atom_site_label
_atom_site_fract_x
_atom_site_fract_y
_atom_site_fract_z
Si Si1 0.126690 0.936580 0.755218
Si Si2 0.000000 0.814501 0.897965
Si Si3 0.880823 0.262597 0.394039
Si Si4 0.302050 0.864997 0.604269
Si Si5 0.500000 0.062309 0.663108
Si Si6 0.163953 0.143132 0.394768
O O1 0.166816 0.911785 0.835039
O O2 0.057544 0.933258 0.775674
O O3 0.133622 0.906525 0.659712
O O4 0.148541 0.000000 0.743116
O O5 0.941666 0.787565 0.851131
O O6 0.000000 0.882878 0.900696
O O7 0.000000 0.794477 0.000000
O O8 0.887554 0.257886 0.500000
O O9 0.828144 0.304587 0.369421
O O10 0.863432 0.201403 0.356125
O O11 0.314570 0.880457 0.500000
O O12 0.233268 0.860044 0.625123
O O13 0.500000 0.000000 0.613600
O O14 0.150272 0.135337 0.500000
#
# Coordination Sequence:
#
# PCOD8284091 Si02
#       6
#    32  16  32  32  16  32
#     4  11  24  41  60  86 118 154 203 253 293 347
#     4  10  18  34  61  90 121 157 193 242 300 355
#     4   9  18  34  57  88 121 150 190 239 290 356
#     4  10  20  37  61  88 121 156 190 237 301 363
#     4  10  22  40  58  81 119 159 195 244 299 351
#     4  10  22  39  60  85 117 160 200 242 295 345
#
# _framework density 20.036805000000001
#
# number of rings (size 3 to 8) (size 9 to 14) (size 15 to 20)
#    0.000    2.000    2.000    1.200    0.000    6.600 
#    0.000    8.500    0.000    1.800    0.000    0.000 
#    0.000    0.000    0.000    0.000    0.000    0.000 
#
# Total GULP energy -495856.562459 kJ/mol
# GULP energy per Si atom -12396.414061 kJ/mol
# Density = 1.999120 g / cm^3
# Si number density = 20.036805 Si / 1000 Ang^3
#
#
#
# Elastic Constant Matrix: (Units=GPa)
#
#
# Indices 1 2 3 4 5 6 
#
# 1 114.1858 64.3254 27.2232 0.0000 0.0000 0.0000
# 2 64.3254 180.0854 52.8706 0.0000 0.0000 0.0000
# 3 27.2232 52.8706 49.4933 0.0000 0.0000 0.0000
# 4 0.0000 0.0000 0.0000 34.6803 0.0000 0.0000
# 5 0.0000 0.0000 0.0000 0.0000 18.4802 0.0000
# 6 0.0000 0.0000 0.0000 0.0000 0.0000 -798.4964
#
#
#
# Elastic Compliance Matrix: (Units=1/GPa)
#
#
# Indices 1 2 3 4 5 6 
#
# 1 0.011215 -0.003198 -0.002753 0.000000 0.000000 0.000000
# 2 -0.003198 0.009002 -0.007857 0.000000 0.000000 0.000000
# 3 -0.002753 -0.007857 0.030112 0.000000 0.000000 0.000000
# 4 0.000000 0.000000 0.000000 0.028835 0.000000 0.000000
# 5 0.000000 0.000000 0.000000 0.000000 0.054112 0.000000
# 6 0.000000 0.000000 0.000000 0.000000 0.000000 -0.001252
#
#
# Mechanical properties :
#
#
# Convention : Reuss Voigt Hill
#
# Bulk Modulus (GPa) = 44.02609 70.28922 57.15766
# Shear Modulus (GPa) = 29.90225 -135.77750 -52.93763
#
# Velocity S-wave (km/s) = 3.86731 -8.24082 -5.14563
# Velocity P-wave (km/s) = 6.47779 7.44258 2.59136
#
# Compressibility (1/GPa) = 0.02271380
#
# Stress axis : x y z
#
# Youngs Moduli (GPa) = 89.16260 111.08655 33.20895
#
# Poissons Ratio (x) = 0.35524 0.09142
# Poissons Ratio (y) = 0.28513 0.26093
# Poissons Ratio (z) = 0.24545 0.87284
#
# Static dielectric constant tensor:
#      x y z
#    x 3.967650 0.000000 0.000000 
#    y 0.000000 3.903910 0.000000 
#    z 0.000000 0.000000 3.369090 
# 
# 
# High freq. dielectric constant tensor:
#      x y z
#    x 1.796550 0.000000 0.000000 
#    y 0.000000 1.787180 0.000000 
#    z 0.000000 0.000000 1.762240 
# 
# From -- ./inp_files/17773.got.cif
#   From: 2010.03.12/outbox.cif.g09.slc.cpg/sg69_9_cif.got.tgz:17773.got - 2010.04.10 23:52:46.
