data_PCOD8284213
_publ_section_title
;
Structure prediction by ZEFSAII (Michael W. Deem and Ramdas Pophale) SiO2 
 PCOD8284213
Probable space group: F M M M
;
_chemical_formula_sum "Si O2"
_cell_formula_units_Z 144
_cell_length_a 22.801506
_cell_length_b 17.187818
_cell_length_c 21.034558
_cell_angle_alpha 90.000000
_cell_angle_beta 90.000000
_cell_angle_gamma 90.000000
_cell_volume 8243.614402
_symmetry_space_group_name_H-M "F M M M"
_symmetry_group_IT_number 69
_symmetry_cell_setting 'orthorhombic'
loop_
_space_group_symop_operation_xyz
x,y,z
-x,-y,z
x,-y,-z
-x,y,-z
-x,-y,-z
x,y,-z
-x,y,z
x,-y,z
x,1/2+y,1/2+z
-x,1/2-y,1/2+z
x,1/2-y,1/2-z
-x,1/2+y,1/2-z
-x,1/2-y,1/2-z
x,1/2+y,1/2-z
-x,1/2+y,1/2+z
x,1/2-y,1/2+z
1/2+x,y,1/2+z
1/2-x,-y,1/2+z
1/2+x,-y,1/2-z
1/2-x,y,1/2-z
1/2-x,-y,1/2-z
1/2+x,y,1/2-z
1/2-x,y,1/2+z
1/2+x,-y,1/2+z
1/2+x,1/2+y,z
1/2-x,1/2-y,z
1/2+x,1/2-y,-z
1/2-x,1/2+y,-z
1/2-x,1/2-y,-z
1/2+x,1/2+y,-z
1/2-x,1/2+y,z
1/2+x,1/2-y,z
loop_
_atom_site_type_symbol
_atom_site_label
_atom_site_fract_x
_atom_site_fract_y
_atom_site_fract_z
Si Si1 0.567520 0.588099 0.252046
Si Si2 0.750309 0.585926 0.674194
Si Si3 0.067158 0.407875 0.500000
Si Si4 0.875164 0.358480 0.629420
Si Si5 0.344813 0.704034 0.686394
O O1 0.500000 0.598337 0.269426
O O2 0.588810 0.500000 0.264220
O O3 0.576574 0.609511 0.178411
O O4 0.603384 0.644966 0.297194
O O5 0.729225 0.500000 0.651634
O O6 0.750000 0.588473 0.750000
O O7 0.813842 0.599857 0.644598
O O8 0.707044 0.655165 0.652589
O O9 0.068093 0.500000 0.500000
O O10 0.102568 0.376281 0.440229
O O11 0.000000 0.377382 0.500000
O O12 0.868330 0.265465 0.635264
O O13 0.323169 0.750000 0.750000
#
# Coordination Sequence:
#
# PCOD8284213 Si02
#       5
#    32  32  16  32  32
#     4  10  19  31  49  76 108 139 175 220 275 335
#     4  11  19  31  53  79 110 145 179 220 274 333
#     4  11  24  42  59  76 107 151 193 230 266 314
#     4  11  22  34  54  79 106 142 185 227 271 322
#     4  10  20  31  50  77 111 139 172 220 273 330
#
# _framework density 17.468066
#
# number of rings (size 3 to 8) (size 9 to 14) (size 15 to 20)
#    0.000    1.444    4.444    4.000    0.000    6.667 
#    0.000    2.222    0.000    0.000    0.000    2.333 
#    0.000    5.333    0.000    0.000    0.000    0.000 
#
# Total GULP energy -446381.883640 kJ/mol
# GULP energy per Si atom -12399.496768 kJ/mol
# Density = 1.742831 g / cm^3
# Si number density = 17.468066 Si / 1000 Ang^3
#
#
#
# Elastic Constant Matrix: (Units=GPa)
#
#
# Indices 1 2 3 4 5 6 
#
# 1 95.6682 55.7430 43.6049 0.0000 0.0000 0.0000
# 2 55.7430 148.7495 33.8947 0.0000 0.0000 0.0000
# 3 43.6049 33.8947 81.4407 0.0000 0.0000 0.0000
# 4 0.0000 0.0000 0.0000 21.5075 0.0000 0.0000
# 5 0.0000 0.0000 0.0000 0.0000 23.6911 0.0000
# 6 0.0000 0.0000 0.0000 0.0000 0.0000 24.8442
#
#
#
# Elastic Compliance Matrix: (Units=1/GPa)
#
#
# Indices 1 2 3 4 5 6 
#
# 1 0.016175 -0.004516 -0.006781 0.000000 0.000000 0.000000
# 2 -0.004516 0.008688 -0.001198 0.000000 0.000000 0.000000
# 3 -0.006781 -0.001198 0.016408 0.000000 0.000000 0.000000
# 4 0.000000 0.000000 0.000000 0.046495 0.000000 0.000000
# 5 0.000000 0.000000 0.000000 0.000000 0.042210 0.000000
# 6 0.000000 0.000000 0.000000 0.000000 0.000000 0.040251
#
#
# Mechanical properties :
#
#
# Convention : Reuss Voigt Hill
#
# Bulk Modulus (GPa) = 61.42023 65.81597 63.61810
# Shear Modulus (GPa) = 24.91975 26.84959 25.88467
#
# Velocity S-wave (km/s) = 3.78112 3.92480 3.85363
# Velocity P-wave (km/s) = 7.36887 7.63534 7.50329
#
# Compressibility (1/GPa) = 0.01628128
#
# Stress axis : x y z
#
# Youngs Moduli (GPa) = 61.82390 115.09956 60.94631
#
# Poissons Ratio (x) = 0.51984 0.41326
# Poissons Ratio (y) = 0.27922 0.07300
# Poissons Ratio (z) = 0.41921 0.13786
#
# Static dielectric constant tensor:
#      x y z
#    x 3.890890 0.000000 0.000000 
#    y 0.000000 3.777840 0.000000 
#    z 0.000000 0.000000 2.779770 
# 
# 
# High freq. dielectric constant tensor:
#      x y z
#    x 1.686030 0.000000 0.000000 
#    y 0.000000 1.701910 0.000000 
#    z 0.000000 0.000000 1.615120 
# 
# From -- ./inp_files/22889.got.cif
#   From: 2010.03.12/outbox.cif.g09.slc.cpg/sg69_12_cif.got.tgz:22889.got - 2010.04.10 23:52:46.
