data_PCOD8284112
_publ_section_title
;
Structure prediction by ZEFSAII (Michael W. Deem and Ramdas Pophale) SiO2 
 PCOD8284112
Probable space group: F M M M
;
_chemical_formula_sum "Si O2"
_cell_formula_units_Z 208
_cell_length_a 28.618621
_cell_length_b 26.228176
_cell_length_c 17.560471
_cell_angle_alpha 90.000000
_cell_angle_beta 90.000000
_cell_angle_gamma 90.000000
_cell_volume 13181.139391
_symmetry_space_group_name_H-M "F M M M"
_symmetry_group_IT_number 69
_symmetry_cell_setting 'orthorhombic'
loop_
_space_group_symop_operation_xyz
x,y,z
-x,-y,z
x,-y,-z
-x,y,-z
-x,-y,-z
x,y,-z
-x,y,z
x,-y,z
x,1/2+y,1/2+z
-x,1/2-y,1/2+z
x,1/2-y,1/2-z
-x,1/2+y,1/2-z
-x,1/2-y,1/2-z
x,1/2+y,1/2-z
-x,1/2+y,1/2+z
x,1/2-y,1/2+z
1/2+x,y,1/2+z
1/2-x,-y,1/2+z
1/2+x,-y,1/2-z
1/2-x,y,1/2-z
1/2-x,-y,1/2-z
1/2+x,y,1/2-z
1/2-x,y,1/2+z
1/2+x,-y,1/2+z
1/2+x,1/2+y,z
1/2-x,1/2-y,z
1/2+x,1/2-y,-z
1/2-x,1/2+y,-z
1/2-x,1/2-y,-z
1/2+x,1/2+y,-z
1/2-x,1/2+y,z
1/2+x,1/2-y,z
loop_
_atom_site_type_symbol
_atom_site_label
_atom_site_fract_x
_atom_site_fract_y
_atom_site_fract_z
Si Si1 0.000000 0.556250 0.589179
Si Si2 0.643805 0.650055 0.158401
Si Si3 0.948498 0.684917 0.415220
Si Si4 0.602802 0.441564 0.910740
Si Si5 0.948508 0.694346 0.915750
Si Si6 0.303830 0.739081 0.087816
Si Si7 0.870516 0.797647 0.697120
O O1 0.050570 0.582212 0.609866
O O2 0.000000 0.500000 0.627301
O O3 0.000000 0.547427 0.500000
O O4 0.591997 0.671135 0.142592
O O5 0.642759 0.590608 0.133886
O O6 0.683073 0.681195 0.111627
O O7 0.651603 0.658223 0.248895
O O8 0.936017 0.664213 0.500000
O O9 0.951197 0.745228 0.417289
O O10 0.000000 0.662693 0.391707
O O11 0.605927 0.500000 0.883664
O O12 0.613006 0.437576 0.000000
O O13 0.913209 0.677097 0.849378
O O14 0.000000 0.672114 0.896816
O O15 0.932599 0.674993 0.000000
O O16 0.250000 0.750000 0.103356
O O17 0.331923 0.779893 0.137033
O O18 0.317321 0.746989 0.000000
O O19 0.886230 0.750000 0.750000
#
# Coordination Sequence:
#
# PCOD8284112 Si02
#       7
#    16  32  32  32  32  32  32
#     4   7  12  24  40  58  81 114 155 193 224 251
#     4  11  20  28  42  67  92 118 147 184 228 270
#     4   9  16  24  37  57  82 118 156 183 208 247
#     4   9  17  29  44  62  88 123 161 194 222 260
#     4   9  16  27  40  53  79 119 155 184 211 247
#     4  10  20  34  50  65  84 114 150 186 221 269
#     4  10  19  28  40  61  88 115 142 178 222 264
#
# _framework density 15.780124000000001
#
# number of rings (size 3 to 8) (size 9 to 14) (size 15 to 20)
#    0.000    2.538    3.077    3.692    1.077    3.692 
#    0.000    0.000    0.000    0.000    0.000    2.154 
#    0.000    3.692    0.000    1.692    0.000    0.000 
#
# Total GULP energy -644228.815063 kJ/mol
# GULP energy per Si atom -12389.015674 kJ/mol
# Density = 1.574421 g / cm^3
# Si number density = 15.780124 Si / 1000 Ang^3
#
#
#
# Elastic Constant Matrix: (Units=GPa)
#
#
# Indices 1 2 3 4 5 6 
#
# 1 73.8528 29.0839 43.8041 0.0000 0.0000 0.0000
# 2 29.0839 58.8865 28.3334 0.0000 0.0000 0.0000
# 3 43.8041 28.3334 95.0256 0.0000 0.0000 0.0000
# 4 0.0000 0.0000 0.0000 16.7706 0.0000 0.0000
# 5 0.0000 0.0000 0.0000 0.0000 10.6894 0.0000
# 6 0.0000 0.0000 0.0000 0.0000 0.0000 17.2056
#
#
#
# Elastic Compliance Matrix: (Units=1/GPa)
#
#
# Indices 1 2 3 4 5 6 
#
# 1 0.020589 -0.006540 -0.007541 0.000000 0.000000 0.000000
# 2 -0.006540 0.021904 -0.003516 0.000000 0.000000 0.000000
# 3 -0.007541 -0.003516 0.015048 0.000000 0.000000 0.000000
# 4 0.000000 0.000000 0.000000 0.059628 0.000000 0.000000
# 5 0.000000 0.000000 0.000000 0.000000 0.093551 0.000000
# 6 0.000000 0.000000 0.000000 0.000000 0.000000 0.058121
#
#
# Mechanical properties :
#
#
# Convention : Reuss Voigt Hill
#
# Bulk Modulus (GPa) = 44.75047 47.80085 46.27566
# Shear Modulus (GPa) = 16.05224 17.36936 16.71080
#
# Velocity S-wave (km/s) = 3.19289 3.32130 3.25772
# Velocity P-wave (km/s) = 6.48175 6.71309 6.59843
#
# Compressibility (1/GPa) = 0.02234614
#
# Stress axis : x y z
#
# Youngs Moduli (GPa) = 48.57026 45.65405 66.45464
#
# Poissons Ratio (x) = 0.29860 0.50111
# Poissons Ratio (y) = 0.31767 0.23365
# Poissons Ratio (z) = 0.36625 0.16052
#
# Static dielectric constant tensor:
#      x y z
#    x 3.011480 0.000000 0.000000 
#    y 0.000000 2.873980 0.000000 
#    z 0.000000 0.000000 3.125020 
# 
# 
# High freq. dielectric constant tensor:
#      x y z
#    x 1.592190 0.000000 0.000000 
#    y 0.000000 1.565240 0.000000 
#    z 0.000000 0.000000 1.592260 
# 
# From -- ./inp_files/28057.got.cif
#   From: 2010.03.12/outbox.cif.g09.slc.cpg/sg69_15_cif.got.tgz:28057.got - 2010.04.10 23:52:46.
