data_PCOD8284659
_publ_section_title
;
Structure prediction by ZEFSAII (Michael W. Deem and Ramdas Pophale) SiO2 
 PCOD8284659
Probable space group: F M M M
;
_chemical_formula_sum "Si O2"
_cell_formula_units_Z 160
_cell_length_a 16.999935
_cell_length_b 24.166289
_cell_length_c 20.863867
_cell_angle_alpha 90.000000
_cell_angle_beta 90.000000
_cell_angle_gamma 90.000000
_cell_volume 8571.405300
_symmetry_space_group_name_H-M "F M M M"
_symmetry_group_IT_number 69
_symmetry_cell_setting 'orthorhombic'
loop_
_space_group_symop_operation_xyz
x,y,z
-x,-y,z
x,-y,-z
-x,y,-z
-x,-y,-z
x,y,-z
-x,y,z
x,-y,z
x,1/2+y,1/2+z
-x,1/2-y,1/2+z
x,1/2-y,1/2-z
-x,1/2+y,1/2-z
-x,1/2-y,1/2-z
x,1/2+y,1/2-z
-x,1/2+y,1/2+z
x,1/2-y,1/2+z
1/2+x,y,1/2+z
1/2-x,-y,1/2+z
1/2+x,-y,1/2-z
1/2-x,y,1/2-z
1/2-x,-y,1/2-z
1/2+x,y,1/2-z
1/2-x,y,1/2+z
1/2+x,-y,1/2+z
1/2+x,1/2+y,z
1/2-x,1/2-y,z
1/2+x,1/2-y,-z
1/2-x,1/2+y,-z
1/2-x,1/2-y,-z
1/2+x,1/2+y,-z
1/2-x,1/2+y,z
1/2+x,1/2-y,z
loop_
_atom_site_type_symbol
_atom_site_label
_atom_site_fract_x
_atom_site_fract_y
_atom_site_fract_z
Si Si1 0.658840 0.264395 0.159221
Si Si2 0.586531 0.151502 0.425363
Si Si3 0.091136 0.667103 0.226936
Si Si4 0.787077 0.436534 0.573265
Si Si5 0.314577 0.437103 0.304806
O O1 0.750000 0.250000 0.157734
O O2 0.631711 0.292299 0.093388
O O3 0.642818 0.310064 0.214202
O O4 0.608362 0.208527 0.167964
O O5 0.575244 0.153577 0.500000
O O6 0.500000 0.147445 0.392413
O O7 0.636880 0.098100 0.405266
O O8 0.114247 0.604740 0.208491
O O9 0.000000 0.668491 0.245261
O O10 0.759824 0.422001 0.500000
O O11 0.813071 0.500000 0.578183
O O12 0.718293 0.423685 0.624014
O O13 0.346764 0.500000 0.302504
O O14 0.250000 0.428271 0.250000
#
# Coordination Sequence:
#
# PCOD8284659 Si02
#       5
#    32  32  32  32  32
#     4  11  21  35  54  74 101 136 175 210 251 313
#     4  10  20  33  50  75 107 137 169 215 264 307
#     4  11  21  34  54  77 102 132 167 211 262 312
#     4   9  18  33  53  76 104 141 180 214 255 312
#     4  10  20  35  55  78 104 134 171 216 261 307
#
# _framework density 18.666717999999999
#
# number of rings (size 3 to 8) (size 9 to 14) (size 15 to 20)
#    0.000    1.800    0.000    7.200    0.000    1.200 
#    0.000    3.000    0.000    7.800    0.000    2.800 
#    0.000    0.000    0.000    0.000    0.000    0.000 
#
# Total GULP energy -495923.055404 kJ/mol
# GULP energy per Si atom -12398.076385 kJ/mol
# Density = 1.862423 g / cm^3
# Si number density = 18.666718 Si / 1000 Ang^3
#
#
#
# Elastic Constant Matrix: (Units=GPa)
#
#
# Indices 1 2 3 4 5 6 
#
# 1 97.2852 48.4527 7.1692 0.0000 0.0000 0.0000
# 2 48.4527 114.8194 24.6991 0.0000 0.0000 0.0000
# 3 7.1692 24.6991 25.7272 0.0000 0.0000 0.0000
# 4 0.0000 0.0000 0.0000 29.6606 0.0000 0.0000
# 5 0.0000 0.0000 0.0000 0.0000 17.1922 0.0000
# 6 0.0000 0.0000 0.0000 0.0000 0.0000 20.8628
#
#
#
# Elastic Compliance Matrix: (Units=1/GPa)
#
#
# Indices 1 2 3 4 5 6 
#
# 1 0.013103 -0.005978 0.002088 0.000000 0.000000 0.000000
# 2 -0.005978 0.013704 -0.011490 0.000000 0.000000 0.000000
# 3 0.002088 -0.011490 0.049319 0.000000 0.000000 0.000000
# 4 0.000000 0.000000 0.000000 0.033715 0.000000 0.000000
# 5 0.000000 0.000000 0.000000 0.000000 0.058166 0.000000
# 6 0.000000 0.000000 0.000000 0.000000 0.000000 0.047932
#
#
# Mechanical properties :
#
#
# Convention : Reuss Voigt Hill
#
# Bulk Modulus (GPa) = 22.04374 44.27487 33.15930
# Shear Modulus (GPa) = 19.09705 24.04383 21.57044
#
# Velocity S-wave (km/s) = 3.20199 3.59285 3.40303
# Velocity P-wave (km/s) = 5.05026 6.40168 5.76570
#
# Compressibility (1/GPa) = 0.04536435
#
# Stress axis : x y z
#
# Youngs Moduli (GPa) = 76.32012 72.97205 20.27631
#
# Poissons Ratio (x) = 0.43626 -0.04234
# Poissons Ratio (y) = 0.45627 0.23298
# Poissons Ratio (z) = -0.15938 0.83847
#
# Static dielectric constant tensor:
#      x y z
#    x 3.452630 0.000000 0.000000 
#    y 0.000000 3.694270 0.000000 
#    z 0.000000 0.000000 3.575230 
# 
# 
# High freq. dielectric constant tensor:
#      x y z
#    x 1.708960 0.000000 0.000000 
#    y 0.000000 1.735260 0.000000 
#    z 0.000000 0.000000 1.721810 
# 
# From -- ./inp_files/17683.got.cif
#   From: 2010.03.12/outbox.cif.g09.slc.cpg/sg69_9_cif.got.tgz:17683.got - 2010.04.10 23:52:46.
