data_PCOD8284077
_publ_section_title
;
Structure prediction by ZEFSAII (Michael W. Deem and Ramdas Pophale) SiO2 
 PCOD8284077
Probable space group: F M M M
;
_chemical_formula_sum "Si O2"
_cell_formula_units_Z 192
_cell_length_a 18.933792
_cell_length_b 27.244943
_cell_length_c 19.676325
_cell_angle_alpha 90.000000
_cell_angle_beta 90.000000
_cell_angle_gamma 90.000000
_cell_volume 10150.033900
_symmetry_space_group_name_H-M "F M M M"
_symmetry_group_IT_number 69
_symmetry_cell_setting 'orthorhombic'
loop_
_space_group_symop_operation_xyz
x,y,z
-x,-y,z
x,-y,-z
-x,y,-z
-x,-y,-z
x,y,-z
-x,y,z
x,-y,z
x,1/2+y,1/2+z
-x,1/2-y,1/2+z
x,1/2-y,1/2-z
-x,1/2+y,1/2-z
-x,1/2-y,1/2-z
x,1/2+y,1/2-z
-x,1/2+y,1/2+z
x,1/2-y,1/2+z
1/2+x,y,1/2+z
1/2-x,-y,1/2+z
1/2+x,-y,1/2-z
1/2-x,y,1/2-z
1/2-x,-y,1/2-z
1/2+x,y,1/2-z
1/2-x,y,1/2+z
1/2+x,-y,1/2+z
1/2+x,1/2+y,z
1/2-x,1/2-y,z
1/2+x,1/2-y,-z
1/2-x,1/2+y,-z
1/2-x,1/2-y,-z
1/2+x,1/2+y,-z
1/2-x,1/2+y,z
1/2+x,1/2-y,z
loop_
_atom_site_type_symbol
_atom_site_label
_atom_site_fract_x
_atom_site_fract_y
_atom_site_fract_z
Si Si1 0.077926 0.500000 0.419455
Si Si2 0.190174 0.190594 0.079335
Si Si3 0.317482 0.082713 0.580128
Si Si4 0.083082 0.945429 0.500000
Si Si5 0.297424 0.056868 0.185916
Si Si6 0.081903 0.385922 0.132535
Si Si7 0.348772 0.793779 0.080552
O O1 0.072093 0.500000 0.500000
O O2 0.119456 0.547993 0.394262
O O3 0.000000 0.500000 0.386535
O O4 0.156516 0.138048 0.097862
O O5 0.270793 0.190187 0.105070
O O6 0.143128 0.236726 0.105780
O O7 0.195549 0.199661 0.000000
O O8 0.302144 0.076779 0.500000
O O9 0.245536 0.068309 0.617283
O O10 0.106579 0.915395 0.565771
O O11 0.000000 0.950975 0.500000
O O12 0.117693 0.000000 0.500000
O O13 0.250000 0.071364 0.250000
O O14 0.368102 0.090520 0.190563
O O15 0.319970 0.000000 0.188144
O O16 0.095813 0.327960 0.120723
O O17 0.000000 0.393562 0.151681
O O18 0.361898 0.799986 0.000000
#
# Coordination Sequence:
#
# PCOD8284077 Si02
#       7
#    16  32  32  16  32  32  32
#     4   9  18  32  51  78 105 125 169 242 304 340
#     4   8  15  26  47  78 111 144 184 231 272 316
#     4  10  18  33  58  84 105 139 186 234 289 336
#     4   9  18  30  46  77 116 152 182 214 265 329
#     4  11  24  39  55  79 116 149 191 238 278 342
#     4  11  21  34  54  81 119 156 185 224 279 344
#     4   9  15  27  47  78 117 149 181 225 272 323
#
# _framework density 18.916191999999999
#
# number of rings (size 3 to 8) (size 9 to 14) (size 15 to 20)
#    0.000    2.333    3.333    1.500    1.167    1.000 
#    0.000    1.667    0.000    5.000    0.000    1.167 
#    0.000    0.000    0.000    0.000    0.000    0.000 
#
# Total GULP energy -594886.788969 kJ/mol
# GULP energy per Si atom -12393.474770 kJ/mol
# Density = 1.887314 g / cm^3
# Si number density = 18.916192 Si / 1000 Ang^3
#
#
#
# Elastic Constant Matrix: (Units=GPa)
#
#
# Indices 1 2 3 4 5 6 
#
# 1 119.3759 66.0747 28.6388 0.0000 0.0000 0.0000
# 2 66.0747 160.0851 26.2400 0.0000 0.0000 0.0000
# 3 28.6388 26.2400 38.3458 0.0000 0.0000 0.0000
# 4 0.0000 0.0000 0.0000 15.6687 0.0000 0.0000
# 5 0.0000 0.0000 0.0000 0.0000 18.6369 0.0000
# 6 0.0000 0.0000 0.0000 0.0000 0.0000 31.7960
#
#
#
# Elastic Compliance Matrix: (Units=1/GPa)
#
#
# Indices 1 2 3 4 5 6 
#
# 1 0.012079 -0.003950 -0.006318 0.000000 0.000000 0.000000
# 2 -0.003950 0.008328 -0.002749 0.000000 0.000000 0.000000
# 3 -0.006318 -0.002749 0.032678 0.000000 0.000000 0.000000
# 4 0.000000 0.000000 0.000000 0.063822 0.000000 0.000000
# 5 0.000000 0.000000 0.000000 0.000000 0.053657 0.000000
# 6 0.000000 0.000000 0.000000 0.000000 0.000000 0.031451
#
#
# Mechanical properties :
#
#
# Convention : Reuss Voigt Hill
#
# Bulk Modulus (GPa) = 36.96697 62.19042 49.57869
# Shear Modulus (GPa) = 21.09132 26.34386 23.71759
#
# Velocity S-wave (km/s) = 3.34277 3.73589 3.54478
# Velocity P-wave (km/s) = 5.87228 7.18034 6.55900
#
# Compressibility (1/GPa) = 0.02705118
#
# Stress axis : x y z
#
# Youngs Moduli (GPa) = 82.78851 120.08399 30.60147
#
# Poissons Ratio (x) = 0.47432 0.19335
# Poissons Ratio (y) = 0.32701 0.08411
# Poissons Ratio (z) = 0.52308 0.33005
#
# Static dielectric constant tensor:
#      x y z
#    x 3.286250 0.000000 0.000000 
#    y 0.000000 3.899040 0.000000 
#    z 0.000000 0.000000 3.010430 
# 
# 
# High freq. dielectric constant tensor:
#      x y z
#    x 1.712200 0.000000 0.000000 
#    y 0.000000 1.756080 0.000000 
#    z 0.000000 0.000000 1.678630 
# 
# From -- ./inp_files/32173.got.cif
#   From: 2010.03.12/outbox.cif.g09.slc.cpg/sg69_17_cif.got.tgz:32173.got - 2010.04.10 23:52:46.
