data_PCOD8284780
_publ_section_title
;
Structure prediction by ZEFSAII (Michael W. Deem and Ramdas Pophale) SiO2 
 PCOD8284780
Probable space group: F M M M
;
_chemical_formula_sum "Si O2"
_cell_formula_units_Z 160
_cell_length_a 18.227335
_cell_length_b 27.022776
_cell_length_c 17.731045
_cell_angle_alpha 90.000000
_cell_angle_beta 90.000000
_cell_angle_gamma 90.000000
_cell_volume 8733.482791
_symmetry_space_group_name_H-M "F M M M"
_symmetry_group_IT_number 69
_symmetry_cell_setting 'orthorhombic'
loop_
_space_group_symop_operation_xyz
x,y,z
-x,-y,z
x,-y,-z
-x,y,-z
-x,-y,-z
x,y,-z
-x,y,z
x,-y,z
x,1/2+y,1/2+z
-x,1/2-y,1/2+z
x,1/2-y,1/2-z
-x,1/2+y,1/2-z
-x,1/2-y,1/2-z
x,1/2+y,1/2-z
-x,1/2+y,1/2+z
x,1/2-y,1/2+z
1/2+x,y,1/2+z
1/2-x,-y,1/2+z
1/2+x,-y,1/2-z
1/2-x,y,1/2-z
1/2-x,-y,1/2-z
1/2+x,y,1/2-z
1/2-x,y,1/2+z
1/2+x,-y,1/2+z
1/2+x,1/2+y,z
1/2-x,1/2-y,z
1/2+x,1/2-y,-z
1/2-x,1/2+y,-z
1/2-x,1/2-y,-z
1/2+x,1/2+y,-z
1/2-x,1/2+y,z
1/2+x,1/2-y,z
loop_
_atom_site_type_symbol
_atom_site_label
_atom_site_fract_x
_atom_site_fract_y
_atom_site_fract_z
Si Si1 0.584859 0.197541 0.842835
Si Si2 0.671377 0.146499 0.715774
Si Si3 0.675984 0.780199 0.587011
Si Si4 0.914662 0.095991 0.418519
Si Si5 0.413342 0.555532 0.263364
O O1 0.500000 0.200944 0.820154
O O2 0.630037 0.187501 0.766435
O O3 0.608182 0.248120 0.882671
O O4 0.600073 0.153537 0.901786
O O5 0.750000 0.133948 0.750000
O O6 0.680069 0.168233 0.631993
O O7 0.626133 0.095181 0.709619
O O8 0.664005 0.793554 0.500000
O O9 0.750000 0.750000 0.601166
O O10 0.877676 0.082963 0.500000
O O11 0.883837 0.063080 0.349449
O O12 0.000000 0.085028 0.425434
O O13 0.500000 0.566028 0.259975
O O14 0.394309 0.500000 0.236837
#
# Coordination Sequence:
#
# PCOD8284780 Si02
#       5
#    32  32  32  32  32
#     4  10  20  34  55  81 110 147 188 229 271 326
#     4  11  21  36  57  80 108 147 187 228 274 337
#     4  11  23  37  54  80 115 151 184 223 276 332
#     4   8  14  26  46  75 109 140 172 216 274 331
#     4   9  19  35  54  78 107 141 187 240 285 326
#
# _framework density 18.320295999999999
#
# number of rings (size 3 to 8) (size 9 to 14) (size 15 to 20)
#    0.000    2.200    2.000    3.000    0.000    4.400 
#    0.000    2.000    0.000    0.600    0.000    1.400 
#    0.000    0.000    0.000    0.000    0.000    0.000 
#
# Total GULP energy -495915.478828 kJ/mol
# GULP energy per Si atom -12397.886971 kJ/mol
# Density = 1.827860 g / cm^3
# Si number density = 18.320296 Si / 1000 Ang^3
#
#
#
# Elastic Constant Matrix: (Units=GPa)
#
#
# Indices 1 2 3 4 5 6 
#
# 1 70.4004 36.9975 29.8427 0.0000 0.0000 0.0000
# 2 36.9975 117.9724 56.0926 0.0000 0.0000 0.0000
# 3 29.8427 56.0926 103.6968 0.0000 0.0000 0.0000
# 4 0.0000 0.0000 0.0000 13.1792 0.0000 0.0000
# 5 0.0000 0.0000 0.0000 0.0000 19.2052 0.0000
# 6 0.0000 0.0000 0.0000 0.0000 0.0000 25.1302
#
#
#
# Elastic Compliance Matrix: (Units=1/GPa)
#
#
# Indices 1 2 3 4 5 6 
#
# 1 0.017590 -0.004186 -0.002798 0.000000 0.000000 0.000000
# 2 -0.004186 0.012408 -0.005507 0.000000 0.000000 0.000000
# 3 -0.002798 -0.005507 0.013428 0.000000 0.000000 0.000000
# 4 0.000000 0.000000 0.000000 0.075877 0.000000 0.000000
# 5 0.000000 0.000000 0.000000 0.000000 0.052069 0.000000
# 6 0.000000 0.000000 0.000000 0.000000 0.000000 0.039793
#
#
# Mechanical properties :
#
#
# Convention : Reuss Voigt Hill
#
# Bulk Modulus (GPa) = 54.21920 59.77058 56.99489
# Shear Modulus (GPa) = 20.63597 22.77871 21.70734
#
# Velocity S-wave (km/s) = 3.35983 3.52996 3.44594
# Velocity P-wave (km/s) = 6.68660 7.02213 6.85642
#
# Compressibility (1/GPa) = 0.01844365
#
# Stress axis : x y z
#
# Youngs Moduli (GPa) = 56.84892 80.59422 74.47364
#
# Poissons Ratio (x) = 0.33739 0.20837
# Poissons Ratio (y) = 0.23799 0.41013
# Poissons Ratio (z) = 0.15906 0.44383
#
# Static dielectric constant tensor:
#      x y z
#    x 3.281600 0.000000 0.000000 
#    y 0.000000 3.288220 0.000000 
#    z 0.000000 0.000000 3.460530 
# 
# 
# High freq. dielectric constant tensor:
#      x y z
#    x 1.694710 0.000000 0.000000 
#    y 0.000000 1.696660 0.000000 
#    z 0.000000 0.000000 1.697770 
# 
# From -- ./inp_files/23105.got.cif
#   From: 2010.03.12/outbox.cif.g09.slc.cpg/sg69_12_cif.got.tgz:23105.got - 2010.04.10 23:52:46.
