data_PCOD8284456
_publ_section_title
;
Structure prediction by ZEFSAII (Michael W. Deem and Ramdas Pophale) SiO2 
 PCOD8284456
Probable space group: F M M M
;
_chemical_formula_sum "Si O2"
_cell_formula_units_Z 176
_cell_length_a 27.158539
_cell_length_b 18.566202
_cell_length_c 17.737677
_cell_angle_alpha 90.000000
_cell_angle_beta 90.000000
_cell_angle_gamma 90.000000
_cell_volume 8943.885212
_symmetry_space_group_name_H-M "F M M M"
_symmetry_group_IT_number 69
_symmetry_cell_setting 'orthorhombic'
loop_
_space_group_symop_operation_xyz
x,y,z
-x,-y,z
x,-y,-z
-x,y,-z
-x,-y,-z
x,y,-z
-x,y,z
x,-y,z
x,1/2+y,1/2+z
-x,1/2-y,1/2+z
x,1/2-y,1/2-z
-x,1/2+y,1/2-z
-x,1/2-y,1/2-z
x,1/2+y,1/2-z
-x,1/2+y,1/2+z
x,1/2-y,1/2+z
1/2+x,y,1/2+z
1/2-x,-y,1/2+z
1/2+x,-y,1/2-z
1/2-x,y,1/2-z
1/2-x,-y,1/2-z
1/2+x,y,1/2-z
1/2-x,y,1/2+z
1/2+x,-y,1/2+z
1/2+x,1/2+y,z
1/2-x,1/2-y,z
1/2+x,1/2-y,-z
1/2-x,1/2+y,-z
1/2-x,1/2-y,-z
1/2+x,1/2+y,-z
1/2-x,1/2+y,z
1/2+x,1/2-y,z
loop_
_atom_site_type_symbol
_atom_site_label
_atom_site_fract_x
_atom_site_fract_y
_atom_site_fract_z
Si Si1 0.221732 0.323713 0.319725
Si Si2 0.944460 0.085897 0.500000
Si Si3 0.279052 0.419268 0.412843
Si Si4 0.392043 0.325350 0.215219
Si Si5 0.058097 0.582240 0.413119
Si Si6 0.383187 0.085363 0.141653
O O1 0.250000 0.362456 0.250000
O O2 0.250000 0.250000 0.335036
O O3 0.230429 0.373910 0.392354
O O4 0.164617 0.311769 0.305758
O O5 0.917489 0.115851 0.574602
O O6 0.000000 0.115447 0.500000
O O7 0.943102 0.000000 0.500000
O O8 0.290657 0.414595 0.500000
O O9 0.268211 0.500000 0.387070
O O10 0.327373 0.388235 0.371350
O O11 0.413147 0.250000 0.250000
O O12 0.418418 0.356184 0.140508
O O13 0.401161 0.385058 0.278731
O O14 0.072751 0.599136 0.500000
O O15 0.075351 0.500000 0.392841
O O16 0.000000 0.587375 0.402843
O O17 0.386349 0.000000 0.143150
#
# Coordination Sequence:
#
# PCOD8284456 Si02
#       6
#    32  16  32  32  32  32
#     4  11  21  39  55  78 117 163 204 237 288 356
#     4   9  18  34  56  82 113 146 187 237 291 368
#     4  10  20  34  54  81 113 152 200 251 300 354
#     4  12  23  38  62  93 125 160 206 259 306 369
#     4   9  21  45  72  94 122 162 207 260 320 375
#     4  10  19  34  56  82 114 158 201 244 305 366
#
# _framework density 19.678248
#
# number of rings (size 3 to 8) (size 9 to 14) (size 15 to 20)
#    0.000    1.727    4.545    1.091    0.000    4.000 
#    1.636    3.636    0.000    0.000    0.000    0.000 
#    0.000    0.000    0.000    0.000    0.000    0.000 
#
# Total GULP energy -545360.614610 kJ/mol
# GULP energy per Si atom -12394.559423 kJ/mol
# Density = 1.963346 g / cm^3
# Si number density = 19.678248 Si / 1000 Ang^3
#
#
#
# Elastic Constant Matrix: (Units=GPa)
#
#
# Indices 1 2 3 4 5 6 
#
# 1 69.8282 45.7398 49.5733 0.0000 0.0000 0.0000
# 2 45.7398 76.2461 56.0454 0.0000 0.0000 0.0000
# 3 49.5733 56.0454 108.2626 0.0000 0.0000 0.0000
# 4 0.0000 0.0000 0.0000 31.1576 0.0000 0.0000
# 5 0.0000 0.0000 0.0000 0.0000 36.0347 0.0000
# 6 0.0000 0.0000 0.0000 0.0000 0.0000 22.7734
#
#
#
# Elastic Compliance Matrix: (Units=1/GPa)
#
#
# Indices 1 2 3 4 5 6 
#
# 1 0.025910 -0.011013 -0.006163 0.000000 0.000000 0.000000
# 2 -0.011013 0.025853 -0.008341 0.000000 0.000000 0.000000
# 3 -0.006163 -0.008341 0.016377 0.000000 0.000000 0.000000
# 4 0.000000 0.000000 0.000000 0.032095 0.000000 0.000000
# 5 0.000000 0.000000 0.000000 0.000000 0.027751 0.000000
# 6 0.000000 0.000000 0.000000 0.000000 0.000000 0.043911
#
#
# Mechanical properties :
#
#
# Convention : Reuss Voigt Hill
#
# Bulk Modulus (GPa) = 58.45847 61.89487 60.17667
# Shear Modulus (GPa) = 21.86916 24.85839 23.36378
#
# Velocity S-wave (km/s) = 3.33729 3.55807 3.44944
# Velocity P-wave (km/s) = 6.67994 6.95712 6.81994
#
# Compressibility (1/GPa) = 0.01710616
#
# Stress axis : x y z
#
# Youngs Moduli (GPa) = 38.59483 38.67996 61.06293
#
# Poissons Ratio (x) = 0.42600 0.37632
# Poissons Ratio (y) = 0.42506 0.50930
# Poissons Ratio (z) = 0.23785 0.32262
#
# Static dielectric constant tensor:
#      x y z
#    x 3.489820 0.000000 0.000000 
#    y 0.000000 3.474340 0.000000 
#    z 0.000000 0.000000 3.735450 
# 
# 
# High freq. dielectric constant tensor:
#      x y z
#    x 1.755150 0.000000 0.000000 
#    y 0.000000 1.753800 0.000000 
#    z 0.000000 0.000000 1.775400 
# 
# From -- ./inp_files/26723.got.cif
#   From: 2010.03.12/outbox.cif.g09.slc.cpg/sg69_14_cif.got.tgz:26723.got - 2010.04.10 23:52:46.
