data_PCOD8284392
_publ_section_title
;
Structure prediction by ZEFSAII (Michael W. Deem and Ramdas Pophale) SiO2 
 PCOD8284392
Probable space group: F M M M
;
_chemical_formula_sum "Si O2"
_cell_formula_units_Z 160
_cell_length_a 18.819206
_cell_length_b 18.570192
_cell_length_c 24.851611
_cell_angle_alpha 90.000000
_cell_angle_beta 90.000000
_cell_angle_gamma 90.000000
_cell_volume 8685.048284
_symmetry_space_group_name_H-M "F M M M"
_symmetry_group_IT_number 69
_symmetry_cell_setting 'orthorhombic'
loop_
_space_group_symop_operation_xyz
x,y,z
-x,-y,z
x,-y,-z
-x,y,-z
-x,-y,-z
x,y,-z
-x,y,z
x,-y,z
x,1/2+y,1/2+z
-x,1/2-y,1/2+z
x,1/2-y,1/2-z
-x,1/2+y,1/2-z
-x,1/2-y,1/2-z
x,1/2+y,1/2-z
-x,1/2+y,1/2+z
x,1/2-y,1/2+z
1/2+x,y,1/2+z
1/2-x,-y,1/2+z
1/2+x,-y,1/2-z
1/2-x,y,1/2-z
1/2-x,-y,1/2-z
1/2+x,y,1/2-z
1/2-x,y,1/2+z
1/2+x,-y,1/2+z
1/2+x,1/2+y,z
1/2-x,1/2-y,z
1/2+x,1/2-y,-z
1/2-x,1/2+y,-z
1/2-x,1/2-y,-z
1/2+x,1/2+y,-z
1/2-x,1/2+y,z
1/2+x,1/2-y,z
loop_
_atom_site_type_symbol
_atom_site_label
_atom_site_fract_x
_atom_site_fract_y
_atom_site_fract_z
Si Si1 0.081437 0.185137 0.355185
Si Si2 0.584427 0.581135 0.261444
Si Si3 0.297488 0.184218 0.061325
Si Si4 0.581100 0.850669 0.347214
Si Si5 0.172622 0.917565 0.061421
O O1 0.112052 0.132922 0.308774
O O2 0.129103 0.174104 0.407593
O O3 0.086957 0.266403 0.334033
O O4 0.000000 0.165702 0.370182
O O5 0.500000 0.586060 0.259221
O O6 0.610970 0.500000 0.272544
O O7 0.614565 0.607487 0.203849
O O8 0.250000 0.250000 0.084807
O O9 0.253142 0.110557 0.066326
O O10 0.318092 0.202007 0.000000
O O11 0.500000 0.874137 0.356582
O O12 0.621970 0.869900 0.401533
O O13 0.170849 0.000000 0.080370
O O14 0.145734 0.909202 0.000000
#
# Coordination Sequence:
#
# PCOD8284392 Si02
#       5
#    32  32  32  32  32
#     4  10  20  34  57  85 109 139 183 228 268 319
#     4   9  18  33  53  78 110 146 181 223 276 324
#     4  10  20  37  57  77 107 146 181 216 266 324
#     4  10  19  33  55  82 112 146 183 223 269 326
#     4  10  21  36  55  80 110 146 184 223 272 328
#
# _framework density 18.422464999999999
#
# number of rings (size 3 to 8) (size 9 to 14) (size 15 to 20)
#    0.000    2.200    2.000    1.200    0.000    5.200 
#    0.000    4.000    0.000    2.400    0.000    5.600 
#    0.000    0.000    0.000    0.000    0.000    0.000 
#
# Total GULP energy -496047.313717 kJ/mol
# GULP energy per Si atom -12401.182843 kJ/mol
# Density = 1.838053 g / cm^3
# Si number density = 18.422465 Si / 1000 Ang^3
#
#
#
# Elastic Constant Matrix: (Units=GPa)
#
#
# Indices 1 2 3 4 5 6 
#
# 1 66.4343 27.0374 52.9094 0.0000 0.0000 0.0000
# 2 27.0374 110.0137 49.7966 0.0000 0.0000 0.0000
# 3 52.9094 49.7966 111.2978 0.0000 0.0000 0.0000
# 4 0.0000 0.0000 0.0000 31.0752 0.0000 0.0000
# 5 0.0000 0.0000 0.0000 0.0000 15.3633 0.0000
# 6 0.0000 0.0000 0.0000 0.0000 0.0000 21.3917
#
#
#
# Elastic Compliance Matrix: (Units=1/GPa)
#
#
# Indices 1 2 3 4 5 6 
#
# 1 0.024300 -0.000932 -0.011135 0.000000 0.000000 0.000000
# 2 -0.000932 0.011434 -0.004673 0.000000 0.000000 0.000000
# 3 -0.011135 -0.004673 0.016369 0.000000 0.000000 0.000000
# 4 0.000000 0.000000 0.000000 0.032180 0.000000 0.000000
# 5 0.000000 0.000000 0.000000 0.000000 0.065090 0.000000
# 6 0.000000 0.000000 0.000000 0.000000 0.000000 0.046747
#
#
# Mechanical properties :
#
#
# Convention : Reuss Voigt Hill
#
# Bulk Modulus (GPa) = 53.69525 60.80362 57.24944
# Shear Modulus (GPa) = 21.20386 24.09954 22.65170
#
# Velocity S-wave (km/s) = 3.39629 3.62077 3.51033
# Velocity P-wave (km/s) = 6.67754 7.11033 6.89733
#
# Compressibility (1/GPa) = 0.01862362
#
# Stress axis : x y z
#
# Youngs Moduli (GPa) = 41.15286 87.45956 61.09168
#
# Poissons Ratio (x) = 0.08151 0.68024
# Poissons Ratio (y) = 0.03835 0.28546
# Poissons Ratio (z) = 0.45823 0.40867
#
# Static dielectric constant tensor:
#      x y z
#    x 3.113230 0.000000 0.000000 
#    y 0.000000 3.571030 0.000000 
#    z 0.000000 0.000000 3.381470 
# 
# 
# High freq. dielectric constant tensor:
#      x y z
#    x 1.683830 0.000000 0.000000 
#    y 0.000000 1.726260 0.000000 
#    z 0.000000 0.000000 1.715530 
# 
# From -- ./inp_files/23108.got.cif
#   From: 2010.03.12/outbox.cif.g09.slc.cpg/sg69_12_cif.got.tgz:23108.got - 2010.04.10 23:52:46.
