data_PCOD8284518
_publ_section_title
;
Structure prediction by ZEFSAII (Michael W. Deem and Ramdas Pophale) SiO2 
 PCOD8284518
Probable space group: F M M M
;
_chemical_formula_sum "Si O2"
_cell_formula_units_Z 192
_cell_length_a 16.807044
_cell_length_b 18.183143
_cell_length_c 30.492252
_cell_angle_alpha 90.000000
_cell_angle_beta 90.000000
_cell_angle_gamma 90.000000
_cell_volume 9318.581149
_symmetry_space_group_name_H-M "F M M M"
_symmetry_group_IT_number 69
_symmetry_cell_setting 'orthorhombic'
loop_
_space_group_symop_operation_xyz
x,y,z
-x,-y,z
x,-y,-z
-x,y,-z
-x,-y,-z
x,y,-z
-x,y,z
x,-y,z
x,1/2+y,1/2+z
-x,1/2-y,1/2+z
x,1/2-y,1/2-z
-x,1/2+y,1/2-z
-x,1/2-y,1/2-z
x,1/2+y,1/2-z
-x,1/2+y,1/2+z
x,1/2-y,1/2+z
1/2+x,y,1/2+z
1/2-x,-y,1/2+z
1/2+x,-y,1/2-z
1/2-x,y,1/2-z
1/2-x,-y,1/2-z
1/2+x,y,1/2-z
1/2-x,y,1/2+z
1/2+x,-y,1/2+z
1/2+x,1/2+y,z
1/2-x,1/2-y,z
1/2+x,1/2-y,-z
1/2-x,1/2+y,-z
1/2-x,1/2-y,-z
1/2+x,1/2+y,-z
1/2-x,1/2+y,z
1/2+x,1/2-y,z
loop_
_atom_site_type_symbol
_atom_site_label
_atom_site_fract_x
_atom_site_fract_y
_atom_site_fract_z
Si Si1 0.904903 0.327738 0.413778
Si Si2 0.586504 0.164553 0.742028
Si Si3 0.635568 0.086795 0.169169
Si Si4 0.904460 0.919468 0.500000
Si Si5 0.707330 0.331042 0.165580
Si Si6 0.589664 0.163724 0.081913
Si Si7 0.094140 0.416806 0.500000
O O1 0.855047 0.353573 0.371994
O O2 0.872988 0.244455 0.417869
O O3 0.877965 0.373704 0.456421
O O4 0.000000 0.333757 0.404955
O O5 0.500000 0.138399 0.723139
O O6 0.580412 0.250000 0.750000
O O7 0.600975 0.121004 0.786743
O O8 0.660486 0.153875 0.710218
O O9 0.727682 0.105433 0.163759
O O10 0.590416 0.122903 0.128252
O O11 0.621203 0.000000 0.169194
O O12 0.867754 0.881877 0.543425
O O13 0.000000 0.921823 0.500000
O O14 0.868034 0.000000 0.500000
O O15 0.750000 0.250000 0.163422
O O16 0.500000 0.174781 0.066645
O O17 0.128847 0.500000 0.500000
O O18 0.000000 0.419715 0.500000
#
# Coordination Sequence:
#
# PCOD8284518 Si02
#       7
#    32  32  32  16  32  32  16
#     4  10  20  38  66  96 123 163 217 263 314 378
#     4  11  23  41  67  93 120 163 215 260 311 380
#     4  12  26  41  62  93 130 167 207 263 331 387
#     4   9  17  29  50  81 120 165 205 247 304 367
#     4  12  23  41  64  91 126 168 206 261 316 383
#     4  10  19  35  59  89 125 165 211 260 309 377
#     4   9  19  37  63  96 132 167 212 276 328 359
#
# _framework density 20.603995000000001
#
# number of rings (size 3 to 8) (size 9 to 14) (size 15 to 20)
#    0.000    1.333    3.333    2.500    0.000    8.667 
#    0.000    1.250    0.000    4.000    0.000    0.000 
#    0.000    0.000    0.000    0.000    0.000    0.000 
#
# Total GULP energy -594833.339360 kJ/mol
# GULP energy per Si atom -12392.361237 kJ/mol
# Density = 2.055710 g / cm^3
# Si number density = 20.603995 Si / 1000 Ang^3
#
#
#
# Elastic Constant Matrix: (Units=GPa)
#
#
# Indices 1 2 3 4 5 6 
#
# 1 63.2947 14.9733 22.1212 0.0000 0.0000 0.0000
# 2 14.9733 143.6626 53.9620 0.0000 0.0000 0.0000
# 3 22.1212 53.9620 138.4299 0.0000 0.0000 0.0000
# 4 0.0000 0.0000 0.0000 32.9108 0.0000 0.0000
# 5 0.0000 0.0000 0.0000 0.0000 12.5502 0.0000
# 6 0.0000 0.0000 0.0000 0.0000 0.0000 22.8110
#
#
#
# Elastic Compliance Matrix: (Units=1/GPa)
#
#
# Indices 1 2 3 4 5 6 
#
# 1 0.016826 -0.000871 -0.002349 0.000000 0.000000 0.000000
# 2 -0.000871 0.008200 -0.003057 0.000000 0.000000 0.000000
# 3 -0.002349 -0.003057 0.008791 0.000000 0.000000 0.000000
# 4 0.000000 0.000000 0.000000 0.030385 0.000000 0.000000
# 5 0.000000 0.000000 0.000000 0.000000 0.079680 0.000000
# 6 0.000000 0.000000 0.000000 0.000000 0.000000 0.043839
#
#
# Mechanical properties :
#
#
# Convention : Reuss Voigt Hill
#
# Bulk Modulus (GPa) = 47.03285 58.61113 52.82199
# Shear Modulus (GPa) = 24.11226 30.60978 27.36102
#
# Velocity S-wave (km/s) = 3.42463 3.85856 3.64805
# Velocity P-wave (km/s) = 6.20597 6.95410 6.59066
#
# Compressibility (1/GPa) = 0.02126174
#
# Stress axis : x y z
#
# Youngs Moduli (GPa) = 59.43089 121.95264 113.75244
#
# Poissons Ratio (x) = 0.10626 0.26723
# Poissons Ratio (y) = 0.05178 0.34776
# Poissons Ratio (z) = 0.13961 0.37283
#
# Static dielectric constant tensor:
#      x y z
#    x 3.807900 0.000000 0.000000 
#    y 0.000000 3.797290 0.000000 
#    z 0.000000 0.000000 3.872410 
# 
# 
# High freq. dielectric constant tensor:
#      x y z
#    x 1.796440 0.000000 0.000000 
#    y 0.000000 1.798840 0.000000 
#    z 0.000000 0.000000 1.818260 
# 
# From -- ./inp_files/46403.got.cif
#   From: 2010.03.12/outbox.cif.g09.slc.cpg/sg69_24_cif.got.tgz:46403.got - 2010.04.10 23:52:46.
