data_PCOD8284678
_publ_section_title
;
Structure prediction by ZEFSAII (Michael W. Deem and Ramdas Pophale) SiO2 
 PCOD8284678
Probable space group: F M M M
;
_chemical_formula_sum "Si O2"
_cell_formula_units_Z 192
_cell_length_a 20.758399
_cell_length_b 24.468738
_cell_length_c 19.265389
_cell_angle_alpha 90.000000
_cell_angle_beta 90.000000
_cell_angle_gamma 90.000000
_cell_volume 9785.504222
_symmetry_space_group_name_H-M "F M M M"
_symmetry_group_IT_number 69
_symmetry_cell_setting 'orthorhombic'
loop_
_space_group_symop_operation_xyz
x,y,z
-x,-y,z
x,-y,-z
-x,y,-z
-x,-y,-z
x,y,-z
-x,y,z
x,-y,z
x,1/2+y,1/2+z
-x,1/2-y,1/2+z
x,1/2-y,1/2-z
-x,1/2+y,1/2-z
-x,1/2-y,1/2-z
x,1/2+y,1/2-z
-x,1/2+y,1/2+z
x,1/2-y,1/2+z
1/2+x,y,1/2+z
1/2-x,-y,1/2+z
1/2+x,-y,1/2-z
1/2-x,y,1/2-z
1/2-x,-y,1/2-z
1/2+x,y,1/2-z
1/2-x,y,1/2+z
1/2+x,-y,1/2+z
1/2+x,1/2+y,z
1/2-x,1/2-y,z
1/2+x,1/2-y,-z
1/2-x,1/2+y,-z
1/2-x,1/2-y,-z
1/2+x,1/2+y,-z
1/2-x,1/2+y,z
1/2+x,1/2-y,z
loop_
_atom_site_type_symbol
_atom_site_label
_atom_site_fract_x
_atom_site_fract_y
_atom_site_fract_z
Si Si1 0.926978 0.060990 0.309006
Si Si2 0.071747 0.162790 0.080862
Si Si3 0.742733 0.061023 0.422390
Si Si4 0.616310 0.562412 0.160219
Si Si5 0.634111 0.368218 0.579606
Si Si6 0.823087 0.249315 0.081782
O O1 0.883130 0.074935 0.242404
O O2 0.917944 0.103880 0.370935
O O3 0.000000 0.064860 0.282937
O O4 0.911191 0.000000 0.336705
O O5 0.071170 0.104818 0.120021
O O6 0.129462 0.201570 0.110615
O O7 0.000000 0.188802 0.092163
O O8 0.083812 0.152036 0.000000
O O9 0.714394 0.070270 0.500000
O O10 0.688551 0.071180 0.365827
O O11 0.797536 0.104190 0.406776
O O12 0.771463 0.000000 0.415684
O O13 0.592686 0.500000 0.146020
O O14 0.611665 0.375483 0.500000
O O15 0.640703 0.305241 0.600313
O O16 0.750000 0.250000 0.113696
O O17 0.816277 0.242042 0.000000
#
# Coordination Sequence:
#
# PCOD8284678 Si02
#       6
#    32  32  32  32  32  32
#     4  10  22  38  54  76 108 145 185 226 267 316
#     4  10  20  33  52  80 110 138 175 224 270 317
#     4   9  17  30  52  83 112 136 171 220 269 322
#     4  10  20  35  55  77 107 146 180 214 266 328
#     4  10  20  35  57  81 106 140 181 225 273 323
#     4   9  18  34  56  80 107 140 177 220 272 326
#
# _framework density 19.620858999999999
#
# number of rings (size 3 to 8) (size 9 to 14) (size 15 to 20)
#    0.000    2.333    0.000    2.500    0.000    7.333 
#    0.000    6.667    0.000    3.000    0.000    0.000 
#    0.000    0.000    0.000    0.000    0.000    0.000 
#
# Total GULP energy -595034.524870 kJ/mol
# GULP energy per Si atom -12396.552601 kJ/mol
# Density = 1.957620 g / cm^3
# Si number density = 19.620859 Si / 1000 Ang^3
#
#
#
# Elastic Constant Matrix: (Units=GPa)
#
#
# Indices 1 2 3 4 5 6 
#
# 1 80.2059 46.0616 32.6658 0.0000 0.0000 0.0000
# 2 46.0616 117.3516 45.6298 0.0000 0.0000 0.0000
# 3 32.6658 45.6298 74.5752 0.0000 0.0000 0.0000
# 4 0.0000 0.0000 0.0000 20.2171 0.0000 0.0000
# 5 0.0000 0.0000 0.0000 0.0000 22.7427 0.0000
# 6 0.0000 0.0000 0.0000 0.0000 0.0000 29.4524
#
#
#
# Elastic Compliance Matrix: (Units=1/GPa)
#
#
# Indices 1 2 3 4 5 6 
#
# 1 0.017154 -0.005001 -0.004454 0.000000 0.000000 0.000000
# 2 -0.005001 0.012640 -0.005543 0.000000 0.000000 0.000000
# 3 -0.004454 -0.005543 0.018752 0.000000 0.000000 0.000000
# 4 0.000000 0.000000 0.000000 0.049463 0.000000 0.000000
# 5 0.000000 0.000000 0.000000 0.000000 0.043970 0.000000
# 6 0.000000 0.000000 0.000000 0.000000 0.000000 0.033953
#
#
# Mechanical properties :
#
#
# Convention : Reuss Voigt Hill
#
# Bulk Modulus (GPa) = 53.91080 57.87191 55.89135
# Shear Modulus (GPa) = 23.57252 24.33415 23.95334
#
# Velocity S-wave (km/s) = 3.46988 3.52549 3.49780
# Velocity P-wave (km/s) = 6.60222 6.79200 6.69778
#
# Compressibility (1/GPa) = 0.01854916
#
# Stress axis : x y z
#
# Youngs Moduli (GPa) = 58.29523 79.11515 53.32836
#
# Poissons Ratio (x) = 0.39568 0.23751
# Poissons Ratio (y) = 0.29156 0.29560
# Poissons Ratio (z) = 0.25963 0.43854
#
# Static dielectric constant tensor:
#      x y z
#    x 3.517090 0.000000 0.000000 
#    y 0.000000 3.769440 0.000000 
#    z 0.000000 0.000000 3.327890 
# 
# 
# High freq. dielectric constant tensor:
#      x y z
#    x 1.761730 0.000000 0.000000 
#    y 0.000000 1.769110 0.000000 
#    z 0.000000 0.000000 1.734240 
# 
# From -- ./inp_files/32012.got.cif
#   From: 2010.03.12/outbox.cif.g09.slc.cpg/sg69_17_cif.got.tgz:32012.got - 2010.04.10 23:52:46.
