data_PCOD8284955
_publ_section_title
;
Structure prediction by ZEFSAII (Michael W. Deem and Ramdas Pophale) SiO2 
 PCOD8284955
Probable space group: F M M M
;
_chemical_formula_sum "Si O2"
_cell_formula_units_Z 176
_cell_length_a 17.528304
_cell_length_b 23.362751
_cell_length_c 22.847747
_cell_angle_alpha 90.000000
_cell_angle_beta 90.000000
_cell_angle_gamma 90.000000
_cell_volume 9356.367207
_symmetry_space_group_name_H-M "F M M M"
_symmetry_group_IT_number 69
_symmetry_cell_setting 'orthorhombic'
loop_
_space_group_symop_operation_xyz
x,y,z
-x,-y,z
x,-y,-z
-x,y,-z
-x,-y,-z
x,y,-z
-x,y,z
x,-y,z
x,1/2+y,1/2+z
-x,1/2-y,1/2+z
x,1/2-y,1/2-z
-x,1/2+y,1/2-z
-x,1/2-y,1/2-z
x,1/2+y,1/2-z
-x,1/2+y,1/2+z
x,1/2-y,1/2+z
1/2+x,y,1/2+z
1/2-x,-y,1/2+z
1/2+x,-y,1/2-z
1/2-x,y,1/2-z
1/2-x,-y,1/2-z
1/2+x,y,1/2-z
1/2-x,y,1/2+z
1/2+x,-y,1/2+z
1/2+x,1/2+y,z
1/2-x,1/2-y,z
1/2+x,1/2-y,-z
1/2-x,1/2+y,-z
1/2-x,1/2-y,-z
1/2+x,1/2+y,-z
1/2-x,1/2+y,z
1/2+x,1/2-y,z
loop_
_atom_site_type_symbol
_atom_site_label
_atom_site_fract_x
_atom_site_fract_y
_atom_site_fract_z
Si Si1 0.839881 0.936973 0.250299
Si Si2 0.000000 0.567249 0.434461
Si Si3 0.186004 0.933168 0.377871
Si Si4 0.646054 0.885878 0.368489
Si Si5 0.163662 0.769286 0.933269
Si Si6 0.583364 0.656899 0.567985
O O1 0.750000 0.944345 0.250000
O O2 0.855975 0.916287 0.316512
O O3 0.869376 0.891746 0.201711
O O4 0.876298 0.000000 0.237703
O O5 0.923901 0.586582 0.402166
O O6 0.000000 0.500000 0.437083
O O7 0.000000 0.593199 0.500000
O O8 0.275758 0.919348 0.382203
O O9 0.141010 0.895801 0.424731
O O10 0.175486 0.000000 0.391610
O O11 0.652106 0.820375 0.387524
O O12 0.250000 0.750000 0.933613
O O13 0.115060 0.716738 0.906621
O O14 0.139900 0.786922 0.000000
O O15 0.575600 0.667250 0.500000
O O16 0.500000 0.643807 0.595575
#
# Coordination Sequence:
#
# PCOD8284955 Si02
#       6
#    32  16  32  32  32  32
#     4   8  16  33  57  82 108 143 188 234 280 337
#     4  11  24  36  50  84 125 152 186 240 293 346
#     4  10  20  37  62  86 111 148 192 236 287 347
#     4  11  20  36  59  81 113 153 193 234 281 339
#     4  10  20  36  58  82 107 146 197 234 275 339
#     4  10  22  39  58  83 116 148 184 239 292 333
#
# _framework density 18.810718999999999
#
# number of rings (size 3 to 8) (size 9 to 14) (size 15 to 20)
#    0.000    2.091    1.818    3.273    1.273    1.455 
#    1.636    1.818    0.000    1.091    0.000    0.000 
#    0.000    0.000    0.000    0.000    0.000    0.000 
#
# Total GULP energy -545264.930346 kJ/mol
# GULP energy per Si atom -12392.384781 kJ/mol
# Density = 1.876791 g / cm^3
# Si number density = 18.810719 Si / 1000 Ang^3
#
#
#
# Elastic Constant Matrix: (Units=GPa)
#
#
# Indices 1 2 3 4 5 6 
#
# 1 100.5146 45.1345 41.8034 0.0000 0.0000 0.0000
# 2 45.1345 131.0377 49.2078 0.0000 0.0000 0.0000
# 3 41.8034 49.2078 71.5533 0.0000 0.0000 0.0000
# 4 0.0000 0.0000 0.0000 29.3144 0.0000 0.0000
# 5 0.0000 0.0000 0.0000 0.0000 24.8270 0.0000
# 6 0.0000 0.0000 0.0000 0.0000 0.0000 22.4013
#
#
#
# Elastic Compliance Matrix: (Units=1/GPa)
#
#
# Indices 1 2 3 4 5 6 
#
# 1 0.013637 -0.002299 -0.006386 0.000000 0.000000 0.000000
# 2 -0.002299 0.010676 -0.005999 0.000000 0.000000 0.000000
# 3 -0.006386 -0.005999 0.021832 0.000000 0.000000 0.000000
# 4 0.000000 0.000000 0.000000 0.034113 0.000000 0.000000
# 5 0.000000 0.000000 0.000000 0.000000 0.040279 0.000000
# 6 0.000000 0.000000 0.000000 0.000000 0.000000 0.044640
#
#
# Mechanical properties :
#
#
# Convention : Reuss Voigt Hill
#
# Bulk Modulus (GPa) = 59.60482 63.93299 61.76891
# Shear Modulus (GPa) = 24.98287 26.43920 25.71103
#
# Velocity S-wave (km/s) = 3.64829 3.75312 3.70108
# Velocity P-wave (km/s) = 7.03577 7.26929 7.15348
#
# Compressibility (1/GPa) = 0.01677717
#
# Stress axis : x y z
#
# Youngs Moduli (GPa) = 73.32949 93.66852 45.80437
#
# Poissons Ratio (x) = 0.21534 0.29251
# Poissons Ratio (y) = 0.16858 0.27477
# Poissons Ratio (z) = 0.46829 0.56190
#
# Static dielectric constant tensor:
#      x y z
#    x 3.532610 0.000000 0.000000 
#    y 0.000000 -2.828980 0.000000 
#    z 0.000000 0.000000 3.869590 
# 
# 
# High freq. dielectric constant tensor:
#      x y z
#    x 1.725040 0.000000 0.000000 
#    y 0.000000 1.727980 0.000000 
#    z 0.000000 0.000000 1.720400 
# 
# From -- ./inp_files/35883.got.cif
#   From: 2010.03.12/outbox.cif.g09.slc.cpg/sg69_18_cif.got.tgz:35883.got - 2010.04.10 23:52:46.
