data_PCOD8284654
_publ_section_title
;
Structure prediction by ZEFSAII (Michael W. Deem and Ramdas Pophale) SiO2 
 PCOD8284654
Probable space group: F M M M
;
_chemical_formula_sum "Si O2"
_cell_formula_units_Z 144
_cell_length_a 13.003275
_cell_length_b 22.913156
_cell_length_c 28.334604
_cell_angle_alpha 90.000000
_cell_angle_beta 90.000000
_cell_angle_gamma 90.000000
_cell_volume 8442.183867
_symmetry_space_group_name_H-M "F M M M"
_symmetry_group_IT_number 69
_symmetry_cell_setting 'orthorhombic'
loop_
_space_group_symop_operation_xyz
x,y,z
-x,-y,z
x,-y,-z
-x,y,-z
-x,-y,-z
x,y,-z
-x,y,z
x,-y,z
x,1/2+y,1/2+z
-x,1/2-y,1/2+z
x,1/2-y,1/2-z
-x,1/2+y,1/2-z
-x,1/2-y,1/2-z
x,1/2+y,1/2-z
-x,1/2+y,1/2+z
x,1/2-y,1/2+z
1/2+x,y,1/2+z
1/2-x,-y,1/2+z
1/2+x,-y,1/2-z
1/2-x,y,1/2-z
1/2-x,-y,1/2-z
1/2+x,y,1/2-z
1/2-x,y,1/2+z
1/2+x,-y,1/2+z
1/2+x,1/2+y,z
1/2-x,1/2-y,z
1/2+x,1/2-y,-z
1/2-x,1/2+y,-z
1/2-x,1/2-y,-z
1/2+x,1/2+y,-z
1/2-x,1/2+y,z
1/2+x,1/2-y,z
loop_
_atom_site_type_symbol
_atom_site_label
_atom_site_fract_x
_atom_site_fract_y
_atom_site_fract_z
Si Si1 0.885508 0.436499 0.329298
Si Si2 0.250000 0.750000 0.376511
Si Si3 0.120426 0.147564 0.913901
Si Si4 0.620560 0.795073 0.208436
Si Si5 0.750000 0.605339 0.250000
Si Si6 0.378392 0.066448 0.500000
O O1 0.877366 0.500000 0.354459
O O2 0.860543 0.385117 0.365015
O O3 0.806970 0.436161 0.286459
O O4 0.000000 0.427007 0.309121
O O5 0.193730 0.704186 0.411593
O O6 0.336875 0.723457 0.342505
O O7 0.000000 0.164846 0.920774
O O8 0.158113 0.103618 0.954755
O O9 0.500000 0.800760 0.202717
O O10 0.650315 0.750000 0.250000
O O11 0.666082 0.856944 0.222439
O O12 0.500000 0.060500 0.500000
O O13 0.331859 0.000000 0.500000
#
# Coordination Sequence:
#
# PCOD8284654 Si02
#       6
#    32  16  32  32  16  16
#     4  10  20  33  50  73 102 136 174 217 261 305
#     4  12  19  33  48  74 108 138 172 210 264 308
#     4  10  20  34  54  78 106 136 169 212 265 318
#     4  11  20  31  47  69 101 143 185 215 248 301
#     4  12  18  32  46  72 100 141 173 216 256 306
#     4   9  18  35  58  82 105 130 166 214 265 315
#
# _framework density 17.057198
#
# number of rings (size 3 to 8) (size 9 to 14) (size 15 to 20)
#    0.000    1.444    4.444    2.333    0.000    6.667 
#    0.000    0.000    0.000    0.000    0.000    0.000 
#    0.000    3.556    0.000    0.000    0.000    0.000 
#
# Total GULP energy -446303.186666 kJ/mol
# GULP energy per Si atom -12397.310741 kJ/mol
# Density = 1.701837 g / cm^3
# Si number density = 17.057198 Si / 1000 Ang^3
#
#
#
# Elastic Constant Matrix: (Units=GPa)
#
#
# Indices 1 2 3 4 5 6 
#
# 1 84.8507 44.6389 35.0952 0.0000 0.0000 0.0000
# 2 44.6389 108.2081 38.5259 0.0000 0.0000 0.0000
# 3 35.0952 38.5259 74.7231 0.0000 0.0000 0.0000
# 4 0.0000 0.0000 0.0000 24.3096 0.0000 0.0000
# 5 0.0000 0.0000 0.0000 0.0000 -151.6247 0.0000
# 6 0.0000 0.0000 0.0000 0.0000 0.0000 17.4040
#
#
#
# Elastic Compliance Matrix: (Units=1/GPa)
#
#
# Indices 1 2 3 4 5 6 
#
# 1 0.016559 -0.004975 -0.005212 0.000000 0.000000 0.000000
# 2 -0.004975 0.012814 -0.004270 0.000000 0.000000 0.000000
# 3 -0.005212 -0.004270 0.018032 0.000000 0.000000 0.000000
# 4 0.000000 0.000000 0.000000 0.041136 0.000000 0.000000
# 5 0.000000 0.000000 0.000000 0.000000 -0.006595 0.000000
# 6 0.000000 0.000000 0.000000 0.000000 0.000000 0.057458
#
#
# Mechanical properties :
#
#
# Convention : Reuss Voigt Hill
#
# Bulk Modulus (GPa) = 54.08180 56.03355 55.05768
# Shear Modulus (GPa) = 28.65629 -12.01412 8.32109
#
# Velocity S-wave (km/s) = 4.10324 -2.65683 2.21109
# Velocity P-wave (km/s) = 7.36368 4.84872 6.23433
#
# Compressibility (1/GPa) = 0.01849051
#
# Stress axis : x y z
#
# Youngs Moduli (GPa) = 60.39184 78.03858 55.45646
#
# Poissons Ratio (x) = 0.38826 0.28903
# Poissons Ratio (y) = 0.30046 0.23680
# Poissons Ratio (z) = 0.31476 0.33323
#
# Static dielectric constant tensor:
#      x y z
#    x 3.097660 0.000000 0.000000 
#    y 0.000000 3.243280 0.000000 
#    z 0.000000 0.000000 3.086120 
# 
# 
# High freq. dielectric constant tensor:
#      x y z
#    x 1.646640 0.000000 0.000000 
#    y 0.000000 1.664120 0.000000 
#    z 0.000000 0.000000 1.643600 
# 
# From -- ./inp_files/40172.got.cif
#   From: 2010.03.12/outbox.cif.g09.slc.cpg/sg69_21_cif.got.tgz:40172.got - 2010.04.10 23:52:46.
