data_PCOD8284549
_publ_section_title
;
Structure prediction by ZEFSAII (Michael W. Deem and Ramdas Pophale) SiO2 
 PCOD8284549
Probable space group: F M M M
;
_chemical_formula_sum "Si O2"
_cell_formula_units_Z 160
_cell_length_a 18.317476
_cell_length_b 14.432580
_cell_length_c 29.838058
_cell_angle_alpha 90.000000
_cell_angle_beta 90.000000
_cell_angle_gamma 90.000000
_cell_volume 7888.240779
_symmetry_space_group_name_H-M "F M M M"
_symmetry_group_IT_number 69
_symmetry_cell_setting 'orthorhombic'
loop_
_space_group_symop_operation_xyz
x,y,z
-x,-y,z
x,-y,-z
-x,y,-z
-x,-y,-z
x,y,-z
-x,y,z
x,-y,z
x,1/2+y,1/2+z
-x,1/2-y,1/2+z
x,1/2-y,1/2-z
-x,1/2+y,1/2-z
-x,1/2-y,1/2-z
x,1/2+y,1/2-z
-x,1/2+y,1/2+z
x,1/2-y,1/2+z
1/2+x,y,1/2+z
1/2-x,-y,1/2+z
1/2+x,-y,1/2-z
1/2-x,y,1/2-z
1/2-x,-y,1/2-z
1/2+x,y,1/2-z
1/2-x,y,1/2+z
1/2+x,-y,1/2+z
1/2+x,1/2+y,z
1/2-x,1/2-y,z
1/2+x,1/2-y,-z
1/2-x,1/2+y,-z
1/2-x,1/2-y,-z
1/2+x,1/2+y,-z
1/2-x,1/2+y,z
1/2+x,1/2-y,z
loop_
_atom_site_type_symbol
_atom_site_label
_atom_site_fract_x
_atom_site_fract_y
_atom_site_fract_z
Si Si1 0.917217 0.836116 0.328545
Si Si2 0.793077 0.000000 0.817684
Si Si3 0.180566 0.188070 0.867605
Si Si4 0.915779 0.402477 0.073143
Si Si5 0.361955 0.500000 0.727463
Si Si6 0.913870 0.794106 0.950731
O O1 0.865801 0.744956 0.330184
O O2 0.903255 0.892510 0.373933
O O3 0.000000 0.800290 0.324879
O O4 0.902070 0.905455 0.287453
O O5 0.794364 0.908679 0.847693
O O6 0.718129 0.000000 0.791887
O O7 0.859062 0.000000 0.781630
O O8 0.250000 0.250000 0.882081
O O9 0.132367 0.159025 0.911236
O O10 0.877642 0.500000 0.058204
O O11 0.886058 0.312955 0.047186
O O12 0.000000 0.410800 0.061633
O O13 0.000000 0.800282 0.938591
O O14 0.899088 0.838413 0.000000
#
# Coordination Sequence:
#
# PCOD8284549 Si02
#       6
#    32  16  32  32  16  32
#     4  10  19  36  62  93 122 160 203 254 314 364
#     4  11  26  42  59  91 122 163 212 250 304 367
#     4  11  22  41  64  87 124 165 207 254 307 374
#     4   8  13  23  47  80 116 150 184 233 296 356
#     4  11  21  40  64  90 123 160 206 258 302 373
#     4   9  19  36  58  86 120 160 205 253 306 364
#
# _framework density 20.283356000000001
#
# number of rings (size 3 to 8) (size 9 to 14) (size 15 to 20)
#    0.000    2.200    3.000    2.100    0.000    1.600 
#    0.000    9.500    0.000    1.200    0.000    0.000 
#    0.000    0.000    0.000    0.000    0.000    0.000 
#
# Total GULP energy -495606.917887 kJ/mol
# GULP energy per Si atom -12390.172947 kJ/mol
# Density = 2.023719 g / cm^3
# Si number density = 20.283356 Si / 1000 Ang^3
#
#
#
# Elastic Constant Matrix: (Units=GPa)
#
#
# Indices 1 2 3 4 5 6 
#
# 1 79.8287 20.2325 27.7646 0.0000 0.0000 0.0000
# 2 20.2325 78.6807 18.4930 0.0000 0.0000 0.0000
# 3 27.7646 18.4930 92.1200 0.0000 0.0000 0.0000
# 4 0.0000 0.0000 0.0000 31.2911 0.0000 0.0000
# 5 0.0000 0.0000 0.0000 0.0000 27.9548 0.0000
# 6 0.0000 0.0000 0.0000 0.0000 0.0000 18.9010
#
#
#
# Elastic Compliance Matrix: (Units=1/GPa)
#
#
# Indices 1 2 3 4 5 6 
#
# 1 0.014578 -0.002851 -0.003822 0.000000 0.000000 0.000000
# 2 -0.002851 0.013896 -0.001931 0.000000 0.000000 0.000000
# 3 -0.003822 -0.001931 0.012395 0.000000 0.000000 0.000000
# 4 0.000000 0.000000 0.000000 0.031958 0.000000 0.000000
# 5 0.000000 0.000000 0.000000 0.000000 0.035772 0.000000
# 6 0.000000 0.000000 0.000000 0.000000 0.000000 0.052907
#
#
# Mechanical properties :
#
#
# Convention : Reuss Voigt Hill
#
# Bulk Modulus (GPa) = 42.25804 42.62327 42.44066
# Shear Modulus (GPa) = 26.79522 27.90532 27.35027
#
# Velocity S-wave (km/s) = 3.63856 3.71317 3.67605
# Velocity P-wave (km/s) = 6.20735 6.28037 6.24397
#
# Compressibility (1/GPa) = 0.02366414
#
# Stress axis : x y z
#
# Youngs Moduli (GPa) = 68.59427 71.96127 80.67903
#
# Poissons Ratio (x) = 0.20513 0.30833
# Poissons Ratio (y) = 0.19553 0.15575
# Poissons Ratio (z) = 0.26214 0.13892
#
# Static dielectric constant tensor:
#      x y z
#    x 3.643120 0.000000 0.000000 
#    y 0.000000 3.660430 0.000000 
#    z 0.000000 0.000000 3.827440 
# 
# 
# High freq. dielectric constant tensor:
#      x y z
#    x 1.775580 0.000000 0.000000 
#    y 0.000000 1.778360 0.000000 
#    z 0.000000 0.000000 1.777650 
# 
# From -- ./inp_files/46259.got.cif
#   From: 2010.03.12/outbox.cif.g09.slc.cpg/sg69_24_cif.got.tgz:46259.got - 2010.04.10 23:52:46.
