data_PCOD8284561
_publ_section_title
;
Structure prediction by ZEFSAII (Michael W. Deem and Ramdas Pophale) SiO2 
 PCOD8284561
Probable space group: F M M M
;
_chemical_formula_sum "Si O2"
_cell_formula_units_Z 160
_cell_length_a 18.580685
_cell_length_b 31.067232
_cell_length_c 14.660514
_cell_angle_alpha 90.000000
_cell_angle_beta 90.000000
_cell_angle_gamma 90.000000
_cell_volume 8462.788327
_symmetry_space_group_name_H-M "F M M M"
_symmetry_group_IT_number 69
_symmetry_cell_setting 'orthorhombic'
loop_
_space_group_symop_operation_xyz
x,y,z
-x,-y,z
x,-y,-z
-x,y,-z
-x,-y,-z
x,y,-z
-x,y,z
x,-y,z
x,1/2+y,1/2+z
-x,1/2-y,1/2+z
x,1/2-y,1/2-z
-x,1/2+y,1/2-z
-x,1/2-y,1/2-z
x,1/2+y,1/2-z
-x,1/2+y,1/2+z
x,1/2-y,1/2+z
1/2+x,y,1/2+z
1/2-x,-y,1/2+z
1/2+x,-y,1/2-z
1/2-x,y,1/2-z
1/2-x,-y,1/2-z
1/2+x,y,1/2-z
1/2-x,y,1/2+z
1/2+x,-y,1/2+z
1/2+x,1/2+y,z
1/2-x,1/2-y,z
1/2+x,1/2-y,-z
1/2-x,1/2+y,-z
1/2-x,1/2-y,-z
1/2+x,1/2+y,-z
1/2-x,1/2+y,z
1/2+x,1/2-y,z
loop_
_atom_site_type_symbol
_atom_site_label
_atom_site_fract_x
_atom_site_fract_y
_atom_site_fract_z
Si Si1 0.333191 0.547202 0.230920
Si Si2 0.084746 0.316199 0.500000
Si Si3 0.082925 0.923061 0.398338
Si Si4 0.673412 0.657415 0.360088
Si Si5 0.828740 0.230548 0.500000
Si Si6 0.833368 0.363281 0.655451
O O1 0.345249 0.500000 0.185264
O O2 0.250000 0.555823 0.250000
O O3 0.375126 0.547148 0.326814
O O4 0.357994 0.586562 0.166488
O O5 0.112483 0.267651 0.500000
O O6 0.110301 0.341203 0.410608
O O7 0.000000 0.314872 0.500000
O O8 0.090640 0.942865 0.500000
O O9 0.114744 0.875138 0.399306
O O10 0.000000 0.920678 0.368574
O O11 0.660660 0.703029 0.408036
O O12 0.753015 0.639754 0.385318
O O13 0.663960 0.661911 0.251524
O O14 0.750000 0.250000 0.500000
#
# Coordination Sequence:
#
# PCOD8284561 Si02
#       6
#    32  16  32  32  16  32
#     4  10  20  37  62  93 122 156 207 259 302 362
#     4  12  28  44  61  91 128 167 213 262 312 366
#     4  10  20  34  58  89 124 161 193 243 314 375
#     4  10  19  37  64  93 120 159 208 250 305 374
#     4  12  22  38  66  96 124 157 204 258 308 373
#     4  10  20  40  64  90 122 167 206 254 310 367
#
# _framework density 18.906298
#
# number of rings (size 3 to 8) (size 9 to 14) (size 15 to 20)
#    0.000    1.600    7.000    0.000    0.000    5.600 
#    0.000    2.500    0.000    0.600    0.000    0.000 
#    0.000    0.000    0.000    0.000    0.000    0.000 
#
# Total GULP energy -495940.905774 kJ/mol
# GULP energy per Si atom -12398.522644 kJ/mol
# Density = 1.886327 g / cm^3
# Si number density = 18.906298 Si / 1000 Ang^3
#
#
#
# Elastic Constant Matrix: (Units=GPa)
#
#
# Indices 1 2 3 4 5 6 
#
# 1 135.5867 39.2603 50.3024 0.0000 0.0000 0.0000
# 2 39.2603 155.1500 55.5419 0.0000 0.0000 0.0000
# 3 50.3024 55.5419 90.1161 0.0000 0.0000 0.0000
# 4 0.0000 0.0000 0.0000 24.6346 0.0000 0.0000
# 5 0.0000 0.0000 0.0000 0.0000 27.7653 0.0000
# 6 0.0000 0.0000 0.0000 0.0000 0.0000 -8.3034
#
#
#
# Elastic Compliance Matrix: (Units=1/GPa)
#
#
# Indices 1 2 3 4 5 6 
#
# 1 0.009351 -0.000639 -0.004826 0.000000 0.000000 0.000000
# 2 -0.000639 0.008314 -0.004768 0.000000 0.000000 0.000000
# 3 -0.004826 -0.004768 0.016729 0.000000 0.000000 0.000000
# 4 0.000000 0.000000 0.000000 0.040593 0.000000 0.000000
# 5 0.000000 0.000000 0.000000 0.000000 0.036016 0.000000
# 6 0.000000 0.000000 0.000000 0.000000 0.000000 -0.120433
#
#
# Mechanical properties :
#
#
# Convention : Reuss Voigt Hill
#
# Bulk Modulus (GPa) = 71.79138 74.56245 73.17691
# Shear Modulus (GPa) = 318.93376 24.53586 171.73481
#
# Velocity S-wave (km/s) = 13.00223 3.60635 9.54106
# Velocity P-wave (km/s) = 16.23162 7.54086 12.65563
#
# Compressibility (1/GPa) = 0.01392925
#
# Stress axis : x y z
#
# Youngs Moduli (GPa) = 106.94420 120.28338 59.77617
#
# Poissons Ratio (x) = 0.07680 0.28848
# Poissons Ratio (y) = 0.06829 0.28499
# Poissons Ratio (z) = 0.51611 0.57346
#
# Static dielectric constant tensor:
#      x y z
#    x 3.403820 0.000000 0.000000 
#    y 0.000000 3.721840 0.000000 
#    z 0.000000 0.000000 3.432910 
# 
# 
# High freq. dielectric constant tensor:
#      x y z
#    x 1.728490 0.000000 0.000000 
#    y 0.000000 1.735820 0.000000 
#    z 0.000000 0.000000 1.728640 
# 
# From -- ./inp_files/15710.got.cif
#   From: 2010.03.12/outbox.cif.g09.slc.cpg/sg69_8_cif.got.tgz:15710.got - 2010.04.10 23:52:46.
