data_PCOD8284519
_publ_section_title
;
Structure prediction by ZEFSAII (Michael W. Deem and Ramdas Pophale) SiO2 
 PCOD8284519
Probable space group: F M M M
;
_chemical_formula_sum "Si O2"
_cell_formula_units_Z 128
_cell_length_a 17.772669
_cell_length_b 12.943730
_cell_length_c 29.616577
_cell_angle_alpha 90.000000
_cell_angle_beta 90.000000
_cell_angle_gamma 90.000000
_cell_volume 6813.134466
_symmetry_space_group_name_H-M "F M M M"
_symmetry_group_IT_number 69
_symmetry_cell_setting 'orthorhombic'
loop_
_space_group_symop_operation_xyz
x,y,z
-x,-y,z
x,-y,-z
-x,y,-z
-x,-y,-z
x,y,-z
-x,y,z
x,-y,z
x,1/2+y,1/2+z
-x,1/2-y,1/2+z
x,1/2-y,1/2-z
-x,1/2+y,1/2-z
-x,1/2-y,1/2-z
x,1/2+y,1/2-z
-x,1/2+y,1/2+z
x,1/2-y,1/2+z
1/2+x,y,1/2+z
1/2-x,-y,1/2+z
1/2+x,-y,1/2-z
1/2-x,y,1/2-z
1/2-x,-y,1/2-z
1/2+x,y,1/2-z
1/2-x,y,1/2+z
1/2+x,-y,1/2+z
1/2+x,1/2+y,z
1/2-x,1/2-y,z
1/2+x,1/2-y,-z
1/2-x,1/2+y,-z
1/2-x,1/2-y,-z
1/2+x,1/2+y,-z
1/2-x,1/2+y,z
1/2+x,1/2-y,z
loop_
_atom_site_type_symbol
_atom_site_label
_atom_site_fract_x
_atom_site_fract_y
_atom_site_fract_z
Si Si1 0.414570 0.798395 0.650071
Si Si2 0.208576 0.880382 0.794535
Si Si3 0.741064 0.000000 0.448535
Si Si4 0.679424 0.612649 0.624633
Si Si5 0.083584 0.000000 0.089297
O O1 0.500000 0.776019 0.663808
O O2 0.368151 0.816561 0.696433
O O3 0.384420 0.699692 0.621713
O O4 0.406282 0.899758 0.619934
O O5 0.250000 0.838347 0.750000
O O6 0.261455 0.857049 0.836979
O O7 0.187969 0.000000 0.789032
O O8 0.774689 0.898370 0.422862
O O9 0.768464 0.000000 0.500000
O O10 0.649858 0.000000 0.447635
O O11 0.642874 0.500000 0.636445
O O12 0.000000 0.000000 0.066633
#
# Coordination Sequence:
#
# PCOD8284519 Si02
#       5
#    32  32  16  32  16
#     4  11  20  35  60  85 121 156 188 241 302 354
#     4  10  19  35  60  86 114 154 196 240 286 352
#     4  10  20  39  63  86 114 157 204 247 292 354
#     4   9  20  37  56  83 115 151 200 245 288 348
#     4  10  20  35  56  89 119 148 188 242 307 356
#
# _framework density 18.787241000000002
#
# number of rings (size 3 to 8) (size 9 to 14) (size 15 to 20)
#    0.750    1.250    3.750    0.750    0.000    2.750 
#    0.000    5.000    0.000    7.500    0.000    0.000 
#    0.000    0.000    0.000    0.000    0.000    0.000 
#
# Total GULP energy -396547.338119 kJ/mol
# GULP energy per Si atom -12392.104316 kJ/mol
# Density = 1.874448 g / cm^3
# Si number density = 18.787241 Si / 1000 Ang^3
#
#
#
# Elastic Constant Matrix: (Units=GPa)
#
#
# Indices 1 2 3 4 5 6 
#
# 1 140.2309 70.4553 59.7347 0.0000 0.0000 0.0000
# 2 70.4553 116.6020 23.5327 0.0000 0.0000 0.0000
# 3 59.7347 23.5327 134.9591 0.0000 0.0000 0.0000
# 4 0.0000 0.0000 0.0000 -5.7830 0.0000 0.0000
# 5 0.0000 0.0000 0.0000 0.0000 22.8979 0.0000
# 6 0.0000 0.0000 0.0000 0.0000 0.0000 27.3732
#
#
#
# Elastic Compliance Matrix: (Units=1/GPa)
#
#
# Indices 1 2 3 4 5 6 
#
# 1 0.012233 -0.006528 -0.004276 0.000000 0.000000 0.000000
# 2 -0.006528 0.012373 0.000732 0.000000 0.000000 0.000000
# 3 -0.004276 0.000732 0.009175 0.000000 0.000000 0.000000
# 4 0.000000 0.000000 0.000000 -0.172921 0.000000 0.000000
# 5 0.000000 0.000000 0.000000 0.000000 0.043672 0.000000
# 6 0.000000 0.000000 0.000000 0.000000 0.000000 0.036532
#
#
# Mechanical properties :
#
#
# Convention : Reuss Voigt Hill
#
# Bulk Modulus (GPa) = 73.33671 77.69305 75.51488
# Shear Modulus (GPa) = -145.99717 24.76892 -60.61412
#
# Velocity S-wave (km/s) = -8.82494 3.63490 -5.68625
# Velocity P-wave (km/s) = 8.04483 7.68509 1.68205
#
# Compressibility (1/GPa) = 0.01363573
#
# Stress axis : x y z
#
# Youngs Moduli (GPa) = 81.74910 80.82028 108.99661
#
# Poissons Ratio (x) = 0.52763 0.46606
# Poissons Ratio (y) = 0.53369 -0.07979
# Poissons Ratio (z) = 0.34955 -0.05917
#
# Static dielectric constant tensor:
#      x y z
#    x 3.546290 0.000000 0.000000 
#    y 0.000000 3.589960 0.000000 
#    z 0.000000 0.000000 3.093190 
# 
# 
# High freq. dielectric constant tensor:
#      x y z
#    x 1.720200 0.000000 0.000000 
#    y 0.000000 1.745720 0.000000 
#    z 0.000000 0.000000 1.692470 
# 
# From -- ./inp_files/46150.got.cif
#   From: 2010.03.12/outbox.cif.g09.slc.cpg/sg69_24_cif.got.tgz:46150.got - 2010.04.10 23:52:46.
