data_PCOD8284651
_publ_section_title
;
Structure prediction by ZEFSAII (Michael W. Deem and Ramdas Pophale) SiO2 
 PCOD8284651
Probable space group: F M M M
;
_chemical_formula_sum "Si O2"
_cell_formula_units_Z 160
_cell_length_a 15.313725
_cell_length_b 32.751761
_cell_length_c 17.889129
_cell_angle_alpha 90.000000
_cell_angle_beta 90.000000
_cell_angle_gamma 90.000000
_cell_volume 8972.318790
_symmetry_space_group_name_H-M "F M M M"
_symmetry_group_IT_number 69
_symmetry_cell_setting 'orthorhombic'
loop_
_space_group_symop_operation_xyz
x,y,z
-x,-y,z
x,-y,-z
-x,y,-z
-x,-y,-z
x,y,-z
-x,y,z
x,-y,z
x,1/2+y,1/2+z
-x,1/2-y,1/2+z
x,1/2-y,1/2-z
-x,1/2+y,1/2-z
-x,1/2-y,1/2-z
x,1/2+y,1/2-z
-x,1/2+y,1/2+z
x,1/2-y,1/2+z
1/2+x,y,1/2+z
1/2-x,-y,1/2+z
1/2+x,-y,1/2-z
1/2-x,y,1/2-z
1/2-x,-y,1/2-z
1/2+x,y,1/2-z
1/2-x,y,1/2+z
1/2+x,-y,1/2+z
1/2+x,1/2+y,z
1/2-x,1/2-y,z
1/2+x,1/2-y,-z
1/2-x,1/2+y,-z
1/2-x,1/2-y,-z
1/2+x,1/2+y,-z
1/2-x,1/2+y,z
1/2+x,1/2-y,z
loop_
_atom_site_type_symbol
_atom_site_label
_atom_site_fract_x
_atom_site_fract_y
_atom_site_fract_z
Si Si1 0.000000 0.298295 0.231286
Si Si2 0.337335 0.154043 0.297892
Si Si3 0.335751 0.062720 0.701132
Si Si4 0.764912 0.000000 0.090728
Si Si5 0.320381 0.781388 0.585196
Si Si6 0.000000 0.235760 0.582683
Si Si7 0.405377 0.500000 0.309818
O O1 0.000000 0.250000 0.250000
O O2 0.913187 0.320159 0.258966
O O3 0.000000 0.301561 0.140897
O O4 0.250000 0.153656 0.250000
O O5 0.370929 0.108239 0.315188
O O6 0.312905 0.174995 0.375800
O O7 0.250000 0.064848 0.750000
O O8 0.402660 0.038788 0.754126
O O9 0.316148 0.039766 0.622374
O O10 0.666769 0.000000 0.124542
O O11 0.763397 0.000000 0.000000
O O12 0.295255 0.789401 0.500000
O O13 0.250000 0.750000 0.620676
O O14 0.417218 0.764483 0.595799
O O15 0.000000 0.216331 0.500000
O O16 0.500000 0.500000 0.349732
#
# Coordination Sequence:
#
# PCOD8284651 Si02
#       7
#    16  32  32  16  32  16  16
#     4  12  22  34  54  83 101 140 196 234 276 322
#     4  11  22  34  55  79 111 138 185 241 274 321
#     4   8  18  35  51  80 106 146 181 215 273 331
#     4   9  17  34  60  84 115 145 180 224 274 344
#     4  10  20  33  50  72 100 140 180 220 280 336
#     4  10  20  36  50  68 104 137 173 228 283 324
#     4   9  17  32  58  80 113 143 182 218 276 341
#
# _framework density 17.832625
#
# number of rings (size 3 to 8) (size 9 to 14) (size 15 to 20)
#    0.000    2.200    2.000    2.400    1.400    1.000 
#    0.000    0.000    0.000    9.600    0.000    0.000 
#    0.000    0.000    0.000    0.000    0.000    0.000 
#
# Total GULP energy -495739.538615 kJ/mol
# GULP energy per Si atom -12393.488465 kJ/mol
# Density = 1.779204 g / cm^3
# Si number density = 17.832625 Si / 1000 Ang^3
#
#
#
# Elastic Constant Matrix: (Units=GPa)
#
#
# Indices 1 2 3 4 5 6 
#
# 1 89.3717 37.7234 19.4125 0.0000 0.0000 0.0000
# 2 37.7234 152.7549 59.4189 0.0000 0.0000 0.0000
# 3 19.4125 59.4189 117.4787 0.0000 0.0000 0.0000
# 4 0.0000 0.0000 0.0000 17.5020 0.0000 0.0000
# 5 0.0000 0.0000 0.0000 0.0000 56.0127 0.0000
# 6 0.0000 0.0000 0.0000 0.0000 0.0000 9.5938
#
#
#
# Elastic Compliance Matrix: (Units=1/GPa)
#
#
# Indices 1 2 3 4 5 6 
#
# 1 0.012529 -0.002849 -0.000629 0.000000 0.000000 0.000000
# 2 -0.002849 0.008798 -0.003979 0.000000 0.000000 0.000000
# 3 -0.000629 -0.003979 0.010629 0.000000 0.000000 0.000000
# 4 0.000000 0.000000 0.000000 0.057136 0.000000 0.000000
# 5 0.000000 0.000000 0.000000 0.000000 0.017853 0.000000
# 6 0.000000 0.000000 0.000000 0.000000 0.000000 0.104234
#
#
# Mechanical properties :
#
#
# Convention : Reuss Voigt Hill
#
# Bulk Modulus (GPa) = 58.68453 65.85721 62.27087
# Shear Modulus (GPa) = 21.57275 32.82506 27.19890
#
# Velocity S-wave (km/s) = 3.48190 4.29503 3.90966
# Velocity P-wave (km/s) = 7.01033 7.84903 7.44151
#
# Compressibility (1/GPa) = 0.01704026
#
# Stress axis : x y z
#
# Youngs Moduli (GPa) = 79.81778 113.66456 94.08534
#
# Poissons Ratio (x) = 0.32386 0.05919
# Poissons Ratio (y) = 0.22742 0.37436
# Poissons Ratio (z) = 0.05022 0.45227
#
# Static dielectric constant tensor:
#      x y z
#    x 3.266620 0.000000 0.000000 
#    y 0.000000 3.868180 0.000000 
#    z 0.000000 0.000000 3.391330 
# 
# 
# High freq. dielectric constant tensor:
#      x y z
#    x 1.695320 0.000000 0.000000 
#    y 0.000000 1.683020 0.000000 
#    z 0.000000 0.000000 1.682270 
# 
# From -- ./inp_files/21922.got.cif
#   From: 2010.03.12/outbox.cif.g09.slc.cpg/sg69_11_cif.got.tgz:21922.got - 2010.04.10 23:52:46.
