data_PCOD8285225
_publ_section_title
;
Structure prediction by ZEFSAII (Michael W. Deem and Ramdas Pophale) SiO2 
 PCOD8285225
Probable space group: F M M M
;
_chemical_formula_sum "Si O2"
_cell_formula_units_Z 144
_cell_length_a 13.994632
_cell_length_b 18.408067
_cell_length_c 27.553973
_cell_angle_alpha 90.000000
_cell_angle_beta 90.000000
_cell_angle_gamma 90.000000
_cell_volume 7098.292603
_symmetry_space_group_name_H-M "F M M M"
_symmetry_group_IT_number 69
_symmetry_cell_setting 'orthorhombic'
loop_
_space_group_symop_operation_xyz
x,y,z
-x,-y,z
x,-y,-z
-x,y,-z
-x,-y,-z
x,y,-z
-x,y,z
x,-y,z
x,1/2+y,1/2+z
-x,1/2-y,1/2+z
x,1/2-y,1/2-z
-x,1/2+y,1/2-z
-x,1/2-y,1/2-z
x,1/2+y,1/2-z
-x,1/2+y,1/2+z
x,1/2-y,1/2+z
1/2+x,y,1/2+z
1/2-x,-y,1/2+z
1/2+x,-y,1/2-z
1/2-x,y,1/2-z
1/2-x,-y,1/2-z
1/2+x,y,1/2-z
1/2-x,y,1/2+z
1/2+x,-y,1/2+z
1/2+x,1/2+y,z
1/2-x,1/2-y,z
1/2+x,1/2-y,-z
1/2-x,1/2+y,-z
1/2-x,1/2-y,-z
1/2+x,1/2+y,-z
1/2-x,1/2+y,z
1/2+x,1/2-y,z
loop_
_atom_site_type_symbol
_atom_site_label
_atom_site_fract_x
_atom_site_fract_y
_atom_site_fract_z
Si Si1 0.000000 0.894864 0.445714
Si Si2 0.647445 0.139136 0.385366
Si Si3 0.389485 0.000000 0.447190
Si Si4 0.500000 0.275776 0.054488
Si Si5 0.845921 0.916807 0.368347
Si Si6 0.000000 0.156407 0.696391
Si Si7 0.500000 0.672417 0.809343
O O1 0.000000 0.809215 0.447733
O O2 0.906018 0.921732 0.417897
O O3 0.000000 0.927585 0.500000
O O4 0.597624 0.201790 0.417720
O O5 0.760453 0.142491 0.374525
O O6 0.593488 0.136842 0.333833
O O7 0.639816 0.067483 0.416114
O O8 0.500000 0.000000 0.456755
O O9 0.337565 0.000000 0.500000
O O10 0.500000 0.309503 0.000000
O O11 0.907441 0.884184 0.324337
O O12 0.812818 0.000000 0.355848
O O13 0.000000 0.240940 0.681625
O O14 0.000000 0.148990 0.753951
#
# Coordination Sequence:
#
# PCOD8285225 Si02
#       7
#    16  32  16  16  32  16  16
#     4  10  23  40  58  82 117 162 209 247 284 347
#     4  11  21  37  59  92 118 154 194 247 296 360
#     4  11  20  34  56  86 128 162 192 237 298 357
#     4  10  21  37  58  88 121 154 196 250 307 347
#     4  11  23  41  59  87 121 158 200 240 296 352
#     4  10  23  45  63  86 116 160 197 251 300 352
#     4  10  23  41  67  90 115 148 202 249 309 361
#
# _framework density 20.286567999999999
#
# number of rings (size 3 to 8) (size 9 to 14) (size 15 to 20)
#    0.000    1.444    3.333    4.667    0.000    7.111 
#    4.000    5.556    0.000    0.000    0.000    0.000 
#    0.000    0.000    0.000    0.000    0.000    0.000 
#
# Total GULP energy -446130.987700 kJ/mol
# GULP energy per Si atom -12392.527436 kJ/mol
# Density = 2.024040 g / cm^3
# Si number density = 20.286568 Si / 1000 Ang^3
#
#
#
# Elastic Constant Matrix: (Units=GPa)
#
#
# Indices 1 2 3 4 5 6 
#
# 1 149.0087 25.5124 54.0876 0.0000 0.0000 0.0000
# 2 25.5124 80.8764 39.9799 0.0000 0.0000 0.0000
# 3 54.0876 39.9799 162.2127 0.0000 0.0000 0.0000
# 4 0.0000 0.0000 0.0000 39.2257 0.0000 0.0000
# 5 0.0000 0.0000 0.0000 0.0000 15.8690 0.0000
# 6 0.0000 0.0000 0.0000 0.0000 0.0000 25.7863
#
#
#
# Elastic Compliance Matrix: (Units=1/GPa)
#
#
# Indices 1 2 3 4 5 6 
#
# 1 0.007759 -0.001331 -0.002259 0.000000 0.000000 0.000000
# 2 -0.001331 0.014308 -0.003083 0.000000 0.000000 0.000000
# 3 -0.002259 -0.003083 0.007678 0.000000 0.000000 0.000000
# 4 0.000000 0.000000 0.000000 0.025493 0.000000 0.000000
# 5 0.000000 0.000000 0.000000 0.000000 0.063016 0.000000
# 6 0.000000 0.000000 0.000000 0.000000 0.000000 0.038780
#
#
# Mechanical properties :
#
#
# Convention : Reuss Voigt Hill
#
# Bulk Modulus (GPa) = 60.97695 70.13974 65.55834
# Shear Modulus (GPa) = 28.43389 34.34406 31.38897
#
# Velocity S-wave (km/s) = 3.74787 4.11901 3.93781
# Velocity P-wave (km/s) = 6.98940 7.56777 7.28433
#
# Compressibility (1/GPa) = 0.01639964
#
# Stress axis : x y z
#
# Youngs Moduli (GPa) = 128.88459 69.88977 130.24560
#
# Poissons Ratio (x) = 0.09301 0.29424
# Poissons Ratio (y) = 0.17152 0.40152
# Poissons Ratio (z) = 0.29116 0.21545
#
# Static dielectric constant tensor:
#      x y z
#    x 8.563680 0.000000 0.000000 
#    y 0.000000 3.565140 0.000000 
#    z 0.000000 0.000000 4.202670 
# 
# 
# High freq. dielectric constant tensor:
#      x y z
#    x 1.785800 0.000000 0.000000 
#    y 0.000000 1.801350 0.000000 
#    z 0.000000 0.000000 1.799290 
# 
# From -- ./inp_files/45668.got.cif
#   From: 2010.03.12/outbox.cif.g09.slc.cpg/sg69_23_cif.got.tgz:45668.got - 2010.04.10 23:52:46.
