data_PCOD8285805
_publ_section_title
;
Structure prediction by ZEFSAII (Michael W. Deem and Ramdas Pophale) SiO2 
 PCOD8285805
Probable space group: F D D D
;
_chemical_formula_sum "Si O2"
_cell_formula_units_Z 152
_cell_length_a 25.791301
_cell_length_b 11.768710
_cell_length_c 25.647838
_cell_angle_alpha 90.000000
_cell_angle_beta 90.000000
_cell_angle_gamma 90.000000
_cell_volume 7784.897039
_symmetry_space_group_name_H-M "F D D D"
_symmetry_group_IT_number 70
_space_group.IT_coordinate_system_code '2'
_symmetry_cell_setting 'orthorhombic'
loop_
_space_group_symop_operation_xyz
x,y,z
1/4-x,1/4-y,z
x,1/4-y,1/4-z
1/4-x,y,1/4-z
-x,-y,-z
3/4+x,3/4+y,-z
-x,3/4+y,3/4+z
3/4+x,-y,3/4+z
x,1/2+y,1/2+z
1/4-x,3/4-y,1/2+z
x,3/4-y,3/4-z
1/4-x,1/2+y,3/4-z
-x,1/2-y,1/2-z
3/4+x,1/4+y,1/2-z
-x,1/4+y,1/4+z
3/4+x,1/2-y,1/4+z
1/2+x,y,1/2+z
3/4-x,1/4-y,1/2+z
1/2+x,1/4-y,3/4-z
3/4-x,y,3/4-z
1/2-x,-y,1/2-z
1/4+x,3/4+y,1/2-z
1/2-x,3/4+y,1/4+z
1/4+x,-y,1/4+z
1/2+x,1/2+y,z
3/4-x,3/4-y,z
1/2+x,3/4-y,1/4-z
3/4-x,1/2+y,1/4-z
1/2-x,1/2-y,-z
1/4+x,1/4+y,-z
1/2-x,1/4+y,3/4+z
1/4+x,1/2-y,3/4+z
loop_
_atom_site_type_symbol
_atom_site_label
_atom_site_fract_x
_atom_site_fract_y
_atom_site_fract_z
Si Si1 0.815371 0.068981 0.429344
Si Si2 0.442566 0.125000 0.625000
Si Si3 0.375000 0.375000 0.375000
Si Si4 0.293750 0.821124 0.235863
Si Si5 0.039366 0.510040 0.645922
Si Si6 0.352509 0.703076 0.523075
O O1 0.757891 0.051102 0.452525
O O2 0.815852 0.148187 0.377602
O O3 0.853885 0.123590 0.472139
O O4 0.838069 0.948631 0.412332
O O5 0.479519 0.013049 0.625588
O O6 0.409210 0.124266 0.572872
O O7 0.287718 0.762886 0.291987
O O8 0.342937 0.758078 0.211116
O O9 0.307267 0.954877 0.239144
O O10 0.068314 0.625000 0.625000
#
# Coordination Sequence:
#
# PCOD8285805 Si02
#       6
#    32  16   8  32  32  32
#     4  12  22  47  59  92 136 165 215 263 302 393
#     4  10  18  35  62 101 120 159 193 272 330 356
#     4  12  32  42  62  84 132 192 214 238 312 388
#     4  11  21  36  67  99 125 162 203 274 332 361
#     4  10  18  35  69  94 117 162 202 277 324 344
#     4  11  21  37  66 101 128 155 212 269 323 374
#
# _framework density 19.524985000000001
#
# number of rings (size 3 to 8) (size 9 to 14) (size 15 to 20)
#    0.632    0.421    6.316    1.895    0.000    0.842 
#    0.000    8.421    0.000    0.000    0.000    0.000 
#    0.000    0.000    0.000    0.000    0.000    0.000 
#
# Total GULP energy -470994.411437 kJ/mol
# GULP energy per Si atom -12394.589775 kJ/mol
# Density = 1.948055 g / cm^3
# Si number density = 19.524985 Si / 1000 Ang^3
#
#
#
# Elastic Constant Matrix: (Units=GPa)
#
#
# Indices 1 2 3 4 5 6 
#
# 1 82.1114 39.9137 21.3342 0.0000 0.0000 0.0000
# 2 39.9137 111.9317 52.6682 0.0000 0.0000 0.0000
# 3 21.3342 52.6682 124.3386 0.0000 0.0000 0.0000
# 4 0.0000 0.0000 0.0000 27.0070 0.0000 0.0000
# 5 0.0000 0.0000 0.0000 0.0000 19.7021 0.0000
# 6 0.0000 0.0000 0.0000 0.0000 0.0000 22.4084
#
#
#
# Elastic Compliance Matrix: (Units=1/GPa)
#
#
# Indices 1 2 3 4 5 6 
#
# 1 0.014746 -0.005080 -0.000378 0.000000 0.000000 0.000000
# 2 -0.005080 0.012908 -0.004596 0.000000 0.000000 0.000000
# 3 -0.000378 -0.004596 0.010054 0.000000 0.000000 0.000000
# 4 0.000000 0.000000 0.000000 0.037027 0.000000 0.000000
# 5 0.000000 0.000000 0.000000 0.000000 0.050756 0.000000
# 6 0.000000 0.000000 0.000000 0.000000 0.000000 0.044626
#
#
# Mechanical properties :
#
#
# Convention : Reuss Voigt Hill
#
# Bulk Modulus (GPa) = 56.81970 60.69044 58.75507
# Shear Modulus (GPa) = 25.49792 27.45454 26.47623
#
# Velocity S-wave (km/s) = 3.61766 3.75390 3.68641
# Velocity P-wave (km/s) = 6.82746 7.06682 6.94817
#
# Compressibility (1/GPa) = 0.01759953
#
# Stress axis : x y z
#
# Youngs Moduli (GPa) = 67.81308 77.46958 99.46014
#
# Poissons Ratio (x) = 0.39358 0.03762
# Poissons Ratio (y) = 0.34452 0.45713
# Poissons Ratio (z) = 0.02565 0.35606
#
# Static dielectric constant tensor:
#      x y z
#    x 3.608680 0.000000 0.000000 
#    y 0.000000 3.300390 0.000000 
#    z 0.000000 0.000000 3.447570 
# 
# 
# High freq. dielectric constant tensor:
#      x y z
#    x 1.762560 0.000000 0.000000 
#    y 0.000000 1.728300 0.000000 
#    z 0.000000 0.000000 1.768880 
# 
# From -- ./inp_files/54918.got.cif
#   From: 2010.03.12/outbox.cif.g09.slc.cpg/sg70_28_cif.got.tgz:54918.got - 2010.04.16 13:46:32.
