data_PCOD8285915
_publ_section_title
;
Structure prediction by ZEFSAII (Michael W. Deem and Ramdas Pophale) SiO2 
 PCOD8285915
Probable space group: F D D D
;
_chemical_formula_sum "Si O2"
_cell_formula_units_Z 160
_cell_length_a 16.866772
_cell_length_b 26.337449
_cell_length_c 18.823076
_cell_angle_alpha 90.000000
_cell_angle_beta 90.000000
_cell_angle_gamma 90.000000
_cell_volume 8361.732650
_symmetry_space_group_name_H-M "F D D D"
_symmetry_group_IT_number 70
_space_group.IT_coordinate_system_code '2'
_symmetry_cell_setting 'orthorhombic'
loop_
_space_group_symop_operation_xyz
x,y,z
1/4-x,1/4-y,z
x,1/4-y,1/4-z
1/4-x,y,1/4-z
-x,-y,-z
3/4+x,3/4+y,-z
-x,3/4+y,3/4+z
3/4+x,-y,3/4+z
x,1/2+y,1/2+z
1/4-x,3/4-y,1/2+z
x,3/4-y,3/4-z
1/4-x,1/2+y,3/4-z
-x,1/2-y,1/2-z
3/4+x,1/4+y,1/2-z
-x,1/4+y,1/4+z
3/4+x,1/2-y,1/4+z
1/2+x,y,1/2+z
3/4-x,1/4-y,1/2+z
1/2+x,1/4-y,3/4-z
3/4-x,y,3/4-z
1/2-x,-y,1/2-z
1/4+x,3/4+y,1/2-z
1/2-x,3/4+y,1/4+z
1/4+x,-y,1/4+z
1/2+x,1/2+y,z
3/4-x,3/4-y,z
1/2+x,3/4-y,1/4-z
3/4-x,1/2+y,1/4-z
1/2-x,1/2-y,-z
1/4+x,1/4+y,-z
1/2-x,1/4+y,3/4+z
1/4+x,1/2-y,3/4+z
loop_
_atom_site_type_symbol
_atom_site_label
_atom_site_fract_x
_atom_site_fract_y
_atom_site_fract_z
Si Si1 0.001617 0.320683 0.620693
Si Si2 0.112366 0.305045 0.740700
Si Si3 0.665606 0.348370 0.443718
Si Si4 0.463791 0.070448 0.404828
Si Si5 0.857406 0.996001 0.624576
O O1 0.915709 0.298933 0.601380
O O2 0.035953 0.294300 0.691985
O O3 0.058542 0.309545 0.555316
O O4 0.998521 0.381054 0.635044
O O5 0.101589 0.359247 0.781403
O O6 0.126115 0.257625 0.792215
O O7 0.710996 0.375000 0.375000
O O8 0.719921 0.332204 0.510587
O O9 0.623052 0.296559 0.419376
O O10 0.375000 0.060847 0.375000
O O11 0.516686 0.021259 0.387024
#
# Coordination Sequence:
#
# PCOD8285915 Si02
#       5
#    32  32  32  32  32
#     4  10  19  37  58  78 114 146 183 230 289 335
#     4   9  19  37  57  80 114 146 175 234 289 331
#     4   9  19  38  57  79 114 150 180 228 288 334
#     4  11  21  38  56  79 118 150 185 234 285 330
#     4  11  22  32  61  87 104 144 200 226 273 345
#
# _framework density 19.134789999999999
#
# number of rings (size 3 to 8) (size 9 to 14) (size 15 to 20)
#    0.000    2.000    4.000    1.800    2.800    0.000 
#    0.000    0.000    0.000    0.000    0.000    2.800 
#    0.000    0.000    0.000    0.000    0.000    0.000 
#
# Total GULP energy -495623.138264 kJ/mol
# GULP energy per Si atom -12390.578457 kJ/mol
# Density = 1.909124 g / cm^3
# Si number density = 19.134790 Si / 1000 Ang^3
#
#
#
# Elastic Constant Matrix: (Units=GPa)
#
#
# Indices 1 2 3 4 5 6 
#
# 1 91.9451 52.0912 27.5035 0.0000 0.0000 0.0000
# 2 52.0912 78.9810 30.5639 0.0000 0.0000 0.0000
# 3 27.5035 30.5639 110.6528 0.0000 0.0000 0.0000
# 4 0.0000 0.0000 0.0000 28.5366 0.0000 0.0000
# 5 0.0000 0.0000 0.0000 0.0000 11.6675 0.0000
# 6 0.0000 0.0000 0.0000 0.0000 0.0000 23.4993
#
#
#
# Elastic Compliance Matrix: (Units=1/GPa)
#
#
# Indices 1 2 3 4 5 6 
#
# 1 0.017531 -0.011058 -0.001303 0.000000 0.000000 0.000000
# 2 -0.011058 0.021152 -0.003094 0.000000 0.000000 0.000000
# 3 -0.001303 -0.003094 0.010216 0.000000 0.000000 0.000000
# 4 0.000000 0.000000 0.000000 0.035043 0.000000 0.000000
# 5 0.000000 0.000000 0.000000 0.000000 0.085708 0.000000
# 6 0.000000 0.000000 0.000000 0.000000 0.000000 0.042554
#
#
# Mechanical properties :
#
#
# Convention : Reuss Voigt Hill
#
# Bulk Modulus (GPa) = 55.59130 55.76624 55.67877
# Shear Modulus (GPa) = 20.07151 24.16870 22.12010
#
# Velocity S-wave (km/s) = 3.24227 3.55783 3.40371
# Velocity P-wave (km/s) = 6.56749 6.78857 6.67895
#
# Compressibility (1/GPa) = 0.01798843
#
# Stress axis : x y z
#
# Youngs Moduli (GPa) = 57.04281 47.27742 97.88836
#
# Poissons Ratio (x) = 0.52279 0.12755
# Poissons Ratio (y) = 0.63078 0.30285
# Poissons Ratio (z) = 0.07433 0.14627
#
# Static dielectric constant tensor:
#      x y z
#    x 3.070570 0.000000 0.000000 
#    y 0.000000 3.596150 0.000000 
#    z 0.000000 0.000000 3.867550 
# 
# 
# High freq. dielectric constant tensor:
#      x y z
#    x 1.699090 0.000000 0.000000 
#    y 0.000000 1.750840 0.000000 
#    z 0.000000 0.000000 1.759380 
# 
# From -- ./inp_files/35099.got.cif
#   From: 2010.03.12/outbox.cif.g09.slc.cpg/sg70_18_cif.got.tgz:35099.got - 2010.04.16 13:46:32.
