data_PCOD8285590
_publ_section_title
;
Structure prediction by ZEFSAII (Michael W. Deem and Ramdas Pophale) SiO2 
 PCOD8285590
Probable space group: F M M M
;
_chemical_formula_sum "Si O2"
_cell_formula_units_Z 160
_cell_length_a 20.895085
_cell_length_b 23.221596
_cell_length_c 14.889759
_cell_angle_alpha 90.000000
_cell_angle_beta 90.000000
_cell_angle_gamma 90.000000
_cell_volume 7224.767502
_symmetry_space_group_name_H-M "F M M M"
_symmetry_group_IT_number 69
_symmetry_cell_setting 'orthorhombic'
loop_
_space_group_symop_operation_xyz
x,y,z
-x,-y,z
x,-y,-z
-x,y,-z
-x,-y,-z
x,y,-z
-x,y,z
x,-y,z
x,1/2+y,1/2+z
-x,1/2-y,1/2+z
x,1/2-y,1/2-z
-x,1/2+y,1/2-z
-x,1/2-y,1/2-z
x,1/2+y,1/2-z
-x,1/2+y,1/2+z
x,1/2-y,1/2+z
1/2+x,y,1/2+z
1/2-x,-y,1/2+z
1/2+x,-y,1/2-z
1/2-x,y,1/2-z
1/2-x,-y,1/2-z
1/2+x,y,1/2-z
1/2-x,y,1/2+z
1/2+x,-y,1/2+z
1/2+x,1/2+y,z
1/2-x,1/2-y,z
1/2+x,1/2-y,-z
1/2-x,1/2+y,-z
1/2-x,1/2-y,-z
1/2+x,1/2+y,-z
1/2-x,1/2+y,z
1/2+x,1/2-y,z
loop_
_atom_site_type_symbol
_atom_site_label
_atom_site_fract_x
_atom_site_fract_y
_atom_site_fract_z
Si Si1 0.725205 0.563843 0.900312
Si Si2 0.106125 0.934017 0.223761
Si Si3 0.568748 0.837648 0.399684
Si Si4 0.645302 0.376779 0.399502
Si Si5 0.177594 0.747852 0.144867
O O1 0.755768 0.500000 0.893375
O O2 0.676070 0.572485 0.819790
O O3 0.780060 0.610208 0.885967
O O4 0.693732 0.571725 0.000000
O O5 0.061666 0.892099 0.166501
O O6 0.104852 0.912763 0.327062
O O7 0.081755 0.000000 0.219551
O O8 0.573866 0.862056 0.500000
O O9 0.500000 0.803950 0.387900
O O10 0.632516 0.800581 0.383674
O O11 0.621919 0.393740 0.500000
O O12 0.638975 0.308507 0.386169
O O13 0.184704 0.750000 0.250000
O O14 0.250000 0.750000 0.102696
#
# Coordination Sequence:
#
# PCOD8285590 Si02
#       5
#    32  32  32  32  32
#     4   9  18  32  54  87 126 166 210 264 326 388
#     4  11  22  38  60  88 125 169 217 268 324 386
#     4  11  25  45  69  97 129 169 218 272 332 396
#     4  11  22  36  57  89 128 171 215 265 325 389
#     4  11  23  41  67  98 132 172 220 274 331 392
#
# _framework density 22.146042000000001
#
# number of rings (size 3 to 8) (size 9 to 14) (size 15 to 20)
#    0.000    1.400    2.000    3.600    2.800    8.000 
#    0.000    1.000    0.000    0.600    0.000    1.400 
#    0.000    0.000    0.000    0.000    0.000    0.000 
#
# Total GULP energy -495716.210231 kJ/mol
# GULP energy per Si atom -12392.905256 kJ/mol
# Density = 2.209564 g / cm^3
# Si number density = 22.146042 Si / 1000 Ang^3
#
#
#
# Elastic Constant Matrix: (Units=GPa)
#
#
# Indices 1 2 3 4 5 6 
#
# 1 101.7284 38.1021 32.8172 0.0000 0.0000 0.0000
# 2 38.1021 118.9340 41.9605 0.0000 0.0000 0.0000
# 3 32.8172 41.9605 157.5118 0.0000 0.0000 0.0000
# 4 0.0000 0.0000 0.0000 26.0538 0.0000 0.0000
# 5 0.0000 0.0000 0.0000 0.0000 17.0177 0.0000
# 6 0.0000 0.0000 0.0000 0.0000 0.0000 17.3265
#
#
#
# Elastic Compliance Matrix: (Units=1/GPa)
#
#
# Indices 1 2 3 4 5 6 
#
# 1 0.011509 -0.003136 -0.001562 0.000000 0.000000 0.000000
# 2 -0.003136 0.010135 -0.002047 0.000000 0.000000 0.000000
# 3 -0.001562 -0.002047 0.007219 0.000000 0.000000 0.000000
# 4 0.000000 0.000000 0.000000 0.038382 0.000000 0.000000
# 5 0.000000 0.000000 0.000000 0.000000 0.058762 0.000000
# 6 0.000000 0.000000 0.000000 0.000000 0.000000 0.057715
#
#
# Mechanical properties :
#
#
# Convention : Reuss Voigt Hill
#
# Bulk Modulus (GPa) = 65.04765 67.10377 66.07571
# Shear Modulus (GPa) = 24.71138 29.76589 27.23864
#
# Velocity S-wave (km/s) = 3.34404 3.67014 3.51088
# Velocity P-wave (km/s) = 6.65928 6.95171 6.80706
#
# Compressibility (1/GPa) = 0.01537335
#
# Stress axis : x y z
#
# Youngs Moduli (GPa) = 86.89150 98.67178 138.51485
#
# Poissons Ratio (x) = 0.30941 0.21642
# Poissons Ratio (y) = 0.27247 0.28347
# Poissons Ratio (z) = 0.13576 0.20193
#
# Static dielectric constant tensor:
#      x y z
#    x 3.750960 0.000000 0.000000 
#    y 0.000000 4.076190 0.000000 
#    z 0.000000 0.000000 4.151200 
# 
# 
# High freq. dielectric constant tensor:
#      x y z
#    x 1.836170 0.000000 0.000000 
#    y 0.000000 1.872350 0.000000 
#    z 0.000000 0.000000 1.887540 
# 
# From -- ./inp_files/17736.got.cif
#   From: 2010.03.12/outbox.cif.g09.slc.cpg/sg69_9_cif.got.tgz:17736.got - 2010.04.10 23:52:46.
