data_PCOD8285162
_publ_section_title
;
Structure prediction by ZEFSAII (Michael W. Deem and Ramdas Pophale) SiO2 
 PCOD8285162
Probable space group: F M M M
;
_chemical_formula_sum "Si O2"
_cell_formula_units_Z 160
_cell_length_a 17.597208
_cell_length_b 20.319349
_cell_length_c 23.261744
_cell_angle_alpha 90.000000
_cell_angle_beta 90.000000
_cell_angle_gamma 90.000000
_cell_volume 8317.557830
_symmetry_space_group_name_H-M "F M M M"
_symmetry_group_IT_number 69
_symmetry_cell_setting 'orthorhombic'
loop_
_space_group_symop_operation_xyz
x,y,z
-x,-y,z
x,-y,-z
-x,y,-z
-x,-y,-z
x,y,-z
-x,y,z
x,-y,z
x,1/2+y,1/2+z
-x,1/2-y,1/2+z
x,1/2-y,1/2-z
-x,1/2+y,1/2-z
-x,1/2-y,1/2-z
x,1/2+y,1/2-z
-x,1/2+y,1/2+z
x,1/2-y,1/2+z
1/2+x,y,1/2+z
1/2-x,-y,1/2+z
1/2+x,-y,1/2-z
1/2-x,y,1/2-z
1/2-x,-y,1/2-z
1/2+x,y,1/2-z
1/2-x,y,1/2+z
1/2+x,-y,1/2+z
1/2+x,1/2+y,z
1/2-x,1/2-y,z
1/2+x,1/2-y,-z
1/2-x,1/2+y,-z
1/2-x,1/2-y,-z
1/2+x,1/2+y,-z
1/2-x,1/2+y,z
1/2+x,1/2-y,z
loop_
_atom_site_type_symbol
_atom_site_label
_atom_site_fract_x
_atom_site_fract_y
_atom_site_fract_z
Si Si1 0.586929 0.500000 0.340006
Si Si2 0.089160 0.240174 0.566725
Si Si3 0.675105 0.628734 0.935692
Si Si4 0.085835 0.000000 0.908629
Si Si5 0.675825 0.631485 0.362272
Si Si6 0.141199 0.500000 0.285068
Si Si7 0.250000 0.109794 0.250000
O O1 0.500000 0.500000 0.361200
O O2 0.628673 0.564101 0.364258
O O3 0.588820 0.500000 0.271116
O O4 0.106268 0.222367 0.500000
O O5 0.124262 0.309931 0.584826
O O6 0.124851 0.187619 0.609951
O O7 0.000000 0.243081 0.578235
O O8 0.625141 0.563777 0.934360
O O9 0.748534 0.620368 0.897560
O O10 0.703765 0.641879 0.000000
O O11 0.086860 0.000000 0.839621
O O12 0.000000 0.000000 0.930302
O O13 0.700623 0.651439 0.296497
O O14 0.194462 0.435811 0.287911
#
# Coordination Sequence:
#
# PCOD8285162 Si02
#       7
#    16  32  32  16  32  16  16
#     4  10  21  35  59  91 122 155 194 241 288 344
#     4  10  22  41  62  85 118 157 197 244 299 356
#     4  11  23  39  59  86 116 152 198 243 291 351
#     4  12  22  35  59  86 115 146 188 247 299 343
#     4  11  20  37  64  87 116 157 199 236 292 348
#     4   9  17  35  56  83 115 153 188 233 286 342
#     4   9  18  34  61  84 116 148 194 240 280 333
#
# _framework density 19.236415999999998
#
# number of rings (size 3 to 8) (size 9 to 14) (size 15 to 20)
#    0.000    1.600    2.000    4.200    0.000    3.200 
#    0.000    3.500    0.000    4.800    0.000    0.000 
#    0.000    0.000    0.000    0.000    0.000    0.000 
#
# Total GULP energy -496004.297006 kJ/mol
# GULP energy per Si atom -12400.107425 kJ/mol
# Density = 1.919263 g / cm^3
# Si number density = 19.236416 Si / 1000 Ang^3
#
#
#
# Elastic Constant Matrix: (Units=GPa)
#
#
# Indices 1 2 3 4 5 6 
#
# 1 144.8676 59.2341 54.3809 0.0000 0.0000 0.0000
# 2 59.2341 135.4573 55.3969 0.0000 0.0000 0.0000
# 3 54.3809 55.3969 95.8791 0.0000 0.0000 0.0000
# 4 0.0000 0.0000 0.0000 10.5139 0.0000 0.0000
# 5 0.0000 0.0000 0.0000 0.0000 32.4962 0.0000
# 6 0.0000 0.0000 0.0000 0.0000 0.0000 39.4843
#
#
#
# Elastic Compliance Matrix: (Units=1/GPa)
#
#
# Indices 1 2 3 4 5 6 
#
# 1 0.009386 -0.002523 -0.003865 0.000000 0.000000 0.000000
# 2 -0.002523 0.010345 -0.004546 0.000000 0.000000 0.000000
# 3 -0.003865 -0.004546 0.015249 0.000000 0.000000 0.000000
# 4 0.000000 0.000000 0.000000 0.095112 0.000000 0.000000
# 5 0.000000 0.000000 0.000000 0.000000 0.030773 0.000000
# 6 0.000000 0.000000 0.000000 0.000000 0.000000 0.025327
#
#
# Mechanical properties :
#
#
# Convention : Reuss Voigt Hill
#
# Bulk Modulus (GPa) = 76.27805 79.35866 77.81835
# Shear Modulus (GPa) = 23.53717 30.31169 26.92443
#
# Velocity S-wave (km/s) = 3.50176 3.97387 3.74526
# Velocity P-wave (km/s) = 7.48924 7.89934 7.69702
#
# Compressibility (1/GPa) = 0.01310993
#
# Stress axis : x y z
#
# Youngs Moduli (GPa) = 106.54553 96.66542 65.57955
#
# Poissons Ratio (x) = 0.24393 0.25349
# Poissons Ratio (y) = 0.26886 0.29811
# Poissons Ratio (z) = 0.41184 0.43943
#
# Static dielectric constant tensor:
#      x y z
#    x 3.573510 0.000000 0.000000 
#    y 0.000000 3.495990 0.000000 
#    z 0.000000 0.000000 3.597740 
# 
# 
# High freq. dielectric constant tensor:
#      x y z
#    x 1.758060 0.000000 0.000000 
#    y 0.000000 1.741560 0.000000 
#    z 0.000000 0.000000 1.754230 
# 
# From -- ./inp_files/36656.got.cif
#   From: 2010.03.12/outbox.cif.g09.slc.cpg/sg69_19_cif.got.tgz:36656.got - 2010.04.10 23:52:46.
