data_PCOD8285684
_publ_section_title
;
Structure prediction by ZEFSAII (Michael W. Deem and Ramdas Pophale) SiO2 
 PCOD8285684
Probable space group: F M M M
;
_chemical_formula_sum "Si O2"
_cell_formula_units_Z 176
_cell_length_a 35.667042
_cell_length_b 9.844635
_cell_length_c 29.923496
_cell_angle_alpha 90.000000
_cell_angle_beta 90.000000
_cell_angle_gamma 90.000000
_cell_volume 10507.007527
_symmetry_space_group_name_H-M "F M M M"
_symmetry_group_IT_number 69
_symmetry_cell_setting 'orthorhombic'
loop_
_space_group_symop_operation_xyz
x,y,z
-x,-y,z
x,-y,-z
-x,y,-z
-x,-y,-z
x,y,-z
-x,y,z
x,-y,z
x,1/2+y,1/2+z
-x,1/2-y,1/2+z
x,1/2-y,1/2-z
-x,1/2+y,1/2-z
-x,1/2-y,1/2-z
x,1/2+y,1/2-z
-x,1/2+y,1/2+z
x,1/2-y,1/2+z
1/2+x,y,1/2+z
1/2-x,-y,1/2+z
1/2+x,-y,1/2-z
1/2-x,y,1/2-z
1/2-x,-y,1/2-z
1/2+x,y,1/2-z
1/2-x,y,1/2+z
1/2+x,-y,1/2+z
1/2+x,1/2+y,z
1/2-x,1/2-y,z
1/2+x,1/2-y,-z
1/2-x,1/2+y,-z
1/2-x,1/2-y,-z
1/2+x,1/2+y,-z
1/2-x,1/2+y,z
1/2+x,1/2-y,z
loop_
_atom_site_type_symbol
_atom_site_label
_atom_site_fract_x
_atom_site_fract_y
_atom_site_fract_z
Si Si1 0.848116 0.650760 0.787340
Si Si2 0.215429 0.157156 0.551929
Si Si3 0.148868 0.161262 0.614109
Si Si4 0.000000 0.662184 0.050556
Si Si5 0.934177 0.838186 0.613061
Si Si6 0.062904 0.849141 0.712364
O O1 0.831132 0.500000 0.780191
O O2 0.830556 0.750000 0.750000
O O3 0.837969 0.708694 0.836528
O O4 0.892611 0.643548 0.782880
O O5 0.206630 0.176483 0.500000
O O6 0.250000 0.250000 0.567209
O O7 0.178895 0.211548 0.577919
O O8 0.224466 0.000000 0.563277
O O9 0.107494 0.219999 0.602228
O O10 0.145957 0.000000 0.614348
O O11 0.036831 0.717966 0.076173
O O12 0.000000 0.500000 0.050459
O O13 0.000000 0.718885 0.000000
O O14 0.947308 0.793266 0.662834
O O15 0.933118 0.000000 0.612072
O O16 0.045533 0.750000 0.750000
O O17 0.045960 0.000000 0.719469
#
# Coordination Sequence:
#
# PCOD8285684 Si02
#       6
#    32  32  32  16  32  32
#     4   8  13  22  37  57  80 106 136 167 198 235
#     4   9  17  29  45  64  85 109 136 168 208 251
#     4   8  14  25  41  59  80 109 141 169 201 246
#     4   9  16  24  35  54  83 115 141 171 212 249
#     4   8  14  24  37  56  83 112 140 170 206 245
#     4   8  13  22  37  56  80 108 134 164 202 241
#
# _framework density 16.750724999999999
#
# number of rings (size 3 to 8) (size 9 to 14) (size 15 to 20)
#    0.000    3.727    0.000    2.182    0.000    0.727 
#    0.000    5.000    0.000    1.636    0.000    3.818 
#    0.000    1.455    0.000    0.000    0.000    0.364 
#
# Total GULP energy -545219.665597 kJ/mol
# GULP energy per Si atom -12391.356036 kJ/mol
# Density = 1.671260 g / cm^3
# Si number density = 16.750725 Si / 1000 Ang^3
#
#
#
# Elastic Constant Matrix: (Units=GPa)
#
#
# Indices 1 2 3 4 5 6 
#
# 1 91.8028 27.7689 72.7371 -0.0001 0.0000 -0.0001
# 2 27.7689 39.2985 39.4311 -0.0001 -0.0001 -0.0006
# 3 72.7371 39.4311 136.5200 0.0000 0.0000 0.0001
# 4 -0.0001 -0.0001 0.0000 20.9305 0.0000 0.0000
# 5 0.0000 -0.0001 0.0000 0.0000 9.7502 0.0000
# 6 -0.0001 -0.0006 0.0001 0.0000 0.0000 3.3728
#
#
#
# Elastic Compliance Matrix: (Units=1/GPa)
#
#
# Indices 1 2 3 4 5 6 
#
# 1 0.019451 -0.004711 -0.009003 0.000000 0.000000 0.000000
# 2 -0.004711 0.036971 -0.008168 0.000000 0.000000 0.000007
# 3 -0.009003 -0.008168 0.014481 0.000000 0.000000 -0.000002
# 4 0.000000 0.000000 0.000000 0.047777 0.000000 0.000000
# 5 0.000000 0.000000 0.000000 0.000000 0.102562 -0.000001
# 6 0.000000 0.000007 -0.000002 0.000000 -0.000001 0.296493
#
#
# Mechanical properties :
#
#
# Convention : Reuss Voigt Hill
#
# Bulk Modulus (GPa) = 36.84806 60.83283 48.84045
# Shear Modulus (GPa) = 8.76354 15.32297 12.04325
#
# Velocity S-wave (km/s) = 2.28978 3.02779 2.68427
# Velocity P-wave (km/s) = 5.38855 6.97271 6.23118
#
# Compressibility (1/GPa) = 0.02713847
#
# Stress axis : x y z
#
# Youngs Moduli (GPa) = 51.41140 27.04816 69.05761
#
# Poissons Ratio (x) = 0.12743 0.62170
# Poissons Ratio (y) = 0.24222 0.56407
# Poissons Ratio (z) = 0.46283 0.22093
#
# Static dielectric constant tensor:
#      x y z
#    x 3.134600 0.000000 0.000000 
#    y 0.000000 2.934350 0.000000 
#    z 0.000000 0.000000 3.419000 
# 
# 
# High freq. dielectric constant tensor:
#      x y z
#    x 1.620590 0.000000 0.000000 
#    y 0.000000 1.591310 0.000000 
#    z 0.000000 0.000000 1.652790 
# 
# From -- ./inp_files/47554.got.cif
#   From: 2010.03.12/outbox.cif.g09.slc.cpg/sg69_24_cif.got.tgz:47554.got - 2010.04.10 23:52:46.
