data_PCOD8285097
_publ_section_title
;
Structure prediction by ZEFSAII (Michael W. Deem and Ramdas Pophale) SiO2 
 PCOD8285097
Probable space group: F M M M
;
_chemical_formula_sum "Si O2"
_cell_formula_units_Z 224
_cell_length_a 29.436792
_cell_length_b 20.629214
_cell_length_c 19.252956
_cell_angle_alpha 90.000000
_cell_angle_beta 90.000000
_cell_angle_gamma 90.000000
_cell_volume 11691.509276
_symmetry_space_group_name_H-M "F M M M"
_symmetry_group_IT_number 69
_symmetry_cell_setting 'orthorhombic'
loop_
_space_group_symop_operation_xyz
x,y,z
-x,-y,z
x,-y,-z
-x,y,-z
-x,-y,-z
x,y,-z
-x,y,z
x,-y,z
x,1/2+y,1/2+z
-x,1/2-y,1/2+z
x,1/2-y,1/2-z
-x,1/2+y,1/2-z
-x,1/2-y,1/2-z
x,1/2+y,1/2-z
-x,1/2+y,1/2+z
x,1/2-y,1/2+z
1/2+x,y,1/2+z
1/2-x,-y,1/2+z
1/2+x,-y,1/2-z
1/2-x,y,1/2-z
1/2-x,-y,1/2-z
1/2+x,y,1/2-z
1/2-x,y,1/2+z
1/2+x,-y,1/2+z
1/2+x,1/2+y,z
1/2-x,1/2-y,z
1/2+x,1/2-y,-z
1/2-x,1/2+y,-z
1/2-x,1/2-y,-z
1/2+x,1/2+y,-z
1/2-x,1/2+y,z
1/2+x,1/2-y,z
loop_
_atom_site_type_symbol
_atom_site_label
_atom_site_fract_x
_atom_site_fract_y
_atom_site_fract_z
Si Si1 0.111383 0.654569 0.922895
Si Si2 0.551821 0.314353 0.789109
Si Si3 0.808519 0.121340 0.920589
Si Si4 0.551665 0.575082 0.678964
Si Si5 0.895390 0.199433 0.078746
Si Si6 0.191490 0.500000 0.671692
Si Si7 0.293227 0.114824 0.078140
Si Si8 0.701309 0.000000 0.174967
O O1 0.088104 0.600139 0.876280
O O2 0.092370 0.725642 0.908658
O O3 0.166073 0.666275 0.915627
O O4 0.099797 0.630935 0.000000
O O5 0.500000 0.298033 0.806252
O O6 0.572594 0.250000 0.750000
O O7 0.557590 0.379893 0.745822
O O8 0.575632 0.334574 0.861445
O O9 0.842143 0.181980 0.909753
O O10 0.756597 0.143218 0.901977
O O11 0.824653 0.063290 0.870277
O O12 0.810764 0.096214 0.000000
O O13 0.500000 0.581727 0.650247
O O14 0.562352 0.500000 0.697421
O O15 0.909679 0.178730 0.000000
O O16 0.244919 0.500000 0.681016
O O17 0.173836 0.500000 0.751584
O O18 0.312301 0.062210 0.131368
O O19 0.290222 0.085891 0.000000
#
# Coordination Sequence:
#
# PCOD8285097 Si02
#       8
#    32  32  32  32  32  16  32  16
#     4  10  21  35  54  83 116 150 191 234 281 338
#     4  10  20  39  64  86 112 149 189 230 281 345
#     4   9  18  34  54  75 107 149 192 235 280 334
#     4  10  22  40  61  86 116 151 189 232 290 354
#     4  10  21  37  57  85 115 146 190 238 283 334
#     4   9  17  31  49  73 102 139 186 239 289 330
#     4   9  18  32  50  74 107 151 191 229 276 333
#     4   9  17  29  47  71 102 137 186 239 281 330
#
# _framework density 19.159203000000002
#
# number of rings (size 3 to 8) (size 9 to 14) (size 15 to 20)
#    0.000    2.429    1.429    0.429    1.000    4.286 
#    1.286    5.000    0.000    0.000    0.000    2.000 
#    0.000    0.000    0.000    0.000    0.000    0.000 
#
# Total GULP energy -693741.391742 kJ/mol
# GULP energy per Si atom -12388.239138 kJ/mol
# Density = 1.911560 g / cm^3
# Si number density = 19.159203 Si / 1000 Ang^3
#
#
#
# Elastic Constant Matrix: (Units=GPa)
#
#
# Indices 1 2 3 4 5 6 
#
# 1 84.3433 36.3027 53.9551 0.0000 0.0000 0.0000
# 2 36.3027 88.0346 40.7337 0.0000 0.0000 0.0000
# 3 53.9551 40.7337 117.9164 0.0000 0.0000 0.0000
# 4 0.0000 0.0000 0.0000 26.3331 0.0000 0.0000
# 5 0.0000 0.0000 0.0000 0.0000 28.0461 0.0000
# 6 0.0000 0.0000 0.0000 0.0000 0.0000 26.9712
#
#
#
# Elastic Compliance Matrix: (Units=1/GPa)
#
#
# Indices 1 2 3 4 5 6 
#
# 1 0.018039 -0.004308 -0.006766 0.000000 0.000000 0.000000
# 2 -0.004308 0.014549 -0.003055 0.000000 0.000000 0.000000
# 3 -0.006766 -0.003055 0.012632 0.000000 0.000000 0.000000
# 4 0.000000 0.000000 0.000000 0.037975 0.000000 0.000000
# 5 0.000000 0.000000 0.000000 0.000000 0.035656 0.000000
# 6 0.000000 0.000000 0.000000 0.000000 0.000000 0.037077
#
#
# Mechanical properties :
#
#
# Convention : Reuss Voigt Hill
#
# Bulk Modulus (GPa) = 58.95398 61.36415 60.15906
# Shear Modulus (GPa) = 26.33828 26.89026 26.61427
#
# Velocity S-wave (km/s) = 3.71173 3.75042 3.73112
# Velocity P-wave (km/s) = 7.01474 7.13108 7.07315
#
# Compressibility (1/GPa) = 0.01696238
#
# Stress axis : x y z
#
# Youngs Moduli (GPa) = 55.43641 68.73285 79.16622
#
# Poissons Ratio (x) = 0.29610 0.53562
# Poissons Ratio (y) = 0.23882 0.24183
# Poissons Ratio (z) = 0.37507 0.20996
#
# Static dielectric constant tensor:
#      x y z
#    x 3.468730 0.000000 0.000000 
#    y 0.000000 3.331250 0.000000 
#    z 0.000000 0.000000 3.740600 
# 
# 
# High freq. dielectric constant tensor:
#      x y z
#    x 1.738190 0.000000 0.000000 
#    y 0.000000 1.726260 0.000000 
#    z 0.000000 0.000000 1.747920 
# 
# From -- ./inp_files/27977.got.cif
#   From: 2010.03.12/outbox.cif.g09.slc.cpg/sg69_14_cif.got.tgz:27977.got - 2010.04.10 23:52:46.
