data_PCOD8285137
_publ_section_title
;
Structure prediction by ZEFSAII (Michael W. Deem and Ramdas Pophale) SiO2 
 PCOD8285137
Probable space group: F M M M
;
_chemical_formula_sum "Si O2"
_cell_formula_units_Z 112
_cell_length_a 35.845614
_cell_length_b 10.022677
_cell_length_c 17.751423
_cell_angle_alpha 90.000000
_cell_angle_beta 90.000000
_cell_angle_gamma 90.000000
_cell_volume 6377.536185
_symmetry_space_group_name_H-M "F M M M"
_symmetry_group_IT_number 69
_symmetry_cell_setting 'orthorhombic'
loop_
_space_group_symop_operation_xyz
x,y,z
-x,-y,z
x,-y,-z
-x,y,-z
-x,-y,-z
x,y,-z
-x,y,z
x,-y,z
x,1/2+y,1/2+z
-x,1/2-y,1/2+z
x,1/2-y,1/2-z
-x,1/2+y,1/2-z
-x,1/2-y,1/2-z
x,1/2+y,1/2-z
-x,1/2+y,1/2+z
x,1/2-y,1/2+z
1/2+x,y,1/2+z
1/2-x,-y,1/2+z
1/2+x,-y,1/2-z
1/2-x,y,1/2-z
1/2-x,-y,1/2-z
1/2+x,y,1/2-z
1/2-x,y,1/2+z
1/2+x,-y,1/2+z
1/2+x,1/2+y,z
1/2-x,1/2-y,z
1/2+x,1/2-y,-z
1/2-x,1/2+y,-z
1/2-x,1/2-y,-z
1/2+x,1/2+y,-z
1/2-x,1/2+y,z
1/2+x,1/2-y,z
loop_
_atom_site_type_symbol
_atom_site_label
_atom_site_fract_x
_atom_site_fract_y
_atom_site_fract_z
Si Si1 0.863440 0.649503 0.089529
Si Si2 0.000000 0.846011 0.179407
Si Si3 0.926105 0.652354 0.412237
Si Si4 0.280477 0.350547 0.589668
O O1 0.873863 0.500000 0.116815
O O2 0.893495 0.754049 0.121798
O O3 0.821974 0.688385 0.118492
O O4 0.863606 0.655103 0.000000
O O5 0.000000 0.750000 0.250000
O O6 0.035888 0.812751 0.129628
O O7 0.000000 0.000000 0.205810
O O8 0.932906 0.680946 0.500000
O O9 0.913815 0.500000 0.398686
O O10 0.279647 0.342791 0.500000
O O11 0.270381 0.500000 0.616225
O O12 0.250000 0.250000 0.625019
#
# Coordination Sequence:
#
# PCOD8285137 Si02
#       4
#    32  16  32  32
#     4   8  14  24  37  56  83 112 143 180 218 255
#     4  10  21  35  49  67  91 116 144 180 222 266
#     4   9  17  30  48  67  87 114 148 184 220 259
#     4   8  13  20  30  47  75 110 143 174 209 249
#
# _framework density 17.561640000000001
#
# number of rings (size 3 to 8) (size 9 to 14) (size 15 to 20)
#    0.000    3.429    0.000    2.143    0.000    4.000 
#    0.000    5.714    0.000    4.286    0.000    0.000 
#    0.000    1.143    0.000   12.571    0.000   20.571 
#
# Total GULP energy -347032.725071 kJ/mol
# GULP energy per Si atom -12394.025895 kJ/mol
# Density = 1.752167 g / cm^3
# Si number density = 17.561640 Si / 1000 Ang^3
#
#
#
# Elastic Constant Matrix: (Units=GPa)
#
#
# Indices 1 2 3 4 5 6 
#
# 1 179.0485 120.7877 30.1657 0.0000 0.0000 0.0000
# 2 120.7877 133.7334 32.0866 0.0000 0.0000 0.0000
# 3 30.1657 32.0866 25.8337 0.0000 0.0000 0.0000
# 4 0.0000 0.0000 0.0000 16.3322 0.0000 0.0000
# 5 0.0000 0.0000 0.0000 0.0000 -0.9853 0.0000
# 6 0.0000 0.0000 0.0000 0.0000 0.0000 42.1041
#
#
#
# Elastic Compliance Matrix: (Units=1/GPa)
#
#
# Indices 1 2 3 4 5 6 
#
# 1 0.014311 -0.012701 -0.000935 0.000000 0.000000 0.000000
# 2 -0.012701 0.021925 -0.012400 0.000000 0.000000 0.000000
# 3 -0.000935 -0.012400 0.055203 0.000000 0.000000 0.000000
# 4 0.000000 0.000000 0.000000 0.061229 0.000000 0.000000
# 5 0.000000 0.000000 0.000000 0.000000 -1.014878 0.000000
# 6 0.000000 0.000000 0.000000 0.000000 0.000000 0.023751
#
#
# Mechanical properties :
#
#
# Convention : Reuss Voigt Hill
#
# Bulk Modulus (GPa) = 25.40327 78.29951 51.85139
# Shear Modulus (GPa) = -6.46609 21.86190 7.69790
#
# Velocity S-wave (km/s) = -1.92092 3.53209 2.09592
# Velocity P-wave (km/s) = 3.09462 7.83049 5.95371
#
# Compressibility (1/GPa) = 0.03936500
#
# Stress axis : x y z
#
# Youngs Moduli (GPa) = 69.87585 45.61092 18.11506
#
# Poissons Ratio (x) = 0.57932 0.01694
# Poissons Ratio (y) = 0.88752 0.22463
# Poissons Ratio (z) = 0.06535 0.56558
#
# Static dielectric constant tensor:
#      x y z
#    x 3.638580 0.000000 0.000000 
#    y 0.000000 3.504340 0.000000 
#    z 0.000000 0.000000 2.633200 
# 
# 
# High freq. dielectric constant tensor:
#      x y z
#    x 1.691890 0.000000 0.000000 
#    y 0.000000 1.683800 0.000000 
#    z 0.000000 0.000000 1.610780 
# 
# From -- ./inp_files/7306.got.cif
#   From: 2010.03.12/outbox.cif.g09.slc.cpg/sg69_4_cif.got.tgz:7306.got - 2010.04.10 23:52:46.
