data_PCOD8285821
_publ_section_title
;
Structure prediction by ZEFSAII (Michael W. Deem and Ramdas Pophale) SiO2 
 PCOD8285821
Probable space group: F D D D
;
_chemical_formula_sum "Si O2"
_cell_formula_units_Z 240
_cell_length_a 19.677204
_cell_length_b 21.309397
_cell_length_c 25.347518
_cell_angle_alpha 90.000000
_cell_angle_beta 90.000000
_cell_angle_gamma 90.000000
_cell_volume 10628.451344
_symmetry_space_group_name_H-M "F D D D"
_symmetry_group_IT_number 70
_space_group.IT_coordinate_system_code '2'
_symmetry_cell_setting 'orthorhombic'
loop_
_space_group_symop_operation_xyz
x,y,z
1/4-x,1/4-y,z
x,1/4-y,1/4-z
1/4-x,y,1/4-z
-x,-y,-z
3/4+x,3/4+y,-z
-x,3/4+y,3/4+z
3/4+x,-y,3/4+z
x,1/2+y,1/2+z
1/4-x,3/4-y,1/2+z
x,3/4-y,3/4-z
1/4-x,1/2+y,3/4-z
-x,1/2-y,1/2-z
3/4+x,1/4+y,1/2-z
-x,1/4+y,1/4+z
3/4+x,1/2-y,1/4+z
1/2+x,y,1/2+z
3/4-x,1/4-y,1/2+z
1/2+x,1/4-y,3/4-z
3/4-x,y,3/4-z
1/2-x,-y,1/2-z
1/4+x,3/4+y,1/2-z
1/2-x,3/4+y,1/4+z
1/4+x,-y,1/4+z
1/2+x,1/2+y,z
3/4-x,3/4-y,z
1/2+x,3/4-y,1/4-z
3/4-x,1/2+y,1/4-z
1/2-x,1/2-y,-z
1/4+x,1/4+y,-z
1/2-x,1/4+y,3/4+z
1/4+x,1/2-y,3/4+z
loop_
_atom_site_type_symbol
_atom_site_label
_atom_site_fract_x
_atom_site_fract_y
_atom_site_fract_z
Si Si1 0.543152 0.772556 0.700439
Si Si2 0.018559 0.004070 0.201702
Si Si3 0.077036 0.229972 0.866013
Si Si4 0.051981 0.305376 0.354271
Si Si5 0.751520 0.858516 0.997551
Si Si6 0.634052 0.397156 0.063408
Si Si7 0.625000 0.625000 0.311267
Si Si8 0.107511 0.195990 0.495300
O O1 0.500000 0.750000 0.750000
O O2 0.502403 0.755235 0.646188
O O3 0.558925 0.846838 0.704771
O O4 0.614152 0.735201 0.704520
O O5 0.989599 0.007774 0.141717
O O6 0.024759 0.073998 0.224319
O O7 0.090362 0.967860 0.199555
O O8 0.971916 0.961440 0.239930
O O9 0.118405 0.285247 0.895882
O O10 0.079199 0.169712 0.903092
O O11 0.109319 0.216577 0.809512
O O12 0.049277 0.375000 0.375000
O O13 0.017176 0.306656 0.296716
O O14 0.686706 0.866605 0.034695
O O15 0.819312 0.834918 0.027910
O O16 0.625000 0.387837 0.125000
O O17 0.125000 0.125000 0.507552
#
# Coordination Sequence:
#
# PCOD8285821 Si02
#       8
#    32  32  32  32  32  32  16  32
#     4  10  21  39  68 101 134 176 228 289 348 420
#     4  10  22  44  67  98 135 186 225 289 360 416
#     4  10  21  38  66  96 131 177 229 280 345 413
#     4   9  22  43  68  92 139 180 232 286 351 425
#     4  11  26  46  66 102 139 180 240 294 351 430
#     4  12  26  43  70 104 146 183 236 296 360 430
#     4  12  26  42  67  98 134 182 231 296 344 416
#     4  10  18  37  66  97 136 174 226 275 342 427
#
# _framework density 22.5809
#
# number of rings (size 3 to 8) (size 9 to 14) (size 15 to 20)
#    0.000    1.600    2.000    2.400    9.333    1.600 
#    0.000    2.333    0.000    0.000    0.000    0.000 
#    0.000    0.000    0.000    0.000    0.000    0.000 
#
# Total GULP energy -743663.634927 kJ/mol
# GULP energy per Si atom -12394.393915 kJ/mol
# Density = 2.252950 g / cm^3
# Si number density = 22.580900 Si / 1000 Ang^3
#
#
#
# Elastic Constant Matrix: (Units=GPa)
#
#
# Indices 1 2 3 4 5 6 
#
# 1 119.1888 30.6840 57.6074 0.0000 0.0000 0.0000
# 2 30.6840 86.8548 28.0639 0.0000 0.0000 0.0000
# 3 57.6074 28.0639 103.3514 0.0000 0.0000 0.0000
# 4 0.0000 0.0000 0.0000 8.6788 0.0000 0.0000
# 5 0.0000 0.0000 0.0000 0.0000 60.2001 0.0000
# 6 0.0000 0.0000 0.0000 0.0000 0.0000 23.3432
#
#
#
# Elastic Compliance Matrix: (Units=1/GPa)
#
#
# Indices 1 2 3 4 5 6 
#
# 1 0.011873 -0.002254 -0.006006 0.000000 0.000000 0.000000
# 2 -0.002254 0.013049 -0.002287 0.000000 0.000000 0.000000
# 3 -0.006006 -0.002287 0.013644 0.000000 0.000000 0.000000
# 4 0.000000 0.000000 0.000000 0.115223 0.000000 0.000000
# 5 0.000000 0.000000 0.000000 0.000000 0.016611 0.000000
# 6 0.000000 0.000000 0.000000 0.000000 0.000000 0.042839
#
#
# Mechanical properties :
#
#
# Convention : Reuss Voigt Hill
#
# Bulk Modulus (GPa) = 57.23244 60.23394 58.73319
# Shear Modulus (GPa) = 20.81970 31.31374 26.06672
#
# Velocity S-wave (km/s) = 3.03975 3.72793 3.40129
# Velocity P-wave (km/s) = 6.14171 6.72775 6.44140
#
# Compressibility (1/GPa) = 0.01747261
#
# Stress axis : x y z
#
# Youngs Moduli (GPa) = 84.22339 76.63622 73.29003
#
# Poissons Ratio (x) = 0.17273 0.44018
# Poissons Ratio (y) = 0.18983 0.16761
# Poissons Ratio (z) = 0.50585 0.17526
#
# Static dielectric constant tensor:
#      x y z
#    x 5.990010 0.000000 0.000000 
#    y 0.000000 4.020360 0.000000 
#    z 0.000000 0.000000 4.507140 
# 
# 
# High freq. dielectric constant tensor:
#      x y z
#    x 1.892310 0.000000 0.000000 
#    y 0.000000 1.884920 0.000000 
#    z 0.000000 0.000000 1.884440 
# 
# From -- ./inp_files/60546.got.cif
#   From: 2010.03.12/outbox.cif.g09.slc.cpg/sg70_31_cif.got.tgz:60546.got - 2010.04.16 13:46:32.
