data_PCOD8285865
_publ_section_title
;
Structure prediction by ZEFSAII (Michael W. Deem and Ramdas Pophale) SiO2 
 PCOD8285865
Probable space group: F D D D
;
_chemical_formula_sum "Si O2"
_cell_formula_units_Z 208
_cell_length_a 20.747890
_cell_length_b 28.447795
_cell_length_c 16.091185
_cell_angle_alpha 90.000000
_cell_angle_beta 90.000000
_cell_angle_gamma 90.000000
_cell_volume 9497.527822
_symmetry_space_group_name_H-M "F D D D"
_symmetry_group_IT_number 70
_space_group.IT_coordinate_system_code '2'
_symmetry_cell_setting 'orthorhombic'
loop_
_space_group_symop_operation_xyz
x,y,z
1/4-x,1/4-y,z
x,1/4-y,1/4-z
1/4-x,y,1/4-z
-x,-y,-z
3/4+x,3/4+y,-z
-x,3/4+y,3/4+z
3/4+x,-y,3/4+z
x,1/2+y,1/2+z
1/4-x,3/4-y,1/2+z
x,3/4-y,3/4-z
1/4-x,1/2+y,3/4-z
-x,1/2-y,1/2-z
3/4+x,1/4+y,1/2-z
-x,1/4+y,1/4+z
3/4+x,1/2-y,1/4+z
1/2+x,y,1/2+z
3/4-x,1/4-y,1/2+z
1/2+x,1/4-y,3/4-z
3/4-x,y,3/4-z
1/2-x,-y,1/2-z
1/4+x,3/4+y,1/2-z
1/2-x,3/4+y,1/4+z
1/4+x,-y,1/4+z
1/2+x,1/2+y,z
3/4-x,3/4-y,z
1/2+x,3/4-y,1/4-z
3/4-x,1/2+y,1/4-z
1/2-x,1/2-y,-z
1/4+x,1/4+y,-z
1/2-x,1/4+y,3/4+z
1/4+x,1/2-y,3/4+z
loop_
_atom_site_type_symbol
_atom_site_label
_atom_site_fract_x
_atom_site_fract_y
_atom_site_fract_z
Si Si1 0.588101 0.708080 0.210304
Si Si2 0.956017 0.178820 0.621100
Si Si3 0.786558 0.319699 0.706541
Si Si4 0.251757 0.077873 0.797451
Si Si5 0.601017 0.023779 0.873706
Si Si6 0.625000 0.383038 0.625000
Si Si7 0.788266 0.059031 0.795790
O O1 0.625000 0.692819 0.125000
O O2 0.632867 0.697020 0.289691
O O3 0.580671 0.763677 0.222217
O O4 0.517669 0.683170 0.224518
O O5 0.928995 0.125000 0.625000
O O6 0.999174 0.187912 0.702112
O O7 0.897141 0.216596 0.616331
O O8 0.003243 0.188654 0.544441
O O9 0.791849 0.375470 0.689868
O O10 0.854653 0.292669 0.699938
O O11 0.743150 0.297012 0.634529
O O12 0.222294 0.036901 0.853772
O O13 0.325643 0.085284 0.824238
O O14 0.586957 0.352757 0.695298
#
# Coordination Sequence:
#
# PCOD8285865 Si02
#       7
#    32  32  32  32  32  16  32
#     4  10  19  33  60  91 125 159 218 268 315 401
#     4  10  22  38  61  92 125 159 211 264 321 379
#     4   9  20  39  62  90 125 164 213 263 321 396
#     4  10  22  39  61  88 124 176 211 266 325 387
#     4  11  22  37  63  90 124 165 217 267 322 386
#     4  10  20  38  64  82 131 166 221 262 332 400
#     4   9  18  33  59  90 119 170 198 261 337 377
#
# _framework density 21.900435000000002
#
# number of rings (size 3 to 8) (size 9 to 14) (size 15 to 20)
#    0.000    2.154    0.769    1.846    4.308    1.846 
#    0.000    2.308    3.385   15.692    0.000    0.000 
#    0.000    0.000    0.000    0.000    0.000    0.000 
#
# Total GULP energy -644404.099792 kJ/mol
# GULP energy per Si atom -12392.386534 kJ/mol
# Density = 2.185059 g / cm^3
# Si number density = 21.900435 Si / 1000 Ang^3
#
#
#
# Elastic Constant Matrix: (Units=GPa)
#
#
# Indices 1 2 3 4 5 6 
#
# 1 118.1571 43.1142 50.2066 0.0000 0.0000 0.0000
# 2 43.1142 72.1439 24.3299 0.0000 0.0000 0.0000
# 3 50.2066 24.3299 116.9258 0.0000 0.0000 0.0000
# 4 0.0000 0.0000 0.0000 25.8408 0.0000 0.0000
# 5 0.0000 0.0000 0.0000 0.0000 32.0659 0.0000
# 6 0.0000 0.0000 0.0000 0.0000 0.0000 33.1314
#
#
#
# Elastic Compliance Matrix: (Units=1/GPa)
#
#
# Indices 1 2 3 4 5 6 
#
# 1 0.012393 -0.006035 -0.004066 0.000000 0.000000 0.000000
# 2 -0.006035 0.017846 -0.001122 0.000000 0.000000 0.000000
# 3 -0.004066 -0.001122 0.010532 0.000000 0.000000 0.000000
# 4 0.000000 0.000000 0.000000 0.038699 0.000000 0.000000
# 5 0.000000 0.000000 0.000000 0.000000 0.031186 0.000000
# 6 0.000000 0.000000 0.000000 0.000000 0.000000 0.030183
#
#
# Mechanical properties :
#
#
# Convention : Reuss Voigt Hill
#
# Bulk Modulus (GPa) = 54.56929 60.28090 57.42509
# Shear Modulus (GPa) = 29.51732 30.84601 30.18166
#
# Velocity S-wave (km/s) = 3.67522 3.75702 3.71635
# Velocity P-wave (km/s) = 6.55597 6.81212 6.68527
#
# Compressibility (1/GPa) = 0.01832533
#
# Stress axis : x y z
#
# Youngs Moduli (GPa) = 80.69072 56.03418 94.95199
#
# Poissons Ratio (x) = 0.33817 0.38604
# Poissons Ratio (y) = 0.48698 0.10654
# Poissons Ratio (z) = 0.32806 0.06287
#
# Static dielectric constant tensor:
#      x y z
#    x 3.923360 0.000000 0.000000 
#    y 0.000000 3.875870 0.000000 
#    z 0.000000 0.000000 4.202630 
# 
# 
# High freq. dielectric constant tensor:
#      x y z
#    x 1.851710 0.000000 0.000000 
#    y 0.000000 1.843380 0.000000 
#    z 0.000000 0.000000 1.864080 
# 
# From -- ./inp_files/36873.got.cif
#   From: 2010.03.12/outbox.cif.g09.slc.cpg/sg70_19_cif.got.tgz:36873.got - 2010.04.16 13:46:32.
