data_PCOD8285382
_publ_section_title
;
Structure prediction by ZEFSAII (Michael W. Deem and Ramdas Pophale) SiO2 
 PCOD8285382
Probable space group: F M M M
;
_chemical_formula_sum "Si O2"
_cell_formula_units_Z 120
_cell_length_a 26.019537
_cell_length_b 12.409106
_cell_length_c 18.400168
_cell_angle_alpha 90.000000
_cell_angle_beta 90.000000
_cell_angle_gamma 90.000000
_cell_volume 5941.031389
_symmetry_space_group_name_H-M "F M M M"
_symmetry_group_IT_number 69
_symmetry_cell_setting 'orthorhombic'
loop_
_space_group_symop_operation_xyz
x,y,z
-x,-y,z
x,-y,-z
-x,y,-z
-x,-y,-z
x,y,-z
-x,y,z
x,-y,z
x,1/2+y,1/2+z
-x,1/2-y,1/2+z
x,1/2-y,1/2-z
-x,1/2+y,1/2-z
-x,1/2-y,1/2-z
x,1/2+y,1/2-z
-x,1/2+y,1/2+z
x,1/2-y,1/2+z
1/2+x,y,1/2+z
1/2-x,-y,1/2+z
1/2+x,-y,1/2-z
1/2-x,y,1/2-z
1/2-x,-y,1/2-z
1/2+x,y,1/2-z
1/2-x,y,1/2+z
1/2+x,-y,1/2+z
1/2+x,1/2+y,z
1/2-x,1/2-y,z
1/2+x,1/2-y,-z
1/2-x,1/2+y,-z
1/2-x,1/2-y,-z
1/2+x,1/2+y,-z
1/2-x,1/2+y,z
1/2+x,1/2-y,z
loop_
_atom_site_type_symbol
_atom_site_label
_atom_site_fract_x
_atom_site_fract_y
_atom_site_fract_z
Si Si1 0.500000 0.219728 0.000000
Si Si2 0.309007 0.875045 0.000000
Si Si3 0.388172 0.803284 0.500000
Si Si4 0.845078 0.876997 0.151110
Si Si5 0.419051 0.250000 0.250000
Si Si6 0.250000 0.250000 0.382494
Si Si7 0.500000 0.626521 0.656400
O O1 0.550006 0.297165 0.000000
O O2 0.500000 0.143156 0.070078
O O3 0.275669 0.843956 0.930178
O O4 0.364333 0.816714 0.000000
O O5 0.321391 0.000000 0.000000
O O6 0.367395 0.866606 0.569904
O O7 0.886486 0.839508 0.209089
O O8 0.793769 0.806868 0.165215
O O9 0.831486 0.000000 0.166807
O O10 0.450710 0.315963 0.309551
O O11 0.500000 0.500000 0.674672
#
# Coordination Sequence:
#
# PCOD8285382 Si02
#       7
#     8  16  16  32  16  16  16
#     4  12  21  44  63  96 126 150 209 266 303 364
#     4   9  17  33  56  85 122 160 196 253 315 361
#     4  10  22  39  62  94 125 154 211 261 306 369
#     4  11  22  42  66  90 126 167 204 260 314 362
#     4  11  24  43  62  92 130 163 216 251 302 388
#     4   9  20  35  58  90 120 156 212 254 298 374
#     4  11  24  43  66  90 126 171 204 257 320 366
#
# _framework density 20.198512000000001
#
# number of rings (size 3 to 8) (size 9 to 14) (size 15 to 20)
#    0.000    1.600    2.667    3.000    0.000    1.600 
#    0.000    8.000    0.000    0.000    0.000    0.000 
#    0.000    0.000    0.000    0.000    0.000    0.000 
#
# Total GULP energy -372084.336715 kJ/mol
# GULP energy per Si atom -12402.811224 kJ/mol
# Density = 2.015254 g / cm^3
# Si number density = 20.198512 Si / 1000 Ang^3
#
#
#
# Elastic Constant Matrix: (Units=GPa)
#
#
# Indices 1 2 3 4 5 6 
#
# 1 142.5131 49.4994 37.6332 0.0000 0.0000 0.0000
# 2 49.4994 146.3265 37.6832 0.0000 0.0000 0.0000
# 3 37.6332 37.6832 103.3655 0.0000 0.0000 0.0000
# 4 0.0000 0.0000 0.0000 20.1330 0.0000 0.0000
# 5 0.0000 0.0000 0.0000 0.0000 25.2889 0.0000
# 6 0.0000 0.0000 0.0000 0.0000 0.0000 21.9042
#
#
#
# Elastic Compliance Matrix: (Units=1/GPa)
#
#
# Indices 1 2 3 4 5 6 
#
# 1 0.008392 -0.002265 -0.002230 0.000000 0.000000 0.000000
# 2 -0.002265 0.008153 -0.002148 0.000000 0.000000 0.000000
# 3 -0.002230 -0.002148 0.011269 0.000000 0.000000 0.000000
# 4 0.000000 0.000000 0.000000 0.049670 0.000000 0.000000
# 5 0.000000 0.000000 0.000000 0.000000 0.039543 0.000000
# 6 0.000000 0.000000 0.000000 0.000000 0.000000 0.045653
#
#
# Mechanical properties :
#
#
# Convention : Reuss Voigt Hill
#
# Bulk Modulus (GPa) = 68.82277 71.31519 70.06898
# Shear Modulus (GPa) = 27.65347 31.29117 29.47232
#
# Velocity S-wave (km/s) = 3.70413 3.94023 3.82400
# Velocity P-wave (km/s) = 7.24163 7.48895 7.36633
#
# Compressibility (1/GPa) = 0.01453008
#
# Stress axis : x y z
#
# Youngs Moduli (GPa) = 119.15624 122.65011 88.73688
#
# Poissons Ratio (x) = 0.27777 0.19787
# Poissons Ratio (y) = 0.26986 0.19059
# Poissons Ratio (z) = 0.26570 0.26343
#
# Static dielectric constant tensor:
#      x y z
#    x 3.887770 0.000000 0.000000 
#    y 0.000000 3.417910 0.000000 
#    z 0.000000 0.000000 3.615640 
# 
# 
# High freq. dielectric constant tensor:
#      x y z
#    x 1.802250 0.000000 0.000000 
#    y 0.000000 1.783900 0.000000 
#    z 0.000000 0.000000 1.785930 
# 
# From -- ./inp_files/32420.got.cif
#   From: 2010.03.12/outbox.cif.g09.slc.cpg/sg69_17_cif.got.tgz:32420.got - 2010.04.10 23:52:46.
