data_PCOD8285247
_publ_section_title
;
Structure prediction by ZEFSAII (Michael W. Deem and Ramdas Pophale) SiO2 
 PCOD8285247
Probable space group: F M M M
;
_chemical_formula_sum "Si O2"
_cell_formula_units_Z 144
_cell_length_a 18.017171
_cell_length_b 15.250341
_cell_length_c 28.112894
_cell_angle_alpha 90.000000
_cell_angle_beta 90.000000
_cell_angle_gamma 90.000000
_cell_volume 7724.523704
_symmetry_space_group_name_H-M "F M M M"
_symmetry_group_IT_number 69
_symmetry_cell_setting 'orthorhombic'
loop_
_space_group_symop_operation_xyz
x,y,z
-x,-y,z
x,-y,-z
-x,y,-z
-x,-y,-z
x,y,-z
-x,y,z
x,-y,z
x,1/2+y,1/2+z
-x,1/2-y,1/2+z
x,1/2-y,1/2-z
-x,1/2+y,1/2-z
-x,1/2-y,1/2-z
x,1/2+y,1/2-z
-x,1/2+y,1/2+z
x,1/2-y,1/2+z
1/2+x,y,1/2+z
1/2-x,-y,1/2+z
1/2+x,-y,1/2-z
1/2-x,y,1/2-z
1/2-x,-y,1/2-z
1/2+x,y,1/2-z
1/2-x,y,1/2+z
1/2+x,-y,1/2+z
1/2+x,1/2+y,z
1/2-x,1/2-y,z
1/2+x,1/2-y,-z
1/2-x,1/2+y,-z
1/2-x,1/2-y,-z
1/2+x,1/2+y,-z
1/2-x,1/2+y,z
1/2+x,1/2-y,z
loop_
_atom_site_type_symbol
_atom_site_label
_atom_site_fract_x
_atom_site_fract_y
_atom_site_fract_z
Si Si1 0.411488 0.187060 0.053035
Si Si2 0.333927 0.252080 0.641816
Si Si3 0.584670 0.901064 0.307351
Si Si4 0.821722 0.900904 0.280912
Si Si5 0.420124 0.000000 0.055554
O O1 0.500000 0.183478 0.053605
O O2 0.382890 0.250028 0.094060
O O3 0.377631 0.090682 0.067214
O O4 0.384745 0.216296 0.000000
O O5 0.250000 0.250000 0.624555
O O6 0.357343 0.162509 0.667115
O O7 0.342200 0.335725 0.676314
O O8 0.500000 0.868166 0.313358
O O9 0.605238 0.900593 0.251791
O O10 0.593701 0.000000 0.327763
O O11 0.750000 0.869155 0.250000
O O12 0.806784 0.000000 0.300354
O O13 0.500000 0.000000 0.082330
O O14 0.436472 0.000000 0.000000
#
# Coordination Sequence:
#
# PCOD8285247 Si02
#       5
#    32  32  32  32  16
#     4   9  19  36  56  80 113 148 183 232 288 339
#     4  12  23  33  58  88 112 151 193 235 285 344
#     4  10  22  40  59  80 112 155 199 242 285 332
#     4  10  21  38  57  81 118 154 185 227 287 350
#     4   7  12  28  52  74 101 136 167 209 280 343
#
# _framework density 18.641926000000002
#
# number of rings (size 3 to 8) (size 9 to 14) (size 15 to 20)
#    0.000    2.111    2.222    2.667    1.556    3.111 
#    0.000    0.000    0.000    0.667    0.000    3.111 
#    0.000    0.000    0.000    0.000    0.000    0.000 
#
# Total GULP energy -446005.617748 kJ/mol
# GULP energy per Si atom -12389.044937 kJ/mol
# Density = 1.859950 g / cm^3
# Si number density = 18.641926 Si / 1000 Ang^3
#
#
#
# Elastic Constant Matrix: (Units=GPa)
#
#
# Indices 1 2 3 4 5 6 
#
# 1 71.6944 24.0108 25.4760 0.0000 0.0000 0.0000
# 2 24.0108 83.7937 45.2974 0.0000 0.0000 0.0000
# 3 25.4760 45.2974 99.6200 0.0000 0.0000 0.0000
# 4 0.0000 0.0000 0.0000 16.2550 0.0000 0.0000
# 5 0.0000 0.0000 0.0000 0.0000 28.1755 0.0000
# 6 0.0000 0.0000 0.0000 0.0000 0.0000 35.0048
#
#
#
# Elastic Compliance Matrix: (Units=1/GPa)
#
#
# Indices 1 2 3 4 5 6 
#
# 1 0.015940 -0.003134 -0.002651 0.000000 0.000000 0.000000
# 2 -0.003134 0.016440 -0.006674 0.000000 0.000000 0.000000
# 3 -0.002651 -0.006674 0.013751 0.000000 0.000000 0.000000
# 4 0.000000 0.000000 0.000000 0.061520 0.000000 0.000000
# 5 0.000000 0.000000 0.000000 0.000000 0.035492 0.000000
# 6 0.000000 0.000000 0.000000 0.000000 0.000000 0.028568
#
#
# Mechanical properties :
#
#
# Convention : Reuss Voigt Hill
#
# Bulk Modulus (GPa) = 47.14303 49.40851 48.27577
# Shear Modulus (GPa) = 24.54609 26.57532 25.56070
#
# Velocity S-wave (km/s) = 3.63259 3.77976 3.70691
# Velocity P-wave (km/s) = 6.55270 6.75354 6.65388
#
# Compressibility (1/GPa) = 0.02121204
#
# Stress axis : x y z
#
# Youngs Moduli (GPa) = 62.73581 60.82764 72.72380
#
# Poissons Ratio (x) = 0.19066 0.19280
# Poissons Ratio (y) = 0.19664 0.48534
# Poissons Ratio (z) = 0.16632 0.40594
#
# Static dielectric constant tensor:
#      x y z
#    x 3.331110 0.000000 0.000000 
#    y 0.000000 3.774500 0.000000 
#    z 0.000000 0.000000 3.213350 
# 
# 
# High freq. dielectric constant tensor:
#      x y z
#    x 1.710030 0.000000 0.000000 
#    y 0.000000 1.725570 0.000000 
#    z 0.000000 0.000000 1.702920 
# 
# From -- ./inp_files/15549.got.cif
#   From: 2010.03.12/outbox.cif.g09.slc.cpg/sg69_8_cif.got.tgz:15549.got - 2010.04.10 23:52:46.
