data_PCOD8285418
_publ_section_title
;
Structure prediction by ZEFSAII (Michael W. Deem and Ramdas Pophale) SiO2 
 PCOD8285418
Probable space group: F M M M
;
_chemical_formula_sum "Si O2"
_cell_formula_units_Z 184
_cell_length_a 20.193047
_cell_length_b 17.607467
_cell_length_c 25.970642
_cell_angle_alpha 90.000000
_cell_angle_beta 90.000000
_cell_angle_gamma 90.000000
_cell_volume 9233.820436
_symmetry_space_group_name_H-M "F M M M"
_symmetry_group_IT_number 69
_symmetry_cell_setting 'orthorhombic'
loop_
_space_group_symop_operation_xyz
x,y,z
-x,-y,z
x,-y,-z
-x,y,-z
-x,-y,-z
x,y,-z
-x,y,z
x,-y,z
x,1/2+y,1/2+z
-x,1/2-y,1/2+z
x,1/2-y,1/2-z
-x,1/2+y,1/2-z
-x,1/2-y,1/2-z
x,1/2+y,1/2-z
-x,1/2+y,1/2+z
x,1/2-y,1/2+z
1/2+x,y,1/2+z
1/2-x,-y,1/2+z
1/2+x,-y,1/2-z
1/2-x,y,1/2-z
1/2-x,-y,1/2-z
1/2+x,y,1/2-z
1/2-x,y,1/2+z
1/2+x,-y,1/2+z
1/2+x,1/2+y,z
1/2-x,1/2-y,z
1/2+x,1/2-y,-z
1/2-x,1/2+y,-z
1/2-x,1/2-y,-z
1/2+x,1/2+y,-z
1/2-x,1/2+y,z
1/2+x,1/2-y,z
loop_
_atom_site_type_symbol
_atom_site_label
_atom_site_fract_x
_atom_site_fract_y
_atom_site_fract_z
Si Si1 0.878495 0.844624 0.363783
Si Si2 0.000000 0.500000 0.237872
Si Si3 0.070842 0.000000 0.364917
Si Si4 0.753041 0.159787 0.807136
Si Si5 0.325119 0.273059 0.059622
Si Si6 0.000000 0.894225 0.834699
Si Si7 0.142322 0.414204 0.378234
Si Si8 0.000000 0.773145 0.691256
O O1 0.810718 0.867675 0.336871
O O2 0.873362 0.780781 0.407568
O O3 0.934460 0.820804 0.322456
O O4 0.895520 0.925397 0.388306
O O5 0.063942 0.500000 0.198931
O O6 0.000000 0.425865 0.275585
O O7 0.000000 0.000000 0.391264
O O8 0.750000 0.127066 0.750000
O O9 0.750000 0.250000 0.808088
O O10 0.820385 0.127040 0.831103
O O11 0.250000 0.250000 0.074526
O O12 0.341892 0.361102 0.072246
O O13 0.338997 0.258642 0.000000
O O14 0.064951 0.922342 0.864851
O O15 0.000000 0.804309 0.840123
O O16 0.169169 0.500000 0.388409
O O17 0.000000 0.750000 0.750000
#
# Coordination Sequence:
#
# PCOD8285418 Si02
#       8
#    32   8  16  32  32  16  32  16
#     4  12  22  43  63  95 127 171 219 266 322 387
#     4  10  22  42  52  98 138 192 198 260 310 384
#     4  10  24  38  61  93 138 167 211 257 316 381
#     4  11  24  38  59  91 134 171 215 264 316 380
#     4  11  24  47  72  95 126 166 217 281 341 388
#     4  12  22  38  63  88 136 169 222 251 309 383
#     4  12  24  42  64  96 129 172 213 270 321 388
#     4  12  24  35  67  94 127 181 220 246 313 395
#
# _framework density 19.926746999999999
#
# number of rings (size 3 to 8) (size 9 to 14) (size 15 to 20)
#    0.261    0.348    6.957    1.043    8.522    0.696 
#    0.000    2.174    0.000    1.565    0.000    0.000 
#    0.000    0.000    0.000    0.000    0.000    0.000 
#
# Total GULP energy -570169.964363 kJ/mol
# GULP energy per Si atom -12394.999225 kJ/mol
# Density = 1.988139 g / cm^3
# Si number density = 19.926747 Si / 1000 Ang^3
#
#
#
# Elastic Constant Matrix: (Units=GPa)
#
#
# Indices 1 2 3 4 5 6 
#
# 1 112.9449 29.3543 36.8169 0.0000 0.0000 0.0000
# 2 29.3543 145.5838 24.5842 0.0000 0.0000 0.0000
# 3 36.8169 24.5842 90.7631 0.0000 0.0000 0.0000
# 4 0.0000 0.0000 0.0000 19.3065 0.0000 0.0000
# 5 0.0000 0.0000 0.0000 0.0000 14.8535 0.0000
# 6 0.0000 0.0000 0.0000 0.0000 0.0000 23.6867
#
#
#
# Elastic Compliance Matrix: (Units=1/GPa)
#
#
# Indices 1 2 3 4 5 6 
#
# 1 0.010492 -0.001464 -0.003860 0.000000 0.000000 0.000000
# 2 -0.001464 0.007402 -0.001411 0.000000 0.000000 0.000000
# 3 -0.003860 -0.001411 0.012966 0.000000 0.000000 0.000000
# 4 0.000000 0.000000 0.000000 0.051796 0.000000 0.000000
# 5 0.000000 0.000000 0.000000 0.000000 0.067324 0.000000
# 6 0.000000 0.000000 0.000000 0.000000 0.000000 0.042218
#
#
# Mechanical properties :
#
#
# Convention : Reuss Voigt Hill
#
# Bulk Modulus (GPa) = 57.50112 58.97806 58.23959
# Shear Modulus (GPa) = 23.64463 28.80511 26.22487
#
# Velocity S-wave (km/s) = 3.44841 3.80616 3.63169
# Velocity P-wave (km/s) = 6.69136 6.99839 6.84660
#
# Compressibility (1/GPa) = 0.01739097
#
# Stress axis : x y z
#
# Youngs Moduli (GPa) = 95.30644 135.09198 77.12749
#
# Poissons Ratio (x) = 0.19775 0.29768
# Poissons Ratio (y) = 0.13951 0.10884
# Poissons Ratio (z) = 0.36785 0.19064
#
# Static dielectric constant tensor:
#      x y z
#    x 5.221650 0.000000 0.000000 
#    y 0.000000 3.864640 0.000000 
#    z 0.000000 0.000000 3.382780 
# 
# 
# High freq. dielectric constant tensor:
#      x y z
#    x 1.783140 0.000000 0.000000 
#    y 0.000000 1.795450 0.000000 
#    z 0.000000 0.000000 1.743640 
# 
# From -- ./inp_files/42696.got.cif
#   From: 2010.03.12/outbox.cif.g09.slc.cpg/sg69_22_cif.got.tgz:42696.got - 2010.04.10 23:52:46.
