data_PCOD8285111
_publ_section_title
;
Structure prediction by ZEFSAII (Michael W. Deem and Ramdas Pophale) SiO2 
 PCOD8285111
Probable space group: F M M M
;
_chemical_formula_sum "Si O2"
_cell_formula_units_Z 128
_cell_length_a 19.815472
_cell_length_b 17.373313
_cell_length_c 17.818447
_cell_angle_alpha 90.000000
_cell_angle_beta 90.000000
_cell_angle_gamma 90.000000
_cell_volume 6134.185643
_symmetry_space_group_name_H-M "F M M M"
_symmetry_group_IT_number 69
_symmetry_cell_setting 'orthorhombic'
loop_
_space_group_symop_operation_xyz
x,y,z
-x,-y,z
x,-y,-z
-x,y,-z
-x,-y,-z
x,y,-z
-x,y,z
x,-y,z
x,1/2+y,1/2+z
-x,1/2-y,1/2+z
x,1/2-y,1/2-z
-x,1/2+y,1/2-z
-x,1/2-y,1/2-z
x,1/2+y,1/2-z
-x,1/2+y,1/2+z
x,1/2-y,1/2+z
1/2+x,y,1/2+z
1/2-x,-y,1/2+z
1/2+x,-y,1/2-z
1/2-x,y,1/2-z
1/2-x,-y,1/2-z
1/2+x,y,1/2-z
1/2-x,y,1/2+z
1/2+x,-y,1/2+z
1/2+x,1/2+y,z
1/2-x,1/2-y,z
1/2+x,1/2-y,-z
1/2-x,1/2+y,-z
1/2-x,1/2-y,-z
1/2+x,1/2+y,-z
1/2-x,1/2+y,z
1/2+x,1/2-y,z
loop_
_atom_site_type_symbol
_atom_site_label
_atom_site_fract_x
_atom_site_fract_y
_atom_site_fract_z
Si Si1 0.500000 0.806346 0.820189
Si Si2 0.725407 0.911102 0.915595
Si Si3 0.500000 0.830678 0.413779
Si Si4 0.131993 0.413589 0.360296
Si Si5 0.355661 0.335234 0.286579
O O1 0.500000 0.750000 0.750000
O O2 0.500000 0.760363 0.899149
O O3 0.431396 0.854893 0.815558
O O4 0.806309 0.898596 0.916924
O O5 0.692832 0.850387 0.857472
O O6 0.708924 0.000000 0.893348
O O7 0.699294 0.893444 0.000000
O O8 0.500000 0.853084 0.500000
O O9 0.568008 0.860599 0.375782
O O10 0.105472 0.500000 0.366590
O O11 0.161278 0.396778 0.277529
O O12 0.346250 0.250000 0.250000
#
# Coordination Sequence:
#
# PCOD8285111 Si02
#       5
#    16  32  16  32  32
#     4  10  20  42  60  84 123 157 199 247 303 355
#     4  10  23  42  62  90 127 163 203 255 310 363
#     4  12  23  39  62  90 120 158 203 250 308 367
#     4  11  22  39  63  91 122 160 203 251 305 365
#     4  11  21  41  66  88 122 162 205 250 301 367
#
# _framework density 20.866665999999999
#
# number of rings (size 3 to 8) (size 9 to 14) (size 15 to 20)
#    0.000    1.250    5.000    2.625    0.000    7.000 
#    0.000    3.125    0.000    1.500    0.000    0.000 
#    0.000    0.000    0.000    0.000    0.000    0.000 
#
# Total GULP energy -396658.738816 kJ/mol
# GULP energy per Si atom -12395.585588 kJ/mol
# Density = 2.081917 g / cm^3
# Si number density = 20.866666 Si / 1000 Ang^3
#
#
#
# Elastic Constant Matrix: (Units=GPa)
#
#
# Indices 1 2 3 4 5 6 
#
# 1 94.1616 29.0673 37.4027 0.0000 0.0000 0.0000
# 2 29.0673 54.1629 32.7213 0.0000 0.0000 0.0000
# 3 37.4027 32.7213 123.2824 0.0000 0.0000 0.0000
# 4 0.0000 0.0000 0.0000 29.3830 0.0000 0.0000
# 5 0.0000 0.0000 0.0000 0.0000 26.8719 0.0000
# 6 0.0000 0.0000 0.0000 0.0000 0.0000 17.3217
#
#
#
# Elastic Compliance Matrix: (Units=1/GPa)
#
#
# Indices 1 2 3 4 5 6 
#
# 1 0.013376 -0.005630 -0.002564 0.000000 0.000000 0.000000
# 2 -0.005630 0.024358 -0.004757 0.000000 0.000000 0.000000
# 3 -0.002564 -0.004757 0.010152 0.000000 0.000000 0.000000
# 4 0.000000 0.000000 0.000000 0.034033 0.000000 0.000000
# 5 0.000000 0.000000 0.000000 0.000000 0.037214 0.000000
# 6 0.000000 0.000000 0.000000 0.000000 0.000000 0.057731
#
#
# Mechanical properties :
#
#
# Convention : Reuss Voigt Hill
#
# Bulk Modulus (GPa) = 45.48597 52.22107 48.85352
# Shear Modulus (GPa) = 23.79889 26.20969 25.00429
#
# Velocity S-wave (km/s) = 3.38083 3.54793 3.46539
# Velocity P-wave (km/s) = 6.08980 6.47025 6.28291
#
# Compressibility (1/GPa) = 0.02198480
#
# Stress axis : x y z
#
# Youngs Moduli (GPa) = 74.75862 41.05449 98.50305
#
# Poissons Ratio (x) = 0.23112 0.25257
# Poissons Ratio (y) = 0.42086 0.46858
# Poissons Ratio (z) = 0.19169 0.19530
#
# Static dielectric constant tensor:
#      x y z
#    x 4.001760 0.000000 0.000000 
#    y 0.000000 3.623370 0.000000 
#    z 0.000000 0.000000 3.857170 
# 
# 
# High freq. dielectric constant tensor:
#      x y z
#    x 1.826660 0.000000 0.000000 
#    y 0.000000 1.794280 0.000000 
#    z 0.000000 0.000000 1.818700 
# 
# From -- ./inp_files/24386.got.cif
#   From: 2010.03.12/outbox.cif.g09.slc.cpg/sg69_13_cif.got.tgz:24386.got - 2010.04.10 23:52:46.
