data_PCOD8285860
_publ_section_title
;
Structure prediction by ZEFSAII (Michael W. Deem and Ramdas Pophale) SiO2 
 PCOD8285860
Probable space group: F D D D
;
_chemical_formula_sum "Si O2"
_cell_formula_units_Z 168
_cell_length_a 23.193320
_cell_length_b 14.260807
_cell_length_c 27.440495
_cell_angle_alpha 90.000000
_cell_angle_beta 90.000000
_cell_angle_gamma 90.000000
_cell_volume 9076.093552
_symmetry_space_group_name_H-M "F D D D"
_symmetry_group_IT_number 70
_space_group.IT_coordinate_system_code '2'
_symmetry_cell_setting 'orthorhombic'
loop_
_space_group_symop_operation_xyz
x,y,z
1/4-x,1/4-y,z
x,1/4-y,1/4-z
1/4-x,y,1/4-z
-x,-y,-z
3/4+x,3/4+y,-z
-x,3/4+y,3/4+z
3/4+x,-y,3/4+z
x,1/2+y,1/2+z
1/4-x,3/4-y,1/2+z
x,3/4-y,3/4-z
1/4-x,1/2+y,3/4-z
-x,1/2-y,1/2-z
3/4+x,1/4+y,1/2-z
-x,1/4+y,1/4+z
3/4+x,1/2-y,1/4+z
1/2+x,y,1/2+z
3/4-x,1/4-y,1/2+z
1/2+x,1/4-y,3/4-z
3/4-x,y,3/4-z
1/2-x,-y,1/2-z
1/4+x,3/4+y,1/2-z
1/2-x,3/4+y,1/4+z
1/4+x,-y,1/4+z
1/2+x,1/2+y,z
3/4-x,3/4-y,z
1/2+x,3/4-y,1/4-z
3/4-x,1/2+y,1/4-z
1/2-x,1/2-y,-z
1/4+x,1/4+y,-z
1/2-x,1/4+y,3/4+z
1/4+x,1/2-y,3/4+z
loop_
_atom_site_type_symbol
_atom_site_label
_atom_site_fract_x
_atom_site_fract_y
_atom_site_fract_z
Si Si1 0.095423 0.777927 0.254078
Si Si2 0.625000 0.625000 0.625000
Si Si3 0.809600 0.223559 0.814625
Si Si4 0.369694 0.231373 0.141175
Si Si5 0.970755 0.869104 0.131831
Si Si6 0.513546 0.137134 0.994554
O O1 0.132751 0.820881 0.209506
O O2 0.137198 0.761053 0.300379
O O3 0.067330 0.678157 0.239043
O O4 0.045328 0.849586 0.268515
O O5 0.579637 0.689314 0.596622
O O6 0.774638 0.145333 0.845222
O O7 0.772007 0.261346 0.768730
O O8 0.366249 0.125000 0.125000
O O9 0.317234 0.289969 0.116857
O O10 0.431358 0.276153 0.127297
O O11 0.994433 0.885207 0.186250
#
# Coordination Sequence:
#
# PCOD8285860 Si02
#       6
#    32   8  32  32  32  32
#     4  10  19  33  54  78 114 153 186 232 300 343
#     4  12  24  28  52  92 122 148 180 224 300 366
#     4  12  21  35  51  86 120 152 186 237 292 361
#     4  10  20  38  57  81 112 157 197 245 287 345
#     4  10  22  34  57  85 114 153 202 235 294 355
#     4  10  19  34  52  80 117 152 185 238 293 355
#
# _framework density 18.510166000000002
#
# number of rings (size 3 to 8) (size 9 to 14) (size 15 to 20)
#    0.000    1.524    3.810    2.286    6.667    0.000 
#    0.000    0.952    0.000    0.000    0.000    4.667 
#    0.000    0.000    0.000    0.000    0.000    0.000 
#
# Total GULP energy -520580.382179 kJ/mol
# GULP energy per Si atom -12394.771004 kJ/mol
# Density = 1.846804 g / cm^3
# Si number density = 18.510166 Si / 1000 Ang^3
#
#
#
# Elastic Constant Matrix: (Units=GPa)
#
#
# Indices 1 2 3 4 5 6 
#
# 1 93.4683 31.1896 53.3433 0.0000 0.0000 0.0000
# 2 31.1896 81.1122 30.1614 0.0000 0.0000 0.0000
# 3 53.3433 30.1614 82.1943 0.0000 0.0000 0.0000
# 4 0.0000 0.0000 0.0000 6.2936 0.0000 0.0000
# 5 0.0000 0.0000 0.0000 0.0000 20.6085 0.0000
# 6 0.0000 0.0000 0.0000 0.0000 0.0000 25.5887
#
#
#
# Elastic Compliance Matrix: (Units=1/GPa)
#
#
# Indices 1 2 3 4 5 6 
#
# 1 0.017568 -0.002913 -0.010332 0.000000 0.000000 0.000000
# 2 -0.002913 0.014760 -0.003526 0.000000 0.000000 0.000000
# 3 -0.010332 -0.003526 0.020166 0.000000 0.000000 0.000000
# 4 0.000000 0.000000 0.000000 0.158893 0.000000 0.000000
# 5 0.000000 0.000000 0.000000 0.000000 0.048524 0.000000
# 6 0.000000 0.000000 0.000000 0.000000 0.000000 0.039080
#
#
# Mechanical properties :
#
#
# Convention : Reuss Voigt Hill
#
# Bulk Modulus (GPa) = 52.76748 54.01817 53.39283
# Shear Modulus (GPa) = 14.75588 19.97016 17.36302
#
# Velocity S-wave (km/s) = 2.82650 3.28819 3.06604
# Velocity P-wave (km/s) = 6.26269 6.60777 6.43754
#
# Compressibility (1/GPa) = 0.01895106
#
# Stress axis : x y z
#
# Youngs Moduli (GPa) = 56.92286 67.75190 49.58964
#
# Poissons Ratio (x) = 0.19737 0.51237
# Poissons Ratio (y) = 0.16583 0.17483
# Poissons Ratio (z) = 0.58814 0.23886
#
# Static dielectric constant tensor:
#      x y z
#    x 3.417820 0.000000 0.000000 
#    y 0.000000 3.040100 0.000000 
#    z 0.000000 0.000000 3.418720 
# 
# 
# High freq. dielectric constant tensor:
#      x y z
#    x 1.721380 0.000000 0.000000 
#    y 0.000000 1.669980 0.000000 
#    z 0.000000 0.000000 1.716390 
# 
# From -- ./inp_files/27790.got.cif
#   From: 2010.03.12/outbox.cif.g09.slc.cpg/sg70_14_cif.got.tgz:27790.got - 2010.04.16 13:46:32.
