data_PCOD8285277
_publ_section_title
;
Structure prediction by ZEFSAII (Michael W. Deem and Ramdas Pophale) SiO2 
 PCOD8285277
Probable space group: F M M M
;
_chemical_formula_sum "Si O2"
_cell_formula_units_Z 144
_cell_length_a 16.504671
_cell_length_b 21.907243
_cell_length_c 18.714009
_cell_angle_alpha 90.000000
_cell_angle_beta 90.000000
_cell_angle_gamma 90.000000
_cell_volume 6766.458635
_symmetry_space_group_name_H-M "F M M M"
_symmetry_group_IT_number 69
_symmetry_cell_setting 'orthorhombic'
loop_
_space_group_symop_operation_xyz
x,y,z
-x,-y,z
x,-y,-z
-x,y,-z
-x,-y,-z
x,y,-z
-x,y,z
x,-y,z
x,1/2+y,1/2+z
-x,1/2-y,1/2+z
x,1/2-y,1/2-z
-x,1/2+y,1/2-z
-x,1/2-y,1/2-z
x,1/2+y,1/2-z
-x,1/2+y,1/2+z
x,1/2-y,1/2+z
1/2+x,y,1/2+z
1/2-x,-y,1/2+z
1/2+x,-y,1/2-z
1/2-x,y,1/2-z
1/2-x,-y,1/2-z
1/2+x,y,1/2-z
1/2-x,y,1/2+z
1/2+x,-y,1/2+z
1/2+x,1/2+y,z
1/2-x,1/2-y,z
1/2+x,1/2-y,-z
1/2-x,1/2+y,-z
1/2-x,1/2-y,-z
1/2+x,1/2+y,-z
1/2-x,1/2+y,z
1/2+x,1/2-y,z
loop_
_atom_site_type_symbol
_atom_site_label
_atom_site_fract_x
_atom_site_fract_y
_atom_site_fract_z
Si Si1 0.596509 0.500000 0.580410
Si Si2 0.407879 0.880292 0.843477
Si Si3 0.835421 0.571491 0.712028
Si Si4 0.093259 0.863950 0.082391
Si Si5 0.342959 0.233772 0.919685
O O1 0.500000 0.500000 0.586675
O O2 0.627663 0.500000 0.500000
O O3 0.631921 0.439628 0.618173
O O4 0.500000 0.871317 0.867702
O O5 0.402497 0.892662 0.758873
O O6 0.359869 0.819962 0.864368
O O7 0.853613 0.500000 0.710892
O O8 0.750000 0.586389 0.750000
O O9 0.845153 0.596985 0.631630
O O10 0.102943 0.792355 0.099832
O O11 0.000000 0.882968 0.096018
O O12 0.118047 0.876553 0.000000
O O13 0.250000 0.250000 0.912042
O O14 0.363356 0.211328 0.000000
#
# Coordination Sequence:
#
# PCOD8285277 Si02
#       5
#    16  32  32  32  32
#     4   9  18  32  53  86 123 157 197 244 298 364
#     4  11  21  36  61  91 123 162 206 256 316 376
#     4  11  24  42  63  88 127 166 207 260 323 386
#     4  10  22  41  65  93 124 164 219 272 314 368
#     4  10  21  38  61  90 129 170 211 258 314 378
#
# _framework density 21.281441999999998
#
# number of rings (size 3 to 8) (size 9 to 14) (size 15 to 20)
#    0.000    1.667    1.111    3.333    0.000    4.889 
#    0.000    6.667    0.000    0.000    0.000    0.000 
#    0.000    0.000    0.000    0.000    0.000    0.000 
#
# Total GULP energy -446475.182419 kJ/mol
# GULP energy per Si atom -12402.088401 kJ/mol
# Density = 2.123300 g / cm^3
# Si number density = 21.281442 Si / 1000 Ang^3
#
#
#
# Elastic Constant Matrix: (Units=GPa)
#
#
# Indices 1 2 3 4 5 6 
#
# 1 64.1750 39.3838 34.1359 0.0000 0.0000 0.0000
# 2 39.3838 137.1428 78.2920 0.0000 0.0000 0.0000
# 3 34.1359 78.2920 137.4200 0.0000 0.0000 0.0000
# 4 0.0000 0.0000 0.0000 38.5798 0.0000 0.0000
# 5 0.0000 0.0000 0.0000 0.0000 33.0708 0.0000
# 6 0.0000 0.0000 0.0000 0.0000 0.0000 26.0053
#
#
#
# Elastic Compliance Matrix: (Units=1/GPa)
#
#
# Indices 1 2 3 4 5 6 
#
# 1 0.019455 -0.004191 -0.002445 0.000000 0.000000 0.000000
# 2 -0.004191 0.011709 -0.005630 0.000000 0.000000 0.000000
# 3 -0.002445 -0.005630 0.011092 0.000000 0.000000 0.000000
# 4 0.000000 0.000000 0.000000 0.025920 0.000000 0.000000
# 5 0.000000 0.000000 0.000000 0.000000 0.030238 0.000000
# 6 0.000000 0.000000 0.000000 0.000000 0.000000 0.038454
#
#
# Mechanical properties :
#
#
# Convention : Reuss Voigt Hill
#
# Bulk Modulus (GPa) = 56.42076 71.37345 63.89710
# Shear Modulus (GPa) = 29.88490 31.99292 30.93891
#
# Velocity S-wave (km/s) = 3.75143 3.88148 3.81701
# Velocity P-wave (km/s) = 6.73302 7.32793 7.03676
#
# Compressibility (1/GPa) = 0.01772397
#
# Stress axis : x y z
#
# Youngs Moduli (GPa) = 51.40063 85.40191 90.15625
#
# Poissons Ratio (x) = 0.35794 0.22042
# Poissons Ratio (y) = 0.21543 0.50758
# Poissons Ratio (z) = 0.12567 0.48081
#
# Static dielectric constant tensor:
#      x y z
#    x 3.677640 0.000000 0.000000 
#    y 0.000000 3.789440 0.000000 
#    z 0.000000 0.000000 3.896440 
# 
# 
# High freq. dielectric constant tensor:
#      x y z
#    x 1.826960 0.000000 0.000000 
#    y 0.000000 1.835460 0.000000 
#    z 0.000000 0.000000 1.836570 
# 
# From -- ./inp_files/30734.got.cif
#   From: 2010.03.12/outbox.cif.g09.slc.cpg/sg69_16_cif.got.tgz:30734.got - 2010.04.10 23:52:46.
