data_PCOD8285026
_publ_section_title
;
Structure prediction by ZEFSAII (Michael W. Deem and Ramdas Pophale) SiO2 
 PCOD8285026
Probable space group: F M M M
;
_chemical_formula_sum "Si O2"
_cell_formula_units_Z 208
_cell_length_a 22.754629
_cell_length_b 17.196824
_cell_length_c 26.434102
_cell_angle_alpha 90.000000
_cell_angle_beta 90.000000
_cell_angle_gamma 90.000000
_cell_volume 10343.858406
_symmetry_space_group_name_H-M "F M M M"
_symmetry_group_IT_number 69
_symmetry_cell_setting 'orthorhombic'
loop_
_space_group_symop_operation_xyz
x,y,z
-x,-y,z
x,-y,-z
-x,y,-z
-x,-y,-z
x,y,-z
-x,y,z
x,-y,z
x,1/2+y,1/2+z
-x,1/2-y,1/2+z
x,1/2-y,1/2-z
-x,1/2+y,1/2-z
-x,1/2-y,1/2-z
x,1/2+y,1/2-z
-x,1/2+y,1/2+z
x,1/2-y,1/2+z
1/2+x,y,1/2+z
1/2-x,-y,1/2+z
1/2+x,-y,1/2-z
1/2-x,y,1/2-z
1/2-x,-y,1/2-z
1/2+x,y,1/2-z
1/2-x,y,1/2+z
1/2+x,-y,1/2+z
1/2+x,1/2+y,z
1/2-x,1/2-y,z
1/2+x,1/2-y,-z
1/2-x,1/2+y,-z
1/2-x,1/2-y,-z
1/2+x,1/2+y,-z
1/2-x,1/2+y,z
1/2+x,1/2-y,z
loop_
_atom_site_type_symbol
_atom_site_label
_atom_site_fract_x
_atom_site_fract_y
_atom_site_fract_z
Si Si1 0.064926 0.742676 0.193569
Si Si2 0.099837 0.087493 0.658591
Si Si3 0.360399 0.643544 0.556475
Si Si4 0.000000 0.410680 0.440291
Si Si5 0.390151 0.807935 0.593222
Si Si6 0.762082 0.163236 0.103686
Si Si7 0.723205 0.909595 0.199839
O O1 0.092216 0.750000 0.250000
O O2 0.054077 0.652513 0.176425
O O3 0.105598 0.788066 0.153226
O O4 0.000000 0.781144 0.193459
O O5 0.110776 0.086652 0.597989
O O6 0.157837 0.119393 0.687349
O O7 0.080494 0.000000 0.674293
O O8 0.373259 0.612239 0.500000
O O9 0.391553 0.727678 0.561898
O O10 0.289418 0.644302 0.563535
O O11 0.941937 0.365986 0.421896
O O12 0.000000 0.500000 0.419745
O O13 0.000000 0.411371 0.500000
O O14 0.327062 0.846613 0.579968
O O15 0.750000 0.250000 0.124044
O O16 0.763587 0.106593 0.151617
O O17 0.750000 0.868702 0.250000
O O18 0.719420 0.000000 0.209587
#
# Coordination Sequence:
#
# PCOD8285026 Si02
#       7
#    32  32  32  16  32  32  32
#     4  10  21  37  58  79 107 144 186 227 274 329
#     4   9  19  35  54  82 114 142 178 221 268 327
#     4   9  18  34  57  84 113 146 181 223 279 336
#     4  11  24  40  57  78 105 145 194 237 278 328
#     4  10  20  37  56  79 109 145 183 234 281 323
#     4   9  19  32  51  82 108 136 181 228 270 323
#     4   9  18  32  48  72 107 143 173 210 268 327
#
# _framework density 20.108550999999999
#
# number of rings (size 3 to 8) (size 9 to 14) (size 15 to 20)
#    0.000    2.538    0.769    1.385    2.154    4.923 
#    0.000    0.769    0.000    0.000    0.000    2.154 
#    0.000    0.000    0.000    0.000    0.000    0.000 
#
# Total GULP energy -644323.143831 kJ/mol
# GULP energy per Si atom -12390.829689 kJ/mol
# Density = 2.006278 g / cm^3
# Si number density = 20.108551 Si / 1000 Ang^3
#
#
#
# Elastic Constant Matrix: (Units=GPa)
#
#
# Indices 1 2 3 4 5 6 
#
# 1 85.1795 27.4989 15.1489 0.0000 0.0000 0.0000
# 2 27.4989 56.9063 14.8294 0.0000 0.0000 0.0000
# 3 15.1489 14.8294 126.5447 0.0000 0.0000 0.0000
# 4 0.0000 0.0000 0.0000 21.3202 0.0000 0.0000
# 5 0.0000 0.0000 0.0000 0.0000 15.7810 0.0000
# 6 0.0000 0.0000 0.0000 0.0000 0.0000 61.3673
#
#
#
# Elastic Compliance Matrix: (Units=1/GPa)
#
#
# Indices 1 2 3 4 5 6 
#
# 1 0.014011 -0.006533 -0.000912 0.000000 0.000000 0.000000
# 2 -0.006533 0.021172 -0.001699 0.000000 0.000000 0.000000
# 3 -0.000912 -0.001699 0.008211 0.000000 0.000000 0.000000
# 4 0.000000 0.000000 0.000000 0.046904 0.000000 0.000000
# 5 0.000000 0.000000 0.000000 0.000000 0.063367 0.000000
# 6 0.000000 0.000000 0.000000 0.000000 0.000000 0.016295
#
#
# Mechanical properties :
#
#
# Convention : Reuss Voigt Hill
#
# Bulk Modulus (GPa) = 39.83017 42.62055 41.22536
# Shear Modulus (GPa) = 25.43011 33.77059 29.60035
#
# Velocity S-wave (km/s) = 3.56004 4.10251 3.84086
# Velocity P-wave (km/s) = 6.06210 6.60924 6.34157
#
# Compressibility (1/GPa) = 0.02510660
#
# Stress axis : x y z
#
# Youngs Moduli (GPa) = 71.37177 47.23115 121.79384
#
# Poissons Ratio (x) = 0.30856 0.11104
# Poissons Ratio (y) = 0.46627 0.20693
# Poissons Ratio (z) = 0.06507 0.08025
#
# Static dielectric constant tensor:
#      x y z
#    x 3.724270 0.000000 0.000000 
#    y 0.000000 3.468770 0.000000 
#    z 0.000000 0.000000 3.701180 
# 
# 
# High freq. dielectric constant tensor:
#      x y z
#    x 1.779950 0.000000 0.000000 
#    y 0.000000 1.764520 0.000000 
#    z 0.000000 0.000000 1.779480 
# 
# From -- ./inp_files/43267.got.cif
#   From: 2010.03.12/outbox.cif.g09.slc.cpg/sg69_22_cif.got.tgz:43267.got - 2010.04.10 23:52:46.
