data_PCOD8285717
_publ_section_title
;
Structure prediction by ZEFSAII (Michael W. Deem and Ramdas Pophale) SiO2 
 PCOD8285717
Probable space group: F M M M
;
_chemical_formula_sum "Si O2"
_cell_formula_units_Z 40
_cell_length_a 30.000000
_cell_length_b 30.000000
_cell_length_c 9.000000
_cell_angle_alpha 90.000000
_cell_angle_beta 90.000000
_cell_angle_gamma 90.000000
_cell_volume 8100.000000
_symmetry_space_group_name_H-M "F M M M"
_symmetry_group_IT_number 69
_symmetry_cell_setting 'orthorhombic'
loop_
_space_group_symop_operation_xyz
x,y,z
-x,-y,z
x,-y,-z
-x,y,-z
-x,-y,-z
x,y,-z
-x,y,z
x,-y,z
x,1/2+y,1/2+z
-x,1/2-y,1/2+z
x,1/2-y,1/2-z
-x,1/2+y,1/2-z
-x,1/2-y,1/2-z
x,1/2+y,1/2-z
-x,1/2+y,1/2+z
x,1/2-y,1/2+z
1/2+x,y,1/2+z
1/2-x,-y,1/2+z
1/2+x,-y,1/2-z
1/2-x,y,1/2-z
1/2-x,-y,1/2-z
1/2+x,y,1/2-z
1/2-x,y,1/2+z
1/2+x,-y,1/2+z
1/2+x,1/2+y,z
1/2-x,1/2-y,z
1/2+x,1/2-y,-z
1/2-x,1/2+y,-z
1/2-x,1/2-y,-z
1/2+x,1/2+y,-z
1/2-x,1/2+y,z
1/2+x,1/2-y,z
loop_
_atom_site_type_symbol
_atom_site_label
_atom_site_fract_x
_atom_site_fract_y
_atom_site_fract_z
Si Si1 0.295230 0.108578 0.822893
Si Si2 0.419111 0.828556 0.163216
Si Si3 0.947883 0.000000 0.823889
Si Si4 0.824365 0.205295 0.672676
Si Si5 0.000000 0.296444 0.670803
Si Si6 0.612407 0.928680 0.834347
O O1 0.250000 0.089593 0.750000
O O2 0.301993 0.159689 0.765962
O O3 0.336423 0.076090 0.774293
O O4 0.291948 0.108188 0.000000
O O5 0.377101 0.797874 0.204858
O O6 0.456428 0.823973 0.287090
O O7 0.405929 0.879442 0.157669
O O8 0.437163 0.814335 0.000000
O O9 0.920241 0.957061 0.769742
O O10 0.000000 0.000000 0.766848
O O11 0.948170 0.000000 0.000000
O O12 0.814156 0.209948 0.500000
O O13 0.805202 0.250000 0.750000
O O14 0.000000 0.250000 0.750000
O O15 0.000000 0.287200 0.500000
O O16 0.612341 0.949873 0.000000
#
# Coordination Sequence:
#
# PCOD8285717 Si02
#       6
#    32  32  16  32  16  32
#     4   9  19  36  57  83 113 147 189 236 280 331
#     4   9  19  36  55  75 103 141 186 233 279 331
#     4  11  25  41  60  91 126 147 176 231 282 333
#     4   9  18  32  50  74 107 144 187 235 278 323
#     4  12  24  34  48  73 106 143 186 234 279 330
#     4   9  20  40  63  85 112 149 190 228 274 341
#
# _framework density 4.9382720000000004
#
# number of rings (size 3 to 8) (size 9 to 14) (size 15 to 20)
#    0.000    2.500    0.000    4.200    1.400    6.000 
#    0.000    6.500    0.000    0.000    0.000    0.000 
#    0.000    0.000    0.000    0.000    0.000    0.000 
#
# Total GULP energy -495754.768851 kJ/mol
# GULP energy per Si atom -12393.869221 kJ/mol
# Density = 0.492703 g / cm^3
# Si number density = 4.938272 Si / 1000 Ang^3
#
#
#
# Elastic Constant Matrix: (Units=GPa)
#
#
# Indices 1 2 3 4 5 6 
#
# 1 145.2278 36.5343 52.8507 0.0052 0.0036 0.0082
# 2 36.5343 64.4366 21.3585 -0.0193 0.0000 0.0008
# 3 52.8507 21.3585 71.1387 -0.0197 0.0277 0.0223
# 4 0.0052 -0.0193 -0.0197 24.9428 0.0026 -0.0034
# 5 0.0036 0.0000 0.0277 0.0026 30.1114 -0.0140
# 6 0.0082 0.0008 0.0223 -0.0034 -0.0140 18.3659
#
#
#
# Elastic Compliance Matrix: (Units=1/GPa)
#
#
# Indices 1 2 3 4 5 6 
#
# 1 0.010142 -0.003612 -0.006450 -0.000010 0.000005 0.000003
# 2 -0.003612 0.018521 -0.002877 0.000013 0.000003 0.000004
# 3 -0.006450 -0.002877 0.019713 0.000015 -0.000017 -0.000021
# 4 -0.000010 0.000013 0.000015 0.040092 -0.000003 0.000007
# 5 0.000005 0.000003 -0.000017 -0.000003 0.033210 0.000025
# 6 0.000003 0.000004 -0.000021 0.000007 0.000025 0.054449
#
#
# Mechanical properties :
#
#
# Convention : Reuss Voigt Hill
#
# Bulk Modulus (GPa) = 44.45087 55.80999 50.13043
# Shear Modulus (GPa) = 23.86598 26.02133 24.94365
#
# Velocity S-wave (km/s) = 3.47971 3.63344 3.55741
# Velocity P-wave (km/s) = 6.22066 6.77626 6.50439
#
# Compressibility (1/GPa) = 0.02249675
#
# Stress axis : x y z
#
# Youngs Moduli (GPa) = 98.60281 53.99331 50.72863
#
# Poissons Ratio (x) = 0.19503 0.32720
# Poissons Ratio (y) = 0.35617 0.14595
# Poissons Ratio (z) = 0.63599 0.15534
#
# Static dielectric constant tensor:
#      x y z
#    x 3.752630 0.000040 0.000010 
#    y 0.000040 3.524830 -0.000150 
#    z 0.000010 -0.000150 2.996630 
# 
# 
# High freq. dielectric constant tensor:
#      x y z
#    x 1.780170 0.000010 0.000010 
#    y 0.000010 1.761060 -0.000010 
#    z 0.000010 -0.000010 1.752440 
# 
# From -- ./inp_files/5726.got.cif
#   From: 2010.03.12/outbox.ucp.g09.slc.cvg/sg69_3_cif.got.tgz:5726.got - 2010.05.04 19:54:48.
