data_PCOD8285957
_publ_section_title
;
Structure prediction by ZEFSAII (Michael W. Deem and Ramdas Pophale) SiO2 
 PCOD8285957
Probable space group: F D D D
;
_chemical_formula_sum "Si O2"
_cell_formula_units_Z 168
_cell_length_a 29.693283
_cell_length_b 19.003051
_cell_length_c 14.139014
_cell_angle_alpha 90.000000
_cell_angle_beta 90.000000
_cell_angle_gamma 90.000000
_cell_volume 7978.122050
_symmetry_space_group_name_H-M "F D D D"
_symmetry_group_IT_number 70
_space_group.IT_coordinate_system_code '2'
_symmetry_cell_setting 'orthorhombic'
loop_
_space_group_symop_operation_xyz
x,y,z
1/4-x,1/4-y,z
x,1/4-y,1/4-z
1/4-x,y,1/4-z
-x,-y,-z
3/4+x,3/4+y,-z
-x,3/4+y,3/4+z
3/4+x,-y,3/4+z
x,1/2+y,1/2+z
1/4-x,3/4-y,1/2+z
x,3/4-y,3/4-z
1/4-x,1/2+y,3/4-z
-x,1/2-y,1/2-z
3/4+x,1/4+y,1/2-z
-x,1/4+y,1/4+z
3/4+x,1/2-y,1/4+z
1/2+x,y,1/2+z
3/4-x,1/4-y,1/2+z
1/2+x,1/4-y,3/4-z
3/4-x,y,3/4-z
1/2-x,-y,1/2-z
1/4+x,3/4+y,1/2-z
1/2-x,3/4+y,1/4+z
1/4+x,-y,1/4+z
1/2+x,1/2+y,z
3/4-x,3/4-y,z
1/2+x,3/4-y,1/4-z
3/4-x,1/2+y,1/4-z
1/2-x,1/2-y,-z
1/4+x,1/4+y,-z
1/2-x,1/4+y,3/4+z
1/4+x,1/2-y,3/4+z
loop_
_atom_site_type_symbol
_atom_site_label
_atom_site_fract_x
_atom_site_fract_y
_atom_site_fract_z
Si Si1 0.993291 0.801179 0.161906
Si Si2 0.175544 0.389587 0.635234
Si Si3 0.625000 0.125000 0.125000
Si Si4 0.915289 0.052168 0.084049
Si Si5 0.581052 0.663423 0.444333
Si Si6 0.812429 0.558804 0.567437
O O1 0.963910 0.867400 0.194149
O O2 0.966527 0.760373 0.081691
O O3 0.000000 0.750000 0.250000
O O4 0.039902 0.824369 0.111564
O O5 0.125000 0.358237 0.625000
O O6 0.177888 0.444574 0.722907
O O7 0.188707 0.433437 0.544002
O O8 0.594468 0.074990 0.194206
O O9 0.935221 0.125000 0.125000
O O10 0.862460 0.047766 0.106210
O O11 0.934101 0.984038 0.138693
O O12 0.625000 0.625000 0.395645
O O13 0.791322 0.625000 0.625000
#
# Coordination Sequence:
#
# PCOD8285957 Si02
#       6
#    32  32   8  32  32  32
#     4  12  24  41  70 107 141 181 228 304 361 430
#     4  10  24  42  66  96 137 191 237 275 358 429
#     4   8  20  40  72 112 138 172 218 312 392 416
#     4  10  22  43  67  93 137 187 229 284 344 427
#     4  10  22  43  67 100 142 177 230 295 359 425
#     4  10  19  41  65  96 136 176 222 280 351 423
#
# _framework density 21.057586000000001
#
# number of rings (size 3 to 8) (size 9 to 14) (size 15 to 20)
#    0.571    1.143    3.810    0.000    0.000    5.333 
#   10.286    0.952    0.000    0.000    0.000    0.000 
#    0.000    0.000    0.000    0.000    0.000    0.000 
#
# Total GULP energy -520466.525838 kJ/mol
# GULP energy per Si atom -12392.060139 kJ/mol
# Density = 2.100966 g / cm^3
# Si number density = 21.057586 Si / 1000 Ang^3
#
#
#
# Elastic Constant Matrix: (Units=GPa)
#
#
# Indices 1 2 3 4 5 6 
#
# 1 108.3838 59.8015 46.3933 0.0000 0.0000 0.0000
# 2 59.8015 147.3559 75.2196 0.0000 0.0000 0.0000
# 3 46.3933 75.2196 157.4303 0.0000 0.0000 0.0000
# 4 0.0000 0.0000 0.0000 36.7772 0.0000 0.0000
# 5 0.0000 0.0000 0.0000 0.0000 -0.2529 0.0000
# 6 0.0000 0.0000 0.0000 0.0000 0.0000 31.7101
#
#
#
# Elastic Compliance Matrix: (Units=1/GPa)
#
#
# Indices 1 2 3 4 5 6 
#
# 1 0.012195 -0.004119 -0.001626 0.000000 0.000000 0.000000
# 2 -0.004119 0.010367 -0.003739 0.000000 0.000000 0.000000
# 3 -0.001626 -0.003739 0.008618 0.000000 0.000000 0.000000
# 4 0.000000 0.000000 0.000000 0.027191 0.000000 0.000000
# 5 0.000000 0.000000 0.000000 0.000000 -3.954858 0.000000
# 6 0.000000 0.000000 0.000000 0.000000 0.000000 0.031536
#
#
# Mechanical properties :
#
#
# Convention : Reuss Voigt Hill
#
# Bulk Modulus (GPa) = 81.89211 86.22209 84.05710
# Shear Modulus (GPa) = -1.30144 29.09727 13.89792
#
# Velocity S-wave (km/s) = -0.78701 3.72128 2.57183
# Velocity P-wave (km/s) = 6.17642 7.71354 6.98738
#
# Compressibility (1/GPa) = 0.01221119
#
# Stress axis : x y z
#
# Youngs Moduli (GPa) = 81.99948 96.46152 116.04048
#
# Poissons Ratio (x) = 0.39736 0.18863
# Poissons Ratio (y) = 0.33779 0.43391
# Poissons Ratio (z) = 0.13330 0.36070
#
# Static dielectric constant tensor:
#      x y z
#    x 4.010230 0.000000 0.000000 
#    y 0.000000 3.698280 0.000000 
#    z 0.000000 0.000000 3.978820 
# 
# 
# High freq. dielectric constant tensor:
#      x y z
#    x 1.823480 0.000000 0.000000 
#    y 0.000000 1.808930 0.000000 
#    z 0.000000 0.000000 1.823620 
# 
# From -- ./inp_files/29863.got.cif
#   From: 2010.03.12/outbox.cif.g09.slc.cpg/sg70_15_cif.got.tgz:29863.got - 2010.04.16 13:46:32.
