data_PCOD8285624
_publ_section_title
;
Structure prediction by ZEFSAII (Michael W. Deem and Ramdas Pophale) SiO2 
 PCOD8285624
Probable space group: F M M M
;
_chemical_formula_sum "Si O2"
_cell_formula_units_Z 144
_cell_length_a 9.333740
_cell_length_b 31.693672
_cell_length_c 26.915934
_cell_angle_alpha 90.000000
_cell_angle_beta 90.000000
_cell_angle_gamma 90.000000
_cell_volume 7962.284895
_symmetry_space_group_name_H-M "F M M M"
_symmetry_group_IT_number 69
_symmetry_cell_setting 'orthorhombic'
loop_
_space_group_symop_operation_xyz
x,y,z
-x,-y,z
x,-y,-z
-x,y,-z
-x,-y,-z
x,y,-z
-x,y,z
x,-y,z
x,1/2+y,1/2+z
-x,1/2-y,1/2+z
x,1/2-y,1/2-z
-x,1/2+y,1/2-z
-x,1/2-y,1/2-z
x,1/2+y,1/2-z
-x,1/2+y,1/2+z
x,1/2-y,1/2+z
1/2+x,y,1/2+z
1/2-x,-y,1/2+z
1/2+x,-y,1/2-z
1/2-x,y,1/2-z
1/2-x,-y,1/2-z
1/2+x,y,1/2-z
1/2-x,y,1/2+z
1/2+x,-y,1/2+z
1/2+x,1/2+y,z
1/2-x,1/2-y,z
1/2+x,1/2-y,-z
1/2-x,1/2+y,-z
1/2-x,1/2-y,-z
1/2+x,1/2+y,-z
1/2-x,1/2+y,z
1/2+x,1/2-y,z
loop_
_atom_site_type_symbol
_atom_site_label
_atom_site_fract_x
_atom_site_fract_y
_atom_site_fract_z
Si Si1 0.335228 0.122094 0.202025
Si Si2 0.670065 0.333799 0.554503
Si Si3 0.830500 0.500000 0.557800
Si Si4 0.833182 0.421018 0.099700
Si Si5 0.169097 0.708799 0.847549
O O1 0.500000 0.122784 0.216777
O O2 0.250000 0.106500 0.250000
O O3 0.307763 0.089251 0.157624
O O4 0.286953 0.169201 0.186404
O O5 0.729818 0.321004 0.500000
O O6 0.500000 0.333702 0.555678
O O7 0.719348 0.381167 0.567296
O O8 0.723594 0.300849 0.596096
O O9 0.787768 0.500000 0.500000
O O10 0.765380 0.540456 0.584534
O O11 0.000000 0.500000 0.565285
O O12 0.000000 0.431579 0.089711
O O13 0.250000 0.750000 0.827413
O O14 0.000000 0.716787 0.845852
#
# Coordination Sequence:
#
# PCOD8285624 Si02
#       5
#    32  32  16  32  32
#     4   9  19  35  54  75  98 127 166 210 252 295
#     4   8  14  27  48  70  93 125 164 204 243 285
#     4  11  23  35  50  79 114 137 156 193 244 291
#     4   9  18  34  55  76  97 128 172 209 239 289
#     4   9  18  31  46  69  99 127 161 204 246 292
#
# _framework density 18.085260000000002
#
# number of rings (size 3 to 8) (size 9 to 14) (size 15 to 20)
#    0.000    3.000    0.000    3.667    0.000    4.444 
#    0.000    6.111    0.000    1.333    0.000    0.000 
#    0.000    0.000    0.000    0.000    0.000    0.000 
#
# Total GULP energy -446269.897364 kJ/mol
# GULP energy per Si atom -12396.386038 kJ/mol
# Density = 1.804410 g / cm^3
# Si number density = 18.085260 Si / 1000 Ang^3
#
#
#
# Elastic Constant Matrix: (Units=GPa)
#
#
# Indices 1 2 3 4 5 6 
#
# 1 53.6170 39.8502 37.5999 0.0000 0.0000 0.0000
# 2 39.8502 90.3220 20.9735 0.0000 0.0000 0.0000
# 3 37.5999 20.9735 95.8590 0.0000 0.0000 0.0000
# 4 0.0000 0.0000 0.0000 14.3948 0.0000 0.0000
# 5 0.0000 0.0000 0.0000 0.0000 26.7708 0.0000
# 6 0.0000 0.0000 0.0000 0.0000 0.0000 27.1863
#
#
#
# Elastic Compliance Matrix: (Units=1/GPa)
#
#
# Indices 1 2 3 4 5 6 
#
# 1 0.036759 -0.013559 -0.011452 0.000000 0.000000 0.000000
# 2 -0.013559 0.016666 0.001672 0.000000 0.000000 0.000000
# 3 -0.011452 0.001672 0.014558 0.000000 0.000000 0.000000
# 4 0.000000 0.000000 0.000000 0.069470 0.000000 0.000000
# 5 0.000000 0.000000 0.000000 0.000000 0.037354 0.000000
# 6 0.000000 0.000000 0.000000 0.000000 0.000000 0.036783
#
#
# Mechanical properties :
#
#
# Convention : Reuss Voigt Hill
#
# Bulk Modulus (GPa) = 46.93698 48.51615 47.72657
# Shear Modulus (GPa) = 18.84168 23.09533 20.96851
#
# Velocity S-wave (km/s) = 3.23123 3.57743 3.40873
# Velocity P-wave (km/s) = 6.31907 6.62937 6.47608
#
# Compressibility (1/GPa) = 0.02130516
#
# Stress axis : x y z
#
# Youngs Moduli (GPa) = 27.20405 60.00419 68.69050
#
# Poissons Ratio (x) = 0.81360 0.78663
# Poissons Ratio (y) = 0.36886 -0.11486
# Poissons Ratio (z) = 0.31154 -0.10033
#
# Static dielectric constant tensor:
#      x y z
#    x 2.989840 0.000000 0.000000 
#    y 0.000000 3.213620 0.000000 
#    z 0.000000 0.000000 3.540750 
# 
# 
# High freq. dielectric constant tensor:
#      x y z
#    x 1.671660 0.000000 0.000000 
#    y 0.000000 1.692680 0.000000 
#    z 0.000000 0.000000 1.707490 
# 
# From -- ./inp_files/5563.got.cif
#   From: 2010.03.12/outbox.cif.g09.slc.cpg/sg69_3_cif.got.tgz:5563.got - 2010.04.10 23:52:46.
