data_PCOD8285328
_publ_section_title
;
Structure prediction by ZEFSAII (Michael W. Deem and Ramdas Pophale) SiO2 
 PCOD8285328
Probable space group: F M M M
;
_chemical_formula_sum "Si O2"
_cell_formula_units_Z 176
_cell_length_a 20.107017
_cell_length_b 23.668332
_cell_length_c 18.604294
_cell_angle_alpha 90.000000
_cell_angle_beta 90.000000
_cell_angle_gamma 90.000000
_cell_volume 8853.775215
_symmetry_space_group_name_H-M "F M M M"
_symmetry_group_IT_number 69
_symmetry_cell_setting 'orthorhombic'
loop_
_space_group_symop_operation_xyz
x,y,z
-x,-y,z
x,-y,-z
-x,y,-z
-x,-y,-z
x,y,-z
-x,y,z
x,-y,z
x,1/2+y,1/2+z
-x,1/2-y,1/2+z
x,1/2-y,1/2-z
-x,1/2+y,1/2-z
-x,1/2-y,1/2-z
x,1/2+y,1/2-z
-x,1/2+y,1/2+z
x,1/2-y,1/2+z
1/2+x,y,1/2+z
1/2-x,-y,1/2+z
1/2+x,-y,1/2-z
1/2-x,y,1/2-z
1/2-x,-y,1/2-z
1/2+x,y,1/2-z
1/2-x,y,1/2+z
1/2+x,-y,1/2+z
1/2+x,1/2+y,z
1/2-x,1/2-y,z
1/2+x,1/2-y,-z
1/2-x,1/2+y,-z
1/2-x,1/2-y,-z
1/2+x,1/2+y,-z
1/2-x,1/2+y,z
1/2+x,1/2-y,z
loop_
_atom_site_type_symbol
_atom_site_label
_atom_site_fract_x
_atom_site_fract_y
_atom_site_fract_z
Si Si1 0.000000 0.194320 0.584710
Si Si2 0.877022 0.620904 0.081413
Si Si3 0.422418 0.936022 0.212643
Si Si4 0.877762 0.614944 0.354239
Si Si5 0.239512 0.185509 0.917853
Si Si6 0.000000 0.181448 0.914814
Si Si7 0.076474 0.500000 0.584564
O O1 0.066306 0.163148 0.609825
O O2 0.000000 0.200262 0.500000
O O3 0.000000 0.256219 0.618972
O O4 0.882661 0.568817 0.136861
O O5 0.808428 0.653201 0.086309
O O6 0.890103 0.599218 0.000000
O O7 0.500000 0.921108 0.202679
O O8 0.388242 0.893450 0.269115
O O9 0.414204 0.000000 0.240905
O O10 0.810090 0.649452 0.368068
O O11 0.935514 0.651268 0.387268
O O12 0.880353 0.553886 0.391825
O O13 0.250000 0.250000 0.890106
O O14 0.212465 0.187130 0.000000
O O15 0.000000 0.180877 0.000000
O O16 0.070099 0.500000 0.500000
O O17 0.000000 0.500000 0.616956
#
# Coordination Sequence:
#
# PCOD8285328 Si02
#       7
#    16  32  32  32  32  16  16
#     4   9  18  35  60  89 117 151 204 272 320 358
#     4  10  21  41  66  91 118 158 219 271 317 381
#     4  11  23  42  64  89 126 166 205 266 333 385
#     4  12  22  38  59  93 130 170 209 253 320 390
#     4  10  22  42  66  93 130 172 212 259 315 378
#     4  11  20  32  58  91 124 163 207 253 310 383
#     4  11  20  34  58  89 127 168 218 261 301 372
#
# _framework density 19.878526000000001
#
# number of rings (size 3 to 8) (size 9 to 14) (size 15 to 20)
#    0.000    1.364    3.636    2.727    0.000    4.000 
#    1.636    7.273    0.000    0.000    0.000    0.000 
#    0.000    0.000    0.000    0.000    0.000    0.000 
#
# Total GULP energy -545539.898569 kJ/mol
# GULP energy per Si atom -12398.634058 kJ/mol
# Density = 1.983328 g / cm^3
# Si number density = 19.878526 Si / 1000 Ang^3
#
#
#
# Elastic Constant Matrix: (Units=GPa)
#
#
# Indices 1 2 3 4 5 6 
#
# 1 110.9158 44.8983 40.4992 0.0000 0.0000 0.0000
# 2 44.8983 99.7379 37.5075 0.0000 0.0000 0.0000
# 3 40.4992 37.5075 107.8534 0.0000 0.0000 0.0000
# 4 0.0000 0.0000 0.0000 44.5032 0.0000 0.0000
# 5 0.0000 0.0000 0.0000 0.0000 31.7720 0.0000
# 6 0.0000 0.0000 0.0000 0.0000 0.0000 32.2362
#
#
#
# Elastic Compliance Matrix: (Units=1/GPa)
#
#
# Indices 1 2 3 4 5 6 
#
# 1 0.011799 -0.004194 -0.002972 0.000000 0.000000 0.000000
# 2 -0.004194 0.013025 -0.002955 0.000000 0.000000 0.000000
# 3 -0.002972 -0.002955 0.011415 0.000000 0.000000 0.000000
# 4 0.000000 0.000000 0.000000 0.022470 0.000000 0.000000
# 5 0.000000 0.000000 0.000000 0.000000 0.031474 0.000000
# 6 0.000000 0.000000 0.000000 0.000000 0.000000 0.031021
#
#
# Mechanical properties :
#
#
# Convention : Reuss Voigt Hill
#
# Bulk Modulus (GPa) = 62.50739 62.70191 62.60465
# Shear Modulus (GPa) = 34.06480 34.74241 34.40361
#
# Velocity S-wave (km/s) = 4.14411 4.18513 4.16467
# Velocity P-wave (km/s) = 7.37639 7.41382 7.39513
#
# Compressibility (1/GPa) = 0.01599811
#
# Stress axis : x y z
#
# Youngs Moduli (GPa) = 84.75581 76.77326 87.60026
#
# Poissons Ratio (x) = 0.32196 0.26035
# Poissons Ratio (y) = 0.35543 0.25886
# Poissons Ratio (z) = 0.25189 0.22687
#
# Static dielectric constant tensor:
#      x y z
#    x 3.377940 0.000000 0.000000 
#    y 0.000000 3.879550 0.000000 
#    z 0.000000 0.000000 3.645220 
# 
# 
# High freq. dielectric constant tensor:
#      x y z
#    x 1.770370 0.000000 0.000000 
#    y 0.000000 1.779330 0.000000 
#    z 0.000000 0.000000 1.771430 
# 
# From -- ./inp_files/23328.got.cif
#   From: 2010.03.12/outbox.cif.g09.slc.cpg/sg69_12_cif.got.tgz:23328.got - 2010.04.10 23:52:46.
