data_PCOD8285749
_publ_section_title
;
Structure prediction by ZEFSAII (Michael W. Deem and Ramdas Pophale) SiO2 
 PCOD8285749
Probable space group: F D D D
;
_chemical_formula_sum "Si O2"
_cell_formula_units_Z 208
_cell_length_a 28.561333
_cell_length_b 18.425409
_cell_length_c 20.179296
_cell_angle_alpha 90.000000
_cell_angle_beta 90.000000
_cell_angle_gamma 90.000000
_cell_volume 10619.440123
_symmetry_space_group_name_H-M "F D D D"
_symmetry_group_IT_number 70
_space_group.IT_coordinate_system_code '2'
_symmetry_cell_setting 'orthorhombic'
loop_
_space_group_symop_operation_xyz
x,y,z
1/4-x,1/4-y,z
x,1/4-y,1/4-z
1/4-x,y,1/4-z
-x,-y,-z
3/4+x,3/4+y,-z
-x,3/4+y,3/4+z
3/4+x,-y,3/4+z
x,1/2+y,1/2+z
1/4-x,3/4-y,1/2+z
x,3/4-y,3/4-z
1/4-x,1/2+y,3/4-z
-x,1/2-y,1/2-z
3/4+x,1/4+y,1/2-z
-x,1/4+y,1/4+z
3/4+x,1/2-y,1/4+z
1/2+x,y,1/2+z
3/4-x,1/4-y,1/2+z
1/2+x,1/4-y,3/4-z
3/4-x,y,3/4-z
1/2-x,-y,1/2-z
1/4+x,3/4+y,1/2-z
1/2-x,3/4+y,1/4+z
1/4+x,-y,1/4+z
1/2+x,1/2+y,z
3/4-x,3/4-y,z
1/2+x,3/4-y,1/4-z
3/4-x,1/2+y,1/4-z
1/2-x,1/2-y,-z
1/4+x,1/4+y,-z
1/2-x,1/4+y,3/4+z
1/4+x,1/2-y,3/4+z
loop_
_atom_site_type_symbol
_atom_site_label
_atom_site_fract_x
_atom_site_fract_y
_atom_site_fract_z
Si Si1 0.776647 0.501349 0.415411
Si Si2 0.476393 0.125000 0.125000
Si Si3 0.758939 0.842401 0.569726
Si Si4 0.712705 0.875000 0.875000
Si Si5 0.066007 0.275404 0.765748
Si Si6 0.750787 0.511689 0.944973
Si Si7 0.125000 0.438598 0.625000
Si Si8 0.409603 0.162061 0.492373
O O1 0.742770 0.571616 0.422363
O O2 0.747065 0.444734 0.371530
O O3 0.781770 0.474770 0.490967
O O4 0.828243 0.513035 0.385579
O O5 0.445208 0.071770 0.081237
O O6 0.506228 0.176413 0.075231
O O7 0.797320 0.808226 0.518782
O O8 0.707638 0.813181 0.548341
O O9 0.774355 0.809355 0.639641
O O10 0.680480 0.875746 0.808813
O O11 0.121657 0.276834 0.760766
O O12 0.802033 0.543566 0.953440
O O13 0.135125 0.394722 0.692424
#
# Coordination Sequence:
#
# PCOD8285749 Si02
#       8
#    32  16  32  16  32  32  16  32
#     4  11  22  43  61  93 122 168 211 270 317 375
#     4  10  17  32  56  87 116 164 190 247 303 386
#     4  10  19  36  62  89 123 162 200 259 312 389
#     4  10  27  41  64  88 134 166 214 269 333 362
#     4  10  19  32  62  90 121 159 211 241 319 377
#     4  10  20  34  58  86 124 156 202 253 321 369
#     4  12  22  39  74  87 122 162 224 262 316 379
#     4  11  20  39  60  94 118 167 210 262 308 387
#
# _framework density 19.586721000000001
#
# number of rings (size 3 to 8) (size 9 to 14) (size 15 to 20)
#    0.000    1.538    4.615    0.462    0.000    2.154 
#    0.000    3.077    3.385    0.000    0.000    0.000 
#    0.000    0.000    0.000    0.000    0.000    0.000 
#
# Total GULP energy -644327.383153 kJ/mol
# GULP energy per Si atom -12390.911214 kJ/mol
# Density = 1.954214 g / cm^3
# Si number density = 19.586721 Si / 1000 Ang^3
#
#
#
# Elastic Constant Matrix: (Units=GPa)
#
#
# Indices 1 2 3 4 5 6 
#
# 1 96.2493 32.9398 25.0258 0.0000 0.0000 0.0000
# 2 32.9398 84.6908 15.0907 0.0000 0.0000 0.0000
# 3 25.0258 15.0907 80.9096 0.0000 0.0000 0.0000
# 4 0.0000 0.0000 0.0000 32.5569 0.0000 0.0000
# 5 0.0000 0.0000 0.0000 0.0000 22.8956 0.0000
# 6 0.0000 0.0000 0.0000 0.0000 0.0000 31.5537
#
#
#
# Elastic Compliance Matrix: (Units=1/GPa)
#
#
# Indices 1 2 3 4 5 6 
#
# 1 0.012699 -0.004385 -0.003110 0.000000 0.000000 0.000000
# 2 -0.004385 0.013728 -0.001204 0.000000 0.000000 0.000000
# 3 -0.003110 -0.001204 0.013546 0.000000 0.000000 0.000000
# 4 0.000000 0.000000 0.000000 0.030715 0.000000 0.000000
# 5 0.000000 0.000000 0.000000 0.000000 0.043677 0.000000
# 6 0.000000 0.000000 0.000000 0.000000 0.000000 0.031692
#
#
# Mechanical properties :
#
#
# Convention : Reuss Voigt Hill
#
# Bulk Modulus (GPa) = 44.29777 45.32913 44.81345
# Shear Modulus (GPa) = 29.24322 29.98747 29.61535
#
# Velocity S-wave (km/s) = 3.86814 3.91706 3.89268
# Velocity P-wave (km/s) = 6.52805 6.60688 6.56758
#
# Compressibility (1/GPa) = 0.02257450
#
# Stress axis : x y z
#
# Youngs Moduli (GPa) = 78.74616 72.84530 73.82256
#
# Poissons Ratio (x) = 0.31943 0.22959
# Poissons Ratio (y) = 0.34530 0.08889
# Poissons Ratio (z) = 0.24490 0.08771
#
# Static dielectric constant tensor:
#      x y z
#    x 3.423440 0.000000 0.000000 
#    y 0.000000 3.590340 0.000000 
#    z 0.000000 0.000000 3.906130 
# 
# 
# High freq. dielectric constant tensor:
#      x y z
#    x 1.743580 0.000000 0.000000 
#    y 0.000000 1.751520 0.000000 
#    z 0.000000 0.000000 1.782000 
# 
# From -- ./inp_files/46983.got.cif
#   From: 2010.03.12/outbox.cif.g09.slc.cpg/sg70_24_cif.got.tgz:46983.got - 2010.04.16 13:46:32.
