data_PCOD8285959
_publ_section_title
;
Structure prediction by ZEFSAII (Michael W. Deem and Ramdas Pophale) SiO2 
 PCOD8285959
Probable space group: F D D D
;
_chemical_formula_sum "Si O2"
_cell_formula_units_Z 176
_cell_length_a 25.081847
_cell_length_b 12.103003
_cell_length_c 28.014665
_cell_angle_alpha 90.000000
_cell_angle_beta 90.000000
_cell_angle_gamma 90.000000
_cell_volume 8504.290536
_symmetry_space_group_name_H-M "F D D D"
_symmetry_group_IT_number 70
_space_group.IT_coordinate_system_code '2'
_symmetry_cell_setting 'orthorhombic'
loop_
_space_group_symop_operation_xyz
x,y,z
1/4-x,1/4-y,z
x,1/4-y,1/4-z
1/4-x,y,1/4-z
-x,-y,-z
3/4+x,3/4+y,-z
-x,3/4+y,3/4+z
3/4+x,-y,3/4+z
x,1/2+y,1/2+z
1/4-x,3/4-y,1/2+z
x,3/4-y,3/4-z
1/4-x,1/2+y,3/4-z
-x,1/2-y,1/2-z
3/4+x,1/4+y,1/2-z
-x,1/4+y,1/4+z
3/4+x,1/2-y,1/4+z
1/2+x,y,1/2+z
3/4-x,1/4-y,1/2+z
1/2+x,1/4-y,3/4-z
3/4-x,y,3/4-z
1/2-x,-y,1/2-z
1/4+x,3/4+y,1/2-z
1/2-x,3/4+y,1/4+z
1/4+x,-y,1/4+z
1/2+x,1/2+y,z
3/4-x,3/4-y,z
1/2+x,3/4-y,1/4-z
3/4-x,1/2+y,1/4-z
1/2-x,1/2-y,-z
1/4+x,1/4+y,-z
1/2-x,1/4+y,3/4+z
1/4+x,1/2-y,3/4+z
loop_
_atom_site_type_symbol
_atom_site_label
_atom_site_fract_x
_atom_site_fract_y
_atom_site_fract_z
Si Si1 0.616539 0.851556 0.303051
Si Si2 0.625000 0.625000 0.734600
Si Si3 0.726058 0.875000 0.875000
Si Si4 0.625000 0.125000 0.849278
Si Si5 0.808049 0.811005 0.569028
Si Si6 0.391128 0.145580 0.445218
Si Si7 0.959807 0.653256 0.889371
O O1 0.561056 0.873710 0.328623
O O2 0.637196 0.730835 0.317118
O O3 0.601731 0.846763 0.247739
O O4 0.662752 0.940664 0.317784
O O5 0.573012 0.626276 0.769783
O O6 0.624158 0.523287 0.699236
O O7 0.763755 0.770794 0.868302
O O8 0.575637 0.137961 0.885831
O O9 0.744644 0.813112 0.579201
O O10 0.343890 0.079174 0.419586
O O11 0.445055 0.140655 0.413709
#
# Coordination Sequence:
#
# PCOD8285959 Si02
#       7
#    32  16  16  16  32  32  32
#     4  11  22  41  67  94 131 159 213 273 312 371
#     4   9  20  43  68  85 130 161 206 279 317 356
#     4  12  22  43  66  90 130 171 202 274 320 364
#     4  11  18  38  64  98 120 160 206 268 303 382
#     4  10  19  41  66  91 123 165 202 262 330 357
#     4  10  25  44  60  93 131 172 210 260 311 383
#     4  11  24  42  64  89 132 173 211 251 325 381
#
# _framework density 20.695436000000001
#
# number of rings (size 3 to 8) (size 9 to 14) (size 15 to 20)
#    0.000    1.455    3.636    2.182    0.000    8.000 
#   13.091    0.000    0.000    0.000    0.000    0.000 
#    0.000    0.000    0.000    0.000    0.000    0.000 
#
# Total GULP energy -545185.966642 kJ/mol
# GULP energy per Si atom -12390.590151 kJ/mol
# Density = 2.064833 g / cm^3
# Si number density = 20.695436 Si / 1000 Ang^3
#
#
#
# Elastic Constant Matrix: (Units=GPa)
#
#
# Indices 1 2 3 4 5 6 
#
# 1 112.5531 50.3926 54.4121 0.0000 0.0000 0.0000
# 2 50.3926 109.3979 46.0647 0.0000 0.0000 0.0000
# 3 54.4121 46.0647 144.8981 0.0000 0.0000 0.0000
# 4 0.0000 0.0000 0.0000 20.3952 0.0000 0.0000
# 5 0.0000 0.0000 0.0000 0.0000 24.3635 0.0000
# 6 0.0000 0.0000 0.0000 0.0000 0.0000 18.7029
#
#
#
# Elastic Compliance Matrix: (Units=1/GPa)
#
#
# Indices 1 2 3 4 5 6 
#
# 1 0.012413 -0.004335 -0.003283 0.000000 0.000000 0.000000
# 2 -0.004335 0.012068 -0.002208 0.000000 0.000000 0.000000
# 3 -0.003283 -0.002208 0.008836 0.000000 0.000000 0.000000
# 4 0.000000 0.000000 0.000000 0.049031 0.000000 0.000000
# 5 0.000000 0.000000 0.000000 0.000000 0.041045 0.000000
# 6 0.000000 0.000000 0.000000 0.000000 0.000000 0.053468
#
#
# Mechanical properties :
#
#
# Convention : Reuss Voigt Hill
#
# Bulk Modulus (GPa) = 73.18870 74.28756 73.73813
# Shear Modulus (GPa) = 24.86707 27.09097 25.97902
#
# Velocity S-wave (km/s) = 3.47013 3.62198 3.54687
# Velocity P-wave (km/s) = 7.17615 7.31199 7.24439
#
# Compressibility (1/GPa) = 0.01366331
#
# Stress axis : x y z
#
# Youngs Moduli (GPa) = 80.56140 82.86413 113.16910
#
# Poissons Ratio (x) = 0.35925 0.37153
# Poissons Ratio (y) = 0.34927 0.24993
# Poissons Ratio (z) = 0.26448 0.18300
#
# Static dielectric constant tensor:
#      x y z
#    x 3.946970 0.000000 0.000000 
#    y 0.000000 3.736610 0.000000 
#    z 0.000000 0.000000 3.853230 
# 
# 
# High freq. dielectric constant tensor:
#      x y z
#    x 1.798040 0.000000 0.000000 
#    y 0.000000 1.809910 0.000000 
#    z 0.000000 0.000000 1.818100 
# 
# From -- ./inp_files/68376.got.cif
#   From: 2010.03.12/outbox.cif.g09.slc.cpg/sg70_35_cif.got.tgz:68376.got - 2010.04.16 13:46:32.
