data_PCOD8285602
_publ_section_title
;
Structure prediction by ZEFSAII (Michael W. Deem and Ramdas Pophale) SiO2 
 PCOD8285602
Probable space group: F M M M
;
_chemical_formula_sum "Si O2"
_cell_formula_units_Z 160
_cell_length_a 17.053289
_cell_length_b 21.688233
_cell_length_c 21.213062
_cell_angle_alpha 90.000000
_cell_angle_beta 90.000000
_cell_angle_gamma 90.000000
_cell_volume 7845.772006
_symmetry_space_group_name_H-M "F M M M"
_symmetry_group_IT_number 69
_symmetry_cell_setting 'orthorhombic'
loop_
_space_group_symop_operation_xyz
x,y,z
-x,-y,z
x,-y,-z
-x,y,-z
-x,-y,-z
x,y,-z
-x,y,z
x,-y,z
x,1/2+y,1/2+z
-x,1/2-y,1/2+z
x,1/2-y,1/2-z
-x,1/2+y,1/2-z
-x,1/2-y,1/2-z
x,1/2+y,1/2-z
-x,1/2+y,1/2+z
x,1/2-y,1/2+z
1/2+x,y,1/2+z
1/2-x,-y,1/2+z
1/2+x,-y,1/2-z
1/2-x,y,1/2-z
1/2-x,-y,1/2-z
1/2+x,y,1/2-z
1/2-x,y,1/2+z
1/2+x,-y,1/2+z
1/2+x,1/2+y,z
1/2-x,1/2-y,z
1/2+x,1/2-y,-z
1/2-x,1/2+y,-z
1/2-x,1/2-y,-z
1/2+x,1/2+y,-z
1/2-x,1/2+y,z
1/2+x,1/2-y,z
loop_
_atom_site_type_symbol
_atom_site_label
_atom_site_fract_x
_atom_site_fract_y
_atom_site_fract_z
Si Si1 0.841003 0.123781 0.127264
Si Si2 0.407574 0.570002 0.500000
Si Si3 0.413550 0.237982 0.428319
Si Si4 0.908172 0.677473 0.247389
Si Si5 0.906927 0.000000 0.072974
Si Si6 0.658945 0.644613 0.382453
O O1 0.881602 0.169239 0.077373
O O2 0.863035 0.142798 0.197415
O O3 0.748181 0.124992 0.120880
O O4 0.871983 0.057098 0.110368
O O5 0.374976 0.500000 0.500000
O O6 0.500000 0.570675 0.500000
O O7 0.380845 0.603200 0.564001
O O8 0.424794 0.255825 0.500000
O O9 0.500000 0.244468 0.394978
O O10 0.349731 0.283242 0.398663
O O11 0.884095 0.750000 0.250000
O O12 0.883258 0.639577 0.185111
O O13 0.000000 0.670019 0.257688
O O14 0.000000 0.000000 0.077896
O O15 0.879728 0.000000 0.000000
#
# Coordination Sequence:
#
# PCOD8285602 Si02
#       6
#    32  16  32  32  16  32
#     4  12  26  41  68 100 137 175 228 282 345 399
#     4  11  26  48  71  96 136 187 236 277 333 411
#     4  11  22  38  63  96 134 175 225 276 340 412
#     4  11  23  43  70  98 137 182 225 276 342 412
#     4  11  26  48  71  96 138 189 234 277 335 411
#     4  12  25  40  69 100 137 171 221 286 346 393
#
# _framework density 20.393149000000001
#
# number of rings (size 3 to 8) (size 9 to 14) (size 15 to 20)
#    0.000    0.600    3.000    5.400    4.200    3.200 
#    1.800    1.000    0.000    0.000    0.000    0.000 
#    0.000    0.000    0.000    0.000    0.000    0.000 
#
# Total GULP energy -496020.710118 kJ/mol
# GULP energy per Si atom -12400.517753 kJ/mol
# Density = 2.034673 g / cm^3
# Si number density = 20.393149 Si / 1000 Ang^3
#
#
#
# Elastic Constant Matrix: (Units=GPa)
#
#
# Indices 1 2 3 4 5 6 
#
# 1 102.6702 48.5081 42.6080 0.0000 0.0000 0.0000
# 2 48.5081 145.0812 51.9885 0.0000 0.0000 0.0000
# 3 42.6080 51.9885 136.3672 0.0000 0.0000 0.0000
# 4 0.0000 0.0000 0.0000 -858.2128 0.0000 0.0000
# 5 0.0000 0.0000 0.0000 0.0000 44.8988 0.0000
# 6 0.0000 0.0000 0.0000 0.0000 0.0000 22.6527
#
#
#
# Elastic Compliance Matrix: (Units=1/GPa)
#
#
# Indices 1 2 3 4 5 6 
#
# 1 0.012339 -0.003178 -0.002644 0.000000 0.000000 0.000000
# 2 -0.003178 0.008802 -0.002363 0.000000 0.000000 0.000000
# 3 -0.002644 -0.002363 0.009060 0.000000 0.000000 0.000000
# 4 0.000000 0.000000 0.000000 -0.001165 0.000000 0.000000
# 5 0.000000 0.000000 0.000000 0.000000 0.022272 0.000000
# 6 0.000000 0.000000 0.000000 0.000000 0.000000 0.044145
#
#
# Mechanical properties :
#
#
# Convention : Reuss Voigt Hill
#
# Bulk Modulus (GPa) = 72.29768 74.48087 73.38928
# Shear Modulus (GPa) = 42.94372 -142.06465 -49.56046
#
# Velocity S-wave (km/s) = 4.59387 -8.35549 -4.93511
# Velocity P-wave (km/s) = 7.97917 7.51557 1.89517
#
# Compressibility (1/GPa) = 0.01383170
#
# Stress axis : x y z
#
# Youngs Moduli (GPa) = 81.04675 113.61146 110.37709
#
# Poissons Ratio (x) = 0.36107 0.29179
# Poissons Ratio (y) = 0.25758 0.26078
# Poissons Ratio (z) = 0.21425 0.26842
#
# Static dielectric constant tensor:
#      x y z
#    x 3.817100 0.000000 0.000000 
#    y 0.000000 3.868550 0.000000 
#    z 0.000000 0.000000 3.940940 
# 
# 
# High freq. dielectric constant tensor:
#      x y z
#    x 1.810320 0.000000 0.000000 
#    y 0.000000 1.790310 0.000000 
#    z 0.000000 0.000000 1.815210 
# 
# From -- ./inp_files/30849.got.cif
#   From: 2010.03.12/outbox.cif.g09.slc.cpg/sg69_16_cif.got.tgz:30849.got - 2010.04.10 23:52:46.
