data_PCOD8285768
_publ_section_title
;
Structure prediction by ZEFSAII (Michael W. Deem and Ramdas Pophale) SiO2 
 PCOD8285768
Probable space group: F D D D
;
_chemical_formula_sum "Si O2"
_cell_formula_units_Z 208
_cell_length_a 24.943510
_cell_length_b 24.878354
_cell_length_c 17.501025
_cell_angle_alpha 90.000000
_cell_angle_beta 90.000000
_cell_angle_gamma 90.000000
_cell_volume 10860.321824
_symmetry_space_group_name_H-M "F D D D"
_symmetry_group_IT_number 70
_space_group.IT_coordinate_system_code '2'
_symmetry_cell_setting 'orthorhombic'
loop_
_space_group_symop_operation_xyz
x,y,z
1/4-x,1/4-y,z
x,1/4-y,1/4-z
1/4-x,y,1/4-z
-x,-y,-z
3/4+x,3/4+y,-z
-x,3/4+y,3/4+z
3/4+x,-y,3/4+z
x,1/2+y,1/2+z
1/4-x,3/4-y,1/2+z
x,3/4-y,3/4-z
1/4-x,1/2+y,3/4-z
-x,1/2-y,1/2-z
3/4+x,1/4+y,1/2-z
-x,1/4+y,1/4+z
3/4+x,1/2-y,1/4+z
1/2+x,y,1/2+z
3/4-x,1/4-y,1/2+z
1/2+x,1/4-y,3/4-z
3/4-x,y,3/4-z
1/2-x,-y,1/2-z
1/4+x,3/4+y,1/2-z
1/2-x,3/4+y,1/4+z
1/4+x,-y,1/4+z
1/2+x,1/2+y,z
3/4-x,3/4-y,z
1/2+x,3/4-y,1/4-z
3/4-x,1/2+y,1/4-z
1/2-x,1/2-y,-z
1/4+x,1/4+y,-z
1/2-x,1/4+y,3/4+z
1/4+x,1/2-y,3/4+z
loop_
_atom_site_type_symbol
_atom_site_label
_atom_site_fract_x
_atom_site_fract_y
_atom_site_fract_z
Si Si1 0.825611 0.636729 0.430682
Si Si2 0.461723 0.830766 0.270729
Si Si3 0.042163 0.269518 0.040770
Si Si4 0.392888 0.579689 0.187265
Si Si5 0.875000 0.451876 0.375000
Si Si6 0.491332 0.571156 0.296857
Si Si7 0.954576 0.509455 0.590757
O O1 0.875000 0.621336 0.375000
O O2 0.802990 0.582887 0.471475
O O3 0.844785 0.674379 0.501131
O O4 0.781302 0.670681 0.382858
O O5 0.419930 0.837476 0.339563
O O6 0.462478 0.885086 0.220821
O O7 0.436054 0.782741 0.221557
O O8 0.520813 0.813508 0.301612
O O9 0.097311 0.240148 0.061880
O O10 0.001526 0.267968 0.111085
O O11 0.014781 0.239219 0.967018
O O12 0.381198 0.625000 0.125000
O O13 0.447752 0.587238 0.233547
O O14 0.401400 0.524447 0.139617
#
# Coordination Sequence:
#
# PCOD8285768 Si02
#       7
#    32  32  32  32  16  32  32
#     4  10  20  34  51  76 105 138 183 231 264 319
#     4  10  18  30  46  69 115 138 177 199 266 331
#     4  10  19  31  48  71 104 141 182 206 272 322
#     4  10  19  30  51  76 100 131 186 222 264 315
#     4  10  22  27  44  76 104 146 168 208 248 337
#     4  10  20  33  49  70 106 149 171 219 271 333
#     4   9  18  29  47  71 100 144 171 213 263 321
#
# _framework density 19.152286
#
# number of rings (size 3 to 8) (size 9 to 14) (size 15 to 20)
#    0.000    2.154    3.846    0.000    2.154    1.231 
#    0.000    0.000    0.000    0.923    0.000    0.000 
#    0.000    0.000    0.000    0.000    0.000    0.000 
#
# Total GULP energy -644286.114519 kJ/mol
# GULP energy per Si atom -12390.117587 kJ/mol
# Density = 1.910869 g / cm^3
# Si number density = 19.152286 Si / 1000 Ang^3
#
#
#
# Elastic Constant Matrix: (Units=GPa)
#
#
# Indices 1 2 3 4 5 6 
#
# 1 46.8720 35.0382 36.1668 0.0000 0.0000 0.0000
# 2 35.0382 70.2748 46.1851 0.0000 0.0000 0.0000
# 3 36.1668 46.1851 96.9589 0.0000 0.0000 0.0000
# 4 0.0000 0.0000 0.0000 22.7303 0.0000 0.0000
# 5 0.0000 0.0000 0.0000 0.0000 32.2582 0.0000
# 6 0.0000 0.0000 0.0000 0.0000 0.0000 15.9585
#
#
#
# Elastic Compliance Matrix: (Units=1/GPa)
#
#
# Indices 1 2 3 4 5 6 
#
# 1 0.037299 -0.013761 -0.007358 0.000000 0.000000 0.000000
# 2 -0.013761 0.025792 -0.007152 0.000000 0.000000 0.000000
# 3 -0.007358 -0.007152 0.016465 0.000000 0.000000 0.000000
# 4 0.000000 0.000000 0.000000 0.043994 0.000000 0.000000
# 5 0.000000 0.000000 0.000000 0.000000 0.031000 0.000000
# 6 0.000000 0.000000 0.000000 0.000000 0.000000 0.062663
#
#
# Mechanical properties :
#
#
# Convention : Reuss Voigt Hill
#
# Bulk Modulus (GPa) = 43.45425 49.87621 46.66523
# Shear Modulus (GPa) = 17.76663 20.63712 19.20188
#
# Velocity S-wave (km/s) = 3.04904 3.28613 3.16980
# Velocity P-wave (km/s) = 5.92736 6.36370 6.14940
#
# Compressibility (1/GPa) = 0.02301271
#
# Stress axis : x y z
#
# Youngs Moduli (GPa) = 26.81036 38.77230 60.73394
#
# Poissons Ratio (x) = 0.53355 0.44688
# Poissons Ratio (y) = 0.36894 0.43440
# Poissons Ratio (z) = 0.19727 0.27732
#
# Static dielectric constant tensor:
#      x y z
#    x 3.351150 0.000000 0.000000 
#    y 0.000000 3.251740 0.000000 
#    z 0.000000 0.000000 3.545360 
# 
# 
# High freq. dielectric constant tensor:
#      x y z
#    x 1.719580 0.000000 0.000000 
#    y 0.000000 1.720990 0.000000 
#    z 0.000000 0.000000 1.728600 
# 
# From -- ./inp_files/37717.got.cif
#   From: 2010.03.12/outbox.cif.g09.slc.cpg/sg70_19_cif.got.tgz:37717.got - 2010.04.16 13:46:32.
