data_PCOD8285084
_publ_section_title
;
Structure prediction by ZEFSAII (Michael W. Deem and Ramdas Pophale) SiO2 
 PCOD8285084
Probable space group: F M M M
;
_chemical_formula_sum "Si O2"
_cell_formula_units_Z 160
_cell_length_a 26.375910
_cell_length_b 14.452118
_cell_length_c 20.667171
_cell_angle_alpha 90.000000
_cell_angle_beta 90.000000
_cell_angle_gamma 90.000000
_cell_volume 7878.072695
_symmetry_space_group_name_H-M "F M M M"
_symmetry_group_IT_number 69
_symmetry_cell_setting 'orthorhombic'
loop_
_space_group_symop_operation_xyz
x,y,z
-x,-y,z
x,-y,-z
-x,y,-z
-x,-y,-z
x,y,-z
-x,y,z
x,-y,z
x,1/2+y,1/2+z
-x,1/2-y,1/2+z
x,1/2-y,1/2-z
-x,1/2+y,1/2-z
-x,1/2-y,1/2-z
x,1/2+y,1/2-z
-x,1/2+y,1/2+z
x,1/2-y,1/2+z
1/2+x,y,1/2+z
1/2-x,-y,1/2+z
1/2+x,-y,1/2-z
1/2-x,y,1/2-z
1/2-x,-y,1/2-z
1/2+x,y,1/2-z
1/2-x,y,1/2+z
1/2+x,-y,1/2+z
1/2+x,1/2+y,z
1/2-x,1/2-y,z
1/2+x,1/2-y,-z
1/2-x,1/2+y,-z
1/2-x,1/2-y,-z
1/2+x,1/2+y,-z
1/2-x,1/2+y,z
1/2+x,1/2-y,z
loop_
_atom_site_type_symbol
_atom_site_label
_atom_site_fract_x
_atom_site_fract_y
_atom_site_fract_z
Si Si1 0.808814 0.757458 0.855091
Si Si2 0.940253 0.000000 0.731780
Si Si3 0.560080 0.500000 0.883320
Si Si4 0.440961 0.192350 0.190939
Si Si5 0.901860 0.803614 0.072945
Si Si6 0.809953 0.896650 0.744406
O O1 0.750000 0.750000 0.874271
O O2 0.842341 0.777206 0.918542
O O3 0.825114 0.842200 0.808900
O O4 0.825206 0.662068 0.819517
O O5 0.928323 0.000000 0.807633
O O6 0.915777 0.090442 0.697495
O O7 0.000000 0.000000 0.719958
O O8 0.500000 0.500000 0.897614
O O9 0.585957 0.410827 0.915347
O O10 0.500000 0.182594 0.204314
O O11 0.416284 0.250000 0.250000
O O12 0.433228 0.239269 0.121840
O O13 0.917490 0.777889 0.000000
O O14 0.750000 0.905859 0.750000
O O15 0.834941 0.000000 0.741982
#
# Coordination Sequence:
#
# PCOD8285084 Si02
#       6
#    32  16  16  32  32  32
#     4   9  20  37  56  86 121 158 205 252 306 369
#     4   9  18  35  63  96 119 148 200 254 312 372
#     4  11  23  42  67  96 130 161 205 274 329 378
#     4  10  20  38  63  90 120 156 202 255 311 374
#     4  12  26  40  59  91 127 169 211 248 313 385
#     4   8  15  31  58  88 116 148 196 259 316 360
#
# _framework density 20.309535
#
# number of rings (size 3 to 8) (size 9 to 14) (size 15 to 20)
#    0.000    2.200    2.000    2.100    4.200    2.400 
#    1.800    0.500    0.000    1.800    0.000    0.000 
#    0.000    0.000    0.000    0.000    0.000    0.000 
#
# Total GULP energy -495781.652182 kJ/mol
# GULP energy per Si atom -12394.541305 kJ/mol
# Density = 2.026331 g / cm^3
# Si number density = 20.309535 Si / 1000 Ang^3
#
#
#
# Elastic Constant Matrix: (Units=GPa)
#
#
# Indices 1 2 3 4 5 6 
#
# 1 58.5157 29.9279 13.6911 0.0000 0.0000 0.0000
# 2 29.9279 184.5690 71.6089 0.0000 0.0000 0.0000
# 3 13.6911 71.6089 121.1498 0.0000 0.0000 0.0000
# 4 0.0000 0.0000 0.0000 18.7026 0.0000 0.0000
# 5 0.0000 0.0000 0.0000 0.0000 21.4238 0.0000
# 6 0.0000 0.0000 0.0000 0.0000 0.0000 29.4640
#
#
#
# Elastic Compliance Matrix: (Units=1/GPa)
#
#
# Indices 1 2 3 4 5 6 
#
# 1 0.018651 -0.002863 -0.000415 0.000000 0.000000 0.000000
# 2 -0.002863 0.007470 -0.004092 0.000000 0.000000 0.000000
# 3 -0.000415 -0.004092 0.010720 0.000000 0.000000 0.000000
# 4 0.000000 0.000000 0.000000 0.053468 0.000000 0.000000
# 5 0.000000 0.000000 0.000000 0.000000 0.046677 0.000000
# 6 0.000000 0.000000 0.000000 0.000000 0.000000 0.033940
#
#
# Mechanical properties :
#
#
# Convention : Reuss Voigt Hill
#
# Bulk Modulus (GPa) = 45.24879 66.07673 55.66276
# Shear Modulus (GPa) = 25.90237 30.51853 28.21045
#
# Velocity S-wave (km/s) = 3.57512 3.88063 3.73101
# Velocity P-wave (km/s) = 6.27455 7.25841 6.78434
#
# Compressibility (1/GPa) = 0.02210004
#
# Stress axis : x y z
#
# Youngs Moduli (GPa) = 53.61658 133.87330 93.28646
#
# Poissons Ratio (x) = 0.38329 0.03876
# Poissons Ratio (y) = 0.15351 0.38170
# Poissons Ratio (z) = 0.02227 0.54776
#
# Static dielectric constant tensor:
#      x y z
#    x 3.864910 0.000000 0.000000 
#    y 0.000000 4.425520 0.000000 
#    z 0.000000 0.000000 3.285920 
# 
# 
# High freq. dielectric constant tensor:
#      x y z
#    x 1.819660 0.000000 0.000000 
#    y 0.000000 1.807920 0.000000 
#    z 0.000000 0.000000 1.747350 
# 
# From -- ./inp_files/27486.got.cif
#   From: 2010.03.12/outbox.cif.g09.slc.cpg/sg69_14_cif.got.tgz:27486.got - 2010.04.10 23:52:46.
