data_PCOD8285468
_publ_section_title
;
Structure prediction by ZEFSAII (Michael W. Deem and Ramdas Pophale) SiO2 
 PCOD8285468
Probable space group: F M M M
;
_chemical_formula_sum "Si O2"
_cell_formula_units_Z 176
_cell_length_a 18.144342
_cell_length_b 16.880648
_cell_length_c 26.665057
_cell_angle_alpha 90.000000
_cell_angle_beta 90.000000
_cell_angle_gamma 90.000000
_cell_volume 8167.193658
_symmetry_space_group_name_H-M "F M M M"
_symmetry_group_IT_number 69
_symmetry_cell_setting 'orthorhombic'
loop_
_space_group_symop_operation_xyz
x,y,z
-x,-y,z
x,-y,-z
-x,y,-z
-x,-y,-z
x,y,-z
-x,y,z
x,-y,z
x,1/2+y,1/2+z
-x,1/2-y,1/2+z
x,1/2-y,1/2-z
-x,1/2+y,1/2-z
-x,1/2-y,1/2-z
x,1/2+y,1/2-z
-x,1/2+y,1/2+z
x,1/2-y,1/2+z
1/2+x,y,1/2+z
1/2-x,-y,1/2+z
1/2+x,-y,1/2-z
1/2-x,y,1/2-z
1/2-x,-y,1/2-z
1/2+x,y,1/2-z
1/2-x,y,1/2+z
1/2+x,-y,1/2+z
1/2+x,1/2+y,z
1/2-x,1/2-y,z
1/2+x,1/2-y,-z
1/2-x,1/2+y,-z
1/2-x,1/2-y,-z
1/2+x,1/2+y,-z
1/2-x,1/2+y,z
1/2+x,1/2-y,z
loop_
_atom_site_type_symbol
_atom_site_label
_atom_site_fract_x
_atom_site_fract_y
_atom_site_fract_z
Si Si1 0.083008 0.174331 0.142509
Si Si2 0.179836 0.089960 0.589996
Si Si3 0.803876 0.321560 0.443866
Si Si4 0.177068 0.304008 0.812920
Si Si5 0.582873 0.094572 0.000000
Si Si6 0.415266 0.909150 0.259695
O O1 0.127204 0.166187 0.091452
O O2 0.107884 0.250245 0.173808
O O3 0.092543 0.099619 0.180009
O O4 0.000000 0.185951 0.125217
O O5 0.256474 0.097640 0.559621
O O6 0.190389 0.136406 0.641509
O O7 0.118956 0.127184 0.551719
O O8 0.160511 0.000000 0.603165
O O9 0.832301 0.305718 0.500000
O O10 0.750000 0.250000 0.425250
O O11 0.250000 0.250000 0.801469
O O12 0.148498 0.354475 0.765227
O O13 0.500000 0.124647 0.000000
O O14 0.591192 0.000000 0.000000
O O15 0.500000 0.886343 0.243762
O O16 0.399376 0.000000 0.245120
#
# Coordination Sequence:
#
# PCOD8285468 Si02
#       6
#    32  32  32  32  16  32
#     4  11  23  42  67  95 131 173 215 267 330 389
#     4  11  21  38  62  91 127 171 217 266 330 387
#     4  11  22  42  65  92 130 172 218 270 324 391
#     4  12  23  42  64  97 134 172 218 269 323 401
#     4   9  20  36  57  92 133 169 211 269 334 393
#     4  10  24  46  70  98 132 171 219 277 340 399
#
# _framework density 21.549628999999999
#
# number of rings (size 3 to 8) (size 9 to 14) (size 15 to 20)
#    0.000    1.182    4.545    1.636    0.000    6.182 
#    0.000    2.727    0.000    0.000    0.000    3.818 
#    0.000    0.000    0.000    0.000    0.000    0.000 
#
# Total GULP energy -545306.806730 kJ/mol
# GULP energy per Si atom -12393.336517 kJ/mol
# Density = 2.150058 g / cm^3
# Si number density = 21.549629 Si / 1000 Ang^3
#
#
#
# Elastic Constant Matrix: (Units=GPa)
#
#
# Indices 1 2 3 4 5 6 
#
# 1 176.9805 51.6291 84.8865 0.0000 0.0000 0.0000
# 2 51.6291 73.6475 40.6983 0.0000 0.0000 0.0000
# 3 84.8865 40.6983 135.3984 0.0000 0.0000 0.0000
# 4 0.0000 0.0000 0.0000 21.4918 0.0000 0.0000
# 5 0.0000 0.0000 0.0000 0.0000 44.7653 0.0000
# 6 0.0000 0.0000 0.0000 0.0000 0.0000 31.0073
#
#
#
# Elastic Compliance Matrix: (Units=1/GPa)
#
#
# Indices 1 2 3 4 5 6 
#
# 1 0.008876 -0.003774 -0.004430 0.000000 0.000000 0.000000
# 2 -0.003774 0.017888 -0.003010 0.000000 0.000000 0.000000
# 3 -0.004430 -0.003010 0.011068 0.000000 0.000000 0.000000
# 4 0.000000 0.000000 0.000000 0.046529 0.000000 0.000000
# 5 0.000000 0.000000 0.000000 0.000000 0.022339 0.000000
# 6 0.000000 0.000000 0.000000 0.000000 0.000000 0.032250
#
#
# Mechanical properties :
#
#
# Convention : Reuss Voigt Hill
#
# Bulk Modulus (GPa) = 64.92758 82.27266 73.60012
# Shear Modulus (GPa) = 30.02728 33.37372 31.70050
#
# Velocity S-wave (km/s) = 3.73688 3.93961 3.83958
# Velocity P-wave (km/s) = 6.98668 7.67823 7.34060
#
# Compressibility (1/GPa) = 0.01540177
#
# Stress axis : x y z
#
# Youngs Moduli (GPa) = 112.65816 55.90431 90.34939
#
# Poissons Ratio (x) = 0.21100 0.40029
# Poissons Ratio (y) = 0.42521 0.27199
# Poissons Ratio (z) = 0.49913 0.16830
#
# Static dielectric constant tensor:
#      x y z
#    x 3.913740 0.000000 0.000000 
#    y 0.000000 3.917460 0.000000 
#    z 0.000000 0.000000 3.990730 
# 
# 
# High freq. dielectric constant tensor:
#      x y z
#    x 1.842990 0.000000 0.000000 
#    y 0.000000 1.834620 0.000000 
#    z 0.000000 0.000000 1.856860 
# 
# From -- ./inp_files/41804.got.cif
#   From: 2010.03.12/outbox.cif.g09.slc.cpg/sg69_21_cif.got.tgz:41804.got - 2010.04.10 23:52:46.
