data_PCOD8285376
_publ_section_title
;
Structure prediction by ZEFSAII (Michael W. Deem and Ramdas Pophale) SiO2 
 PCOD8285376
Probable space group: F M M M
;
_chemical_formula_sum "Si O2"
_cell_formula_units_Z 128
_cell_length_a 19.685295
_cell_length_b 15.595176
_cell_length_c 18.709126
_cell_angle_alpha 90.000000
_cell_angle_beta 90.000000
_cell_angle_gamma 90.000000
_cell_volume 5743.620113
_symmetry_space_group_name_H-M "F M M M"
_symmetry_group_IT_number 69
_symmetry_cell_setting 'orthorhombic'
loop_
_space_group_symop_operation_xyz
x,y,z
-x,-y,z
x,-y,-z
-x,y,-z
-x,-y,-z
x,y,-z
-x,y,z
x,-y,z
x,1/2+y,1/2+z
-x,1/2-y,1/2+z
x,1/2-y,1/2-z
-x,1/2+y,1/2-z
-x,1/2-y,1/2-z
x,1/2+y,1/2-z
-x,1/2+y,1/2+z
x,1/2-y,1/2+z
1/2+x,y,1/2+z
1/2-x,-y,1/2+z
1/2+x,-y,1/2-z
1/2-x,y,1/2-z
1/2-x,-y,1/2-z
1/2+x,y,1/2-z
1/2-x,y,1/2+z
1/2+x,-y,1/2+z
1/2+x,1/2+y,z
1/2-x,1/2-y,z
1/2+x,1/2-y,-z
1/2-x,1/2+y,-z
1/2-x,1/2-y,-z
1/2+x,1/2+y,-z
1/2-x,1/2+y,z
1/2+x,1/2-y,z
loop_
_atom_site_type_symbol
_atom_site_label
_atom_site_fract_x
_atom_site_fract_y
_atom_site_fract_z
Si Si1 0.671159 0.000000 0.725830
Si Si2 0.577527 0.654643 0.223533
Si Si3 0.730934 0.000000 0.584547
Si Si4 0.705016 0.325651 0.582779
Si Si5 0.924668 0.269592 0.579323
O O1 0.750000 0.000000 0.750000
O O2 0.630474 0.915563 0.753750
O O3 0.666908 0.000000 0.638384
O O4 0.500000 0.632131 0.246742
O O5 0.597432 0.750000 0.250000
O O6 0.583212 0.654606 0.136783
O O7 0.775862 0.919200 0.610624
O O8 0.710961 0.000000 0.500000
O O9 0.723189 0.325390 0.500000
O O10 0.750000 0.250000 0.619737
O O11 0.625646 0.308865 0.597448
O O12 0.908613 0.307519 0.500000
O O13 0.000000 0.229572 0.582851
#
# Coordination Sequence:
#
# PCOD8285376 Si02
#       5
#    16  32  16  32  32
#     4  12  27  41  62  98 128 158 210 265 303 362
#     4  10  23  44  67  89 124 170 206 249 315 375
#     4  10  22  39  59  89 125 161 200 247 314 374
#     4   9  17  31  54  82 117 157 190 234 297 361
#     4   9  18  35  62  93 119 153 205 256 302 360
#
# _framework density 22.285596000000002
#
# number of rings (size 3 to 8) (size 9 to 14) (size 15 to 20)
#    0.000    2.250    0.000    1.875    3.500    3.500 
#    0.000    0.625    0.000    7.500    0.000    0.000 
#    0.000    0.000    0.000    0.000    0.000    0.000 
#
# Total GULP energy -396457.039671 kJ/mol
# GULP energy per Si atom -12389.282490 kJ/mol
# Density = 2.223487 g / cm^3
# Si number density = 22.285596 Si / 1000 Ang^3
#
#
#
# Elastic Constant Matrix: (Units=GPa)
#
#
# Indices 1 2 3 4 5 6 
#
# 1 139.2327 88.8959 20.2125 0.0000 0.0000 0.0000
# 2 88.8959 172.2217 10.9170 0.0000 0.0000 0.0000
# 3 20.2125 10.9170 56.2492 0.0000 0.0000 0.0000
# 4 0.0000 0.0000 0.0000 8.7959 0.0000 0.0000
# 5 0.0000 0.0000 0.0000 0.0000 27.1910 0.0000
# 6 0.0000 0.0000 0.0000 0.0000 0.0000 40.3732
#
#
#
# Elastic Compliance Matrix: (Units=1/GPa)
#
#
# Indices 1 2 3 4 5 6 
#
# 1 0.011170 -0.005580 -0.002931 0.000000 0.000000 0.000000
# 2 -0.005580 0.008666 0.000323 0.000000 0.000000 0.000000
# 3 -0.002931 0.000323 0.018769 0.000000 0.000000 0.000000
# 4 0.000000 0.000000 0.000000 0.113690 0.000000 0.000000
# 5 0.000000 0.000000 0.000000 0.000000 0.036777 0.000000
# 6 0.000000 0.000000 0.000000 0.000000 0.000000 0.024769
#
#
# Mechanical properties :
#
#
# Convention : Reuss Voigt Hill
#
# Bulk Modulus (GPa) = 44.98535 67.52827 56.25681
# Shear Modulus (GPa) = 21.04146 31.78389 26.41267
#
# Velocity S-wave (km/s) = 3.07607 3.78061 3.44639
# Velocity P-wave (km/s) = 5.73114 7.03025 6.41367
#
# Compressibility (1/GPa) = 0.02222946
#
# Stress axis : x y z
#
# Youngs Moduli (GPa) = 89.52217 115.39011 53.28068
#
# Poissons Ratio (x) = 0.64388 0.15616
# Poissons Ratio (y) = 0.49954 -0.01722
# Poissons Ratio (z) = 0.26239 -0.03729
#
# Static dielectric constant tensor:
#      x y z
#    x 3.999610 0.000000 0.000000 
#    y 0.000000 4.112310 0.000000 
#    z 0.000000 0.000000 4.173790 
# 
# 
# High freq. dielectric constant tensor:
#      x y z
#    x 1.879940 0.000000 0.000000 
#    y 0.000000 1.852670 0.000000 
#    z 0.000000 0.000000 1.877360 
# 
# From -- ./inp_files/31502.got.cif
#   From: 2010.03.12/outbox.cif.g09.slc.cpg/sg69_16_cif.got.tgz:31502.got - 2010.04.10 23:52:46.
