data_PCOD8285257
_publ_section_title
;
Structure prediction by ZEFSAII (Michael W. Deem and Ramdas Pophale) SiO2 
 PCOD8285257
Probable space group: F M M M
;
_chemical_formula_sum "Si O2"
_cell_formula_units_Z 160
_cell_length_a 8.645044
_cell_length_b 33.121057
_cell_length_c 29.040504
_cell_angle_alpha 90.000000
_cell_angle_beta 90.000000
_cell_angle_gamma 90.000000
_cell_volume 8315.254489
_symmetry_space_group_name_H-M "F M M M"
_symmetry_group_IT_number 69
_symmetry_cell_setting 'orthorhombic'
loop_
_space_group_symop_operation_xyz
x,y,z
-x,-y,z
x,-y,-z
-x,y,-z
-x,-y,-z
x,y,-z
-x,y,z
x,-y,z
x,1/2+y,1/2+z
-x,1/2-y,1/2+z
x,1/2-y,1/2-z
-x,1/2+y,1/2-z
-x,1/2-y,1/2-z
x,1/2+y,1/2-z
-x,1/2+y,1/2+z
x,1/2-y,1/2+z
1/2+x,y,1/2+z
1/2-x,-y,1/2+z
1/2+x,-y,1/2-z
1/2-x,y,1/2-z
1/2-x,-y,1/2-z
1/2+x,y,1/2-z
1/2-x,y,1/2+z
1/2+x,-y,1/2+z
1/2+x,1/2+y,z
1/2-x,1/2-y,z
1/2+x,1/2-y,-z
1/2-x,1/2+y,-z
1/2-x,1/2-y,-z
1/2+x,1/2+y,-z
1/2-x,1/2+y,z
1/2+x,1/2-y,z
loop_
_atom_site_type_symbol
_atom_site_label
_atom_site_fract_x
_atom_site_fract_y
_atom_site_fract_z
Si Si1 0.819757 0.348148 0.125699
Si Si2 0.182809 0.500000 0.448559
Si Si3 0.181620 0.707749 0.700789
Si Si4 0.321935 0.707668 0.054022
Si Si5 0.680843 0.000000 0.699416
Si Si6 0.182832 0.435309 0.625070
O O1 0.722215 0.327725 0.166053
O O2 0.770778 0.328717 0.077242
O O3 0.782133 0.395106 0.124827
O O4 0.000000 0.341431 0.134640
O O5 0.256961 0.500000 0.500000
O O6 0.233281 0.539762 0.420378
O O7 0.000000 0.500000 0.452356
O O8 0.250000 0.696003 0.750000
O O9 0.250000 0.750000 0.682430
O O10 0.000000 0.712512 0.705458
O O11 0.500000 0.706775 0.069698
O O12 0.250000 0.750000 0.070151
O O13 0.303511 0.701467 0.000000
O O14 0.750000 0.000000 0.750000
O O15 0.730064 0.960297 0.670763
O O16 0.500000 0.000000 0.705381
O O17 0.000000 0.425924 0.624468
#
# Coordination Sequence:
#
# PCOD8285257 Si02
#       6
#    32  16  32  32  16  32
#     4  12  24  37  55  82 116 152 188 230 279 327
#     4   8  15  32  60  85 105 136 177 221 274 335
#     4  11  22  39  60  83 112 147 189 233 279 331
#     4  10  21  38  59  82 110 147 190 235 282 332
#     4   9  19  36  59  81 107 142 178 221 272 328
#     4   9  19  36  55  81 112 140 178 227 275 326
#
# _framework density 19.241743
#
# number of rings (size 3 to 8) (size 9 to 14) (size 15 to 20)
#    0.000    1.900    0.000    6.600    0.000    3.600 
#    0.000    5.500    0.000    0.600    0.000    0.000 
#    0.000    0.000    0.000    0.000    0.000    0.000 
#
# Total GULP energy -496091.930715 kJ/mol
# GULP energy per Si atom -12402.298268 kJ/mol
# Density = 1.919795 g / cm^3
# Si number density = 19.241743 Si / 1000 Ang^3
#
#
#
# Elastic Constant Matrix: (Units=GPa)
#
#
# Indices 1 2 3 4 5 6 
#
# 1 108.2549 42.5269 36.4063 0.0000 0.0000 0.0000
# 2 42.5269 135.2189 61.8401 0.0000 0.0000 0.0000
# 3 36.4063 61.8401 126.2606 0.0000 0.0000 0.0000
# 4 0.0000 0.0000 0.0000 1421.3119 0.0000 0.0000
# 5 0.0000 0.0000 0.0000 0.0000 29.2801 0.0000
# 6 0.0000 0.0000 0.0000 0.0000 0.0000 34.7905
#
#
#
# Elastic Compliance Matrix: (Units=1/GPa)
#
#
# Indices 1 2 3 4 5 6 
#
# 1 0.010876 -0.002560 -0.001882 0.000000 0.000000 0.000000
# 2 -0.002560 0.010133 -0.004225 0.000000 0.000000 0.000000
# 3 -0.001882 -0.004225 0.010532 0.000000 0.000000 0.000000
# 4 0.000000 0.000000 0.000000 0.000704 0.000000 0.000000
# 5 0.000000 0.000000 0.000000 0.000000 0.034153 0.000000
# 6 0.000000 0.000000 0.000000 0.000000 0.000000 0.028744
#
#
# Mechanical properties :
#
#
# Convention : Reuss Voigt Hill
#
# Bulk Modulus (GPa) = 70.38670 72.36457 71.37564
# Shear Modulus (GPa) = 42.65857 312.34055 177.49956
#
# Velocity S-wave (km/s) = 4.71359 12.75448 9.61496
# Velocity P-wave (km/s) = 8.14147 15.95595 12.66641
#
# Compressibility (1/GPa) = 0.01420723
#
# Stress axis : x y z
#
# Youngs Moduli (GPa) = 91.94525 98.69203 94.94838
#
# Poissons Ratio (x) = 0.25262 0.17872
# Poissons Ratio (y) = 0.23535 0.40112
# Poissons Ratio (z) = 0.17307 0.41694
#
# Static dielectric constant tensor:
#      x y z
#    x 3.474560 0.000000 0.000000 
#    y 0.000000 3.475090 0.000000 
#    z 0.000000 0.000000 3.368710 
# 
# 
# High freq. dielectric constant tensor:
#      x y z
#    x 1.745570 0.000000 0.000000 
#    y 0.000000 1.748090 0.000000 
#    z 0.000000 0.000000 1.759160 
# 
# From -- ./inp_files/44617.got.cif
#   From: 2010.03.12/outbox.cif.g09.slc.cpg/sg69_23_cif.got.tgz:44617.got - 2010.04.10 23:52:46.
