data_PCOD8285871
_publ_section_title
;
Structure prediction by ZEFSAII (Michael W. Deem and Ramdas Pophale) SiO2 
 PCOD8285871
Probable space group: F D D D
;
_chemical_formula_sum "Si O2"
_cell_formula_units_Z 144
_cell_length_a 22.274184
_cell_length_b 10.500450
_cell_length_c 35.538718
_cell_angle_alpha 90.000000
_cell_angle_beta 90.000000
_cell_angle_gamma 90.000000
_cell_volume 8312.113629
_symmetry_space_group_name_H-M "F D D D"
_symmetry_group_IT_number 70
_space_group.IT_coordinate_system_code '2'
_symmetry_cell_setting 'orthorhombic'
loop_
_space_group_symop_operation_xyz
x,y,z
1/4-x,1/4-y,z
x,1/4-y,1/4-z
1/4-x,y,1/4-z
-x,-y,-z
3/4+x,3/4+y,-z
-x,3/4+y,3/4+z
3/4+x,-y,3/4+z
x,1/2+y,1/2+z
1/4-x,3/4-y,1/2+z
x,3/4-y,3/4-z
1/4-x,1/2+y,3/4-z
-x,1/2-y,1/2-z
3/4+x,1/4+y,1/2-z
-x,1/4+y,1/4+z
3/4+x,1/2-y,1/4+z
1/2+x,y,1/2+z
3/4-x,1/4-y,1/2+z
1/2+x,1/4-y,3/4-z
3/4-x,y,3/4-z
1/2-x,-y,1/2-z
1/4+x,3/4+y,1/2-z
1/2-x,3/4+y,1/4+z
1/4+x,-y,1/4+z
1/2+x,1/2+y,z
3/4-x,3/4-y,z
1/2+x,3/4-y,1/4-z
3/4-x,1/2+y,1/4-z
1/2-x,1/2-y,-z
1/4+x,1/4+y,-z
1/2-x,1/4+y,3/4+z
1/4+x,1/2-y,3/4+z
loop_
_atom_site_type_symbol
_atom_site_label
_atom_site_fract_x
_atom_site_fract_y
_atom_site_fract_z
Si Si1 0.749665 0.811404 0.459633
Si Si2 0.125000 0.625000 0.185302
Si Si3 0.494289 0.371067 0.611153
Si Si4 0.584831 0.739761 0.927030
Si Si5 0.125000 0.414453 0.125000
Si Si6 0.674356 0.375000 0.375000
O O1 0.750000 0.750000 0.500000
O O2 0.815500 0.871088 0.459728
O O3 0.738587 0.710255 0.425816
O O4 0.701035 0.926608 0.457765
O O5 0.117608 0.499165 0.161388
O O6 0.462838 0.443618 0.645769
O O7 0.563513 0.335162 0.620634
O O8 0.463175 0.235714 0.605439
O O9 0.625000 0.625000 0.945246
O O10 0.633871 0.829926 0.908911
#
# Coordination Sequence:
#
# PCOD8285871 Si02
#       6
#    32  16  32  32  16  16
#     4  11  21  34  57  83 111 144 186 229 281 345
#     4   9  18  32  50  80 100 136 180 228 262 308
#     4  10  19  34  55  82 105 142 187 228 279 318
#     4  10  19  35  57  81 110 142 188 234 280 322
#     4   9  16  31  58  70 104 135 185 224 256 324
#     4  10  20  31  56  83 110 138 182 244 262 328
#
# _framework density 17.324114000000002
#
# number of rings (size 3 to 8) (size 9 to 14) (size 15 to 20)
#    0.000    2.000    4.444    0.000    0.000    2.222 
#    0.000    0.000    9.778    4.000    0.000    0.000 
#    0.000    0.000    0.000    0.000    0.000    0.000 
#
# Total GULP energy -446015.907464 kJ/mol
# GULP energy per Si atom -12389.330763 kJ/mol
# Density = 1.728468 g / cm^3
# Si number density = 17.324114 Si / 1000 Ang^3
#
#
#
# Elastic Constant Matrix: (Units=GPa)
#
#
# Indices 1 2 3 4 5 6 
#
# 1 159.7044 72.1217 50.2744 0.0000 0.0000 0.0000
# 2 72.1217 100.4959 31.9759 0.0000 0.0000 0.0000
# 3 50.2744 31.9759 69.9875 0.0000 0.0000 0.0000
# 4 0.0000 0.0000 0.0000 23.2208 0.0000 0.0000
# 5 0.0000 0.0000 0.0000 0.0000 -10.7833 0.0000
# 6 0.0000 0.0000 0.0000 0.0000 0.0000 35.8421
#
#
#
# Elastic Compliance Matrix: (Units=1/GPa)
#
#
# Indices 1 2 3 4 5 6 
#
# 1 0.010475 -0.005995 -0.004786 0.000000 0.000000 0.000000
# 2 -0.005995 0.015074 -0.002581 0.000000 0.000000 0.000000
# 3 -0.004786 -0.002581 0.018905 0.000000 0.000000 0.000000
# 4 0.000000 0.000000 0.000000 0.043065 0.000000 0.000000
# 5 0.000000 0.000000 0.000000 0.000000 -0.092736 0.000000
# 6 0.000000 0.000000 0.000000 0.000000 0.000000 0.027900
#
#
# Mechanical properties :
#
#
# Convention : Reuss Voigt Hill
#
# Bulk Modulus (GPa) = 56.39624 70.99241 63.69433
# Shear Modulus (GPa) = 90.38694 21.37697 55.88196
#
# Velocity S-wave (km/s) = 7.23100 3.51656 5.68566
# Velocity P-wave (km/s) = 10.11636 7.58658 8.94139
#
# Compressibility (1/GPa) = 0.01773168
#
# Stress axis : x y z
#
# Youngs Moduli (GPa) = 95.46120 66.33879 52.89564
#
# Poissons Ratio (x) = 0.39770 0.25315
# Poissons Ratio (y) = 0.57229 0.13650
# Poissons Ratio (z) = 0.45686 0.17120
#
# Static dielectric constant tensor:
#      x y z
#    x 3.909240 0.000000 0.000000 
#    y 0.000000 3.014510 0.000000 
#    z 0.000000 0.000000 2.841790 
# 
# 
# High freq. dielectric constant tensor:
#      x y z
#    x 1.698550 0.000000 0.000000 
#    y 0.000000 1.662890 0.000000 
#    z 0.000000 0.000000 1.629510 
# 
# From -- ./inp_files/20700.got.cif
#   From: 2010.03.12/outbox.cif.g09.slc.cpg/sg70_11_cif.got.tgz:20700.got - 2010.04.16 13:46:32.
