data_PCOD8285148
_publ_section_title
;
Structure prediction by ZEFSAII (Michael W. Deem and Ramdas Pophale) SiO2 
 PCOD8285148
Probable space group: F M M M
;
_chemical_formula_sum "Si O2"
_cell_formula_units_Z 208
_cell_length_a 29.007107
_cell_length_b 18.503824
_cell_length_c 20.240444
_cell_angle_alpha 90.000000
_cell_angle_beta 90.000000
_cell_angle_gamma 90.000000
_cell_volume 10863.904544
_symmetry_space_group_name_H-M "F M M M"
_symmetry_group_IT_number 69
_symmetry_cell_setting 'orthorhombic'
loop_
_space_group_symop_operation_xyz
x,y,z
-x,-y,z
x,-y,-z
-x,y,-z
-x,-y,-z
x,y,-z
-x,y,z
x,-y,z
x,1/2+y,1/2+z
-x,1/2-y,1/2+z
x,1/2-y,1/2-z
-x,1/2+y,1/2-z
-x,1/2-y,1/2-z
x,1/2+y,1/2-z
-x,1/2+y,1/2+z
x,1/2-y,1/2+z
1/2+x,y,1/2+z
1/2-x,-y,1/2+z
1/2+x,-y,1/2-z
1/2-x,y,1/2-z
1/2-x,-y,1/2-z
1/2+x,y,1/2-z
1/2-x,y,1/2+z
1/2+x,-y,1/2+z
1/2+x,1/2+y,z
1/2-x,1/2-y,z
1/2+x,1/2-y,-z
1/2-x,1/2+y,-z
1/2-x,1/2-y,-z
1/2+x,1/2+y,-z
1/2-x,1/2+y,z
1/2+x,1/2-y,z
loop_
_atom_site_type_symbol
_atom_site_label
_atom_site_fract_x
_atom_site_fract_y
_atom_site_fract_z
Si Si1 0.000000 0.915315 0.927627
Si Si2 0.054133 0.209926 0.318448
Si Si3 0.619860 0.773690 0.423837
Si Si4 0.283662 0.084741 0.808883
Si Si5 0.097459 0.581375 0.624168
Si Si6 0.711588 0.189765 0.074426
Si Si7 0.112454 0.580572 0.778369
O O1 0.045090 0.892200 0.887631
O O2 0.000000 0.000000 0.937054
O O3 0.000000 0.878063 0.000000
O O4 0.065478 0.250000 0.250000
O O5 0.076277 0.252826 0.379139
O O6 0.076503 0.130557 0.316730
O O7 0.000000 0.202690 0.331187
O O8 0.607504 0.760312 0.500000
O O9 0.630160 0.859643 0.411880
O O10 0.663792 0.726422 0.402596
O O11 0.250000 0.111101 0.750000
O O12 0.272705 0.125929 0.876879
O O13 0.335336 0.105553 0.789243
O O14 0.276546 0.000000 0.821784
O O15 0.107159 0.500000 0.596316
O O16 0.104370 0.583011 0.701228
O O17 0.750000 0.250000 0.076388
O O18 0.706859 0.158315 0.000000
O O19 0.104691 0.500000 0.806328
#
# Coordination Sequence:
#
# PCOD8285148 Si02
#       7
#    16  32  32  32  32  32  32
#     4   9  18  32  50  75 110 156 200 231 282 361
#     4  11  23  38  58  86 120 160 205 248 298 362
#     4  11  23  39  60  85 119 160 201 249 299 354
#     4  10  22  40  65  94 118 150 198 244 296 361
#     4  10  21  35  54  82 119 155 193 243 294 348
#     4  10  23  42  62  89 121 156 197 239 296 364
#     4  10  21  38  60  87 120 154 196 250 302 353
#
# _framework density 19.145970999999999
#
# number of rings (size 3 to 8) (size 9 to 14) (size 15 to 20)
#    0.000    1.769    3.077    0.462    4.308    2.154 
#    0.000    0.000    0.000    3.231    0.000    1.077 
#    0.000    0.000    0.000    0.000    0.000    0.000 
#
# Total GULP energy -644750.522112 kJ/mol
# GULP energy per Si atom -12399.048502 kJ/mol
# Density = 1.910239 g / cm^3
# Si number density = 19.145971 Si / 1000 Ang^3
#
#
#
# Elastic Constant Matrix: (Units=GPa)
#
#
# Indices 1 2 3 4 5 6 
#
# 1 92.3258 45.2334 44.6412 0.0000 0.0000 0.0000
# 2 45.2334 97.9823 52.6743 0.0000 0.0000 0.0000
# 3 44.6412 52.6743 106.7983 0.0000 0.0000 0.0000
# 4 0.0000 0.0000 0.0000 54.9613 0.0000 0.0000
# 5 0.0000 0.0000 0.0000 0.0000 29.3583 0.0000
# 6 0.0000 0.0000 0.0000 0.0000 0.0000 28.3901
#
#
#
# Elastic Compliance Matrix: (Units=1/GPa)
#
#
# Indices 1 2 3 4 5 6 
#
# 1 0.015110 -0.004872 -0.003913 0.000000 0.000000 0.000000
# 2 -0.004872 0.015459 -0.005588 0.000000 0.000000 0.000000
# 3 -0.003913 -0.005588 0.013755 0.000000 0.000000 0.000000
# 4 0.000000 0.000000 0.000000 0.018195 0.000000 0.000000
# 5 0.000000 0.000000 0.000000 0.000000 0.034062 0.000000
# 6 0.000000 0.000000 0.000000 0.000000 0.000000 0.035224
#
#
# Mechanical properties :
#
#
# Convention : Reuss Voigt Hill
#
# Bulk Modulus (GPa) = 64.19246 64.68936 64.44091
# Shear Modulus (GPa) = 30.16700 32.84578 31.50639
#
# Velocity S-wave (km/s) = 3.97373 4.14641 4.06099
# Velocity P-wave (km/s) = 7.39288 7.53554 7.46455
#
# Compressibility (1/GPa) = 0.01557815
#
# Stress axis : x y z
#
# Youngs Moduli (GPa) = 66.18057 64.68623 72.69934
#
# Poissons Ratio (x) = 0.31515 0.28448
# Poissons Ratio (y) = 0.32243 0.40626
# Poissons Ratio (z) = 0.25897 0.36148
#
# Static dielectric constant tensor:
#      x y z
#    x 3.623190 0.000000 0.000000 
#    y 0.000000 3.738660 0.000000 
#    z 0.000000 0.000000 3.473770 
# 
# 
# High freq. dielectric constant tensor:
#      x y z
#    x 1.745730 0.000000 0.000000 
#    y 0.000000 1.746970 0.000000 
#    z 0.000000 0.000000 1.740680 
# 
# From -- ./inp_files/34006.got.cif
#   From: 2010.03.12/outbox.cif.g09.slc.cpg/sg69_18_cif.got.tgz:34006.got - 2010.04.10 23:52:46.
