data_PCOD8285695
_publ_section_title
;
Structure prediction by ZEFSAII (Michael W. Deem and Ramdas Pophale) SiO2 
 PCOD8285695
Probable space group: F M M M
;
_chemical_formula_sum "Si O2"
_cell_formula_units_Z 104
_cell_length_a 19.913513
_cell_length_b 9.764409
_cell_length_c 30.397517
_cell_angle_alpha 90.000000
_cell_angle_beta 90.000000
_cell_angle_gamma 90.000000
_cell_volume 5910.605237
_symmetry_space_group_name_H-M "F M M M"
_symmetry_group_IT_number 69
_symmetry_cell_setting 'orthorhombic'
loop_
_space_group_symop_operation_xyz
x,y,z
-x,-y,z
x,-y,-z
-x,y,-z
-x,-y,-z
x,y,-z
-x,y,z
x,-y,z
x,1/2+y,1/2+z
-x,1/2-y,1/2+z
x,1/2-y,1/2-z
-x,1/2+y,1/2-z
-x,1/2-y,1/2-z
x,1/2+y,1/2-z
-x,1/2+y,1/2+z
x,1/2-y,1/2+z
1/2+x,y,1/2+z
1/2-x,-y,1/2+z
1/2+x,-y,1/2-z
1/2-x,y,1/2-z
1/2-x,-y,1/2-z
1/2+x,y,1/2-z
1/2-x,y,1/2+z
1/2+x,-y,1/2+z
1/2+x,1/2+y,z
1/2-x,1/2-y,z
1/2+x,1/2-y,-z
1/2-x,1/2+y,-z
1/2-x,1/2-y,-z
1/2+x,1/2+y,-z
1/2-x,1/2+y,z
1/2+x,1/2-y,z
loop_
_atom_site_type_symbol
_atom_site_label
_atom_site_fract_x
_atom_site_fract_y
_atom_site_fract_z
Si Si1 0.574786 0.837468 0.382132
Si Si2 0.879057 0.154570 0.787501
Si Si3 0.313605 0.341127 0.050709
Si Si4 0.250000 0.750000 0.250000
O O1 0.500000 0.778783 0.390689
O O2 0.601614 0.784920 0.335037
O O3 0.623869 0.786235 0.420687
O O4 0.573327 0.000000 0.382054
O O5 0.913398 0.250000 0.750000
O O6 0.797842 0.157545 0.781383
O O7 0.905792 0.000000 0.782101
O O8 0.296892 0.500000 0.060738
O O9 0.250000 0.250000 0.063815
O O10 0.333406 0.320063 0.000000
#
# Coordination Sequence:
#
# PCOD8285695 Si02
#       4
#    32  32  32   8
#     4   9  18  32  49  71 100 132 164 199 242 289
#     4   9  18  30  47  68  94 126 161 198 239 283
#     4   9  18  32  52  77 100 125 160 202 245 288
#     4   8  18  28  44  68  92 124 156 196 242 280
#
# _framework density 17.595492
#
# number of rings (size 3 to 8) (size 9 to 14) (size 15 to 20)
#    0.923    2.154    0.000    0.462    2.154    1.231 
#    0.000    4.615    0.000    2.769    0.000    4.308 
#    0.000    0.000    0.000    0.000    0.000    0.000 
#
# Total GULP energy -322193.490447 kJ/mol
# GULP energy per Si atom -12392.057325 kJ/mol
# Density = 1.755544 g / cm^3
# Si number density = 17.595492 Si / 1000 Ang^3
#
#
#
# Elastic Constant Matrix: (Units=GPa)
#
#
# Indices 1 2 3 4 5 6 
#
# 1 142.0342 28.3333 87.7913 0.0000 0.0000 0.0000
# 2 28.3333 50.4810 38.3970 0.0000 0.0000 0.0000
# 3 87.7913 38.3970 134.3704 0.0000 0.0000 0.0000
# 4 0.0000 0.0000 0.0000 21.9803 0.0000 0.0000
# 5 0.0000 0.0000 0.0000 0.0000 23.3775 0.0000
# 6 0.0000 0.0000 0.0000 0.0000 0.0000 15.4699
#
#
#
# Elastic Compliance Matrix: (Units=1/GPa)
#
#
# Indices 1 2 3 4 5 6 
#
# 1 0.011847 -0.000974 -0.007462 0.000000 0.000000 0.000000
# 2 -0.000974 0.025391 -0.006620 0.000000 0.000000 0.000000
# 3 -0.007462 -0.006620 0.014209 0.000000 0.000000 0.000000
# 4 0.000000 0.000000 0.000000 0.045495 0.000000 0.000000
# 5 0.000000 0.000000 0.000000 0.000000 0.042776 0.000000
# 6 0.000000 0.000000 0.000000 0.000000 0.000000 0.064642
#
#
# Mechanical properties :
#
#
# Convention : Reuss Voigt Hill
#
# Bulk Modulus (GPa) = 46.86769 70.65875 58.76322
# Shear Modulus (GPa) = 20.69684 23.65646 22.17665
#
# Velocity S-wave (km/s) = 3.43338 3.67067 3.55401
# Velocity P-wave (km/s) = 6.51241 7.62952 7.09299
#
# Compressibility (1/GPa) = 0.02133666
#
# Stress axis : x y z
#
# Youngs Moduli (GPa) = 84.40871 39.38436 70.37743
#
# Poissons Ratio (x) = 0.03834 0.52517
# Poissons Ratio (y) = 0.08217 0.46586
# Poissons Ratio (z) = 0.62987 0.26071
#
# Static dielectric constant tensor:
#      x y z
#    x 3.316770 0.000000 0.000000 
#    y 0.000000 2.897590 0.000000 
#    z 0.000000 0.000000 3.332520 
# 
# 
# High freq. dielectric constant tensor:
#      x y z
#    x 1.676100 0.000000 0.000000 
#    y 0.000000 1.642290 0.000000 
#    z 0.000000 0.000000 1.684800 
# 
# From -- ./inp_files/8436.got.cif
#   From: 2010.03.12/outbox.cif.g09.slc.cpg/sg69_5_cif.got.tgz:8436.got - 2010.04.10 23:52:46.
