data_PCOD8285706
_publ_section_title
;
Structure prediction by ZEFSAII (Michael W. Deem and Ramdas Pophale) SiO2 
 PCOD8285706
Probable space group: F M M M
;
_chemical_formula_sum "Si O2"
_cell_formula_units_Z 112
_cell_length_a 39.364250
_cell_length_b 9.967295
_cell_length_c 15.631900
_cell_angle_alpha 90.000000
_cell_angle_beta 90.000000
_cell_angle_gamma 90.000000
_cell_volume 6133.255566
_symmetry_space_group_name_H-M "F M M M"
_symmetry_group_IT_number 69
_symmetry_cell_setting 'orthorhombic'
loop_
_space_group_symop_operation_xyz
x,y,z
-x,-y,z
x,-y,-z
-x,y,-z
-x,-y,-z
x,y,-z
-x,y,z
x,-y,z
x,1/2+y,1/2+z
-x,1/2-y,1/2+z
x,1/2-y,1/2-z
-x,1/2+y,1/2-z
-x,1/2-y,1/2-z
x,1/2+y,1/2-z
-x,1/2+y,1/2+z
x,1/2-y,1/2+z
1/2+x,y,1/2+z
1/2-x,-y,1/2+z
1/2+x,-y,1/2-z
1/2-x,y,1/2-z
1/2-x,-y,1/2-z
1/2+x,y,1/2-z
1/2-x,y,1/2+z
1/2+x,-y,1/2+z
1/2+x,1/2+y,z
1/2-x,1/2-y,z
1/2+x,1/2-y,-z
1/2-x,1/2+y,-z
1/2-x,1/2-y,-z
1/2+x,1/2+y,-z
1/2-x,1/2+y,z
1/2+x,1/2-y,z
loop_
_atom_site_type_symbol
_atom_site_label
_atom_site_fract_x
_atom_site_fract_y
_atom_site_fract_z
Si Si1 0.724206 0.354730 0.901574
Si Si2 0.921633 0.842510 0.832545
Si Si3 0.344957 0.152137 0.325841
Si Si4 0.461625 0.840942 0.500000
O O1 0.730468 0.500000 0.858232
O O2 0.750000 0.250000 0.856193
O O3 0.684223 0.317123 0.895414
O O4 0.733914 0.363031 0.000000
O O5 0.930259 0.750000 0.750000
O O6 0.882640 0.820751 0.862262
O O7 0.943650 0.790200 0.912970
O O8 0.928861 0.000000 0.810944
O O9 0.336146 0.250000 0.250000
O O10 0.343095 0.000000 0.291920
O O11 0.500000 0.785863 0.500000
O O12 0.460378 0.000000 0.500000
#
# Coordination Sequence:
#
# PCOD8285706 Si02
#       4
#    32  32  32  16
#     4   9  18  31  46  65  90 120 157 197 239 284
#     4   9  18  33  53  76 104 135 169 209 251 296
#     4   9  18  31  48  69  92 122 159 198 239 286
#     4   9  18  32  53  81 106 133 171 207 245 299
#
# _framework density 18.261101
#
# number of rings (size 3 to 8) (size 9 to 14) (size 15 to 20)
#    0.000    3.000    0.000    0.000    2.000    2.286 
#    0.000    3.571    0.000    0.857    0.000    0.000 
#    0.000    0.000    0.000    0.000    0.000    0.000 
#
# Total GULP energy -346898.869834 kJ/mol
# GULP energy per Si atom -12389.245351 kJ/mol
# Density = 1.821954 g / cm^3
# Si number density = 18.261101 Si / 1000 Ang^3
#
#
#
# Elastic Constant Matrix: (Units=GPa)
#
#
# Indices 1 2 3 4 5 6 
#
# 1 140.5779 57.6871 61.9959 0.0000 0.0000 0.0000
# 2 57.6871 68.5492 45.3643 0.0000 0.0000 0.0000
# 3 61.9959 45.3643 84.2765 0.0000 0.0000 0.0000
# 4 0.0000 0.0000 0.0000 22.9205 0.0000 0.0000
# 5 0.0000 0.0000 0.0000 0.0000 26.0480 0.0000
# 6 0.0000 0.0000 0.0000 0.0000 0.0000 10.0675
#
#
#
# Elastic Compliance Matrix: (Units=1/GPa)
#
#
# Indices 1 2 3 4 5 6 
#
# 1 0.012259 -0.006755 -0.005382 0.000000 0.000000 0.000000
# 2 -0.006755 0.026382 -0.009232 0.000000 0.000000 0.000000
# 3 -0.005382 -0.009232 0.020794 0.000000 0.000000 0.000000
# 4 0.000000 0.000000 0.000000 0.043629 0.000000 0.000000
# 5 0.000000 0.000000 0.000000 0.000000 0.038391 0.000000
# 6 0.000000 0.000000 0.000000 0.000000 0.000000 0.099329
#
#
# Mechanical properties :
#
#
# Convention : Reuss Voigt Hill
#
# Bulk Modulus (GPa) = 59.88839 69.27758 64.58299
# Shear Modulus (GPa) = 17.29584 20.36428 18.83006
#
# Velocity S-wave (km/s) = 3.08090 3.34304 3.21465
# Velocity P-wave (km/s) = 6.74706 7.27467 7.01583
#
# Compressibility (1/GPa) = 0.01669773
#
# Stress axis : x y z
#
# Youngs Moduli (GPa) = 81.57395 37.90483 48.09030
#
# Poissons Ratio (x) = 0.25603 0.25882
# Poissons Ratio (y) = 0.55100 0.44397
# Poissons Ratio (z) = 0.43903 0.34993
#
# Static dielectric constant tensor:
#      x y z
#    x 3.574150 0.000000 0.000000 
#    y 0.000000 3.621600 0.000000 
#    z 0.000000 0.000000 3.130490 
# 
# 
# High freq. dielectric constant tensor:
#      x y z
#    x 1.716970 0.000000 0.000000 
#    y 0.000000 1.695220 0.000000 
#    z 0.000000 0.000000 1.683720 
# 
# From -- ./inp_files/7322.got.cif
#   From: 2010.03.12/outbox.cif.g09.slc.cpg/sg69_4_cif.got.tgz:7322.got - 2010.04.10 23:52:46.
