data_PCOD8285363
_publ_section_title
;
Structure prediction by ZEFSAII (Michael W. Deem and Ramdas Pophale) SiO2 
 PCOD8285363
Probable space group: F M M M
;
_chemical_formula_sum "Si O2"
_cell_formula_units_Z 120
_cell_length_a 14.265235
_cell_length_b 25.662678
_cell_length_c 17.483513
_cell_angle_alpha 90.000000
_cell_angle_beta 90.000000
_cell_angle_gamma 90.000000
_cell_volume 6400.436688
_symmetry_space_group_name_H-M "F M M M"
_symmetry_group_IT_number 69
_symmetry_cell_setting 'orthorhombic'
loop_
_space_group_symop_operation_xyz
x,y,z
-x,-y,z
x,-y,-z
-x,y,-z
-x,-y,-z
x,y,-z
-x,y,z
x,-y,z
x,1/2+y,1/2+z
-x,1/2-y,1/2+z
x,1/2-y,1/2-z
-x,1/2+y,1/2-z
-x,1/2-y,1/2-z
x,1/2+y,1/2-z
-x,1/2+y,1/2+z
x,1/2-y,1/2+z
1/2+x,y,1/2+z
1/2-x,-y,1/2+z
1/2+x,-y,1/2-z
1/2-x,y,1/2-z
1/2-x,-y,1/2-z
1/2+x,y,1/2-z
1/2-x,y,1/2+z
1/2+x,-y,1/2+z
1/2+x,1/2+y,z
1/2-x,1/2-y,z
1/2+x,1/2-y,-z
1/2-x,1/2+y,-z
1/2-x,1/2-y,-z
1/2+x,1/2+y,-z
1/2-x,1/2+y,z
1/2+x,1/2-y,z
loop_
_atom_site_type_symbol
_atom_site_label
_atom_site_fract_x
_atom_site_fract_y
_atom_site_fract_z
Si Si1 0.000000 0.409588 0.216253
Si Si2 0.197010 0.000000 0.911087
Si Si3 0.705882 0.096286 0.166764
Si Si4 0.000000 0.000000 0.161061
Si Si5 0.500000 0.205784 0.811293
Si Si6 0.682154 0.297993 0.589262
O O1 0.095246 0.419081 0.167965
O O2 0.000000 0.348187 0.237103
O O3 0.000000 0.447418 0.288781
O O4 0.241655 0.949532 0.874722
O O5 0.087321 0.000000 0.894953
O O6 0.217468 0.000000 0.000000
O O7 0.750000 0.104070 0.250000
O O8 0.727461 0.148448 0.119182
O O9 0.500000 0.250000 0.750000
O O10 0.587917 0.212378 0.865619
O O11 0.659847 0.303167 0.500000
O O12 0.750000 0.250000 0.606752
#
# Coordination Sequence:
#
# PCOD8285363 Si02
#       6
#    16  16  32   8  16  32
#     4  10  22  38  62  92 112 152 202 254 296 338
#     4  12  25  40  61  91 125 160 195 244 309 362
#     4  11  22  40  64  89 120 157 205 252 292 365
#     4  12  21  40  60  86 127 150 200 240 301 354
#     4  10  23  37  61  91 120 158 202 250 297 355
#     4  10  23  40  61  89 124 159 198 250 307 357
#
# _framework density 18.748721
#
# number of rings (size 3 to 8) (size 9 to 14) (size 15 to 20)
#    0.000    1.333    2.667    2.600    7.467    0.000 
#    0.000    2.667    0.000    4.800    0.000    0.000 
#    0.000    0.000    0.000    0.000    0.000    0.000 
#
# Total GULP energy -372003.504361 kJ/mol
# GULP energy per Si atom -12400.116812 kJ/mol
# Density = 1.870605 g / cm^3
# Si number density = 18.748721 Si / 1000 Ang^3
#
#
#
# Elastic Constant Matrix: (Units=GPa)
#
#
# Indices 1 2 3 4 5 6 
#
# 1 121.5674 61.4664 34.8515 0.0000 0.0000 0.0000
# 2 61.4664 153.5135 75.9672 0.0000 0.0000 0.0000
# 3 34.8515 75.9672 103.3630 0.0000 0.0000 0.0000
# 4 0.0000 0.0000 0.0000 8.4806 0.0000 0.0000
# 5 0.0000 0.0000 0.0000 0.0000 34.9724 0.0000
# 6 0.0000 0.0000 0.0000 0.0000 0.0000 34.0529
#
#
#
# Elastic Compliance Matrix: (Units=1/GPa)
#
#
# Indices 1 2 3 4 5 6 
#
# 1 0.010346 -0.003797 -0.000698 0.000000 0.000000 0.000000
# 2 -0.003797 0.011631 -0.007268 0.000000 0.000000 0.000000
# 3 -0.000698 -0.007268 0.015252 0.000000 0.000000 0.000000
# 4 0.000000 0.000000 0.000000 0.117916 0.000000 0.000000
# 5 0.000000 0.000000 0.000000 0.000000 0.028594 0.000000
# 6 0.000000 0.000000 0.000000 0.000000 0.000000 0.029366
#
#
# Mechanical properties :
#
#
# Convention : Reuss Voigt Hill
#
# Bulk Modulus (GPa) = 72.97770 80.33492 76.65631
# Shear Modulus (GPa) = 20.72989 29.24509 24.98749
#
# Velocity S-wave (km/s) = 3.32877 3.95377 3.65466
# Velocity P-wave (km/s) = 7.33368 7.98651 7.66705
#
# Compressibility (1/GPa) = 0.01370282
#
# Stress axis : x y z
#
# Youngs Moduli (GPa) = 96.65742 85.97619 65.56728
#
# Poissons Ratio (x) = 0.32647 0.04574
# Poissons Ratio (y) = 0.36703 0.47654
# Poissons Ratio (z) = 0.06742 0.62488
#
# Static dielectric constant tensor:
#      x y z
#    x 3.728520 0.000000 0.000000 
#    y 0.000000 3.707670 0.000000 
#    z 0.000000 0.000000 3.454550 
# 
# 
# High freq. dielectric constant tensor:
#      x y z
#    x 1.745100 0.000000 0.000000 
#    y 0.000000 1.748220 0.000000 
#    z 0.000000 0.000000 1.724410 
# 
# From -- ./inp_files/14462.got.cif
#   From: 2010.03.12/outbox.cif.g09.slc.cpg/sg69_8_cif.got.tgz:14462.got - 2010.04.10 23:52:46.
