data_PCOD8285875
_publ_section_title
;
Structure prediction by ZEFSAII (Michael W. Deem and Ramdas Pophale) SiO2 
 PCOD8285875
Probable space group: F D D D
;
_chemical_formula_sum "Si O2"
_cell_formula_units_Z 128
_cell_length_a 13.261698
_cell_length_b 29.837772
_cell_length_c 12.996027
_cell_angle_alpha 90.000000
_cell_angle_beta 90.000000
_cell_angle_gamma 90.000000
_cell_volume 5142.521662
_symmetry_space_group_name_H-M "F D D D"
_symmetry_group_IT_number 70
_space_group.IT_coordinate_system_code '2'
_symmetry_cell_setting 'orthorhombic'
loop_
_space_group_symop_operation_xyz
x,y,z
1/4-x,1/4-y,z
x,1/4-y,1/4-z
1/4-x,y,1/4-z
-x,-y,-z
3/4+x,3/4+y,-z
-x,3/4+y,3/4+z
3/4+x,-y,3/4+z
x,1/2+y,1/2+z
1/4-x,3/4-y,1/2+z
x,3/4-y,3/4-z
1/4-x,1/2+y,3/4-z
-x,1/2-y,1/2-z
3/4+x,1/4+y,1/2-z
-x,1/4+y,1/4+z
3/4+x,1/2-y,1/4+z
1/2+x,y,1/2+z
3/4-x,1/4-y,1/2+z
1/2+x,1/4-y,3/4-z
3/4-x,y,3/4-z
1/2-x,-y,1/2-z
1/4+x,3/4+y,1/2-z
1/2-x,3/4+y,1/4+z
1/4+x,-y,1/4+z
1/2+x,1/2+y,z
3/4-x,3/4-y,z
1/2+x,3/4-y,1/4-z
3/4-x,1/2+y,1/4-z
1/2-x,1/2-y,-z
1/4+x,1/4+y,-z
1/2-x,1/4+y,3/4+z
1/4+x,1/2-y,3/4+z
loop_
_atom_site_type_symbol
_atom_site_label
_atom_site_fract_x
_atom_site_fract_y
_atom_site_fract_z
Si Si1 0.875000 0.304981 0.375000
Si Si2 0.004047 0.575724 0.125553
Si Si3 0.733924 0.551158 0.843786
Si Si4 0.715042 0.245005 0.274600
Si Si5 0.125000 0.125000 0.954160
O O1 0.780774 0.273469 0.352804
O O2 0.837050 0.334895 0.471485
O O3 0.955397 0.625000 0.125000
O O4 0.125000 0.577685 0.125000
O O5 0.972934 0.547732 0.226754
O O6 0.965814 0.551926 0.019950
O O7 0.630799 0.522445 0.837213
O O8 0.808331 0.526867 0.924799
O O9 0.710213 0.602544 0.880635
#
# Coordination Sequence:
#
# PCOD8285875 Si02
#       5
#    16  32  32  32  16
#     4   9  20  36  56  86 110 152 190 236 278 347
#     4   9  17  32  56  81 107 147 195 230 273 340
#     4  10  19  34  57  86 107 149 189 242 278 342
#     4  10  20  33  56  80 114 140 191 234 287 332
#     4   9  18  34  57  82 102 146 201 226 264 341
#
# _framework density 24.890512999999999
#
# number of rings (size 3 to 8) (size 9 to 14) (size 15 to 20)
#    0.000    2.500    0.000    3.750    0.000    4.000 
#    0.000    0.000   27.500    0.000    0.000    0.000 
#    0.000    0.000    0.000    0.000    0.000    0.000 
#
# Total GULP energy -396445.668222 kJ/mol
# GULP energy per Si atom -12388.927132 kJ/mol
# Density = 2.483386 g / cm^3
# Si number density = 24.890513 Si / 1000 Ang^3
#
#
#
# Elastic Constant Matrix: (Units=GPa)
#
#
# Indices 1 2 3 4 5 6 
#
# 1 44.0931 22.5342 26.9242 0.0000 0.0000 0.0000
# 2 22.5342 143.3317 24.5749 0.0000 0.0000 0.0000
# 3 26.9242 24.5749 98.4516 0.0000 0.0000 0.0000
# 4 0.0000 0.0000 0.0000 37.9800 0.0000 0.0000
# 5 0.0000 0.0000 0.0000 0.0000 35.3157 0.0000
# 6 0.0000 0.0000 0.0000 0.0000 0.0000 19.0645
#
#
#
# Elastic Compliance Matrix: (Units=1/GPa)
#
#
# Indices 1 2 3 4 5 6 
#
# 1 0.028647 -0.003302 -0.007010 0.000000 0.000000 0.000000
# 2 -0.003302 0.007669 -0.001011 0.000000 0.000000 0.000000
# 3 -0.007010 -0.001011 0.012327 0.000000 0.000000 0.000000
# 4 0.000000 0.000000 0.000000 0.026330 0.000000 0.000000
# 5 0.000000 0.000000 0.000000 0.000000 0.028316 0.000000
# 6 0.000000 0.000000 0.000000 0.000000 0.000000 0.052454
#
#
# Mechanical properties :
#
#
# Convention : Reuss Voigt Hill
#
# Bulk Modulus (GPa) = 38.46659 48.21589 43.34124
# Shear Modulus (GPa) = 26.73006 32.59490 29.66248
#
# Velocity S-wave (km/s) = 3.28061 3.62267 3.45587
# Velocity P-wave (km/s) = 5.46239 6.07549 5.77708
#
# Compressibility (1/GPa) = 0.02599659
#
# Stress axis : x y z
#
# Youngs Moduli (GPa) = 34.90726 130.38924 81.12368
#
# Poissons Ratio (x) = 0.43053 0.56869
# Poissons Ratio (y) = 0.11526 0.08205
# Poissons Ratio (z) = 0.24471 0.13187
#
# Static dielectric constant tensor:
#      x y z
#    x 3.691040 0.000000 0.000000 
#    y 0.000000 5.116990 0.000000 
#    z 0.000000 0.000000 4.824140 
# 
# 
# High freq. dielectric constant tensor:
#      x y z
#    x 1.926410 0.000000 0.000000 
#    y 0.000000 2.018310 0.000000 
#    z 0.000000 0.000000 2.009100 
# 
# From -- ./inp_files/26538.got.cif
#   From: 2010.03.12/outbox.cif.g09.slc.cpg/sg70_14_cif.got.tgz:26538.got - 2010.04.16 13:46:32.
