data_PCOD8285967
_publ_section_title
;
Structure prediction by ZEFSAII (Michael W. Deem and Ramdas Pophale) SiO2 
 PCOD8285967
Probable space group: F D D D
;
_chemical_formula_sum "Si O2"
_cell_formula_units_Z 192
_cell_length_a 20.816752
_cell_length_b 28.330482
_cell_length_c 19.135918
_cell_angle_alpha 90.000000
_cell_angle_beta 90.000000
_cell_angle_gamma 90.000000
_cell_volume 11285.381191
_symmetry_space_group_name_H-M "F D D D"
_symmetry_group_IT_number 70
_space_group.IT_coordinate_system_code '2'
_symmetry_cell_setting 'orthorhombic'
loop_
_space_group_symop_operation_xyz
x,y,z
1/4-x,1/4-y,z
x,1/4-y,1/4-z
1/4-x,y,1/4-z
-x,-y,-z
3/4+x,3/4+y,-z
-x,3/4+y,3/4+z
3/4+x,-y,3/4+z
x,1/2+y,1/2+z
1/4-x,3/4-y,1/2+z
x,3/4-y,3/4-z
1/4-x,1/2+y,3/4-z
-x,1/2-y,1/2-z
3/4+x,1/4+y,1/2-z
-x,1/4+y,1/4+z
3/4+x,1/2-y,1/4+z
1/2+x,y,1/2+z
3/4-x,1/4-y,1/2+z
1/2+x,1/4-y,3/4-z
3/4-x,y,3/4-z
1/2-x,-y,1/2-z
1/4+x,3/4+y,1/2-z
1/2-x,3/4+y,1/4+z
1/4+x,-y,1/4+z
1/2+x,1/2+y,z
3/4-x,3/4-y,z
1/2+x,3/4-y,1/4-z
3/4-x,1/2+y,1/4-z
1/2-x,1/2-y,-z
1/4+x,1/4+y,-z
1/2-x,1/4+y,3/4+z
1/4+x,1/2-y,3/4+z
loop_
_atom_site_type_symbol
_atom_site_label
_atom_site_fract_x
_atom_site_fract_y
_atom_site_fract_z
Si Si1 0.119208 0.899921 0.942770
Si Si2 0.934383 0.748373 0.705863
Si Si3 0.062345 0.915198 0.167727
Si Si4 0.830327 0.268278 0.316554
Si Si5 0.188251 0.151540 0.907847
Si Si6 0.010988 0.109362 0.203561
O O1 0.151064 0.875000 0.875000
O O2 0.063971 0.865122 0.971936
O O3 0.078004 0.947188 0.920066
O O4 0.175273 0.905829 0.000019
O O5 0.873135 0.750462 0.754334
O O6 0.929540 0.791877 0.652149
O O7 0.000000 0.750000 0.750000
O O8 0.125000 0.898734 0.125000
O O9 0.999660 0.886916 0.140027
O O10 0.047982 0.970758 0.151857
O O11 0.875000 0.293174 0.375000
O O12 0.776808 0.304010 0.288980
O O13 0.125000 0.125000 0.878828
O O14 0.197862 0.138771 0.989662
O O15 0.028585 0.125000 0.125000
#
# Coordination Sequence:
#
# PCOD8285967 Si02
#       6
#    32  32  32  32  32  32
#     4  10  22  35  55  76 103 148 188 216 256 324
#     4  11  19  32  47  76 111 138 173 214 264 328
#     4  10  20  38  53  74 110 148 180 218 269 321
#     4  10  20  30  48  73 111 148 170 207 265 326
#     4  12  22  33  52  80 115 143 180 222 269 324
#     4  11  21  30  46  81 115 142 177 208 261 316
#
# _framework density 17.013161
#
# number of rings (size 3 to 8) (size 9 to 14) (size 15 to 20)
#    0.000    1.333    5.000    3.000    7.000    0.000 
#    0.000    0.000    0.000    1.500    0.000    0.000 
#    0.000    0.000    0.000    0.000    0.000    0.000 
#
# Total GULP energy -594827.068785 kJ/mol
# GULP energy per Si atom -12392.230600 kJ/mol
# Density = 1.697444 g / cm^3
# Si number density = 17.013161 Si / 1000 Ang^3
#
#
#
# Elastic Constant Matrix: (Units=GPa)
#
#
# Indices 1 2 3 4 5 6 
#
# 1 99.8481 47.4822 33.5190 0.0000 0.0000 0.0000
# 2 47.4822 73.0255 35.9928 0.0000 0.0000 0.0000
# 3 33.5190 35.9928 72.0702 0.0000 0.0000 0.0000
# 4 0.0000 0.0000 0.0000 22.6213 0.0000 0.0000
# 5 0.0000 0.0000 0.0000 0.0000 15.3989 0.0000
# 6 0.0000 0.0000 0.0000 0.0000 0.0000 24.7118
#
#
#
# Elastic Compliance Matrix: (Units=1/GPa)
#
#
# Indices 1 2 3 4 5 6 
#
# 1 0.014905 -0.008324 -0.002775 0.000000 0.000000 0.000000
# 2 -0.008324 0.022814 -0.007522 0.000000 0.000000 0.000000
# 3 -0.002775 -0.007522 0.018923 0.000000 0.000000 0.000000
# 4 0.000000 0.000000 0.000000 0.044206 0.000000 0.000000
# 5 0.000000 0.000000 0.000000 0.000000 0.064940 0.000000
# 6 0.000000 0.000000 0.000000 0.000000 0.000000 0.040466
#
#
# Mechanical properties :
#
#
# Convention : Reuss Voigt Hill
#
# Bulk Modulus (GPa) = 51.54823 53.21463 52.38143
# Shear Modulus (GPa) = 20.00301 21.07639 20.53970
#
# Velocity S-wave (km/s) = 3.43262 3.52352 3.47837
# Velocity P-wave (km/s) = 6.78788 6.92098 6.85476
#
# Compressibility (1/GPa) = 0.01939931
#
# Stress axis : x y z
#
# Youngs Moduli (GPa) = 67.09091 43.83365 52.84648
#
# Poissons Ratio (x) = 0.36486 0.14666
# Poissons Ratio (y) = 0.55844 0.39752
# Poissons Ratio (z) = 0.18619 0.32972
#
# Static dielectric constant tensor:
#      x y z
#    x 3.069520 0.000000 0.000000 
#    y 0.000000 3.623960 0.000000 
#    z 0.000000 0.000000 3.020730 
# 
# 
# High freq. dielectric constant tensor:
#      x y z
#    x 1.639690 0.000000 0.000000 
#    y 0.000000 1.652130 0.000000 
#    z 0.000000 0.000000 1.628020 
# 
# From -- ./inp_files/45083.got.cif
#   From: 2010.03.12/outbox.cif.g09.slc.cpg/sg70_23_cif.got.tgz:45083.got - 2010.04.16 13:46:32.
