data_PCOD8285011
_publ_section_title
;
Structure prediction by ZEFSAII (Michael W. Deem and Ramdas Pophale) SiO2 
 PCOD8285011
Probable space group: F M M M
;
_chemical_formula_sum "Si O2"
_cell_formula_units_Z 176
_cell_length_a 13.797786
_cell_length_b 23.744434
_cell_length_c 24.154019
_cell_angle_alpha 90.000000
_cell_angle_beta 90.000000
_cell_angle_gamma 90.000000
_cell_volume 7913.354657
_symmetry_space_group_name_H-M "F M M M"
_symmetry_group_IT_number 69
_symmetry_cell_setting 'orthorhombic'
loop_
_space_group_symop_operation_xyz
x,y,z
-x,-y,z
x,-y,-z
-x,y,-z
-x,-y,-z
x,y,-z
-x,y,z
x,-y,z
x,1/2+y,1/2+z
-x,1/2-y,1/2+z
x,1/2-y,1/2-z
-x,1/2+y,1/2-z
-x,1/2-y,1/2-z
x,1/2+y,1/2-z
-x,1/2+y,1/2+z
x,1/2-y,1/2+z
1/2+x,y,1/2+z
1/2-x,-y,1/2+z
1/2+x,-y,1/2-z
1/2-x,y,1/2-z
1/2-x,-y,1/2-z
1/2+x,y,1/2-z
1/2-x,y,1/2+z
1/2+x,-y,1/2+z
1/2+x,1/2+y,z
1/2-x,1/2-y,z
1/2+x,1/2-y,-z
1/2-x,1/2+y,-z
1/2-x,1/2-y,-z
1/2+x,1/2+y,-z
1/2-x,1/2+y,z
1/2+x,1/2-y,z
loop_
_atom_site_type_symbol
_atom_site_label
_atom_site_fract_x
_atom_site_fract_y
_atom_site_fract_z
Si Si1 0.610598 0.192381 0.730575
Si Si2 0.746385 0.934910 0.903028
Si Si3 0.885379 0.220642 0.437137
Si Si4 0.384766 0.662134 0.889155
Si Si5 0.893742 0.565888 0.000000
Si Si6 0.111171 0.368296 0.156248
O O1 0.500000 0.206895 0.715502
O O2 0.662469 0.250000 0.750000
O O3 0.655477 0.168260 0.673955
O O4 0.620554 0.148887 0.780168
O O5 0.841006 0.896469 0.911902
O O6 0.666434 0.915451 0.947356
O O7 0.685001 0.921382 0.847453
O O8 0.778119 0.000000 0.906968
O O9 0.853510 0.202568 0.500000
O O10 0.846044 0.284089 0.424383
O O11 0.850042 0.178766 0.388101
O O12 0.000000 0.224223 0.432782
O O13 0.500000 0.655756 0.892934
O O14 0.910186 0.500000 0.000000
O O15 0.000000 0.596264 0.000000
O O16 0.000000 0.385030 0.143000
#
# Coordination Sequence:
#
# PCOD8285011 Si02
#       6
#    32  32  32  32  16  32
#     4   9  16  34  61  88 120 159 205 252 303 371
#     4  11  25  41  58  87 121 159 210 253 297 363
#     4   9  18  33  57  90 123 154 191 245 315 376
#     4  10  21  39  62  87 123 166 204 251 306 363
#     4   9  20  42  67  86 113 157 206 256 302 351
#     4  10  20  36  61  90 120 155 198 253 315 373
#
# _framework density 22.240884000000001
#
# number of rings (size 3 to 8) (size 9 to 14) (size 15 to 20)
#    0.000    2.273    1.818    0.545    2.545    2.909 
#    0.000    3.636    0.000    4.909    0.000    0.000 
#    0.000    0.000    0.000    0.000    0.000    0.000 
#
# Total GULP energy -545272.693140 kJ/mol
# GULP energy per Si atom -12392.561208 kJ/mol
# Density = 2.219026 g / cm^3
# Si number density = 22.240884 Si / 1000 Ang^3
#
#
#
# Elastic Constant Matrix: (Units=GPa)
#
#
# Indices 1 2 3 4 5 6 
#
# 1 42.0619 23.0743 19.7070 0.0000 0.0000 0.0000
# 2 23.0743 91.1278 22.9256 0.0000 0.0000 0.0000
# 3 19.7070 22.9256 112.0693 0.0000 0.0000 0.0000
# 4 0.0000 0.0000 0.0000 24.6792 0.0000 0.0000
# 5 0.0000 0.0000 0.0000 0.0000 26.4668 0.0000
# 6 0.0000 0.0000 0.0000 0.0000 0.0000 32.9699
#
#
#
# Elastic Compliance Matrix: (Units=1/GPa)
#
#
# Indices 1 2 3 4 5 6 
#
# 1 0.029069 -0.006404 -0.003802 0.000000 0.000000 0.000000
# 2 -0.006404 0.012980 -0.001529 0.000000 0.000000 0.000000
# 3 -0.003802 -0.001529 0.009904 0.000000 0.000000 0.000000
# 4 0.000000 0.000000 0.000000 0.040520 0.000000 0.000000
# 5 0.000000 0.000000 0.000000 0.000000 0.037783 0.000000
# 6 0.000000 0.000000 0.000000 0.000000 0.000000 0.030331
#
#
# Mechanical properties :
#
#
# Convention : Reuss Voigt Hill
#
# Bulk Modulus (GPa) = 35.10810 41.85253 38.48032
# Shear Modulus (GPa) = 25.83302 28.79333 27.31317
#
# Velocity S-wave (km/s) = 3.41179 3.60198 3.50817
# Velocity P-wave (km/s) = 5.59822 6.01312 5.80938
#
# Compressibility (1/GPa) = 0.02848345
#
# Stress axis : x y z
#
# Youngs Moduli (GPa) = 34.40122 77.04249 100.96581
#
# Poissons Ratio (x) = 0.49338 0.38383
# Poissons Ratio (y) = 0.22031 0.15439
# Poissons Ratio (z) = 0.13078 0.11781
#
# Static dielectric constant tensor:
#      x y z
#    x 3.919770 0.000000 0.000000 
#    y 0.000000 3.773590 0.000000 
#    z 0.000000 0.000000 4.163290 
# 
# 
# High freq. dielectric constant tensor:
#      x y z
#    x 1.879580 0.000000 0.000000 
#    y 0.000000 1.852240 0.000000 
#    z 0.000000 0.000000 1.877970 
# 
# From -- ./inp_files/35905.got.cif
#   From: 2010.03.12/outbox.cif.g09.slc.cpg/sg69_18_cif.got.tgz:35905.got - 2010.04.10 23:52:46.
