data_PCOD8285750
_publ_section_title
;
Structure prediction by ZEFSAII (Michael W. Deem and Ramdas Pophale) SiO2 
 PCOD8285750
Probable space group: F D D D
;
_chemical_formula_sum "Si O2"
_cell_formula_units_Z 176
_cell_length_a 22.704485
_cell_length_b 37.626168
_cell_length_c 11.582217
_cell_angle_alpha 90.000000
_cell_angle_beta 90.000000
_cell_angle_gamma 90.000000
_cell_volume 9894.488386
_symmetry_space_group_name_H-M "F D D D"
_symmetry_group_IT_number 70
_space_group.IT_coordinate_system_code '2'
_symmetry_cell_setting 'orthorhombic'
loop_
_space_group_symop_operation_xyz
x,y,z
1/4-x,1/4-y,z
x,1/4-y,1/4-z
1/4-x,y,1/4-z
-x,-y,-z
3/4+x,3/4+y,-z
-x,3/4+y,3/4+z
3/4+x,-y,3/4+z
x,1/2+y,1/2+z
1/4-x,3/4-y,1/2+z
x,3/4-y,3/4-z
1/4-x,1/2+y,3/4-z
-x,1/2-y,1/2-z
3/4+x,1/4+y,1/2-z
-x,1/4+y,1/4+z
3/4+x,1/2-y,1/4+z
1/2+x,y,1/2+z
3/4-x,1/4-y,1/2+z
1/2+x,1/4-y,3/4-z
3/4-x,y,3/4-z
1/2-x,-y,1/2-z
1/4+x,3/4+y,1/2-z
1/2-x,3/4+y,1/4+z
1/4+x,-y,1/4+z
1/2+x,1/2+y,z
3/4-x,3/4-y,z
1/2+x,3/4-y,1/4-z
3/4-x,1/2+y,1/4-z
1/2-x,1/2-y,-z
1/4+x,1/4+y,-z
1/2-x,1/4+y,3/4+z
1/4+x,1/2-y,3/4+z
loop_
_atom_site_type_symbol
_atom_site_label
_atom_site_fract_x
_atom_site_fract_y
_atom_site_fract_z
Si Si1 0.435164 0.535320 0.042019
Si Si2 0.306114 0.673243 0.900756
Si Si3 0.944575 0.657983 0.879135
Si Si4 0.233971 0.523935 0.502281
Si Si5 0.875000 0.266940 0.375000
Si Si6 0.445788 0.549108 0.651196
O O1 0.477477 0.516371 0.133617
O O2 0.374606 0.546081 0.104142
O O3 0.467329 0.569852 0.983039
O O4 0.421934 0.507837 0.940069
O O5 0.375000 0.679729 0.875000
O O6 0.287226 0.632923 0.874283
O O7 0.266153 0.695591 0.816140
O O8 0.286390 0.684175 0.029037
O O9 0.875000 0.662703 0.875000
O O10 0.968184 0.674425 0.998782
O O11 0.168040 0.538460 0.538483
O O12 0.227160 0.488835 0.423318
#
# Coordination Sequence:
#
# PCOD8285750 Si02
#       6
#    32  32  32  32  16  32
#     4  10  17  34  55  81 103 140 183 218 273 316
#     4  11  21  33  52  83 115 142 175 226 291 330
#     4   9  18  32  54  79 110 142 173 225 277 338
#     4  11  21  33  56  80 111 141 181 229 266 325
#     4  10  20  34  54  81 106 140 188 216 260 324
#     4  10  19  35  52  80 113 142 178 217 274 340
#
# _framework density 17.787680999999999
#
# number of rings (size 3 to 8) (size 9 to 14) (size 15 to 20)
#    0.000    1.818    6.364    1.636    0.000    0.727 
#    0.000    0.000    0.000    2.182    0.000    0.000 
#    0.000    0.000    0.000    0.000    0.000    0.000 
#
# Total GULP energy -545271.133009 kJ/mol
# GULP energy per Si atom -12392.525750 kJ/mol
# Density = 1.774720 g / cm^3
# Si number density = 17.787681 Si / 1000 Ang^3
#
#
#
# Elastic Constant Matrix: (Units=GPa)
#
#
# Indices 1 2 3 4 5 6 
#
# 1 63.6793 49.9684 31.9869 0.0000 0.0000 0.0000
# 2 49.9684 97.5284 37.3755 0.0000 0.0000 0.0000
# 3 31.9869 37.3755 85.9160 -0.0001 0.0000 0.0001
# 4 0.0000 0.0000 -0.0001 30.3267 0.0000 0.0000
# 5 0.0000 0.0000 0.0000 0.0000 27.8484 -0.0001
# 6 0.0000 0.0000 0.0001 0.0000 -0.0001 2.1732
#
#
#
# Elastic Compliance Matrix: (Units=1/GPa)
#
#
# Indices 1 2 3 4 5 6 
#
# 1 0.027952 -0.012400 -0.005012 0.000000 0.000000 0.000000
# 2 -0.012400 0.017806 -0.003129 0.000000 0.000000 0.000000
# 3 -0.005012 -0.003129 0.014867 0.000000 0.000000 -0.000001
# 4 0.000000 0.000000 0.000000 0.032974 0.000000 -0.000001
# 5 0.000000 0.000000 0.000000 0.000000 0.035909 0.000001
# 6 0.000000 0.000000 -0.000001 -0.000001 0.000001 0.460141
#
#
# Mechanical properties :
#
#
# Convention : Reuss Voigt Hill
#
# Bulk Modulus (GPa) = 51.17485 53.97614 52.57550
# Shear Modulus (GPa) = 7.84627 20.58920 14.21774
#
# Velocity S-wave (km/s) = 2.10253 3.40589 2.83026
# Velocity P-wave (km/s) = 5.89292 6.77328 6.34838
#
# Compressibility (1/GPa) = 0.01954085
#
# Stress axis : x y z
#
# Youngs Moduli (GPa) = 35.77617 56.16141 67.26463
#
# Poissons Ratio (x) = 0.69641 0.33714
# Poissons Ratio (y) = 0.44363 0.21049
# Poissons Ratio (z) = 0.17932 0.17575
#
# Static dielectric constant tensor:
#      x y z
#    x 3.112290 0.000000 0.000000 
#    y 0.000000 3.324290 0.000000 
#    z 0.000000 0.000000 3.583010 
# 
# 
# High freq. dielectric constant tensor:
#      x y z
#    x 1.655260 0.000000 0.000000 
#    y 0.000000 1.675520 0.000000 
#    z 0.000000 0.000000 1.704340 
# 
# From -- ./inp_files/21201.got.cif
#   From: 2010.03.12/outbox.cif.g09.slc.cpg/sg70_11_cif.got.tgz:21201.got - 2010.04.16 13:46:32.
