data_PCOD8285207
_publ_section_title
;
Structure prediction by ZEFSAII (Michael W. Deem and Ramdas Pophale) SiO2 
 PCOD8285207
Probable space group: F M M M
;
_chemical_formula_sum "Si O2"
_cell_formula_units_Z 168
_cell_length_a 22.660029
_cell_length_b 13.435297
_cell_length_c 29.325298
_cell_angle_alpha 90.000000
_cell_angle_beta 90.000000
_cell_angle_gamma 90.000000
_cell_volume 8927.917465
_symmetry_space_group_name_H-M "F M M M"
_symmetry_group_IT_number 69
_symmetry_cell_setting 'orthorhombic'
loop_
_space_group_symop_operation_xyz
x,y,z
-x,-y,z
x,-y,-z
-x,y,-z
-x,-y,-z
x,y,-z
-x,y,z
x,-y,z
x,1/2+y,1/2+z
-x,1/2-y,1/2+z
x,1/2-y,1/2-z
-x,1/2+y,1/2-z
-x,1/2-y,1/2-z
x,1/2+y,1/2-z
-x,1/2+y,1/2+z
x,1/2-y,1/2+z
1/2+x,y,1/2+z
1/2-x,-y,1/2+z
1/2+x,-y,1/2-z
1/2-x,y,1/2-z
1/2-x,-y,1/2-z
1/2+x,y,1/2-z
1/2-x,y,1/2+z
1/2+x,-y,1/2+z
1/2+x,1/2+y,z
1/2-x,1/2-y,z
1/2+x,1/2-y,-z
1/2-x,1/2+y,-z
1/2-x,1/2-y,-z
1/2+x,1/2+y,-z
1/2-x,1/2+y,z
1/2+x,1/2-y,z
loop_
_atom_site_type_symbol
_atom_site_label
_atom_site_fract_x
_atom_site_fract_y
_atom_site_fract_z
Si Si1 0.677969 0.386493 0.817091
Si Si2 0.660139 0.305665 0.551982
Si Si3 0.782873 0.388004 0.418274
Si Si4 0.068151 0.113473 0.378435
Si Si5 0.250000 0.250000 0.750000
Si Si6 0.933018 0.230807 0.802672
O O1 0.680872 0.500000 0.800797
O O2 0.711500 0.370732 0.864466
O O3 0.708459 0.318492 0.779951
O O4 0.609586 0.354791 0.822058
O O5 0.645642 0.333048 0.500000
O O6 0.715041 0.370622 0.569115
O O7 0.674911 0.188256 0.555110
O O8 0.603464 0.331170 0.581863
O O9 0.801485 0.500000 0.432002
O O10 0.078988 0.166903 0.330007
O O11 0.000000 0.118361 0.392777
O O12 0.089808 0.000000 0.372917
O O13 0.919530 0.250000 0.750000
O O14 0.000000 0.193743 0.809997
#
# Coordination Sequence:
#
# PCOD8285207 Si02
#       6
#    32  32  32  32   8  32
#     4  11  23  38  60  86 116 161 199 236 295 349
#     4  11  22  37  61  89 116 153 196 241 294 349
#     4  10  21  37  56  83 118 153 192 236 289 349
#     4  10  22  40  61  86 119 156 192 240 301 353
#     4  12  22  40  54  86 130 152 190 246 288 354
#     4  10  21  40  62  86 117 153 199 249 290 342
#
# _framework density 18.817378000000001
#
# number of rings (size 3 to 8) (size 9 to 14) (size 15 to 20)
#    0.000    1.524    2.857    3.143    0.000    4.190 
#    0.000    2.857    0.000    0.571    0.000    1.333 
#    0.000    0.000    0.000    0.000    0.000    0.000 
#
# Total GULP energy -520947.679290 kJ/mol
# GULP energy per Si atom -12403.516174 kJ/mol
# Density = 1.877455 g / cm^3
# Si number density = 18.817378 Si / 1000 Ang^3
#
#
#
# Elastic Constant Matrix: (Units=GPa)
#
#
# Indices 1 2 3 4 5 6 
#
# 1 87.0029 50.0742 54.3253 0.0000 0.0000 0.0000
# 2 50.0742 113.1896 52.6297 0.0000 0.0000 0.0000
# 3 54.3253 52.6297 130.9120 0.0000 0.0000 0.0000
# 4 0.0000 0.0000 0.0000 14.5983 0.0000 0.0000
# 5 0.0000 0.0000 0.0000 0.0000 0.4385 0.0000
# 6 0.0000 0.0000 0.0000 0.0000 0.0000 19.1581
#
#
#
# Elastic Compliance Matrix: (Units=1/GPa)
#
#
# Indices 1 2 3 4 5 6 
#
# 1 0.017922 -0.005498 -0.005227 0.000000 0.000000 0.000000
# 2 -0.005498 0.012553 -0.002765 0.000000 0.000000 0.000000
# 3 -0.005227 -0.002765 0.010919 0.000000 0.000000 0.000000
# 4 0.000000 0.000000 0.000000 0.068501 0.000000 0.000000
# 5 0.000000 0.000000 0.000000 0.000000 2.280310 0.000000
# 6 0.000000 0.000000 0.000000 0.000000 0.000000 0.052197
#
#
# Mechanical properties :
#
#
# Convention : Reuss Voigt Hill
#
# Bulk Modulus (GPa) = 69.37604 71.68476 70.53040
# Shear Modulus (GPa) = 2.02087 18.44402 10.23244
#
# Velocity S-wave (km/s) = 1.03743 3.13415 2.33443
# Velocity P-wave (km/s) = 6.19541 7.16064 6.69544
#
# Compressibility (1/GPa) = 0.01441420
#
# Stress axis : x y z
#
# Youngs Moduli (GPa) = 55.79726 79.66426 91.58159
#
# Poissons Ratio (x) = 0.43802 0.47868
# Poissons Ratio (y) = 0.30679 0.25321
# Poissons Ratio (z) = 0.29164 0.22026
#
# Static dielectric constant tensor:
#      x y z
#    x 3.509030 0.000000 0.000000 
#    y 0.000000 3.587480 0.000000 
#    z 0.000000 0.000000 3.432550 
# 
# 
# High freq. dielectric constant tensor:
#      x y z
#    x 1.730350 0.000000 0.000000 
#    y 0.000000 1.736280 0.000000 
#    z 0.000000 0.000000 1.735120 
# 
# From -- ./inp_files/40976.got.cif
#   From: 2010.03.12/outbox.cif.g09.slc.cpg/sg69_21_cif.got.tgz:40976.got - 2010.04.10 23:52:46.
