data_PCOD8285265
_publ_section_title
;
Structure prediction by ZEFSAII (Michael W. Deem and Ramdas Pophale) SiO2 
 PCOD8285265
Probable space group: F M M M
;
_chemical_formula_sum "Si O2"
_cell_formula_units_Z 144
_cell_length_a 30.796970
_cell_length_b 28.522563
_cell_length_c 9.066162
_cell_angle_alpha 90.000000
_cell_angle_beta 90.000000
_cell_angle_gamma 90.000000
_cell_volume 7963.793918
_symmetry_space_group_name_H-M "F M M M"
_symmetry_group_IT_number 69
_symmetry_cell_setting 'orthorhombic'
loop_
_space_group_symop_operation_xyz
x,y,z
-x,-y,z
x,-y,-z
-x,y,-z
-x,-y,-z
x,y,-z
-x,y,z
x,-y,z
x,1/2+y,1/2+z
-x,1/2-y,1/2+z
x,1/2-y,1/2-z
-x,1/2+y,1/2-z
-x,1/2-y,1/2-z
x,1/2+y,1/2-z
-x,1/2+y,1/2+z
x,1/2-y,1/2+z
1/2+x,y,1/2+z
1/2-x,-y,1/2+z
1/2+x,-y,1/2-z
1/2-x,y,1/2-z
1/2-x,-y,1/2-z
1/2+x,y,1/2-z
1/2-x,y,1/2+z
1/2+x,-y,1/2+z
1/2+x,1/2+y,z
1/2-x,1/2-y,z
1/2+x,1/2-y,-z
1/2-x,1/2+y,-z
1/2-x,1/2-y,-z
1/2+x,1/2+y,-z
1/2-x,1/2+y,z
1/2+x,1/2-y,z
loop_
_atom_site_type_symbol
_atom_site_label
_atom_site_fract_x
_atom_site_fract_y
_atom_site_fract_z
Si Si1 0.000000 0.798519 0.171589
Si Si2 0.549437 0.444828 0.669015
Si Si3 0.406333 0.798675 0.671044
Si Si4 0.293889 0.054376 0.827843
Si Si5 0.627074 0.103871 0.327295
O O1 0.000000 0.750000 0.250000
O O2 0.046277 0.821341 0.217595
O O3 0.000000 0.789594 0.000000
O O4 0.560273 0.431402 0.500000
O O5 0.500000 0.430000 0.707807
O O6 0.555391 0.500000 0.691688
O O7 0.581661 0.418640 0.778801
O O8 0.406212 0.785958 0.500000
O O9 0.393985 0.750000 0.750000
O O10 0.372544 0.840190 0.705960
O O11 0.250000 0.071665 0.750000
O O12 0.333798 0.083021 0.764781
O O13 0.302535 0.000000 0.794189
O O14 0.289365 0.064406 0.000000
O O15 0.633526 0.093615 0.500000
#
# Coordination Sequence:
#
# PCOD8285265 Si02
#       5
#    16  32  32  32  32
#     4   8  14  28  46  64  91 128 171 217 260 297
#     4   9  19  35  51  70 102 143 184 222 260 309
#     4   9  19  33  50  72 102 139 179 224 267 311
#     4  10  21  38  60  84 110 139 173 216 265 318
#     4  11  22  33  52  81 110 140 176 219 268 322
#
# _framework density 18.081834000000001
#
# number of rings (size 3 to 8) (size 9 to 14) (size 15 to 20)
#    0.000    2.444    0.000    2.667    1.556    6.667 
#    0.000    1.111    0.000    0.667    0.000    4.667 
#    0.000    0.000    0.000    0.000    0.000    0.000 
#
# Total GULP energy -446108.078295 kJ/mol
# GULP energy per Si atom -12391.891064 kJ/mol
# Density = 1.804068 g / cm^3
# Si number density = 18.081834 Si / 1000 Ang^3
#
#
#
# Elastic Constant Matrix: (Units=GPa)
#
#
# Indices 1 2 3 4 5 6 
#
# 1 105.7283 54.2664 46.0629 -0.0058 0.0041 0.0070
# 2 54.2664 71.8992 37.3209 -0.0055 0.0061 0.0064
# 3 46.0629 37.3209 62.2359 -0.0269 0.0189 0.0152
# 4 -0.0058 -0.0055 -0.0269 27.9713 0.0103 0.0106
# 5 0.0041 0.0061 0.0189 0.0103 34.7222 -0.0067
# 6 0.0070 0.0064 0.0152 0.0106 -0.0067 12.3403
#
#
#
# Elastic Compliance Matrix: (Units=1/GPa)
#
#
# Indices 1 2 3 4 5 6 
#
# 1 0.017452 -0.009390 -0.007286 -0.000005 0.000004 0.000004
# 2 -0.009390 0.025247 -0.008190 -0.000005 0.000001 0.000002
# 3 -0.007286 -0.008190 0.026372 0.000022 -0.000012 -0.000024
# 4 -0.000005 -0.000005 0.000022 0.035751 -0.000011 -0.000031
# 5 0.000004 0.000001 -0.000012 -0.000011 0.028800 0.000016
# 6 0.000004 0.000002 -0.000024 -0.000031 0.000016 0.081036
#
#
# Mechanical properties :
#
#
# Convention : Reuss Voigt Hill
#
# Bulk Modulus (GPa) = 51.70936 57.24042 54.47489
# Shear Modulus (GPa) = 18.46145 21.82096 20.14121
#
# Velocity S-wave (km/s) = 3.19877 3.47766 3.34112
# Velocity P-wave (km/s) = 6.50402 6.91741 6.71390
#
# Compressibility (1/GPa) = 0.01933886
#
# Stress axis : x y z
#
# Youngs Moduli (GPa) = 57.29964 39.60918 37.91969
#
# Poissons Ratio (x) = 0.37194 0.27628
# Poissons Ratio (y) = 0.53805 0.31055
# Poissons Ratio (z) = 0.41748 0.32438
#
# Static dielectric constant tensor:
#      x y z
#    x 3.217760 0.000000 0.000010 
#    y 0.000000 3.204490 -0.000010 
#    z 0.000010 -0.000010 3.365280 
# 
# 
# High freq. dielectric constant tensor:
#      x y z
#    x 1.691760 0.000000 0.000000 
#    y 0.000000 1.689460 0.000000 
#    z 0.000000 0.000000 1.706580 
# 
# From -- ./inp_files/5543.got.cif
#   From: 2010.03.12/outbox.cif.g09.slc.cpg/sg69_3_cif.got.tgz:5543.got - 2010.04.10 23:52:46.
