data_PCOD8285370
_publ_section_title
;
Structure prediction by ZEFSAII (Michael W. Deem and Ramdas Pophale) SiO2 
 PCOD8285370
Probable space group: F M M M
;
_chemical_formula_sum "Si O2"
_cell_formula_units_Z 176
_cell_length_a 28.467390
_cell_length_b 14.768158
_cell_length_c 21.036285
_cell_angle_alpha 90.000000
_cell_angle_beta 90.000000
_cell_angle_gamma 90.000000
_cell_volume 8843.883791
_symmetry_space_group_name_H-M "F M M M"
_symmetry_group_IT_number 69
_symmetry_cell_setting 'orthorhombic'
loop_
_space_group_symop_operation_xyz
x,y,z
-x,-y,z
x,-y,-z
-x,y,-z
-x,-y,-z
x,y,-z
-x,y,z
x,-y,z
x,1/2+y,1/2+z
-x,1/2-y,1/2+z
x,1/2-y,1/2-z
-x,1/2+y,1/2-z
-x,1/2-y,1/2-z
x,1/2+y,1/2-z
-x,1/2+y,1/2+z
x,1/2-y,1/2+z
1/2+x,y,1/2+z
1/2-x,-y,1/2+z
1/2+x,-y,1/2-z
1/2-x,y,1/2-z
1/2-x,-y,1/2-z
1/2+x,y,1/2-z
1/2-x,y,1/2+z
1/2+x,-y,1/2+z
1/2+x,1/2+y,z
1/2-x,1/2-y,z
1/2+x,1/2-y,-z
1/2-x,1/2+y,-z
1/2-x,1/2-y,-z
1/2+x,1/2+y,-z
1/2-x,1/2+y,z
1/2+x,1/2-y,z
loop_
_atom_site_type_symbol
_atom_site_label
_atom_site_fract_x
_atom_site_fract_y
_atom_site_fract_z
Si Si1 0.288012 0.102120 0.295022
Si Si2 0.444387 0.395933 0.000000
Si Si3 0.107243 0.102551 0.220944
Si Si4 0.055031 0.102210 0.351974
Si Si5 0.795205 0.312336 0.429527
Si Si6 0.101941 0.225902 0.103727
O O1 0.250000 0.155445 0.250000
O O2 0.338145 0.117381 0.261696
O O3 0.288242 0.122213 0.370139
O O4 0.272024 0.000000 0.294376
O O5 0.424454 0.345579 0.939423
O O6 0.427089 0.500000 0.000000
O O7 0.500000 0.390474 0.000000
O O8 0.075874 0.116571 0.282357
O O9 0.094164 0.181685 0.172545
O O10 0.100134 0.000000 0.193251
O O11 0.078353 0.174786 0.399527
O O12 0.000000 0.120520 0.348538
O O13 0.065615 0.000000 0.376476
O O14 0.798841 0.359769 0.500000
O O15 0.750000 0.250000 0.430704
O O16 0.844034 0.259140 0.417018
#
# Coordination Sequence:
#
# PCOD8285370 Si02
#       6
#    32  16  32  32  32  32
#     4   9  19  35  57  87 119 156 200 250 305 363
#     4  11  24  40  62  91 119 151 195 246 299 363
#     4   9  19  35  57  88 123 157 199 248 304 365
#     4  10  22  39  60  87 121 161 206 257 307 361
#     4  10  22  39  57  84 119 159 202 249 301 367
#     4  11  21  39  61  87 121 163 199 248 305 361
#
# _framework density 19.900759999999998
#
# number of rings (size 3 to 8) (size 9 to 14) (size 15 to 20)
#    0.000    2.091    0.909    1.636    2.545    3.636 
#    0.000    2.273    0.000    2.727    0.000    0.000 
#    0.000    0.000    0.000    0.000    0.000    0.000 
#
# Total GULP energy -545152.002218 kJ/mol
# GULP energy per Si atom -12389.818232 kJ/mol
# Density = 1.985546 g / cm^3
# Si number density = 19.900760 Si / 1000 Ang^3
#
#
#
# Elastic Constant Matrix: (Units=GPa)
#
#
# Indices 1 2 3 4 5 6 
#
# 1 131.4383 69.0288 60.7882 0.0000 0.0000 0.0000
# 2 69.0288 117.8959 44.8789 0.0000 0.0000 0.0000
# 3 60.7882 44.8789 94.7832 0.0000 0.0000 0.0000
# 4 0.0000 0.0000 0.0000 23.3510 0.0000 0.0000
# 5 0.0000 0.0000 0.0000 0.0000 28.9446 0.0000
# 6 0.0000 0.0000 0.0000 0.0000 0.0000 24.7679
#
#
#
# Elastic Compliance Matrix: (Units=1/GPa)
#
#
# Indices 1 2 3 4 5 6 
#
# 1 0.013211 -0.005502 -0.005868 0.000000 0.000000 0.000000
# 2 -0.005502 0.012638 -0.002456 0.000000 0.000000 0.000000
# 3 -0.005868 -0.002456 0.015476 0.000000 0.000000 0.000000
# 4 0.000000 0.000000 0.000000 0.042825 0.000000 0.000000
# 5 0.000000 0.000000 0.000000 0.000000 0.034549 0.000000
# 6 0.000000 0.000000 0.000000 0.000000 0.000000 0.040375
#
#
# Mechanical properties :
#
#
# Convention : Reuss Voigt Hill
#
# Bulk Modulus (GPa) = 73.12363 77.05659 75.09011
# Shear Modulus (GPa) = 26.13929 26.70746 26.42338
#
# Velocity S-wave (km/s) = 3.62813 3.66735 3.64779
# Velocity P-wave (km/s) = 7.37394 7.53240 7.45359
#
# Compressibility (1/GPa) = 0.01367547
#
# Stress axis : x y z
#
# Youngs Moduli (GPa) = 75.69273 79.12622 64.61419
#
# Poissons Ratio (x) = 0.43532 0.37916
# Poissons Ratio (y) = 0.41643 0.15867
# Poissons Ratio (z) = 0.44416 0.19430
#
# Static dielectric constant tensor:
#      x y z
#    x 3.867050 0.000000 0.000000 
#    y 0.000000 3.735630 0.000000 
#    z 0.000000 0.000000 3.928600 
# 
# 
# High freq. dielectric constant tensor:
#      x y z
#    x 1.792150 0.000000 0.000000 
#    y 0.000000 1.768270 0.000000 
#    z 0.000000 0.000000 1.772620 
# 
# From -- ./inp_files/38335.got.cif
#   From: 2010.03.12/outbox.cif.g09.slc.cpg/sg69_20_cif.got.tgz:38335.got - 2010.04.10 23:52:46.
