data_PCOD8285544
_publ_section_title
;
Structure prediction by ZEFSAII (Michael W. Deem and Ramdas Pophale) SiO2 
 PCOD8285544
Probable space group: F M M M
;
_chemical_formula_sum "Si O2"
_cell_formula_units_Z 192
_cell_length_a 19.762648
_cell_length_b 16.544731
_cell_length_c 29.632366
_cell_angle_alpha 90.000000
_cell_angle_beta 90.000000
_cell_angle_gamma 90.000000
_cell_volume 9688.826409
_symmetry_space_group_name_H-M "F M M M"
_symmetry_group_IT_number 69
_symmetry_cell_setting 'orthorhombic'
loop_
_space_group_symop_operation_xyz
x,y,z
-x,-y,z
x,-y,-z
-x,y,-z
-x,-y,-z
x,y,-z
-x,y,z
x,-y,z
x,1/2+y,1/2+z
-x,1/2-y,1/2+z
x,1/2-y,1/2-z
-x,1/2+y,1/2-z
-x,1/2-y,1/2-z
x,1/2+y,1/2-z
-x,1/2+y,1/2+z
x,1/2-y,1/2+z
1/2+x,y,1/2+z
1/2-x,-y,1/2+z
1/2+x,-y,1/2-z
1/2-x,y,1/2-z
1/2-x,-y,1/2-z
1/2+x,y,1/2-z
1/2-x,y,1/2+z
1/2+x,-y,1/2+z
1/2+x,1/2+y,z
1/2-x,1/2-y,z
1/2+x,1/2-y,-z
1/2-x,1/2+y,-z
1/2-x,1/2-y,-z
1/2+x,1/2+y,-z
1/2-x,1/2+y,z
1/2+x,1/2-y,z
loop_
_atom_site_type_symbol
_atom_site_label
_atom_site_fract_x
_atom_site_fract_y
_atom_site_fract_z
Si Si1 0.919698 0.761476 0.449725
Si Si2 0.423322 0.086842 0.572206
Si Si3 0.115865 0.362979 0.667882
Si Si4 0.000000 0.591238 0.169497
Si Si5 0.632604 0.181885 0.140122
Si Si6 0.500000 0.656178 0.763724
Si Si7 0.743074 0.909132 0.199042
O O1 0.909905 0.797604 0.500000
O O2 0.892959 0.667835 0.450481
O O3 0.871710 0.811588 0.414983
O O4 0.000000 0.764833 0.435541
O O5 0.500000 0.080539 0.556222
O O6 0.421172 0.096620 0.625938
O O7 0.388050 0.000000 0.558613
O O8 0.134152 0.270489 0.659942
O O9 0.183033 0.412872 0.677830
O O10 0.067269 0.366784 0.710225
O O11 0.065619 0.635612 0.152415
O O12 0.000000 0.500000 0.151592
O O13 0.000000 0.594205 0.222930
O O14 0.696858 0.138510 0.162788
O O15 0.500000 0.750000 0.750000
O O16 0.750000 0.870919 0.250000
O O17 0.713821 0.000000 0.203186
#
# Coordination Sequence:
#
# PCOD8285544 Si02
#       7
#    32  32  32  16  32  16  32
#     4   9  18  34  60  91 119 154 205 261 316 378
#     4   9  17  30  51  82 119 154 190 240 306 371
#     4  11  21  36  58  82 115 157 203 244 299 363
#     4  12  24  36  57  85 115 157 201 249 305 352
#     4  11  21  39  60  84 119 161 202 251 308 367
#     4  12  22  36  58  88 119 156 202 255 290 360
#     4  11  25  40  55  82 119 160 208 256 307 368
#
# _framework density 19.816642000000002
#
# number of rings (size 3 to 8) (size 9 to 14) (size 15 to 20)
#    0.000    1.500    3.333    2.500    0.000    3.667 
#    0.000    1.667    0.000   10.500    0.000    0.000 
#    0.000    0.000    0.000    0.000    0.000    0.000 
#
# Total GULP energy -594680.550431 kJ/mol
# GULP energy per Si atom -12389.178134 kJ/mol
# Density = 1.977154 g / cm^3
# Si number density = 19.816642 Si / 1000 Ang^3
#
#
#
# Elastic Constant Matrix: (Units=GPa)
#
#
# Indices 1 2 3 4 5 6 
#
# 1 87.0067 21.4354 40.3230 0.0000 0.0000 0.0000
# 2 21.4354 53.3211 35.1683 0.0000 0.0000 0.0000
# 3 40.3230 35.1683 136.5749 0.0000 0.0000 0.0000
# 4 0.0000 0.0000 0.0000 13.6985 0.0000 0.0000
# 5 0.0000 0.0000 0.0000 0.0000 21.7597 0.0000
# 6 0.0000 0.0000 0.0000 0.0000 0.0000 35.9192
#
#
#
# Elastic Compliance Matrix: (Units=1/GPa)
#
#
# Indices 1 2 3 4 5 6 
#
# 1 0.013823 -0.003451 -0.003192 0.000000 0.000000 0.000000
# 2 -0.003451 0.023453 -0.005020 0.000000 0.000000 0.000000
# 3 -0.003192 -0.005020 0.009557 0.000000 0.000000 0.000000
# 4 0.000000 0.000000 0.000000 0.073000 0.000000 0.000000
# 5 0.000000 0.000000 0.000000 0.000000 0.045957 0.000000
# 6 0.000000 0.000000 0.000000 0.000000 0.000000 0.027840
#
#
# Mechanical properties :
#
#
# Convention : Reuss Voigt Hill
#
# Bulk Modulus (GPa) = 42.54362 52.30621 47.42492
# Shear Modulus (GPa) = 22.24262 26.27389 24.25826
#
# Velocity S-wave (km/s) = 3.35389 3.64517 3.50256
# Velocity P-wave (km/s) = 6.04263 6.64596 6.35146
#
# Compressibility (1/GPa) = 0.02350529
#
# Stress axis : x y z
#
# Youngs Moduli (GPa) = 72.34206 42.63873 104.63255
#
# Poissons Ratio (x) = 0.14716 0.33404
# Poissons Ratio (y) = 0.24968 0.52527
# Poissons Ratio (z) = 0.23095 0.21405
#
# Static dielectric constant tensor:
#      x y z
#    x 3.110250 0.000000 0.000000 
#    y 0.000000 4.443970 0.000000 
#    z 0.000000 0.000000 3.389510 
# 
# 
# High freq. dielectric constant tensor:
#      x y z
#    x 1.744380 0.000000 0.000000 
#    y 0.000000 1.774380 0.000000 
#    z 0.000000 0.000000 1.774080 
# 
# From -- ./inp_files/27775.got.cif
#   From: 2010.03.12/outbox.cif.g09.slc.cpg/sg69_14_cif.got.tgz:27775.got - 2010.04.10 23:52:46.
