data_PCOD8285517
_publ_section_title
;
Structure prediction by ZEFSAII (Michael W. Deem and Ramdas Pophale) SiO2 
 PCOD8285517
Probable space group: F M M M
;
_chemical_formula_sum "Si O2"
_cell_formula_units_Z 144
_cell_length_a 15.344999
_cell_length_b 29.144513
_cell_length_c 18.374751
_cell_angle_alpha 90.000000
_cell_angle_beta 90.000000
_cell_angle_gamma 90.000000
_cell_volume 8217.602499
_symmetry_space_group_name_H-M "F M M M"
_symmetry_group_IT_number 69
_symmetry_cell_setting 'orthorhombic'
loop_
_space_group_symop_operation_xyz
x,y,z
-x,-y,z
x,-y,-z
-x,y,-z
-x,-y,-z
x,y,-z
-x,y,z
x,-y,z
x,1/2+y,1/2+z
-x,1/2-y,1/2+z
x,1/2-y,1/2-z
-x,1/2+y,1/2-z
-x,1/2-y,1/2-z
x,1/2+y,1/2-z
-x,1/2+y,1/2+z
x,1/2-y,1/2+z
1/2+x,y,1/2+z
1/2-x,-y,1/2+z
1/2+x,-y,1/2-z
1/2-x,y,1/2-z
1/2-x,-y,1/2-z
1/2+x,y,1/2-z
1/2-x,y,1/2+z
1/2+x,-y,1/2+z
1/2+x,1/2+y,z
1/2-x,1/2-y,z
1/2+x,1/2-y,-z
1/2-x,1/2+y,-z
1/2-x,1/2-y,-z
1/2+x,1/2+y,-z
1/2-x,1/2+y,z
1/2+x,1/2-y,z
loop_
_atom_site_type_symbol
_atom_site_label
_atom_site_fract_x
_atom_site_fract_y
_atom_site_fract_z
Si Si1 0.252895 0.354834 0.585665
Si Si2 0.185863 0.449493 0.586538
Si Si3 0.500000 0.053741 0.578427
Si Si4 0.099822 0.197362 0.836947
Si Si5 0.599205 0.803561 0.831260
O O1 0.257637 0.347382 0.500000
O O2 0.252765 0.409085 0.607065
O O3 0.164804 0.331104 0.613175
O O4 0.339193 0.334790 0.620562
O O5 0.173818 0.452274 0.500000
O O6 0.216855 0.500000 0.615457
O O7 0.090714 0.434925 0.620481
O O8 0.500000 0.079484 0.500000
O O9 0.500000 0.000000 0.564365
O O10 0.121342 0.187799 0.752878
O O11 0.114656 0.250916 0.852855
O O12 0.000000 0.183397 0.855057
O O13 0.500000 0.817652 0.847806
#
# Coordination Sequence:
#
# PCOD8285517 Si02
#       5
#    32  32  16  32  32
#     4  11  21  29  48  80 105 125 155 204 258 294
#     4   8  15  27  42  64  97 132 161 191 237 298
#     4   7  10  20  38  56  82 123 156 180 221 282
#     4   9  19  35  54  72  94 130 170 203 237 290
#     4   9  19  37  54  67  92 136 179 200 225 285
#
# _framework density 17.52336
#
# number of rings (size 3 to 8) (size 9 to 14) (size 15 to 20)
#    0.000    3.000    0.000    4.000    1.556    4.444 
#    0.000    2.222    0.000    3.333    0.000    6.222 
#    0.000    0.000    0.000    0.000    0.000    0.000 
#
# Total GULP energy -446014.077601 kJ/mol
# GULP energy per Si atom -12389.279933 kJ/mol
# Density = 1.748348 g / cm^3
# Si number density = 17.523360 Si / 1000 Ang^3
#
#
#
# Elastic Constant Matrix: (Units=GPa)
#
#
# Indices 1 2 3 4 5 6 
#
# 1 108.5047 76.7276 51.2899 0.0000 0.0000 0.0000
# 2 76.7276 114.3111 50.9634 0.0000 0.0000 0.0000
# 3 51.2899 50.9634 57.4197 0.0000 0.0000 0.0000
# 4 0.0000 0.0000 0.0000 -8.4777 0.0000 0.0000
# 5 0.0000 0.0000 0.0000 0.0000 18.1370 0.0000
# 6 0.0000 0.0000 0.0000 0.0000 0.0000 25.2200
#
#
#
# Elastic Compliance Matrix: (Units=1/GPa)
#
#
# Indices 1 2 3 4 5 6 
#
# 1 0.020579 -0.009296 -0.010131 0.000000 0.000000 0.000000
# 2 -0.009296 0.018676 -0.008272 0.000000 0.000000 0.000000
# 3 -0.010131 -0.008272 0.033807 0.000000 0.000000 0.000000
# 4 0.000000 0.000000 0.000000 -0.117957 0.000000 0.000000
# 5 0.000000 0.000000 0.000000 0.000000 0.055136 0.000000
# 6 0.000000 0.000000 0.000000 0.000000 0.000000 0.039651
#
#
# Mechanical properties :
#
#
# Convention : Reuss Voigt Hill
#
# Bulk Modulus (GPa) = 56.61521 70.91080 63.76300
# Shear Modulus (GPa) = 44.97299 13.72617 29.34958
#
# Velocity S-wave (km/s) = 5.07152 2.80180 4.09697
# Velocity P-wave (km/s) = 8.16531 7.14290 7.67116
#
# Compressibility (1/GPa) = 0.01766310
#
# Stress axis : x y z
#
# Youngs Moduli (GPa) = 48.59398 53.54551 29.57956
#
# Poissons Ratio (x) = 0.49776 0.29967
# Poissons Ratio (y) = 0.45173 0.24469
# Poissons Ratio (z) = 0.49231 0.44294
#
# Static dielectric constant tensor:
#      x y z
#    x 3.358960 0.000000 0.000000 
#    y 0.000000 3.366690 0.000000 
#    z 0.000000 0.000000 2.891030 
# 
# 
# High freq. dielectric constant tensor:
#      x y z
#    x 1.676290 0.000000 0.000000 
#    y 0.000000 1.677190 0.000000 
#    z 0.000000 0.000000 1.637880 
# 
# From -- ./inp_files/15539.got.cif
#   From: 2010.03.12/outbox.cif.g09.slc.cpg/sg69_8_cif.got.tgz:15539.got - 2010.04.10 23:52:46.
