data_PCOD8285160
_publ_section_title
;
Structure prediction by ZEFSAII (Michael W. Deem and Ramdas Pophale) SiO2 
 PCOD8285160
Probable space group: F M M M
;
_chemical_formula_sum "Si O2"
_cell_formula_units_Z 160
_cell_length_a 14.348112
_cell_length_b 20.350762
_cell_length_c 27.296113
_cell_angle_alpha 90.000000
_cell_angle_beta 90.000000
_cell_angle_gamma 90.000000
_cell_volume 7970.328856
_symmetry_space_group_name_H-M "F M M M"
_symmetry_group_IT_number 69
_symmetry_cell_setting 'orthorhombic'
loop_
_space_group_symop_operation_xyz
x,y,z
-x,-y,z
x,-y,-z
-x,y,-z
-x,-y,-z
x,y,-z
-x,y,z
x,-y,z
x,1/2+y,1/2+z
-x,1/2-y,1/2+z
x,1/2-y,1/2-z
-x,1/2+y,1/2-z
-x,1/2-y,1/2-z
x,1/2+y,1/2-z
-x,1/2+y,1/2+z
x,1/2-y,1/2+z
1/2+x,y,1/2+z
1/2-x,-y,1/2+z
1/2+x,-y,1/2-z
1/2-x,y,1/2-z
1/2-x,-y,1/2-z
1/2+x,y,1/2-z
1/2-x,y,1/2+z
1/2+x,-y,1/2+z
1/2+x,1/2+y,z
1/2-x,1/2-y,z
1/2+x,1/2-y,-z
1/2-x,1/2+y,-z
1/2-x,1/2-y,-z
1/2+x,1/2+y,-z
1/2-x,1/2+y,z
1/2+x,1/2-y,z
loop_
_atom_site_type_symbol
_atom_site_label
_atom_site_fract_x
_atom_site_fract_y
_atom_site_fract_z
Si Si1 0.609238 0.690421 0.785565
Si Si2 0.818141 0.074850 0.610695
Si Si3 0.814959 0.690354 0.607631
Si Si4 0.500000 0.621801 0.558142
Si Si5 0.000000 0.272064 0.442185
Si Si6 0.891761 0.574194 0.216737
O O1 0.500000 0.690701 0.798241
O O2 0.635715 0.750000 0.750000
O O3 0.666911 0.697801 0.834828
O O4 0.640469 0.622511 0.759882
O O5 0.735083 0.122192 0.593725
O O6 0.838240 0.091373 0.667204
O O7 0.909353 0.085407 0.578161
O O8 0.784854 0.000000 0.604196
O O9 0.750000 0.750000 0.589878
O O10 0.910054 0.690391 0.577612
O O11 0.500000 0.617309 0.500000
O O12 0.500000 0.697011 0.576771
O O13 0.000000 0.275184 0.500000
O O14 0.871272 0.500000 0.234483
O O15 0.000000 0.584828 0.204857
#
# Coordination Sequence:
#
# PCOD8285160 Si02
#       6
#    32  32  32  16  16  32
#     4  10  21  35  58  88 122 164 211 256 304 358
#     4  11  23  39  64  98 133 168 207 257 319 376
#     4  12  24  41  66  94 127 164 211 261 312 378
#     4  11  23  42  70  97 125 159 206 273 333 376
#     4  11  26  47  69  94 123 163 211 263 325 381
#     4   9  18  34  57  86 127 171 207 248 302 365
#
# _framework density 20.074455
#
# number of rings (size 3 to 8) (size 9 to 14) (size 15 to 20)
#    0.000    1.400    4.000    1.500    0.000    5.600 
#    0.000    2.500    0.000    0.600    0.000    0.000 
#    0.000    0.000    0.000    0.000    0.000    0.000 
#
# Total GULP energy -496245.928893 kJ/mol
# GULP energy per Si atom -12406.148222 kJ/mol
# Density = 2.002876 g / cm^3
# Si number density = 20.074455 Si / 1000 Ang^3
#
#
#
# Elastic Constant Matrix: (Units=GPa)
#
#
# Indices 1 2 3 4 5 6 
#
# 1 109.6858 54.4087 37.5455 0.0000 0.0000 0.0000
# 2 54.4087 130.4203 38.2741 0.0000 0.0000 0.0000
# 3 37.5455 38.2741 65.0076 0.0000 0.0000 0.0000
# 4 0.0000 0.0000 0.0000 26.8494 0.0000 0.0000
# 5 0.0000 0.0000 0.0000 0.0000 -2.5073 0.0000
# 6 0.0000 0.0000 0.0000 0.0000 0.0000 -116.1059
#
#
#
# Elastic Compliance Matrix: (Units=1/GPa)
#
#
# Indices 1 2 3 4 5 6 
#
# 1 0.012767 -0.003823 -0.005123 0.000000 0.000000 0.000000
# 2 -0.003823 0.010414 -0.003923 0.000000 0.000000 0.000000
# 3 -0.005123 -0.003923 0.020652 0.000000 0.000000 0.000000
# 4 0.000000 0.000000 0.000000 0.037245 0.000000 0.000000
# 5 0.000000 0.000000 0.000000 0.000000 -0.398836 0.000000
# 6 0.000000 0.000000 0.000000 0.000000 0.000000 -0.008613
#
#
# Mechanical properties :
#
#
# Convention : Reuss Voigt Hill
#
# Bulk Modulus (GPa) = 55.26665 62.84115 59.05390
# Shear Modulus (GPa) = -16.97198 -6.69374 -11.83286
#
# Velocity S-wave (km/s) = -2.91082 -1.82803 -2.43049
# Velocity P-wave (km/s) = 4.03651 5.18810 4.64811
#
# Compressibility (1/GPa) = 0.01809409
#
# Stress axis : x y z
#
# Youngs Moduli (GPa) = 78.32894 96.02807 48.42261
#
# Poissons Ratio (x) = 0.36708 0.24806
# Poissons Ratio (y) = 0.29942 0.18998
# Poissons Ratio (z) = 0.40127 0.37676
#
# Static dielectric constant tensor:
#      x y z
#    x 3.594620 0.000000 0.000000 
#    y 0.000000 3.826040 0.000000 
#    z 0.000000 0.000000 3.483980 
# 
# 
# High freq. dielectric constant tensor:
#      x y z
#    x 1.787340 0.000000 0.000000 
#    y 0.000000 1.789740 0.000000 
#    z 0.000000 0.000000 1.772090 
# 
# From -- ./inp_files/45685.got.cif
#   From: 2010.03.12/outbox.cif.g09.slc.cpg/sg69_23_cif.got.tgz:45685.got - 2010.04.10 23:52:46.
