data_PCOD8285125
_publ_section_title
;
Structure prediction by ZEFSAII (Michael W. Deem and Ramdas Pophale) SiO2 
 PCOD8285125
Probable space group: F M M M
;
_chemical_formula_sum "Si O2"
_cell_formula_units_Z 176
_cell_length_a 34.262655
_cell_length_b 18.695032
_cell_length_c 15.057669
_cell_angle_alpha 90.000000
_cell_angle_beta 90.000000
_cell_angle_gamma 90.000000
_cell_volume 9645.060858
_symmetry_space_group_name_H-M "F M M M"
_symmetry_group_IT_number 69
_symmetry_cell_setting 'orthorhombic'
loop_
_space_group_symop_operation_xyz
x,y,z
-x,-y,z
x,-y,-z
-x,y,-z
-x,-y,-z
x,y,-z
-x,y,z
x,-y,z
x,1/2+y,1/2+z
-x,1/2-y,1/2+z
x,1/2-y,1/2-z
-x,1/2+y,1/2-z
-x,1/2-y,1/2-z
x,1/2+y,1/2-z
-x,1/2+y,1/2+z
x,1/2-y,1/2+z
1/2+x,y,1/2+z
1/2-x,-y,1/2+z
1/2+x,-y,1/2-z
1/2-x,y,1/2-z
1/2-x,-y,1/2-z
1/2+x,y,1/2-z
1/2-x,y,1/2+z
1/2+x,-y,1/2+z
1/2+x,1/2+y,z
1/2-x,1/2-y,z
1/2+x,1/2-y,-z
1/2-x,1/2+y,-z
1/2-x,1/2-y,-z
1/2+x,1/2+y,-z
1/2-x,1/2+y,z
1/2+x,1/2-y,z
loop_
_atom_site_type_symbol
_atom_site_label
_atom_site_fract_x
_atom_site_fract_y
_atom_site_fract_z
Si Si1 0.544230 0.585272 0.691811
Si Si2 0.454280 0.077200 0.000000
Si Si3 0.614050 0.832717 0.252387
Si Si4 0.249950 0.919578 0.105268
Si Si5 0.676144 0.669178 0.897983
Si Si6 0.174357 0.664986 0.897814
O O1 0.500000 0.606825 0.718142
O O2 0.548730 0.500000 0.693313
O O3 0.555527 0.616689 0.593046
O O4 0.574365 0.621466 0.759600
O O5 0.500000 0.062507 0.000000
O O6 0.432885 0.000000 0.000000
O O7 0.602446 0.750000 0.250000
O O8 0.638626 0.851394 0.340060
O O9 0.637721 0.854158 0.163721
O O10 0.212674 0.875544 0.139886
O O11 0.289469 0.881710 0.137402
O O12 0.248418 0.000000 0.143809
O O13 0.249227 0.919842 0.000000
O O14 0.686629 0.752462 0.887236
O O15 0.666713 0.649835 0.000000
O O16 0.163307 0.647162 0.000000
#
# Coordination Sequence:
#
# PCOD8285125 Si02
#       6
#    32  16  32  32  32  32
#     4   9  18  33  53  76 103 133 162 196 247 309
#     4   7  12  26  48  74 100 126 154 181 227 305
#     4  10  21  33  49  76 100 129 169 208 247 293
#     4   9  17  30  49  72  96 126 166 208 249 293
#     4   9  18  34  51  66  94 135 172 205 242 288
#     4   9  18  32  49  70  99 130 160 199 252 304
#
# _framework density 18.247681
#
# number of rings (size 3 to 8) (size 9 to 14) (size 15 to 20)
#    0.000    3.000    0.000    1.636    1.273    4.727 
#    0.000    3.636    0.000    0.545    0.000    1.273 
#    0.000    0.000    0.000    0.000    0.000    0.000 
#
# Total GULP energy -545355.863456 kJ/mol
# GULP energy per Si atom -12394.451442 kJ/mol
# Density = 1.820615 g / cm^3
# Si number density = 18.247681 Si / 1000 Ang^3
#
#
#
# Elastic Constant Matrix: (Units=GPa)
#
#
# Indices 1 2 3 4 5 6 
#
# 1 134.9559 63.5287 45.6794 0.0000 0.0000 0.0000
# 2 63.5287 71.2176 26.6103 0.0000 0.0000 0.0000
# 3 45.6794 26.6103 64.9764 0.0000 0.0000 0.0000
# 4 0.0000 0.0000 0.0000 8.6954 0.0000 0.0000
# 5 0.0000 0.0000 0.0000 0.0000 19.4529 0.0000
# 6 0.0000 0.0000 0.0000 0.0000 0.0000 33.2918
#
#
#
# Elastic Compliance Matrix: (Units=1/GPa)
#
#
# Indices 1 2 3 4 5 6 
#
# 1 0.014381 -0.010686 -0.005734 0.000000 0.000000 0.000000
# 2 -0.010686 0.024519 -0.002529 0.000000 0.000000 0.000000
# 3 -0.005734 -0.002529 0.020457 0.000000 0.000000 0.000000
# 4 0.000000 0.000000 0.000000 0.115003 0.000000 0.000000
# 5 0.000000 0.000000 0.000000 0.000000 0.051406 0.000000
# 6 0.000000 0.000000 0.000000 0.000000 0.000000 0.030037
#
#
# Mechanical properties :
#
#
# Convention : Reuss Voigt Hill
#
# Bulk Modulus (GPa) = 46.60010 60.30961 53.45486
# Shear Modulus (GPa) = 16.61945 21.31013 18.96479
#
# Velocity S-wave (km/s) = 3.02117 3.42106 3.22731
# Velocity P-wave (km/s) = 6.14516 6.98048 6.57610
#
# Compressibility (1/GPa) = 0.02145918
#
# Stress axis : x y z
#
# Youngs Moduli (GPa) = 69.53771 40.78551 48.88364
#
# Poissons Ratio (x) = 0.43582 0.28028
# Poissons Ratio (y) = 0.74306 0.12363
# Poissons Ratio (z) = 0.39870 0.10315
#
# Static dielectric constant tensor:
#      x y z
#    x 3.222330 0.000000 0.000000 
#    y 0.000000 3.272530 0.000000 
#    z 0.000000 0.000000 3.402740 
# 
# 
# High freq. dielectric constant tensor:
#      x y z
#    x 1.698050 0.000000 0.000000 
#    y 0.000000 1.689990 0.000000 
#    z 0.000000 0.000000 1.696680 
# 
# From -- ./inp_files/27677.got.cif
#   From: 2010.03.12/outbox.cif.g09.slc.cpg/sg69_14_cif.got.tgz:27677.got - 2010.04.10 23:52:46.
