data_PCOD8285151
_publ_section_title
;
Structure prediction by ZEFSAII (Michael W. Deem and Ramdas Pophale) SiO2 
 PCOD8285151
Probable space group: F M M M
;
_chemical_formula_sum "Si O2"
_cell_formula_units_Z 160
_cell_length_a 22.530771
_cell_length_b 14.585612
_cell_length_c 25.795695
_cell_angle_alpha 90.000000
_cell_angle_beta 90.000000
_cell_angle_gamma 90.000000
_cell_volume 8477.112433
_symmetry_space_group_name_H-M "F M M M"
_symmetry_group_IT_number 69
_symmetry_cell_setting 'orthorhombic'
loop_
_space_group_symop_operation_xyz
x,y,z
-x,-y,z
x,-y,-z
-x,y,-z
-x,-y,-z
x,y,-z
-x,y,z
x,-y,z
x,1/2+y,1/2+z
-x,1/2-y,1/2+z
x,1/2-y,1/2-z
-x,1/2+y,1/2-z
-x,1/2-y,1/2-z
x,1/2+y,1/2-z
-x,1/2+y,1/2+z
x,1/2-y,1/2+z
1/2+x,y,1/2+z
1/2-x,-y,1/2+z
1/2+x,-y,1/2-z
1/2-x,y,1/2-z
1/2-x,-y,1/2-z
1/2+x,y,1/2-z
1/2-x,y,1/2+z
1/2+x,-y,1/2+z
1/2+x,1/2+y,z
1/2-x,1/2-y,z
1/2+x,1/2-y,-z
1/2-x,1/2+y,-z
1/2-x,1/2-y,-z
1/2+x,1/2+y,-z
1/2-x,1/2+y,z
1/2+x,1/2-y,z
loop_
_atom_site_type_symbol
_atom_site_label
_atom_site_fract_x
_atom_site_fract_y
_atom_site_fract_z
Si Si1 0.351012 0.605163 0.559436
Si Si2 0.930571 0.777044 0.630420
Si Si3 0.870484 0.104319 0.286176
Si Si4 0.368833 0.601550 0.832577
Si Si5 0.239130 0.643572 0.145267
O O1 0.339698 0.631114 0.500000
O O2 0.371891 0.500000 0.565743
O O3 0.402248 0.670455 0.581745
O O4 0.289623 0.620882 0.589745
O O5 0.916013 0.831217 0.683108
O O6 0.904601 0.674040 0.632771
O O7 0.000000 0.770689 0.621603
O O8 0.870210 0.135925 0.226736
O O9 0.804225 0.111586 0.308826
O O10 0.892742 0.000000 0.291474
O O11 0.397546 0.500000 0.838307
O O12 0.301130 0.591729 0.851094
O O13 0.250000 0.750000 0.151596
#
# Coordination Sequence:
#
# PCOD8285151 Si02
#       5
#    32  32  32  32  32
#     4  10  22  41  64  89 113 138 178 236 300 356
#     4  11  23  39  57  81 113 150 194 242 283 325
#     4  10  21  35  55  84 116 152 192 233 278 333
#     4  11  22  36  55  82 118 159 193 223 271 332
#     4  11  19  34  59  87 117 149 184 227 285 341
#
# _framework density 18.874351000000001
#
# number of rings (size 3 to 8) (size 9 to 14) (size 15 to 20)
#    0.000    1.400    4.000    4.800    0.000    6.800 
#    0.000    3.000    0.000    0.600    0.000    1.400 
#    0.000    0.000    0.000    0.000    0.000    0.000 
#
# Total GULP energy -496071.721584 kJ/mol
# GULP energy per Si atom -12401.793040 kJ/mol
# Density = 1.883139 g / cm^3
# Si number density = 18.874351 Si / 1000 Ang^3
#
#
#
# Elastic Constant Matrix: (Units=GPa)
#
#
# Indices 1 2 3 4 5 6 
#
# 1 58.4404 10.5835 14.9340 0.0000 0.0000 0.0000
# 2 10.5835 101.6518 22.5971 0.0000 0.0000 0.0000
# 3 14.9340 22.5971 76.8863 0.0000 0.0000 0.0000
# 4 0.0000 0.0000 0.0000 27.4859 0.0000 0.0000
# 5 0.0000 0.0000 0.0000 0.0000 11.2253 0.0000
# 6 0.0000 0.0000 0.0000 0.0000 0.0000 8.8048
#
#
#
# Elastic Compliance Matrix: (Units=1/GPa)
#
#
# Indices 1 2 3 4 5 6 
#
# 1 0.018137 -0.001182 -0.003175 0.000000 0.000000 0.000000
# 2 -0.001182 0.010602 -0.002886 0.000000 0.000000 0.000000
# 3 -0.003175 -0.002886 0.014471 0.000000 0.000000 0.000000
# 4 0.000000 0.000000 0.000000 0.036382 0.000000 0.000000
# 5 0.000000 0.000000 0.000000 0.000000 0.089084 0.000000
# 6 0.000000 0.000000 0.000000 0.000000 0.000000 0.113575
#
#
# Mechanical properties :
#
#
# Convention : Reuss Voigt Hill
#
# Bulk Modulus (GPa) = 34.81616 37.02306 35.91961
# Shear Modulus (GPa) = 16.32310 22.09413 19.20862
#
# Velocity S-wave (km/s) = 2.94399 3.42510 3.19362
# Velocity P-wave (km/s) = 5.48110 5.94137 5.71587
#
# Compressibility (1/GPa) = 0.02872229
#
# Stress axis : x y z
#
# Youngs Moduli (GPa) = 55.13588 94.31965 69.10238
#
# Poissons Ratio (x) = 0.11153 0.21942
# Poissons Ratio (y) = 0.06520 0.19945
# Poissons Ratio (z) = 0.17507 0.27224
#
# Static dielectric constant tensor:
#      x y z
#    x 3.365620 0.000000 0.000000 
#    y 0.000000 3.069770 0.000000 
#    z 0.000000 0.000000 3.488170 
# 
# 
# High freq. dielectric constant tensor:
#      x y z
#    x 1.714330 0.000000 0.000000 
#    y 0.000000 1.755600 0.000000 
#    z 0.000000 0.000000 1.717190 
# 
# From -- ./inp_files/17703.got.cif
#   From: 2010.03.12/outbox.cif.g09.slc.cpg/sg69_9_cif.got.tgz:17703.got - 2010.04.10 23:52:46.
