data_PCOD8285388
_publ_section_title
;
Structure prediction by ZEFSAII (Michael W. Deem and Ramdas Pophale) SiO2 
 PCOD8285388
Probable space group: F M M M
;
_chemical_formula_sum "Si O2"
_cell_formula_units_Z 104
_cell_length_a 9.034991
_cell_length_b 18.788504
_cell_length_c 28.057221
_cell_angle_alpha 90.000000
_cell_angle_beta 90.000000
_cell_angle_gamma 90.000000
_cell_volume 4762.824499
_symmetry_space_group_name_H-M "F M M M"
_symmetry_group_IT_number 69
_symmetry_cell_setting 'orthorhombic'
loop_
_space_group_symop_operation_xyz
x,y,z
-x,-y,z
x,-y,-z
-x,y,-z
-x,-y,-z
x,y,-z
-x,y,z
x,-y,z
x,1/2+y,1/2+z
-x,1/2-y,1/2+z
x,1/2-y,1/2-z
-x,1/2+y,1/2-z
-x,1/2-y,1/2-z
x,1/2+y,1/2-z
-x,1/2+y,1/2+z
x,1/2-y,1/2+z
1/2+x,y,1/2+z
1/2-x,-y,1/2+z
1/2+x,-y,1/2-z
1/2-x,y,1/2-z
1/2-x,-y,1/2-z
1/2+x,y,1/2-z
1/2-x,y,1/2+z
1/2+x,-y,1/2+z
1/2+x,1/2+y,z
1/2-x,1/2-y,z
1/2+x,1/2-y,-z
1/2-x,1/2+y,-z
1/2-x,1/2-y,-z
1/2+x,1/2+y,-z
1/2-x,1/2+y,z
1/2+x,1/2-y,z
loop_
_atom_site_type_symbol
_atom_site_label
_atom_site_fract_x
_atom_site_fract_y
_atom_site_fract_z
Si Si1 0.170521 0.500000 0.200941
Si Si2 0.834911 0.152624 0.333979
Si Si3 0.828551 0.083988 0.500000
Si Si4 0.675393 0.319653 0.927101
Si Si5 0.750000 0.750000 0.750000
O O1 0.250000 0.500000 0.250000
O O2 0.214278 0.570937 0.172675
O O3 0.000000 0.500000 0.213345
O O4 0.714328 0.182183 0.370900
O O5 0.841490 0.197394 0.284653
O O6 0.000000 0.156205 0.356312
O O7 0.746380 0.112216 0.547268
O O8 0.000000 0.107344 0.500000
O O9 0.812605 0.000000 0.500000
O O10 0.500000 0.318663 0.934403
O O11 0.750000 0.250000 0.950870
#
# Coordination Sequence:
#
# PCOD8285388 Si02
#       5
#    16  32  16  32   8
#     4  10  22  40  60  87 128 175 222 274 333 401
#     4  11  24  41  64  97 135 178 227 278 337 400
#     4  11  26  49  76 103 137 179 224 279 342 405
#     4  12  26  45  71 102 137 177 225 280 338 406
#     4  12  22  38  72  96 138 174 230 288 334 404
#
# _framework density 21.835782999999999
#
# number of rings (size 3 to 8) (size 9 to 14) (size 15 to 20)
#    0.000    0.769    3.077    4.154    2.154    3.692 
#    0.000    0.000    0.000    0.000    0.000    0.000 
#    0.000    0.000    0.000    0.000    0.000    0.000 
#
# Total GULP energy -322356.816300 kJ/mol
# GULP energy per Si atom -12398.339088 kJ/mol
# Density = 2.178608 g / cm^3
# Si number density = 21.835783 Si / 1000 Ang^3
#
#
#
# Elastic Constant Matrix: (Units=GPa)
#
#
# Indices 1 2 3 4 5 6 
#
# 1 157.7496 60.0715 48.3346 0.0000 0.0000 0.0000
# 2 60.0715 145.8373 36.6198 0.0000 0.0000 0.0000
# 3 48.3346 36.6198 110.9895 0.0000 0.0000 0.0000
# 4 0.0000 0.0000 0.0000 19.4780 0.0000 0.0000
# 5 0.0000 0.0000 0.0000 0.0000 34.2919 0.0000
# 6 0.0000 0.0000 0.0000 0.0000 0.0000 30.9009
#
#
#
# Elastic Compliance Matrix: (Units=1/GPa)
#
#
# Indices 1 2 3 4 5 6 
#
# 1 0.008187 -0.002701 -0.002674 0.000000 0.000000 0.000000
# 2 -0.002701 0.008367 -0.001585 0.000000 0.000000 0.000000
# 3 -0.002674 -0.001585 0.010697 0.000000 0.000000 0.000000
# 4 0.000000 0.000000 0.000000 0.051340 0.000000 0.000000
# 5 0.000000 0.000000 0.000000 0.000000 0.029161 0.000000
# 6 0.000000 0.000000 0.000000 0.000000 0.000000 0.032361
#
#
# Mechanical properties :
#
#
# Convention : Reuss Voigt Hill
#
# Bulk Modulus (GPa) = 75.00508 78.29202 76.64855
# Shear Modulus (GPa) = 31.55019 34.90421 33.22720
#
# Velocity S-wave (km/s) = 3.80529 4.00245 3.90511
# Velocity P-wave (km/s) = 7.33015 7.56916 7.45061
#
# Compressibility (1/GPa) = 0.01333243
#
# Stress axis : x y z
#
# Youngs Moduli (GPa) = 122.14445 119.51265 93.48177
#
# Poissons Ratio (x) = 0.32278 0.24999
# Poissons Ratio (y) = 0.32989 0.14813
# Poissons Ratio (z) = 0.32665 0.18937
#
# Static dielectric constant tensor:
#      x y z
#    x 3.729770 0.000000 0.000000 
#    y 0.000000 4.559880 0.000000 
#    z 0.000000 0.000000 3.749670 
# 
# 
# High freq. dielectric constant tensor:
#      x y z
#    x 1.854150 0.000000 0.000000 
#    y 0.000000 1.881280 0.000000 
#    z 0.000000 0.000000 1.857800 
# 
# From -- ./inp_files/39402.got.cif
#   From: 2010.03.12/outbox.cif.g09.slc.cpg/sg69_20_cif.got.tgz:39402.got - 2010.04.10 23:52:46.
