data_PCOD8285912
_publ_section_title
;
Structure prediction by ZEFSAII (Michael W. Deem and Ramdas Pophale) SiO2 
 PCOD8285912
Probable space group: F D D D
;
_chemical_formula_sum "Si O2"
_cell_formula_units_Z 96
_cell_length_a 14.813749
_cell_length_b 24.176368
_cell_length_c 10.967151
_cell_angle_alpha 90.000000
_cell_angle_beta 90.000000
_cell_angle_gamma 90.000000
_cell_volume 3927.804492
_symmetry_space_group_name_H-M "F D D D"
_symmetry_group_IT_number 70
_space_group.IT_coordinate_system_code '2'
_symmetry_cell_setting 'orthorhombic'
loop_
_space_group_symop_operation_xyz
x,y,z
1/4-x,1/4-y,z
x,1/4-y,1/4-z
1/4-x,y,1/4-z
-x,-y,-z
3/4+x,3/4+y,-z
-x,3/4+y,3/4+z
3/4+x,-y,3/4+z
x,1/2+y,1/2+z
1/4-x,3/4-y,1/2+z
x,3/4-y,3/4-z
1/4-x,1/2+y,3/4-z
-x,1/2-y,1/2-z
3/4+x,1/4+y,1/2-z
-x,1/4+y,1/4+z
3/4+x,1/2-y,1/4+z
1/2+x,y,1/2+z
3/4-x,1/4-y,1/2+z
1/2+x,1/4-y,3/4-z
3/4-x,y,3/4-z
1/2-x,-y,1/2-z
1/4+x,3/4+y,1/2-z
1/2-x,3/4+y,1/4+z
1/4+x,-y,1/4+z
1/2+x,1/2+y,z
3/4-x,3/4-y,z
1/2+x,3/4-y,1/4-z
3/4-x,1/2+y,1/4-z
1/2-x,1/2-y,-z
1/4+x,1/4+y,-z
1/2-x,1/4+y,3/4+z
1/4+x,1/2-y,3/4+z
loop_
_atom_site_type_symbol
_atom_site_label
_atom_site_fract_x
_atom_site_fract_y
_atom_site_fract_z
Si Si1 0.796305 0.948329 0.463140
Si Si2 0.398087 0.716898 0.143546
Si Si3 0.444919 0.329934 0.725611
O O1 0.875000 0.926248 0.375000
O O2 0.704304 0.945714 0.385788
O O3 0.785049 0.908600 0.581740
O O4 0.820398 0.010877 0.510259
O O5 0.463249 0.668243 0.194207
O O6 0.401437 0.768470 0.240009
O O7 0.375000 0.375000 0.777030
#
# Coordination Sequence:
#
# PCOD8285912 Si02
#       3
#    32  32  32
#     4  10  19  36  65  89 129 174 208 267 346 386
#     4   9  20  37  64  89 129 174 209 270 332 383
#     4   9  20  36  63  86 128 167 226 267 314 389
#
# _framework density 24.441134000000002
#
# number of rings (size 3 to 8) (size 9 to 14) (size 15 to 20)
#    2.000    0.667    0.000    2.000    0.000    0.667 
#    0.000    6.667    7.333    0.000    0.000    0.000 
#    0.000    0.000    0.000    0.000    0.000    0.000 
#
# Total GULP energy -297379.254772 kJ/mol
# GULP energy per Si atom -12390.802282 kJ/mol
# Density = 2.438551 g / cm^3
# Si number density = 24.441134 Si / 1000 Ang^3
#
#
#
# Elastic Constant Matrix: (Units=GPa)
#
#
# Indices 1 2 3 4 5 6 
#
# 1 209.6895 41.7362 33.0329 0.0000 0.0000 0.0000
# 2 41.7362 66.1215 8.7669 0.0000 0.0000 0.0000
# 3 33.0329 8.7669 95.4131 0.0000 0.0000 0.0000
# 4 0.0000 0.0000 0.0000 16.4637 0.0000 0.0000
# 5 0.0000 0.0000 0.0000 0.0000 33.3770 0.0000
# 6 0.0000 0.0000 0.0000 0.0000 0.0000 40.0661
#
#
#
# Elastic Compliance Matrix: (Units=1/GPa)
#
#
# Indices 1 2 3 4 5 6 
#
# 1 0.005704 -0.003380 -0.001664 0.000000 0.000000 0.000000
# 2 -0.003380 0.017313 -0.000421 0.000000 0.000000 0.000000
# 3 -0.001664 -0.000421 0.011096 0.000000 0.000000 0.000000
# 4 0.000000 0.000000 0.000000 0.060740 0.000000 0.000000
# 5 0.000000 0.000000 0.000000 0.000000 0.029961 0.000000
# 6 0.000000 0.000000 0.000000 0.000000 0.000000 0.024959
#
#
# Mechanical properties :
#
#
# Convention : Reuss Voigt Hill
#
# Bulk Modulus (GPa) = 43.13496 59.81069 51.47282
# Shear Modulus (GPa) = 29.68630 37.16057 33.42343
#
# Velocity S-wave (km/s) = 3.48890 3.90347 3.70199
# Velocity P-wave (km/s) = 5.82380 6.69631 6.27524
#
# Compressibility (1/GPa) = 0.02318305
#
# Stress axis : x y z
#
# Youngs Moduli (GPa) = 175.32200 57.76112 90.12617
#
# Poissons Ratio (x) = 0.19521 0.14999
# Poissons Ratio (y) = 0.59252 0.03792
# Poissons Ratio (z) = 0.29177 0.02430
#
# Static dielectric constant tensor:
#      x y z
#    x 4.068870 0.000000 0.000000 
#    y 0.000000 3.768770 0.000000 
#    z 0.000000 0.000000 4.002500 
# 
# 
# High freq. dielectric constant tensor:
#      x y z
#    x 1.966650 0.000000 0.000000 
#    y 0.000000 1.930640 0.000000 
#    z 0.000000 0.000000 1.960350 
# 
# From -- ./inp_files/16023.got.cif
#   From: 2010.03.12/outbox.cif.g09.slc.cpg/sg70_9_cif.got.tgz:16023.got - 2010.04.16 13:46:32.
