data_PCOD8285446
_publ_section_title
;
Structure prediction by ZEFSAII (Michael W. Deem and Ramdas Pophale) SiO2 
 PCOD8285446
Probable space group: F M M M
;
_chemical_formula_sum "Si O2"
_cell_formula_units_Z 128
_cell_length_a 13.150601
_cell_length_b 21.829720
_cell_length_c 20.169307
_cell_angle_alpha 90.000000
_cell_angle_beta 90.000000
_cell_angle_gamma 90.000000
_cell_volume 5790.082380
_symmetry_space_group_name_H-M "F M M M"
_symmetry_group_IT_number 69
_symmetry_cell_setting 'orthorhombic'
loop_
_space_group_symop_operation_xyz
x,y,z
-x,-y,z
x,-y,-z
-x,y,-z
-x,-y,-z
x,y,-z
-x,y,z
x,-y,z
x,1/2+y,1/2+z
-x,1/2-y,1/2+z
x,1/2-y,1/2-z
-x,1/2+y,1/2-z
-x,1/2-y,1/2-z
x,1/2+y,1/2-z
-x,1/2+y,1/2+z
x,1/2-y,1/2+z
1/2+x,y,1/2+z
1/2-x,-y,1/2+z
1/2+x,-y,1/2-z
1/2-x,y,1/2-z
1/2-x,-y,1/2-z
1/2+x,y,1/2-z
1/2-x,y,1/2+z
1/2+x,-y,1/2+z
1/2+x,1/2+y,z
1/2-x,1/2-y,z
1/2+x,1/2-y,-z
1/2-x,1/2+y,-z
1/2-x,1/2-y,-z
1/2+x,1/2+y,-z
1/2-x,1/2+y,z
1/2+x,1/2-y,z
loop_
_atom_site_type_symbol
_atom_site_label
_atom_site_fract_x
_atom_site_fract_y
_atom_site_fract_z
Si Si1 0.385977 0.500000 0.371802
Si Si2 0.753581 0.102477 0.854052
Si Si3 0.114854 0.000000 0.213597
Si Si4 0.617306 0.206720 0.188406
Si Si5 0.383157 0.300435 0.924730
O O1 0.500000 0.500000 0.400885
O O2 0.325639 0.439585 0.395799
O O3 0.384469 0.500000 0.292308
O O4 0.688015 0.147235 0.806628
O O5 0.818631 0.139897 0.907041
O O6 0.828205 0.061089 0.810034
O O7 0.000000 0.000000 0.185745
O O8 0.500000 0.185535 0.190394
O O9 0.643135 0.250000 0.250000
O O10 0.644757 0.242568 0.121000
O O11 0.500000 0.318647 0.913388
O O12 0.361155 0.280499 0.000000
#
# Coordination Sequence:
#
# PCOD8285446 Si02
#       5
#    16  32  16  32  32
#     4  10  23  39  58  87 125 162 207 264 325 375
#     4  11  21  37  63  89 119 160 216 256 313 379
#     4  10  23  39  58  88 125 165 207 265 321 371
#     4  10  23  38  60  95 133 164 203 260 315 373
#     4  10  23  42  63  91 129 169 208 256 316 381
#
# _framework density 22.106766
#
# number of rings (size 3 to 8) (size 9 to 14) (size 15 to 20)
#    0.000    1.750    0.000    3.750    7.000    3.000 
#    0.000    2.500    0.000   10.500    0.000    0.000 
#    0.000    0.000    0.000    0.000    0.000    0.000 
#
# Total GULP energy -396880.515353 kJ/mol
# GULP energy per Si atom -12402.516105 kJ/mol
# Density = 2.205645 g / cm^3
# Si number density = 22.106766 Si / 1000 Ang^3
#
#
#
# Elastic Constant Matrix: (Units=GPa)
#
#
# Indices 1 2 3 4 5 6 
#
# 1 162.7716 90.4200 29.6046 0.0000 0.0000 0.0000
# 2 90.4200 154.1352 46.7393 0.0000 0.0000 0.0000
# 3 29.6046 46.7393 98.8890 0.0000 0.0000 0.0000
# 4 0.0000 0.0000 0.0000 21.3687 0.0000 0.0000
# 5 0.0000 0.0000 0.0000 0.0000 12.2781 0.0000
# 6 0.0000 0.0000 0.0000 0.0000 0.0000 43.8708
#
#
#
# Elastic Compliance Matrix: (Units=1/GPa)
#
#
# Indices 1 2 3 4 5 6 
#
# 1 0.009118 -0.005278 -0.000235 0.000000 0.000000 0.000000
# 2 -0.005278 0.010628 -0.003443 0.000000 0.000000 0.000000
# 3 -0.000235 -0.003443 0.011810 0.000000 0.000000 0.000000
# 4 0.000000 0.000000 0.000000 0.046797 0.000000 0.000000
# 5 0.000000 0.000000 0.000000 0.000000 0.081446 0.000000
# 6 0.000000 0.000000 0.000000 0.000000 0.000000 0.022794
#
#
# Mechanical properties :
#
#
# Convention : Reuss Voigt Hill
#
# Bulk Modulus (GPa) = 73.29242 83.25819 78.27531
# Shear Modulus (GPa) = 24.38385 32.10565 28.24475
#
# Velocity S-wave (km/s) = 3.32475 3.81504 3.57830
# Velocity P-wave (km/s) = 6.92564 7.55974 7.24962
#
# Compressibility (1/GPa) = 0.01364398
#
# Stress axis : x y z
#
# Youngs Moduli (GPa) = 109.67229 94.09195 84.67236
#
# Poissons Ratio (x) = 0.49658 0.01992
# Poissons Ratio (y) = 0.57880 0.29155
# Poissons Ratio (z) = 0.02580 0.32398
#
# Static dielectric constant tensor:
#      x y z
#    x 4.652800 0.000000 0.000000 
#    y 0.000000 4.173410 0.000000 
#    z 0.000000 0.000000 3.606790 
# 
# 
# High freq. dielectric constant tensor:
#      x y z
#    x 1.905660 0.000000 0.000000 
#    y 0.000000 1.875110 0.000000 
#    z 0.000000 0.000000 1.831890 
# 
# From -- ./inp_files/29666.got.cif
#   From: 2010.03.12/outbox.cif.g09.slc.cpg/sg69_15_cif.got.tgz:29666.got - 2010.04.10 23:52:46.
