data_PCOD8285970
_publ_section_title
;
Structure prediction by ZEFSAII (Michael W. Deem and Ramdas Pophale) SiO2 
 PCOD8285970
Probable space group: F D D D
;
_chemical_formula_sum "Si O2"
_cell_formula_units_Z 144
_cell_length_a 15.810778
_cell_length_b 33.571075
_cell_length_c 14.585740
_cell_angle_alpha 90.000000
_cell_angle_beta 90.000000
_cell_angle_gamma 90.000000
_cell_volume 7741.889294
_symmetry_space_group_name_H-M "F D D D"
_symmetry_group_IT_number 70
_space_group.IT_coordinate_system_code '2'
_symmetry_cell_setting 'orthorhombic'
loop_
_space_group_symop_operation_xyz
x,y,z
1/4-x,1/4-y,z
x,1/4-y,1/4-z
1/4-x,y,1/4-z
-x,-y,-z
3/4+x,3/4+y,-z
-x,3/4+y,3/4+z
3/4+x,-y,3/4+z
x,1/2+y,1/2+z
1/4-x,3/4-y,1/2+z
x,3/4-y,3/4-z
1/4-x,1/2+y,3/4-z
-x,1/2-y,1/2-z
3/4+x,1/4+y,1/2-z
-x,1/4+y,1/4+z
3/4+x,1/2-y,1/4+z
1/2+x,y,1/2+z
3/4-x,1/4-y,1/2+z
1/2+x,1/4-y,3/4-z
3/4-x,y,3/4-z
1/2-x,-y,1/2-z
1/4+x,3/4+y,1/2-z
1/2-x,3/4+y,1/4+z
1/4+x,-y,1/4+z
1/2+x,1/2+y,z
3/4-x,3/4-y,z
1/2+x,3/4-y,1/4-z
3/4-x,1/2+y,1/4-z
1/2-x,1/2-y,-z
1/4+x,1/4+y,-z
1/2-x,1/4+y,3/4+z
1/4+x,1/2-y,3/4+z
loop_
_atom_site_type_symbol
_atom_site_label
_atom_site_fract_x
_atom_site_fract_y
_atom_site_fract_z
Si Si1 0.807018 0.525456 0.628589
Si Si2 0.554193 0.331698 0.197048
Si Si3 0.875574 0.804941 0.571515
Si Si4 0.055546 0.922640 0.197206
Si Si5 0.875000 0.972284 0.375000
O O1 0.816016 0.555530 0.712531
O O2 0.874536 0.490237 0.639263
O O3 0.817626 0.548455 0.533806
O O4 0.713547 0.503448 0.634087
O O5 0.625000 0.317510 0.125000
O O6 0.460071 0.328388 0.151394
O O7 0.570782 0.377190 0.226741
O O8 0.881988 0.806745 0.461510
O O9 0.963739 0.824325 0.603743
O O10 0.125000 0.936932 0.125000
#
# Coordination Sequence:
#
# PCOD8285970 Si02
#       5
#    32  32  32  32  16
#     4  10  20  31  56  79 107 132 175 221 267 316
#     4  10  20  33  57  80 108 132 169 219 283 320
#     4  10  20  31  56  79 107 132 175 221 267 316
#     4  10  22  38  50  73 109 148 178 212 255 312
#     4   8  16  30  47  82 106 122 156 218 278 312
#
# _framework density 18.600110999999998
#
# number of rings (size 3 to 8) (size 9 to 14) (size 15 to 20)
#    0.000    2.222    0.000    4.000    9.333    0.889 
#    0.000    6.667    0.000    0.000    0.000    6.222 
#    0.000    0.000    0.000    0.000    0.000    0.000 
#
# Total GULP energy -446103.874344 kJ/mol
# GULP energy per Si atom -12391.774287 kJ/mol
# Density = 1.855778 g / cm^3
# Si number density = 18.600111 Si / 1000 Ang^3
#
#
#
# Elastic Constant Matrix: (Units=GPa)
#
#
# Indices 1 2 3 4 5 6 
#
# 1 129.4169 25.2585 57.3709 0.0000 0.0000 0.0000
# 2 25.2585 74.3378 41.7570 0.0000 0.0000 0.0000
# 3 57.3709 41.7570 88.6939 0.0000 0.0000 0.0000
# 4 0.0000 0.0000 0.0000 8.3891 0.0000 0.0000
# 5 0.0000 0.0000 0.0000 0.0000 29.0490 0.0000
# 6 0.0000 0.0000 0.0000 0.0000 0.0000 27.9641
#
#
#
# Elastic Compliance Matrix: (Units=1/GPa)
#
#
# Indices 1 2 3 4 5 6 
#
# 1 0.010840 0.000347 -0.007175 0.000000 0.000000 0.000000
# 2 0.000347 0.018300 -0.008840 0.000000 0.000000 0.000000
# 3 -0.007175 -0.008840 0.020078 0.000000 0.000000 0.000000
# 4 0.000000 0.000000 0.000000 0.119202 0.000000 0.000000
# 5 0.000000 0.000000 0.000000 0.000000 0.034425 0.000000
# 6 0.000000 0.000000 0.000000 0.000000 0.000000 0.035760
#
#
# Mechanical properties :
#
#
# Convention : Reuss Voigt Hill
#
# Bulk Modulus (GPa) = 55.92391 60.13572 58.02981
# Shear Modulus (GPa) = 18.12240 24.28458 21.20349
#
# Velocity S-wave (km/s) = 3.12479 3.61725 3.38000
# Velocity P-wave (km/s) = 6.56893 7.06024 6.81901
#
# Compressibility (1/GPa) = 0.01788144
#
# Stress axis : x y z
#
# Youngs Moduli (GPa) = 92.25084 54.64541 49.80600
#
# Poissons Ratio (x) = -0.01898 0.35737
# Poissons Ratio (y) = -0.03203 0.44029
# Poissons Ratio (z) = 0.66192 0.48307
#
# Static dielectric constant tensor:
#      x y z
#    x 3.892670 0.000000 0.000000 
#    y 0.000000 3.280170 0.000000 
#    z 0.000000 0.000000 3.283200 
# 
# 
# High freq. dielectric constant tensor:
#      x y z
#    x 1.731070 0.000000 0.000000 
#    y 0.000000 1.721040 0.000000 
#    z 0.000000 0.000000 1.695750 
# 
# From -- ./inp_files/26608.got.cif
#   From: 2010.03.12/outbox.cif.g09.slc.cpg/sg70_14_cif.got.tgz:26608.got - 2010.04.16 13:46:32.
