data_PCOD8285463
_publ_section_title
;
Structure prediction by ZEFSAII (Michael W. Deem and Ramdas Pophale) SiO2 
 PCOD8285463
Probable space group: F M M M
;
_chemical_formula_sum "Si O2"
_cell_formula_units_Z 88
_cell_length_a 15.312977
_cell_length_b 26.708411
_cell_length_c 9.742370
_cell_angle_alpha 90.000000
_cell_angle_beta 90.000000
_cell_angle_gamma 90.000000
_cell_volume 3984.485955
_symmetry_space_group_name_H-M "F M M M"
_symmetry_group_IT_number 69
_symmetry_cell_setting 'orthorhombic'
loop_
_space_group_symop_operation_xyz
x,y,z
-x,-y,z
x,-y,-z
-x,y,-z
-x,-y,-z
x,y,-z
-x,y,z
x,-y,z
x,1/2+y,1/2+z
-x,1/2-y,1/2+z
x,1/2-y,1/2-z
-x,1/2+y,1/2-z
-x,1/2-y,1/2-z
x,1/2+y,1/2-z
-x,1/2+y,1/2+z
x,1/2-y,1/2+z
1/2+x,y,1/2+z
1/2-x,-y,1/2+z
1/2+x,-y,1/2-z
1/2-x,y,1/2-z
1/2-x,-y,1/2-z
1/2+x,y,1/2-z
1/2-x,y,1/2+z
1/2+x,-y,1/2+z
1/2+x,1/2+y,z
1/2-x,1/2-y,z
1/2+x,1/2-y,-z
1/2-x,1/2+y,-z
1/2-x,1/2-y,-z
1/2+x,1/2+y,-z
1/2-x,1/2+y,z
1/2+x,1/2-y,z
loop_
_atom_site_type_symbol
_atom_site_label
_atom_site_fract_x
_atom_site_fract_y
_atom_site_fract_z
Si Si1 0.097897 0.868039 0.500000
Si Si2 0.650534 0.556042 0.273470
Si Si3 0.905577 0.406418 0.500000
Si Si4 0.750000 0.250000 0.750000
Si Si5 0.222211 0.185108 0.000000
O O1 0.105815 0.903375 0.631054
O O2 0.172563 0.825089 0.500000
O O3 0.000000 0.843792 0.500000
O O4 0.643582 0.500000 0.336085
O O5 0.750000 0.571858 0.250000
O O6 0.601600 0.557157 0.129194
O O7 0.829073 0.366067 0.500000
O O8 0.000000 0.379425 0.500000
O O9 0.803886 0.284952 0.641047
#
# Coordination Sequence:
#
# PCOD8285463 Si02
#       5
#    16  32  16   8  16
#     4  12  24  40  66  93 127 168 207 256 306 363
#     4  11  22  39  61  91 131 175 214 254 295 349
#     4  12  24  40  66  93 127 168 207 256 306 363
#     4  10  24  42  74  86 118 164 188 254 338 374
#     4  11  22  46  63  94 122 154 203 256 314 389
#
# _framework density 22.085659
#
# number of rings (size 3 to 8) (size 9 to 14) (size 15 to 20)
#    0.000    0.727    3.636    4.364    0.000    7.273 
#    0.000    5.455    0.000    0.000    0.000    0.000 
#    0.000    0.000    0.000    0.000    0.000    0.000 
#
# Total GULP energy -272655.997606 kJ/mol
# GULP energy per Si atom -12393.454437 kJ/mol
# Density = 2.203539 g / cm^3
# Si number density = 22.085659 Si / 1000 Ang^3
#
#
#
# Elastic Constant Matrix: (Units=GPa)
#
#
# Indices 1 2 3 4 5 6 
#
# 1 139.8443 25.8028 12.2878 0.0000 0.0000 0.0000
# 2 25.8028 70.9088 18.0002 0.0000 0.0000 0.0000
# 3 12.2878 18.0002 151.7904 0.0000 0.0000 0.0000
# 4 0.0000 0.0000 0.0000 115.2417 0.0000 0.0000
# 5 0.0000 0.0000 0.0000 0.0000 21.3935 0.0000
# 6 0.0000 0.0000 0.0000 0.0000 0.0000 6.2683
#
#
#
# Elastic Compliance Matrix: (Units=1/GPa)
#
#
# Indices 1 2 3 4 5 6 
#
# 1 0.007679 -0.002718 -0.000299 0.000000 0.000000 0.000000
# 2 -0.002718 0.015503 -0.001618 0.000000 0.000000 0.000000
# 3 -0.000299 -0.001618 0.006804 0.000000 0.000000 0.000000
# 4 0.000000 0.000000 0.000000 0.008677 0.000000 0.000000
# 5 0.000000 0.000000 0.000000 0.000000 0.046743 0.000000
# 6 0.000000 0.000000 0.000000 0.000000 0.000000 0.159533
#
#
# Mechanical properties :
#
#
# Convention : Reuss Voigt Hill
#
# Bulk Modulus (GPa) = 48.27708 52.74725 50.51217
# Shear Modulus (GPa) = 19.14866 49.01089 34.07977
#
# Velocity S-wave (km/s) = 2.94771 4.71587 3.93246
# Velocity P-wave (km/s) = 5.78721 7.32035 6.59846
#
# Compressibility (1/GPa) = 0.02071376
#
# Stress axis : x y z
#
# Youngs Moduli (GPa) = 130.23129 64.50548 146.96869
#
# Poissons Ratio (x) = 0.17534 0.04398
# Poissons Ratio (y) = 0.35399 0.23785
# Poissons Ratio (z) = 0.03897 0.10439
#
# Static dielectric constant tensor:
#      x y z
#    x 4.001800 0.000000 0.000000 
#    y 0.000000 3.835560 0.000000 
#    z 0.000000 0.000000 4.288440 
# 
# 
# High freq. dielectric constant tensor:
#      x y z
#    x 1.847230 0.000000 0.000000 
#    y 0.000000 1.860760 0.000000 
#    z 0.000000 0.000000 1.890790 
# 
# From -- ./inp_files/7149.got.cif
#   From: 2010.03.12/outbox.cif.g09.slc.cpg/sg69_4_cif.got.tgz:7149.got - 2010.04.10 23:52:46.
