data_PCOD8285932
_publ_section_title
;
Structure prediction by ZEFSAII (Michael W. Deem and Ramdas Pophale) SiO2 
 PCOD8285932
Probable space group: F D D D
;
_chemical_formula_sum "Si O2"
_cell_formula_units_Z 144
_cell_length_a 16.952791
_cell_length_b 13.716538
_cell_length_c 29.346960
_cell_angle_alpha 90.000000
_cell_angle_beta 90.000000
_cell_angle_gamma 90.000000
_cell_volume 6824.154315
_symmetry_space_group_name_H-M "F D D D"
_symmetry_group_IT_number 70
_space_group.IT_coordinate_system_code '2'
_symmetry_cell_setting 'orthorhombic'
loop_
_space_group_symop_operation_xyz
x,y,z
1/4-x,1/4-y,z
x,1/4-y,1/4-z
1/4-x,y,1/4-z
-x,-y,-z
3/4+x,3/4+y,-z
-x,3/4+y,3/4+z
3/4+x,-y,3/4+z
x,1/2+y,1/2+z
1/4-x,3/4-y,1/2+z
x,3/4-y,3/4-z
1/4-x,1/2+y,3/4-z
-x,1/2-y,1/2-z
3/4+x,1/4+y,1/2-z
-x,1/4+y,1/4+z
3/4+x,1/2-y,1/4+z
1/2+x,y,1/2+z
3/4-x,1/4-y,1/2+z
1/2+x,1/4-y,3/4-z
3/4-x,y,3/4-z
1/2-x,-y,1/2-z
1/4+x,3/4+y,1/2-z
1/2-x,3/4+y,1/4+z
1/4+x,-y,1/4+z
1/2+x,1/2+y,z
3/4-x,3/4-y,z
1/2+x,3/4-y,1/4-z
3/4-x,1/2+y,1/4-z
1/2-x,1/2-y,-z
1/4+x,1/4+y,-z
1/2-x,1/4+y,3/4+z
1/4+x,1/2-y,3/4+z
loop_
_atom_site_type_symbol
_atom_site_label
_atom_site_fract_x
_atom_site_fract_y
_atom_site_fract_z
Si Si1 0.756274 0.931942 0.565125
Si Si2 0.625000 0.125000 0.243058
Si Si3 0.037038 0.612664 0.571322
Si Si4 0.709395 0.589009 0.331866
Si Si5 0.362079 0.549059 0.425558
O O1 0.798880 0.872844 0.525389
O O2 0.798407 0.917809 0.613700
O O3 0.666053 0.895512 0.569033
O O4 0.761646 0.045921 0.551471
O O5 0.614715 0.219158 0.212104
O O6 0.125000 0.625000 0.550265
O O7 0.044183 0.625000 0.625000
O O8 0.989475 0.513353 0.559594
O O9 0.625000 0.625000 0.312124
O O10 0.771490 0.671423 0.317342
O O11 0.375000 0.505204 0.375000
#
# Coordination Sequence:
#
# PCOD8285932 Si02
#       5
#    32  16  32  32  32
#     4  10  20  39  63  90 125 161 203 263 311 371
#     4  12  23  40  58  92 124 164 206 250 320 372
#     4   9  16  33  64  90 114 160 210 249 309 369
#     4  10  19  38  64  96 122 157 213 264 305 369
#     4  10  22  41  64  85 123 168 208 250 309 384
#
# _framework density 21.101514999999999
#
# number of rings (size 3 to 8) (size 9 to 14) (size 15 to 20)
#    0.000    2.000    3.333    1.000    0.000    0.000 
#    8.000    4.444    0.000    0.000    0.000    0.000 
#    0.000    0.000    0.000    0.000    0.000    0.000 
#
# Total GULP energy -446272.519897 kJ/mol
# GULP energy per Si atom -12396.458886 kJ/mol
# Density = 2.105349 g / cm^3
# Si number density = 21.101515 Si / 1000 Ang^3
#
#
#
# Elastic Constant Matrix: (Units=GPa)
#
#
# Indices 1 2 3 4 5 6 
#
# 1 149.6852 55.8798 25.5930 0.0000 0.0000 0.0000
# 2 55.8798 131.7834 40.1240 0.0000 0.0000 0.0000
# 3 25.5930 40.1240 78.9237 0.0000 0.0000 0.0000
# 4 0.0000 0.0000 0.0000 110.7949 0.0000 0.0000
# 5 0.0000 0.0000 0.0000 0.0000 15.5330 0.0000
# 6 0.0000 0.0000 0.0000 0.0000 0.0000 25.9478
#
#
#
# Elastic Compliance Matrix: (Units=1/GPa)
#
#
# Indices 1 2 3 4 5 6 
#
# 1 0.008007 -0.003082 -0.001030 0.000000 0.000000 0.000000
# 2 -0.003082 0.010164 -0.004168 0.000000 0.000000 0.000000
# 3 -0.001030 -0.004168 0.015123 0.000000 0.000000 0.000000
# 4 0.000000 0.000000 0.000000 0.009026 0.000000 0.000000
# 5 0.000000 0.000000 0.000000 0.000000 0.064379 0.000000
# 6 0.000000 0.000000 0.000000 0.000000 0.000000 0.038539
#
#
# Mechanical properties :
#
#
# Convention : Reuss Voigt Hill
#
# Bulk Modulus (GPa) = 59.75300 67.06511 63.40906
# Shear Modulus (GPa) = 29.87297 46.37486 38.12391
#
# Velocity S-wave (km/s) = 3.76663 4.69305 4.25513
# Velocity P-wave (km/s) = 6.87714 7.82416 7.36589
#
# Compressibility (1/GPa) = 0.01673556
#
# Stress axis : x y z
#
# Youngs Moduli (GPa) = 124.88727 98.38699 66.12301
#
# Poissons Ratio (x) = 0.30320 0.06810
# Poissons Ratio (y) = 0.38487 0.27559
# Poissons Ratio (z) = 0.12861 0.41007
#
# Static dielectric constant tensor:
#      x y z
#    x 3.671030 0.000000 0.000000 
#    y 0.000000 3.836190 0.000000 
#    z 0.000000 0.000000 3.553850 
# 
# 
# High freq. dielectric constant tensor:
#      x y z
#    x 1.822910 0.000000 0.000000 
#    y 0.000000 1.826750 0.000000 
#    z 0.000000 0.000000 1.811450 
# 
# From -- ./inp_files/39468.got.cif
#   From: 2010.03.12/outbox.cif.g09.slc.cpg/sg70_20_cif.got.tgz:39468.got - 2010.04.16 13:46:32.
