data_PCOD8285379
_publ_section_title
;
Structure prediction by ZEFSAII (Michael W. Deem and Ramdas Pophale) SiO2 
 PCOD8285379
Probable space group: F M M M
;
_chemical_formula_sum "Si O2"
_cell_formula_units_Z 200
_cell_length_a 21.604046
_cell_length_b 16.709392
_cell_length_c 28.634811
_cell_angle_alpha 90.000000
_cell_angle_beta 90.000000
_cell_angle_gamma 90.000000
_cell_volume 10336.893979
_symmetry_space_group_name_H-M "F M M M"
_symmetry_group_IT_number 69
_symmetry_cell_setting 'orthorhombic'
loop_
_space_group_symop_operation_xyz
x,y,z
-x,-y,z
x,-y,-z
-x,y,-z
-x,-y,-z
x,y,-z
-x,y,z
x,-y,z
x,1/2+y,1/2+z
-x,1/2-y,1/2+z
x,1/2-y,1/2-z
-x,1/2+y,1/2-z
-x,1/2-y,1/2-z
x,1/2+y,1/2-z
-x,1/2+y,1/2+z
x,1/2-y,1/2+z
1/2+x,y,1/2+z
1/2-x,-y,1/2+z
1/2+x,-y,1/2-z
1/2-x,y,1/2-z
1/2-x,-y,1/2-z
1/2+x,y,1/2-z
1/2-x,y,1/2+z
1/2+x,-y,1/2+z
1/2+x,1/2+y,z
1/2-x,1/2-y,z
1/2+x,1/2-y,-z
1/2-x,1/2+y,-z
1/2-x,1/2-y,-z
1/2+x,1/2+y,-z
1/2-x,1/2+y,z
1/2+x,1/2-y,z
loop_
_atom_site_type_symbol
_atom_site_label
_atom_site_fract_x
_atom_site_fract_y
_atom_site_fract_z
Si Si1 0.250208 0.911191 0.628309
Si Si2 0.628685 0.809976 0.641184
Si Si3 0.654837 0.153413 0.192718
Si Si4 0.927386 0.739875 0.053811
Si Si5 0.071699 0.091381 0.775770
Si Si6 0.844531 0.089894 0.446479
Si Si7 0.750000 0.250000 0.250000
O O1 0.301666 0.844892 0.640270
O O2 0.190444 0.913663 0.662842
O O3 0.220616 0.889607 0.578364
O O4 0.280369 0.000000 0.629001
O O5 0.624887 0.718828 0.658595
O O6 0.599699 0.808340 0.588844
O O7 0.589315 0.861630 0.677489
O O8 0.604969 0.119279 0.228537
O O9 0.709225 0.192929 0.220213
O O10 0.897793 0.653608 0.065869
O O11 0.000000 0.731523 0.062477
O O12 0.913337 0.765170 0.000000
O O13 0.000000 0.104294 0.765798
O O14 0.089149 0.000000 0.785348
O O15 0.826972 0.094981 0.500000
O O16 0.867786 0.000000 0.432877
#
# Coordination Sequence:
#
# PCOD8285379 Si02
#       7
#    32  32  32  32  32  32   8
#     4  11  22  37  59  88 121 156 193 240 296 355
#     4  12  22  38  63  87 117 158 200 242 295 349
#     4  12  21  38  59  87 120 151 196 241 292 347
#     4  10  22  39  60  88 120 156 200 247 293 345
#     4  11  25  43  62  86 118 158 201 245 295 351
#     4   9  19  36  58  87 123 159 194 238 295 357
#     4  12  20  36  56  84 114 148 186 234 288 344
#
# _framework density 19.348172999999999
#
# number of rings (size 3 to 8) (size 9 to 14) (size 15 to 20)
#    0.000    1.120    4.800    1.440    0.000    2.880 
#    0.000    5.600    0.000    1.440    0.000    5.600 
#    0.000    0.000    0.000    0.000    0.000    0.000 
#
# Total GULP energy -619735.433180 kJ/mol
# GULP energy per Si atom -12394.708664 kJ/mol
# Density = 1.930414 g / cm^3
# Si number density = 19.348173 Si / 1000 Ang^3
#
#
#
# Elastic Constant Matrix: (Units=GPa)
#
#
# Indices 1 2 3 4 5 6 
#
# 1 92.5265 46.2614 52.3000 0.0000 0.0000 0.0000
# 2 46.2614 63.6310 45.2158 0.0000 0.0000 0.0000
# 3 52.3000 45.2158 119.1712 0.0000 0.0000 0.0000
# 4 0.0000 0.0000 0.0000 30.0997 0.0000 0.0000
# 5 0.0000 0.0000 0.0000 0.0000 37.9333 0.0000
# 6 0.0000 0.0000 0.0000 0.0000 0.0000 28.3953
#
#
#
# Elastic Compliance Matrix: (Units=1/GPa)
#
#
# Indices 1 2 3 4 5 6 
#
# 1 0.018329 -0.010419 -0.004091 0.000000 0.000000 0.000000
# 2 -0.010419 0.027439 -0.005838 0.000000 0.000000 0.000000
# 3 -0.004091 -0.005838 0.012402 0.000000 0.000000 0.000000
# 4 0.000000 0.000000 0.000000 0.033223 0.000000 0.000000
# 5 0.000000 0.000000 0.000000 0.000000 0.026362 0.000000
# 6 0.000000 0.000000 0.000000 0.000000 0.000000 0.035217
#
#
# Mechanical properties :
#
#
# Convention : Reuss Voigt Hill
#
# Bulk Modulus (GPa) = 57.22860 62.54255 59.88558
# Shear Modulus (GPa) = 25.06341 28.05574 26.55957
#
# Velocity S-wave (km/s) = 3.60306 3.81208 3.70904
# Velocity P-wave (km/s) = 6.85214 7.19520 7.02576
#
# Compressibility (1/GPa) = 0.01747378
#
# Stress axis : x y z
#
# Youngs Moduli (GPa) = 54.55727 36.44416 80.63276
#
# Poissons Ratio (x) = 0.37971 0.32987
# Poissons Ratio (y) = 0.56843 0.47077
# Poissons Ratio (z) = 0.22319 0.21278
#
# Static dielectric constant tensor:
#      x y z
#    x 3.462480 0.000000 0.000000 
#    y 0.000000 3.396230 0.000000 
#    z 0.000000 0.000000 3.939310 
# 
# 
# High freq. dielectric constant tensor:
#      x y z
#    x 1.747270 0.000000 0.000000 
#    y 0.000000 1.749940 0.000000 
#    z 0.000000 0.000000 1.771610 
# 
# From -- ./inp_files/42714.got.cif
#   From: 2010.03.12/outbox.cif.g09.slc.cpg/sg69_22_cif.got.tgz:42714.got - 2010.04.10 23:52:46.
