data_PCOD8285611
_publ_section_title
;
Structure prediction by ZEFSAII (Michael W. Deem and Ramdas Pophale) SiO2 
 PCOD8285611
Probable space group: F M M M
;
_chemical_formula_sum "Si O2"
_cell_formula_units_Z 160
_cell_length_a 14.698226
_cell_length_b 26.930005
_cell_length_c 18.739658
_cell_angle_alpha 90.000000
_cell_angle_beta 90.000000
_cell_angle_gamma 90.000000
_cell_volume 7417.593264
_symmetry_space_group_name_H-M "F M M M"
_symmetry_group_IT_number 69
_symmetry_cell_setting 'orthorhombic'
loop_
_space_group_symop_operation_xyz
x,y,z
-x,-y,z
x,-y,-z
-x,y,-z
-x,-y,-z
x,y,-z
-x,y,z
x,-y,z
x,1/2+y,1/2+z
-x,1/2-y,1/2+z
x,1/2-y,1/2-z
-x,1/2+y,1/2-z
-x,1/2-y,1/2-z
x,1/2+y,1/2-z
-x,1/2+y,1/2+z
x,1/2-y,1/2+z
1/2+x,y,1/2+z
1/2-x,-y,1/2+z
1/2+x,-y,1/2-z
1/2-x,y,1/2-z
1/2-x,-y,1/2-z
1/2+x,y,1/2-z
1/2-x,y,1/2+z
1/2+x,-y,1/2+z
1/2+x,1/2+y,z
1/2-x,1/2-y,z
1/2+x,1/2-y,-z
1/2-x,1/2+y,-z
1/2-x,1/2-y,-z
1/2+x,1/2+y,-z
1/2-x,1/2+y,z
1/2+x,1/2-y,z
loop_
_atom_site_type_symbol
_atom_site_label
_atom_site_fract_x
_atom_site_fract_y
_atom_site_fract_z
Si Si1 0.810227 0.631223 0.181145
Si Si2 0.000000 0.817995 0.703633
Si Si3 0.898445 0.946111 0.084414
Si Si4 0.602250 0.557685 0.418952
Si Si5 0.500000 0.281793 0.137287
Si Si6 0.829369 0.159954 0.083027
O O1 0.750000 0.618208 0.250000
O O2 0.824912 0.582136 0.133514
O O3 0.758064 0.673059 0.132320
O O4 0.909154 0.649955 0.201808
O O5 0.000000 0.778386 0.637890
O O6 0.000000 0.793996 0.780517
O O7 0.849135 0.896442 0.111508
O O8 0.000000 0.944833 0.116487
O O9 0.853290 0.000000 0.106055
O O10 0.903886 0.942299 0.000000
O O11 0.634848 0.567787 0.500000
O O12 0.500000 0.579350 0.408348
O O13 0.601174 0.500000 0.402060
O O14 0.587996 0.302768 0.096778
O O15 0.803766 0.162470 0.000000
#
# Coordination Sequence:
#
# PCOD8285611 Si02
#       6
#    32  16  32  32  16  32
#     4  12  24  42  68  97 133 171 225 272 325 398
#     4  11  26  48  67  90 123 172 223 266 331 408
#     4   8  14  27  52  86 127 170 202 239 305 382
#     4   9  19  39  67  96 133 182 226 267 320 383
#     4  11  23  46  71  90 124 173 214 271 339 403
#     4  11  22  39  65 101 135 168 214 275 332 384
#
# _framework density 21.570339000000001
#
# number of rings (size 3 to 8) (size 9 to 14) (size 15 to 20)
#    0.000    1.800    4.000    2.100    0.000    2.000 
#    0.000    7.000    0.000    3.600    0.000    0.000 
#    0.000    0.000    0.000    0.000    0.000    0.000 
#
# Total GULP energy -495648.273333 kJ/mol
# GULP energy per Si atom -12391.206833 kJ/mol
# Density = 2.152124 g / cm^3
# Si number density = 21.570339 Si / 1000 Ang^3
#
#
#
# Elastic Constant Matrix: (Units=GPa)
#
#
# Indices 1 2 3 4 5 6 
#
# 1 124.6667 24.2625 53.8922 0.0000 0.0000 0.0000
# 2 24.2625 64.8752 27.7369 0.0000 0.0000 0.0000
# 3 53.8922 27.7369 118.3187 0.0000 0.0000 0.0000
# 4 0.0000 0.0000 0.0000 29.8474 0.0000 0.0000
# 5 0.0000 0.0000 0.0000 0.0000 33.6917 0.0000
# 6 0.0000 0.0000 0.0000 0.0000 0.0000 9.7681
#
#
#
# Elastic Compliance Matrix: (Units=1/GPa)
#
#
# Indices 1 2 3 4 5 6 
#
# 1 0.010225 -0.002037 -0.004180 0.000000 0.000000 0.000000
# 2 -0.002037 0.017537 -0.003183 0.000000 0.000000 0.000000
# 3 -0.004180 -0.003183 0.011102 0.000000 0.000000 0.000000
# 4 0.000000 0.000000 0.000000 0.033504 0.000000 0.000000
# 5 0.000000 0.000000 0.000000 0.000000 0.029681 0.000000
# 6 0.000000 0.000000 0.000000 0.000000 0.000000 0.102374
#
#
# Mechanical properties :
#
#
# Convention : Reuss Voigt Hill
#
# Bulk Modulus (GPa) = 49.84149 57.73822 53.78985
# Shear Modulus (GPa) = 21.74763 28.12604 24.93684
#
# Velocity S-wave (km/s) = 3.17869 3.61490 3.40379
# Velocity P-wave (km/s) = 6.05217 6.65198 6.35915
#
# Compressibility (1/GPa) = 0.02006360
#
# Stress axis : x y z
#
# Youngs Moduli (GPa) = 97.80307 57.02235 90.07583
#
# Poissons Ratio (x) = 0.11615 0.37649
# Poissons Ratio (y) = 0.19922 0.28674
# Poissons Ratio (z) = 0.40878 0.18152
#
# Static dielectric constant tensor:
#      x y z
#    x 4.295610 0.000000 0.000000 
#    y 0.000000 4.023040 0.000000 
#    z 0.000000 0.000000 3.740700 
# 
# 
# High freq. dielectric constant tensor:
#      x y z
#    x 1.861110 0.000000 0.000000 
#    y 0.000000 1.829010 0.000000 
#    z 0.000000 0.000000 1.831890 
# 
# From -- ./inp_files/21841.got.cif
#   From: 2010.03.12/outbox.cif.g09.slc.cpg/sg69_11_cif.got.tgz:21841.got - 2010.04.10 23:52:46.
