data_PCOD8285205
_publ_section_title
;
Structure prediction by ZEFSAII (Michael W. Deem and Ramdas Pophale) SiO2 
 PCOD8285205
Probable space group: F M M M
;
_chemical_formula_sum "Si O2"
_cell_formula_units_Z 112
_cell_length_a 25.618175
_cell_length_b 8.910010
_cell_length_c 28.419150
_cell_angle_alpha 90.000000
_cell_angle_beta 90.000000
_cell_angle_gamma 90.000000
_cell_volume 6486.903895
_symmetry_space_group_name_H-M "F M M M"
_symmetry_group_IT_number 69
_symmetry_cell_setting 'orthorhombic'
loop_
_space_group_symop_operation_xyz
x,y,z
-x,-y,z
x,-y,-z
-x,y,-z
-x,-y,-z
x,y,-z
-x,y,z
x,-y,z
x,1/2+y,1/2+z
-x,1/2-y,1/2+z
x,1/2-y,1/2-z
-x,1/2+y,1/2-z
-x,1/2-y,1/2-z
x,1/2+y,1/2-z
-x,1/2+y,1/2+z
x,1/2-y,1/2+z
1/2+x,y,1/2+z
1/2-x,-y,1/2+z
1/2+x,-y,1/2-z
1/2-x,y,1/2-z
1/2-x,-y,1/2-z
1/2+x,y,1/2-z
1/2-x,y,1/2+z
1/2+x,-y,1/2+z
1/2+x,1/2+y,z
1/2-x,1/2-y,z
1/2+x,1/2-y,-z
1/2-x,1/2+y,-z
1/2-x,1/2-y,-z
1/2+x,1/2+y,-z
1/2-x,1/2+y,z
1/2+x,1/2-y,z
loop_
_atom_site_type_symbol
_atom_site_label
_atom_site_fract_x
_atom_site_fract_y
_atom_site_fract_z
Si Si1 0.401639 0.177539 0.102959
Si Si2 0.500000 0.171480 0.444305
Si Si3 0.559151 0.175505 0.796644
Si Si4 0.195342 0.675178 0.445589
O O1 0.448854 0.245773 0.073712
O O2 0.407221 0.219998 0.157863
O O3 0.347751 0.246940 0.086188
O O4 0.401871 0.000000 0.094988
O O5 0.500000 0.178348 0.500000
O O6 0.500000 0.000000 0.426440
O O7 0.500000 0.233854 0.804668
O O8 0.583851 0.250000 0.750000
O O9 0.559486 0.000000 0.788462
O O10 0.181252 0.703028 0.500000
O O11 0.198086 0.500000 0.433813
O O12 0.250000 0.750000 0.432425
#
# Coordination Sequence:
#
# PCOD8285205 Si02
#       4
#    32  16  32  32
#     4  11  21  35  54  78 108 140 175 217 266 317
#     4  11  23  35  48  73 108 143 178 215 258 313
#     4   9  18  33  51  75 105 137 175 215 258 313
#     4  10  21  37  56  79 106 139 181 222 261 310
#
# _framework density 17.265554999999999
#
# number of rings (size 3 to 8) (size 9 to 14) (size 15 to 20)
#    0.000    1.857    1.429    3.000    0.000    8.571 
#    0.000    0.000    0.000    0.857    0.000    6.000 
#    0.000    0.000    0.000    0.000    0.000    0.000 
#
# Total GULP energy -347272.192871 kJ/mol
# GULP energy per Si atom -12402.578317 kJ/mol
# Density = 1.722626 g / cm^3
# Si number density = 17.265555 Si / 1000 Ang^3
#
#
#
# Elastic Constant Matrix: (Units=GPa)
#
#
# Indices 1 2 3 4 5 6 
#
# 1 125.5875 68.3239 80.0238 0.0000 -0.0001 -0.0002
# 2 68.3239 105.1908 71.3462 0.0000 -0.0002 -0.0004
# 3 80.0238 71.3462 124.6856 0.0000 0.0000 0.0000
# 4 0.0000 0.0000 0.0000 31.8166 0.0000 0.0000
# 5 -0.0001 -0.0002 0.0000 0.0000 -89.2282 0.0001
# 6 -0.0002 -0.0004 0.0000 0.0000 0.0001 36.6833
#
#
#
# Elastic Compliance Matrix: (Units=1/GPa)
#
#
# Indices 1 2 3 4 5 6 
#
# 1 0.015074 -0.005277 -0.006655 0.000000 0.000000 0.000000
# 2 -0.005277 0.017384 -0.006560 0.000000 0.000000 0.000000
# 3 -0.006655 -0.006560 0.016045 0.000000 0.000000 0.000000
# 4 0.000000 0.000000 0.000000 0.031430 0.000000 0.000000
# 5 0.000000 0.000000 0.000000 0.000000 -0.011207 0.000000
# 6 0.000000 0.000000 0.000000 0.000000 0.000000 0.027260
#
#
# Mechanical properties :
#
#
# Convention : Reuss Voigt Hill
#
# Bulk Modulus (GPa) = 86.81876 88.31687 87.56781
# Shear Modulus (GPa) = 36.54704 4.90568 20.72636
#
# Velocity S-wave (km/s) = 4.60582 1.68745 3.46850
# Velocity P-wave (km/s) = 8.87008 7.42023 8.17735
#
# Compressibility (1/GPa) = 0.01151825
#
# Stress axis : x y z
#
# Youngs Moduli (GPa) = 66.33923 57.52530 62.32432
#
# Poissons Ratio (x) = 0.30357 0.41476
# Poissons Ratio (y) = 0.35009 0.40886
# Poissons Ratio (z) = 0.44148 0.37737
#
# Static dielectric constant tensor:
#      x y z
#    x 3.149070 0.000000 0.000000 
#    y 0.000000 3.393300 0.000000 
#    z 0.000000 0.000000 3.336760 
# 
# 
# High freq. dielectric constant tensor:
#      x y z
#    x 1.652410 0.000000 0.000000 
#    y 0.000000 1.682220 0.000000 
#    z 0.000000 0.000000 1.668690 
# 
# From -- ./inp_files/3685.got.cif
#   From: 2010.03.12/outbox.cif.g09.slc.cpg/sg69_2_cif.got.tgz:3685.got - 2010.04.10 23:52:46.
