data_PCOD8285719
_publ_section_title
;
Structure prediction by ZEFSAII (Michael W. Deem and Ramdas Pophale) SiO2 
 PCOD8285719
Probable space group: F D D D
;
_chemical_formula_sum "Si O2"
_cell_formula_units_Z 128
_cell_length_a 11.702018
_cell_length_b 29.543285
_cell_length_c 22.941402
_cell_angle_alpha 90.000000
_cell_angle_beta 90.000000
_cell_angle_gamma 90.000000
_cell_volume 7931.210946
_symmetry_space_group_name_H-M "F D D D"
_symmetry_group_IT_number 70
_space_group.IT_coordinate_system_code '2'
_symmetry_cell_setting 'orthorhombic'
loop_
_space_group_symop_operation_xyz
x,y,z
1/4-x,1/4-y,z
x,1/4-y,1/4-z
1/4-x,y,1/4-z
-x,-y,-z
3/4+x,3/4+y,-z
-x,3/4+y,3/4+z
3/4+x,-y,3/4+z
x,1/2+y,1/2+z
1/4-x,3/4-y,1/2+z
x,3/4-y,3/4-z
1/4-x,1/2+y,3/4-z
-x,1/2-y,1/2-z
3/4+x,1/4+y,1/2-z
-x,1/4+y,1/4+z
3/4+x,1/2-y,1/4+z
1/2+x,y,1/2+z
3/4-x,1/4-y,1/2+z
1/2+x,1/4-y,3/4-z
3/4-x,y,3/4-z
1/2-x,-y,1/2-z
1/4+x,3/4+y,1/2-z
1/2-x,3/4+y,1/4+z
1/4+x,-y,1/4+z
1/2+x,1/2+y,z
3/4-x,3/4-y,z
1/2+x,3/4-y,1/4-z
3/4-x,1/2+y,1/4-z
1/2-x,1/2-y,-z
1/4+x,1/4+y,-z
1/2-x,1/4+y,3/4+z
1/4+x,1/2-y,3/4+z
loop_
_atom_site_type_symbol
_atom_site_label
_atom_site_fract_x
_atom_site_fract_y
_atom_site_fract_z
Si Si1 0.375000 0.771948 0.875000
Si Si2 0.618150 0.889048 0.558857
Si Si3 0.228508 0.556594 0.329647
Si Si4 0.125000 0.625000 0.419988
Si Si5 0.934416 0.423298 0.765590
O O1 0.273885 0.741878 0.901025
O O2 0.310619 0.803134 0.827998
O O3 0.625000 0.909109 0.625000
O O4 0.665144 0.837655 0.559581
O O5 0.484311 0.888028 0.540012
O O6 0.688660 0.918827 0.512306
O O7 0.157818 0.582477 0.379582
O O8 0.142702 0.546135 0.276843
O O9 0.875000 0.375000 0.771325
#
# Coordination Sequence:
#
# PCOD8285719 Si02
#       5
#    16  32  32  16  32
#     4  12  21  30  48  84 106 126 172 218 261 308
#     4   9  15  30  55  71  95 135 172 206 252 304
#     4  10  17  31  52  75  97 131 172 215 249 299
#     4  10  14  30  58  73  95 128 186 208 250 306
#     4  10  20  34  50  74 105 138 164 210 269 304
#
# _framework density 16.138771999999999
#
# number of rings (size 3 to 8) (size 9 to 14) (size 15 to 20)
#    0.000    2.000   10.000    1.125    0.000    0.000 
#    0.000    1.250    0.000    0.000    0.000    7.000 
#    0.000    0.000    0.000    0.000    0.000    0.000 
#
# Total GULP energy -396606.874470 kJ/mol
# GULP energy per Si atom -12393.964827 kJ/mol
# Density = 1.610204 g / cm^3
# Si number density = 16.138772 Si / 1000 Ang^3
#
#
#
# Elastic Constant Matrix: (Units=GPa)
#
#
# Indices 1 2 3 4 5 6 
#
# 1 150.8423 35.7555 54.4606 0.0000 0.0000 0.0000
# 2 35.7555 47.9575 42.7592 0.0000 0.0000 0.0000
# 3 54.4606 42.7592 92.6322 0.0000 0.0000 0.0000
# 4 0.0000 0.0000 0.0000 13.1705 0.0000 0.0000
# 5 0.0000 0.0000 0.0000 0.0000 15.9022 0.0000
# 6 0.0000 0.0000 0.0000 0.0000 0.0000 20.6659
#
#
#
# Elastic Compliance Matrix: (Units=1/GPa)
#
#
# Indices 1 2 3 4 5 6 
#
# 1 0.008709 -0.003276 -0.003608 0.000000 0.000000 0.000000
# 2 -0.003276 0.036669 -0.015000 0.000000 0.000000 0.000000
# 3 -0.003608 -0.015000 0.019841 0.000000 0.000000 0.000000
# 4 0.000000 0.000000 0.000000 0.075927 0.000000 0.000000
# 5 0.000000 0.000000 0.000000 0.000000 0.062884 0.000000
# 6 0.000000 0.000000 0.000000 0.000000 0.000000 0.048389
#
#
# Mechanical properties :
#
#
# Convention : Reuss Voigt Hill
#
# Bulk Modulus (GPa) = 46.62076 61.93140 54.27608
# Shear Modulus (GPa) = 16.48337 20.51150 18.49744
#
# Velocity S-wave (km/s) = 3.19933 3.56890 3.38916
# Velocity P-wave (km/s) = 6.52669 7.44583 7.00136
#
# Compressibility (1/GPa) = 0.02144967
#
# Stress axis : x y z
#
# Youngs Moduli (GPa) = 114.82970 27.27129 50.40191
#
# Poissons Ratio (x) = 0.08935 0.18183
# Poissons Ratio (y) = 0.37620 0.75604
# Poissons Ratio (z) = 0.41427 0.40907
#
# Static dielectric constant tensor:
#      x y z
#    x 3.365200 0.000000 0.000000 
#    y 0.000000 2.795270 0.000000 
#    z 0.000000 0.000000 2.955130 
# 
# 
# High freq. dielectric constant tensor:
#      x y z
#    x 1.626640 0.000000 0.000000 
#    y 0.000000 1.594240 0.000000 
#    z 0.000000 0.000000 1.595720 
# 
# From -- ./inp_files/18859.got.cif
#   From: 2010.03.12/outbox.cif.g09.slc.cpg/sg70_10_cif.got.tgz:18859.got - 2010.04.16 13:46:32.
