data_PCOD8285009
_publ_section_title
;
Structure prediction by ZEFSAII (Michael W. Deem and Ramdas Pophale) SiO2 
 PCOD8285009
Probable space group: F M M M
;
_chemical_formula_sum "Si O2"
_cell_formula_units_Z 192
_cell_length_a 26.572603
_cell_length_b 19.988997
_cell_length_c 18.339879
_cell_angle_alpha 90.000000
_cell_angle_beta 90.000000
_cell_angle_gamma 90.000000
_cell_volume 9741.404291
_symmetry_space_group_name_H-M "F M M M"
_symmetry_group_IT_number 69
_symmetry_cell_setting 'orthorhombic'
loop_
_space_group_symop_operation_xyz
x,y,z
-x,-y,z
x,-y,-z
-x,y,-z
-x,-y,-z
x,y,-z
-x,y,z
x,-y,z
x,1/2+y,1/2+z
-x,1/2-y,1/2+z
x,1/2-y,1/2-z
-x,1/2+y,1/2-z
-x,1/2-y,1/2-z
x,1/2+y,1/2-z
-x,1/2+y,1/2+z
x,1/2-y,1/2+z
1/2+x,y,1/2+z
1/2-x,-y,1/2+z
1/2+x,-y,1/2-z
1/2-x,y,1/2-z
1/2-x,-y,1/2-z
1/2+x,y,1/2-z
1/2-x,y,1/2+z
1/2+x,-y,1/2+z
1/2+x,1/2+y,z
1/2-x,1/2-y,z
1/2+x,1/2-y,-z
1/2-x,1/2+y,-z
1/2-x,1/2-y,-z
1/2+x,1/2+y,-z
1/2-x,1/2+y,z
1/2+x,1/2-y,z
loop_
_atom_site_type_symbol
_atom_site_label
_atom_site_fract_x
_atom_site_fract_y
_atom_site_fract_z
Si Si1 0.557586 0.426202 0.162784
Si Si2 0.117855 0.317287 0.414885
Si Si3 0.089362 0.425364 0.179031
Si Si4 0.312455 0.924071 0.083479
Si Si5 0.944484 0.280722 0.829420
Si Si6 0.229868 0.679901 0.413480
O O1 0.500000 0.406211 0.184076
O O2 0.558302 0.500000 0.127911
O O3 0.579301 0.376348 0.103124
O O4 0.593790 0.424405 0.233384
O O5 0.120725 0.307095 0.500000
O O6 0.097650 0.247644 0.383086
O O7 0.173513 0.332855 0.383441
O O8 0.067782 0.500000 0.155979
O O9 0.142041 0.413300 0.139276
O O10 0.054597 0.361438 0.161939
O O11 0.266573 0.879160 0.112667
O O12 0.293317 0.000000 0.085866
O O13 0.328514 0.905168 0.000000
O O14 0.931751 0.250000 0.750000
O O15 0.000000 0.255948 0.852230
O O16 0.229028 0.681974 0.500000
O O17 0.250000 0.750000 0.381726
#
# Coordination Sequence:
#
# PCOD8285009 Si02
#       6
#    32  32  32  32  32  32
#     4  10  21  38  59  83 115 156 196 235 288 350
#     4  11  23  38  60  88 117 151 194 243 289 341
#     4  10  20  36  61  87 114 153 196 237 286 347
#     4   9  18  34  58  87 118 153 193 237 286 342
#     4  11  22  37  58  83 114 154 196 238 286 344
#     4   9  18  34  56  81 111 148 187 232 288 342
#
# _framework density 19.709683999999999
#
# number of rings (size 3 to 8) (size 9 to 14) (size 15 to 20)
#    0.000    2.000    1.667    2.000    0.000    5.333 
#    0.000    3.333    0.000    4.500    0.000   11.667 
#    0.000    0.000    0.000    0.000    0.000    0.000 
#
# Total GULP energy -594831.674914 kJ/mol
# GULP energy per Si atom -12392.326561 kJ/mol
# Density = 1.966482 g / cm^3
# Si number density = 19.709684 Si / 1000 Ang^3
#
#
#
# Elastic Constant Matrix: (Units=GPa)
#
#
# Indices 1 2 3 4 5 6 
#
# 1 121.4334 57.5657 46.5018 0.0000 0.0000 0.0000
# 2 57.5657 136.7963 26.4516 0.0000 0.0000 0.0000
# 3 46.5018 26.4516 52.1090 0.0000 0.0000 0.0000
# 4 0.0000 0.0000 0.0000 26.0625 0.0000 0.0000
# 5 0.0000 0.0000 0.0000 0.0000 22.4898 0.0000
# 6 0.0000 0.0000 0.0000 0.0000 0.0000 30.6432
#
#
#
# Elastic Compliance Matrix: (Units=1/GPa)
#
#
# Indices 1 2 3 4 5 6 
#
# 1 0.014167 -0.003900 -0.010663 0.000000 0.000000 0.000000
# 2 -0.003900 0.009179 -0.001179 0.000000 0.000000 0.000000
# 3 -0.010663 -0.001179 0.029305 0.000000 0.000000 0.000000
# 4 0.000000 0.000000 0.000000 0.038369 0.000000 0.000000
# 5 0.000000 0.000000 0.000000 0.000000 0.044465 0.000000
# 6 0.000000 0.000000 0.000000 0.000000 0.000000 0.032634
#
#
# Mechanical properties :
#
#
# Convention : Reuss Voigt Hill
#
# Bulk Modulus (GPa) = 47.24391 63.48630 55.36511
# Shear Modulus (GPa) = 24.19454 27.82708 26.01081
#
# Velocity S-wave (km/s) = 3.50744 3.76153 3.63670
# Velocity P-wave (km/s) = 6.35805 7.15165 6.76649
#
# Compressibility (1/GPa) = 0.02116675
#
# Stress axis : x y z
#
# Youngs Moduli (GPa) = 70.58698 108.94086 34.12421
#
# Poissons Ratio (x) = 0.42485 0.36386
# Poissons Ratio (y) = 0.27528 0.04025
# Poissons Ratio (z) = 0.75266 0.12849
#
# Static dielectric constant tensor:
#      x y z
#    x 3.664010 0.000000 0.000000 
#    y 0.000000 3.925320 0.000000 
#    z 0.000000 0.000000 3.284380 
# 
# 
# High freq. dielectric constant tensor:
#      x y z
#    x 1.764110 0.000000 0.000000 
#    y 0.000000 1.790460 0.000000 
#    z 0.000000 0.000000 1.735370 
# 
# From -- ./inp_files/32851.got.cif
#   From: 2010.03.12/outbox.cif.g09.slc.cpg/sg69_17_cif.got.tgz:32851.got - 2010.04.10 23:52:46.
