data_PCOD8285345
_publ_section_title
;
Structure prediction by ZEFSAII (Michael W. Deem and Ramdas Pophale) SiO2 
 PCOD8285345
Probable space group: F M M M
;
_chemical_formula_sum "Si O2"
_cell_formula_units_Z 160
_cell_length_a 18.805746
_cell_length_b 21.396386
_cell_length_c 22.324965
_cell_angle_alpha 90.000000
_cell_angle_beta 90.000000
_cell_angle_gamma 90.000000
_cell_volume 8983.007802
_symmetry_space_group_name_H-M "F M M M"
_symmetry_group_IT_number 69
_symmetry_cell_setting 'orthorhombic'
loop_
_space_group_symop_operation_xyz
x,y,z
-x,-y,z
x,-y,-z
-x,y,-z
-x,-y,-z
x,y,-z
-x,y,z
x,-y,z
x,1/2+y,1/2+z
-x,1/2-y,1/2+z
x,1/2-y,1/2-z
-x,1/2+y,1/2-z
-x,1/2-y,1/2-z
x,1/2+y,1/2-z
-x,1/2+y,1/2+z
x,1/2-y,1/2+z
1/2+x,y,1/2+z
1/2-x,-y,1/2+z
1/2+x,-y,1/2-z
1/2-x,y,1/2-z
1/2-x,-y,1/2-z
1/2+x,y,1/2-z
1/2-x,y,1/2+z
1/2+x,-y,1/2+z
1/2+x,1/2+y,z
1/2-x,1/2-y,z
1/2+x,1/2-y,-z
1/2-x,1/2+y,-z
1/2-x,1/2-y,-z
1/2+x,1/2+y,-z
1/2-x,1/2+y,z
1/2+x,1/2-y,z
loop_
_atom_site_type_symbol
_atom_site_label
_atom_site_fract_x
_atom_site_fract_y
_atom_site_fract_z
Si Si1 0.000000 0.215460 0.569007
Si Si2 0.638525 0.367637 0.775675
Si Si3 0.225997 0.820973 0.668276
Si Si4 0.420566 0.000000 0.752307
Si Si5 0.136284 0.369142 0.067477
Si Si6 0.079430 0.000000 0.606900
Si Si7 0.500000 0.293729 0.808595
O O1 0.933167 0.171461 0.578204
O O2 0.000000 0.244278 0.500000
O O3 0.000000 0.263832 0.624562
O O4 0.706105 0.364237 0.819258
O O5 0.659902 0.334779 0.712888
O O6 0.623033 0.440212 0.768281
O O7 0.570480 0.335160 0.804919
O O8 0.250000 0.750000 0.675664
O O9 0.201057 0.837042 0.602111
O O10 0.500000 0.000000 0.724314
O O11 0.427730 0.000000 0.822805
O O12 0.123062 0.439916 0.086676
O O13 0.162100 0.368382 0.000000
O O14 0.000000 0.000000 0.578005
O O15 0.500000 0.250000 0.750000
#
# Coordination Sequence:
#
# PCOD8285345 Si02
#       7
#    16  32  32  16  32  16  16
#     4  10  22  37  56  87 122 160 201 242 294 357
#     4  11  22  38  59  84 117 152 189 242 301 346
#     4  11  23  39  55  86 122 155 191 237 296 354
#     4  11  22  37  59  91 120 146 190 245 297 357
#     4  11  22  37  58  84 118 159 199 237 289 353
#     4  11  21  35  59  87 125 151 190 246 292 352
#     4  12  22  35  63  87 113 153 201 253 286 348
#
# _framework density 17.811406000000002
#
# number of rings (size 3 to 8) (size 9 to 14) (size 15 to 20)
#    0.000    1.000    4.000    5.100    0.000    3.200 
#    0.000    1.000    0.000    0.000    0.000    2.800 
#    0.000    0.000    0.000    0.000    0.000    0.000 
#
# Total GULP energy -495953.493718 kJ/mol
# GULP energy per Si atom -12398.837343 kJ/mol
# Density = 1.777087 g / cm^3
# Si number density = 17.811406 Si / 1000 Ang^3
#
#
#
# Elastic Constant Matrix: (Units=GPa)
#
#
# Indices 1 2 3 4 5 6 
#
# 1 103.6432 53.2063 58.5027 0.0000 0.0000 0.0000
# 2 53.2063 144.3825 62.0839 0.0000 0.0000 0.0000
# 3 58.5027 62.0839 109.5939 0.0000 0.0000 0.0000
# 4 0.0000 0.0000 0.0000 25.2951 0.0000 0.0000
# 5 0.0000 0.0000 0.0000 0.0000 30.6305 0.0000
# 6 0.0000 0.0000 0.0000 0.0000 0.0000 30.5002
#
#
#
# Elastic Compliance Matrix: (Units=1/GPa)
#
#
# Indices 1 2 3 4 5 6 
#
# 1 0.014550 -0.002673 -0.006253 0.000000 0.000000 0.000000
# 2 -0.002673 0.009648 -0.004038 0.000000 0.000000 0.000000
# 3 -0.006253 -0.004038 0.014750 0.000000 0.000000 0.000000
# 4 0.000000 0.000000 0.000000 0.039533 0.000000 0.000000
# 5 0.000000 0.000000 0.000000 0.000000 0.032647 0.000000
# 6 0.000000 0.000000 0.000000 0.000000 0.000000 0.032787
#
#
# Mechanical properties :
#
#
# Convention : Reuss Voigt Hill
#
# Bulk Modulus (GPa) = 76.80861 78.35617 77.58239
# Shear Modulus (GPa) = 28.70538 29.54028 29.12283
#
# Velocity S-wave (km/s) = 4.01887 4.07689 4.04798
# Velocity P-wave (km/s) = 8.04686 8.13935 8.09324
#
# Compressibility (1/GPa) = 0.01301937
#
# Stress axis : x y z
#
# Youngs Moduli (GPa) = 68.72717 103.65265 67.79642
#
# Poissons Ratio (x) = 0.27709 0.42392
# Poissons Ratio (y) = 0.18373 0.27378
# Poissons Ratio (z) = 0.42973 0.41858
#
# Static dielectric constant tensor:
#      x y z
#    x 3.537110 0.000000 0.000000 
#    y 0.000000 3.267290 0.000000 
#    z 0.000000 0.000000 3.405680 
# 
# 
# High freq. dielectric constant tensor:
#      x y z
#    x 1.697890 0.000000 0.000000 
#    y 0.000000 1.691890 0.000000 
#    z 0.000000 0.000000 1.681600 
# 
# From -- ./inp_files/24703.got.cif
#   From: 2010.03.12/outbox.cif.g09.slc.cpg/sg69_13_cif.got.tgz:24703.got - 2010.04.10 23:52:46.
