data_PCOD8285661
_publ_section_title
;
Structure prediction by ZEFSAII (Michael W. Deem and Ramdas Pophale) SiO2 
 PCOD8285661
Probable space group: F M M M
;
_chemical_formula_sum "Si O2"
_cell_formula_units_Z 80
_cell_length_a 22.012362
_cell_length_b 17.420710
_cell_length_c 10.225680
_cell_angle_alpha 90.000000
_cell_angle_beta 90.000000
_cell_angle_gamma 90.000000
_cell_volume 3921.251478
_symmetry_space_group_name_H-M "F M M M"
_symmetry_group_IT_number 69
_symmetry_cell_setting 'orthorhombic'
loop_
_space_group_symop_operation_xyz
x,y,z
-x,-y,z
x,-y,-z
-x,y,-z
-x,-y,-z
x,y,-z
-x,y,z
x,-y,z
x,1/2+y,1/2+z
-x,1/2-y,1/2+z
x,1/2-y,1/2-z
-x,1/2+y,1/2-z
-x,1/2-y,1/2-z
x,1/2+y,1/2-z
-x,1/2+y,1/2+z
x,1/2-y,1/2+z
1/2+x,y,1/2+z
1/2-x,-y,1/2+z
1/2+x,-y,1/2-z
1/2-x,y,1/2-z
1/2-x,-y,1/2-z
1/2+x,y,1/2-z
1/2-x,y,1/2+z
1/2+x,-y,1/2+z
1/2+x,1/2+y,z
1/2-x,1/2-y,z
1/2+x,1/2-y,-z
1/2-x,1/2+y,-z
1/2-x,1/2-y,-z
1/2+x,1/2+y,-z
1/2-x,1/2+y,z
1/2+x,1/2-y,z
loop_
_atom_site_type_symbol
_atom_site_label
_atom_site_fract_x
_atom_site_fract_y
_atom_site_fract_z
Si Si1 0.500000 0.589863 0.143056
Si Si2 0.671823 0.089547 0.000000
Si Si3 0.119447 0.836422 0.240350
Si Si4 0.289330 0.170987 0.500000
O O1 0.500000 0.500000 0.129497
O O2 0.439150 0.612319 0.216950
O O3 0.500000 0.629040 0.000000
O O4 0.647215 0.133400 0.125903
O O5 0.744442 0.098289 0.000000
O O6 0.653772 0.000000 0.000000
O O7 0.095740 0.750000 0.250000
O O8 0.169916 0.838588 0.127957
O O9 0.250000 0.250000 0.500000
#
# Coordination Sequence:
#
# PCOD8285661 Si02
#       4
#    16  16  32  16
#     4  11  25  45  69 101 137 178 237 295 348 410
#     4  12  28  43  68 110 145 181 233 292 358 411
#     4  12  24  46  74  99 141 186 235 284 352 420
#     4  12  24  45  72 102 140 187 233 290 336 420
#
# _framework density 20.40165
#
# number of rings (size 3 to 8) (size 9 to 14) (size 15 to 20)
#    0.000    0.200    6.000    3.000    0.000    5.600 
#    0.000    2.000    0.000    0.000    0.000    0.000 
#    0.000    0.000    0.000    0.000    0.000    0.000 
#
# Total GULP energy -248022.822238 kJ/mol
# GULP energy per Si atom -12401.141112 kJ/mol
# Density = 2.035522 g / cm^3
# Si number density = 20.401650 Si / 1000 Ang^3
#
#
#
# Elastic Constant Matrix: (Units=GPa)
#
#
# Indices 1 2 3 4 5 6 
#
# 1 150.0182 32.0729 72.2285 0.0000 0.0000 0.0000
# 2 32.0729 115.0784 44.2886 0.0000 0.0000 0.0000
# 3 72.2285 44.2886 178.1016 0.0000 0.0001 0.0000
# 4 0.0000 0.0000 0.0000 32.0288 0.0000 0.0000
# 5 0.0000 0.0000 0.0001 0.0000 -3.5527 0.0000
# 6 0.0000 0.0000 0.0000 0.0000 0.0000 40.4338
#
#
#
# Elastic Compliance Matrix: (Units=1/GPa)
#
#
# Indices 1 2 3 4 5 6 
#
# 1 0.008417 -0.001141 -0.003130 0.000000 0.000000 0.000000
# 2 -0.001141 0.009764 -0.001965 0.000000 0.000000 0.000000
# 3 -0.003130 -0.001965 0.007373 0.000000 0.000000 0.000000
# 4 0.000000 0.000000 0.000000 0.031222 0.000000 0.000000
# 5 0.000000 0.000000 0.000000 0.000000 -0.281473 0.000000
# 6 0.000000 0.000000 0.000000 0.000000 0.000000 0.024732
#
#
# Mechanical properties :
#
#
# Convention : Reuss Voigt Hill
#
# Bulk Modulus (GPa) = 76.44500 82.26423 79.35461
# Shear Modulus (GPa) = -27.30243 33.42252 3.06005
#
# Velocity S-wave (km/s) = -3.66217 4.05189 1.22603
# Velocity P-wave (km/s) = 4.43501 7.89305 6.40194
#
# Compressibility (1/GPa) = 0.01308130
#
# Stress axis : x y z
#
# Youngs Moduli (GPa) = 118.81253 102.41562 135.63696
#
# Poissons Ratio (x) = 0.11689 0.42448
# Poissons Ratio (y) = 0.13561 0.26655
# Poissons Ratio (z) = 0.37183 0.20127
#
# Static dielectric constant tensor:
#      x y z
#    x 4.132380 0.000000 0.000000 
#    y 0.000000 3.863530 0.000000 
#    z 0.000000 0.000000 3.926770 
# 
# 
# High freq. dielectric constant tensor:
#      x y z
#    x 1.811690 0.000000 0.000000 
#    y 0.000000 1.804900 0.000000 
#    z 0.000000 0.000000 1.817840 
# 
# From -- ./inp_files/8789.got.cif
#   From: 2010.03.12/outbox.cif.g09.slc.cpg/sg69_5_cif.got.tgz:8789.got - 2010.04.10 23:52:46.
