data_PCOD8285973
_publ_section_title
;
Structure prediction by ZEFSAII (Michael W. Deem and Ramdas Pophale) SiO2 
 PCOD8285973
Probable space group: F D D D
;
_chemical_formula_sum "Si O2"
_cell_formula_units_Z 184
_cell_length_a 24.784835
_cell_length_b 18.201705
_cell_length_c 18.793275
_cell_angle_alpha 90.000000
_cell_angle_beta 90.000000
_cell_angle_gamma 90.000000
_cell_volume 8478.139773
_symmetry_space_group_name_H-M "F D D D"
_symmetry_group_IT_number 70
_space_group.IT_coordinate_system_code '2'
_symmetry_cell_setting 'orthorhombic'
loop_
_space_group_symop_operation_xyz
x,y,z
1/4-x,1/4-y,z
x,1/4-y,1/4-z
1/4-x,y,1/4-z
-x,-y,-z
3/4+x,3/4+y,-z
-x,3/4+y,3/4+z
3/4+x,-y,3/4+z
x,1/2+y,1/2+z
1/4-x,3/4-y,1/2+z
x,3/4-y,3/4-z
1/4-x,1/2+y,3/4-z
-x,1/2-y,1/2-z
3/4+x,1/4+y,1/2-z
-x,1/4+y,1/4+z
3/4+x,1/2-y,1/4+z
1/2+x,y,1/2+z
3/4-x,1/4-y,1/2+z
1/2+x,1/4-y,3/4-z
3/4-x,y,3/4-z
1/2-x,-y,1/2-z
1/4+x,3/4+y,1/2-z
1/2-x,3/4+y,1/4+z
1/4+x,-y,1/4+z
1/2+x,1/2+y,z
3/4-x,3/4-y,z
1/2+x,3/4-y,1/4-z
3/4-x,1/2+y,1/4-z
1/2-x,1/2-y,-z
1/4+x,1/4+y,-z
1/2-x,1/4+y,3/4+z
1/4+x,1/2-y,3/4+z
loop_
_atom_site_type_symbol
_atom_site_label
_atom_site_fract_x
_atom_site_fract_y
_atom_site_fract_z
Si Si1 0.125000 0.625000 0.894652
Si Si2 0.125000 0.125000 0.625000
Si Si3 0.536538 0.804785 0.705289
Si Si4 0.080226 0.921126 0.301386
Si Si5 0.221818 0.669181 0.817266
Si Si6 0.052103 0.367007 0.456852
Si Si7 0.142950 0.231483 0.736772
O O1 0.178027 0.612367 0.847716
O O2 0.115078 0.554425 0.944078
O O3 0.164210 0.171946 0.678155
O O4 0.500000 0.750000 0.750000
O O5 0.540296 0.883039 0.744932
O O6 0.517272 0.814113 0.625110
O O7 0.596603 0.775007 0.696109
O O8 0.075630 0.875000 0.375000
O O9 0.143951 0.915372 0.277782
O O10 0.061479 0.005536 0.301278
O O11 0.248304 0.619728 0.753873
O O12 0.035241 0.375000 0.375000
O O13 0.060349 0.282293 0.482302
#
# Coordination Sequence:
#
# PCOD8285973 Si02
#       7
#    16   8  32  32  32  32  32
#     4  11  22  37  59  96 131 164 216 276 329 410
#     4  10  20  32  60 104 130 148 190 278 342 408
#     4  11  20  36  63  99 128 168 208 262 344 419
#     4  10  21  41  64  97 138 171 210 271 341 412
#     4  12  24  40  69  94 130 175 226 275 337 399
#     4  10  23  44  66  86 129 184 228 268 324 397
#     4  10  21  38  60  94 135 167 209 264 344 410
#
# _framework density 21.702874000000001
#
# number of rings (size 3 to 8) (size 9 to 14) (size 15 to 20)
#    0.000    1.391    3.478    3.130    2.435    3.478 
#    1.565    3.913    3.826    0.000    0.000    0.000 
#    0.000    0.000    0.000    0.000    0.000    0.000 
#
# Total GULP energy -569878.890736 kJ/mol
# GULP energy per Si atom -12388.671538 kJ/mol
# Density = 2.165348 g / cm^3
# Si number density = 21.702874 Si / 1000 Ang^3
#
#
#
# Elastic Constant Matrix: (Units=GPa)
#
#
# Indices 1 2 3 4 5 6 
#
# 1 94.5142 23.7234 58.2616 0.0000 0.0000 0.0000
# 2 23.7234 60.7243 41.0855 0.0000 0.0000 0.0000
# 3 58.2616 41.0855 147.3908 0.0000 0.0000 0.0000
# 4 0.0000 0.0000 0.0000 26.0302 0.0000 0.0000
# 5 0.0000 0.0000 0.0000 0.0000 33.9543 0.0000
# 6 0.0000 0.0000 0.0000 0.0000 0.0000 28.7303
#
#
#
# Elastic Compliance Matrix: (Units=1/GPa)
#
#
# Indices 1 2 3 4 5 6 
#
# 1 0.014215 -0.002159 -0.005017 0.000000 0.000000 0.000000
# 2 -0.002159 0.020624 -0.004895 0.000000 0.000000 0.000000
# 3 -0.005017 -0.004895 0.010133 0.000000 0.000000 0.000000
# 4 0.000000 0.000000 0.000000 0.038417 0.000000 0.000000
# 5 0.000000 0.000000 0.000000 0.000000 0.029451 0.000000
# 6 0.000000 0.000000 0.000000 0.000000 0.000000 0.034806
#
#
# Mechanical properties :
#
#
# Convention : Reuss Voigt Hill
#
# Bulk Modulus (GPa) = 48.01228 60.97449 54.49339
# Shear Modulus (GPa) = 27.97488 29.71354 28.84421
#
# Velocity S-wave (km/s) = 3.59415 3.70416 3.64957
# Velocity P-wave (km/s) = 6.27650 6.81546 6.55153
#
# Compressibility (1/GPa) = 0.02082800
#
# Stress axis : x y z
#
# Youngs Moduli (GPa) = 70.34773 48.48835 98.69175
#
# Poissons Ratio (x) = 0.10468 0.49516
# Poissons Ratio (y) = 0.15187 0.48314
# Poissons Ratio (z) = 0.35295 0.23737
#
# Static dielectric constant tensor:
#      x y z
#    x 4.060030 0.000000 0.000000 
#    y 0.000000 3.887530 0.000000 
#    z 0.000000 0.000000 4.172790 
# 
# 
# High freq. dielectric constant tensor:
#      x y z
#    x 1.845950 0.000000 0.000000 
#    y 0.000000 1.832280 0.000000 
#    z 0.000000 0.000000 1.855000 
# 
# From -- ./inp_files/38679.got.cif
#   From: 2010.03.12/outbox.cif.g09.slc.cpg/sg70_20_cif.got.tgz:38679.got - 2010.04.16 13:46:32.
