data_PCOD8285347
_publ_section_title
;
Structure prediction by ZEFSAII (Michael W. Deem and Ramdas Pophale) SiO2 
 PCOD8285347
Probable space group: F M M M
;
_chemical_formula_sum "Si O2"
_cell_formula_units_Z 144
_cell_length_a 27.151940
_cell_length_b 12.154125
_cell_length_c 24.518043
_cell_angle_alpha 90.000000
_cell_angle_beta 90.000000
_cell_angle_gamma 90.000000
_cell_volume 8091.152118
_symmetry_space_group_name_H-M "F M M M"
_symmetry_group_IT_number 69
_symmetry_cell_setting 'orthorhombic'
loop_
_space_group_symop_operation_xyz
x,y,z
-x,-y,z
x,-y,-z
-x,y,-z
-x,-y,-z
x,y,-z
-x,y,z
x,-y,z
x,1/2+y,1/2+z
-x,1/2-y,1/2+z
x,1/2-y,1/2-z
-x,1/2+y,1/2-z
-x,1/2-y,1/2-z
x,1/2+y,1/2-z
-x,1/2+y,1/2+z
x,1/2-y,1/2+z
1/2+x,y,1/2+z
1/2-x,-y,1/2+z
1/2+x,-y,1/2-z
1/2-x,y,1/2-z
1/2-x,-y,1/2-z
1/2+x,y,1/2-z
1/2-x,y,1/2+z
1/2+x,-y,1/2+z
1/2+x,1/2+y,z
1/2-x,1/2-y,z
1/2+x,1/2-y,-z
1/2-x,1/2+y,-z
1/2-x,1/2-y,-z
1/2+x,1/2+y,-z
1/2-x,1/2+y,z
1/2+x,1/2-y,z
loop_
_atom_site_type_symbol
_atom_site_label
_atom_site_fract_x
_atom_site_fract_y
_atom_site_fract_z
Si Si1 0.138065 0.621879 0.850878
Si Si2 0.390935 0.500000 0.827107
Si Si3 0.446241 0.724142 0.811588
Si Si4 0.651748 0.000000 0.560136
Si Si5 0.694615 0.235604 0.438189
Si Si6 0.808826 0.500000 0.761641
O O1 0.125488 0.500000 0.873642
O O2 0.087208 0.681162 0.837225
O O3 0.162002 0.693178 0.898075
O O4 0.174159 0.607728 0.797454
O O5 0.420791 0.606569 0.811414
O O6 0.388266 0.500000 0.892592
O O7 0.337797 0.500000 0.796229
O O8 0.500000 0.721055 0.841435
O O9 0.456337 0.750000 0.750000
O O10 0.685320 0.106485 0.567404
O O11 0.626249 0.000000 0.500000
O O12 0.685423 0.276878 0.500000
O O13 0.750000 0.250000 0.419443
O O14 0.750000 0.500000 0.750000
#
# Coordination Sequence:
#
# PCOD8285347 Si02
#       6
#    32  16  32  16  32  16
#     4  10  22  39  57  87 122 150 201 241 302 354
#     4  12  21  40  62  86 125 155 203 245 295 368
#     4  11  22  39  61  87 118 157 204 254 300 352
#     4  10  22  37  61  87 117 156 197 246 297 344
#     4  10  22  38  60  87 119 163 207 246 289 352
#     4  10  24  37  56  89 125 163 192 236 299 365
#
# _framework density 17.797218000000001
#
# number of rings (size 3 to 8) (size 9 to 14) (size 15 to 20)
#    0.667    0.889    4.444    0.333    4.667    0.889 
#    0.000    1.111    0.000    3.333    0.000    1.556 
#    0.000    0.000    0.000    0.000    0.000    0.000 
#
# Total GULP energy -446101.484108 kJ/mol
# GULP energy per Si atom -12391.707892 kJ/mol
# Density = 1.775671 g / cm^3
# Si number density = 17.797218 Si / 1000 Ang^3
#
#
#
# Elastic Constant Matrix: (Units=GPa)
#
#
# Indices 1 2 3 4 5 6 
#
# 1 151.3688 60.3377 53.4362 0.0000 0.0000 0.0000
# 2 60.3377 130.4614 39.2442 0.0000 0.0000 0.0000
# 3 53.4362 39.2442 94.3409 0.0000 0.0000 0.0000
# 4 0.0000 0.0000 0.0000 25.1329 0.0000 0.0000
# 5 0.0000 0.0000 0.0000 0.0000 22.0676 0.0000
# 6 0.0000 0.0000 0.0000 0.0000 0.0000 22.1822
#
#
#
# Elastic Compliance Matrix: (Units=1/GPa)
#
#
# Indices 1 2 3 4 5 6 
#
# 1 0.009227 -0.003081 -0.003945 0.000000 0.000000 0.000000
# 2 -0.003081 0.009790 -0.002327 0.000000 0.000000 0.000000
# 3 -0.003945 -0.002327 0.013802 0.000000 0.000000 0.000000
# 4 0.000000 0.000000 0.000000 0.039789 0.000000 0.000000
# 5 0.000000 0.000000 0.000000 0.000000 0.045315 0.000000
# 6 0.000000 0.000000 0.000000 0.000000 0.000000 0.045081
#
#
# Mechanical properties :
#
#
# Convention : Reuss Voigt Hill
#
# Bulk Modulus (GPa) = 70.85464 75.80082 73.32773
# Shear Modulus (GPa) = 26.82184 28.75339 27.78762
#
# Velocity S-wave (km/s) = 3.88633 4.02383 3.95567
# Velocity P-wave (km/s) = 7.74833 8.01699 7.88381
#
# Compressibility (1/GPa) = 0.01411340
#
# Stress axis : x y z
#
# Youngs Moduli (GPa) = 108.37739 102.14393 72.45105
#
# Poissons Ratio (x) = 0.31469 0.28580
# Poissons Ratio (y) = 0.33389 0.16863
# Poissons Ratio (z) = 0.42752 0.23774
#
# Static dielectric constant tensor:
#      x y z
#    x 3.265690 0.000000 0.000000 
#    y 0.000000 3.449940 0.000000 
#    z 0.000000 0.000000 3.401830 
# 
# 
# High freq. dielectric constant tensor:
#      x y z
#    x 1.680230 0.000000 0.000000 
#    y 0.000000 1.702460 0.000000 
#    z 0.000000 0.000000 1.684650 
# 
# From -- ./inp_files/43472.got.cif
#   From: 2010.03.12/outbox.cif.g09.slc.cpg/sg69_22_cif.got.tgz:43472.got - 2010.04.10 23:52:46.
