data_PCOD8285822
_publ_section_title
;
Structure prediction by ZEFSAII (Michael W. Deem and Ramdas Pophale) SiO2 
 PCOD8285822
Probable space group: F D D D
;
_chemical_formula_sum "Si O2"
_cell_formula_units_Z 160
_cell_length_a 15.928897
_cell_length_b 21.940869
_cell_length_c 20.688726
_cell_angle_alpha 90.000000
_cell_angle_beta 90.000000
_cell_angle_gamma 90.000000
_cell_volume 7230.582344
_symmetry_space_group_name_H-M "F D D D"
_symmetry_group_IT_number 70
_space_group.IT_coordinate_system_code '2'
_symmetry_cell_setting 'orthorhombic'
loop_
_space_group_symop_operation_xyz
x,y,z
1/4-x,1/4-y,z
x,1/4-y,1/4-z
1/4-x,y,1/4-z
-x,-y,-z
3/4+x,3/4+y,-z
-x,3/4+y,3/4+z
3/4+x,-y,3/4+z
x,1/2+y,1/2+z
1/4-x,3/4-y,1/2+z
x,3/4-y,3/4-z
1/4-x,1/2+y,3/4-z
-x,1/2-y,1/2-z
3/4+x,1/4+y,1/2-z
-x,1/4+y,1/4+z
3/4+x,1/2-y,1/4+z
1/2+x,y,1/2+z
3/4-x,1/4-y,1/2+z
1/2+x,1/4-y,3/4-z
3/4-x,y,3/4-z
1/2-x,-y,1/2-z
1/4+x,3/4+y,1/2-z
1/2-x,3/4+y,1/4+z
1/4+x,-y,1/4+z
1/2+x,1/2+y,z
3/4-x,3/4-y,z
1/2+x,3/4-y,1/4-z
3/4-x,1/2+y,1/4-z
1/2-x,1/2-y,-z
1/4+x,1/4+y,-z
1/2-x,1/4+y,3/4+z
1/4+x,1/2-y,3/4+z
loop_
_atom_site_type_symbol
_atom_site_label
_atom_site_fract_x
_atom_site_fract_y
_atom_site_fract_z
Si Si1 0.806161 0.125000 0.625000
Si Si2 0.625000 0.282043 0.625000
Si Si3 0.250995 0.869775 0.173879
Si Si4 0.864378 0.559330 0.740958
Si Si5 0.197796 0.699637 0.533951
Si Si6 0.067715 0.678036 0.297199
O O1 0.867564 0.148824 0.680032
O O2 0.746277 0.177501 0.597726
O O3 0.542814 0.324446 0.634225
O O4 0.615692 0.235964 0.562049
O O5 0.180797 0.824077 0.202444
O O6 0.311668 0.894450 0.232240
O O7 0.308449 0.830648 0.125034
O O8 0.867390 0.489445 0.719166
O O9 0.772565 0.576192 0.765163
O O10 0.250000 0.750000 0.500000
O O11 0.125000 0.625000 0.267611
#
# Coordination Sequence:
#
# PCOD8285822 Si02
#       6
#    16  16  32  32  32  32
#     4  10  22  41  61  90 132 160 206 256 332 382
#     4  10  18  37  68  90 131 160 202 260 324 372
#     4  10  20  43  65  90 128 167 207 261 325 374
#     4  10  23  42  63  91 128 166 208 270 316 383
#     4   9  21  37  62  97 123 164 208 252 317 388
#     4  11  24  41  65  93 120 167 226 259 318 382
#
# _framework density 22.128232000000001
#
# number of rings (size 3 to 8) (size 9 to 14) (size 15 to 20)
#    0.000    2.000    2.000    0.000    5.600    2.000 
#    7.200    2.500    0.000    0.000    0.000    0.000 
#    0.000    0.000    0.000    0.000    0.000    0.000 
#
# Total GULP energy -495576.492527 kJ/mol
# GULP energy per Si atom -12389.412313 kJ/mol
# Density = 2.207787 g / cm^3
# Si number density = 22.128232 Si / 1000 Ang^3
#
#
#
# Elastic Constant Matrix: (Units=GPa)
#
#
# Indices 1 2 3 4 5 6 
#
# 1 54.8223 62.2317 34.9163 0.0000 0.0000 0.0000
# 2 62.2317 142.8290 64.0556 0.0000 0.0000 0.0000
# 3 34.9163 64.0556 116.8542 0.0000 0.0000 0.0000
# 4 0.0000 0.0000 0.0000 47.3029 0.0000 0.0000
# 5 0.0000 0.0000 0.0000 0.0000 9.5208 0.0000
# 6 0.0000 0.0000 0.0000 0.0000 0.0000 25.5829
#
#
#
# Elastic Compliance Matrix: (Units=1/GPa)
#
#
# Indices 1 2 3 4 5 6 
#
# 1 0.036832 -0.014735 -0.002928 0.000000 0.000000 0.000000
# 2 -0.014735 0.015178 -0.003917 0.000000 0.000000 0.000000
# 3 -0.002928 -0.003917 0.011580 0.000000 0.000000 0.000000
# 4 0.000000 0.000000 0.000000 0.021140 0.000000 0.000000
# 5 0.000000 0.000000 0.000000 0.000000 0.105033 0.000000
# 6 0.000000 0.000000 0.000000 0.000000 0.000000 0.039089
#
#
# Mechanical properties :
#
#
# Convention : Reuss Voigt Hill
#
# Bulk Modulus (GPa) = 48.94941 70.76806 59.85874
# Shear Modulus (GPa) = 17.93250 26.70145 22.31697
#
# Velocity S-wave (km/s) = 2.84982 3.47748 3.17918
# Velocity P-wave (km/s) = 5.74434 6.94076 6.37070
#
# Compressibility (1/GPa) = 0.02042925
#
# Stress axis : x y z
#
# Youngs Moduli (GPa) = 27.15038 65.88375 86.35481
#
# Poissons Ratio (x) = 0.97077 0.25288
# Poissons Ratio (y) = 0.40005 0.33829
# Poissons Ratio (z) = 0.07951 0.25810
#
# Static dielectric constant tensor:
#      x y z
#    x 3.949610 0.000000 0.000000 
#    y 0.000000 4.591390 0.000000 
#    z 0.000000 0.000000 4.885360 
# 
# 
# High freq. dielectric constant tensor:
#      x y z
#    x 1.863240 0.000000 0.000000 
#    y 0.000000 1.882690 0.000000 
#    z 0.000000 0.000000 1.878320 
# 
# From -- ./inp_files/36332.got.cif
#   From: 2010.03.12/outbox.cif.g09.slc.cpg/sg70_19_cif.got.tgz:36332.got - 2010.04.16 13:46:32.
