data_PCOD8285383
_publ_section_title
;
Structure prediction by ZEFSAII (Michael W. Deem and Ramdas Pophale) SiO2 
 PCOD8285383
Probable space group: F M M M
;
_chemical_formula_sum "Si O2"
_cell_formula_units_Z 224
_cell_length_a 29.673786
_cell_length_b 22.946655
_cell_length_c 16.712819
_cell_angle_alpha 90.000000
_cell_angle_beta 90.000000
_cell_angle_gamma 90.000000
_cell_volume 11379.994607
_symmetry_space_group_name_H-M "F M M M"
_symmetry_group_IT_number 69
_symmetry_cell_setting 'orthorhombic'
loop_
_space_group_symop_operation_xyz
x,y,z
-x,-y,z
x,-y,-z
-x,y,-z
-x,-y,-z
x,y,-z
-x,y,z
x,-y,z
x,1/2+y,1/2+z
-x,1/2-y,1/2+z
x,1/2-y,1/2-z
-x,1/2+y,1/2-z
-x,1/2-y,1/2-z
x,1/2+y,1/2-z
-x,1/2+y,1/2+z
x,1/2-y,1/2+z
1/2+x,y,1/2+z
1/2-x,-y,1/2+z
1/2+x,-y,1/2-z
1/2-x,y,1/2-z
1/2-x,-y,1/2-z
1/2+x,y,1/2-z
1/2-x,y,1/2+z
1/2+x,-y,1/2+z
1/2+x,1/2+y,z
1/2-x,1/2-y,z
1/2+x,1/2-y,-z
1/2-x,1/2+y,-z
1/2-x,1/2-y,-z
1/2+x,1/2+y,-z
1/2-x,1/2+y,z
1/2+x,1/2-y,z
loop_
_atom_site_type_symbol
_atom_site_label
_atom_site_fract_x
_atom_site_fract_y
_atom_site_fract_z
Si Si1 0.200883 0.267889 0.158389
Si Si2 0.378093 0.401117 0.818144
Si Si3 0.885924 0.717488 0.592238
Si Si4 0.795251 0.894302 0.698306
Si Si5 0.552159 0.935009 0.194354
Si Si6 0.333415 0.000000 0.408477
Si Si7 0.552070 0.176129 0.906848
Si Si8 0.232121 0.000000 0.596097
O O1 0.191558 0.250000 0.250000
O O2 0.250000 0.250000 0.128944
O O3 0.165659 0.237154 0.099900
O O4 0.197019 0.336592 0.146949
O O5 0.392923 0.338818 0.852621
O O6 0.337715 0.400878 0.755385
O O7 0.421777 0.428824 0.777515
O O8 0.361891 0.442553 0.889342
O O9 0.896724 0.702537 0.500000
O O10 0.918683 0.768999 0.624382
O O11 0.750000 0.888975 0.750000
O O12 0.793369 0.944790 0.632806
O O13 0.500000 0.927195 0.214543
O O14 0.568259 0.884080 0.134155
O O15 0.561186 0.000000 0.157921
O O16 0.322279 0.000000 0.500000
O O17 0.283426 0.000000 0.368996
O O18 0.500000 0.189811 0.887751
O O19 0.560491 0.166602 0.000000
O O20 0.228278 0.000000 0.500000
#
# Coordination Sequence:
#
# PCOD8285383 Si02
#       8
#    32  32  32  32  32  16  32  16
#     4  11  21  38  59  86 119 161 200 242 295 362
#     4  12  22  39  64  87 119 162 202 251 301 365
#     4  11  24  40  61  92 124 158 202 253 304 360
#     4  12  21  38  63  87 119 159 202 246 303 359
#     4  10  22  39  63  93 122 158 204 250 297 355
#     4  11  23  39  60  86 117 158 205 253 305 360
#     4   9  20  40  64  92 126 160 197 246 305 363
#     4  11  26  42  60  90 123 157 208 261 304 359
#
# _framework density 19.683665000000001
#
# number of rings (size 3 to 8) (size 9 to 14) (size 15 to 20)
#    0.000    1.143    5.000    1.929    0.000    1.714 
#    0.000    3.571    0.000    1.714    0.000    0.000 
#    0.000    0.000    0.000    0.000    0.000    0.000 
#
# Total GULP energy -694449.219168 kJ/mol
# GULP energy per Si atom -12400.878914 kJ/mol
# Density = 1.963886 g / cm^3
# Si number density = 19.683665 Si / 1000 Ang^3
#
#
#
# Elastic Constant Matrix: (Units=GPa)
#
#
# Indices 1 2 3 4 5 6 
#
# 1 79.1517 46.5331 29.9852 0.0000 0.0000 0.0000
# 2 46.5331 168.8136 44.9851 0.0000 0.0000 0.0000
# 3 29.9852 44.9851 61.0374 0.0000 0.0000 0.0000
# 4 0.0000 0.0000 0.0000 46.5795 0.0000 0.0000
# 5 0.0000 0.0000 0.0000 0.0000 29.4727 0.0000
# 6 0.0000 0.0000 0.0000 0.0000 0.0000 34.8223
#
#
#
# Elastic Compliance Matrix: (Units=1/GPa)
#
#
# Indices 1 2 3 4 5 6 
#
# 1 0.016661 -0.003001 -0.005973 0.000000 0.000000 0.000000
# 2 -0.003001 0.007912 -0.004357 0.000000 0.000000 0.000000
# 3 -0.005973 -0.004357 0.022529 0.000000 0.000000 0.000000
# 4 0.000000 0.000000 0.000000 0.021469 0.000000 0.000000
# 5 0.000000 0.000000 0.000000 0.000000 0.033930 0.000000
# 6 0.000000 0.000000 0.000000 0.000000 0.000000 0.028717
#
#
# Mechanical properties :
#
#
# Convention : Reuss Voigt Hill
#
# Bulk Modulus (GPa) = 48.92423 61.33439 55.12931
# Shear Modulus (GPa) = 30.35957 34.67486 32.51721
#
# Velocity S-wave (km/s) = 3.93157 4.20170 4.06888
# Velocity P-wave (km/s) = 6.74676 7.40046 7.08116
#
# Compressibility (1/GPa) = 0.02043977
#
# Stress axis : x y z
#
# Youngs Moduli (GPa) = 60.02040 126.39199 44.38741
#
# Poissons Ratio (x) = 0.37928 0.26514
# Poissons Ratio (y) = 0.18011 0.19339
# Poissons Ratio (z) = 0.35852 0.55068
#
# Static dielectric constant tensor:
#      x y z
#    x 3.771920 0.000000 0.000000 
#    y 0.000000 3.911900 0.000000 
#    z 0.000000 0.000000 3.368690 
# 
# 
# High freq. dielectric constant tensor:
#      x y z
#    x 1.771150 0.000000 0.000000 
#    y 0.000000 1.786560 0.000000 
#    z 0.000000 0.000000 1.747830 
# 
# From -- ./inp_files/27994.got.cif
#   From: 2010.03.12/outbox.cif.g09.slc.cpg/sg69_14_cif.got.tgz:27994.got - 2010.04.10 23:52:46.
