data_PCOD8285065
_publ_section_title
;
Structure prediction by ZEFSAII (Michael W. Deem and Ramdas Pophale) SiO2 
 PCOD8285065
Probable space group: F M M M
;
_chemical_formula_sum "Si O2"
_cell_formula_units_Z 144
_cell_length_a 17.070984
_cell_length_b 17.366795
_cell_length_c 23.358740
_cell_angle_alpha 90.000000
_cell_angle_beta 90.000000
_cell_angle_gamma 90.000000
_cell_volume 6925.125461
_symmetry_space_group_name_H-M "F M M M"
_symmetry_group_IT_number 69
_symmetry_cell_setting 'orthorhombic'
loop_
_space_group_symop_operation_xyz
x,y,z
-x,-y,z
x,-y,-z
-x,y,-z
-x,-y,-z
x,y,-z
-x,y,z
x,-y,z
x,1/2+y,1/2+z
-x,1/2-y,1/2+z
x,1/2-y,1/2-z
-x,1/2+y,1/2-z
-x,1/2-y,1/2-z
x,1/2+y,1/2-z
-x,1/2+y,1/2+z
x,1/2-y,1/2+z
1/2+x,y,1/2+z
1/2-x,-y,1/2+z
1/2+x,-y,1/2-z
1/2-x,y,1/2-z
1/2-x,-y,1/2-z
1/2+x,y,1/2-z
1/2-x,y,1/2+z
1/2+x,-y,1/2+z
1/2+x,1/2+y,z
1/2-x,1/2-y,z
1/2+x,1/2-y,-z
1/2-x,1/2+y,-z
1/2-x,1/2-y,-z
1/2+x,1/2+y,-z
1/2-x,1/2+y,z
1/2+x,1/2-y,z
loop_
_atom_site_type_symbol
_atom_site_label
_atom_site_fract_x
_atom_site_fract_y
_atom_site_fract_z
Si Si1 0.591823 0.671344 0.640938
Si Si2 0.410083 0.088436 0.259020
Si Si3 0.000000 0.586279 0.432392
Si Si4 0.791971 0.589821 0.933491
Si Si5 0.145469 0.341661 0.628179
O O1 0.500000 0.683046 0.630010
O O2 0.609054 0.638078 0.703490
O O3 0.624092 0.612304 0.593276
O O4 0.637861 0.750984 0.636786
O O5 0.500000 0.100636 0.278336
O O6 0.355567 0.116287 0.310556
O O7 0.392344 0.000000 0.244405
O O8 0.076983 0.629636 0.412695
O O9 0.000000 0.500000 0.406468
O O10 0.000000 0.583451 0.500000
O O11 0.774722 0.500000 0.924201
O O12 0.727063 0.640196 0.901715
O O13 0.792679 0.611456 0.000000
#
# Coordination Sequence:
#
# PCOD8285065 Si02
#       5
#    32  32  16  32  32
#     4  11  24  43  65  97 131 171 215 268 322 381
#     4  10  20  37  65  96 132 172 214 262 317 388
#     4  11  22  36  59  92 129 169 209 252 312 386
#     4  11  26  46  66  91 128 172 221 272 320 380
#     4  12  22  40  66  97 131 166 210 268 328 385
#
# _framework density 20.793848000000001
#
# number of rings (size 3 to 8) (size 9 to 14) (size 15 to 20)
#    0.000    1.000    2.222    4.667    0.000    8.889 
#    0.000    5.556    0.000    0.000    0.000    0.000 
#    0.000    0.000    0.000    0.000    0.000    0.000 
#
# Total GULP energy -446663.299317 kJ/mol
# GULP energy per Si atom -12407.313870 kJ/mol
# Density = 2.074652 g / cm^3
# Si number density = 20.793848 Si / 1000 Ang^3
#
#
#
# Elastic Constant Matrix: (Units=GPa)
#
#
# Indices 1 2 3 4 5 6 
#
# 1 70.0045 31.4749 51.9603 0.0000 0.0000 0.0000
# 2 31.4749 100.7950 55.9062 0.0000 0.0000 0.0000
# 3 51.9603 55.9062 136.3825 0.0000 0.0000 0.0000
# 4 0.0000 0.0000 0.0000 27.0619 0.0000 0.0000
# 5 0.0000 0.0000 0.0000 0.0000 34.5578 0.0000
# 6 0.0000 0.0000 0.0000 0.0000 0.0000 36.2323
#
#
#
# Elastic Compliance Matrix: (Units=1/GPa)
#
#
# Indices 1 2 3 4 5 6 
#
# 1 0.020459 -0.002673 -0.006699 0.000000 0.000000 0.000000
# 2 -0.002673 0.013190 -0.004388 0.000000 0.000000 0.000000
# 3 -0.006699 -0.004388 0.011683 0.000000 0.000000 0.000000
# 4 0.000000 0.000000 0.000000 0.036952 0.000000 0.000000
# 5 0.000000 0.000000 0.000000 0.000000 0.028937 0.000000
# 6 0.000000 0.000000 0.000000 0.000000 0.000000 0.027600
#
#
# Mechanical properties :
#
#
# Convention : Reuss Voigt Hill
#
# Bulk Modulus (GPa) = 56.14363 65.09610 60.61987
# Shear Modulus (GPa) = 29.02269 30.75977 29.89123
#
# Velocity S-wave (km/s) = 3.74001 3.85030 3.79556
# Velocity P-wave (km/s) = 6.76084 7.15122 6.95876
#
# Compressibility (1/GPa) = 0.01781146
#
# Stress axis : x y z
#
# Youngs Moduli (GPa) = 48.87867 75.81568 85.59140
#
# Poissons Ratio (x) = 0.20266 0.57336
# Poissons Ratio (y) = 0.13066 0.37561
# Poissons Ratio (z) = 0.32743 0.33271
#
# Static dielectric constant tensor:
#      x y z
#    x 3.828190 0.000000 0.000000 
#    y 0.000000 3.911950 0.000000 
#    z 0.000000 0.000000 3.833350 
# 
# 
# High freq. dielectric constant tensor:
#      x y z
#    x 1.809240 0.000000 0.000000 
#    y 0.000000 1.830560 0.000000 
#    z 0.000000 0.000000 1.826490 
# 
# From -- ./inp_files/22873.got.cif
#   From: 2010.03.12/outbox.cif.g09.slc.cpg/sg69_12_cif.got.tgz:22873.got - 2010.04.10 23:52:46.
