data_PCOD8285284
_publ_section_title
;
Structure prediction by ZEFSAII (Michael W. Deem and Ramdas Pophale) SiO2 
 PCOD8285284
Probable space group: F M M M
;
_chemical_formula_sum "Si O2"
_cell_formula_units_Z 192
_cell_length_a 29.113966
_cell_length_b 19.106071
_cell_length_c 17.810700
_cell_angle_alpha 90.000000
_cell_angle_beta 90.000000
_cell_angle_gamma 90.000000
_cell_volume 9907.264239
_symmetry_space_group_name_H-M "F M M M"
_symmetry_group_IT_number 69
_symmetry_cell_setting 'orthorhombic'
loop_
_space_group_symop_operation_xyz
x,y,z
-x,-y,z
x,-y,-z
-x,y,-z
-x,-y,-z
x,y,-z
-x,y,z
x,-y,z
x,1/2+y,1/2+z
-x,1/2-y,1/2+z
x,1/2-y,1/2-z
-x,1/2+y,1/2-z
-x,1/2-y,1/2-z
x,1/2+y,1/2-z
-x,1/2+y,1/2+z
x,1/2-y,1/2+z
1/2+x,y,1/2+z
1/2-x,-y,1/2+z
1/2+x,-y,1/2-z
1/2-x,y,1/2-z
1/2-x,-y,1/2-z
1/2+x,y,1/2-z
1/2-x,y,1/2+z
1/2+x,-y,1/2+z
1/2+x,1/2+y,z
1/2-x,1/2-y,z
1/2+x,1/2-y,-z
1/2-x,1/2+y,-z
1/2-x,1/2-y,-z
1/2+x,1/2+y,-z
1/2-x,1/2+y,z
1/2+x,1/2-y,z
loop_
_atom_site_type_symbol
_atom_site_label
_atom_site_fract_x
_atom_site_fract_y
_atom_site_fract_z
Si Si1 0.000000 0.923362 0.320825
Si Si2 0.826724 0.717749 0.332441
Si Si3 0.079101 0.285973 0.584615
Si Si4 0.416177 0.625537 0.583365
Si Si5 0.767600 0.922525 0.833209
Si Si6 0.813187 0.646539 0.911559
Si Si7 0.500000 0.815214 0.693543
O O1 0.046923 0.914630 0.367300
O O2 0.000000 0.881255 0.245406
O O3 0.000000 0.000000 0.289074
O O4 0.836234 0.750000 0.250000
O O5 0.872124 0.701936 0.378354
O O6 0.802146 0.642691 0.335080
O O7 0.798679 0.778743 0.375377
O O8 0.077832 0.317917 0.500000
O O9 0.066563 0.204797 0.580037
O O10 0.043387 0.321933 0.639607
O O11 0.416315 0.592393 0.500000
O O12 0.364069 0.622116 0.616934
O O13 0.750000 0.927096 0.750000
O O14 0.724729 0.910245 0.889100
O O15 0.788726 0.000000 0.854416
O O16 0.815258 0.657183 0.000000
O O17 0.500000 0.750000 0.750000
#
# Coordination Sequence:
#
# PCOD8285284 Si02
#       7
#    16  32  32  32  32  32  16
#     4  12  25  36  55  92 131 164 198 241 295 361
#     4  11  21  37  65  93 121 157 199 257 307 362
#     4  10  21  38  64  94 120 150 201 256 300 347
#     4   9  19  37  59  89 123 157 195 243 302 363
#     4  11  24  40  58  86 123 163 205 250 306 366
#     4  10  22  39  63  90 120 159 208 257 303 358
#     4  12  21  37  65  89 117 160 202 244 294 351
#
# _framework density 19.379718
#
# number of rings (size 3 to 8) (size 9 to 14) (size 15 to 20)
#    0.000    1.500    3.333    3.000    2.333    5.000 
#    0.000    4.167    0.000    2.000    0.000    0.000 
#    0.000    0.000    0.000    0.000    0.000    0.000 
#
# Total GULP energy -594833.083888 kJ/mol
# GULP energy per Si atom -12392.355914 kJ/mol
# Density = 1.933561 g / cm^3
# Si number density = 19.379718 Si / 1000 Ang^3
#
#
#
# Elastic Constant Matrix: (Units=GPa)
#
#
# Indices 1 2 3 4 5 6 
#
# 1 62.5385 53.3782 51.9504 0.0000 0.0000 0.0000
# 2 53.3782 133.3163 52.8781 0.0000 0.0000 0.0000
# 3 51.9504 52.8781 128.9107 0.0000 0.0000 0.0000
# 4 0.0000 0.0000 0.0000 22.2038 0.0000 0.0000
# 5 0.0000 0.0000 0.0000 0.0000 35.8849 0.0000
# 6 0.0000 0.0000 0.0000 0.0000 0.0000 15.9127
#
#
#
# Elastic Compliance Matrix: (Units=1/GPa)
#
#
# Indices 1 2 3 4 5 6 
#
# 1 0.030874 -0.008870 -0.008804 0.000000 0.000000 0.000000
# 2 -0.008870 0.011507 -0.001146 0.000000 0.000000 0.000000
# 3 -0.008804 -0.001146 0.011775 0.000000 0.000000 0.000000
# 4 0.000000 0.000000 0.000000 0.045037 0.000000 0.000000
# 5 0.000000 0.000000 0.000000 0.000000 0.027867 0.000000
# 6 0.000000 0.000000 0.000000 0.000000 0.000000 0.062843
#
#
# Mechanical properties :
#
#
# Convention : Reuss Voigt Hill
#
# Bulk Modulus (GPa) = 60.54103 71.24211 65.89157
# Shear Modulus (GPa) = 21.45498 25.90419 23.67959
#
# Velocity S-wave (km/s) = 3.33090 3.66001 3.49932
# Velocity P-wave (km/s) = 6.78972 7.39607 7.09937
#
# Compressibility (1/GPa) = 0.01651772
#
# Stress axis : x y z
#
# Youngs Moduli (GPa) = 32.38996 86.90681 84.92534
#
# Poissons Ratio (x) = 0.77083 0.74766
# Poissons Ratio (y) = 0.28729 0.09728
# Poissons Ratio (z) = 0.28515 0.09955
#
# Static dielectric constant tensor:
#      x y z
#    x 3.648570 0.000000 0.000000 
#    y 0.000000 3.869580 0.000000 
#    z 0.000000 0.000000 4.138250 
# 
# 
# High freq. dielectric constant tensor:
#      x y z
#    x 1.756320 0.000000 0.000000 
#    y 0.000000 1.733700 0.000000 
#    z 0.000000 0.000000 1.764320 
# 
# From -- ./inp_files/27817.got.cif
#   From: 2010.03.12/outbox.cif.g09.slc.cpg/sg69_14_cif.got.tgz:27817.got - 2010.04.10 23:52:46.
