data_PCOD8285289
_publ_section_title
;
Structure prediction by ZEFSAII (Michael W. Deem and Ramdas Pophale) SiO2 
 PCOD8285289
Probable space group: F M M M
;
_chemical_formula_sum "Si O2"
_cell_formula_units_Z 208
_cell_length_a 29.187236
_cell_length_b 18.187134
_cell_length_c 21.660068
_cell_angle_alpha 90.000000
_cell_angle_beta 90.000000
_cell_angle_gamma 90.000000
_cell_volume 11497.860947
_symmetry_space_group_name_H-M "F M M M"
_symmetry_group_IT_number 69
_symmetry_cell_setting 'orthorhombic'
loop_
_space_group_symop_operation_xyz
x,y,z
-x,-y,z
x,-y,-z
-x,y,-z
-x,-y,-z
x,y,-z
-x,y,z
x,-y,z
x,1/2+y,1/2+z
-x,1/2-y,1/2+z
x,1/2-y,1/2-z
-x,1/2+y,1/2-z
-x,1/2-y,1/2-z
x,1/2+y,1/2-z
-x,1/2+y,1/2+z
x,1/2-y,1/2+z
1/2+x,y,1/2+z
1/2-x,-y,1/2+z
1/2+x,-y,1/2-z
1/2-x,y,1/2-z
1/2-x,-y,1/2-z
1/2+x,y,1/2-z
1/2-x,y,1/2+z
1/2+x,-y,1/2+z
1/2+x,1/2+y,z
1/2-x,1/2-y,z
1/2+x,1/2-y,-z
1/2-x,1/2+y,-z
1/2-x,1/2-y,-z
1/2+x,1/2+y,-z
1/2-x,1/2+y,z
1/2+x,1/2-y,z
loop_
_atom_site_type_symbol
_atom_site_label
_atom_site_fract_x
_atom_site_fract_y
_atom_site_fract_z
Si Si1 0.305881 0.086472 0.429956
Si Si2 0.203924 0.581911 0.926556
Si Si3 0.879220 0.179357 0.572166
Si Si4 0.106346 0.341431 0.613213
Si Si5 0.947026 0.414636 0.858908
Si Si6 0.446869 0.334314 0.764731
Si Si7 0.945922 0.413719 0.500000
O O1 0.313037 0.115229 0.500000
O O2 0.254934 0.106429 0.405784
O O3 0.342570 0.125761 0.386370
O O4 0.313697 0.000000 0.427647
O O5 0.192495 0.500000 0.900490
O O6 0.167579 0.641858 0.902360
O O7 0.202574 0.577683 0.000000
O O8 0.875794 0.195931 0.500000
O O9 0.889566 0.254004 0.607792
O O10 0.920453 0.123272 0.584905
O O11 0.082834 0.361498 0.677640
O O12 0.075524 0.376239 0.559837
O O13 0.935827 0.500000 0.859958
O O14 0.930956 0.382582 0.793344
O O15 0.000000 0.397317 0.869989
O O16 0.500000 0.347683 0.780720
O O17 0.437097 0.250000 0.750000
O O18 0.933882 0.500000 0.500000
O O19 0.000000 0.399633 0.500000
#
# Coordination Sequence:
#
# PCOD8285289 Si02
#       7
#    32  32  32  32  32  32  16
#     4   9  17  32  53  79 114 149 180 221 273 329
#     4   8  16  31  52  77 110 151 184 216 266 329
#     4  11  21  34  54  86 117 145 180 224 281 335
#     4  12  21  34  56  85 111 145 186 228 281 331
#     4  10  22  39  58  81 108 143 188 233 276 327
#     4  10  21  39  59  77 105 147 191 234 273 321
#     4  11  24  38  52  79 119 153 181 224 281 342
#
# _framework density 18.090322
#
# number of rings (size 3 to 8) (size 9 to 14) (size 15 to 20)
#    0.000    1.923    3.077    2.308    0.000    3.692 
#    0.000    4.615    0.000    0.923    0.000    3.231 
#    0.000    0.000    0.000    0.000    0.000    0.000 
#
# Total GULP energy -644863.099907 kJ/mol
# GULP energy per Si atom -12401.213460 kJ/mol
# Density = 1.804915 g / cm^3
# Si number density = 18.090322 Si / 1000 Ang^3
#
#
#
# Elastic Constant Matrix: (Units=GPa)
#
#
# Indices 1 2 3 4 5 6 
#
# 1 95.4723 46.8742 19.7457 0.0000 0.0000 0.0000
# 2 46.8742 69.1078 2.9985 0.0000 0.0000 0.0000
# 3 19.7457 2.9985 31.5663 0.0000 0.0000 0.0000
# 4 0.0000 0.0000 0.0000 22.7103 0.0000 0.0000
# 5 0.0000 0.0000 0.0000 0.0000 22.0233 0.0000
# 6 0.0000 0.0000 0.0000 0.0000 0.0000 32.9805
#
#
#
# Elastic Compliance Matrix: (Units=1/GPa)
#
#
# Indices 1 2 3 4 5 6 
#
# 1 0.018622 -0.012176 -0.010492 0.000000 0.000000 0.000000
# 2 -0.012176 0.022491 0.005480 0.000000 0.000000 0.000000
# 3 -0.010492 0.005480 0.037722 0.000000 0.000000 0.000000
# 4 0.000000 0.000000 0.000000 0.044033 0.000000 0.000000
# 5 0.000000 0.000000 0.000000 0.000000 0.045406 0.000000
# 6 0.000000 0.000000 0.000000 0.000000 0.000000 0.030321
#
#
# Mechanical properties :
#
#
# Convention : Reuss Voigt Hill
#
# Bulk Modulus (GPa) = 22.49261 37.26480 29.87871
# Shear Modulus (GPa) = 20.17828 23.97802 22.07815
#
# Velocity S-wave (km/s) = 3.34341 3.64464 3.49727
# Velocity P-wave (km/s) = 5.23116 6.19316 5.73237
#
# Compressibility (1/GPa) = 0.04445905
#
# Stress axis : x y z
#
# Youngs Moduli (GPa) = 53.69938 44.46241 26.50970
#
# Poissons Ratio (x) = 0.54136 0.27814
# Poissons Ratio (y) = 0.65383 -0.14527
# Poissons Ratio (z) = 0.56342 -0.24365
#
# Static dielectric constant tensor:
#      x y z
#    x 3.570410 0.000000 0.000000 
#    y 0.000000 3.434860 0.000000 
#    z 0.000000 0.000000 3.087000 
# 
# 
# High freq. dielectric constant tensor:
#      x y z
#    x 1.710580 0.000000 0.000000 
#    y 0.000000 1.709250 0.000000 
#    z 0.000000 0.000000 1.666460 
# 
# From -- ./inp_files/38497.got.cif
#   From: 2010.03.12/outbox.cif.g09.slc.cpg/sg69_20_cif.got.tgz:38497.got - 2010.04.10 23:52:46.
