data_PCOD8285827
_publ_section_title
;
Structure prediction by ZEFSAII (Michael W. Deem and Ramdas Pophale) SiO2 
 PCOD8285827
Probable space group: F D D D
;
_chemical_formula_sum "Si O2"
_cell_formula_units_Z 208
_cell_length_a 28.201039
_cell_length_b 22.294690
_cell_length_c 16.493154
_cell_angle_alpha 90.000000
_cell_angle_beta 90.000000
_cell_angle_gamma 90.000000
_cell_volume 10369.797157
_symmetry_space_group_name_H-M "F D D D"
_symmetry_group_IT_number 70
_space_group.IT_coordinate_system_code '2'
_symmetry_cell_setting 'orthorhombic'
loop_
_space_group_symop_operation_xyz
x,y,z
1/4-x,1/4-y,z
x,1/4-y,1/4-z
1/4-x,y,1/4-z
-x,-y,-z
3/4+x,3/4+y,-z
-x,3/4+y,3/4+z
3/4+x,-y,3/4+z
x,1/2+y,1/2+z
1/4-x,3/4-y,1/2+z
x,3/4-y,3/4-z
1/4-x,1/2+y,3/4-z
-x,1/2-y,1/2-z
3/4+x,1/4+y,1/2-z
-x,1/4+y,1/4+z
3/4+x,1/2-y,1/4+z
1/2+x,y,1/2+z
3/4-x,1/4-y,1/2+z
1/2+x,1/4-y,3/4-z
3/4-x,y,3/4-z
1/2-x,-y,1/2-z
1/4+x,3/4+y,1/2-z
1/2-x,3/4+y,1/4+z
1/4+x,-y,1/4+z
1/2+x,1/2+y,z
3/4-x,3/4-y,z
1/2+x,3/4-y,1/4-z
3/4-x,1/2+y,1/4-z
1/2-x,1/2-y,-z
1/4+x,1/4+y,-z
1/2-x,1/4+y,3/4+z
1/4+x,1/2-y,3/4+z
loop_
_atom_site_type_symbol
_atom_site_label
_atom_site_fract_x
_atom_site_fract_y
_atom_site_fract_z
Si Si1 0.645019 0.771907 0.931339
Si Si2 0.487135 0.655161 0.898918
Si Si3 0.983492 0.188858 0.082664
Si Si4 0.581137 0.375000 0.375000
Si Si5 0.592009 0.680111 0.835717
Si Si6 0.049127 0.782823 0.246827
Si Si7 0.213060 0.270713 0.067104
O O1 0.687133 0.776453 0.864936
O O2 0.613561 0.831601 0.928902
O O3 0.616155 0.711224 0.913537
O O4 0.661869 0.767024 0.024655
O O5 0.539892 0.658520 0.861759
O O6 0.447755 0.688049 0.842453
O O7 0.473217 0.586638 0.902050
O O8 0.483038 0.685480 0.986294
O O9 0.985488 0.125000 0.125000
O O10 0.031058 0.225733 0.106959
O O11 0.549275 0.414673 0.435442
O O12 0.625000 0.625000 0.805417
O O13 0.589165 0.732071 0.765552
O O14 0.000000 0.750000 0.250000
O O15 0.250000 0.250000 0.000000
#
# Coordination Sequence:
#
# PCOD8285827 Si02
#       7
#    32  32  32  16  32  32  32
#     4  10  19  37  61  88 118 160 196 246 313 365
#     4  11  21  39  60  89 120 161 206 250 301 383
#     4  11  20  35  62  87 121 158 199 241 303 379
#     4  10  18  38  64  86 119 158 203 260 310 362
#     4  10  21  38  62  87 122 158 200 260 321 357
#     4   9  22  39  61  86 117 161 211 250 307 373
#     4  10  19  34  59  86 117 157 198 237 301 376
#
# _framework density 20.058250999999998
#
# number of rings (size 3 to 8) (size 9 to 14) (size 15 to 20)
#    0.000    1.846    3.846    1.846    0.000    3.692 
#    0.000    9.231    0.000    6.462    0.000    0.000 
#    0.000    0.000    0.000    0.000    0.000    0.000 
#
# Total GULP energy -644490.869820 kJ/mol
# GULP energy per Si atom -12394.055189 kJ/mol
# Density = 2.001260 g / cm^3
# Si number density = 20.058251 Si / 1000 Ang^3
#
#
#
# Elastic Constant Matrix: (Units=GPa)
#
#
# Indices 1 2 3 4 5 6 
#
# 1 74.7615 37.9211 36.2433 0.0000 0.0000 0.0000
# 2 37.9211 122.5766 57.1652 0.0000 0.0000 0.0000
# 3 36.2433 57.1652 138.3171 0.0000 0.0000 0.0000
# 4 0.0000 0.0000 0.0000 34.7785 0.0000 0.0000
# 5 0.0000 0.0000 0.0000 0.0000 28.7283 0.0000
# 6 0.0000 0.0000 0.0000 0.0000 0.0000 -42.8176
#
#
#
# Elastic Compliance Matrix: (Units=1/GPa)
#
#
# Indices 1 2 3 4 5 6 
#
# 1 0.016682 -0.003868 -0.002773 0.000000 0.000000 0.000000
# 2 -0.003868 0.011003 -0.003534 0.000000 0.000000 0.000000
# 3 -0.002773 -0.003534 0.009417 0.000000 0.000000 0.000000
# 4 0.000000 0.000000 0.000000 0.028753 0.000000 0.000000
# 5 0.000000 0.000000 0.000000 0.000000 0.034809 0.000000
# 6 0.000000 0.000000 0.000000 0.000000 0.000000 -0.023355
#
#
# Mechanical properties :
#
#
# Convention : Reuss Voigt Hill
#
# Bulk Modulus (GPa) = 59.69124 66.47938 63.08531
# Shear Modulus (GPa) = 48.43006 17.75955 33.09480
#
# Velocity S-wave (km/s) = 4.91906 2.97879 4.06635
# Velocity P-wave (km/s) = 7.87949 6.71164 7.31889
#
# Compressibility (1/GPa) = 0.01675288
#
# Stress axis : x y z
#
# Youngs Moduli (GPa) = 59.94544 90.88602 106.19318
#
# Poissons Ratio (x) = 0.35152 0.29444
# Poissons Ratio (y) = 0.23185 0.37527
# Poissons Ratio (z) = 0.16621 0.32118
#
# Static dielectric constant tensor:
#      x y z
#    x 3.715630 0.000000 0.000000 
#    y 0.000000 3.995190 0.000000 
#    z 0.000000 0.000000 3.955810 
# 
# 
# High freq. dielectric constant tensor:
#      x y z
#    x 1.769980 0.000000 0.000000 
#    y 0.000000 1.801720 0.000000 
#    z 0.000000 0.000000 1.769650 
# 
# From -- ./inp_files/38742.got.cif
#   From: 2010.03.12/outbox.cif.g09.slc.cpg/sg70_20_cif.got.tgz:38742.got - 2010.04.16 13:46:32.
