data_PCOD8285408
_publ_section_title
;
Structure prediction by ZEFSAII (Michael W. Deem and Ramdas Pophale) SiO2 
 PCOD8285408
Probable space group: F M M M
;
_chemical_formula_sum "Si O2"
_cell_formula_units_Z 224
_cell_length_a 28.763869
_cell_length_b 20.726071
_cell_length_c 18.478914
_cell_angle_alpha 90.000000
_cell_angle_beta 90.000000
_cell_angle_gamma 90.000000
_cell_volume 11016.426164
_symmetry_space_group_name_H-M "F M M M"
_symmetry_group_IT_number 69
_symmetry_cell_setting 'orthorhombic'
loop_
_space_group_symop_operation_xyz
x,y,z
-x,-y,z
x,-y,-z
-x,y,-z
-x,-y,-z
x,y,-z
-x,y,z
x,-y,z
x,1/2+y,1/2+z
-x,1/2-y,1/2+z
x,1/2-y,1/2-z
-x,1/2+y,1/2-z
-x,1/2-y,1/2-z
x,1/2+y,1/2-z
-x,1/2+y,1/2+z
x,1/2-y,1/2+z
1/2+x,y,1/2+z
1/2-x,-y,1/2+z
1/2+x,-y,1/2-z
1/2-x,y,1/2-z
1/2-x,-y,1/2-z
1/2+x,y,1/2-z
1/2-x,y,1/2+z
1/2+x,-y,1/2+z
1/2+x,1/2+y,z
1/2-x,1/2-y,z
1/2+x,1/2-y,-z
1/2-x,1/2+y,-z
1/2-x,1/2-y,-z
1/2+x,1/2+y,-z
1/2-x,1/2+y,z
1/2+x,1/2-y,z
loop_
_atom_site_type_symbol
_atom_site_label
_atom_site_fract_x
_atom_site_fract_y
_atom_site_fract_z
Si Si1 0.403162 0.129625 0.918658
Si Si2 0.122999 0.575426 0.778115
Si Si3 0.889058 0.720270 0.580723
Si Si4 0.787147 0.073098 0.812757
Si Si5 0.944878 0.622889 0.670456
Si Si6 0.500000 0.428963 0.414952
Si Si7 0.216408 0.308489 0.584953
Si Si8 0.555065 0.500000 0.080121
O O1 0.366922 0.100368 0.860070
O O2 0.401295 0.205560 0.917971
O O3 0.454129 0.109049 0.891370
O O4 0.391542 0.103755 0.000000
O O5 0.114188 0.500000 0.781636
O O6 0.164287 0.593366 0.723562
O O7 0.076837 0.611894 0.749471
O O8 0.896578 0.692016 0.500000
O O9 0.924856 0.687314 0.635153
O O10 0.835896 0.711486 0.604624
O O11 0.750000 0.075023 0.750000
O O12 0.772580 0.124323 0.874290
O O13 0.789734 0.000000 0.845410
O O14 0.927510 0.563246 0.621315
O O15 0.000000 0.628097 0.677311
O O16 0.500000 0.500000 0.378255
O O17 0.500000 0.436726 0.500000
O O18 0.223868 0.320966 0.500000
O O19 0.250000 0.250000 0.611037
O O20 0.500000 0.500000 0.075688
O O21 0.577127 0.500000 0.000000
#
# Coordination Sequence:
#
# PCOD8285408 Si02
#       8
#    32  32  32  32  32  16  32  16
#     4  10  23  40  60  87 122 161 210 266 314 368
#     4  11  23  41  64  90 126 165 208 264 318 377
#     4  10  22  41  62  91 129 164 207 261 314 375
#     4  10  23  44  66  94 129 164 207 262 325 385
#     4  11  22  37  59  89 128 170 208 251 308 371
#     4   9  18  36  60  85 112 155 215 262 313 375
#     4  10  22  42  69  97 127 165 211 260 314 383
#     4   9  18  34  56  86 118 161 217 255 291 356
#
# _framework density 20.333272999999998
#
# number of rings (size 3 to 8) (size 9 to 14) (size 15 to 20)
#    0.000    1.857    2.143    0.857    4.000    2.857 
#    0.000    0.714    0.000    2.571    0.000    0.000 
#    0.000    0.000    0.000    0.000    0.000    0.000 
#
# Total GULP energy -694342.732885 kJ/mol
# GULP energy per Si atom -12398.977373 kJ/mol
# Density = 2.028699 g / cm^3
# Si number density = 20.333273 Si / 1000 Ang^3
#
#
#
# Elastic Constant Matrix: (Units=GPa)
#
#
# Indices 1 2 3 4 5 6 
#
# 1 85.4775 45.6538 34.0316 0.0000 0.0000 0.0000
# 2 45.6538 107.2795 51.0446 0.0000 0.0000 0.0000
# 3 34.0316 51.0446 104.4056 0.0000 0.0000 0.0000
# 4 0.0000 0.0000 0.0000 41.4923 0.0000 0.0000
# 5 0.0000 0.0000 0.0000 0.0000 22.7853 0.0000
# 6 0.0000 0.0000 0.0000 0.0000 0.0000 32.9411
#
#
#
# Elastic Compliance Matrix: (Units=1/GPa)
#
#
# Indices 1 2 3 4 5 6 
#
# 1 0.015587 -0.005494 -0.002395 0.000000 0.000000 0.000000
# 2 -0.005494 0.014083 -0.005095 0.000000 0.000000 0.000000
# 3 -0.002395 -0.005095 0.012849 0.000000 0.000000 0.000000
# 4 0.000000 0.000000 0.000000 0.024101 0.000000 0.000000
# 5 0.000000 0.000000 0.000000 0.000000 0.043888 0.000000
# 6 0.000000 0.000000 0.000000 0.000000 0.000000 0.030357
#
#
# Mechanical properties :
#
#
# Convention : Reuss Voigt Hill
#
# Bulk Modulus (GPa) = 60.41092 62.06918 61.24005
# Shear Modulus (GPa) = 29.01085 30.53926 29.77505
#
# Velocity S-wave (km/s) = 3.78135 3.87969 3.83084
# Velocity P-wave (km/s) = 6.98854 7.11769 7.05341
#
# Compressibility (1/GPa) = 0.01655330
#
# Stress axis : x y z
#
# Youngs Moduli (GPa) = 64.15803 71.00532 77.82415
#
# Poissons Ratio (x) = 0.39007 0.18636
# Poissons Ratio (y) = 0.35246 0.39650
# Poissons Ratio (z) = 0.15364 0.36176
#
# Static dielectric constant tensor:
#      x y z
#    x 3.866810 0.000000 0.000000 
#    y 0.000000 3.716800 0.000000 
#    z 0.000000 0.000000 3.895970 
# 
# 
# High freq. dielectric constant tensor:
#      x y z
#    x 1.788900 0.000000 0.000000 
#    y 0.000000 1.797750 0.000000 
#    z 0.000000 0.000000 1.795270 
# 
# From -- ./inp_files/27960.got.cif
#   From: 2010.03.12/outbox.cif.g09.slc.cpg/sg69_14_cif.got.tgz:27960.got - 2010.04.10 23:52:46.
