data_PCOD8285550
_publ_section_title
;
Structure prediction by ZEFSAII (Michael W. Deem and Ramdas Pophale) SiO2 
 PCOD8285550
Probable space group: F M M M
;
_chemical_formula_sum "Si O2"
_cell_formula_units_Z 176
_cell_length_a 18.229151
_cell_length_b 16.353028
_cell_length_c 27.618061
_cell_angle_alpha 90.000000
_cell_angle_beta 90.000000
_cell_angle_gamma 90.000000
_cell_volume 8232.994158
_symmetry_space_group_name_H-M "F M M M"
_symmetry_group_IT_number 69
_symmetry_cell_setting 'orthorhombic'
loop_
_space_group_symop_operation_xyz
x,y,z
-x,-y,z
x,-y,-z
-x,y,-z
-x,-y,-z
x,y,-z
-x,y,z
x,-y,z
x,1/2+y,1/2+z
-x,1/2-y,1/2+z
x,1/2-y,1/2-z
-x,1/2+y,1/2-z
-x,1/2-y,1/2-z
x,1/2+y,1/2-z
-x,1/2+y,1/2+z
x,1/2-y,1/2+z
1/2+x,y,1/2+z
1/2-x,-y,1/2+z
1/2+x,-y,1/2-z
1/2-x,y,1/2-z
1/2-x,-y,1/2-z
1/2+x,y,1/2-z
1/2-x,y,1/2+z
1/2+x,-y,1/2+z
1/2+x,1/2+y,z
1/2-x,1/2-y,z
1/2+x,1/2-y,-z
1/2-x,1/2+y,-z
1/2-x,1/2-y,-z
1/2+x,1/2+y,-z
1/2-x,1/2+y,z
1/2+x,1/2-y,z
loop_
_atom_site_type_symbol
_atom_site_label
_atom_site_fract_x
_atom_site_fract_y
_atom_site_fract_z
Si Si1 0.085154 0.340716 0.731049
Si Si2 0.676899 0.301873 0.944812
Si Si3 0.673503 0.905435 0.351795
Si Si4 0.834778 0.592199 0.817095
Si Si5 0.087338 0.000000 0.553452
Si Si6 0.913713 0.834090 0.600606
O O1 0.098578 0.250000 0.750000
O O2 0.110714 0.352470 0.675314
O O3 0.137349 0.401117 0.761993
O O4 0.000000 0.365758 0.735667
O O5 0.750000 0.250000 0.939006
O O6 0.679791 0.377335 0.907698
O O7 0.609220 0.243171 0.931254
O O8 0.666876 0.333831 0.000000
O O9 0.748787 0.890252 0.322648
O O10 0.650971 0.000000 0.352264
O O11 0.852875 0.500000 0.835390
O O12 0.878859 0.663075 0.845999
O O13 0.117482 0.082510 0.577202
O O14 0.119650 0.000000 0.500000
O O15 0.000000 0.000000 0.554145
O O16 0.000000 0.832885 0.605808
#
# Coordination Sequence:
#
# PCOD8285550 Si02
#       6
#    32  32  32  32  16  32
#     4  11  25  42  65  97 131 173 222 272 327 386
#     4  11  24  43  66  92 126 173 222 272 332 392
#     4  11  25  44  66  96 132 175 224 273 329 397
#     4  11  22  39  63  94 130 170 211 259 324 397
#     4   9  18  32  52  86 129 164 197 253 327 392
#     4  11  21  36  61  94 128 166 213 267 328 396
#
# _framework density 21.377399
#
# number of rings (size 3 to 8) (size 9 to 14) (size 15 to 20)
#    0.000    1.182    2.727    3.273    0.000    8.000 
#    0.000    0.000    0.000    0.000    0.000    2.545 
#    0.000    0.000    0.000    0.000    0.000    0.000 
#
# Total GULP energy -545675.330837 kJ/mol
# GULP energy per Si atom -12401.712064 kJ/mol
# Density = 2.132874 g / cm^3
# Si number density = 21.377399 Si / 1000 Ang^3
#
#
#
# Elastic Constant Matrix: (Units=GPa)
#
#
# Indices 1 2 3 4 5 6 
#
# 1 89.4117 47.6685 39.9794 0.0000 0.0000 0.0000
# 2 47.6685 88.3794 40.5000 0.0000 0.0000 0.0000
# 3 39.9794 40.5000 135.3111 0.0000 0.0000 0.0000
# 4 0.0000 0.0000 0.0000 33.4760 0.0000 0.0000
# 5 0.0000 0.0000 0.0000 0.0000 29.0107 0.0000
# 6 0.0000 0.0000 0.0000 0.0000 0.0000 28.2381
#
#
#
# Elastic Compliance Matrix: (Units=1/GPa)
#
#
# Indices 1 2 3 4 5 6 
#
# 1 0.016425 -0.007690 -0.002551 0.000000 0.000000 0.000000
# 2 -0.007690 0.016714 -0.002731 0.000000 0.000000 0.000000
# 3 -0.002551 -0.002731 0.008961 0.000000 0.000000 0.000000
# 4 0.000000 0.000000 0.000000 0.029872 0.000000 0.000000
# 5 0.000000 0.000000 0.000000 0.000000 0.034470 0.000000
# 6 0.000000 0.000000 0.000000 0.000000 0.000000 0.035413
#
#
# Mechanical properties :
#
#
# Convention : Reuss Voigt Hill
#
# Bulk Modulus (GPa) = 61.89370 63.26644 62.58007
# Shear Modulus (GPa) = 28.87109 30.47526 29.67317
#
# Velocity S-wave (km/s) = 3.67896 3.77979 3.72971
# Velocity P-wave (km/s) = 6.86018 6.97913 6.91991
#
# Compressibility (1/GPa) = 0.01615673
#
# Stress axis : x y z
#
# Youngs Moduli (GPa) = 60.88421 59.83131 111.58897
#
# Poissons Ratio (x) = 0.46008 0.28469
# Poissons Ratio (y) = 0.46818 0.30470
# Poissons Ratio (z) = 0.15533 0.16337
#
# Static dielectric constant tensor:
#      x y z
#    x 3.675850 0.000000 0.000000 
#    y 0.000000 3.804910 0.000000 
#    z 0.000000 0.000000 4.044080 
# 
# 
# High freq. dielectric constant tensor:
#      x y z
#    x 1.829360 0.000000 0.000000 
#    y 0.000000 1.833330 0.000000 
#    z 0.000000 0.000000 1.847100 
# 
# From -- ./inp_files/41852.got.cif
#   From: 2010.03.12/outbox.cif.g09.slc.cpg/sg69_21_cif.got.tgz:41852.got - 2010.04.10 23:52:46.
