data_PCOD8285896
_publ_section_title
;
Structure prediction by ZEFSAII (Michael W. Deem and Ramdas Pophale) SiO2 
 PCOD8285896
Probable space group: F D D D
;
_chemical_formula_sum "Si O2"
_cell_formula_units_Z 176
_cell_length_a 16.777078
_cell_length_b 17.064634
_cell_length_c 30.328998
_cell_angle_alpha 90.000000
_cell_angle_beta 90.000000
_cell_angle_gamma 90.000000
_cell_volume 8683.031252
_symmetry_space_group_name_H-M "F D D D"
_symmetry_group_IT_number 70
_space_group.IT_coordinate_system_code '2'
_symmetry_cell_setting 'orthorhombic'
loop_
_space_group_symop_operation_xyz
x,y,z
1/4-x,1/4-y,z
x,1/4-y,1/4-z
1/4-x,y,1/4-z
-x,-y,-z
3/4+x,3/4+y,-z
-x,3/4+y,3/4+z
3/4+x,-y,3/4+z
x,1/2+y,1/2+z
1/4-x,3/4-y,1/2+z
x,3/4-y,3/4-z
1/4-x,1/2+y,3/4-z
-x,1/2-y,1/2-z
3/4+x,1/4+y,1/2-z
-x,1/4+y,1/4+z
3/4+x,1/2-y,1/4+z
1/2+x,y,1/2+z
3/4-x,1/4-y,1/2+z
1/2+x,1/4-y,3/4-z
3/4-x,y,3/4-z
1/2-x,-y,1/2-z
1/4+x,3/4+y,1/2-z
1/2-x,3/4+y,1/4+z
1/4+x,-y,1/4+z
1/2+x,1/2+y,z
3/4-x,3/4-y,z
1/2+x,3/4-y,1/4-z
3/4-x,1/2+y,1/4-z
1/2-x,1/2-y,-z
1/4+x,1/4+y,-z
1/2-x,1/4+y,3/4+z
1/4+x,1/2-y,3/4+z
loop_
_atom_site_type_symbol
_atom_site_label
_atom_site_fract_x
_atom_site_fract_y
_atom_site_fract_z
Si Si1 0.875000 0.375000 0.782352
Si Si2 0.298623 0.058622 0.187118
Si Si3 0.747858 0.077283 0.960245
Si Si4 0.605666 0.777847 0.409393
Si Si5 0.479846 0.246019 0.301542
Si Si6 0.387440 0.785740 0.269397
O O1 0.796484 0.346557 0.756007
O O2 0.846932 0.449329 0.811699
O O3 0.314997 0.151524 0.187095
O O4 0.335572 0.027359 0.141998
O O5 0.204530 0.039293 0.192050
O O6 0.340858 0.017997 0.228111
O O7 0.790013 0.154511 0.939495
O O8 0.676967 0.053489 0.927701
O O9 0.808918 0.004761 0.961332
O O10 0.700123 0.778725 0.417296
O O11 0.500000 0.250000 0.250000
O O12 0.375000 0.875000 0.253028
#
# Coordination Sequence:
#
# PCOD8285896 Si02
#       6
#    16  32  32  32  32  32
#     4  10  20  34  62  99 124 162 206 266 312 393
#     4  10  24  39  61  89 128 167 209 265 327 379
#     4  11  20  34  63  90 122 162 212 262 309 387
#     4  11  20  40  63  93 125 167 213 265 326 386
#     4  10  19  35  62  96 121 163 213 254 325 390
#     4  11  23  40  60  90 124 170 218 258 317 387
#
# _framework density 20.269418999999999
#
# number of rings (size 3 to 8) (size 9 to 14) (size 15 to 20)
#    0.000    1.455    5.455    2.182    0.000    2.182 
#    0.000    0.000    0.000   15.273    0.000    0.000 
#    0.000    0.000    0.000    0.000    0.000    0.000 
#
# Total GULP energy -545247.167333 kJ/mol
# GULP energy per Si atom -12391.981076 kJ/mol
# Density = 2.022328 g / cm^3
# Si number density = 20.269419 Si / 1000 Ang^3
#
#
#
# Elastic Constant Matrix: (Units=GPa)
#
#
# Indices 1 2 3 4 5 6 
#
# 1 108.8699 48.5451 25.8863 0.0000 0.0000 0.0000
# 2 48.5451 139.8528 25.5293 0.0000 0.0000 0.0000
# 3 25.8863 25.5293 77.3652 0.0000 0.0000 0.0000
# 4 0.0000 0.0000 0.0000 13.4883 0.0000 0.0000
# 5 0.0000 0.0000 0.0000 0.0000 26.7771 0.0000
# 6 0.0000 0.0000 0.0000 0.0000 0.0000 47.3767
#
#
#
# Elastic Compliance Matrix: (Units=1/GPa)
#
#
# Indices 1 2 3 4 5 6 
#
# 1 0.011359 -0.003457 -0.002660 0.000000 0.000000 0.000000
# 2 -0.003457 0.008661 -0.001701 0.000000 0.000000 0.000000
# 3 -0.002660 -0.001701 0.014377 0.000000 0.000000 0.000000
# 4 0.000000 0.000000 0.000000 0.074139 0.000000 0.000000
# 5 0.000000 0.000000 0.000000 0.000000 0.037345 0.000000
# 6 0.000000 0.000000 0.000000 0.000000 0.000000 0.021107
#
#
# Mechanical properties :
#
#
# Convention : Reuss Voigt Hill
#
# Bulk Modulus (GPa) = 53.30367 58.44548 55.87457
# Shear Modulus (GPa) = 26.47191 32.60356 29.53774
#
# Velocity S-wave (km/s) = 3.61779 4.01497 3.82154
# Velocity P-wave (km/s) = 6.61860 7.09861 6.86280
#
# Compressibility (1/GPa) = 0.01876043
#
# Stress axis : x y z
#
# Youngs Moduli (GPa) = 88.03262 115.45946 69.55518
#
# Poissons Ratio (x) = 0.39920 0.18501
# Poissons Ratio (y) = 0.30437 0.11832
# Poissons Ratio (z) = 0.23416 0.19641
#
# Static dielectric constant tensor:
#      x y z
#    x 3.829740 0.000000 0.000000 
#    y 0.000000 4.500250 0.000000 
#    z 0.000000 0.000000 3.296000 
# 
# 
# High freq. dielectric constant tensor:
#      x y z
#    x 1.793030 0.000000 0.000000 
#    y 0.000000 1.818080 0.000000 
#    z 0.000000 0.000000 1.751760 
# 
# From -- ./inp_files/59450.got.cif
#   From: 2010.03.12/outbox.cif.g09.slc.cpg/sg70_30_cif.got.tgz:59450.got - 2010.04.16 13:46:32.
