data_PCOD8285659
_publ_section_title
;
Structure prediction by ZEFSAII (Michael W. Deem and Ramdas Pophale) SiO2 
 PCOD8285659
Probable space group: F M M M
;
_chemical_formula_sum "Si O2"
_cell_formula_units_Z 88
_cell_length_a 13.960407
_cell_length_b 13.099523
_cell_length_c 18.316493
_cell_angle_alpha 90.000000
_cell_angle_beta 90.000000
_cell_angle_gamma 90.000000
_cell_volume 3349.622660
_symmetry_space_group_name_H-M "F M M M"
_symmetry_group_IT_number 69
_symmetry_cell_setting 'orthorhombic'
loop_
_space_group_symop_operation_xyz
x,y,z
-x,-y,z
x,-y,-z
-x,y,-z
-x,-y,-z
x,y,-z
-x,y,z
x,-y,z
x,1/2+y,1/2+z
-x,1/2-y,1/2+z
x,1/2-y,1/2-z
-x,1/2+y,1/2-z
-x,1/2-y,1/2-z
x,1/2+y,1/2-z
-x,1/2+y,1/2+z
x,1/2-y,1/2+z
1/2+x,y,1/2+z
1/2-x,-y,1/2+z
1/2+x,-y,1/2-z
1/2-x,y,1/2-z
1/2-x,-y,1/2-z
1/2+x,y,1/2-z
1/2-x,y,1/2+z
1/2+x,-y,1/2+z
1/2+x,1/2+y,z
1/2-x,1/2-y,z
1/2+x,1/2-y,-z
1/2-x,1/2+y,-z
1/2-x,1/2-y,-z
1/2+x,1/2+y,-z
1/2-x,1/2+y,z
1/2+x,1/2-y,z
loop_
_atom_site_type_symbol
_atom_site_label
_atom_site_fract_x
_atom_site_fract_y
_atom_site_fract_z
Si Si1 0.000000 0.277630 0.580220
Si Si2 0.224323 0.000000 0.916256
Si Si3 0.867071 0.500000 0.740531
Si Si4 0.169326 0.674336 0.160043
Si Si5 0.500000 0.000000 0.380225
O O1 0.095026 0.247007 0.620976
O O2 0.000000 0.228593 0.500000
O O3 0.000000 0.399891 0.571163
O O4 0.285442 0.100373 0.901834
O O5 0.131013 0.000000 0.857725
O O6 0.186299 0.000000 0.000000
O O7 0.750000 0.500000 0.750000
O O8 0.887840 0.609064 0.779020
O O9 0.000000 0.500000 0.709020
O O10 0.250000 0.750000 0.192845
#
# Coordination Sequence:
#
# PCOD8285659 Si02
#       5
#    16  16  16  32   8
#     4  12  28  47  71 104 143 184 229 289 351 410
#     4  11  25  43  68 103 140 181 233 287 344 412
#     4  11  26  46  72 106 141 183 234 289 344 410
#     4  11  25  47  74 102 139 187 235 282 344 416
#     4  12  27  42  66 102 143 182 234 286 345 420
#
# _framework density 26.271616999999999
#
# number of rings (size 3 to 8) (size 9 to 14) (size 15 to 20)
#    0.000    0.727    0.000    6.818    0.000   22.545 
#    0.000    4.545    0.000    0.000    0.000    0.000 
#    0.000    0.000    0.000    0.364    0.000    0.000 
#
# Total GULP energy -272662.466725 kJ/mol
# GULP energy per Si atom -12393.748488 kJ/mol
# Density = 2.621182 g / cm^3
# Si number density = 26.271617 Si / 1000 Ang^3
#
#
#
# Elastic Constant Matrix: (Units=GPa)
#
#
# Indices 1 2 3 4 5 6 
#
# 1 147.3427 57.2847 68.6984 0.0000 0.0000 0.0000
# 2 57.2847 174.7608 50.3410 0.0000 0.0000 0.0000
# 3 68.6984 50.3410 189.2931 0.0000 0.0000 0.0000
# 4 0.0000 0.0000 0.0000 27.8028 0.0000 0.0000
# 5 0.0000 0.0000 0.0000 0.0000 19.3463 0.0000
# 6 0.0000 0.0000 0.0000 0.0000 0.0000 -301.6954
#
#
#
# Elastic Compliance Matrix: (Units=1/GPa)
#
#
# Indices 1 2 3 4 5 6 
#
# 1 0.008851 -0.002140 -0.002643 0.000000 0.000000 0.000000
# 2 -0.002140 0.006714 -0.001009 0.000000 0.000000 0.000000
# 3 -0.002643 -0.001009 0.006510 0.000000 0.000000 0.000000
# 4 0.000000 0.000000 0.000000 0.035968 0.000000 0.000000
# 5 0.000000 0.000000 0.000000 0.000000 0.051690 0.000000
# 6 0.000000 0.000000 0.000000 0.000000 0.000000 -0.003315
#
#
# Mechanical properties :
#
#
# Convention : Reuss Voigt Hill
#
# Bulk Modulus (GPa) = 95.31390 96.00496 95.65943
# Shear Modulus (GPa) = 41.15229 -28.57111 6.29059
#
# Velocity S-wave (km/s) = 3.96209 -3.30135 1.54908
# Velocity P-wave (km/s) = 7.56900 4.70008 6.30002
#
# Compressibility (1/GPa) = 0.01049165
#
# Stress axis : x y z
#
# Youngs Moduli (GPa) = 112.97803 148.93809 153.60014
#
# Poissons Ratio (x) = 0.31872 0.40600
# Poissons Ratio (y) = 0.24177 0.15497
# Poissons Ratio (z) = 0.29862 0.15027
#
# Static dielectric constant tensor:
#      x y z
#    x 3.499070 0.000000 0.000000 
#    y 0.000000 5.028810 0.000000 
#    z 0.000000 0.000000 5.221580 
# 
# 
# High freq. dielectric constant tensor:
#      x y z
#    x 2.113820 0.000000 0.000000 
#    y 0.000000 2.069040 0.000000 
#    z 0.000000 0.000000 2.057710 
# 
# From -- ./inp_files/7029.got.cif
#   From: 2010.03.12/outbox.cif.g09.slc.cpg/sg69_4_cif.got.tgz:7029.got - 2010.04.10 23:52:46.
