data_PCOD8285507
_publ_section_title
;
Structure prediction by ZEFSAII (Michael W. Deem and Ramdas Pophale) SiO2 
 PCOD8285507
Probable space group: F M M M
;
_chemical_formula_sum "Si O2"
_cell_formula_units_Z 96
_cell_length_a 25.259279
_cell_length_b 14.207075
_cell_length_c 14.129210
_cell_angle_alpha 90.000000
_cell_angle_beta 90.000000
_cell_angle_gamma 90.000000
_cell_volume 5070.414958
_symmetry_space_group_name_H-M "F M M M"
_symmetry_group_IT_number 69
_symmetry_cell_setting 'orthorhombic'
loop_
_space_group_symop_operation_xyz
x,y,z
-x,-y,z
x,-y,-z
-x,y,-z
-x,-y,-z
x,y,-z
-x,y,z
x,-y,z
x,1/2+y,1/2+z
-x,1/2-y,1/2+z
x,1/2-y,1/2-z
-x,1/2+y,1/2-z
-x,1/2-y,1/2-z
x,1/2+y,1/2-z
-x,1/2+y,1/2+z
x,1/2-y,1/2+z
1/2+x,y,1/2+z
1/2-x,-y,1/2+z
1/2+x,-y,1/2-z
1/2-x,y,1/2-z
1/2-x,-y,1/2-z
1/2+x,y,1/2-z
1/2-x,y,1/2+z
1/2+x,-y,1/2+z
1/2+x,1/2+y,z
1/2-x,1/2-y,z
1/2+x,1/2-y,-z
1/2-x,1/2+y,-z
1/2-x,1/2-y,-z
1/2+x,1/2+y,-z
1/2-x,1/2+y,z
1/2+x,1/2-y,z
loop_
_atom_site_type_symbol
_atom_site_label
_atom_site_fract_x
_atom_site_fract_y
_atom_site_fract_z
Si Si1 0.938521 0.500000 0.859909
Si Si2 0.562654 0.858835 0.500000
Si Si3 0.396797 0.351977 0.500000
Si Si4 0.272056 0.647244 0.500000
Si Si5 0.212910 0.500000 0.599842
Si Si6 0.898124 0.000000 0.151256
O O1 0.914063 0.406382 0.905632
O O2 0.929011 0.500000 0.748818
O O3 0.000000 0.500000 0.882469
O O4 0.500000 0.873133 0.500000
O O5 0.577257 0.749979 0.500000
O O6 0.586257 0.906171 0.594374
O O7 0.334212 0.346098 0.500000
O O8 0.250000 0.750000 0.500000
O O9 0.251198 0.592331 0.595389
O O10 0.179639 0.500000 0.500000
O O11 0.165833 0.500000 0.676713
#
# Coordination Sequence:
#
# PCOD8285507 Si02
#       6
#    16  16  16  16  16  16
#     4  11  23  39  57  83 119 153 189 228 278 336
#     4  11  20  35  58  82 110 147 192 233 280 330
#     4  11  22  39  58  82 114 157 188 229 276 336
#     4   9  16  33  58  80 106 145 184 229 280 328
#     4   8  16  30  54  81 103 133 180 225 277 329
#     4  11  20  37  58  86 112 145 184 239 284 332
#
# _framework density 18.933361999999999
#
# number of rings (size 3 to 8) (size 9 to 14) (size 15 to 20)
#    1.000    0.667    1.667    8.000    0.000    1.333 
#    0.000    6.667    0.000    2.000    0.000    0.000 
#    0.000    0.000    0.000    0.000    0.000    0.000 
#
# Total GULP energy -297346.753028 kJ/mol
# GULP energy per Si atom -12389.448043 kJ/mol
# Density = 1.889027 g / cm^3
# Si number density = 18.933362 Si / 1000 Ang^3
#
#
#
# Elastic Constant Matrix: (Units=GPa)
#
#
# Indices 1 2 3 4 5 6 
#
# 1 105.2364 13.4504 17.0071 0.0000 0.0000 0.0000
# 2 13.4504 156.0233 40.5725 0.0000 0.0000 0.0000
# 3 17.0071 40.5725 95.3467 0.0000 0.0000 0.0000
# 4 0.0000 0.0000 0.0000 10.7766 0.0000 0.0000
# 5 0.0000 0.0000 0.0000 0.0000 89.4068 0.0000
# 6 0.0000 0.0000 0.0000 0.0000 0.0000 37.2687
#
#
#
# Elastic Compliance Matrix: (Units=1/GPa)
#
#
# Indices 1 2 3 4 5 6 
#
# 1 0.009811 -0.000439 -0.001563 0.000000 0.000000 0.000000
# 2 -0.000439 0.007226 -0.002997 0.000000 0.000000 0.000000
# 3 -0.001563 -0.002997 0.012042 0.000000 0.000000 0.000000
# 4 0.000000 0.000000 0.000000 0.092794 0.000000 0.000000
# 5 0.000000 0.000000 0.000000 0.000000 0.011185 0.000000
# 6 0.000000 0.000000 0.000000 0.000000 0.000000 0.026832
#
#
# Mechanical properties :
#
#
# Convention : Reuss Voigt Hill
#
# Bulk Modulus (GPa) = 52.40695 55.40739 53.90717
# Shear Modulus (GPa) = 28.36897 46.52886 37.44892
#
# Velocity S-wave (km/s) = 3.87506 4.96270 4.45222
# Velocity P-wave (km/s) = 6.91095 7.88453 7.41374
#
# Compressibility (1/GPa) = 0.01908144
#
# Stress axis : x y z
#
# Youngs Moduli (GPa) = 101.92463 138.38089 83.04260
#
# Poissons Ratio (x) = 0.06080 0.12980
# Poissons Ratio (y) = 0.04478 0.24885
# Poissons Ratio (z) = 0.15932 0.41468
#
# Static dielectric constant tensor:
#      x y z
#    x 3.606390 0.000000 0.000000 
#    y 0.000000 3.500620 0.000000 
#    z 0.000000 0.000000 3.115970 
# 
# 
# High freq. dielectric constant tensor:
#      x y z
#    x 1.764510 0.000000 0.000000 
#    y 0.000000 1.742230 0.000000 
#    z 0.000000 0.000000 1.696980 
# 
# From -- ./inp_files/17217.got.cif
#   From: 2010.03.12/outbox.cif.g09.slc.cpg/sg69_9_cif.got.tgz:17217.got - 2010.04.10 23:52:46.
