data_PCOD8285644
_publ_section_title
;
Structure prediction by ZEFSAII (Michael W. Deem and Ramdas Pophale) SiO2 
 PCOD8285644
Probable space group: F M M M
;
_chemical_formula_sum "Si O2"
_cell_formula_units_Z 112
_cell_length_a 28.848229
_cell_length_b 9.103997
_cell_length_c 20.964527
_cell_angle_alpha 90.000000
_cell_angle_beta 90.000000
_cell_angle_gamma 90.000000
_cell_volume 5506.001573
_symmetry_space_group_name_H-M "F M M M"
_symmetry_group_IT_number 69
_symmetry_cell_setting 'orthorhombic'
loop_
_space_group_symop_operation_xyz
x,y,z
-x,-y,z
x,-y,-z
-x,y,-z
-x,-y,-z
x,y,-z
-x,y,z
x,-y,z
x,1/2+y,1/2+z
-x,1/2-y,1/2+z
x,1/2-y,1/2-z
-x,1/2+y,1/2-z
-x,1/2-y,1/2-z
x,1/2+y,1/2-z
-x,1/2+y,1/2+z
x,1/2-y,1/2+z
1/2+x,y,1/2+z
1/2-x,-y,1/2+z
1/2+x,-y,1/2-z
1/2-x,y,1/2-z
1/2-x,-y,1/2-z
1/2+x,y,1/2-z
1/2-x,y,1/2+z
1/2+x,-y,1/2+z
1/2+x,1/2+y,z
1/2-x,1/2-y,z
1/2+x,1/2-y,-z
1/2-x,1/2+y,-z
1/2-x,1/2-y,-z
1/2+x,1/2+y,-z
1/2-x,1/2+y,z
1/2+x,1/2-y,z
loop_
_atom_site_type_symbol
_atom_site_label
_atom_site_fract_x
_atom_site_fract_y
_atom_site_fract_z
Si Si1 0.297997 0.827839 0.571692
Si Si2 0.945566 0.328548 0.862051
Si Si3 0.861996 0.826798 0.188083
Si Si4 0.449742 0.172763 0.000000
O O1 0.315432 0.785641 0.500000
O O2 0.250000 0.750000 0.587535
O O3 0.335003 0.776278 0.624430
O O4 0.289159 0.000000 0.576778
O O5 0.936903 0.500000 0.847893
O O6 0.915154 0.230068 0.814864
O O7 0.000000 0.290859 0.854359
O O8 0.925985 0.283842 0.933086
O O9 0.838732 0.750000 0.250000
O O10 0.861353 0.000000 0.197484
O O11 0.500000 0.249236 0.000000
O O12 0.457479 0.000000 0.000000
#
# Coordination Sequence:
#
# PCOD8285644 Si02
#       4
#    32  32  32  16
#     4   9  20  40  64  89 115 145 184 232 286 343
#     4   9  18  34  56  82 114 152 195 239 283 336
#     4  11  24  39  57  83 118 155 193 237 285 341
#     4   7  12  26  49  77 106 137 178 229 280 329
#
# _framework density 20.341439999999999
#
# number of rings (size 3 to 8) (size 9 to 14) (size 15 to 20)
#    0.000    2.714    0.000    2.571    2.000    4.000 
#    0.000    2.857    0.000    2.571    0.000    0.000 
#    0.000    0.000    0.000    0.000    0.000    0.000 
#
# Total GULP energy -346915.123305 kJ/mol
# GULP energy per Si atom -12389.825832 kJ/mol
# Density = 2.029514 g / cm^3
# Si number density = 20.341440 Si / 1000 Ang^3
#
#
#
# Elastic Constant Matrix: (Units=GPa)
#
#
# Indices 1 2 3 4 5 6 
#
# 1 90.0324 40.7042 67.8350 0.0000 0.0000 0.0000
# 2 40.7042 58.0495 53.5321 0.0000 0.0000 0.0000
# 3 67.8350 53.5321 142.3422 0.0000 0.0000 0.0000
# 4 0.0000 0.0000 0.0000 28.6434 0.0000 0.0000
# 5 0.0000 0.0000 0.0000 0.0000 21.0637 0.0000
# 6 0.0000 0.0000 0.0000 0.0000 0.0000 29.5302
#
#
#
# Elastic Compliance Matrix: (Units=1/GPa)
#
#
# Indices 1 2 3 4 5 6 
#
# 1 0.019373 -0.007763 -0.006313 0.000000 0.000000 0.000000
# 2 -0.007763 0.029484 -0.007389 0.000000 0.000000 0.000000
# 3 -0.006313 -0.007389 0.012813 0.000000 0.000000 0.000000
# 4 0.000000 0.000000 0.000000 0.034912 0.000000 0.000000
# 5 0.000000 0.000000 0.000000 0.000000 0.047475 0.000000
# 6 0.000000 0.000000 0.000000 0.000000 0.000000 0.033864
#
#
# Mechanical properties :
#
#
# Convention : Reuss Voigt Hill
#
# Bulk Modulus (GPa) = 53.36073 68.28520 60.82297
# Shear Modulus (GPa) = 22.01702 24.40429 23.21066
#
# Velocity S-wave (km/s) = 3.29351 3.46747 3.38161
# Velocity P-wave (km/s) = 6.38376 7.04795 6.72406
#
# Compressibility (1/GPa) = 0.01874037
#
# Stress axis : x y z
#
# Youngs Moduli (GPa) = 51.61717 33.91708 78.04689
#
# Poissons Ratio (x) = 0.26328 0.49273
# Poissons Ratio (y) = 0.40068 0.57668
# Poissons Ratio (z) = 0.32587 0.25061
#
# Static dielectric constant tensor:
#      x y z
#    x 3.433310 0.000000 0.000000 
#    y 0.000000 3.362870 0.000000 
#    z 0.000000 0.000000 4.218340 
# 
# 
# High freq. dielectric constant tensor:
#      x y z
#    x 1.773790 0.000000 0.000000 
#    y 0.000000 1.771350 0.000000 
#    z 0.000000 0.000000 1.814580 
# 
# From -- ./inp_files/3682.got.cif
#   From: 2010.03.12/outbox.cif.g09.slc.cpg/sg69_2_cif.got.tgz:3682.got - 2010.04.10 23:52:46.
