data_PCOD8285968
_publ_section_title
;
Structure prediction by ZEFSAII (Michael W. Deem and Ramdas Pophale) SiO2 
 PCOD8285968
Probable space group: F D D D
;
_chemical_formula_sum "Si O2"
_cell_formula_units_Z 240
_cell_length_a 28.045508
_cell_length_b 13.927798
_cell_length_c 30.496672
_cell_angle_alpha 90.000000
_cell_angle_beta 90.000000
_cell_angle_gamma 90.000000
_cell_volume 11912.371235
_symmetry_space_group_name_H-M "F D D D"
_symmetry_group_IT_number 70
_space_group.IT_coordinate_system_code '2'
_symmetry_cell_setting 'orthorhombic'
loop_
_space_group_symop_operation_xyz
x,y,z
1/4-x,1/4-y,z
x,1/4-y,1/4-z
1/4-x,y,1/4-z
-x,-y,-z
3/4+x,3/4+y,-z
-x,3/4+y,3/4+z
3/4+x,-y,3/4+z
x,1/2+y,1/2+z
1/4-x,3/4-y,1/2+z
x,3/4-y,3/4-z
1/4-x,1/2+y,3/4-z
-x,1/2-y,1/2-z
3/4+x,1/4+y,1/2-z
-x,1/4+y,1/4+z
3/4+x,1/2-y,1/4+z
1/2+x,y,1/2+z
3/4-x,1/4-y,1/2+z
1/2+x,1/4-y,3/4-z
3/4-x,y,3/4-z
1/2-x,-y,1/2-z
1/4+x,3/4+y,1/2-z
1/2-x,3/4+y,1/4+z
1/4+x,-y,1/4+z
1/2+x,1/2+y,z
3/4-x,3/4-y,z
1/2+x,3/4-y,1/4-z
3/4-x,1/2+y,1/4-z
1/2-x,1/2-y,-z
1/4+x,1/4+y,-z
1/2-x,1/4+y,3/4+z
1/4+x,1/2-y,3/4+z
loop_
_atom_site_type_symbol
_atom_site_label
_atom_site_fract_x
_atom_site_fract_y
_atom_site_fract_z
Si Si1 0.566328 0.833728 0.328462
Si Si2 0.086454 0.841544 0.228539
Si Si3 0.939316 0.550265 0.756290
Si Si4 0.429549 0.351441 0.222275
Si Si5 0.168836 0.277954 0.309369
Si Si6 0.233781 0.105777 0.315410
Si Si7 0.261648 0.125000 0.625000
Si Si8 0.512272 0.926074 0.094251
O O1 0.549192 0.875000 0.375000
O O2 0.568939 0.920625 0.294252
O O3 0.618130 0.785638 0.333446
O O4 0.529114 0.755555 0.309976
O O5 0.141549 0.822614 0.215865
O O6 0.065071 0.747918 0.252068
O O7 0.083283 0.935414 0.259239
O O8 0.056128 0.861444 0.184884
O O9 0.949296 0.435750 0.754508
O O10 0.982647 0.608847 0.776277
O O11 0.375000 0.375000 0.208512
O O12 0.461344 0.341676 0.178896
O O13 0.185267 0.167627 0.312143
O O14 0.206542 0.343002 0.334438
O O15 0.261401 0.115501 0.361268
O O16 0.229352 0.212472 0.607360
#
# Coordination Sequence:
#
# PCOD8285968 Si02
#       8
#    32  32  32  32  32  32  16  32
#     4  11  22  40  62  86 112 150 195 248 300 356
#     4  10  21  37  59  83 117 159 195 235 286 356
#     4  10  23  39  58  82 117 155 195 244 291 338
#     4  10  20  35  58  86 116 153 195 239 296 354
#     4  10  20  36  58  86 117 145 186 241 303 348
#     4  11  24  37  57  86 119 152 192 243 297 352
#     4  10  20  30  50  85 116 150 176 241 280 342
#     4  11  22  33  56  83 119 155 196 227 286 349
#
# _framework density 20.147122
#
# number of rings (size 3 to 8) (size 9 to 14) (size 15 to 20)
#    0.000    1.600    2.000    2.800    3.733    2.667 
#    0.000    0.000    0.000    0.000    0.000    2.800 
#    0.000    0.000    0.000    0.000    0.000    0.000 
#
# Total GULP energy -744146.720430 kJ/mol
# GULP energy per Si atom -12402.445341 kJ/mol
# Density = 2.010127 g / cm^3
# Si number density = 20.147122 Si / 1000 Ang^3
#
#
#
# Elastic Constant Matrix: (Units=GPa)
#
#
# Indices 1 2 3 4 5 6 
#
# 1 55.7571 20.4120 20.0395 0.0000 0.0000 0.0000
# 2 20.4120 81.0453 14.0219 0.0000 0.0000 0.0000
# 3 20.0395 14.0219 66.6398 0.0000 0.0000 0.0000
# 4 0.0000 0.0000 0.0000 24.1452 0.0000 0.0000
# 5 0.0000 0.0000 0.0000 0.0000 23.3880 0.0000
# 6 0.0000 0.0000 0.0000 0.0000 0.0000 13.4620
#
#
#
# Elastic Compliance Matrix: (Units=1/GPa)
#
#
# Indices 1 2 3 4 5 6 
#
# 1 0.021565 -0.004472 -0.005544 0.000000 0.000000 0.000000
# 2 -0.004472 0.013732 -0.001545 0.000000 0.000000 0.000000
# 3 -0.005544 -0.001545 0.016998 0.000000 0.000000 0.000000
# 4 0.000000 0.000000 0.000000 0.041416 0.000000 0.000000
# 5 0.000000 0.000000 0.000000 0.000000 0.042757 0.000000
# 6 0.000000 0.000000 0.000000 0.000000 0.000000 0.074283
#
#
# Mechanical properties :
#
#
# Convention : Reuss Voigt Hill
#
# Bulk Modulus (GPa) = 34.27702 34.70988 34.49345
# Shear Modulus (GPa) = 20.52568 22.13029 21.32799
#
# Velocity S-wave (km/s) = 3.19531 3.31786 3.25716
# Velocity P-wave (km/s) = 5.53748 5.65183 5.59495
#
# Compressibility (1/GPa) = 0.02917407
#
# Stress axis : x y z
#
# Youngs Moduli (GPa) = 46.37232 72.82075 58.82991
#
# Poissons Ratio (x) = 0.32566 0.32614
# Poissons Ratio (y) = 0.20738 0.09087
# Poissons Ratio (z) = 0.25708 0.11248
#
# Static dielectric constant tensor:
#      x y z
#    x 3.571520 0.000000 0.000000 
#    y 0.000000 3.764450 0.000000 
#    z 0.000000 0.000000 3.466990 
# 
# 
# High freq. dielectric constant tensor:
#      x y z
#    x 1.775530 0.000000 0.000000 
#    y 0.000000 1.786500 0.000000 
#    z 0.000000 0.000000 1.776540 
# 
# From -- ./inp_files/69097.got.cif
#   From: 2010.03.12/outbox.cif.g09.slc.cpg/sg70_35_cif.got.tgz:69097.got - 2010.04.16 13:46:32.
