data_PCOD8285479
_publ_section_title
;
Structure prediction by ZEFSAII (Michael W. Deem and Ramdas Pophale) SiO2 
 PCOD8285479
Probable space group: F M M M
;
_chemical_formula_sum "Si O2"
_cell_formula_units_Z 160
_cell_length_a 27.938476
_cell_length_b 20.373528
_cell_length_c 17.243176
_cell_angle_alpha 90.000000
_cell_angle_beta 90.000000
_cell_angle_gamma 90.000000
_cell_volume 9814.907566
_symmetry_space_group_name_H-M "F M M M"
_symmetry_group_IT_number 69
_symmetry_cell_setting 'orthorhombic'
loop_
_space_group_symop_operation_xyz
x,y,z
-x,-y,z
x,-y,-z
-x,y,-z
-x,-y,-z
x,y,-z
-x,y,z
x,-y,z
x,1/2+y,1/2+z
-x,1/2-y,1/2+z
x,1/2-y,1/2-z
-x,1/2+y,1/2-z
-x,1/2-y,1/2-z
x,1/2+y,1/2-z
-x,1/2+y,1/2+z
x,1/2-y,1/2+z
1/2+x,y,1/2+z
1/2-x,-y,1/2+z
1/2+x,-y,1/2-z
1/2-x,y,1/2-z
1/2-x,-y,1/2-z
1/2+x,y,1/2-z
1/2-x,y,1/2+z
1/2+x,-y,1/2+z
1/2+x,1/2+y,z
1/2-x,1/2-y,z
1/2+x,1/2-y,-z
1/2-x,1/2+y,-z
1/2-x,1/2-y,-z
1/2+x,1/2+y,-z
1/2-x,1/2+y,z
1/2+x,1/2-y,z
loop_
_atom_site_type_symbol
_atom_site_label
_atom_site_fract_x
_atom_site_fract_y
_atom_site_fract_z
Si Si1 0.305271 0.241232 0.584383
Si Si2 0.794522 0.500000 0.412366
Si Si3 0.054036 0.424601 0.090607
Si Si4 0.645452 0.630457 0.346062
Si Si5 0.683850 0.500000 0.417031
Si Si6 0.299677 0.122789 0.301084
O O1 0.327780 0.221553 0.500000
O O2 0.250000 0.250000 0.569413
O O3 0.331591 0.306797 0.612964
O O4 0.307858 0.187154 0.649520
O O5 0.819179 0.500000 0.500000
O O6 0.739513 0.500000 0.430228
O O7 0.807084 0.562586 0.359539
O O8 0.069477 0.500000 0.106895
O O9 0.088796 0.374941 0.136523
O O10 0.000000 0.412646 0.120052
O O11 0.057539 0.409079 0.000000
O O12 0.671677 0.565699 0.373908
O O13 0.654628 0.628923 0.254733
O O14 0.656949 0.500000 0.500000
O O15 0.250000 0.120874 0.250000
#
# Coordination Sequence:
#
# PCOD8285479 Si02
#       6
#    32  16  32  32  16  32
#     4  11  22  35  50  71 103 148 189 219 258 321
#     4  11  22  36  50  70 105 148 180 217 262 316
#     4   9  18  33  53  80 112 140 172 219 276 333
#     4  12  21  31  54  77 108 140 177 219 265 318
#     4  11  19  29  46  74 103 133 177 213 250 312
#     4  12  22  35  50  73 106 140 180 227 268 309
#
# _framework density 16.301732999999999
#
# number of rings (size 3 to 8) (size 9 to 14) (size 15 to 20)
#    0.000    1.000    5.000    4.500    0.000    3.200 
#    0.000    0.000    0.000    2.400    0.000    0.000 
#    0.000    3.200    0.000    0.000    0.000    0.200 
#
# Total GULP energy -495529.979339 kJ/mol
# GULP energy per Si atom -12388.249483 kJ/mol
# Density = 1.626463 g / cm^3
# Si number density = 16.301733 Si / 1000 Ang^3
#
#
#
# Elastic Constant Matrix: (Units=GPa)
#
#
# Indices 1 2 3 4 5 6 
#
# 1 83.0732 34.7814 40.2932 0.0000 0.0000 0.0000
# 2 34.7814 107.0542 59.6821 0.0000 0.0000 0.0000
# 3 40.2932 59.6821 141.2371 0.0000 0.0000 0.0000
# 4 0.0000 0.0000 0.0000 24.3915 0.0000 0.0000
# 5 0.0000 0.0000 0.0000 0.0000 22.5565 0.0000
# 6 0.0000 0.0000 0.0000 0.0000 0.0000 25.5460
#
#
#
# Elastic Compliance Matrix: (Units=1/GPa)
#
#
# Indices 1 2 3 4 5 6 
#
# 1 0.014765 -0.003204 -0.002859 0.000000 0.000000 0.000000
# 2 -0.003204 0.012915 -0.004543 0.000000 0.000000 0.000000
# 3 -0.002859 -0.004543 0.009816 0.000000 0.000000 0.000000
# 4 0.000000 0.000000 0.000000 0.040998 0.000000 0.000000
# 5 0.000000 0.000000 0.000000 0.000000 0.044333 0.000000
# 6 0.000000 0.000000 0.000000 0.000000 0.000000 0.039145
#
#
# Mechanical properties :
#
#
# Convention : Reuss Voigt Hill
#
# Bulk Modulus (GPa) = 61.40744 66.76421 64.08583
# Shear Modulus (GPa) = 26.50950 27.60597 27.05773
#
# Velocity S-wave (km/s) = 4.03696 4.11960 4.07849
# Velocity P-wave (km/s) = 7.71236 7.97950 7.84707
#
# Compressibility (1/GPa) = 0.01628467
#
# Stress axis : x y z
#
# Youngs Moduli (GPa) = 67.72589 77.43044 101.87704
#
# Poissons Ratio (x) = 0.24805 0.29124
# Poissons Ratio (y) = 0.21696 0.46287
# Poissons Ratio (z) = 0.19361 0.35180
#
# Static dielectric constant tensor:
#      x y z
#    x 2.984940 0.000000 0.000000 
#    y 0.000000 3.487910 0.000000 
#    z 0.000000 0.000000 3.852290 
# 
# 
# High freq. dielectric constant tensor:
#      x y z
#    x 1.590340 0.000000 0.000000 
#    y 0.000000 1.629470 0.000000 
#    z 0.000000 0.000000 1.641160 
# 
# From -- ./inp_files/23480.got.cif
#   From: 2010.03.12/outbox.cif.g09.slc.cpg/sg69_12_cif.got.tgz:23480.got - 2010.04.10 23:52:46.
