data_PCOD8285063
_publ_section_title
;
Structure prediction by ZEFSAII (Michael W. Deem and Ramdas Pophale) SiO2 
 PCOD8285063
Probable space group: F M M M
;
_chemical_formula_sum "Si O2"
_cell_formula_units_Z 128
_cell_length_a 15.200533
_cell_length_b 14.404125
_cell_length_c 28.986147
_cell_angle_alpha 90.000000
_cell_angle_beta 90.000000
_cell_angle_gamma 90.000000
_cell_volume 6346.527825
_symmetry_space_group_name_H-M "F M M M"
_symmetry_group_IT_number 69
_symmetry_cell_setting 'orthorhombic'
loop_
_space_group_symop_operation_xyz
x,y,z
-x,-y,z
x,-y,-z
-x,y,-z
-x,-y,-z
x,y,-z
-x,y,z
x,-y,z
x,1/2+y,1/2+z
-x,1/2-y,1/2+z
x,1/2-y,1/2-z
-x,1/2+y,1/2-z
-x,1/2-y,1/2-z
x,1/2+y,1/2-z
-x,1/2+y,1/2+z
x,1/2-y,1/2+z
1/2+x,y,1/2+z
1/2-x,-y,1/2+z
1/2+x,-y,1/2-z
1/2-x,y,1/2-z
1/2-x,-y,1/2-z
1/2+x,y,1/2-z
1/2-x,y,1/2+z
1/2+x,-y,1/2+z
1/2+x,1/2+y,z
1/2-x,1/2-y,z
1/2+x,1/2-y,-z
1/2-x,1/2+y,-z
1/2-x,1/2-y,-z
1/2+x,1/2+y,-z
1/2-x,1/2+y,z
1/2+x,1/2-y,z
loop_
_atom_site_type_symbol
_atom_site_label
_atom_site_fract_x
_atom_site_fract_y
_atom_site_fract_z
Si Si1 0.500000 0.194707 0.448808
Si Si2 0.899415 0.247602 0.803317
Si Si3 0.500000 0.897410 0.926388
Si Si4 0.134841 0.106745 0.880113
Si Si5 0.329368 0.898412 0.864102
O O1 0.500000 0.149062 0.500000
O O2 0.500000 0.306165 0.458118
O O3 0.585532 0.163142 0.420259
O O4 0.873928 0.250000 0.750000
O O5 0.885646 0.149208 0.829317
O O6 0.833659 0.322643 0.824440
O O7 0.000000 0.279614 0.810048
O O8 0.411996 0.888522 0.897054
O O9 0.500000 0.000000 0.951354
O O10 0.238237 0.115722 0.891911
O O11 0.103069 0.000000 0.879665
O O12 0.328802 0.000000 0.840661
#
# Coordination Sequence:
#
# PCOD8285063 Si02
#       5
#    16  32  16  32  32
#     4  12  25  43  68  93 122 162 206 255 311 375
#     4  11  22  37  61  91 126 169 211 253 309 372
#     4  10  20  40  65  92 122 155 194 249 310 363
#     4  11  23  40  62  90 125 165 207 256 311 365
#     4  10  20  37  64  89 120 162 205 252 309 370
#
# _framework density 20.168507999999999
#
# number of rings (size 3 to 8) (size 9 to 14) (size 15 to 20)
#    0.000    1.250    5.000    1.125    0.000    4.250 
#    0.000    7.500    0.000    4.500    0.000    0.000 
#    0.000    0.000    0.000    0.000    0.000    0.000 
#
# Total GULP energy -396585.007727 kJ/mol
# GULP energy per Si atom -12393.281491 kJ/mol
# Density = 2.012260 g / cm^3
# Si number density = 20.168508 Si / 1000 Ang^3
#
#
#
# Elastic Constant Matrix: (Units=GPa)
#
#
# Indices 1 2 3 4 5 6 
#
# 1 129.5849 32.9036 42.2427 0.0000 0.0000 0.0000
# 2 32.9036 156.4582 54.2621 0.0000 0.0000 0.0000
# 3 42.2427 54.2621 116.8387 0.0000 0.0000 0.0000
# 4 0.0000 0.0000 0.0000 7.6099 0.0000 0.0000
# 5 0.0000 0.0000 0.0000 0.0000 0.4998 0.0000
# 6 0.0000 0.0000 0.0000 0.0000 0.0000 30.9757
#
#
#
# Elastic Compliance Matrix: (Units=1/GPa)
#
#
# Indices 1 2 3 4 5 6 
#
# 1 0.008852 -0.000896 -0.002784 0.000000 0.000000 0.000000
# 2 -0.000896 0.007709 -0.003256 0.000000 0.000000 0.000000
# 3 -0.002784 -0.003256 0.011078 0.000000 0.000000 0.000000
# 4 0.000000 0.000000 0.000000 0.131409 0.000000 0.000000
# 5 0.000000 0.000000 0.000000 0.000000 2.000939 0.000000
# 6 0.000000 0.000000 0.000000 0.000000 0.000000 0.032283
#
#
# Mechanical properties :
#
#
# Convention : Reuss Voigt Hill
#
# Bulk Modulus (GPa) = 72.64399 73.52207 73.08303
# Shear Modulus (GPa) = 2.26169 26.04862 14.15516
#
# Velocity S-wave (km/s) = 1.06011 3.59771 2.65211
# Velocity P-wave (km/s) = 6.13149 7.33424 6.75967
#
# Compressibility (1/GPa) = 0.01376576
#
# Stress axis : x y z
#
# Youngs Moduli (GPa) = 112.96750 129.71385 90.27051
#
# Poissons Ratio (x) = 0.11622 0.25134
# Poissons Ratio (y) = 0.10122 0.29396
# Poissons Ratio (z) = 0.31454 0.42240
#
# Static dielectric constant tensor:
#      x y z
#    x 3.892290 0.000000 0.000000 
#    y 0.000000 4.110870 0.000000 
#    z 0.000000 0.000000 3.317180 
# 
# 
# High freq. dielectric constant tensor:
#      x y z
#    x 1.810320 0.000000 0.000000 
#    y 0.000000 1.805580 0.000000 
#    z 0.000000 0.000000 1.748140 
# 
# From -- ./inp_files/46145.got.cif
#   From: 2010.03.12/outbox.cif.g09.slc.cpg/sg69_24_cif.got.tgz:46145.got - 2010.04.10 23:52:46.
