data_PCOD8285840
_publ_section_title
;
Structure prediction by ZEFSAII (Michael W. Deem and Ramdas Pophale) SiO2 
 PCOD8285840
Probable space group: F D D D
;
_chemical_formula_sum "Si O2"
_cell_formula_units_Z 208
_cell_length_a 27.644025
_cell_length_b 19.855585
_cell_length_c 17.520836
_cell_angle_alpha 90.000000
_cell_angle_beta 90.000000
_cell_angle_gamma 90.000000
_cell_volume 9616.981679
_symmetry_space_group_name_H-M "F D D D"
_symmetry_group_IT_number 70
_space_group.IT_coordinate_system_code '2'
_symmetry_cell_setting 'orthorhombic'
loop_
_space_group_symop_operation_xyz
x,y,z
1/4-x,1/4-y,z
x,1/4-y,1/4-z
1/4-x,y,1/4-z
-x,-y,-z
3/4+x,3/4+y,-z
-x,3/4+y,3/4+z
3/4+x,-y,3/4+z
x,1/2+y,1/2+z
1/4-x,3/4-y,1/2+z
x,3/4-y,3/4-z
1/4-x,1/2+y,3/4-z
-x,1/2-y,1/2-z
3/4+x,1/4+y,1/2-z
-x,1/4+y,1/4+z
3/4+x,1/2-y,1/4+z
1/2+x,y,1/2+z
3/4-x,1/4-y,1/2+z
1/2+x,1/4-y,3/4-z
3/4-x,y,3/4-z
1/2-x,-y,1/2-z
1/4+x,3/4+y,1/2-z
1/2-x,3/4+y,1/4+z
1/4+x,-y,1/4+z
1/2+x,1/2+y,z
3/4-x,3/4-y,z
1/2+x,3/4-y,1/4-z
3/4-x,1/2+y,1/4-z
1/2-x,1/2-y,-z
1/4+x,1/4+y,-z
1/2-x,1/4+y,3/4+z
1/4+x,1/2-y,3/4+z
loop_
_atom_site_type_symbol
_atom_site_label
_atom_site_fract_x
_atom_site_fract_y
_atom_site_fract_z
Si Si1 0.927180 0.182334 0.065541
Si Si2 0.769038 0.918540 0.032569
Si Si3 0.753100 0.625000 0.625000
Si Si4 0.911725 0.314255 0.160091
Si Si5 0.330032 0.136400 0.492225
Si Si6 0.229553 0.988754 0.666960
Si Si7 0.601676 0.009489 0.703090
O O1 0.943492 0.125000 0.125000
O O2 0.927213 0.259941 0.095735
O O3 0.873058 0.168013 0.040069
O O4 0.963713 0.172196 0.995078
O O5 0.789043 0.844441 0.053403
O O6 0.771588 0.958172 0.113019
O O7 0.801490 0.951729 0.966444
O O8 0.786115 0.620338 0.549561
O O9 0.716907 0.561268 0.630252
O O10 0.875000 0.375000 0.132342
O O11 0.886532 0.272020 0.226149
O O12 0.315948 0.189103 0.425145
O O13 0.343732 0.069795 0.446484
O O14 0.250000 0.000000 0.750000
O O15 0.625000 0.036933 0.625000
#
# Coordination Sequence:
#
# PCOD8285840 Si02
#       7
#    32  32  16  32  32  32  32
#     4  12  26  43  71 101 142 185 228 297 357 431
#     4  11  27  44  66 106 139 179 241 288 355 430
#     4  10  18  44  66  97 132 182 227 280 354 410
#     4  10  25  46  70  98 141 186 229 286 358 417
#     4  11  22  41  70  99 135 182 237 277 360 415
#     4  10  24  39  72  97 133 183 233 289 341 425
#     4  11  24  44  72  98 139 185 230 289 348 427
#
# _framework density 21.628406999999999
#
# number of rings (size 3 to 8) (size 9 to 14) (size 15 to 20)
#    0.000    1.231    3.846    0.000   12.923    2.769 
#    0.000    0.000    0.000    0.923    0.000    0.000 
#    0.000    0.000    0.000    0.000    0.000    0.000 
#
# Total GULP energy -644564.706542 kJ/mol
# GULP energy per Si atom -12395.475126 kJ/mol
# Density = 2.157918 g / cm^3
# Si number density = 21.628407 Si / 1000 Ang^3
#
#
#
# Elastic Constant Matrix: (Units=GPa)
#
#
# Indices 1 2 3 4 5 6 
#
# 1 49.8848 45.1829 29.8185 0.0000 0.0000 0.0000
# 2 45.1829 161.1635 27.6736 0.0000 0.0000 0.0000
# 3 29.8185 27.6736 76.8387 0.0000 0.0000 0.0000
# 4 0.0000 0.0000 0.0000 31.7829 0.0000 0.0000
# 5 0.0000 0.0000 0.0000 0.0000 32.6312 0.0000
# 6 0.0000 0.0000 0.0000 0.0000 0.0000 27.3099
#
#
#
# Elastic Compliance Matrix: (Units=1/GPa)
#
#
# Indices 1 2 3 4 5 6 
#
# 1 0.032823 -0.007477 -0.010044 0.000000 0.000000 0.000000
# 2 -0.007477 0.008317 -0.000094 0.000000 0.000000 0.000000
# 3 -0.010044 -0.000094 0.016946 0.000000 0.000000 0.000000
# 4 0.000000 0.000000 0.000000 0.031463 0.000000 0.000000
# 5 0.000000 0.000000 0.000000 0.000000 0.030645 0.000000
# 6 0.000000 0.000000 0.000000 0.000000 0.000000 0.036617
#
#
# Mechanical properties :
#
#
# Convention : Reuss Voigt Hill
#
# Bulk Modulus (GPa) = 43.75419 54.80411 49.27915
# Shear Modulus (GPa) = 25.04245 30.69227 27.86736
#
# Velocity S-wave (km/s) = 3.40641 3.77114 3.59341
# Velocity P-wave (km/s) = 5.97875 6.66003 6.32856
#
# Compressibility (1/GPa) = 0.02285496
#
# Stress axis : x y z
#
# Youngs Moduli (GPa) = 30.46670 120.23190 59.01107
#
# Poissons Ratio (x) = 0.89900 0.59273
# Poissons Ratio (y) = 0.22781 0.00554
# Poissons Ratio (z) = 0.30602 0.01128
#
# Static dielectric constant tensor:
#      x y z
#    x 3.961990 0.000000 0.000000 
#    y 0.000000 4.410530 0.000000 
#    z 0.000000 0.000000 3.946210 
# 
# 
# High freq. dielectric constant tensor:
#      x y z
#    x 1.831070 0.000000 0.000000 
#    y 0.000000 1.868120 0.000000 
#    z 0.000000 0.000000 1.849350 
# 
# From -- ./inp_files/38757.got.cif
#   From: 2010.03.12/outbox.cif.g09.slc.cpg/sg70_20_cif.got.tgz:38757.got - 2010.04.16 13:46:32.
