data_PCOD8285705
_publ_section_title
;
Structure prediction by ZEFSAII (Michael W. Deem and Ramdas Pophale) SiO2 
 PCOD8285705
Probable space group: F M M M
;
_chemical_formula_sum "Si O2"
_cell_formula_units_Z 192
_cell_length_a 28.823731
_cell_length_b 15.651793
_cell_length_c 25.037460
_cell_angle_alpha 90.000000
_cell_angle_beta 90.000000
_cell_angle_gamma 90.000000
_cell_volume 11295.476597
_symmetry_space_group_name_H-M "F M M M"
_symmetry_group_IT_number 69
_symmetry_cell_setting 'orthorhombic'
loop_
_space_group_symop_operation_xyz
x,y,z
-x,-y,z
x,-y,-z
-x,y,-z
-x,-y,-z
x,y,-z
-x,y,z
x,-y,z
x,1/2+y,1/2+z
-x,1/2-y,1/2+z
x,1/2-y,1/2-z
-x,1/2+y,1/2-z
-x,1/2-y,1/2-z
x,1/2+y,1/2-z
-x,1/2+y,1/2+z
x,1/2-y,1/2+z
1/2+x,y,1/2+z
1/2-x,-y,1/2+z
1/2+x,-y,1/2-z
1/2-x,y,1/2-z
1/2-x,-y,1/2-z
1/2+x,y,1/2-z
1/2-x,y,1/2+z
1/2+x,-y,1/2+z
1/2+x,1/2+y,z
1/2-x,1/2-y,z
1/2+x,1/2-y,-z
1/2-x,1/2+y,-z
1/2-x,1/2-y,-z
1/2+x,1/2+y,-z
1/2-x,1/2+y,z
1/2+x,1/2-y,z
loop_
_atom_site_type_symbol
_atom_site_label
_atom_site_fract_x
_atom_site_fract_y
_atom_site_fract_z
Si Si1 0.809363 0.331473 0.000000
Si Si2 0.196170 0.901029 0.390586
Si Si3 0.551544 0.250606 0.813158
Si Si4 0.381493 0.400496 0.814935
Si Si5 0.616710 0.402483 0.690179
Si Si6 0.797768 0.404738 0.384711
Si Si7 0.700313 0.141083 0.500000
O O1 0.829457 0.369287 0.055283
O O2 0.755332 0.352248 0.000000
O O3 0.823009 0.233246 0.000000
O O4 0.164233 0.880978 0.340225
O O5 0.247293 0.857607 0.381048
O O6 0.205487 0.000000 0.399015
O O7 0.500000 0.249060 0.838595
O O8 0.547848 0.250000 0.750000
O O9 0.576395 0.338246 0.832198
O O10 0.578166 0.164083 0.830791
O O11 0.393043 0.500000 0.829503
O O12 0.371795 0.390483 0.752261
O O13 0.336578 0.363169 0.846350
O O14 0.600054 0.500000 0.678328
O O15 0.792352 0.500000 0.362804
O O16 0.815816 0.406441 0.446136
#
# Coordination Sequence:
#
# PCOD8285705 Si02
#       7
#    16  32  32  32  32  32  16
#     4   9  17  27  41  63  89 120 159 196 224 256
#     4   9  17  29  45  65  93 127 157 187 223 265
#     4   9  18  32  49  68  91 120 153 192 235 275
#     4   9  18  31  47  70  97 123 153 187 226 276
#     4   9  18  31  47  70  97 123 153 187 226 276
#     4   9  17  29  45  65  93 127 157 187 223 265
#     4   9  17  27  41  63  89 120 159 196 224 256
#
# _framework density 16.997954
#
# number of rings (size 3 to 8) (size 9 to 14) (size 15 to 20)
#    0.000    3.000    0.000    0.500    2.333    3.333 
#    0.000    6.667    0.000    3.000    0.000    2.333 
#    0.000    5.333    0.000    0.000    0.000    0.000 
#
# Total GULP energy -594737.280678 kJ/mol
# GULP energy per Si atom -12390.360014 kJ/mol
# Density = 1.695927 g / cm^3
# Si number density = 16.997954 Si / 1000 Ang^3
#
#
#
# Elastic Constant Matrix: (Units=GPa)
#
#
# Indices 1 2 3 4 5 6 
#
# 1 106.8105 51.9063 45.8134 0.0000 0.0000 0.0000
# 2 51.9063 81.4858 27.8924 0.0000 0.0000 0.0000
# 3 45.8134 27.8924 62.9383 0.0000 0.0000 0.0000
# 4 0.0000 0.0000 0.0000 16.2926 0.0000 0.0000
# 5 0.0000 0.0000 0.0000 0.0000 3.6602 0.0000
# 6 0.0000 0.0000 0.0000 0.0000 0.0000 22.6608
#
#
#
# Elastic Compliance Matrix: (Units=1/GPa)
#
#
# Indices 1 2 3 4 5 6 
#
# 1 0.016945 -0.007747 -0.008901 0.000000 0.000000 0.000000
# 2 -0.007747 0.018009 -0.002342 0.000000 0.000000 0.000000
# 3 -0.008901 -0.002342 0.023406 0.000000 0.000000 0.000000
# 4 0.000000 0.000000 0.000000 0.061377 0.000000 0.000000
# 5 0.000000 0.000000 0.000000 0.000000 0.273209 0.000000
# 6 0.000000 0.000000 0.000000 0.000000 0.000000 0.044129
#
#
# Mechanical properties :
#
#
# Convention : Reuss Voigt Hill
#
# Bulk Modulus (GPa) = 49.06943 55.82873 52.44908
# Shear Modulus (GPa) = 10.37672 16.89755 13.63714
#
# Velocity S-wave (km/s) = 2.47345 3.15634 2.83553
# Velocity P-wave (km/s) = 6.08997 6.79699 6.45317
#
# Compressibility (1/GPa) = 0.02037929
#
# Stress axis : x y z
#
# Youngs Moduli (GPa) = 59.01384 55.52918 42.72482
#
# Poissons Ratio (x) = 0.43019 0.38030
# Poissons Ratio (y) = 0.45719 0.10004
# Poissons Ratio (z) = 0.52530 0.13003
#
# Static dielectric constant tensor:
#      x y z
#    x 3.176070 0.000000 0.000000 
#    y 0.000000 3.264140 0.000000 
#    z 0.000000 0.000000 3.154350 
# 
# 
# High freq. dielectric constant tensor:
#      x y z
#    x 1.620780 0.000000 0.000000 
#    y 0.000000 1.661500 0.000000 
#    z 0.000000 0.000000 1.638160 
# 
# From -- ./inp_files/39012.got.cif
#   From: 2010.03.12/outbox.cif.g09.slc.cpg/sg69_20_cif.got.tgz:39012.got - 2010.04.10 23:52:46.
