data_PCOD8285356
_publ_section_title
;
Structure prediction by ZEFSAII (Michael W. Deem and Ramdas Pophale) SiO2 
 PCOD8285356
Probable space group: F M M M
;
_chemical_formula_sum "Si O2"
_cell_formula_units_Z 160
_cell_length_a 27.136827
_cell_length_b 17.522221
_cell_length_c 17.013797
_cell_angle_alpha 90.000000
_cell_angle_beta 90.000000
_cell_angle_gamma 90.000000
_cell_volume 8090.017598
_symmetry_space_group_name_H-M "F M M M"
_symmetry_group_IT_number 69
_symmetry_cell_setting 'orthorhombic'
loop_
_space_group_symop_operation_xyz
x,y,z
-x,-y,z
x,-y,-z
-x,y,-z
-x,-y,-z
x,y,-z
-x,y,z
x,-y,z
x,1/2+y,1/2+z
-x,1/2-y,1/2+z
x,1/2-y,1/2-z
-x,1/2+y,1/2-z
-x,1/2-y,1/2-z
x,1/2+y,1/2-z
-x,1/2+y,1/2+z
x,1/2-y,1/2+z
1/2+x,y,1/2+z
1/2-x,-y,1/2+z
1/2+x,-y,1/2-z
1/2-x,y,1/2-z
1/2-x,-y,1/2-z
1/2+x,y,1/2-z
1/2-x,y,1/2+z
1/2+x,-y,1/2+z
1/2+x,1/2+y,z
1/2-x,1/2-y,z
1/2+x,1/2-y,-z
1/2-x,1/2+y,-z
1/2-x,1/2-y,-z
1/2+x,1/2+y,-z
1/2-x,1/2+y,z
1/2+x,1/2-y,z
loop_
_atom_site_type_symbol
_atom_site_label
_atom_site_fract_x
_atom_site_fract_y
_atom_site_fract_z
Si Si1 0.920184 0.909684 0.412410
Si Si2 0.183990 0.586583 0.132569
Si Si3 0.054625 0.662318 0.756231
Si Si4 0.224040 0.825081 0.910719
Si Si5 0.348801 0.088499 0.695670
O O1 0.941042 0.893600 0.500000
O O2 0.864358 0.876139 0.406929
O O3 0.950690 0.863888 0.347146
O O4 0.922960 0.000000 0.392811
O O5 0.179184 0.500000 0.110587
O O6 0.234477 0.611055 0.093298
O O7 0.183556 0.600263 0.226084
O O8 0.071772 0.750000 0.750000
O O9 0.094131 0.610427 0.709990
O O10 0.000000 0.652589 0.718311
O O11 0.250000 0.750000 0.872735
O O12 0.174867 0.853821 0.867304
O O13 0.208207 0.808241 0.000000
O O14 0.346639 0.000000 0.667764
#
# Coordination Sequence:
#
# PCOD8285356 Si02
#       5
#    32  32  32  32  32
#     4   9  18  33  58  90 119 149 186 237 301 360
#     4   9  18  34  55  80 113 150 186 224 278 350
#     4  10  22  39  59  85 116 156 202 247 299 355
#     4  11  24  36  52  83 116 152 194 238 290 343
#     4  10  22  38  59  86 114 153 198 238 287 351
#
# _framework density 19.777459
#
# number of rings (size 3 to 8) (size 9 to 14) (size 15 to 20)
#    0.000    2.200    0.000    3.600    5.600    6.800 
#    0.000    1.000    0.000    1.800    0.000    1.400 
#    0.000    0.000    0.000    0.000    0.000    0.000 
#
# Total GULP energy -495754.920462 kJ/mol
# GULP energy per Si atom -12393.873012 kJ/mol
# Density = 1.973244 g / cm^3
# Si number density = 19.777459 Si / 1000 Ang^3
#
#
#
# Elastic Constant Matrix: (Units=GPa)
#
#
# Indices 1 2 3 4 5 6 
#
# 1 100.3642 30.4117 28.0644 0.0000 0.0000 0.0000
# 2 30.4117 85.5362 58.6247 0.0000 0.0000 0.0000
# 3 28.0644 58.6247 71.0062 0.0000 0.0000 0.0000
# 4 0.0000 0.0000 0.0000 29.8046 0.0000 0.0000
# 5 0.0000 0.0000 0.0000 0.0000 9.5903 0.0000
# 6 0.0000 0.0000 0.0000 0.0000 0.0000 53.0427
#
#
#
# Elastic Compliance Matrix: (Units=1/GPa)
#
#
# Indices 1 2 3 4 5 6 
#
# 1 0.011382 -0.002219 -0.002666 0.000000 0.000000 0.000000
# 2 -0.002219 0.027362 -0.021714 0.000000 0.000000 0.000000
# 3 -0.002666 -0.021714 0.033065 0.000000 0.000000 0.000000
# 4 0.000000 0.000000 0.000000 0.033552 0.000000 0.000000
# 5 0.000000 0.000000 0.000000 0.000000 0.104272 0.000000
# 6 0.000000 0.000000 0.000000 0.000000 0.000000 0.018853
#
#
# Mechanical properties :
#
#
# Convention : Reuss Voigt Hill
#
# Bulk Modulus (GPa) = 53.73492 54.56758 54.15125
# Shear Modulus (GPa) = 17.36788 27.80790 22.58789
#
# Velocity S-wave (km/s) = 2.96660 3.75379 3.38317
# Velocity P-wave (km/s) = 6.24204 6.81459 6.53459
#
# Compressibility (1/GPa) = 0.01860987
#
# Stress axis : x y z
#
# Youngs Moduli (GPa) = 87.86009 36.54666 30.24380
#
# Poissons Ratio (x) = 0.08111 0.08063
# Poissons Ratio (y) = 0.19500 0.65671
# Poissons Ratio (z) = 0.23424 0.79357
#
# Static dielectric constant tensor:
#      x y z
#    x 4.206120 0.000000 0.000000 
#    y 0.000000 3.594250 0.000000 
#    z 0.000000 0.000000 3.520270 
# 
# 
# High freq. dielectric constant tensor:
#      x y z
#    x 1.772400 0.000000 0.000000 
#    y 0.000000 1.766030 0.000000 
#    z 0.000000 0.000000 1.750700 
# 
# From -- ./inp_files/23102.got.cif
#   From: 2010.03.12/outbox.cif.g09.slc.cpg/sg69_12_cif.got.tgz:23102.got - 2010.04.10 23:52:46.
