data_PCOD8285305
_publ_section_title
;
Structure prediction by ZEFSAII (Michael W. Deem and Ramdas Pophale) SiO2 
 PCOD8285305
Probable space group: F M M M
;
_chemical_formula_sum "Si O2"
_cell_formula_units_Z 144
_cell_length_a 19.258478
_cell_length_b 13.800647
_cell_length_c 28.385370
_cell_angle_alpha 90.000000
_cell_angle_beta 90.000000
_cell_angle_gamma 90.000000
_cell_volume 7544.248215
_symmetry_space_group_name_H-M "F M M M"
_symmetry_group_IT_number 69
_symmetry_cell_setting 'orthorhombic'
loop_
_space_group_symop_operation_xyz
x,y,z
-x,-y,z
x,-y,-z
-x,y,-z
-x,-y,-z
x,y,-z
-x,y,z
x,-y,z
x,1/2+y,1/2+z
-x,1/2-y,1/2+z
x,1/2-y,1/2-z
-x,1/2+y,1/2-z
-x,1/2-y,1/2-z
x,1/2+y,1/2-z
-x,1/2+y,1/2+z
x,1/2-y,1/2+z
1/2+x,y,1/2+z
1/2-x,-y,1/2+z
1/2+x,-y,1/2-z
1/2-x,y,1/2-z
1/2-x,-y,1/2-z
1/2+x,y,1/2-z
1/2-x,y,1/2+z
1/2+x,-y,1/2+z
1/2+x,1/2+y,z
1/2-x,1/2-y,z
1/2+x,1/2-y,-z
1/2-x,1/2+y,-z
1/2-x,1/2-y,-z
1/2+x,1/2+y,-z
1/2-x,1/2+y,z
1/2+x,1/2-y,z
loop_
_atom_site_type_symbol
_atom_site_label
_atom_site_fract_x
_atom_site_fract_y
_atom_site_fract_z
Si Si1 0.831160 0.500000 0.242264
Si Si2 0.420186 0.288523 0.624399
Si Si3 0.076796 0.666593 0.713329
Si Si4 0.744069 0.500000 0.056997
Si Si5 0.634571 0.500000 0.365829
Si Si6 0.678343 0.805068 0.448217
O O1 0.750000 0.500000 0.250000
O O2 0.866964 0.592026 0.266812
O O3 0.833176 0.500000 0.185965
O O4 0.500000 0.267260 0.614570
O O5 0.393786 0.220171 0.666917
O O6 0.411738 0.403291 0.632286
O O7 0.377090 0.255969 0.579816
O O8 0.064839 0.750000 0.750000
O O9 0.000000 0.618185 0.704777
O O10 0.811899 0.500000 0.090283
O O11 0.695409 0.589144 0.071990
O O12 0.763410 0.500000 0.000000
O O13 0.646249 0.814954 0.500000
O O14 0.750000 0.750000 0.449293
#
# Coordination Sequence:
#
# PCOD8285305 Si02
#       6
#    16  32  32  16  16  32
#     4  12  27  39  61  95 125 159 207 263 312 357
#     4  11  24  40  64  93 124 164 209 258 312 365
#     4  10  22  42  62  83 121 169 207 245 302 373
#     4  10  22  41  65  92 121 164 209 245 307 376
#     4  12  23  40  63  94 126 160 207 262 312 372
#     4  10  21  39  64  91 127 167 203 250 311 377
#
# _framework density 19.087389000000002
#
# number of rings (size 3 to 8) (size 9 to 14) (size 15 to 20)
#    0.000    1.333    4.444    0.667    3.111    1.778 
#    0.000    1.667    0.000    4.000    0.000    0.000 
#    0.000    0.000    0.000    0.000    0.000    0.000 
#
# Total GULP energy -446109.133193 kJ/mol
# GULP energy per Si atom -12391.920366 kJ/mol
# Density = 1.904395 g / cm^3
# Si number density = 19.087389 Si / 1000 Ang^3
#
#
#
# Elastic Constant Matrix: (Units=GPa)
#
#
# Indices 1 2 3 4 5 6 
#
# 1 98.4356 41.3545 40.6909 0.0000 0.0000 0.0000
# 2 41.3545 112.0200 23.8338 0.0000 0.0000 0.0000
# 3 40.6909 23.8338 84.6102 0.0000 0.0000 0.0000
# 4 0.0000 0.0000 0.0000 35.7837 0.0000 0.0000
# 5 0.0000 0.0000 0.0000 0.0000 -235.7479 0.0000
# 6 0.0000 0.0000 0.0000 0.0000 0.0000 31.7862
#
#
#
# Elastic Compliance Matrix: (Units=1/GPa)
#
#
# Indices 1 2 3 4 5 6 
#
# 1 0.014208 -0.004033 -0.005697 0.000000 0.000000 0.000000
# 2 -0.004033 0.010641 -0.001058 0.000000 0.000000 0.000000
# 3 -0.005697 -0.001058 0.014857 0.000000 0.000000 0.000000
# 4 0.000000 0.000000 0.000000 0.027946 0.000000 0.000000
# 5 0.000000 0.000000 0.000000 0.000000 -0.004242 0.000000
# 6 0.000000 0.000000 0.000000 0.000000 0.000000 0.031460
#
#
# Mechanical properties :
#
#
# Convention : Reuss Voigt Hill
#
# Bulk Modulus (GPa) = 55.15711 56.31380 55.73546
# Shear Modulus (GPa) = 40.81987 -21.02316 9.89835
#
# Velocity S-wave (km/s) = 4.62949 -3.32236 2.27971
# Velocity P-wave (km/s) = 7.58526 3.85354 6.01606
#
# Compressibility (1/GPa) = 0.01813003
#
# Stress axis : x y z
#
# Youngs Moduli (GPa) = 70.38121 93.97639 67.30973
#
# Poissons Ratio (x) = 0.37902 0.38346
# Poissons Ratio (y) = 0.28386 0.07120
# Poissons Ratio (z) = 0.40096 0.09941
#
# Static dielectric constant tensor:
#      x y z
#    x 3.363280 0.000000 0.000000 
#    y 0.000000 3.671750 0.000000 
#    z 0.000000 0.000000 3.954670 
# 
# 
# High freq. dielectric constant tensor:
#      x y z
#    x 1.731090 0.000000 0.000000 
#    y 0.000000 1.759520 0.000000 
#    z 0.000000 0.000000 1.750770 
# 
# From -- ./inp_files/46191.got.cif
#   From: 2010.03.12/outbox.cif.g09.slc.cpg/sg69_24_cif.got.tgz:46191.got - 2010.04.10 23:52:46.
