data_PCOD8285901
_publ_section_title
;
Structure prediction by ZEFSAII (Michael W. Deem and Ramdas Pophale) SiO2 
 PCOD8285901
Probable space group: F D D D
;
_chemical_formula_sum "Si O2"
_cell_formula_units_Z 160
_cell_length_a 23.344119
_cell_length_b 13.157571
_cell_length_c 25.799249
_cell_angle_alpha 90.000000
_cell_angle_beta 90.000000
_cell_angle_gamma 90.000000
_cell_volume 7924.288431
_symmetry_space_group_name_H-M "F D D D"
_symmetry_group_IT_number 70
_space_group.IT_coordinate_system_code '2'
_symmetry_cell_setting 'orthorhombic'
loop_
_space_group_symop_operation_xyz
x,y,z
1/4-x,1/4-y,z
x,1/4-y,1/4-z
1/4-x,y,1/4-z
-x,-y,-z
3/4+x,3/4+y,-z
-x,3/4+y,3/4+z
3/4+x,-y,3/4+z
x,1/2+y,1/2+z
1/4-x,3/4-y,1/2+z
x,3/4-y,3/4-z
1/4-x,1/2+y,3/4-z
-x,1/2-y,1/2-z
3/4+x,1/4+y,1/2-z
-x,1/4+y,1/4+z
3/4+x,1/2-y,1/4+z
1/2+x,y,1/2+z
3/4-x,1/4-y,1/2+z
1/2+x,1/4-y,3/4-z
3/4-x,y,3/4-z
1/2-x,-y,1/2-z
1/4+x,3/4+y,1/2-z
1/2-x,3/4+y,1/4+z
1/4+x,-y,1/4+z
1/2+x,1/2+y,z
3/4-x,3/4-y,z
1/2+x,3/4-y,1/4-z
3/4-x,1/2+y,1/4-z
1/2-x,1/2-y,-z
1/4+x,1/4+y,-z
1/2-x,1/4+y,3/4+z
1/4+x,1/2-y,3/4+z
loop_
_atom_site_type_symbol
_atom_site_label
_atom_site_fract_x
_atom_site_fract_y
_atom_site_fract_z
Si Si1 0.611225 0.814220 0.786709
Si Si2 0.023893 0.546360 0.891786
Si Si3 0.077047 0.040921 0.283837
Si Si4 0.768947 0.467000 0.030024
Si Si5 0.068231 0.681867 0.196806
O O1 0.580194 0.752659 0.832495
O O2 0.677870 0.789864 0.789496
O O3 0.584967 0.779392 0.731716
O O4 0.606934 0.933688 0.794663
O O5 0.036252 0.569045 0.832108
O O6 0.008208 0.653145 0.918093
O O7 0.969299 0.470359 0.897996
O O8 0.125000 0.125000 0.274085
O O9 0.036747 0.034849 0.232994
O O10 0.778748 0.391531 0.981376
O O11 0.125000 0.625000 0.176586
#
# Coordination Sequence:
#
# PCOD8285901 Si02
#       5
#    32  32  32  32  32
#     4  10  19  36  59  83 121 159 196 251 319 364
#     4  11  19  37  61  91 124 154 204 265 312 370
#     4  12  24  36  58  90 119 165 217 250 302 381
#     4  10  20  37  58  87 119 161 201 255 316 367
#     4   9  17  33  61  88 117 155 193 244 325 371
#
# _framework density 20.191087
#
# number of rings (size 3 to 8) (size 9 to 14) (size 15 to 20)
#    0.000    1.600    4.000    4.800    0.000    0.800 
#    0.000    9.000    0.000    0.000    0.000    0.000 
#    0.000    0.000    0.000    0.000    0.000    0.000 
#
# Total GULP energy -496133.016814 kJ/mol
# GULP energy per Si atom -12403.325420 kJ/mol
# Density = 2.014513 g / cm^3
# Si number density = 20.191087 Si / 1000 Ang^3
#
#
#
# Elastic Constant Matrix: (Units=GPa)
#
#
# Indices 1 2 3 4 5 6 
#
# 1 124.1383 60.7413 46.2434 0.0000 0.0000 0.0000
# 2 60.7413 86.4208 51.5009 0.0000 0.0000 0.0000
# 3 46.2434 51.5009 56.4763 0.0000 0.0000 0.0000
# 4 0.0000 0.0000 0.0000 16.6933 0.0000 0.0000
# 5 0.0000 0.0000 0.0000 0.0000 26.7633 0.0000
# 6 0.0000 0.0000 0.0000 0.0000 0.0000 45.0416
#
#
#
# Elastic Compliance Matrix: (Units=1/GPa)
#
#
# Indices 1 2 3 4 5 6 
#
# 1 0.012898 -0.006071 -0.005025 0.000000 0.000000 0.000000
# 2 -0.006071 0.028202 -0.020746 0.000000 0.000000 0.000000
# 3 -0.005025 -0.020746 0.040740 0.000000 0.000000 0.000000
# 4 0.000000 0.000000 0.000000 0.059904 0.000000 0.000000
# 5 0.000000 0.000000 0.000000 0.000000 0.037365 0.000000
# 6 0.000000 0.000000 0.000000 0.000000 0.000000 0.022202
#
#
# Mechanical properties :
#
#
# Convention : Reuss Voigt Hill
#
# Bulk Modulus (GPa) = 55.08111 64.88962 59.98537
# Shear Modulus (GPa) = 18.44710 24.93629 21.69169
#
# Velocity S-wave (km/s) = 3.02590 3.51809 3.28124
# Velocity P-wave (km/s) = 6.28866 6.97926 6.64294
#
# Compressibility (1/GPa) = 0.01815504
#
# Stress axis : x y z
#
# Youngs Moduli (GPa) = 77.53219 35.45902 24.54613
#
# Poissons Ratio (x) = 0.21527 0.12334
# Poissons Ratio (y) = 0.47068 0.50924
# Poissons Ratio (z) = 0.38959 0.73564
#
# Static dielectric constant tensor:
#      x y z
#    x 3.760970 0.000000 0.000000 
#    y 0.000000 3.567270 0.000000 
#    z 0.000000 0.000000 3.406280 
# 
# 
# High freq. dielectric constant tensor:
#      x y z
#    x 1.794760 0.000000 0.000000 
#    y 0.000000 1.771610 0.000000 
#    z 0.000000 0.000000 1.764290 
# 
# From -- ./inp_files/19465.got.cif
#   From: 2010.03.12/outbox.cif.g09.slc.cpg/sg70_10_cif.got.tgz:19465.got - 2010.04.16 13:46:32.
