data_PCOD8285044
_publ_section_title
;
Structure prediction by ZEFSAII (Michael W. Deem and Ramdas Pophale) SiO2 
 PCOD8285044
Probable space group: F M M M
;
_chemical_formula_sum "Si O2"
_cell_formula_units_Z 176
_cell_length_a 24.724646
_cell_length_b 24.685966
_cell_length_c 14.637739
_cell_angle_alpha 90.000000
_cell_angle_beta 90.000000
_cell_angle_gamma 90.000000
_cell_volume 8934.169915
_symmetry_space_group_name_H-M "F M M M"
_symmetry_group_IT_number 69
_symmetry_cell_setting 'orthorhombic'
loop_
_space_group_symop_operation_xyz
x,y,z
-x,-y,z
x,-y,-z
-x,y,-z
-x,-y,-z
x,y,-z
-x,y,z
x,-y,z
x,1/2+y,1/2+z
-x,1/2-y,1/2+z
x,1/2-y,1/2-z
-x,1/2+y,1/2-z
-x,1/2-y,1/2-z
x,1/2+y,1/2-z
-x,1/2+y,1/2+z
x,1/2-y,1/2+z
1/2+x,y,1/2+z
1/2-x,-y,1/2+z
1/2+x,-y,1/2-z
1/2-x,y,1/2-z
1/2-x,-y,1/2-z
1/2+x,y,1/2-z
1/2-x,y,1/2+z
1/2+x,-y,1/2+z
1/2+x,1/2+y,z
1/2-x,1/2-y,z
1/2+x,1/2-y,-z
1/2-x,1/2+y,-z
1/2-x,1/2-y,-z
1/2+x,1/2+y,-z
1/2-x,1/2+y,z
1/2+x,1/2-y,z
loop_
_atom_site_type_symbol
_atom_site_label
_atom_site_fract_x
_atom_site_fract_y
_atom_site_fract_z
Si Si1 0.500000 0.062495 0.257885
Si Si2 0.222957 0.939707 0.653311
Si Si3 0.371710 0.838952 0.000000
Si Si4 0.890779 0.199280 0.182767
Si Si5 0.755031 0.632932 0.000000
Si Si6 0.669692 0.218151 0.500000
Si Si7 0.606807 0.107848 0.177346
Si Si8 0.500000 0.337825 0.109214
O O1 0.553234 0.072589 0.196290
O O2 0.500000 0.102203 0.345897
O O3 0.500000 0.000000 0.291271
O O4 0.250000 0.933702 0.750000
O O5 0.259810 0.899409 0.591928
O O6 0.158491 0.929160 0.658676
O O7 0.229568 0.000000 0.613868
O O8 0.406302 0.852296 0.909356
O O9 0.319330 0.875971 0.000000
O O10 0.342744 0.780994 0.000000
O O11 0.879730 0.250000 0.250000
O O12 0.853285 0.195322 0.094239
O O13 0.878575 0.144851 0.236941
O O14 0.951187 0.199384 0.143779
O O15 0.731602 0.694686 0.000000
O O16 0.500000 0.344777 0.000000
#
# Coordination Sequence:
#
# PCOD8285044 Si02
#       8
#    16  32  16  32  16  16  32  16
#     4  10  22  39  62  87 121 158 198 254 309 369
#     4  10  20  37  60  83 114 155 202 251 303 360
#     4  10  21  38  56  81 116 154 194 243 299 361
#     4  11  21  36  58  84 120 157 197 242 295 358
#     4  10  22  36  56  83 115 149 194 244 299 354
#     4  12  21  36  59  84 118 155 194 247 295 359
#     4  10  21  38  58  87 120 156 200 251 306 366
#     4  10  21  38  57  86 116 156 199 245 297 355
#
# _framework density 19.699648
#
# number of rings (size 3 to 8) (size 9 to 14) (size 15 to 20)
#    0.000    1.636    2.727    2.455    0.000    0.545 
#    0.000    2.727    0.000    1.091    0.000    0.000 
#    0.000    0.000    0.000    0.000    0.000    0.000 
#
# Total GULP energy -545103.540324 kJ/mol
# GULP energy per Si atom -12388.716826 kJ/mol
# Density = 1.965481 g / cm^3
# Si number density = 19.699648 Si / 1000 Ang^3
#
#
#
# Elastic Constant Matrix: (Units=GPa)
#
#
# Indices 1 2 3 4 5 6 
#
# 1 63.2501 11.3766 23.1642 0.0000 0.0000 0.0000
# 2 11.3766 87.3240 29.8638 0.0000 0.0000 0.0000
# 3 23.1642 29.8638 121.8401 0.0000 0.0000 0.0000
# 4 0.0000 0.0000 0.0000 22.2723 0.0000 0.0000
# 5 0.0000 0.0000 0.0000 0.0000 37.6811 0.0000
# 6 0.0000 0.0000 0.0000 0.0000 0.0000 30.8628
#
#
#
# Elastic Compliance Matrix: (Units=1/GPa)
#
#
# Indices 1 2 3 4 5 6 
#
# 1 0.017112 -0.001219 -0.002954 0.000000 0.000000 0.000000
# 2 -0.001219 0.012586 -0.002853 0.000000 0.000000 0.000000
# 3 -0.002954 -0.002853 0.009469 0.000000 0.000000 0.000000
# 4 0.000000 0.000000 0.000000 0.044899 0.000000 0.000000
# 5 0.000000 0.000000 0.000000 0.000000 0.026539 0.000000
# 6 0.000000 0.000000 0.000000 0.000000 0.000000 0.032401
#
#
# Mechanical properties :
#
#
# Convention : Reuss Voigt Hill
#
# Bulk Modulus (GPa) = 39.81998 44.58038 42.20018
# Shear Modulus (GPa) = 30.22440 32.03054 31.12747
#
# Velocity S-wave (km/s) = 3.92121 4.03668 3.97936
# Velocity P-wave (km/s) = 6.38425 6.66374 6.52549
#
# Compressibility (1/GPa) = 0.02511302
#
# Stress axis : x y z
#
# Youngs Moduli (GPa) = 58.44015 79.45232 105.61311
#
# Poissons Ratio (x) = 0.09684 0.31203
# Poissons Ratio (y) = 0.07123 0.30134
# Poissons Ratio (z) = 0.17266 0.22669
#
# Static dielectric constant tensor:
#      x y z
#    x 3.495080 0.000000 0.000000 
#    y 0.000000 3.542470 0.000000 
#    z 0.000000 0.000000 3.899310 
# 
# 
# High freq. dielectric constant tensor:
#      x y z
#    x 1.758740 0.000000 0.000000 
#    y 0.000000 1.767160 0.000000 
#    z 0.000000 0.000000 1.784520 
# 
# From -- ./inp_files/18177.got.cif
#   From: 2010.03.12/outbox.cif.g09.slc.cpg/sg69_10_cif.got.tgz:18177.got - 2010.04.10 23:52:46.
