data_PCOD8285116
_publ_section_title
;
Structure prediction by ZEFSAII (Michael W. Deem and Ramdas Pophale) SiO2 
 PCOD8285116
Probable space group: F M M M
;
_chemical_formula_sum "Si O2"
_cell_formula_units_Z 112
_cell_length_a 14.310410
_cell_length_b 12.433910
_cell_length_c 34.717784
_cell_angle_alpha 90.000000
_cell_angle_beta 90.000000
_cell_angle_gamma 90.000000
_cell_volume 6177.486330
_symmetry_space_group_name_H-M "F M M M"
_symmetry_group_IT_number 69
_symmetry_cell_setting 'orthorhombic'
loop_
_space_group_symop_operation_xyz
x,y,z
-x,-y,z
x,-y,-z
-x,y,-z
-x,-y,-z
x,y,-z
-x,y,z
x,-y,z
x,1/2+y,1/2+z
-x,1/2-y,1/2+z
x,1/2-y,1/2-z
-x,1/2+y,1/2-z
-x,1/2-y,1/2-z
x,1/2+y,1/2-z
-x,1/2+y,1/2+z
x,1/2-y,1/2+z
1/2+x,y,1/2+z
1/2-x,-y,1/2+z
1/2+x,-y,1/2-z
1/2-x,y,1/2-z
1/2-x,-y,1/2-z
1/2+x,y,1/2-z
1/2-x,y,1/2+z
1/2+x,-y,1/2+z
1/2+x,1/2+y,z
1/2-x,1/2-y,z
1/2+x,1/2-y,-z
1/2-x,1/2+y,-z
1/2-x,1/2-y,-z
1/2+x,1/2+y,-z
1/2-x,1/2+y,z
1/2+x,1/2-y,z
loop_
_atom_site_type_symbol
_atom_site_label
_atom_site_fract_x
_atom_site_fract_y
_atom_site_fract_z
Si Si1 0.000000 0.647087 0.273528
Si Si2 0.000000 0.628973 0.636315
Si Si3 0.609639 0.000000 0.851795
Si Si4 0.500000 0.872933 0.955570
Si Si5 0.855563 0.500000 0.238718
Si Si6 0.353685 0.711671 0.601887
O O1 0.000000 0.750000 0.250000
O O2 0.096535 0.598964 0.259242
O O3 0.000000 0.654510 0.318901
O O4 0.092495 0.685715 0.619690
O O5 0.000000 0.500000 0.627847
O O6 0.652377 0.890463 0.869331
O O7 0.500000 0.000000 0.860841
O O8 0.630002 0.000000 0.806816
O O9 0.406466 0.824207 0.936846
O O10 0.500000 0.000000 0.949283
O O11 0.500000 0.840134 0.000000
O O12 0.750000 0.500000 0.250000
O O13 0.250000 0.750000 0.591198
#
# Coordination Sequence:
#
# PCOD8285116 Si02
#       6
#    16  16  16  16  16  32
#     4  11  22  41  55  78 116 159 201 256 320 362
#     4  11  23  39  57  87 126 159 206 256 315 369
#     4  12  20  45  61  86 120 162 225 258 305 373
#     4  10  20  42  70  97 128 159 202 254 303 373
#     4  11  25  38  57  83 116 156 205 267 306 352
#     4  11  24  38  66  93 122 166 202 259 303 368
#
# _framework density 18.130351000000001
#
# number of rings (size 3 to 8) (size 9 to 14) (size 15 to 20)
#    0.000    1.000    7.143    1.714    6.000    1.143 
#    0.000    0.000    0.000    6.857    0.000    0.000 
#    0.000    0.000    0.000    0.000    0.000    0.000 
#
# Total GULP energy -346992.079790 kJ/mol
# GULP energy per Si atom -12392.574278 kJ/mol
# Density = 1.808909 g / cm^3
# Si number density = 18.130351 Si / 1000 Ang^3
#
#
#
# Elastic Constant Matrix: (Units=GPa)
#
#
# Indices 1 2 3 4 5 6 
#
# 1 172.6040 53.1024 60.5142 0.0000 0.0000 0.0000
# 2 53.1024 135.1581 49.5867 0.0000 0.0000 0.0000
# 3 60.5142 49.5867 152.6522 0.0000 0.0000 0.0000
# 4 0.0000 0.0000 0.0000 29.5643 0.0000 0.0000
# 5 0.0000 0.0000 0.0000 0.0000 21.4918 0.0000
# 6 0.0000 0.0000 0.0000 0.0000 0.0000 97.2310
#
#
#
# Elastic Compliance Matrix: (Units=1/GPa)
#
#
# Indices 1 2 3 4 5 6 
#
# 1 0.007183 -0.002018 -0.002192 0.000000 0.000000 0.000000
# 2 -0.002018 0.008967 -0.002113 0.000000 0.000000 0.000000
# 3 -0.002192 -0.002113 0.008106 0.000000 0.000000 0.000000
# 4 0.000000 0.000000 0.000000 0.033825 0.000000 0.000000
# 5 0.000000 0.000000 0.000000 0.000000 0.046529 0.000000
# 6 0.000000 0.000000 0.000000 0.000000 0.000000 0.010285
#
#
# Mechanical properties :
#
#
# Convention : Reuss Voigt Hill
#
# Bulk Modulus (GPa) = 86.12948 87.42455 86.77702
# Shear Modulus (GPa) = 38.04894 49.47150 43.76022
#
# Velocity S-wave (km/s) = 4.58605 5.22932 4.91822
# Velocity P-wave (km/s) = 8.69778 9.20792 8.95648
#
# Compressibility (1/GPa) = 0.01161043
#
# Stress axis : x y z
#
# Youngs Moduli (GPa) = 139.21911 111.52387 123.36442
#
# Poissons Ratio (x) = 0.22505 0.27041
# Poissons Ratio (y) = 0.28093 0.26064
# Poissons Ratio (z) = 0.30516 0.23562
#
# Static dielectric constant tensor:
#      x y z
#    x 3.573330 0.000000 0.000000 
#    y 0.000000 3.688630 0.000000 
#    z 0.000000 0.000000 3.341110 
# 
# 
# High freq. dielectric constant tensor:
#      x y z
#    x 1.705180 0.000000 0.000000 
#    y 0.000000 1.718790 0.000000 
#    z 0.000000 0.000000 1.703320 
# 
# From -- ./inp_files/45410.got.cif
#   From: 2010.03.12/outbox.cif.g09.slc.cpg/sg69_23_cif.got.tgz:45410.got - 2010.04.10 23:52:46.
