data_PCOD8285193
_publ_section_title
;
Structure prediction by ZEFSAII (Michael W. Deem and Ramdas Pophale) SiO2 
 PCOD8285193
Probable space group: F M M M
;
_chemical_formula_sum "Si O2"
_cell_formula_units_Z 176
_cell_length_a 19.233894
_cell_length_b 19.835561
_cell_length_c 24.084341
_cell_angle_alpha 90.000000
_cell_angle_beta 90.000000
_cell_angle_gamma 90.000000
_cell_volume 9188.539228
_symmetry_space_group_name_H-M "F M M M"
_symmetry_group_IT_number 69
_symmetry_cell_setting 'orthorhombic'
loop_
_space_group_symop_operation_xyz
x,y,z
-x,-y,z
x,-y,-z
-x,y,-z
-x,-y,-z
x,y,-z
-x,y,z
x,-y,z
x,1/2+y,1/2+z
-x,1/2-y,1/2+z
x,1/2-y,1/2-z
-x,1/2+y,1/2-z
-x,1/2-y,1/2-z
x,1/2+y,1/2-z
-x,1/2+y,1/2+z
x,1/2-y,1/2+z
1/2+x,y,1/2+z
1/2-x,-y,1/2+z
1/2+x,-y,1/2-z
1/2-x,y,1/2-z
1/2-x,-y,1/2-z
1/2+x,y,1/2-z
1/2-x,y,1/2+z
1/2+x,-y,1/2+z
1/2+x,1/2+y,z
1/2-x,1/2-y,z
1/2+x,1/2-y,-z
1/2-x,1/2+y,-z
1/2-x,1/2-y,-z
1/2+x,1/2+y,-z
1/2-x,1/2+y,z
1/2+x,1/2-y,z
loop_
_atom_site_type_symbol
_atom_site_label
_atom_site_fract_x
_atom_site_fract_y
_atom_site_fract_z
Si Si1 0.580650 0.136134 0.376214
Si Si2 0.188713 0.923059 0.436986
Si Si3 0.918685 0.674447 0.747103
Si Si4 0.080780 0.922563 0.656638
Si Si5 0.581571 0.500000 0.062405
Si Si6 0.796106 0.188806 0.935296
O O1 0.500000 0.153411 0.388164
O O2 0.596816 0.137381 0.310898
O O3 0.629180 0.191909 0.405149
O O4 0.603655 0.064913 0.402265
O O5 0.165756 0.906717 0.500000
O O6 0.122471 0.905833 0.399263
O O7 0.255640 0.879650 0.420129
O O8 0.212477 0.000000 0.429870
O O9 0.885537 0.750000 0.750000
O O10 0.888835 0.626027 0.795225
O O11 0.000000 0.681477 0.757080
O O12 0.000000 0.908441 0.644242
O O13 0.091953 0.000000 0.675475
O O14 0.500000 0.500000 0.054353
O O15 0.615773 0.500000 0.000000
O O16 0.750000 0.250000 0.912705
O O17 0.811133 0.196399 0.000000
#
# Coordination Sequence:
#
# PCOD8285193 Si02
#       6
#    32  32  32  32  16  32
#     4  10  21  36  59  85 113 150 190 235 284 343
#     4   9  19  36  57  80 109 148 187 228 284 338
#     4   9  19  34  54  80 110 148 190 232 282 335
#     4   9  18  33  57  84 111 143 186 237 279 326
#     4   9  18  32  54  88 119 142 180 236 289 340
#     4  10  22  38  56  80 113 149 186 230 283 343
#
# _framework density 19.154295999999999
#
# number of rings (size 3 to 8) (size 9 to 14) (size 15 to 20)
#    0.000    2.636    0.000    0.545    5.091    1.455 
#    0.000    2.727    0.000    5.455    0.000    0.000 
#    0.000    0.000    0.000    0.000    0.000    0.000 
#
# Total GULP energy -545510.394931 kJ/mol
# GULP energy per Si atom -12397.963521 kJ/mol
# Density = 1.911070 g / cm^3
# Si number density = 19.154296 Si / 1000 Ang^3
#
#
#
# Elastic Constant Matrix: (Units=GPa)
#
#
# Indices 1 2 3 4 5 6 
#
# 1 84.6378 42.8316 52.8874 0.0000 0.0000 0.0000
# 2 42.8316 103.7681 68.4551 0.0000 0.0000 0.0000
# 3 52.8874 68.4551 119.8708 0.0000 0.0000 0.0000
# 4 0.0000 0.0000 0.0000 29.3259 0.0000 0.0000
# 5 0.0000 0.0000 0.0000 0.0000 20.4066 0.0000
# 6 0.0000 0.0000 0.0000 0.0000 0.0000 22.7088
#
#
#
# Elastic Compliance Matrix: (Units=1/GPa)
#
#
# Indices 1 2 3 4 5 6 
#
# 1 0.016996 -0.003319 -0.005603 0.000000 0.000000 0.000000
# 2 -0.003319 0.016110 -0.007736 0.000000 0.000000 0.000000
# 3 -0.005603 -0.007736 0.015232 0.000000 0.000000 0.000000
# 4 0.000000 0.000000 0.000000 0.034100 0.000000 0.000000
# 5 0.000000 0.000000 0.000000 0.000000 0.049004 0.000000
# 6 0.000000 0.000000 0.000000 0.000000 0.000000 0.044036
#
#
# Mechanical properties :
#
#
# Convention : Reuss Voigt Hill
#
# Bulk Modulus (GPa) = 66.56759 70.73610 68.65184
# Shear Modulus (GPa) = 23.38628 24.09508 23.74068
#
# Velocity S-wave (km/s) = 3.49799 3.55060 3.52439
# Velocity P-wave (km/s) = 7.15146 7.33613 7.24438
#
# Compressibility (1/GPa) = 0.01502233
#
# Stress axis : x y z
#
# Youngs Moduli (GPa) = 58.83761 62.07347 65.65019
#
# Poissons Ratio (x) = 0.20601 0.36787
# Poissons Ratio (y) = 0.19527 0.50785
# Poissons Ratio (z) = 0.32969 0.48018
#
# Static dielectric constant tensor:
#      x y z
#    x 3.261280 0.000000 0.000000 
#    y 0.000000 3.704030 0.000000 
#    z 0.000000 0.000000 3.515180 
# 
# 
# High freq. dielectric constant tensor:
#      x y z
#    x 1.721860 0.000000 0.000000 
#    y 0.000000 1.749660 0.000000 
#    z 0.000000 0.000000 1.743210 
# 
# From -- ./inp_files/41802.got.cif
#   From: 2010.03.12/outbox.cif.g09.slc.cpg/sg69_21_cif.got.tgz:41802.got - 2010.04.10 23:52:46.
