data_PCOD8285114
_publ_section_title
;
Structure prediction by ZEFSAII (Michael W. Deem and Ramdas Pophale) SiO2 
 PCOD8285114
Probable space group: F M M M
;
_chemical_formula_sum "Si O2"
_cell_formula_units_Z 192
_cell_length_a 20.029146
_cell_length_b 28.481371
_cell_length_c 17.266136
_cell_angle_alpha 90.000000
_cell_angle_beta 90.000000
_cell_angle_gamma 90.000000
_cell_volume 9849.597434
_symmetry_space_group_name_H-M "F M M M"
_symmetry_group_IT_number 69
_symmetry_cell_setting 'orthorhombic'
loop_
_space_group_symop_operation_xyz
x,y,z
-x,-y,z
x,-y,-z
-x,y,-z
-x,-y,-z
x,y,-z
-x,y,z
x,-y,z
x,1/2+y,1/2+z
-x,1/2-y,1/2+z
x,1/2-y,1/2-z
-x,1/2+y,1/2-z
-x,1/2-y,1/2-z
x,1/2+y,1/2-z
-x,1/2+y,1/2+z
x,1/2-y,1/2+z
1/2+x,y,1/2+z
1/2-x,-y,1/2+z
1/2+x,-y,1/2-z
1/2-x,y,1/2-z
1/2-x,-y,1/2-z
1/2+x,y,1/2-z
1/2-x,y,1/2+z
1/2+x,-y,1/2+z
1/2+x,1/2+y,z
1/2-x,1/2-y,z
1/2+x,1/2-y,-z
1/2-x,1/2+y,-z
1/2-x,1/2-y,-z
1/2+x,1/2+y,-z
1/2-x,1/2+y,z
1/2+x,1/2-y,z
loop_
_atom_site_type_symbol
_atom_site_label
_atom_site_fract_x
_atom_site_fract_y
_atom_site_fract_z
Si Si1 0.425368 0.446588 0.262447
Si Si2 0.232050 0.646037 0.909433
Si Si3 0.371188 0.868694 0.329125
Si Si4 0.151760 0.947370 0.587024
Si Si5 0.636383 0.295088 0.697523
Si Si6 0.500000 0.660257 0.089042
Si Si7 0.000000 0.739446 0.839940
O O1 0.500000 0.425908 0.251092
O O2 0.422514 0.500000 0.235696
O O3 0.370837 0.420531 0.208608
O O4 0.408706 0.441189 0.353370
O O5 0.306789 0.644627 0.878109
O O6 0.205083 0.593482 0.895990
O O7 0.193884 0.686549 0.860671
O O8 0.230810 0.660192 0.000000
O O9 0.382435 0.834772 0.257431
O O10 0.434484 0.866054 0.383466
O O11 0.123198 0.941484 0.500000
O O12 0.183846 0.000000 0.596724
O O13 0.658663 0.250000 0.750000
O O14 0.570015 0.287377 0.644206
O O15 0.500000 0.714699 0.108977
O O16 0.500000 0.654379 0.000000
O O17 0.000000 0.750000 0.750000
#
# Coordination Sequence:
#
# PCOD8285114 Si02
#       7
#    32  32  32  32  32  16  16
#     4  10  21  36  62  96 125 160 209 254 299 365
#     4  11  25  41  59  92 129 163 207 256 309 370
#     4  12  22  41  64  88 123 163 207 255 307 358
#     4   9  19  37  60  90 130 166 199 247 308 368
#     4  11  22  41  66  90 122 163 203 254 308 363
#     4  12  24  42  67  91 118 160 210 254 309 370
#     4  10  20  42  64  90 118 157 204 251 301 361
#
# _framework density 19.493182999999998
#
# number of rings (size 3 to 8) (size 9 to 14) (size 15 to 20)
#    0.000    1.333    5.833    1.000    0.000    3.000 
#    0.000    4.167    0.000    2.000    0.000    0.000 
#    0.000    0.000    0.000    0.000    0.000    0.000 
#
# Total GULP energy -594884.402673 kJ/mol
# GULP energy per Si atom -12393.425056 kJ/mol
# Density = 1.944882 g / cm^3
# Si number density = 19.493183 Si / 1000 Ang^3
#
#
#
# Elastic Constant Matrix: (Units=GPa)
#
#
# Indices 1 2 3 4 5 6 
#
# 1 126.6023 52.6627 54.9772 0.0000 0.0000 0.0000
# 2 52.6627 106.7619 51.4820 0.0000 0.0000 0.0000
# 3 54.9772 51.4820 113.8129 0.0000 0.0000 0.0000
# 4 0.0000 0.0000 0.0000 30.1643 0.0000 0.0000
# 5 0.0000 0.0000 0.0000 0.0000 8.8926 0.0000
# 6 0.0000 0.0000 0.0000 0.0000 0.0000 23.6244
#
#
#
# Elastic Compliance Matrix: (Units=1/GPa)
#
#
# Indices 1 2 3 4 5 6 
#
# 1 0.011014 -0.003667 -0.003662 0.000000 0.000000 0.000000
# 2 -0.003667 0.013201 -0.004200 0.000000 0.000000 0.000000
# 3 -0.003662 -0.004200 0.012455 0.000000 0.000000 0.000000
# 4 0.000000 0.000000 0.000000 0.033152 0.000000 0.000000
# 5 0.000000 0.000000 0.000000 0.000000 0.112453 0.000000
# 6 0.000000 0.000000 0.000000 0.000000 0.000000 0.042329
#
#
# Mechanical properties :
#
#
# Convention : Reuss Voigt Hill
#
# Bulk Modulus (GPa) = 73.46153 73.93563 73.69858
# Shear Modulus (GPa) = 19.82564 25.07327 22.44945
#
# Velocity S-wave (km/s) = 3.19259 3.59034 3.39729
# Velocity P-wave (km/s) = 7.16643 7.42958 7.29919
#
# Compressibility (1/GPa) = 0.01361257
#
# Stress axis : x y z
#
# Youngs Moduli (GPa) = 90.79100 75.75292 80.29074
#
# Poissons Ratio (x) = 0.27782 0.29399
# Poissons Ratio (y) = 0.33297 0.33720
# Poissons Ratio (z) = 0.33243 0.31814
#
# Static dielectric constant tensor:
#      x y z
#    x 3.798930 0.000000 0.000000 
#    y 0.000000 3.911750 0.000000 
#    z 0.000000 0.000000 3.607480 
# 
# 
# High freq. dielectric constant tensor:
#      x y z
#    x 1.754760 0.000000 0.000000 
#    y 0.000000 1.767460 0.000000 
#    z 0.000000 0.000000 1.756180 
# 
# From -- ./inp_files/23737.got.cif
#   From: 2010.03.12/outbox.cif.g09.slc.cpg/sg69_12_cif.got.tgz:23737.got - 2010.04.10 23:52:46.
