data_PCOD8285733
_publ_section_title
;
Structure prediction by ZEFSAII (Michael W. Deem and Ramdas Pophale) SiO2 
 PCOD8285733
Probable space group: F D D D
;
_chemical_formula_sum "Si O2"
_cell_formula_units_Z 176
_cell_length_a 22.808515
_cell_length_b 28.236558
_cell_length_c 14.952673
_cell_angle_alpha 90.000000
_cell_angle_beta 90.000000
_cell_angle_gamma 90.000000
_cell_volume 9630.029155
_symmetry_space_group_name_H-M "F D D D"
_symmetry_group_IT_number 70
_space_group.IT_coordinate_system_code '2'
_symmetry_cell_setting 'orthorhombic'
loop_
_space_group_symop_operation_xyz
x,y,z
1/4-x,1/4-y,z
x,1/4-y,1/4-z
1/4-x,y,1/4-z
-x,-y,-z
3/4+x,3/4+y,-z
-x,3/4+y,3/4+z
3/4+x,-y,3/4+z
x,1/2+y,1/2+z
1/4-x,3/4-y,1/2+z
x,3/4-y,3/4-z
1/4-x,1/2+y,3/4-z
-x,1/2-y,1/2-z
3/4+x,1/4+y,1/2-z
-x,1/4+y,1/4+z
3/4+x,1/2-y,1/4+z
1/2+x,y,1/2+z
3/4-x,1/4-y,1/2+z
1/2+x,1/4-y,3/4-z
3/4-x,y,3/4-z
1/2-x,-y,1/2-z
1/4+x,3/4+y,1/2-z
1/2-x,3/4+y,1/4+z
1/4+x,-y,1/4+z
1/2+x,1/2+y,z
3/4-x,3/4-y,z
1/2+x,3/4-y,1/4-z
3/4-x,1/2+y,1/4-z
1/2-x,1/2-y,-z
1/4+x,1/4+y,-z
1/2-x,1/4+y,3/4+z
1/4+x,1/2-y,3/4+z
loop_
_atom_site_type_symbol
_atom_site_label
_atom_site_fract_x
_atom_site_fract_y
_atom_site_fract_z
Si Si1 0.924762 0.165034 0.245492
Si Si2 0.997288 0.227021 0.347502
Si Si3 0.215457 0.045810 0.003746
Si Si4 0.100348 0.810536 0.029178
Si Si5 0.376722 0.747261 0.138127
Si Si6 0.017888 0.625000 0.625000
O O1 0.889517 0.116210 0.257547
O O2 0.881637 0.207061 0.215027
O O3 0.959802 0.178293 0.337284
O O4 0.974376 0.163887 0.167933
O O5 0.065074 0.220413 0.375928
O O6 0.000000 0.250000 0.250000
O O7 0.960722 0.256393 0.419912
O O8 0.194897 0.096053 0.050137
O O9 0.281270 0.050927 0.968695
O O10 0.175053 0.032564 0.918889
O O11 0.125000 0.796450 0.125000
O O12 0.135392 0.779042 0.956251
#
# Coordination Sequence:
#
# PCOD8285733 Si02
#       6
#    32  32  32  32  32  16
#     4  10  17  34  54  74 110 138 181 229 267 330
#     4   9  17  31  50  75 107 141 177 221 274 335
#     4  10  20  33  54  79 111 148 179 227 281 340
#     4  10  21  36  54  79 108 145 187 241 275 312
#     4  10  19  34  53  77 112 146 181 222 289 334
#     4  10  16  36  49  74 118 140 169 230 276 312
#
# _framework density 18.276164000000001
#
# number of rings (size 3 to 8) (size 9 to 14) (size 15 to 20)
#    0.000    2.182    7.273    0.000    2.545    2.909 
#    0.000    4.545    0.000    0.000    0.000    0.000 
#    0.000    0.000    0.000    0.000    0.000    0.000 
#
# Total GULP energy -545138.158243 kJ/mol
# GULP energy per Si atom -12389.503596 kJ/mol
# Density = 1.823457 g / cm^3
# Si number density = 18.276164 Si / 1000 Ang^3
#
#
#
# Elastic Constant Matrix: (Units=GPa)
#
#
# Indices 1 2 3 4 5 6 
#
# 1 50.8244 34.8627 38.4947 0.0000 0.0000 0.0000
# 2 34.8627 70.7404 40.9185 0.0000 0.0000 0.0000
# 3 38.4947 40.9185 100.8643 0.0000 0.0000 0.0000
# 4 0.0000 0.0000 0.0000 33.6942 0.0000 0.0000
# 5 0.0000 0.0000 0.0000 0.0000 16.2994 0.0000
# 6 0.0000 0.0000 0.0000 0.0000 0.0000 20.5704
#
#
#
# Elastic Compliance Matrix: (Units=1/GPa)
#
#
# Indices 1 2 3 4 5 6 
#
# 1 0.034140 -0.012136 -0.008106 0.000000 0.000000 0.000000
# 2 -0.012136 0.022785 -0.004611 0.000000 0.000000 0.000000
# 3 -0.008106 -0.004611 0.014879 0.000000 0.000000 0.000000
# 4 0.000000 0.000000 0.000000 0.029679 0.000000 0.000000
# 5 0.000000 0.000000 0.000000 0.000000 0.061352 0.000000
# 6 0.000000 0.000000 0.000000 0.000000 0.000000 0.048614
#
#
# Mechanical properties :
#
#
# Convention : Reuss Voigt Hill
#
# Bulk Modulus (GPa) = 45.25741 50.10899 47.68320
# Shear Modulus (GPa) = 18.62056 21.32301 19.97179
#
# Velocity S-wave (km/s) = 3.19540 3.41942 3.30931
# Velocity P-wave (km/s) = 6.19927 6.56255 6.38350
#
# Compressibility (1/GPa) = 0.02209583
#
# Stress axis : x y z
#
# Youngs Moduli (GPa) = 29.29115 43.88908 67.21000
#
# Poissons Ratio (x) = 0.53265 0.54481
# Poissons Ratio (y) = 0.35549 0.30994
# Poissons Ratio (z) = 0.23744 0.20239
#
# Static dielectric constant tensor:
#      x y z
#    x 3.140790 0.000000 0.000000 
#    y 0.000000 3.541900 0.000000 
#    z 0.000000 0.000000 3.408380 
# 
# 
# High freq. dielectric constant tensor:
#      x y z
#    x 1.678330 0.000000 0.000000 
#    y 0.000000 1.701470 0.000000 
#    z 0.000000 0.000000 1.695560 
# 
# From -- ./inp_files/28973.got.cif
#   From: 2010.03.12/outbox.cif.g09.slc.cpg/sg70_15_cif.got.tgz:28973.got - 2010.04.16 13:46:32.
