data_PCOD8285653
_publ_section_title
;
Structure prediction by ZEFSAII (Michael W. Deem and Ramdas Pophale) SiO2 
 PCOD8285653
Probable space group: F M M M
;
_chemical_formula_sum "Si O2"
_cell_formula_units_Z 144
_cell_length_a 22.241350
_cell_length_b 16.890018
_cell_length_c 17.535713
_cell_angle_alpha 90.000000
_cell_angle_beta 90.000000
_cell_angle_gamma 90.000000
_cell_volume 6587.409864
_symmetry_space_group_name_H-M "F M M M"
_symmetry_group_IT_number 69
_symmetry_cell_setting 'orthorhombic'
loop_
_space_group_symop_operation_xyz
x,y,z
-x,-y,z
x,-y,-z
-x,y,-z
-x,-y,-z
x,y,-z
-x,y,z
x,-y,z
x,1/2+y,1/2+z
-x,1/2-y,1/2+z
x,1/2-y,1/2-z
-x,1/2+y,1/2-z
-x,1/2-y,1/2-z
x,1/2+y,1/2-z
-x,1/2+y,1/2+z
x,1/2-y,1/2+z
1/2+x,y,1/2+z
1/2-x,-y,1/2+z
1/2+x,-y,1/2-z
1/2-x,y,1/2-z
1/2-x,-y,1/2-z
1/2+x,y,1/2-z
1/2-x,y,1/2+z
1/2+x,-y,1/2+z
1/2+x,1/2+y,z
1/2-x,1/2-y,z
1/2+x,1/2-y,-z
1/2-x,1/2+y,-z
1/2-x,1/2-y,-z
1/2+x,1/2+y,-z
1/2-x,1/2+y,z
1/2+x,1/2-y,z
loop_
_atom_site_type_symbol
_atom_site_label
_atom_site_fract_x
_atom_site_fract_y
_atom_site_fract_z
Si Si1 0.382527 0.655185 0.658545
Si Si2 0.347749 0.680593 0.088977
Si Si3 0.500000 0.913183 0.088412
Si Si4 0.757515 0.590148 0.162080
Si Si5 0.430368 0.591993 0.811675
O O1 0.362234 0.743611 0.640334
O O2 0.440804 0.634573 0.609641
O O3 0.326991 0.597932 0.637379
O O4 0.398927 0.645063 0.747120
O O5 0.281842 0.647743 0.109280
O O6 0.397764 0.614037 0.109077
O O7 0.350780 0.701514 0.000000
O O8 0.500000 0.000000 0.129558
O O9 0.500000 0.926587 0.000000
O O10 0.736138 0.500000 0.149811
O O11 0.750000 0.615767 0.250000
O O12 0.500000 0.614327 0.817487
O O13 0.420817 0.500000 0.792906
#
# Coordination Sequence:
#
# PCOD8285653 Si02
#       5
#    32  32  16  32  32
#     4  12  24  43  73 101 139 181 230 287 345 410
#     4  12  28  45  67 104 148 183 224 284 355 421
#     4  11  24  42  67 102 142 182 229 287 346 406
#     4  11  24  44  73 103 135 181 235 286 339 409
#     4  11  24  44  72 103 136 184 243 291 337 406
#
# _framework density 21.859881000000001
#
# number of rings (size 3 to 8) (size 9 to 14) (size 15 to 20)
#    0.000    0.556    3.333    4.667    1.556    6.667 
#    0.000    1.111    0.000    0.000    0.000    0.000 
#    0.000    0.000    0.000    0.000    0.000    0.000 
#
# Total GULP energy -446543.747872 kJ/mol
# GULP energy per Si atom -12403.992996 kJ/mol
# Density = 2.181013 g / cm^3
# Si number density = 21.859881 Si / 1000 Ang^3
#
#
#
# Elastic Constant Matrix: (Units=GPa)
#
#
# Indices 1 2 3 4 5 6 
#
# 1 174.6869 46.7086 31.5664 0.0000 0.0000 0.0000
# 2 46.7086 82.1332 35.9419 0.0000 0.0000 0.0000
# 3 31.5664 35.9419 87.7660 0.0000 0.0000 0.0000
# 4 0.0000 0.0000 0.0000 26.7933 0.0000 0.0000
# 5 0.0000 0.0000 0.0000 0.0000 34.1547 0.0000
# 6 0.0000 0.0000 0.0000 0.0000 0.0000 28.8683
#
#
#
# Elastic Compliance Matrix: (Units=1/GPa)
#
#
# Indices 1 2 3 4 5 6 
#
# 1 0.006830 -0.003423 -0.001055 0.000000 0.000000 0.000000
# 2 -0.003423 0.016549 -0.005546 0.000000 0.000000 0.000000
# 3 -0.001055 -0.005546 0.014045 0.000000 0.000000 0.000000
# 4 0.000000 0.000000 0.000000 0.037323 0.000000 0.000000
# 5 0.000000 0.000000 0.000000 0.000000 0.029279 0.000000
# 6 0.000000 0.000000 0.000000 0.000000 0.000000 0.034640
#
#
# Mechanical properties :
#
#
# Convention : Reuss Voigt Hill
#
# Bulk Modulus (GPa) = 57.54965 63.66888 60.60926
# Shear Modulus (GPa) = 30.39428 33.32119 31.85774
#
# Velocity S-wave (km/s) = 3.73287 3.90847 3.82168
# Velocity P-wave (km/s) = 6.70543 7.03970 6.87460
#
# Compressibility (1/GPa) = 0.01737630
#
# Stress axis : x y z
#
# Youngs Moduli (GPa) = 146.40540 60.42739 71.20189
#
# Poissons Ratio (x) = 0.20683 0.07512
# Poissons Ratio (y) = 0.50110 0.39489
# Poissons Ratio (z) = 0.15445 0.33513
#
# Static dielectric constant tensor:
#      x y z
#    x 3.739110 0.000000 0.000000 
#    y 0.000000 4.027530 0.000000 
#    z 0.000000 0.000000 3.747730 
# 
# 
# High freq. dielectric constant tensor:
#      x y z
#    x 1.881620 0.000000 0.000000 
#    y 0.000000 1.867370 0.000000 
#    z 0.000000 0.000000 1.844030 
# 
# From -- ./inp_files/25583.got.cif
#   From: 2010.03.12/outbox.cif.g09.slc.cpg/sg69_13_cif.got.tgz:25583.got - 2010.04.10 23:52:46.
