data_PCOD8285302
_publ_section_title
;
Structure prediction by ZEFSAII (Michael W. Deem and Ramdas Pophale) SiO2 
 PCOD8285302
Probable space group: F M M M
;
_chemical_formula_sum "Si O2"
_cell_formula_units_Z 112
_cell_length_a 10.023467
_cell_length_b 22.787608
_cell_length_c 26.793228
_cell_angle_alpha 90.000000
_cell_angle_beta 90.000000
_cell_angle_gamma 90.000000
_cell_volume 6119.863628
_symmetry_space_group_name_H-M "F M M M"
_symmetry_group_IT_number 69
_symmetry_cell_setting 'orthorhombic'
loop_
_space_group_symop_operation_xyz
x,y,z
-x,-y,z
x,-y,-z
-x,y,-z
-x,-y,-z
x,y,-z
-x,y,z
x,-y,z
x,1/2+y,1/2+z
-x,1/2-y,1/2+z
x,1/2-y,1/2-z
-x,1/2+y,1/2-z
-x,1/2-y,1/2-z
x,1/2+y,1/2-z
-x,1/2+y,1/2+z
x,1/2-y,1/2+z
1/2+x,y,1/2+z
1/2-x,-y,1/2+z
1/2+x,-y,1/2-z
1/2-x,y,1/2-z
1/2-x,-y,1/2-z
1/2+x,y,1/2-z
1/2-x,y,1/2+z
1/2+x,-y,1/2+z
1/2+x,1/2+y,z
1/2-x,1/2-y,z
1/2+x,1/2-y,-z
1/2-x,1/2+y,-z
1/2-x,1/2-y,-z
1/2+x,1/2+y,-z
1/2-x,1/2+y,z
1/2+x,1/2-y,z
loop_
_atom_site_type_symbol
_atom_site_label
_atom_site_fract_x
_atom_site_fract_y
_atom_site_fract_z
Si Si1 0.147488 0.000000 0.941670
Si Si2 0.344940 0.067674 0.296518
Si Si3 0.500000 0.830606 0.058274
Si Si4 0.000000 0.308298 0.443106
Si Si5 0.765535 0.619191 0.398384
O O1 0.226467 0.057402 0.926111
O O2 0.000000 0.000000 0.916158
O O3 0.130377 0.000000 0.000000
O O4 0.500000 0.081627 0.283650
O O5 0.250000 0.081009 0.250000
O O6 0.290642 0.109826 0.339819
O O7 0.330465 0.000000 0.313611
O O8 0.500000 0.761026 0.061155
O O9 0.622683 0.855041 0.089425
O O10 0.500000 0.850802 0.000000
O O11 0.129952 0.333509 0.417346
O O12 0.000000 0.329596 0.500000
#
# Coordination Sequence:
#
# PCOD8285302 Si02
#       5
#    16  32  16  16  32
#     4  11  20  33  58  89 121 158 194 243 309 372
#     4  10  21  39  63  91 120 156 202 249 307 374
#     4  11  26  41  58  91 128 167 211 252 296 354
#     4  11  22  41  66  87 118 169 217 248 290 366
#     4  12  22  39  63  90 125 160 201 256 308 363
#
# _framework density 18.301061000000001
#
# number of rings (size 3 to 8) (size 9 to 14) (size 15 to 20)
#    0.000    1.000    4.286    3.429    2.000    2.857 
#    0.000    1.429    0.000    5.143    0.000    0.000 
#    0.000    0.000    0.000    0.000    0.000    0.000 
#
# Total GULP energy -347255.124932 kJ/mol
# GULP energy per Si atom -12401.968748 kJ/mol
# Density = 1.825941 g / cm^3
# Si number density = 18.301061 Si / 1000 Ang^3
#
#
#
# Elastic Constant Matrix: (Units=GPa)
#
#
# Indices 1 2 3 4 5 6 
#
# 1 176.6728 52.2784 81.4913 0.0000 0.0000 0.0000
# 2 52.2784 81.7632 49.8366 0.0000 0.0000 0.0000
# 3 81.4913 49.8366 139.0974 0.0000 0.0000 0.0000
# 4 0.0000 0.0000 0.0000 -35.6093 0.0000 0.0000
# 5 0.0000 0.0000 0.0000 0.0000 36.4837 0.0000
# 6 0.0000 0.0000 0.0000 0.0000 0.0000 48.5315
#
#
#
# Elastic Compliance Matrix: (Units=1/GPa)
#
#
# Indices 1 2 3 4 5 6 
#
# 1 0.008292 -0.002995 -0.003785 0.000000 0.000000 0.000000
# 2 -0.002995 0.016729 -0.004239 0.000000 0.000000 0.000000
# 3 -0.003785 -0.004239 0.010926 0.000000 0.000000 0.000000
# 4 0.000000 0.000000 0.000000 -0.028083 0.000000 0.000000
# 5 0.000000 0.000000 0.000000 0.000000 0.027409 0.000000
# 6 0.000000 0.000000 0.000000 0.000000 0.000000 0.020605
#
#
# Mechanical properties :
#
#
# Convention : Reuss Voigt Hill
#
# Bulk Modulus (GPa) = 71.89759 84.97175 78.43467
# Shear Modulus (GPa) = 60.56652 24.14301 42.35477
#
# Velocity S-wave (km/s) = 5.75903 3.63604 4.81597
# Velocity P-wave (km/s) = 9.14293 8.00990 8.59510
#
# Compressibility (1/GPa) = 0.01390867
#
# Stress axis : x y z
#
# Youngs Moduli (GPa) = 120.59431 59.77544 91.52830
#
# Poissons Ratio (x) = 0.17902 0.34644
# Poissons Ratio (y) = 0.36117 0.38801
# Poissons Ratio (z) = 0.45646 0.25340
#
# Static dielectric constant tensor:
#      x y z
#    x 3.482910 0.000000 0.000000 
#    y 0.000000 3.343640 0.000000 
#    z 0.000000 0.000000 3.432150 
# 
# 
# High freq. dielectric constant tensor:
#      x y z
#    x 1.721210 0.000000 0.000000 
#    y 0.000000 1.705540 0.000000 
#    z 0.000000 0.000000 1.713740 
# 
# From -- ./inp_files/3749.got.cif
#   From: 2010.03.12/outbox.cif.g09.slc.cpg/sg69_2_cif.got.tgz:3749.got - 2010.04.10 23:52:46.
