data_PCOD8285014
_publ_section_title
;
Structure prediction by ZEFSAII (Michael W. Deem and Ramdas Pophale) SiO2 
 PCOD8285014
Probable space group: F M M M
;
_chemical_formula_sum "Si O2"
_cell_formula_units_Z 208
_cell_length_a 18.269390
_cell_length_b 21.497724
_cell_length_c 26.136293
_cell_angle_alpha 90.000000
_cell_angle_beta 90.000000
_cell_angle_gamma 90.000000
_cell_volume 10265.037018
_symmetry_space_group_name_H-M "F M M M"
_symmetry_group_IT_number 69
_symmetry_cell_setting 'orthorhombic'
loop_
_space_group_symop_operation_xyz
x,y,z
-x,-y,z
x,-y,-z
-x,y,-z
-x,-y,-z
x,y,-z
-x,y,z
x,-y,z
x,1/2+y,1/2+z
-x,1/2-y,1/2+z
x,1/2-y,1/2-z
-x,1/2+y,1/2-z
-x,1/2-y,1/2-z
x,1/2+y,1/2-z
-x,1/2+y,1/2+z
x,1/2-y,1/2+z
1/2+x,y,1/2+z
1/2-x,-y,1/2+z
1/2+x,-y,1/2-z
1/2-x,y,1/2-z
1/2-x,-y,1/2-z
1/2+x,y,1/2-z
1/2-x,y,1/2+z
1/2+x,-y,1/2+z
1/2+x,1/2+y,z
1/2-x,1/2-y,z
1/2+x,1/2-y,-z
1/2-x,1/2+y,-z
1/2-x,1/2-y,-z
1/2+x,1/2+y,-z
1/2-x,1/2+y,z
1/2+x,1/2-y,z
loop_
_atom_site_type_symbol
_atom_site_label
_atom_site_fract_x
_atom_site_fract_y
_atom_site_fract_z
Si Si1 0.338694 0.398288 0.387901
Si Si2 0.414668 0.809419 0.281238
Si Si3 0.188817 0.071400 0.058130
Si Si4 0.330892 0.274230 0.557922
Si Si5 0.413699 0.332056 0.894837
Si Si6 0.083660 0.500000 0.053992
Si Si7 0.415553 0.928059 0.213448
O O1 0.258908 0.419418 0.405852
O O2 0.351586 0.326892 0.401504
O O3 0.399574 0.438018 0.415980
O O4 0.354393 0.410676 0.328479
O O5 0.500000 0.796124 0.285155
O O6 0.379959 0.750000 0.250000
O O7 0.382757 0.812704 0.338801
O O8 0.399554 0.877666 0.257535
O O9 0.121068 0.104073 0.085637
O O10 0.167629 0.000000 0.055182
O O11 0.202628 0.097266 0.000000
O O12 0.335310 0.299763 0.500000
O O13 0.250000 0.250000 0.570437
O O14 0.390153 0.220385 0.564909
O O15 0.500000 0.341270 0.894607
O O16 0.000000 0.500000 0.041583
O O17 0.127926 0.500000 0.000000
O O18 0.500000 0.920413 0.193972
O O19 0.403698 0.000000 0.231971
#
# Coordination Sequence:
#
# PCOD8285014 Si02
#       7
#    32  32  32  32  32  16  32
#     4  12  21  37  62  88 125 167 210 250 306 377
#     4   9  19  38  63  90 121 161 208 258 317 376
#     4  11  23  40  63  88 120 168 212 250 310 374
#     4  11  23  39  62  90 123 166 211 251 307 379
#     4  11  24  42  65  93 124 157 207 267 309 358
#     4  11  22  34  54  90 128 159 205 259 304 369
#     4  10  20  36  61  93 128 166 207 255 315 383
#
# _framework density 20.262957
#
# number of rings (size 3 to 8) (size 9 to 14) (size 15 to 20)
#    0.000    1.308    3.077    3.231    0.000    4.615 
#    0.000    3.077    0.000    1.846    0.000    0.000 
#    0.000    0.000    0.000    0.000    0.000    0.000 
#
# Total GULP energy -644604.393351 kJ/mol
# GULP energy per Si atom -12396.238334 kJ/mol
# Density = 2.021684 g / cm^3
# Si number density = 20.262957 Si / 1000 Ang^3
#
#
#
# Elastic Constant Matrix: (Units=GPa)
#
#
# Indices 1 2 3 4 5 6 
#
# 1 77.8257 32.3584 33.8100 0.0000 0.0000 0.0000
# 2 32.3584 131.4214 37.3577 0.0000 0.0000 0.0000
# 3 33.8100 37.3577 83.2292 0.0000 0.0000 0.0000
# 4 0.0000 0.0000 0.0000 36.5850 0.0000 0.0000
# 5 0.0000 0.0000 0.0000 0.0000 25.0368 0.0000
# 6 0.0000 0.0000 0.0000 0.0000 0.0000 50.2161
#
#
#
# Elastic Compliance Matrix: (Units=1/GPa)
#
#
# Indices 1 2 3 4 5 6 
#
# 1 0.016256 -0.002436 -0.005510 0.000000 0.000000 0.000000
# 2 -0.002436 0.009087 -0.003089 0.000000 0.000000 0.000000
# 3 -0.005510 -0.003089 0.015640 0.000000 0.000000 0.000000
# 4 0.000000 0.000000 0.000000 0.027334 0.000000 0.000000
# 5 0.000000 0.000000 0.000000 0.000000 0.039941 0.000000
# 6 0.000000 0.000000 0.000000 0.000000 0.000000 0.019914
#
#
# Mechanical properties :
#
#
# Convention : Reuss Voigt Hill
#
# Bulk Modulus (GPa) = 52.87631 55.50320 54.18975
# Shear Modulus (GPa) = 31.93937 34.96425 33.45181
#
# Velocity S-wave (km/s) = 3.97450 4.15845 4.06752
# Velocity P-wave (km/s) = 6.87124 7.10689 6.99006
#
# Compressibility (1/GPa) = 0.01891206
#
# Stress axis : x y z
#
# Youngs Moduli (GPa) = 61.51600 110.04660 63.93890
#
# Poissons Ratio (x) = 0.26810 0.35231
# Poissons Ratio (y) = 0.14987 0.19751
# Poissons Ratio (z) = 0.33896 0.33995
#
# Static dielectric constant tensor:
#      x y z
#    x 3.442680 0.000000 0.000000 
#    y 0.000000 2.840030 0.000000 
#    z 0.000000 0.000000 3.914170 
# 
# 
# High freq. dielectric constant tensor:
#      x y z
#    x 1.769000 0.000000 0.000000 
#    y 0.000000 1.808280 0.000000 
#    z 0.000000 0.000000 1.792990 
# 
# From -- ./inp_files/42020.got.cif
#   From: 2010.03.12/outbox.cif.g09.slc.cpg/sg69_22_cif.got.tgz:42020.got - 2010.04.10 23:52:46.
