data_PCOD8285597
_publ_section_title
;
Structure prediction by ZEFSAII (Michael W. Deem and Ramdas Pophale) SiO2 
 PCOD8285597
Probable space group: F M M M
;
_chemical_formula_sum "Si O2"
_cell_formula_units_Z 168
_cell_length_a 28.589705
_cell_length_b 21.925446
_cell_length_c 13.849287
_cell_angle_alpha 90.000000
_cell_angle_beta 90.000000
_cell_angle_gamma 90.000000
_cell_volume 8681.315221
_symmetry_space_group_name_H-M "F M M M"
_symmetry_group_IT_number 69
_symmetry_cell_setting 'orthorhombic'
loop_
_space_group_symop_operation_xyz
x,y,z
-x,-y,z
x,-y,-z
-x,y,-z
-x,-y,-z
x,y,-z
-x,y,z
x,-y,z
x,1/2+y,1/2+z
-x,1/2-y,1/2+z
x,1/2-y,1/2-z
-x,1/2+y,1/2-z
-x,1/2-y,1/2-z
x,1/2+y,1/2-z
-x,1/2+y,1/2+z
x,1/2-y,1/2+z
1/2+x,y,1/2+z
1/2-x,-y,1/2+z
1/2+x,-y,1/2-z
1/2-x,y,1/2-z
1/2-x,-y,1/2-z
1/2+x,y,1/2-z
1/2-x,y,1/2+z
1/2+x,-y,1/2+z
1/2+x,1/2+y,z
1/2-x,1/2-y,z
1/2+x,1/2-y,-z
1/2-x,1/2+y,-z
1/2-x,1/2-y,-z
1/2+x,1/2+y,-z
1/2-x,1/2+y,z
1/2+x,1/2-y,z
loop_
_atom_site_type_symbol
_atom_site_label
_atom_site_fract_x
_atom_site_fract_y
_atom_site_fract_z
Si Si1 0.055208 0.732167 0.394695
Si Si2 0.554877 0.650821 0.279417
Si Si3 0.861127 0.929842 0.292928
Si Si4 0.250000 0.750000 0.750000
Si Si5 0.697474 0.430982 0.891728
Si Si6 0.714041 0.848320 0.888213
O O1 0.078053 0.721735 0.500000
O O2 0.068357 0.675581 0.326841
O O3 0.071910 0.797088 0.353573
O O4 0.000000 0.735951 0.401098
O O5 0.500000 0.635076 0.289186
O O6 0.584679 0.590211 0.299293
O O7 0.844284 0.919674 0.183010
O O8 0.831014 0.889289 0.366137
O O9 0.857580 0.000000 0.325072
O O10 0.284228 0.789337 0.818988
O O11 0.716483 0.500000 0.883096
O O12 0.739939 0.387235 0.864682
O O13 0.678677 0.418005 0.000000
O O14 0.712224 0.827792 0.000000
#
# Coordination Sequence:
#
# PCOD8285597 Si02
#       6
#    32  32  32   8  32  32
#     4   8  15  32  57  78 101 139 185 235 289 337
#     4   9  19  34  53  82 115 147 191 237 279 334
#     4  11  22  37  57  82 114 152 195 237 281 335
#     4  12  22  40  62  90 122 152 174 222 288 350
#     4   9  18  36  61  83 106 143 189 235 282 335
#     4  11  23  40  61  86 116 147 183 229 281 342
#
# _framework density 19.351906
#
# number of rings (size 3 to 8) (size 9 to 14) (size 15 to 20)
#    0.000    2.286    1.905    2.000    0.000    6.095 
#    0.000    0.000    0.000    0.000    0.000    9.333 
#    0.000    0.000    0.000    0.000    0.000    0.000 
#
# Total GULP energy -520721.483332 kJ/mol
# GULP energy per Si atom -12398.130556 kJ/mol
# Density = 1.930786 g / cm^3
# Si number density = 19.351906 Si / 1000 Ang^3
#
#
#
# Elastic Constant Matrix: (Units=GPa)
#
#
# Indices 1 2 3 4 5 6 
#
# 1 82.9106 49.7582 20.4863 0.0000 0.0000 0.0000
# 2 49.7582 102.3097 41.4502 0.0000 0.0000 0.0000
# 3 20.4863 41.4502 103.8009 0.0000 0.0000 0.0000
# 4 0.0000 0.0000 0.0000 25.2585 0.0000 0.0000
# 5 0.0000 0.0000 0.0000 0.0000 17.2914 0.0000
# 6 0.0000 0.0000 0.0000 0.0000 0.0000 34.5099
#
#
#
# Elastic Compliance Matrix: (Units=1/GPa)
#
#
# Indices 1 2 3 4 5 6 
#
# 1 0.017033 -0.008258 -0.000064 0.000000 0.000000 0.000000
# 2 -0.008258 0.015665 -0.004625 0.000000 0.000000 0.000000
# 3 -0.000064 -0.004625 0.011493 0.000000 0.000000 0.000000
# 4 0.000000 0.000000 0.000000 0.039591 0.000000 0.000000
# 5 0.000000 0.000000 0.000000 0.000000 0.057832 0.000000
# 6 0.000000 0.000000 0.000000 0.000000 0.000000 0.028977
#
#
# Mechanical properties :
#
#
# Convention : Reuss Voigt Hill
#
# Bulk Modulus (GPa) = 54.65653 56.93452 55.79552
# Shear Modulus (GPa) = 24.68104 27.23372 25.95738
#
# Velocity S-wave (km/s) = 3.57512 3.75545 3.66640
# Velocity P-wave (km/s) = 6.73400 6.94903 6.84236
#
# Compressibility (1/GPa) = 0.01829608
#
# Stress axis : x y z
#
# Youngs Moduli (GPa) = 58.70948 63.83861 87.00573
#
# Poissons Ratio (x) = 0.52718 0.00557
# Poissons Ratio (y) = 0.48483 0.40244
# Poissons Ratio (z) = 0.00376 0.29528
#
# Static dielectric constant tensor:
#      x y z
#    x 3.168560 0.000000 0.000000 
#    y 0.000000 3.443920 0.000000 
#    z 0.000000 0.000000 4.339870 
# 
# 
# High freq. dielectric constant tensor:
#      x y z
#    x 1.726160 0.000000 0.000000 
#    y 0.000000 1.744140 0.000000 
#    z 0.000000 0.000000 1.765580 
# 
# From -- ./inp_files/19701.got.cif
#   From: 2010.03.12/outbox.cif.g09.slc.cpg/sg69_10_cif.got.tgz:19701.got - 2010.04.10 23:52:46.
