data_PCOD8285650
_publ_section_title
;
Structure prediction by ZEFSAII (Michael W. Deem and Ramdas Pophale) SiO2 
 PCOD8285650
Probable space group: F M M M
;
_chemical_formula_sum "Si O2"
_cell_formula_units_Z 128
_cell_length_a 8.575206
_cell_length_b 23.822277
_cell_length_c 30.645278
_cell_angle_alpha 90.000000
_cell_angle_beta 90.000000
_cell_angle_gamma 90.000000
_cell_volume 6260.245972
_symmetry_space_group_name_H-M "F M M M"
_symmetry_group_IT_number 69
_symmetry_cell_setting 'orthorhombic'
loop_
_space_group_symop_operation_xyz
x,y,z
-x,-y,z
x,-y,-z
-x,y,-z
-x,-y,-z
x,y,-z
-x,y,z
x,-y,z
x,1/2+y,1/2+z
-x,1/2-y,1/2+z
x,1/2-y,1/2-z
-x,1/2+y,1/2-z
-x,1/2-y,1/2-z
x,1/2+y,1/2-z
-x,1/2+y,1/2+z
x,1/2-y,1/2+z
1/2+x,y,1/2+z
1/2-x,-y,1/2+z
1/2+x,-y,1/2-z
1/2-x,y,1/2-z
1/2-x,-y,1/2-z
1/2+x,y,1/2-z
1/2-x,y,1/2+z
1/2+x,-y,1/2+z
1/2+x,1/2+y,z
1/2-x,1/2-y,z
1/2+x,1/2-y,-z
1/2-x,1/2+y,-z
1/2-x,1/2-y,-z
1/2+x,1/2+y,-z
1/2-x,1/2+y,z
1/2+x,1/2-y,z
loop_
_atom_site_type_symbol
_atom_site_label
_atom_site_fract_x
_atom_site_fract_y
_atom_site_fract_z
Si Si1 0.179276 0.888970 0.549778
Si Si2 0.816186 0.883289 0.205265
Si Si3 0.682554 0.500000 0.678461
Si Si4 0.685100 0.688226 0.877583
Si Si5 0.181500 0.000000 0.916031
O O1 0.196733 0.869058 0.500000
O O2 0.243342 0.838858 0.579196
O O3 0.000000 0.901752 0.561653
O O4 0.279555 0.945147 0.556069
O O5 0.750000 0.856533 0.250000
O O6 0.757488 0.846930 0.164303
O O7 0.000000 0.883481 0.207220
O O8 0.755410 0.946180 0.201237
O O9 0.500000 0.500000 0.686698
O O10 0.716974 0.500000 0.627358
O O11 0.500000 0.688833 0.881720
O O12 0.750000 0.750000 0.872034
O O13 0.000000 0.000000 0.903222
#
# Coordination Sequence:
#
# PCOD8285650 Si02
#       5
#    32  32  16  32  16
#     4  11  24  42  66  96 129 167 212 260 315 377
#     4  11  24  42  65  95 129 167 210 260 316 378
#     4  12  23  38  65  95 129 170 207 258 316 374
#     4  11  25  44  67  92 125 167 215 266 317 374
#     4  12  23  38  63  96 132 169 208 254 316 382
#
# _framework density 20.446482
#
# number of rings (size 3 to 8) (size 9 to 14) (size 15 to 20)
#    0.000    0.750    2.500    5.250    0.000    7.500 
#    0.000    2.500    0.000    0.000    0.000    0.000 
#    0.000    0.000    0.000    0.000    0.000    0.000 
#
# Total GULP energy -397033.091028 kJ/mol
# GULP energy per Si atom -12407.284095 kJ/mol
# Density = 2.039994 g / cm^3
# Si number density = 20.446482 Si / 1000 Ang^3
#
#
#
# Elastic Constant Matrix: (Units=GPa)
#
#
# Indices 1 2 3 4 5 6 
#
# 1 73.2697 32.5642 38.6336 0.0000 0.0000 0.0000
# 2 32.5642 132.5395 51.7860 0.0000 0.0000 0.0000
# 3 38.6336 51.7860 143.3453 0.0000 0.0000 0.0000
# 4 0.0000 0.0000 0.0000 11.6433 0.0000 0.0000
# 5 0.0000 0.0000 0.0000 0.0000 35.3775 0.0000
# 6 0.0000 0.0000 0.0000 0.0000 0.0000 21.8671
#
#
#
# Elastic Compliance Matrix: (Units=1/GPa)
#
#
# Indices 1 2 3 4 5 6 
#
# 1 0.016718 -0.002733 -0.003518 0.000000 0.000000 0.000000
# 2 -0.002733 0.009232 -0.002599 0.000000 0.000000 0.000000
# 3 -0.003518 -0.002599 0.008863 0.000000 0.000000 0.000000
# 4 0.000000 0.000000 0.000000 0.085886 0.000000 0.000000
# 5 0.000000 0.000000 0.000000 0.000000 0.028267 0.000000
# 6 0.000000 0.000000 0.000000 0.000000 0.000000 0.045731
#
#
# Mechanical properties :
#
#
# Convention : Reuss Voigt Hill
#
# Bulk Modulus (GPa) = 58.43436 66.12469 62.27953
# Shear Modulus (GPa) = 22.92522 28.85563 25.89043
#
# Velocity S-wave (km/s) = 3.35211 3.76077 3.56231
# Velocity P-wave (km/s) = 6.60480 7.16020 6.88810
#
# Compressibility (1/GPa) = 0.01711322
#
# Stress axis : x y z
#
# Youngs Moduli (GPa) = 59.81584 108.32273 112.82577
#
# Poissons Ratio (x) = 0.29602 0.39697
# Poissons Ratio (y) = 0.16346 0.29319
# Poissons Ratio (z) = 0.21046 0.28149
#
# Static dielectric constant tensor:
#      x y z
#    x 3.834300 0.000000 0.000000 
#    y 0.000000 3.657980 0.000000 
#    z 0.000000 0.000000 3.987270 
# 
# 
# High freq. dielectric constant tensor:
#      x y z
#    x 1.814750 0.000000 0.000000 
#    y 0.000000 1.795130 0.000000 
#    z 0.000000 0.000000 1.817300 
# 
# From -- ./inp_files/44399.got.cif
#   From: 2010.03.12/outbox.cif.g09.slc.cpg/sg69_23_cif.got.tgz:44399.got - 2010.04.10 23:52:46.
