data_PCOD8285019
_publ_section_title
;
Structure prediction by ZEFSAII (Michael W. Deem and Ramdas Pophale) SiO2 
 PCOD8285019
Probable space group: F M M M
;
_chemical_formula_sum "Si O2"
_cell_formula_units_Z 136
_cell_length_a 22.310416
_cell_length_b 13.576688
_cell_length_c 23.234774
_cell_angle_alpha 90.000000
_cell_angle_beta 90.000000
_cell_angle_gamma 90.000000
_cell_volume 7037.849225
_symmetry_space_group_name_H-M "F M M M"
_symmetry_group_IT_number 69
_symmetry_cell_setting 'orthorhombic'
loop_
_space_group_symop_operation_xyz
x,y,z
-x,-y,z
x,-y,-z
-x,y,-z
-x,-y,-z
x,y,-z
-x,y,z
x,-y,z
x,1/2+y,1/2+z
-x,1/2-y,1/2+z
x,1/2-y,1/2-z
-x,1/2+y,1/2-z
-x,1/2-y,1/2-z
x,1/2+y,1/2-z
-x,1/2+y,1/2+z
x,1/2-y,1/2+z
1/2+x,y,1/2+z
1/2-x,-y,1/2+z
1/2+x,-y,1/2-z
1/2-x,y,1/2-z
1/2-x,-y,1/2-z
1/2+x,y,1/2-z
1/2-x,y,1/2+z
1/2+x,-y,1/2+z
1/2+x,1/2+y,z
1/2-x,1/2-y,z
1/2+x,1/2-y,-z
1/2-x,1/2+y,-z
1/2-x,1/2-y,-z
1/2+x,1/2+y,-z
1/2-x,1/2+y,z
1/2+x,1/2-y,z
loop_
_atom_site_type_symbol
_atom_site_label
_atom_site_fract_x
_atom_site_fract_y
_atom_site_fract_z
Si Si1 0.389749 0.611432 0.000000
Si Si2 0.500000 0.739403 0.500000
Si Si3 0.000000 0.882517 0.382416
Si Si4 0.340555 0.387706 0.878152
Si Si5 0.223940 0.110993 0.686767
Si Si6 0.898561 0.775413 0.685711
O O1 0.345857 0.626974 0.053788
O O2 0.416895 0.500000 0.000000
O O3 0.442247 0.691012 0.000000
O O4 0.500000 0.669392 0.444422
O O5 0.057299 0.850452 0.345531
O O6 0.000000 0.000000 0.390971
O O7 0.350484 0.500000 0.858538
O O8 0.274440 0.353184 0.858399
O O9 0.394441 0.327644 0.848170
O O10 0.250000 0.120685 0.750000
O O11 0.167132 0.179692 0.682859
O O12 0.203835 0.000000 0.672970
O O13 0.920518 0.750000 0.750000
#
# Coordination Sequence:
#
# PCOD8285019 Si02
#       6
#    16   8  16  32  32  32
#     4  10  21  41  67  95 128 160 208 266 314 370
#     4  12  22  46  68  90 114 174 218 256 316 378
#     4  12  28  46  64  88 126 168 216 266 312 374
#     4  10  21  37  62  97 127 158 201 258 314 375
#     4  10  20  36  62  94 129 165 203 248 308 377
#     4  12  23  40  64  93 127 169 208 256 310 377
#
# _framework density 19.324086000000001
#
# number of rings (size 3 to 8) (size 9 to 14) (size 15 to 20)
#    0.000    1.176    4.706    2.118    0.000    0.941 
#    0.000    4.118    0.000    2.824    0.000    0.000 
#    0.000    0.000    0.000    0.000    0.000    0.000 
#
# Total GULP energy -421608.131281 kJ/mol
# GULP energy per Si atom -12400.239155 kJ/mol
# Density = 1.928010 g / cm^3
# Si number density = 19.324086 Si / 1000 Ang^3
#
#
#
# Elastic Constant Matrix: (Units=GPa)
#
#
# Indices 1 2 3 4 5 6 
#
# 1 77.8884 47.1106 41.3428 0.0000 0.0000 0.0000
# 2 47.1106 111.2961 52.1166 0.0000 0.0000 0.0000
# 3 41.3428 52.1166 147.3843 0.0000 0.0000 0.0000
# 4 0.0000 0.0000 0.0000 28.5876 0.0000 0.0000
# 5 0.0000 0.0000 0.0000 0.0000 54.3617 0.0000
# 6 0.0000 0.0000 0.0000 0.0000 0.0000 36.2709
#
#
#
# Elastic Compliance Matrix: (Units=1/GPa)
#
#
# Indices 1 2 3 4 5 6 
#
# 1 0.018207 -0.006370 -0.002855 0.000000 0.000000 0.000000
# 2 -0.006370 0.012997 -0.002809 0.000000 0.000000 0.000000
# 3 -0.002855 -0.002809 0.008579 0.000000 0.000000 0.000000
# 4 0.000000 0.000000 0.000000 0.034980 0.000000 0.000000
# 5 0.000000 0.000000 0.000000 0.000000 0.018395 0.000000
# 6 0.000000 0.000000 0.000000 0.000000 0.000000 0.027570
#
#
# Mechanical properties :
#
#
# Convention : Reuss Voigt Hill
#
# Bulk Modulus (GPa) = 63.63190 68.63429 66.13310
# Shear Modulus (GPa) = 33.32561 36.91062 35.11811
#
# Velocity S-wave (km/s) = 4.15729 4.37519 4.26763
# Velocity P-wave (km/s) = 7.48628 7.81778 7.65382
#
# Compressibility (1/GPa) = 0.01571539
#
# Stress axis : x y z
#
# Youngs Moduli (GPa) = 54.92361 76.94216 116.56331
#
# Poissons Ratio (x) = 0.49013 0.33276
# Poissons Ratio (y) = 0.34987 0.32742
# Poissons Ratio (z) = 0.15679 0.21612
#
# Static dielectric constant tensor:
#      x y z
#    x 3.702040 0.000000 0.000000 
#    y 0.000000 3.851030 0.000000 
#    z 0.000000 0.000000 3.641960 
# 
# 
# High freq. dielectric constant tensor:
#      x y z
#    x 1.741860 0.000000 0.000000 
#    y 0.000000 1.771970 0.000000 
#    z 0.000000 0.000000 1.757580 
# 
# From -- ./inp_files/32501.got.cif
#   From: 2010.03.12/outbox.cif.g09.slc.cpg/sg69_17_cif.got.tgz:32501.got - 2010.04.10 23:52:46.
