data_PCOD8285899
_publ_section_title
;
Structure prediction by ZEFSAII (Michael W. Deem and Ramdas Pophale) SiO2 
 PCOD8285899
Probable space group: F D D D
;
_chemical_formula_sum "Si O2"
_cell_formula_units_Z 240
_cell_length_a 24.016221
_cell_length_b 23.616218
_cell_length_c 23.438271
_cell_angle_alpha 90.000000
_cell_angle_beta 90.000000
_cell_angle_gamma 90.000000
_cell_volume 13293.538321
_symmetry_space_group_name_H-M "F D D D"
_symmetry_group_IT_number 70
_space_group.IT_coordinate_system_code '2'
_symmetry_cell_setting 'orthorhombic'
loop_
_space_group_symop_operation_xyz
x,y,z
1/4-x,1/4-y,z
x,1/4-y,1/4-z
1/4-x,y,1/4-z
-x,-y,-z
3/4+x,3/4+y,-z
-x,3/4+y,3/4+z
3/4+x,-y,3/4+z
x,1/2+y,1/2+z
1/4-x,3/4-y,1/2+z
x,3/4-y,3/4-z
1/4-x,1/2+y,3/4-z
-x,1/2-y,1/2-z
3/4+x,1/4+y,1/2-z
-x,1/4+y,1/4+z
3/4+x,1/2-y,1/4+z
1/2+x,y,1/2+z
3/4-x,1/4-y,1/2+z
1/2+x,1/4-y,3/4-z
3/4-x,y,3/4-z
1/2-x,-y,1/2-z
1/4+x,3/4+y,1/2-z
1/2-x,3/4+y,1/4+z
1/4+x,-y,1/4+z
1/2+x,1/2+y,z
3/4-x,3/4-y,z
1/2+x,3/4-y,1/4-z
3/4-x,1/2+y,1/4-z
1/2-x,1/2-y,-z
1/4+x,1/4+y,-z
1/2-x,1/4+y,3/4+z
1/4+x,1/2-y,3/4+z
loop_
_atom_site_type_symbol
_atom_site_label
_atom_site_fract_x
_atom_site_fract_y
_atom_site_fract_z
Si Si1 0.218971 0.717676 0.336911
Si Si2 0.400522 0.504418 0.581803
Si Si3 0.186850 0.142663 0.472593
Si Si4 0.837590 0.768939 0.822513
Si Si5 0.532795 0.863150 0.809434
Si Si6 0.358220 0.035303 0.541355
Si Si7 0.728295 0.281687 0.444727
Si Si8 0.548371 0.625000 0.125000
O O1 0.164281 0.750475 0.312212
O O2 0.213621 0.651790 0.321718
O O3 0.276301 0.743036 0.313605
O O4 0.219640 0.726900 0.404517
O O5 0.436518 0.452090 0.559505
O O6 0.425562 0.560512 0.553636
O O7 0.407481 0.503228 0.650303
O O8 0.125000 0.125000 0.492182
O O9 0.224423 0.148071 0.528767
O O10 0.875000 0.742404 0.875000
O O11 0.865366 0.758126 0.761398
O O12 0.834990 0.836632 0.832397
O O13 0.519000 0.875000 0.875000
O O14 0.563295 0.915919 0.779217
O O15 0.419425 0.063339 0.546576
O O16 0.750000 0.250000 0.500000
O O17 0.765907 0.329815 0.414931
#
# Coordination Sequence:
#
# PCOD8285899 Si02
#       8
#    32  32  32  32  32  32  32  16
#     4   9  19  35  54  77 111 144 184 223 283 339
#     4   9  20  34  58  81 107 144 191 234 274 343
#     4  10  19  36  57  81 110 150 181 233 291 336
#     4  11  21  36  55  81 115 151 184 233 289 340
#     4  10  20  34  57  85 108 143 189 236 290 341
#     4  10  20  34  56  81 112 144 190 233 285 337
#     4  10  21  36  55  83 109 149 192 239 279 343
#     4  10  23  36  58  78 114 152 193 230 284 342
#
# _framework density 18.053884
#
# number of rings (size 3 to 8) (size 9 to 14) (size 15 to 20)
#    0.000    2.133    1.333    2.200    6.533    1.333 
#    0.000    4.000    0.000    0.000    0.000    0.000 
#    0.000    0.000    0.000    0.000    0.000    0.000 
#
# Total GULP energy -743400.891820 kJ/mol
# GULP energy per Si atom -12390.014864 kJ/mol
# Density = 1.801279 g / cm^3
# Si number density = 18.053884 Si / 1000 Ang^3
#
#
#
# Elastic Constant Matrix: (Units=GPa)
#
#
# Indices 1 2 3 4 5 6 
#
# 1 82.4559 39.5075 38.1238 0.0000 0.0000 0.0000
# 2 39.5075 109.0869 52.6652 0.0000 0.0000 0.0000
# 3 38.1238 52.6652 89.7841 0.0000 0.0000 0.0000
# 4 0.0000 0.0000 0.0000 29.0414 0.0000 0.0000
# 5 0.0000 0.0000 0.0000 0.0000 30.8280 0.0000
# 6 0.0000 0.0000 0.0000 0.0000 0.0000 27.4968
#
#
#
# Elastic Compliance Matrix: (Units=1/GPa)
#
#
# Indices 1 2 3 4 5 6 
#
# 1 0.015998 -0.003508 -0.004735 0.000000 0.000000 0.000000
# 2 -0.003508 0.013558 -0.006463 0.000000 0.000000 0.000000
# 3 -0.004735 -0.006463 0.016940 0.000000 0.000000 0.000000
# 4 0.000000 0.000000 0.000000 0.034434 0.000000 0.000000
# 5 0.000000 0.000000 0.000000 0.000000 0.032438 0.000000
# 6 0.000000 0.000000 0.000000 0.000000 0.000000 0.036368
#
#
# Mechanical properties :
#
#
# Convention : Reuss Voigt Hill
#
# Bulk Modulus (GPa) = 58.53899 60.21331 59.37615
# Shear Modulus (GPa) = 27.05023 27.54195 27.29609
#
# Velocity S-wave (km/s) = 3.87499 3.91006 3.89256
# Velocity P-wave (km/s) = 7.24678 7.33547 7.29126
#
# Compressibility (1/GPa) = 0.01708263
#
# Stress axis : x y z
#
# Youngs Moduli (GPa) = 62.50871 73.75894 59.03290
#
# Poissons Ratio (x) = 0.25872 0.27954
# Poissons Ratio (y) = 0.21926 0.38154
# Poissons Ratio (z) = 0.29600 0.47672
#
# Static dielectric constant tensor:
#      x y z
#    x 3.607020 0.000000 0.000000 
#    y 0.000000 3.418320 0.000000 
#    z 0.000000 0.000000 3.247140 
# 
# 
# High freq. dielectric constant tensor:
#      x y z
#    x 1.717830 0.000000 0.000000 
#    y 0.000000 1.690230 0.000000 
#    z 0.000000 0.000000 1.689790 
# 
# From -- ./inp_files/54492.got.cif
#   From: 2010.03.12/outbox.cif.g09.slc.cpg/sg70_28_cif.got.tgz:54492.got - 2010.04.16 13:46:32.
