data_PCOD8285660
_publ_section_title
;
Structure prediction by ZEFSAII (Michael W. Deem and Ramdas Pophale) SiO2 
 PCOD8285660
Probable space group: F M M M
;
_chemical_formula_sum "Si O2"
_cell_formula_units_Z 144
_cell_length_a 29.109319
_cell_length_b 14.177594
_cell_length_c 17.190297
_cell_angle_alpha 90.000000
_cell_angle_beta 90.000000
_cell_angle_gamma 90.000000
_cell_volume 7094.437401
_symmetry_space_group_name_H-M "F M M M"
_symmetry_group_IT_number 69
_symmetry_cell_setting 'orthorhombic'
loop_
_space_group_symop_operation_xyz
x,y,z
-x,-y,z
x,-y,-z
-x,y,-z
-x,-y,-z
x,y,-z
-x,y,z
x,-y,z
x,1/2+y,1/2+z
-x,1/2-y,1/2+z
x,1/2-y,1/2-z
-x,1/2+y,1/2-z
-x,1/2-y,1/2-z
x,1/2+y,1/2-z
-x,1/2+y,1/2+z
x,1/2-y,1/2+z
1/2+x,y,1/2+z
1/2-x,-y,1/2+z
1/2+x,-y,1/2-z
1/2-x,y,1/2-z
1/2-x,-y,1/2-z
1/2+x,y,1/2-z
1/2-x,y,1/2+z
1/2+x,-y,1/2+z
1/2+x,1/2+y,z
1/2-x,1/2-y,z
1/2+x,1/2-y,-z
1/2-x,1/2+y,-z
1/2-x,1/2-y,-z
1/2+x,1/2+y,-z
1/2-x,1/2+y,z
1/2+x,1/2-y,z
loop_
_atom_site_type_symbol
_atom_site_label
_atom_site_fract_x
_atom_site_fract_y
_atom_site_fract_z
Si Si1 0.949079 0.101895 0.091162
Si Si2 0.585110 0.720817 0.661590
Si Si3 0.500000 0.888036 0.090729
Si Si4 0.730537 0.104879 0.592015
Si Si5 0.321254 0.288530 0.592251
O O1 0.913553 0.181205 0.114789
O O2 0.000000 0.130659 0.121269
O O3 0.935069 0.000000 0.127171
O O4 0.949556 0.091986 0.000000
O O5 0.577861 0.750000 0.750000
O O6 0.545217 0.651174 0.633069
O O7 0.634564 0.676337 0.641397
O O8 0.500000 0.000000 0.098714
O O9 0.500000 0.856584 0.000000
O O10 0.729277 0.099915 0.500000
O O11 0.692706 0.181843 0.618427
O O12 0.781023 0.139899 0.617228
O O13 0.720695 0.000000 0.627151
O O14 0.331100 0.293869 0.500000
#
# Coordination Sequence:
#
# PCOD8285660 Si02
#       5
#    32  32  16  32  32
#     4   9  18  34  58  82 103 136 184 236 284 329
#     4  12  24  38  56  85 120 156 188 232 291 345
#     4  11  25  44  63  81 107 151 204 247 282 334
#     4   8  15  31  56  84 110 140 185 238 283 322
#     4   9  18  33  56  83 111 145 188 236 278 331
#
# _framework density 20.297592999999999
#
# number of rings (size 3 to 8) (size 9 to 14) (size 15 to 20)
#    0.000    2.333    1.111    4.333    0.000    2.667 
#    0.000    6.667    0.000    1.333    0.000    0.000 
#    0.000    0.000    0.000    0.000    0.000    0.000 
#
# Total GULP energy -446151.577746 kJ/mol
# GULP energy per Si atom -12393.099382 kJ/mol
# Density = 2.025139 g / cm^3
# Si number density = 20.297593 Si / 1000 Ang^3
#
#
#
# Elastic Constant Matrix: (Units=GPa)
#
#
# Indices 1 2 3 4 5 6 
#
# 1 124.9762 28.8444 34.8086 0.0000 0.0000 0.0000
# 2 28.8444 93.8130 17.4634 0.0000 0.0000 0.0000
# 3 34.8086 17.4634 65.5421 0.0000 0.0000 0.0000
# 4 0.0000 0.0000 0.0000 5.3444 0.0000 0.0000
# 5 0.0000 0.0000 0.0000 0.0000 26.0785 0.0000
# 6 0.0000 0.0000 0.0000 0.0000 0.0000 20.1382
#
#
#
# Elastic Compliance Matrix: (Units=1/GPa)
#
#
# Indices 1 2 3 4 5 6 
#
# 1 0.009785 -0.002148 -0.004625 0.000000 0.000000 0.000000
# 2 -0.002148 0.011687 -0.001973 0.000000 0.000000 0.000000
# 3 -0.004625 -0.001973 0.018239 0.000000 0.000000 0.000000
# 4 0.000000 0.000000 0.000000 0.187112 0.000000 0.000000
# 5 0.000000 0.000000 0.000000 0.000000 0.038346 0.000000
# 6 0.000000 0.000000 0.000000 0.000000 0.000000 0.049657
#
#
# Mechanical properties :
#
#
# Convention : Reuss Voigt Hill
#
# Bulk Modulus (GPa) = 45.00386 49.61821 47.31104
# Shear Modulus (GPa) = 14.71782 23.85988 19.28885
#
# Velocity S-wave (km/s) = 2.69569 3.43228 3.08604
# Velocity P-wave (km/s) = 5.64882 6.34081 6.00479
#
# Compressibility (1/GPa) = 0.02222032
#
# Stress axis : x y z
#
# Youngs Moduli (GPa) = 102.19436 85.56364 54.82692
#
# Poissons Ratio (x) = 0.18377 0.25355
# Poissons Ratio (y) = 0.21949 0.10819
# Poissons Ratio (z) = 0.47261 0.16885
#
# Static dielectric constant tensor:
#      x y z
#    x 3.711060 0.000000 0.000000 
#    y 0.000000 3.835940 0.000000 
#    z 0.000000 0.000000 3.264970 
# 
# 
# High freq. dielectric constant tensor:
#      x y z
#    x 1.793830 0.000000 0.000000 
#    y 0.000000 1.799390 0.000000 
#    z 0.000000 0.000000 1.752610 
# 
# From -- ./inp_files/19452.got.cif
#   From: 2010.03.12/outbox.cif.g09.slc.cpg/sg69_10_cif.got.tgz:19452.got - 2010.04.10 23:52:46.
