data_PCOD8285948
_publ_section_title
;
Structure prediction by ZEFSAII (Michael W. Deem and Ramdas Pophale) SiO2 
 PCOD8285948
Probable space group: F D D D
;
_chemical_formula_sum "Si O2"
_cell_formula_units_Z 160
_cell_length_a 14.001287
_cell_length_b 19.618955
_cell_length_c 29.355032
_cell_angle_alpha 90.000000
_cell_angle_beta 90.000000
_cell_angle_gamma 90.000000
_cell_volume 8063.551928
_symmetry_space_group_name_H-M "F D D D"
_symmetry_group_IT_number 70
_space_group.IT_coordinate_system_code '2'
_symmetry_cell_setting 'orthorhombic'
loop_
_space_group_symop_operation_xyz
x,y,z
1/4-x,1/4-y,z
x,1/4-y,1/4-z
1/4-x,y,1/4-z
-x,-y,-z
3/4+x,3/4+y,-z
-x,3/4+y,3/4+z
3/4+x,-y,3/4+z
x,1/2+y,1/2+z
1/4-x,3/4-y,1/2+z
x,3/4-y,3/4-z
1/4-x,1/2+y,3/4-z
-x,1/2-y,1/2-z
3/4+x,1/4+y,1/2-z
-x,1/4+y,1/4+z
3/4+x,1/2-y,1/4+z
1/2+x,y,1/2+z
3/4-x,1/4-y,1/2+z
1/2+x,1/4-y,3/4-z
3/4-x,y,3/4-z
1/2-x,-y,1/2-z
1/4+x,3/4+y,1/2-z
1/2-x,3/4+y,1/4+z
1/4+x,-y,1/4+z
1/2+x,1/2+y,z
3/4-x,3/4-y,z
1/2+x,3/4-y,1/4-z
3/4-x,1/2+y,1/4-z
1/2-x,1/2-y,-z
1/4+x,1/4+y,-z
1/2-x,1/4+y,3/4+z
1/4+x,1/2-y,3/4+z
loop_
_atom_site_type_symbol
_atom_site_label
_atom_site_fract_x
_atom_site_fract_y
_atom_site_fract_z
Si Si1 0.674798 0.265414 0.348315
Si Si2 0.388387 0.739562 0.752376
Si Si3 0.173256 0.892216 0.580068
Si Si4 0.875000 0.875000 0.638725
Si Si5 0.375000 0.511898 0.875000
Si Si6 0.375000 0.375000 0.448572
Si Si7 0.465641 0.125000 0.125000
O O1 0.658245 0.280992 0.295405
O O2 0.661149 0.185043 0.356006
O O3 0.783711 0.284758 0.362434
O O4 0.602507 0.308908 0.379768
O O5 0.500000 0.750000 0.750000
O O6 0.367981 0.676245 0.785255
O O7 0.345779 0.810128 0.771152
O O8 0.125000 0.928004 0.625000
O O9 0.287907 0.901532 0.580279
O O10 0.147770 0.811390 0.581412
O O11 0.468902 0.388592 0.418721
#
# Coordination Sequence:
#
# PCOD8285948 Si02
#       7
#    32  32  32  16  16  16  16
#     4  11  22  39  62  90 118 166 204 256 304 374
#     4  12  23  36  62  94 126 154 202 261 314 369
#     4   9  20  37  60  87 116 154 206 249 297 362
#     4  10  19  40  65  80 117 169 208 234 301 387
#     4   8  22  39  64  79 118 170 220 236 292 381
#     4  11  25  36  57  92 126 158 192 254 323 377
#     4  11  24  39  58  88 132 159 194 257 332 362
#
# _framework density 19.842372000000001
#
# number of rings (size 3 to 8) (size 9 to 14) (size 15 to 20)
#    0.600    1.000    2.000    3.000    5.600    0.400 
#    0.000    2.000    0.000    6.000    0.000    0.000 
#    0.000    0.000    0.000    0.000    0.000    0.000 
#
# Total GULP energy -495913.083713 kJ/mol
# GULP energy per Si atom -12397.827093 kJ/mol
# Density = 1.979721 g / cm^3
# Si number density = 19.842372 Si / 1000 Ang^3
#
#
#
# Elastic Constant Matrix: (Units=GPa)
#
#
# Indices 1 2 3 4 5 6 
#
# 1 173.6219 27.6896 45.5707 0.0000 0.0000 0.0000
# 2 27.6896 59.1679 25.2211 0.0000 0.0000 0.0000
# 3 45.5707 25.2211 87.8442 0.0000 0.0000 0.0000
# 4 0.0000 0.0000 0.0000 26.5096 0.0000 0.0000
# 5 0.0000 0.0000 0.0000 0.0000 23.6853 0.0000
# 6 0.0000 0.0000 0.0000 0.0000 0.0000 34.4107
#
#
#
# Elastic Compliance Matrix: (Units=1/GPa)
#
#
# Indices 1 2 3 4 5 6 
#
# 1 0.006855 -0.001928 -0.003003 0.000000 0.000000 0.000000
# 2 -0.001928 0.019800 -0.004685 0.000000 0.000000 0.000000
# 3 -0.003003 -0.004685 0.014286 0.000000 0.000000 0.000000
# 4 0.000000 0.000000 0.000000 0.037722 0.000000 0.000000
# 5 0.000000 0.000000 0.000000 0.000000 0.042220 0.000000
# 6 0.000000 0.000000 0.000000 0.000000 0.000000 0.029061
#
#
# Mechanical properties :
#
#
# Convention : Reuss Voigt Hill
#
# Bulk Modulus (GPa) = 46.05948 57.51076 51.78512
# Shear Modulus (GPa) = 28.34255 31.73131 30.03693
#
# Velocity S-wave (km/s) = 3.78350 4.00330 3.89495
# Velocity P-wave (km/s) = 6.50765 7.10037 6.81046
#
# Compressibility (1/GPa) = 0.02171106
#
# Stress axis : x y z
#
# Youngs Moduli (GPa) = 145.87310 50.50433 69.99625
#
# Poissons Ratio (x) = 0.09738 0.21018
# Poissons Ratio (y) = 0.28128 0.32790
# Poissons Ratio (z) = 0.43801 0.23659
#
# Static dielectric constant tensor:
#      x y z
#    x 3.908160 0.000000 0.000000 
#    y 0.000000 3.620120 0.000000 
#    z 0.000000 0.000000 3.422560 
# 
# 
# High freq. dielectric constant tensor:
#      x y z
#    x 1.790970 0.000000 0.000000 
#    y 0.000000 1.761660 0.000000 
#    z 0.000000 0.000000 1.745850 
# 
# From -- ./inp_files/65733.got.cif
#   From: 2010.03.12/outbox.cif.g09.slc.cpg/sg70_33_cif.got.tgz:65733.got - 2010.04.16 13:46:32.
