data_PCOD8285689
_publ_section_title
;
Structure prediction by ZEFSAII (Michael W. Deem and Ramdas Pophale) SiO2 
 PCOD8285689
Probable space group: F M M M
;
_chemical_formula_sum "Si O2"
_cell_formula_units_Z 104
_cell_length_a 21.259948
_cell_length_b 10.028666
_cell_length_c 30.590274
_cell_angle_alpha 90.000000
_cell_angle_beta 90.000000
_cell_angle_gamma 90.000000
_cell_volume 6522.119211
_symmetry_space_group_name_H-M "F M M M"
_symmetry_group_IT_number 69
_symmetry_cell_setting 'orthorhombic'
loop_
_space_group_symop_operation_xyz
x,y,z
-x,-y,z
x,-y,-z
-x,y,-z
-x,-y,-z
x,y,-z
-x,y,z
x,-y,z
x,1/2+y,1/2+z
-x,1/2-y,1/2+z
x,1/2-y,1/2-z
-x,1/2+y,1/2-z
-x,1/2-y,1/2-z
x,1/2+y,1/2-z
-x,1/2+y,1/2+z
x,1/2-y,1/2+z
1/2+x,y,1/2+z
1/2-x,-y,1/2+z
1/2+x,-y,1/2-z
1/2-x,y,1/2-z
1/2-x,-y,1/2-z
1/2+x,y,1/2-z
1/2-x,y,1/2+z
1/2+x,-y,1/2+z
1/2+x,1/2+y,z
1/2-x,1/2-y,z
1/2+x,1/2-y,-z
1/2-x,1/2+y,-z
1/2-x,1/2-y,-z
1/2+x,1/2+y,-z
1/2-x,1/2+y,z
1/2+x,1/2-y,z
loop_
_atom_site_type_symbol
_atom_site_label
_atom_site_fract_x
_atom_site_fract_y
_atom_site_fract_z
Si Si1 0.426229 0.347039 0.622319
Si Si2 0.250000 0.250000 0.250000
Si Si3 0.129165 0.349348 0.214351
Si Si4 0.425296 0.350663 0.951408
O O1 0.500000 0.323664 0.629691
O O2 0.411856 0.500000 0.610096
O O3 0.390663 0.303099 0.666226
O O4 0.398725 0.255436 0.583409
O O5 0.205251 0.340972 0.219065
O O6 0.105858 0.500000 0.223168
O O7 0.097173 0.250000 0.250000
O O8 0.500000 0.343380 0.951815
O O9 0.403393 0.500000 0.938358
O O10 0.400007 0.314772 0.000000
#
# Coordination Sequence:
#
# PCOD8285689 Si02
#       4
#    32   8  32  32
#     4   9  17  28  41  62  90 115 140 170 207 251
#     4   8  18  32  48  60  80 108 142 186 210 248
#     4   9  18  30  45  62  83 110 142 177 211 248
#     4   8  14  25  40  59  85 115 144 171 199 240
#
# _framework density 15.945738
#
# number of rings (size 3 to 8) (size 9 to 14) (size 15 to 20)
#    0.923    2.462    0.000    1.385    0.000    2.462 
#    0.000    3.077    0.000    0.000    0.000    1.077 
#    0.000    0.000    0.000    0.000    0.000    0.000 
#
# Total GULP energy -322140.258082 kJ/mol
# GULP energy per Si atom -12390.009926 kJ/mol
# Density = 1.590944 g / cm^3
# Si number density = 15.945738 Si / 1000 Ang^3
#
#
#
# Elastic Constant Matrix: (Units=GPa)
#
#
# Indices 1 2 3 4 5 6 
#
# 1 26.2054 15.9096 31.8372 0.0000 0.0000 0.0000
# 2 15.9096 108.2917 97.2503 0.0000 0.0000 0.0000
# 3 31.8372 97.2503 160.2213 0.0000 0.0000 0.0000
# 4 0.0000 0.0000 0.0000 38.2433 0.0000 0.0000
# 5 0.0000 0.0000 0.0000 0.0000 1.5695 0.0000
# 6 0.0000 0.0000 0.0000 0.0000 0.0000 12.9566
#
#
#
# Elastic Compliance Matrix: (Units=1/GPa)
#
#
# Indices 1 2 3 4 5 6 
#
# 1 0.050910 0.003529 -0.012258 0.000000 0.000000 0.000000
# 2 0.003529 0.020544 -0.013171 0.000000 0.000000 0.000000
# 3 -0.012258 -0.013171 0.016671 0.000000 0.000000 0.000000
# 4 0.000000 0.000000 0.000000 0.026148 0.000000 0.000000
# 5 0.000000 0.000000 0.000000 0.000000 0.637131 0.000000
# 6 0.000000 0.000000 0.000000 0.000000 0.000000 0.077181
#
#
# Mechanical properties :
#
#
# Convention : Reuss Voigt Hill
#
# Bulk Modulus (GPa) = 22.56048 64.96807 43.76428
# Shear Modulus (GPa) = 5.63595 20.53530 13.08563
#
# Velocity S-wave (km/s) = 1.88205 3.59252 2.86778
# Velocity P-wave (km/s) = 4.34762 7.61839 6.20249
#
# Compressibility (1/GPa) = 0.04432529
#
# Stress axis : x y z
#
# Youngs Moduli (GPa) = 19.64244 48.67660 59.98268
#
# Poissons Ratio (x) = -0.17177 0.73528
# Poissons Ratio (y) = -0.06932 0.79002
# Poissons Ratio (z) = 0.24078 0.64111
#
# Static dielectric constant tensor:
#      x y z
#    x 2.551110 0.000000 0.000000 
#    y 0.000000 3.112630 0.000000 
#    z 0.000000 0.000000 3.182100 
# 
# 
# High freq. dielectric constant tensor:
#      x y z
#    x 1.556240 0.000000 0.000000 
#    y 0.000000 1.618960 0.000000 
#    z 0.000000 0.000000 1.614770 
# 
# From -- ./inp_files/9405.got.cif
#   From: 2010.03.12/outbox.cif.g09.slc.cpg/sg69_5_cif.got.tgz:9405.got - 2010.04.10 23:52:46.
