data_PCOD8285976
_publ_section_title
;
Structure prediction by ZEFSAII (Michael W. Deem and Ramdas Pophale) SiO2 
 PCOD8285976
Probable space group: F D D D
;
_chemical_formula_sum "Si O2"
_cell_formula_units_Z 176
_cell_length_a 17.147145
_cell_length_b 16.628634
_cell_length_c 32.096091
_cell_angle_alpha 90.000000
_cell_angle_beta 90.000000
_cell_angle_gamma 90.000000
_cell_volume 9151.673920
_symmetry_space_group_name_H-M "F D D D"
_symmetry_group_IT_number 70
_space_group.IT_coordinate_system_code '2'
_symmetry_cell_setting 'orthorhombic'
loop_
_space_group_symop_operation_xyz
x,y,z
1/4-x,1/4-y,z
x,1/4-y,1/4-z
1/4-x,y,1/4-z
-x,-y,-z
3/4+x,3/4+y,-z
-x,3/4+y,3/4+z
3/4+x,-y,3/4+z
x,1/2+y,1/2+z
1/4-x,3/4-y,1/2+z
x,3/4-y,3/4-z
1/4-x,1/2+y,3/4-z
-x,1/2-y,1/2-z
3/4+x,1/4+y,1/2-z
-x,1/4+y,1/4+z
3/4+x,1/2-y,1/4+z
1/2+x,y,1/2+z
3/4-x,1/4-y,1/2+z
1/2+x,1/4-y,3/4-z
3/4-x,y,3/4-z
1/2-x,-y,1/2-z
1/4+x,3/4+y,1/2-z
1/2-x,3/4+y,1/4+z
1/4+x,-y,1/4+z
1/2+x,1/2+y,z
3/4-x,3/4-y,z
1/2+x,3/4-y,1/4-z
3/4-x,1/2+y,1/4-z
1/2-x,1/2-y,-z
1/4+x,1/4+y,-z
1/2-x,1/4+y,3/4+z
1/4+x,1/2-y,3/4+z
loop_
_atom_site_type_symbol
_atom_site_label
_atom_site_fract_x
_atom_site_fract_y
_atom_site_fract_z
Si Si1 0.640445 0.908599 0.935722
Si Si2 0.921686 0.495508 0.607560
Si Si3 0.875000 0.875000 0.520961
Si Si4 0.158058 0.272395 0.727693
Si Si5 0.497225 0.485865 0.565499
Si Si6 0.505848 0.584019 0.349672
O O1 0.667962 0.819329 0.924534
O O2 0.682891 0.971535 0.904488
O O3 0.546384 0.926580 0.930291
O O4 0.668627 0.918449 0.983156
O O5 0.992099 0.432088 0.599024
O O6 0.842408 0.448744 0.600015
O O7 0.930215 0.817881 0.492290
O O8 0.821182 0.823215 0.551088
O O9 0.209904 0.303144 0.690319
O O10 0.066304 0.263134 0.717516
O O11 0.534270 0.452255 0.608696
#
# Coordination Sequence:
#
# PCOD8285976 Si02
#       6
#    32  32  16  32  32  32
#     4   9  18  35  56  78 101 145 190 228 260 341
#     4   9  19  36  56  74 106 149 192 214 277 334
#     4  10  20  36  57  76 114 150 180 221 278 350
#     4  11  22  31  55  85 112 137 183 232 285 321
#     4  10  20  36  53  80 111 144 180 218 288 336
#     4  10  20  34  52  79 111 146 178 231 275 332
#
# _framework density 19.231453999999999
#
# number of rings (size 3 to 8) (size 9 to 14) (size 15 to 20)
#    0.000    2.182    0.000    6.000    5.091    0.727 
#    0.000    0.909    0.000    0.000    0.000    5.091 
#    0.000    0.000    0.000    0.000    0.000    0.000 
#
# Total GULP energy -545164.851506 kJ/mol
# GULP energy per Si atom -12390.110261 kJ/mol
# Density = 1.918768 g / cm^3
# Si number density = 19.231454 Si / 1000 Ang^3
#
#
#
# Elastic Constant Matrix: (Units=GPa)
#
#
# Indices 1 2 3 4 5 6 
#
# 1 17.5207 4.0431 16.1081 0.0000 0.0000 0.0000
# 2 4.0431 92.8187 43.7420 0.0000 0.0000 0.0000
# 3 16.1081 43.7420 134.6857 0.0000 0.0000 0.0000
# 4 0.0000 0.0000 0.0000 15.0742 0.0000 0.0000
# 5 0.0000 0.0000 0.0000 0.0000 26.0405 0.0000
# 6 0.0000 0.0000 0.0000 0.0000 0.0000 18.5003
#
#
#
# Elastic Compliance Matrix: (Units=1/GPa)
#
#
# Indices 1 2 3 4 5 6 
#
# 1 0.064200 0.000970 -0.007993 0.000000 0.000000 0.000000
# 2 0.000970 0.012735 -0.004252 0.000000 0.000000 0.000000
# 3 -0.007993 -0.004252 0.009762 0.000000 0.000000 0.000000
# 4 0.000000 0.000000 0.000000 0.066338 0.000000 0.000000
# 5 0.000000 0.000000 0.000000 0.000000 0.038402 0.000000
# 6 0.000000 0.000000 0.000000 0.000000 0.000000 0.054053
#
#
# Mechanical properties :
#
#
# Convention : Reuss Voigt Hill
#
# Bulk Modulus (GPa) = 15.58913 41.42347 28.50630
# Shear Modulus (GPa) = 17.27574 23.99846 20.63710
#
# Velocity S-wave (km/s) = 3.00043 3.53636 3.27936
# Velocity P-wave (km/s) = 4.48632 6.18552 5.40314
#
# Compressibility (1/GPa) = 0.06414728
#
# Stress axis : x y z
#
# Youngs Moduli (GPa) = 15.57623 78.52199 102.44174
#
# Poissons Ratio (x) = -0.07620 0.81886
# Poissons Ratio (y) = -0.01512 0.43559
# Poissons Ratio (z) = 0.12451 0.33388
#
# Static dielectric constant tensor:
#      x y z
#    x 3.229130 0.000000 0.000000 
#    y 0.000000 4.021750 0.000000 
#    z 0.000000 0.000000 3.688400 
# 
# 
# High freq. dielectric constant tensor:
#      x y z
#    x 1.700160 0.000000 0.000000 
#    y 0.000000 1.755310 0.000000 
#    z 0.000000 0.000000 1.766970 
# 
# From -- ./inp_files/39694.got.cif
#   From: 2010.03.12/outbox.cif.g09.slc.cpg/sg70_20_cif.got.tgz:39694.got - 2010.04.16 13:46:32.
