data_PCOD8285707
_publ_section_title
;
Structure prediction by ZEFSAII (Michael W. Deem and Ramdas Pophale) SiO2 
 PCOD8285707
Probable space group: F M M M
;
_chemical_formula_sum "Si O2"
_cell_formula_units_Z 36
_cell_length_a 30.000000
_cell_length_b 30.000000
_cell_length_c 9.000000
_cell_angle_alpha 90.000000
_cell_angle_beta 90.000000
_cell_angle_gamma 90.000000
_cell_volume 8100.000000
_symmetry_space_group_name_H-M "F M M M"
_symmetry_group_IT_number 69
_symmetry_cell_setting 'orthorhombic'
loop_
_space_group_symop_operation_xyz
x,y,z
-x,-y,z
x,-y,-z
-x,y,-z
-x,-y,-z
x,y,-z
-x,y,z
x,-y,z
x,1/2+y,1/2+z
-x,1/2-y,1/2+z
x,1/2-y,1/2-z
-x,1/2+y,1/2-z
-x,1/2-y,1/2-z
x,1/2+y,1/2-z
-x,1/2+y,1/2+z
x,1/2-y,1/2+z
1/2+x,y,1/2+z
1/2-x,-y,1/2+z
1/2+x,-y,1/2-z
1/2-x,y,1/2-z
1/2-x,-y,1/2-z
1/2+x,y,1/2-z
1/2-x,y,1/2+z
1/2+x,-y,1/2+z
1/2+x,1/2+y,z
1/2-x,1/2-y,z
1/2+x,1/2-y,-z
1/2-x,1/2+y,-z
1/2-x,1/2-y,-z
1/2+x,1/2+y,-z
1/2-x,1/2+y,z
1/2+x,1/2-y,z
loop_
_atom_site_type_symbol
_atom_site_label
_atom_site_fract_x
_atom_site_fract_y
_atom_site_fract_z
Si Si1 0.370329 0.109857 0.673746
Si Si2 0.450743 0.450048 0.823732
Si Si3 0.000000 0.701495 0.179124
Si Si4 0.589139 0.202277 0.324358
Si Si5 0.202768 0.949418 0.674757
O O1 0.363429 0.099707 0.500000
O O2 0.414945 0.085606 0.734896
O O3 0.373539 0.163650 0.699805
O O4 0.329644 0.088669 0.763066
O O5 0.500000 0.437327 0.761627
O O6 0.437770 0.500000 0.769531
O O7 0.452190 0.449035 0.000000
O O8 0.000000 0.750000 0.250000
O O9 0.045313 0.680576 0.245721
O O10 0.000000 0.701060 0.000000
O O11 0.580523 0.210256 0.500000
O O12 0.603132 0.250000 0.250000
O O13 0.207927 0.942455 0.500000
O O14 0.250000 0.941251 0.750000
O O15 0.185821 0.000000 0.710609
#
# Coordination Sequence:
#
# PCOD8285707 Si02
#       5
#    32  32  16  32  32
#     4  10  20  32  53  79 104 138 179 222 265 315
#     4   8  14  25  43  69 100 133 169 209 251 298
#     4  10  18  30  48  68  95 134 179 226 272 313
#     4  10  20  33  50  73 103 140 181 226 272 317
#     4  10  21  37  58  83 111 140 171 212 263 318
#
# _framework density 4.4444439999999998
#
# number of rings (size 3 to 8) (size 9 to 14) (size 15 to 20)
#    0.000    2.444    0.000    5.000    1.556    4.000 
#    0.000    0.000    0.000    0.667    0.000    7.778 
#    0.000    0.000    0.000    0.000    0.000    0.000 
#
# Total GULP energy -446093.691284 kJ/mol
# GULP energy per Si atom -12391.491425 kJ/mol
# Density = 0.443433 g / cm^3
# Si number density = 4.444444 Si / 1000 Ang^3
#
#
#
# Elastic Constant Matrix: (Units=GPa)
#
#
# Indices 1 2 3 4 5 6 
#
# 1 97.1230 63.6440 46.9699 -0.0035 0.0038 -0.0011
# 2 63.6440 124.8840 48.9827 -0.0283 0.0157 0.0186
# 3 46.9699 48.9827 110.1946 -0.0413 0.0249 0.0284
# 4 -0.0035 -0.0283 -0.0413 27.7545 0.0163 0.0213
# 5 0.0038 0.0157 0.0249 0.0163 28.8792 -0.0076
# 6 -0.0011 0.0186 0.0284 0.0213 -0.0076 27.6760
#
#
#
# Elastic Compliance Matrix: (Units=1/GPa)
#
#
# Indices 1 2 3 4 5 6 
#
# 1 0.016845 -0.006986 -0.004074 -0.000011 0.000005 0.000010
# 2 -0.006986 0.012596 -0.002621 0.000008 -0.000004 -0.000006
# 3 -0.004074 -0.002621 0.011977 0.000015 -0.000008 -0.000011
# 4 -0.000011 0.000008 0.000015 0.036030 -0.000020 -0.000028
# 5 0.000005 -0.000004 -0.000008 -0.000020 0.034627 0.000010
# 6 0.000010 -0.000006 -0.000011 -0.000028 0.000010 0.036132
#
#
# Mechanical properties :
#
#
# Convention : Reuss Voigt Hill
#
# Bulk Modulus (GPa) = 71.15690 72.37720 71.76705
# Shear Modulus (GPa) = 27.73838 28.36896 28.05367
#
# Velocity S-wave (km/s) = 3.95433 3.99902 3.97674
# Velocity P-wave (km/s) = 7.80779 7.88184 7.84490
#
# Compressibility (1/GPa) = 0.01405345
#
# Stress axis : x y z
#
# Youngs Moduli (GPa) = 59.36526 79.39048 83.49540
#
# Poissons Ratio (x) = 0.55466 0.34020
# Poissons Ratio (y) = 0.41475 0.21885
# Poissons Ratio (z) = 0.24188 0.20809
#
# Static dielectric constant tensor:
#      x y z
#    x 3.523030 0.000050 0.000030 
#    y 0.000050 3.443040 -0.000050 
#    z 0.000030 -0.000050 3.233320 
# 
# 
# High freq. dielectric constant tensor:
#      x y z
#    x 1.670940 0.000000 0.000000 
#    y 0.000000 1.696430 0.000000 
#    z 0.000000 0.000000 1.681220 
# 
# From -- ./inp_files/5582.got.cif
#   From: 2010.03.12/outbox.ucp.g09.slc.cvg/sg69_3_cif.got.tgz:5582.got - 2010.05.04 19:54:48.
