data_PCOD8285647
_publ_section_title
;
Structure prediction by ZEFSAII (Michael W. Deem and Ramdas Pophale) SiO2 
 PCOD8285647
Probable space group: F M M M
;
_chemical_formula_sum "Si O2"
_cell_formula_units_Z 160
_cell_length_a 9.606543
_cell_length_b 27.998871
_cell_length_c 31.581370
_cell_angle_alpha 90.000000
_cell_angle_beta 90.000000
_cell_angle_gamma 90.000000
_cell_volume 8494.515564
_symmetry_space_group_name_H-M "F M M M"
_symmetry_group_IT_number 69
_symmetry_cell_setting 'orthorhombic'
loop_
_space_group_symop_operation_xyz
x,y,z
-x,-y,z
x,-y,-z
-x,y,-z
-x,-y,-z
x,y,-z
-x,y,z
x,-y,z
x,1/2+y,1/2+z
-x,1/2-y,1/2+z
x,1/2-y,1/2-z
-x,1/2+y,1/2-z
-x,1/2-y,1/2-z
x,1/2+y,1/2-z
-x,1/2+y,1/2+z
x,1/2-y,1/2+z
1/2+x,y,1/2+z
1/2-x,-y,1/2+z
1/2+x,-y,1/2-z
1/2-x,y,1/2-z
1/2-x,-y,1/2-z
1/2+x,y,1/2-z
1/2-x,y,1/2+z
1/2+x,-y,1/2+z
1/2+x,1/2+y,z
1/2-x,1/2-y,z
1/2+x,1/2-y,-z
1/2-x,1/2+y,-z
1/2-x,1/2-y,-z
1/2+x,1/2+y,-z
1/2-x,1/2+y,z
1/2+x,1/2-y,z
loop_
_atom_site_type_symbol
_atom_site_label
_atom_site_fract_x
_atom_site_fract_y
_atom_site_fract_z
Si Si1 0.500000 0.944846 0.802805
Si Si2 0.332619 0.206536 0.206241
Si Si3 0.743784 0.609309 0.338111
Si Si4 0.836768 0.624995 0.568871
Si Si5 0.334260 0.052535 0.500000
Si Si6 0.837717 0.702307 0.500000
Si Si7 0.500000 0.441651 0.794167
O O1 0.370684 0.930508 0.831057
O O2 0.500000 0.924265 0.754733
O O3 0.500000 0.000000 0.795470
O O4 0.500000 0.216369 0.211273
O O5 0.250000 0.201833 0.250000
O O6 0.250000 0.250000 0.182106
O O7 0.308626 0.157801 0.182372
O O8 0.758370 0.622706 0.387004
O O9 0.874245 0.584342 0.316974
O O10 0.784184 0.579620 0.542009
O O11 0.800075 0.672593 0.542341
O O12 0.000000 0.622484 0.577658
O O13 0.500000 0.051330 0.500000
O O14 0.268174 0.000000 0.500000
O O15 0.750000 0.750000 0.500000
O O16 0.000000 0.715297 0.500000
O O17 0.500000 0.500000 0.799755
#
# Coordination Sequence:
#
# PCOD8285647 Si02
#       7
#    16  32  32  32  16  16  16
#     4  11  24  42  57  84 125 166 209 264 316 361
#     4  11  24  40  62  88 117 158 204 252 308 364
#     4  12  23  39  62  89 124 164 206 257 307 359
#     4   9  19  36  57  88 120 148 194 244 291 353
#     4   8  15  30  55  83 113 144 181 237 296 347
#     4   9  19  40  65  91 122 155 187 239 301 358
#     4  11  24  40  63  88 117 166 223 264 306 363
#
# _framework density 18.835681999999998
#
# number of rings (size 3 to 8) (size 9 to 14) (size 15 to 20)
#    0.000    1.700    2.000    4.800    2.800    4.000 
#    1.800    2.000    0.000    0.000    0.000    2.100 
#    0.000    0.000    0.000    0.000    0.000    0.000 
#
# Total GULP energy -495586.301331 kJ/mol
# GULP energy per Si atom -12389.657533 kJ/mol
# Density = 1.879281 g / cm^3
# Si number density = 18.835682 Si / 1000 Ang^3
#
#
#
# Elastic Constant Matrix: (Units=GPa)
#
#
# Indices 1 2 3 4 5 6 
#
# 1 131.0113 50.0721 57.1473 0.0000 0.0000 0.0000
# 2 50.0721 114.0455 49.0653 0.0000 0.0000 0.0000
# 3 57.1473 49.0653 131.2631 0.0000 0.0000 0.0000
# 4 0.0000 0.0000 0.0000 -12.7055 0.0000 0.0000
# 5 0.0000 0.0000 0.0000 0.0000 -5.3040 0.0000
# 6 0.0000 0.0000 0.0000 0.0000 0.0000 38.4038
#
#
#
# Elastic Compliance Matrix: (Units=1/GPa)
#
#
# Indices 1 2 3 4 5 6 
#
# 1 0.010254 -0.003076 -0.003315 0.000000 0.000000 0.000000
# 2 -0.003076 0.011372 -0.002911 0.000000 0.000000 0.000000
# 3 -0.003315 -0.002911 0.010150 0.000000 0.000000 0.000000
# 4 0.000000 0.000000 0.000000 -0.078706 0.000000 0.000000
# 5 0.000000 0.000000 0.000000 0.000000 -0.188536 0.000000
# 6 0.000000 0.000000 0.000000 0.000000 0.000000 0.026039
#
#
# Mechanical properties :
#
#
# Convention : Reuss Voigt Hill
#
# Bulk Modulus (GPa) = 75.92236 76.54325 76.23281
# Shear Modulus (GPa) = -26.81939 18.74785 -4.03577
#
# Velocity S-wave (km/s) = -3.77750 3.15832 -1.46536
# Velocity P-wave (km/s) = 4.62268 7.35021 6.13982
#
# Compressibility (1/GPa) = 0.01317135
#
# Stress axis : x y z
#
# Youngs Moduli (GPa) = 97.51836 87.93825 98.52639
#
# Poissons Ratio (x) = 0.27052 0.32657
# Poissons Ratio (y) = 0.29999 0.28684
# Poissons Ratio (z) = 0.32323 0.25602
#
# Static dielectric constant tensor:
#      x y z
#    x -0.305800 0.000000 0.000000 
#    y 0.000000 4.194410 0.000000 
#    z 0.000000 0.000000 3.528080 
# 
# 
# High freq. dielectric constant tensor:
#      x y z
#    x 1.723970 0.000000 0.000000 
#    y 0.000000 1.749760 0.000000 
#    z 0.000000 0.000000 1.728040 
# 
# From -- ./inp_files/44647.got.cif
#   From: 2010.03.12/outbox.cif.g09.slc.cpg/sg69_23_cif.got.tgz:44647.got - 2010.04.10 23:52:46.
