data_PCOD8285073
_publ_section_title
;
Structure prediction by ZEFSAII (Michael W. Deem and Ramdas Pophale) SiO2 
 PCOD8285073
Probable space group: F M M M
;
_chemical_formula_sum "Si O2"
_cell_formula_units_Z 144
_cell_length_a 16.354502
_cell_length_b 30.683857
_cell_length_c 14.179360
_cell_angle_alpha 90.000000
_cell_angle_beta 90.000000
_cell_angle_gamma 90.000000
_cell_volume 7115.475101
_symmetry_space_group_name_H-M "F M M M"
_symmetry_group_IT_number 69
_symmetry_cell_setting 'orthorhombic'
loop_
_space_group_symop_operation_xyz
x,y,z
-x,-y,z
x,-y,-z
-x,y,-z
-x,-y,-z
x,y,-z
-x,y,z
x,-y,z
x,1/2+y,1/2+z
-x,1/2-y,1/2+z
x,1/2-y,1/2-z
-x,1/2+y,1/2-z
-x,1/2-y,1/2-z
x,1/2+y,1/2-z
-x,1/2+y,1/2+z
x,1/2-y,1/2+z
1/2+x,y,1/2+z
1/2-x,-y,1/2+z
1/2+x,-y,1/2-z
1/2-x,y,1/2-z
1/2-x,-y,1/2-z
1/2+x,y,1/2-z
1/2-x,y,1/2+z
1/2+x,-y,1/2+z
1/2+x,1/2+y,z
1/2-x,1/2-y,z
1/2+x,1/2-y,-z
1/2-x,1/2+y,-z
1/2-x,1/2-y,-z
1/2+x,1/2+y,-z
1/2-x,1/2+y,z
1/2+x,1/2-y,z
loop_
_atom_site_type_symbol
_atom_site_label
_atom_site_fract_x
_atom_site_fract_y
_atom_site_fract_z
Si Si1 0.094260 0.129206 0.805478
Si Si2 0.095509 0.160000 0.000000
Si Si3 0.155451 0.742628 0.000000
Si Si4 0.839335 0.949808 0.704689
Si Si5 0.905820 0.051078 0.500000
Si Si6 0.903105 0.790809 0.689671
O O1 0.135620 0.137009 0.908053
O O2 0.103004 0.080064 0.768880
O O3 0.132592 0.164401 0.733468
O O4 0.000000 0.140905 0.815787
O O5 0.107508 0.211859 0.000000
O O6 0.000000 0.150476 0.000000
O O7 0.250000 0.750000 0.000000
O O8 0.132716 0.712322 0.086607
O O9 0.750000 0.942038 0.750000
O O10 0.853445 0.935766 0.594362
O O11 0.865559 0.000000 0.717866
O O12 0.000000 0.070846 0.500000
O O13 0.916188 0.000000 0.500000
O O14 0.870973 0.750000 0.750000
O O15 0.000000 0.790859 0.684269
#
# Coordination Sequence:
#
# PCOD8285073 Si02
#       6
#    32  16  16  32  16  32
#     4  10  21  37  62  88 114 156 207 255 299 356
#     4  10  20  39  59  81 116 158 197 234 300 368
#     4  12  24  35  55  87 122 156 191 241 300 359
#     4  10  22  39  60  89 126 163 200 254 318 371
#     4   9  18  36  63  89 117 160 208 252 304 367
#     4  10  20  38  61  82 109 151 200 244 285 346
#
# _framework density 20.237580000000001
#
# number of rings (size 3 to 8) (size 9 to 14) (size 15 to 20)
#    0.000    1.889    2.222    1.667    0.000    5.333 
#    0.000    2.778    0.000    2.000    0.000    0.000 
#    0.000    0.000    0.000    0.000    0.000    0.000 
#
# Total GULP energy -446125.471533 kJ/mol
# GULP energy per Si atom -12392.374209 kJ/mol
# Density = 2.019152 g / cm^3
# Si number density = 20.237580 Si / 1000 Ang^3
#
#
#
# Elastic Constant Matrix: (Units=GPa)
#
#
# Indices 1 2 3 4 5 6 
#
# 1 43.4791 17.7766 46.6152 0.0000 0.0000 0.0000
# 2 17.7766 105.5548 76.5555 0.0000 0.0000 0.0000
# 3 46.6152 76.5555 215.5562 0.0000 0.0000 0.0000
# 4 0.0000 0.0000 0.0000 32.4507 0.0000 0.0000
# 5 0.0000 0.0000 0.0000 0.0000 -6.4803 0.0000
# 6 0.0000 0.0000 0.0000 0.0000 0.0000 19.6693
#
#
#
# Elastic Compliance Matrix: (Units=1/GPa)
#
#
# Indices 1 2 3 4 5 6 
#
# 1 0.029959 -0.000467 -0.006313 0.000000 0.000000 0.000000
# 2 -0.000467 0.012768 -0.004434 0.000000 0.000000 0.000000
# 3 -0.006313 -0.004434 0.007579 0.000000 0.000000 0.000000
# 4 0.000000 0.000000 0.000000 0.030816 0.000000 0.000000
# 5 0.000000 0.000000 0.000000 0.000000 -0.154314 0.000000
# 6 0.000000 0.000000 0.000000 0.000000 0.000000 0.050841
#
#
# Mechanical properties :
#
#
# Convention : Reuss Voigt Hill
#
# Bulk Modulus (GPa) = 35.86943 71.83161 53.85052
# Shear Modulus (GPa) = 533.75773 24.03747 278.89760
#
# Velocity S-wave (km/s) = 16.25787 3.45013 11.75206
# Velocity P-wave (km/s) = 19.24025 7.17234 14.51946
#
# Compressibility (1/GPa) = 0.02787889
#
# Stress axis : x y z
#
# Youngs Moduli (GPa) = 33.37927 78.32119 131.94383
#
# Poissons Ratio (x) = 0.03656 0.83295
# Poissons Ratio (y) = 0.01558 0.58499
# Poissons Ratio (z) = 0.21072 0.34725
#
# Static dielectric constant tensor:
#      x y z
#    x 3.418410 0.000000 0.000000 
#    y 0.000000 3.071800 0.000000 
#    z 0.000000 0.000000 4.175900 
# 
# 
# High freq. dielectric constant tensor:
#      x y z
#    x 1.765420 0.000000 0.000000 
#    y 0.000000 1.781870 0.000000 
#    z 0.000000 0.000000 1.810450 
# 
# From -- ./inp_files/15608.got.cif
#   From: 2010.03.12/outbox.cif.g09.slc.cpg/sg69_8_cif.got.tgz:15608.got - 2010.04.10 23:52:46.
