data_PCOD8285179
_publ_section_title
;
Structure prediction by ZEFSAII (Michael W. Deem and Ramdas Pophale) SiO2 
 PCOD8285179
Probable space group: F M M M
;
_chemical_formula_sum "Si O2"
_cell_formula_units_Z 160
_cell_length_a 14.304484
_cell_length_b 28.260920
_cell_length_c 18.824250
_cell_angle_alpha 90.000000
_cell_angle_beta 90.000000
_cell_angle_gamma 90.000000
_cell_volume 7609.851359
_symmetry_space_group_name_H-M "F M M M"
_symmetry_group_IT_number 69
_symmetry_cell_setting 'orthorhombic'
loop_
_space_group_symop_operation_xyz
x,y,z
-x,-y,z
x,-y,-z
-x,y,-z
-x,-y,-z
x,y,-z
-x,y,z
x,-y,z
x,1/2+y,1/2+z
-x,1/2-y,1/2+z
x,1/2-y,1/2-z
-x,1/2+y,1/2-z
-x,1/2-y,1/2-z
x,1/2+y,1/2-z
-x,1/2+y,1/2+z
x,1/2-y,1/2+z
1/2+x,y,1/2+z
1/2-x,-y,1/2+z
1/2+x,-y,1/2-z
1/2-x,y,1/2-z
1/2-x,-y,1/2-z
1/2+x,y,1/2-z
1/2-x,y,1/2+z
1/2+x,-y,1/2+z
1/2+x,1/2+y,z
1/2-x,1/2-y,z
1/2+x,1/2-y,-z
1/2-x,1/2+y,-z
1/2-x,1/2-y,-z
1/2+x,1/2+y,-z
1/2-x,1/2+y,z
1/2+x,1/2-y,z
loop_
_atom_site_type_symbol
_atom_site_label
_atom_site_fract_x
_atom_site_fract_y
_atom_site_fract_z
Si Si1 0.713832 0.399303 0.582684
Si Si2 0.610430 0.776101 0.682301
Si Si3 0.648354 0.447876 0.282720
Si Si4 0.395772 0.118590 0.339610
Si Si5 0.395473 0.695236 0.581526
O O1 0.701039 0.414315 0.500000
O O2 0.652495 0.432801 0.634249
O O3 0.823426 0.404267 0.604055
O O4 0.677083 0.346502 0.596582
O O5 0.500000 0.779659 0.689855
O O6 0.654978 0.750000 0.750000
O O7 0.647283 0.829616 0.676448
O O8 0.641174 0.743828 0.616110
O O9 0.601256 0.500000 0.279242
O O10 0.750000 0.450089 0.250000
O O11 0.593096 0.410496 0.234029
O O12 0.500000 0.120861 0.373948
O O13 0.401593 0.707341 0.500000
O O14 0.500000 0.681626 0.610204
#
# Coordination Sequence:
#
# PCOD8285179 Si02
#       5
#    32  32  32  32  32
#     4  10  21  36  56  84 115 148 186 229 281 336
#     4   9  17  30  50  75 104 142 188 234 275 318
#     4   9  19  37  58  78 103 139 184 230 275 325
#     4  10  21  36  55  82 115 149 186 229 279 339
#     4   9  18  33  52  75 108 149 188 227 273 323
#
# _framework density 21.025378
#
# number of rings (size 3 to 8) (size 9 to 14) (size 15 to 20)
#    0.000    2.600    0.000    1.200    0.000    5.200 
#    0.000    5.000    0.000    0.000    0.000    9.800 
#    0.000    0.000    0.000    0.000    0.000    0.000 
#
# Total GULP energy -495703.839490 kJ/mol
# GULP energy per Si atom -12392.595987 kJ/mol
# Density = 2.097752 g / cm^3
# Si number density = 21.025378 Si / 1000 Ang^3
#
#
#
# Elastic Constant Matrix: (Units=GPa)
#
#
# Indices 1 2 3 4 5 6 
#
# 1 63.5416 11.9145 21.7703 0.0000 0.0000 0.0000
# 2 11.9145 122.6089 52.5556 0.0000 0.0000 0.0000
# 3 21.7703 52.5556 111.8092 0.0000 0.0000 0.0000
# 4 0.0000 0.0000 0.0000 33.4687 0.0000 0.0000
# 5 0.0000 0.0000 0.0000 0.0000 15.3027 0.0000
# 6 0.0000 0.0000 0.0000 0.0000 0.0000 36.8522
#
#
#
# Elastic Compliance Matrix: (Units=1/GPa)
#
#
# Indices 1 2 3 4 5 6 
#
# 1 0.016871 -0.000290 -0.003149 0.000000 0.000000 0.000000
# 2 -0.000290 0.010219 -0.004747 0.000000 0.000000 0.000000
# 3 -0.003149 -0.004747 0.011788 0.000000 0.000000 0.000000
# 4 0.000000 0.000000 0.000000 0.029879 0.000000 0.000000
# 5 0.000000 0.000000 0.000000 0.000000 0.065348 0.000000
# 6 0.000000 0.000000 0.000000 0.000000 0.000000 0.027135
#
#
# Mechanical properties :
#
#
# Convention : Reuss Voigt Hill
#
# Bulk Modulus (GPa) = 44.43039 52.27117 48.35078
# Shear Modulus (GPa) = 27.01047 31.23932 29.12489
#
# Velocity S-wave (km/s) = 3.58810 3.85878 3.72590
# Velocity P-wave (km/s) = 6.19223 6.69093 6.44640
#
# Compressibility (1/GPa) = 0.02250711
#
# Stress axis : x y z
#
# Youngs Moduli (GPa) = 59.27384 97.85763 84.83063
#
# Poissons Ratio (x) = 0.02835 0.26711
# Poissons Ratio (y) = 0.01717 0.40269
# Poissons Ratio (z) = 0.18664 0.46453
#
# Static dielectric constant tensor:
#      x y z
#    x 3.681450 0.000000 0.000000 
#    y 0.000000 4.024460 0.000000 
#    z 0.000000 0.000000 3.767400 
# 
# 
# High freq. dielectric constant tensor:
#      x y z
#    x 1.818050 0.000000 0.000000 
#    y 0.000000 1.815170 0.000000 
#    z 0.000000 0.000000 1.813150 
# 
# From -- ./inp_files/23115.got.cif
#   From: 2010.03.12/outbox.cif.g09.slc.cpg/sg69_12_cif.got.tgz:23115.got - 2010.04.10 23:52:46.
