data_PCOD8285223
_publ_section_title
;
Structure prediction by ZEFSAII (Michael W. Deem and Ramdas Pophale) SiO2 
 PCOD8285223
Probable space group: F M M M
;
_chemical_formula_sum "Si O2"
_cell_formula_units_Z 176
_cell_length_a 16.964286
_cell_length_b 18.375344
_cell_length_c 28.531243
_cell_angle_alpha 90.000000
_cell_angle_beta 90.000000
_cell_angle_gamma 90.000000
_cell_volume 8893.890054
_symmetry_space_group_name_H-M "F M M M"
_symmetry_group_IT_number 69
_symmetry_cell_setting 'orthorhombic'
loop_
_space_group_symop_operation_xyz
x,y,z
-x,-y,z
x,-y,-z
-x,y,-z
-x,-y,-z
x,y,-z
-x,y,z
x,-y,z
x,1/2+y,1/2+z
-x,1/2-y,1/2+z
x,1/2-y,1/2-z
-x,1/2+y,1/2-z
-x,1/2-y,1/2-z
x,1/2+y,1/2-z
-x,1/2+y,1/2+z
x,1/2-y,1/2+z
1/2+x,y,1/2+z
1/2-x,-y,1/2+z
1/2+x,-y,1/2-z
1/2-x,y,1/2-z
1/2-x,-y,1/2-z
1/2+x,y,1/2-z
1/2-x,y,1/2+z
1/2+x,-y,1/2+z
1/2+x,1/2+y,z
1/2-x,1/2-y,z
1/2+x,1/2-y,-z
1/2-x,1/2+y,-z
1/2-x,1/2-y,-z
1/2+x,1/2+y,-z
1/2-x,1/2+y,z
1/2+x,1/2-y,z
loop_
_atom_site_type_symbol
_atom_site_label
_atom_site_fract_x
_atom_site_fract_y
_atom_site_fract_z
Si Si1 0.909115 0.292784 0.392132
Si Si2 0.293727 0.917969 0.797223
Si Si3 0.705466 0.083019 0.392598
Si Si4 0.155014 0.662322 0.055570
Si Si5 0.000000 0.080888 0.444281
Si Si6 0.090201 0.788987 0.296388
O O1 0.877585 0.375021 0.396851
O O2 0.852754 0.244058 0.425173
O O3 0.899678 0.266975 0.338843
O O4 0.000000 0.290182 0.408862
O O5 0.250000 0.894497 0.750000
O O6 0.231350 0.912945 0.838898
O O7 0.364659 0.863273 0.807582
O O8 0.327812 0.000000 0.793038
O O9 0.769320 0.120541 0.425877
O O10 0.692993 0.000000 0.409131
O O11 0.077484 0.620838 0.074634
O O12 0.159593 0.664860 0.000000
O O13 0.000000 0.079525 0.500000
O O14 0.000000 0.000000 0.423366
O O15 0.124296 0.750000 0.250000
O O16 0.000000 0.811302 0.288434
#
# Coordination Sequence:
#
# PCOD8285223 Si02
#       6
#    32  32  32  32  16  32
#     4  11  23  40  62  89 120 158 207 253 301 363
#     4  10  21  37  58  86 119 156 198 247 303 359
#     4  11  24  40  60  89 122 159 205 252 303 363
#     4  11  22  39  62  90 122 157 201 251 302 362
#     4   9  18  34  58  88 122 157 193 243 309 366
#     4  10  21  37  58  86 118 156 200 247 300 358
#
# _framework density 19.788865999999999
#
# number of rings (size 3 to 8) (size 9 to 14) (size 15 to 20)
#    0.000    1.545    2.727    2.182    0.000    5.091 
#    0.000    0.000    0.000    6.545    0.000    2.545 
#    0.000    0.000    0.000    0.000    0.000    0.000 
#
# Total GULP energy -545775.046761 kJ/mol
# GULP energy per Si atom -12403.978335 kJ/mol
# Density = 1.974383 g / cm^3
# Si number density = 19.788866 Si / 1000 Ang^3
#
#
#
# Elastic Constant Matrix: (Units=GPa)
#
#
# Indices 1 2 3 4 5 6 
#
# 1 73.9083 65.2947 22.3603 0.0000 0.0000 0.0000
# 2 65.2947 146.7832 25.6164 0.0000 0.0000 0.0000
# 3 22.3603 25.6164 86.3570 0.0000 0.0000 0.0000
# 4 0.0000 0.0000 0.0000 25.6239 0.0000 0.0000
# 5 0.0000 0.0000 0.0000 0.0000 26.3232 0.0000
# 6 0.0000 0.0000 0.0000 0.0000 0.0000 31.7876
#
#
#
# Elastic Compliance Matrix: (Units=1/GPa)
#
#
# Indices 1 2 3 4 5 6 
#
# 1 0.023044 -0.009713 -0.003086 0.000000 0.000000 0.000000
# 2 -0.009713 0.011278 -0.000831 0.000000 0.000000 0.000000
# 3 -0.003086 -0.000831 0.012625 0.000000 0.000000 0.000000
# 4 0.000000 0.000000 0.000000 0.039026 0.000000 0.000000
# 5 0.000000 0.000000 0.000000 0.000000 0.037989 0.000000
# 6 0.000000 0.000000 0.000000 0.000000 0.000000 0.031459
#
#
# Mechanical properties :
#
#
# Convention : Reuss Voigt Hill
#
# Bulk Modulus (GPa) = 50.78728 59.28793 55.03760
# Shear Modulus (GPa) = 26.42102 29.66542 28.04322
#
# Velocity S-wave (km/s) = 3.65793 3.87602 3.76855
# Velocity P-wave (km/s) = 6.60007 7.07507 6.84169
#
# Compressibility (1/GPa) = 0.01968997
#
# Stress axis : x y z
#
# Youngs Moduli (GPa) = 43.39445 88.66644 79.20638
#
# Poissons Ratio (x) = 0.86117 0.24441
# Poissons Ratio (y) = 0.42147 0.06579
# Poissons Ratio (z) = 0.13391 0.07365
#
# Static dielectric constant tensor:
#      x y z
#    x 3.517080 0.000000 0.000000 
#    y 0.000000 3.734240 0.000000 
#    z 0.000000 0.000000 3.576320 
# 
# 
# High freq. dielectric constant tensor:
#      x y z
#    x 1.764120 0.000000 0.000000 
#    y 0.000000 1.776390 0.000000 
#    z 0.000000 0.000000 1.774010 
# 
# From -- ./inp_files/26764.got.cif
#   From: 2010.03.12/outbox.cif.g09.slc.cpg/sg69_14_cif.got.tgz:26764.got - 2010.04.10 23:52:46.
