data_PCOD8285366
_publ_section_title
;
Structure prediction by ZEFSAII (Michael W. Deem and Ramdas Pophale) SiO2 
 PCOD8285366
Probable space group: F M M M
;
_chemical_formula_sum "Si O2"
_cell_formula_units_Z 160
_cell_length_a 18.580821
_cell_length_b 21.352359
_cell_length_c 22.457007
_cell_angle_alpha 90.000000
_cell_angle_beta 90.000000
_cell_angle_gamma 90.000000
_cell_volume 8909.690881
_symmetry_space_group_name_H-M "F M M M"
_symmetry_group_IT_number 69
_symmetry_cell_setting 'orthorhombic'
loop_
_space_group_symop_operation_xyz
x,y,z
-x,-y,z
x,-y,-z
-x,y,-z
-x,-y,-z
x,y,-z
-x,y,z
x,-y,z
x,1/2+y,1/2+z
-x,1/2-y,1/2+z
x,1/2-y,1/2-z
-x,1/2+y,1/2-z
-x,1/2-y,1/2-z
x,1/2+y,1/2-z
-x,1/2+y,1/2+z
x,1/2-y,1/2+z
1/2+x,y,1/2+z
1/2-x,-y,1/2+z
1/2+x,-y,1/2-z
1/2-x,y,1/2-z
1/2-x,-y,1/2-z
1/2+x,y,1/2-z
1/2-x,y,1/2+z
1/2+x,-y,1/2+z
1/2+x,1/2+y,z
1/2-x,1/2-y,z
1/2+x,1/2-y,-z
1/2-x,1/2+y,-z
1/2-x,1/2-y,-z
1/2+x,1/2+y,-z
1/2-x,1/2+y,z
1/2+x,1/2-y,z
loop_
_atom_site_type_symbol
_atom_site_label
_atom_site_fract_x
_atom_site_fract_y
_atom_site_fract_z
Si Si1 0.164899 0.500000 0.262297
Si Si2 0.859072 0.134896 0.273911
Si Si3 0.775560 0.320950 0.336146
Si Si4 0.500000 0.776653 0.567707
Si Si5 0.627817 0.372374 0.066420
Si Si6 0.918208 0.500000 0.379203
Si Si7 0.500000 0.295373 0.692590
O O1 0.250000 0.500000 0.250000
O O2 0.126883 0.561693 0.236742
O O3 0.146216 0.500000 0.331811
O O4 0.838292 0.173606 0.213917
O O5 0.792813 0.137918 0.318959
O O6 0.929761 0.162223 0.303393
O O7 0.750000 0.250000 0.344760
O O8 0.803114 0.352601 0.395868
O O9 0.500000 0.745499 0.500000
O O10 0.569958 0.818354 0.574507
O O11 0.500000 0.731708 0.625412
O O12 0.591527 0.438185 0.081802
O O13 0.657126 0.376656 0.000000
O O14 0.000000 0.500000 0.352730
O O15 0.500000 0.250000 0.750000
#
# Coordination Sequence:
#
# PCOD8285366 Si02
#       7
#    16  32  32  16  32  16  16
#     4  12  22  39  59  84 120 151 189 244 296 353
#     4  11  22  37  59  84 116 154 188 243 304 345
#     4  11  21  37  56  83 117 154 194 239 296 351
#     4  10  22  39  56  83 124 162 189 240 302 353
#     4  11  22  37  58  83 116 157 201 240 289 357
#     4  12  23  36  60  85 122 157 193 239 297 364
#     4  12  24  37  61  89 119 151 199 249 286 358
#
# _framework density 17.957974
#
# number of rings (size 3 to 8) (size 9 to 14) (size 15 to 20)
#    0.000    0.800    5.000    5.100    1.400    0.800 
#    0.000    1.000    0.000    0.000    0.000    2.800 
#    0.000    0.000    0.000    0.000    0.000    0.000 
#
# Total GULP energy -495853.244822 kJ/mol
# GULP energy per Si atom -12396.331121 kJ/mol
# Density = 1.791710 g / cm^3
# Si number density = 17.957974 Si / 1000 Ang^3
#
#
#
# Elastic Constant Matrix: (Units=GPa)
#
#
# Indices 1 2 3 4 5 6 
#
# 1 84.3467 31.8427 74.2805 0.0000 0.0000 0.0000
# 2 31.8427 117.0702 55.7755 0.0000 0.0000 0.0000
# 3 74.2805 55.7755 146.8259 0.0000 0.0000 0.0000
# 4 0.0000 0.0000 0.0000 19.2625 0.0000 0.0000
# 5 0.0000 0.0000 0.0000 0.0000 27.0283 0.0000
# 6 0.0000 0.0000 0.0000 0.0000 0.0000 -141.4515
#
#
#
# Elastic Compliance Matrix: (Units=1/GPa)
#
#
# Indices 1 2 3 4 5 6 
#
# 1 0.021445 -0.000811 -0.010541 0.000000 0.000000 0.000000
# 2 -0.000811 0.010460 -0.003563 0.000000 0.000000 0.000000
# 3 -0.010541 -0.003563 0.013497 0.000000 0.000000 0.000000
# 4 0.000000 0.000000 0.000000 0.051914 0.000000 0.000000
# 5 0.000000 0.000000 0.000000 0.000000 0.036998 0.000000
# 6 0.000000 0.000000 0.000000 0.000000 0.000000 -0.007070
#
#
# Mechanical properties :
#
#
# Convention : Reuss Voigt Hill
#
# Bulk Modulus (GPa) = 64.21901 74.67112 69.44506
# Shear Modulus (GPa) = 30.81340 -6.60918 12.10211
#
# Velocity S-wave (km/s) = 4.14679 -1.92051 2.59880
# Velocity P-wave (km/s) = 7.66591 6.06247 6.91085
#
# Compressibility (1/GPa) = 0.01557171
#
# Stress axis : x y z
#
# Youngs Moduli (GPa) = 46.63054 95.60146 74.08884
#
# Poissons Ratio (x) = 0.07752 0.78099
# Poissons Ratio (y) = 0.03781 0.26400
# Poissons Ratio (z) = 0.49154 0.34066
#
# Static dielectric constant tensor:
#      x y z
#    x 3.384640 0.000000 0.000000 
#    y 0.000000 3.610440 0.000000 
#    z 0.000000 0.000000 3.446060 
# 
# 
# High freq. dielectric constant tensor:
#      x y z
#    x 1.699440 0.000000 0.000000 
#    y 0.000000 1.701080 0.000000 
#    z 0.000000 0.000000 1.687340 
# 
# From -- ./inp_files/24713.got.cif
#   From: 2010.03.12/outbox.cif.g09.slc.cpg/sg69_13_cif.got.tgz:24713.got - 2010.04.10 23:52:46.
