data_PCOD8285983
_publ_section_title
;
Structure prediction by ZEFSAII (Michael W. Deem and Ramdas Pophale) SiO2 
 PCOD8285983
Probable space group: F D D D
;
_chemical_formula_sum "Si O2"
_cell_formula_units_Z 160
_cell_length_a 23.387886
_cell_length_b 13.582824
_cell_length_c 26.910701
_cell_angle_alpha 90.000000
_cell_angle_beta 90.000000
_cell_angle_gamma 90.000000
_cell_volume 8548.817631
_symmetry_space_group_name_H-M "F D D D"
_symmetry_group_IT_number 70
_space_group.IT_coordinate_system_code '2'
_symmetry_cell_setting 'orthorhombic'
loop_
_space_group_symop_operation_xyz
x,y,z
1/4-x,1/4-y,z
x,1/4-y,1/4-z
1/4-x,y,1/4-z
-x,-y,-z
3/4+x,3/4+y,-z
-x,3/4+y,3/4+z
3/4+x,-y,3/4+z
x,1/2+y,1/2+z
1/4-x,3/4-y,1/2+z
x,3/4-y,3/4-z
1/4-x,1/2+y,3/4-z
-x,1/2-y,1/2-z
3/4+x,1/4+y,1/2-z
-x,1/4+y,1/4+z
3/4+x,1/2-y,1/4+z
1/2+x,y,1/2+z
3/4-x,1/4-y,1/2+z
1/2+x,1/4-y,3/4-z
3/4-x,y,3/4-z
1/2-x,-y,1/2-z
1/4+x,3/4+y,1/2-z
1/2-x,3/4+y,1/4+z
1/4+x,-y,1/4+z
1/2+x,1/2+y,z
3/4-x,3/4-y,z
1/2+x,3/4-y,1/4-z
3/4-x,1/2+y,1/4-z
1/2-x,1/2-y,-z
1/4+x,1/4+y,-z
1/2-x,1/4+y,3/4+z
1/4+x,1/2-y,3/4+z
loop_
_atom_site_type_symbol
_atom_site_label
_atom_site_fract_x
_atom_site_fract_y
_atom_site_fract_z
Si Si1 0.777698 0.271021 0.432285
Si Si2 0.464003 0.998911 0.319804
Si Si3 0.842450 0.774289 0.198520
Si Si4 0.631989 0.411511 0.244918
Si Si5 0.602817 0.515220 0.911077
O O1 0.801830 0.246371 0.377838
O O2 0.808902 0.205944 0.473782
O O3 0.711350 0.244705 0.431434
O O4 0.711958 0.114978 0.552983
O O5 0.524971 0.045625 0.305500
O O6 0.417984 0.068376 0.293726
O O7 0.875000 0.875000 0.208445
O O8 0.857960 0.703994 0.244708
O O9 0.859161 0.723452 0.145235
O O10 0.611118 0.457077 0.297665
O O11 0.625000 0.625000 0.909806
#
# Coordination Sequence:
#
# PCOD8285983 Si02
#       5
#    32  32  32  32  32
#     4  10  20  36  56  87 119 140 172 236 299 330
#     4  10  21  37  57  84 116 143 180 234 286 334
#     4  10  23  40  53  77 117 154 186 231 273 318
#     4  12  21  32  60  85 112 146 189 222 284 346
#     4  10  20  34  57  85 114 141 183 232 281 334
#
# _framework density 18.716038999999999
#
# number of rings (size 3 to 8) (size 9 to 14) (size 15 to 20)
#    0.000    1.600    2.000    3.600    2.800    2.400 
#    0.000    0.000    0.000    2.400    0.000    0.000 
#    0.000    0.000    0.000    0.000    0.000    0.000 
#
# Total GULP energy -495809.969387 kJ/mol
# GULP energy per Si atom -12395.249235 kJ/mol
# Density = 1.867344 g / cm^3
# Si number density = 18.716039 Si / 1000 Ang^3
#
#
#
# Elastic Constant Matrix: (Units=GPa)
#
#
# Indices 1 2 3 4 5 6 
#
# 1 44.0154 30.1108 27.5701 0.0000 0.0000 0.0000
# 2 30.1108 80.0037 48.2742 0.0000 0.0000 0.0000
# 3 27.5701 48.2742 95.8457 0.0000 0.0000 0.0000
# 4 0.0000 0.0000 0.0000 37.4764 0.0000 0.0000
# 5 0.0000 0.0000 0.0000 0.0000 26.7202 0.0000
# 6 0.0000 0.0000 0.0000 0.0000 0.0000 30.5131
#
#
#
# Elastic Compliance Matrix: (Units=1/GPa)
#
#
# Indices 1 2 3 4 5 6 
#
# 1 0.031890 -0.009291 -0.004494 0.000000 0.000000 0.000000
# 2 -0.009291 0.020663 -0.007735 0.000000 0.000000 0.000000
# 3 -0.004494 -0.007735 0.015622 0.000000 0.000000 0.000000
# 4 0.000000 0.000000 0.000000 0.026683 0.000000 0.000000
# 5 0.000000 0.000000 0.000000 0.000000 0.037425 0.000000
# 6 0.000000 0.000000 0.000000 0.000000 0.000000 0.032773
#
#
# Mechanical properties :
#
#
# Convention : Reuss Voigt Hill
#
# Bulk Modulus (GPa) = 39.78318 47.97502 43.87910
# Shear Modulus (GPa) = 23.09745 26.53591 24.81668
#
# Velocity S-wave (km/s) = 3.51679 3.76948 3.64532
# Velocity P-wave (km/s) = 6.14758 6.68087 6.41976
#
# Compressibility (1/GPa) = 0.02513625
#
# Stress axis : x y z
#
# Youngs Moduli (GPa) = 31.35793 48.39455 64.01270
#
# Poissons Ratio (x) = 0.44963 0.28765
# Poissons Ratio (y) = 0.29134 0.49514
# Poissons Ratio (z) = 0.14091 0.37433
#
# Static dielectric constant tensor:
#      x y z
#    x 3.344780 0.000000 0.000000 
#    y 0.000000 3.220040 0.000000 
#    z 0.000000 0.000000 3.757950 
# 
# 
# High freq. dielectric constant tensor:
#      x y z
#    x 1.718870 0.000000 0.000000 
#    y 0.000000 1.706270 0.000000 
#    z 0.000000 0.000000 1.743390 
# 
# From -- ./inp_files/28637.got.cif
#   From: 2010.03.12/outbox.cif.g09.slc.cpg/sg70_15_cif.got.tgz:28637.got - 2010.04.16 13:46:32.
