data_PCOD8285755
_publ_section_title
;
Structure prediction by ZEFSAII (Michael W. Deem and Ramdas Pophale) SiO2 
 PCOD8285755
Probable space group: F D D D
;
_chemical_formula_sum "Si O2"
_cell_formula_units_Z 160
_cell_length_a 22.721422
_cell_length_b 15.030663
_cell_length_c 22.667822
_cell_angle_alpha 90.000000
_cell_angle_beta 90.000000
_cell_angle_gamma 90.000000
_cell_volume 7741.470072
_symmetry_space_group_name_H-M "F D D D"
_symmetry_group_IT_number 70
_space_group.IT_coordinate_system_code '2'
_symmetry_cell_setting 'orthorhombic'
loop_
_space_group_symop_operation_xyz
x,y,z
1/4-x,1/4-y,z
x,1/4-y,1/4-z
1/4-x,y,1/4-z
-x,-y,-z
3/4+x,3/4+y,-z
-x,3/4+y,3/4+z
3/4+x,-y,3/4+z
x,1/2+y,1/2+z
1/4-x,3/4-y,1/2+z
x,3/4-y,3/4-z
1/4-x,1/2+y,3/4-z
-x,1/2-y,1/2-z
3/4+x,1/4+y,1/2-z
-x,1/4+y,1/4+z
3/4+x,1/2-y,1/4+z
1/2+x,y,1/2+z
3/4-x,1/4-y,1/2+z
1/2+x,1/4-y,3/4-z
3/4-x,y,3/4-z
1/2-x,-y,1/2-z
1/4+x,3/4+y,1/2-z
1/2-x,3/4+y,1/4+z
1/4+x,-y,1/4+z
1/2+x,1/2+y,z
3/4-x,3/4-y,z
1/2+x,3/4-y,1/4-z
3/4-x,1/2+y,1/4-z
1/2-x,1/2-y,-z
1/4+x,1/4+y,-z
1/2-x,1/4+y,3/4+z
1/4+x,1/2-y,3/4+z
loop_
_atom_site_type_symbol
_atom_site_label
_atom_site_fract_x
_atom_site_fract_y
_atom_site_fract_z
Si Si1 0.281340 0.011886 0.365237
Si Si2 0.165328 0.386651 0.281658
Si Si3 0.568787 0.375000 0.875000
Si Si4 0.118282 0.221360 0.034284
Si Si5 0.236450 0.125000 0.625000
Si Si6 0.434360 0.692191 0.846392
O O1 0.268574 0.114112 0.387239
O O2 0.220324 0.959604 0.355488
O O3 0.320674 0.960363 0.413484
O O4 0.318681 0.010932 0.304721
O O5 0.109278 0.412913 0.321698
O O6 0.158162 0.284009 0.265393
O O7 0.225511 0.392634 0.317277
O O8 0.173483 0.449909 0.224270
O O9 0.125000 0.125000 0.004833
O O10 0.197126 0.213959 0.628118
O O11 0.375000 0.653456 0.875000
#
# Coordination Sequence:
#
# PCOD8285755 Si02
#       6
#    32  32  16  32  16  32
#     4  10  18  36  61  91 122 156 194 248 309 373
#     4  10  24  41  58  94 130 157 212 261 297 377
#     4  11  22  37  61  93 135 164 193 256 320 368
#     4  10  17  35  61  87 125 156 198 244 307 368
#     4  11  25  44  65  83 124 171 211 260 314 352
#     4  11  22  43  66  90 119 163 218 259 304 376
#
# _framework density 20.667909999999999
#
# number of rings (size 3 to 8) (size 9 to 14) (size 15 to 20)
#    0.000    1.600    6.000    1.500    0.000    5.600 
#    0.000    5.000    0.000    0.000    0.000    0.000 
#    0.000    0.000    0.000    0.000    0.000    0.000 
#
# Total GULP energy -495844.484556 kJ/mol
# GULP energy per Si atom -12396.112114 kJ/mol
# Density = 2.062087 g / cm^3
# Si number density = 20.667910 Si / 1000 Ang^3
#
#
#
# Elastic Constant Matrix: (Units=GPa)
#
#
# Indices 1 2 3 4 5 6 
#
# 1 73.2009 18.3388 17.9834 0.0000 0.0000 0.0000
# 2 18.3388 116.6707 -3.1013 0.0000 0.0000 0.0000
# 3 17.9834 -3.1013 70.4677 0.0000 0.0000 0.0000
# 4 0.0000 0.0000 0.0000 25.9807 0.0000 0.0000
# 5 0.0000 0.0000 0.0000 0.0000 5.5682 0.0000
# 6 0.0000 0.0000 0.0000 0.0000 0.0000 22.1206
#
#
#
# Elastic Compliance Matrix: (Units=1/GPa)
#
#
# Indices 1 2 3 4 5 6 
#
# 1 0.015274 -0.002507 -0.004008 0.000000 0.000000 0.000000
# 2 -0.002507 0.008993 0.001036 0.000000 0.000000 0.000000
# 3 -0.004008 0.001036 0.015259 0.000000 0.000000 0.000000
# 4 0.000000 0.000000 0.000000 0.038490 0.000000 0.000000
# 5 0.000000 0.000000 0.000000 0.000000 0.179590 0.000000
# 6 0.000000 0.000000 0.000000 0.000000 0.000000 0.045207
#
#
# Mechanical properties :
#
#
# Convention : Reuss Voigt Hill
#
# Bulk Modulus (GPa) = 35.00647 36.30900 35.65773
# Shear Modulus (GPa) = 15.46573 25.87512 20.67042
#
# Velocity S-wave (km/s) = 2.73847 3.54212 3.16590
# Velocity P-wave (km/s) = 5.19358 5.85959 5.53661
#
# Compressibility (1/GPa) = 0.02856615
#
# Stress axis : x y z
#
# Youngs Moduli (GPa) = 65.47111 111.20031 65.53339
#
# Poissons Ratio (x) = 0.27882 0.26268
# Poissons Ratio (y) = 0.16416 -0.06787
# Poissons Ratio (z) = 0.26243 -0.11516
#
# Static dielectric constant tensor:
#      x y z
#    x 3.591180 0.000000 0.000000 
#    y 0.000000 3.558460 0.000000 
#    z 0.000000 0.000000 3.644990 
# 
# 
# High freq. dielectric constant tensor:
#      x y z
#    x 1.794930 0.000000 0.000000 
#    y 0.000000 1.808080 0.000000 
#    z 0.000000 0.000000 1.796700 
# 
# From -- ./inp_files/53575.got.cif
#   From: 2010.03.12/outbox.cif.g09.slc.cpg/sg70_27_cif.got.tgz:53575.got - 2010.04.16 13:46:32.
