data_PCOD8285227
_publ_section_title
;
Structure prediction by ZEFSAII (Michael W. Deem and Ramdas Pophale) SiO2 
 PCOD8285227
Probable space group: F M M M
;
_chemical_formula_sum "Si O2"
_cell_formula_units_Z 160
_cell_length_a 29.379283
_cell_length_b 18.143528
_cell_length_c 14.641587
_cell_angle_alpha 90.000000
_cell_angle_beta 90.000000
_cell_angle_gamma 90.000000
_cell_volume 7804.607813
_symmetry_space_group_name_H-M "F M M M"
_symmetry_group_IT_number 69
_symmetry_cell_setting 'orthorhombic'
loop_
_space_group_symop_operation_xyz
x,y,z
-x,-y,z
x,-y,-z
-x,y,-z
-x,-y,-z
x,y,-z
-x,y,z
x,-y,z
x,1/2+y,1/2+z
-x,1/2-y,1/2+z
x,1/2-y,1/2-z
-x,1/2+y,1/2-z
-x,1/2-y,1/2-z
x,1/2+y,1/2-z
-x,1/2+y,1/2+z
x,1/2-y,1/2+z
1/2+x,y,1/2+z
1/2-x,-y,1/2+z
1/2+x,-y,1/2-z
1/2-x,y,1/2-z
1/2-x,-y,1/2-z
1/2+x,y,1/2-z
1/2-x,y,1/2+z
1/2+x,-y,1/2+z
1/2+x,1/2+y,z
1/2-x,1/2-y,z
1/2+x,1/2-y,-z
1/2-x,1/2+y,-z
1/2-x,1/2-y,-z
1/2+x,1/2+y,-z
1/2-x,1/2+y,z
1/2+x,1/2-y,z
loop_
_atom_site_type_symbol
_atom_site_label
_atom_site_fract_x
_atom_site_fract_y
_atom_site_fract_z
Si Si1 0.115744 0.341569 0.106977
Si Si2 0.194159 0.917159 0.891809
Si Si3 0.793964 0.582468 0.108205
Si Si4 0.107763 0.170716 0.892963
Si Si5 0.552734 0.085222 0.250288
O O1 0.166441 0.362894 0.142105
O O2 0.107586 0.256640 0.129686
O O3 0.078962 0.390067 0.159514
O O4 0.110125 0.358690 0.000000
O O5 0.244087 0.892246 0.854951
O O6 0.155385 0.862360 0.855279
O O7 0.183370 0.000000 0.857732
O O8 0.194378 0.914876 0.000000
O O9 0.804703 0.500000 0.143930
O O10 0.792143 0.582183 0.000000
O O11 0.066996 0.132211 0.838834
O O12 0.100655 0.155156 0.000000
O O13 0.500000 0.099768 0.231687
O O14 0.562941 0.000000 0.270551
#
# Coordination Sequence:
#
# PCOD8285227 Si02
#       5
#    32  32  32  32  32
#     4  10  21  37  59  87 118 151 185 227 282 339
#     4   8  14  27  50  80 114 152 190 226 267 320
#     4   8  14  27  50  80 114 152 190 226 267 320
#     4  10  21  37  59  87 118 151 185 227 282 339
#     4  11  25  43  62  83 108 143 189 240 288 335
#
# _framework density 20.500710000000002
#
# number of rings (size 3 to 8) (size 9 to 14) (size 15 to 20)
#    0.000    2.600    0.000    3.000    0.000    5.600 
#    0.000    9.000    0.000    6.000    0.000    0.000 
#    0.000    0.000    0.000    0.000    0.000    0.000 
#
# Total GULP energy -495880.968457 kJ/mol
# GULP energy per Si atom -12397.024211 kJ/mol
# Density = 2.045405 g / cm^3
# Si number density = 20.500710 Si / 1000 Ang^3
#
#
#
# Elastic Constant Matrix: (Units=GPa)
#
#
# Indices 1 2 3 4 5 6 
#
# 1 110.6583 34.7441 8.6830 0.0000 0.0000 0.0000
# 2 34.7441 74.0162 1.8554 0.0000 0.0000 0.0000
# 3 8.6830 1.8554 40.5183 0.0000 0.0000 0.0000
# 4 0.0000 0.0000 0.0000 23.5123 0.0000 0.0000
# 5 0.0000 0.0000 0.0000 0.0000 142.0718 0.0000
# 6 0.0000 0.0000 0.0000 0.0000 0.0000 18.8800
#
#
#
# Elastic Compliance Matrix: (Units=1/GPa)
#
#
# Indices 1 2 3 4 5 6 
#
# 1 0.010771 -0.005004 -0.002079 0.000000 0.000000 0.000000
# 2 -0.005004 0.015851 0.000347 0.000000 0.000000 0.000000
# 3 -0.002079 0.000347 0.025110 0.000000 0.000000 0.000000
# 4 0.000000 0.000000 0.000000 0.042531 0.000000 0.000000
# 5 0.000000 0.000000 0.000000 0.000000 0.007039 0.000000
# 6 0.000000 0.000000 0.000000 0.000000 0.000000 0.052966
#
#
# Mechanical properties :
#
#
# Convention : Reuss Voigt Hill
#
# Bulk Modulus (GPa) = 26.13786 35.08420 30.61103
# Shear Modulus (GPa) = 27.70184 48.88684 38.29434
#
# Velocity S-wave (km/s) = 3.67994 4.88858 4.32667
# Velocity P-wave (km/s) = 5.55278 7.00107 6.31856
#
# Compressibility (1/GPa) = 0.03825868
#
# Stress axis : x y z
#
# Youngs Moduli (GPa) = 92.84110 63.08837 39.82498
#
# Poissons Ratio (x) = 0.31569 0.08280
# Poissons Ratio (y) = 0.46457 -0.01380
# Poissons Ratio (z) = 0.19303 -0.02186
#
# Static dielectric constant tensor:
#      x y z
#    x 3.992230 0.000000 0.000000 
#    y 0.000000 3.758500 0.000000 
#    z 0.000000 0.000000 3.494890 
# 
# 
# High freq. dielectric constant tensor:
#      x y z
#    x 1.803680 0.000000 0.000000 
#    y 0.000000 1.797080 0.000000 
#    z 0.000000 0.000000 1.793810 
# 
# From -- ./inp_files/23091.got.cif
#   From: 2010.03.12/outbox.cif.g09.slc.cpg/sg69_12_cif.got.tgz:23091.got - 2010.04.10 23:52:46.
