data_PCOD8285806
_publ_section_title
;
Structure prediction by ZEFSAII (Michael W. Deem and Ramdas Pophale) SiO2 
 PCOD8285806
Probable space group: F D D D
;
_chemical_formula_sum "Si O2"
_cell_formula_units_Z 232
_cell_length_a 17.866059
_cell_length_b 21.719766
_cell_length_c 29.068100
_cell_angle_alpha 90.000000
_cell_angle_beta 90.000000
_cell_angle_gamma 90.000000
_cell_volume 11279.777979
_symmetry_space_group_name_H-M "F D D D"
_symmetry_group_IT_number 70
_space_group.IT_coordinate_system_code '2'
_symmetry_cell_setting 'orthorhombic'
loop_
_space_group_symop_operation_xyz
x,y,z
1/4-x,1/4-y,z
x,1/4-y,1/4-z
1/4-x,y,1/4-z
-x,-y,-z
3/4+x,3/4+y,-z
-x,3/4+y,3/4+z
3/4+x,-y,3/4+z
x,1/2+y,1/2+z
1/4-x,3/4-y,1/2+z
x,3/4-y,3/4-z
1/4-x,1/2+y,3/4-z
-x,1/2-y,1/2-z
3/4+x,1/4+y,1/2-z
-x,1/4+y,1/4+z
3/4+x,1/2-y,1/4+z
1/2+x,y,1/2+z
3/4-x,1/4-y,1/2+z
1/2+x,1/4-y,3/4-z
3/4-x,y,3/4-z
1/2-x,-y,1/2-z
1/4+x,3/4+y,1/2-z
1/2-x,3/4+y,1/4+z
1/4+x,-y,1/4+z
1/2+x,1/2+y,z
3/4-x,3/4-y,z
1/2+x,3/4-y,1/4-z
3/4-x,1/2+y,1/4-z
1/2-x,1/2-y,-z
1/4+x,1/4+y,-z
1/2-x,1/4+y,3/4+z
1/4+x,1/2-y,3/4+z
loop_
_atom_site_type_symbol
_atom_site_label
_atom_site_fract_x
_atom_site_fract_y
_atom_site_fract_z
Si Si1 0.892627 0.742592 0.522899
Si Si2 0.229268 0.521170 0.348953
Si Si3 0.246119 0.530276 0.600205
Si Si4 0.815292 0.126125 0.244649
Si Si5 0.668890 0.679620 0.551532
Si Si6 0.552128 0.398067 0.151897
Si Si7 0.125000 0.125000 0.125000
Si Si8 0.609475 0.933476 0.846281
O O1 0.830111 0.762477 0.558979
O O2 0.970154 0.730711 0.549334
O O3 0.870719 0.680500 0.496820
O O4 0.894848 0.794923 0.483945
O O5 0.304893 0.483808 0.335704
O O6 0.242520 0.593500 0.356598
O O7 0.193556 0.492236 0.394868
O O8 0.221959 0.463486 0.619758
O O9 0.177811 0.579050 0.595129
O O10 0.305543 0.556315 0.637128
O O11 0.737239 0.098766 0.227210
O O12 0.810392 0.159989 0.293482
O O13 0.854741 0.171241 0.207886
O O14 0.625000 0.625000 0.578494
O O15 0.625000 0.375778 0.125000
O O16 0.576561 0.875000 0.875000
#
# Coordination Sequence:
#
# PCOD8285806 Si02
#       8
#    32  32  32  32  32  32   8  32
#     4  10  18  35  63  93 120 170 213 264 319 399
#     4  10  21  38  58  88 136 165 206 263 327 395
#     4  11  23  40  71  90 120 170 229 273 334 386
#     4  11  20  40  62  91 135 168 218 270 329 391
#     4  11  19  31  60  94 131 173 214 249 324 405
#     4  12  25  42  59  93 136 175 209 273 343 400
#     4  12  20  44  68  88 112 160 232 292 320 376
#     4  11  20  40  66  96 125 173 223 275 316 392
#
# _framework density 20.567781
#
# number of rings (size 3 to 8) (size 9 to 14) (size 15 to 20)
#    0.000    1.103    8.276    1.655    0.000    2.759 
#    2.483    1.379    0.000    0.000    0.000    0.000 
#    0.000    0.000    0.000    0.000    0.000    0.000 
#
# Total GULP energy -718851.315244 kJ/mol
# GULP energy per Si atom -12393.988194 kJ/mol
# Density = 2.052097 g / cm^3
# Si number density = 20.567781 Si / 1000 Ang^3
#
#
#
# Elastic Constant Matrix: (Units=GPa)
#
#
# Indices 1 2 3 4 5 6 
#
# 1 88.1020 51.4298 25.6766 0.0000 0.0000 0.0000
# 2 51.4298 142.6199 27.8949 0.0000 0.0000 0.0000
# 3 25.6766 27.8949 59.9114 0.0000 0.0000 0.0000
# 4 0.0000 0.0000 0.0000 24.2293 0.0000 0.0000
# 5 0.0000 0.0000 0.0000 0.0000 20.1686 0.0000
# 6 0.0000 0.0000 0.0000 0.0000 0.0000 30.8962
#
#
#
# Elastic Compliance Matrix: (Units=1/GPa)
#
#
# Indices 1 2 3 4 5 6 
#
# 1 0.015366 -0.004679 -0.004407 0.000000 0.000000 0.000000
# 2 -0.004679 0.009139 -0.002250 0.000000 0.000000 0.000000
# 3 -0.004407 -0.002250 0.019628 0.000000 0.000000 0.000000
# 4 0.000000 0.000000 0.000000 0.041272 0.000000 0.000000
# 5 0.000000 0.000000 0.000000 0.000000 0.049582 0.000000
# 6 0.000000 0.000000 0.000000 0.000000 0.000000 0.032366
#
#
# Mechanical properties :
#
#
# Convention : Reuss Voigt Hill
#
# Bulk Modulus (GPa) = 46.59622 55.62621 51.11122
# Shear Modulus (GPa) = 25.35761 27.43429 26.39595
#
# Velocity S-wave (km/s) = 3.51505 3.65615 3.58629
# Velocity P-wave (km/s) = 6.25925 6.70278 6.48481
#
# Compressibility (1/GPa) = 0.02146097
#
# Stress axis : x y z
#
# Youngs Moduli (GPa) = 65.07703 109.42058 50.94885
#
# Poissons Ratio (x) = 0.51201 0.22453
# Poissons Ratio (y) = 0.30451 0.11462
# Poissons Ratio (z) = 0.28679 0.24617
#
# Static dielectric constant tensor:
#      x y z
#    x 3.754160 0.000000 0.000000 
#    y 0.000000 4.066950 0.000000 
#    z 0.000000 0.000000 3.524070 
# 
# 
# High freq. dielectric constant tensor:
#      x y z
#    x 1.793490 0.000000 0.000000 
#    y 0.000000 1.817940 0.000000 
#    z 0.000000 0.000000 1.771920 
# 
# From -- ./inp_files/66871.got.cif
#   From: 2010.03.12/outbox.cif.g09.slc.cpg/sg70_34_cif.got.tgz:66871.got - 2010.04.16 13:46:32.
