data_PCOD8285081
_publ_section_title
;
Structure prediction by ZEFSAII (Michael W. Deem and Ramdas Pophale) SiO2 
 PCOD8285081
Probable space group: F M M M
;
_chemical_formula_sum "Si O2"
_cell_formula_units_Z 208
_cell_length_a 21.083886
_cell_length_b 17.539148
_cell_length_c 29.136165
_cell_angle_alpha 90.000000
_cell_angle_beta 90.000000
_cell_angle_gamma 90.000000
_cell_volume 10774.361430
_symmetry_space_group_name_H-M "F M M M"
_symmetry_group_IT_number 69
_symmetry_cell_setting 'orthorhombic'
loop_
_space_group_symop_operation_xyz
x,y,z
-x,-y,z
x,-y,-z
-x,y,-z
-x,-y,-z
x,y,-z
-x,y,z
x,-y,z
x,1/2+y,1/2+z
-x,1/2-y,1/2+z
x,1/2-y,1/2-z
-x,1/2+y,1/2-z
-x,1/2-y,1/2-z
x,1/2+y,1/2-z
-x,1/2+y,1/2+z
x,1/2-y,1/2+z
1/2+x,y,1/2+z
1/2-x,-y,1/2+z
1/2+x,-y,1/2-z
1/2-x,y,1/2-z
1/2-x,-y,1/2-z
1/2+x,y,1/2-z
1/2-x,y,1/2+z
1/2+x,-y,1/2+z
1/2+x,1/2+y,z
1/2-x,1/2-y,z
1/2+x,1/2-y,-z
1/2-x,1/2+y,-z
1/2-x,1/2-y,-z
1/2+x,1/2+y,-z
1/2-x,1/2+y,z
1/2+x,1/2-y,z
loop_
_atom_site_type_symbol
_atom_site_label
_atom_site_fract_x
_atom_site_fract_y
_atom_site_fract_z
Si Si1 0.687224 0.090262 0.721504
Si Si2 0.631615 0.910744 0.124932
Si Si3 0.855078 0.148738 0.053332
Si Si4 0.929674 0.500000 0.445721
Si Si5 0.264199 0.337185 0.134591
Si Si6 0.429613 0.590375 0.281450
Si Si7 0.572216 0.196791 0.947008
O O1 0.750000 0.113241 0.750000
O O2 0.686639 0.131650 0.672336
O O3 0.624380 0.121905 0.747229
O O4 0.684362 0.000000 0.714303
O O5 0.703003 0.890398 0.138370
O O6 0.586331 0.885135 0.166586
O O7 0.611983 0.866270 0.079543
O O8 0.626401 0.000000 0.114713
O O9 0.892381 0.074483 0.070656
O O10 0.791901 0.156620 0.083293
O O11 0.900484 0.219846 0.062565
O O12 0.834795 0.142791 0.000000
O O13 0.936154 0.500000 0.500000
O O14 0.000000 0.500000 0.423611
O O15 0.250000 0.250000 0.146203
O O16 0.500000 0.621717 0.268566
O O17 0.428519 0.500000 0.278549
O O18 0.500000 0.196317 0.930172
O O19 0.577699 0.174980 0.000000
#
# Coordination Sequence:
#
# PCOD8285081 Si02
#       7
#    32  32  32  16  32  32  32
#     4  10  20  38  63  88 117 155 198 245 301 365
#     4  11  22  38  61  90 120 160 206 248 302 367
#     4  10  22  39  60  89 122 161 205 251 301 359
#     4   9  18  36  62  88 115 156 207 251 298 361
#     4  12  24  39  60  87 120 160 202 250 306 364
#     4   9  18  36  62  89 118 155 199 248 302 363
#     4  10  21  39  61  86 122 163 201 249 308 363
#
# _framework density 19.305088000000001
#
# number of rings (size 3 to 8) (size 9 to 14) (size 15 to 20)
#    0.000    1.769    3.077    1.385    2.154    4.308 
#    0.000    2.308    0.000    0.923    0.000    0.000 
#    0.000    0.000    0.000    0.000    0.000    0.000 
#
# Total GULP energy -644924.508557 kJ/mol
# GULP energy per Si atom -12402.394395 kJ/mol
# Density = 1.926115 g / cm^3
# Si number density = 19.305088 Si / 1000 Ang^3
#
#
#
# Elastic Constant Matrix: (Units=GPa)
#
#
# Indices 1 2 3 4 5 6 
#
# 1 115.6010 30.3811 51.5055 0.0000 0.0000 0.0000
# 2 30.3811 98.5517 46.0821 0.0000 0.0000 0.0000
# 3 51.5055 46.0821 93.6246 0.0000 0.0000 0.0000
# 4 0.0000 0.0000 0.0000 47.4575 0.0000 0.0000
# 5 0.0000 0.0000 0.0000 0.0000 37.0516 0.0000
# 6 0.0000 0.0000 0.0000 0.0000 0.0000 23.2463
#
#
#
# Elastic Compliance Matrix: (Units=1/GPa)
#
#
# Indices 1 2 3 4 5 6 
#
# 1 0.011503 -0.000763 -0.005953 0.000000 0.000000 0.000000
# 2 -0.000763 0.013231 -0.006093 0.000000 0.000000 0.000000
# 3 -0.005953 -0.006093 0.016955 0.000000 0.000000 0.000000
# 4 0.000000 0.000000 0.000000 0.021071 0.000000 0.000000
# 5 0.000000 0.000000 0.000000 0.000000 0.026989 0.000000
# 6 0.000000 0.000000 0.000000 0.000000 0.000000 0.043018
#
#
# Mechanical properties :
#
#
# Convention : Reuss Voigt Hill
#
# Bulk Modulus (GPa) = 62.21878 62.63496 62.42687
# Shear Modulus (GPa) = 30.53602 33.53833 32.03717
#
# Velocity S-wave (km/s) = 3.98145 4.17259 4.07814
# Velocity P-wave (km/s) = 7.30993 7.46520 7.38797
#
# Compressibility (1/GPa) = 0.01607232
#
# Stress axis : x y z
#
# Youngs Moduli (GPa) = 86.93287 75.58016 58.98090
#
# Poissons Ratio (x) = 0.05764 0.35110
# Poissons Ratio (y) = 0.06630 0.35936
# Poissons Ratio (z) = 0.51750 0.46049
#
# Static dielectric constant tensor:
#      x y z
#    x 3.716860 0.000000 0.000000 
#    y 0.000000 3.405480 0.000000 
#    z 0.000000 0.000000 3.482350 
# 
# 
# High freq. dielectric constant tensor:
#      x y z
#    x 1.757300 0.000000 0.000000 
#    y 0.000000 1.743360 0.000000 
#    z 0.000000 0.000000 1.747030 
# 
# From -- ./inp_files/42744.got.cif
#   From: 2010.03.12/outbox.cif.g09.slc.cpg/sg69_22_cif.got.tgz:42744.got - 2010.04.10 23:52:46.
