data_PCOD8285504
_publ_section_title
;
Structure prediction by ZEFSAII (Michael W. Deem and Ramdas Pophale) SiO2 
 PCOD8285504
Probable space group: F M M M
;
_chemical_formula_sum "Si O2"
_cell_formula_units_Z 96
_cell_length_a 15.262124
_cell_length_b 18.856655
_cell_length_c 19.084687
_cell_angle_alpha 90.000000
_cell_angle_beta 90.000000
_cell_angle_gamma 90.000000
_cell_volume 5492.431822
_symmetry_space_group_name_H-M "F M M M"
_symmetry_group_IT_number 69
_symmetry_cell_setting 'orthorhombic'
loop_
_space_group_symop_operation_xyz
x,y,z
-x,-y,z
x,-y,-z
-x,y,-z
-x,-y,-z
x,y,-z
-x,y,z
x,-y,z
x,1/2+y,1/2+z
-x,1/2-y,1/2+z
x,1/2-y,1/2-z
-x,1/2+y,1/2-z
-x,1/2-y,1/2-z
x,1/2+y,1/2-z
-x,1/2+y,1/2+z
x,1/2-y,1/2+z
1/2+x,y,1/2+z
1/2-x,-y,1/2+z
1/2+x,-y,1/2-z
1/2-x,y,1/2-z
1/2-x,-y,1/2-z
1/2+x,y,1/2-z
1/2-x,y,1/2+z
1/2+x,-y,1/2+z
1/2+x,1/2+y,z
1/2-x,1/2-y,z
1/2+x,1/2-y,-z
1/2-x,1/2+y,-z
1/2-x,1/2-y,-z
1/2+x,1/2+y,-z
1/2-x,1/2+y,z
1/2+x,1/2-y,z
loop_
_atom_site_type_symbol
_atom_site_label
_atom_site_fract_x
_atom_site_fract_y
_atom_site_fract_z
Si Si1 0.902480 0.207907 0.077036
Si Si2 0.000000 0.917468 0.280986
Si Si3 0.654926 0.326718 0.222348
Si Si4 0.000000 0.344197 0.922612
O O1 0.840534 0.176475 0.137501
O O2 0.000000 0.173362 0.083164
O O3 0.913991 0.293452 0.085498
O O4 0.862208 0.190580 0.000000
O O5 0.913661 0.884948 0.246560
O O6 0.000000 0.904986 0.364456
O O7 0.000000 0.000000 0.265189
O O8 0.624069 0.250000 0.250000
O O9 0.750000 0.348318 0.250000
O O10 0.000000 0.379663 0.000000
#
# Coordination Sequence:
#
# PCOD8285504 Si02
#       4
#    32  16  32  16
#     4   8  14  29  57  81 105 135 175 233 276 308
#     4  12  22  35  54  75 114 153 175 220 269 329
#     4  11  20  34  57  83 108 138 181 232 274 313
#     4   8  15  30  52  77 104 138 181 221 261 322
#
# _framework density 17.478596
#
# number of rings (size 3 to 8) (size 9 to 14) (size 15 to 20)
#    1.000    1.333    5.000    0.500    0.000    1.000 
#    0.000    5.000    0.000    2.000    0.000    0.000 
#    0.000    0.000    0.000    0.000    0.000    0.000 
#
# Total GULP energy -297359.020830 kJ/mol
# GULP energy per Si atom -12389.959201 kJ/mol
# Density = 1.743881 g / cm^3
# Si number density = 17.478596 Si / 1000 Ang^3
#
#
#
# Elastic Constant Matrix: (Units=GPa)
#
#
# Indices 1 2 3 4 5 6 
#
# 1 90.0421 52.2303 51.1566 0.0000 0.0000 0.0000
# 2 52.2303 90.9366 48.5156 0.0000 0.0000 0.0000
# 3 51.1566 48.5156 168.8160 0.0000 0.0000 0.0000
# 4 0.0000 0.0000 0.0000 16.5663 0.0000 0.0000
# 5 0.0000 0.0000 0.0000 0.0000 19.6889 0.0000
# 6 0.0000 0.0000 0.0000 0.0000 0.0000 4.4934
#
#
#
# Elastic Compliance Matrix: (Units=1/GPa)
#
#
# Indices 1 2 3 4 5 6 
#
# 1 0.017778 -0.008666 -0.002897 0.000000 0.000000 0.000000
# 2 -0.008666 0.017212 -0.002321 0.000000 0.000000 0.000000
# 3 -0.002897 -0.002321 0.007468 0.000000 0.000000 0.000000
# 4 0.000000 0.000000 0.000000 0.060363 0.000000 0.000000
# 5 0.000000 0.000000 0.000000 0.000000 0.050790 0.000000
# 6 0.000000 0.000000 0.000000 0.000000 0.000000 0.222550
#
#
# Mechanical properties :
#
#
# Convention : Reuss Voigt Hill
#
# Bulk Modulus (GPa) = 68.06260 72.62219 70.34240
# Shear Modulus (GPa) = 12.23015 21.34254 16.78634
#
# Velocity S-wave (km/s) = 2.64809 3.49817 3.10238
# Velocity P-wave (km/s) = 6.95521 7.61286 7.29145
#
# Compressibility (1/GPa) = 0.01469236
#
# Stress axis : x y z
#
# Youngs Moduli (GPa) = 56.24773 58.09937 133.89764
#
# Poissons Ratio (x) = 0.50347 0.38791
# Poissons Ratio (y) = 0.48742 0.31071
# Poissons Ratio (z) = 0.16295 0.13482
#
# Static dielectric constant tensor:
#      x y z
#    x 2.933430 0.000000 0.000000 
#    y 0.000000 2.706000 0.000000 
#    z 0.000000 0.000000 3.431270 
# 
# 
# High freq. dielectric constant tensor:
#      x y z
#    x 1.651020 0.000000 0.000000 
#    y 0.000000 1.612590 0.000000 
#    z 0.000000 0.000000 1.700570 
# 
# From -- ./inp_files/22199.got.cif
#   From: 2010.03.12/outbox.cif.g09.slc.cpg/sg69_12_cif.got.tgz:22199.got - 2010.04.10 23:52:46.
