data_PCOD8285344
_publ_section_title
;
Structure prediction by ZEFSAII (Michael W. Deem and Ramdas Pophale) SiO2 
 PCOD8285344
Probable space group: F M M M
;
_chemical_formula_sum "Si O2"
_cell_formula_units_Z 176
_cell_length_a 26.227631
_cell_length_b 14.065523
_cell_length_c 25.574492
_cell_angle_alpha 90.000000
_cell_angle_beta 90.000000
_cell_angle_gamma 90.000000
_cell_volume 9434.566847
_symmetry_space_group_name_H-M "F M M M"
_symmetry_group_IT_number 69
_symmetry_cell_setting 'orthorhombic'
loop_
_space_group_symop_operation_xyz
x,y,z
-x,-y,z
x,-y,-z
-x,y,-z
-x,-y,-z
x,y,-z
-x,y,z
x,-y,z
x,1/2+y,1/2+z
-x,1/2-y,1/2+z
x,1/2-y,1/2-z
-x,1/2+y,1/2-z
-x,1/2-y,1/2-z
x,1/2+y,1/2-z
-x,1/2+y,1/2+z
x,1/2-y,1/2+z
1/2+x,y,1/2+z
1/2-x,-y,1/2+z
1/2+x,-y,1/2-z
1/2-x,y,1/2-z
1/2-x,-y,1/2-z
1/2+x,y,1/2-z
1/2-x,y,1/2+z
1/2+x,-y,1/2+z
1/2+x,1/2+y,z
1/2-x,1/2-y,z
1/2+x,1/2-y,-z
1/2-x,1/2+y,-z
1/2-x,1/2-y,-z
1/2+x,1/2+y,-z
1/2-x,1/2+y,z
1/2+x,1/2-y,z
loop_
_atom_site_type_symbol
_atom_site_label
_atom_site_fract_x
_atom_site_fract_y
_atom_site_fract_z
Si Si1 0.157377 0.889061 0.241261
Si Si2 0.441254 0.612502 0.500000
Si Si3 0.943360 0.608518 0.800043
Si Si4 0.940535 0.106118 0.059951
Si Si5 0.900322 0.209046 0.602631
Si Si6 0.807100 0.232751 0.332738
O O1 0.098076 0.868864 0.255349
O O2 0.192965 0.848311 0.287842
O O3 0.169198 0.831500 0.188661
O O4 0.169230 0.000000 0.233061
O O5 0.438835 0.500000 0.500000
O O6 0.500000 0.648506 0.500000
O O7 0.412099 0.650843 0.550520
O O8 0.936825 0.500000 0.818774
O O9 0.936190 0.673032 0.850851
O O10 0.000000 0.626728 0.776878
O O11 0.909828 0.179176 0.095381
O O12 0.000000 0.127287 0.065348
O O13 0.927580 0.000000 0.079673
O O14 0.923650 0.118612 0.000000
O O15 0.840978 0.196502 0.618504
O O16 0.750000 0.250000 0.352778
#
# Coordination Sequence:
#
# PCOD8285344 Si02
#       6
#    32  16  32  32  32  32
#     4   9  18  35  58  80 106 141 179 217 262 316
#     4  11  22  36  58  85 109 135 171 214 263 327
#     4   9  17  30  50  79 114 143 167 206 264 322
#     4   9  17  30  49  72 100 135 171 205 244 296
#     4  11  20  33  53  78 106 142 176 218 262 310
#     4  10  22  37  53  79 106 136 181 227 269 310
#
# _framework density 18.654805
#
# number of rings (size 3 to 8) (size 9 to 14) (size 15 to 20)
#    0.000    2.273    0.909    3.818    0.000    4.364 
#    0.000    9.545    0.000    2.182    0.000    0.000 
#    0.000    0.000    0.000    0.000    0.000    0.000 
#
# Total GULP energy -545601.206943 kJ/mol
# GULP energy per Si atom -12400.027431 kJ/mol
# Density = 1.861235 g / cm^3
# Si number density = 18.654805 Si / 1000 Ang^3
#
#
#
# Elastic Constant Matrix: (Units=GPa)
#
#
# Indices 1 2 3 4 5 6 
#
# 1 122.7484 29.2942 43.5746 0.0000 0.0000 0.0000
# 2 29.2942 105.5268 32.3979 0.0000 0.0000 0.0000
# 3 43.5746 32.3979 72.1874 0.0000 0.0000 0.0000
# 4 0.0000 0.0000 0.0000 23.0583 0.0000 0.0000
# 5 0.0000 0.0000 0.0000 0.0000 16.2409 0.0000
# 6 0.0000 0.0000 0.0000 0.0000 0.0000 21.5183
#
#
#
# Elastic Compliance Matrix: (Units=1/GPa)
#
#
# Indices 1 2 3 4 5 6 
#
# 1 0.010482 -0.001122 -0.005824 0.000000 0.000000 0.000000
# 2 -0.001122 0.011111 -0.004309 0.000000 0.000000 0.000000
# 3 -0.005824 -0.004309 0.019302 0.000000 0.000000 0.000000
# 4 0.000000 0.000000 0.000000 0.043368 0.000000 0.000000
# 5 0.000000 0.000000 0.000000 0.000000 0.061573 0.000000
# 6 0.000000 0.000000 0.000000 0.000000 0.000000 0.046472
#
#
# Mechanical properties :
#
#
# Convention : Reuss Voigt Hill
#
# Bulk Modulus (GPa) = 54.39196 56.77733 55.58465
# Shear Modulus (GPa) = 22.62994 25.17655 23.90325
#
# Velocity S-wave (km/s) = 3.48672 3.67768 3.58347
# Velocity P-wave (km/s) = 6.74018 6.96675 6.85440
#
# Compressibility (1/GPa) = 0.01838507
#
# Stress axis : x y z
#
# Youngs Moduli (GPa) = 95.40313 90.00331 51.80739
#
# Poissons Ratio (x) = 0.10097 0.30171
# Poissons Ratio (y) = 0.10702 0.22326
# Poissons Ratio (z) = 0.55560 0.38786
#
# Static dielectric constant tensor:
#      x y z
#    x 3.345300 0.000000 0.000000 
#    y 0.000000 3.629140 0.000000 
#    z 0.000000 0.000000 3.181600 
# 
# 
# High freq. dielectric constant tensor:
#      x y z
#    x 1.708360 0.000000 0.000000 
#    y 0.000000 1.741240 0.000000 
#    z 0.000000 0.000000 1.698130 
# 
# From -- ./inp_files/38306.got.cif
#   From: 2010.03.12/outbox.cif.g09.slc.cpg/sg69_20_cif.got.tgz:38306.got - 2010.04.10 23:52:46.
