data_PCOD8285283
_publ_section_title
;
Structure prediction by ZEFSAII (Michael W. Deem and Ramdas Pophale) SiO2 
 PCOD8285283
Probable space group: F M M M
;
_chemical_formula_sum "Si O2"
_cell_formula_units_Z 160
_cell_length_a 33.409345
_cell_length_b 13.847876
_cell_length_c 18.495768
_cell_angle_alpha 90.000000
_cell_angle_beta 90.000000
_cell_angle_gamma 90.000000
_cell_volume 8557.038708
_symmetry_space_group_name_H-M "F M M M"
_symmetry_group_IT_number 69
_symmetry_cell_setting 'orthorhombic'
loop_
_space_group_symop_operation_xyz
x,y,z
-x,-y,z
x,-y,-z
-x,y,-z
-x,-y,-z
x,y,-z
-x,y,z
x,-y,z
x,1/2+y,1/2+z
-x,1/2-y,1/2+z
x,1/2-y,1/2-z
-x,1/2+y,1/2-z
-x,1/2-y,1/2-z
x,1/2+y,1/2-z
-x,1/2+y,1/2+z
x,1/2-y,1/2+z
1/2+x,y,1/2+z
1/2-x,-y,1/2+z
1/2+x,-y,1/2-z
1/2-x,y,1/2-z
1/2-x,-y,1/2-z
1/2+x,y,1/2-z
1/2-x,y,1/2+z
1/2+x,-y,1/2+z
1/2+x,1/2+y,z
1/2-x,1/2-y,z
1/2+x,1/2-y,-z
1/2-x,1/2+y,-z
1/2-x,1/2-y,-z
1/2+x,1/2+y,-z
1/2-x,1/2+y,z
1/2+x,1/2-y,z
loop_
_atom_site_type_symbol
_atom_site_label
_atom_site_fract_x
_atom_site_fract_y
_atom_site_fract_z
Si Si1 0.500000 0.778784 0.085400
Si Si2 0.709583 0.204961 0.582566
Si Si3 0.781058 0.500000 0.641254
Si Si4 0.649773 0.806629 0.821505
Si Si5 0.500000 0.110781 0.297533
Si Si6 0.062703 0.613984 0.827161
Si Si7 0.307096 0.000000 0.796728
O O1 0.500000 0.679837 0.132580
O O2 0.538256 0.844425 0.104814
O O3 0.500000 0.753443 0.000000
O O4 0.709207 0.235916 0.500000
O O5 0.750000 0.250000 0.619534
O O6 0.710610 0.090566 0.590800
O O7 0.667716 0.243286 0.613892
O O8 0.737042 0.500000 0.672942
O O9 0.810571 0.500000 0.709903
O O10 0.662198 0.750000 0.750000
O O11 0.602545 0.822422 0.825545
O O12 0.670754 0.908500 0.827669
O O13 0.461071 0.131007 0.247950
O O14 0.500000 0.000000 0.324904
O O15 0.070932 0.500000 0.838604
#
# Coordination Sequence:
#
# PCOD8285283 Si02
#       7
#    16  32  16  32  16  32  16
#     4  11  22  38  61  91 125 161 191 229 292 350
#     4  11  24  39  57  82 116 161 199 241 301 359
#     4  11  21  40  60  84 117 150 205 253 296 358
#     4  12  22  38  61  89 120 150 197 252 300 351
#     4   9  19  39  63  93 118 155 197 236 282 351
#     4  10  21  38  64  90 118 151 196 245 294 348
#     4  11  22  34  62  93 111 149 200 253 305 342
#
# _framework density 18.698056999999999
#
# number of rings (size 3 to 8) (size 9 to 14) (size 15 to 20)
#    0.000    1.200    5.000    3.600    0.000    2.200 
#    0.000    0.500    0.000    0.000    0.000    0.000 
#    0.000    0.000    0.000    0.000    0.000    0.000 
#
# Total GULP energy -495979.187479 kJ/mol
# GULP energy per Si atom -12399.479687 kJ/mol
# Density = 1.865550 g / cm^3
# Si number density = 18.698057 Si / 1000 Ang^3
#
#
#
# Elastic Constant Matrix: (Units=GPa)
#
#
# Indices 1 2 3 4 5 6 
#
# 1 100.1019 44.0459 38.3228 0.0000 0.0000 0.0000
# 2 44.0459 129.5673 41.0519 0.0000 0.0000 0.0000
# 3 38.3228 41.0519 103.6185 0.0000 0.0000 0.0000
# 4 0.0000 0.0000 0.0000 13.7714 0.0000 0.0000
# 5 0.0000 0.0000 0.0000 0.0000 232.9679 0.0000
# 6 0.0000 0.0000 0.0000 0.0000 0.0000 30.0846
#
#
#
# Elastic Compliance Matrix: (Units=1/GPa)
#
#
# Indices 1 2 3 4 5 6 
#
# 1 0.012727 -0.003242 -0.003422 0.000000 0.000000 0.000000
# 2 -0.003242 0.009652 -0.002625 0.000000 0.000000 0.000000
# 3 -0.003422 -0.002625 0.011956 0.000000 0.000000 0.000000
# 4 0.000000 0.000000 0.000000 0.072614 0.000000 0.000000
# 5 0.000000 0.000000 0.000000 0.000000 0.004292 0.000000
# 6 0.000000 0.000000 0.000000 0.000000 0.000000 0.033240
#
#
# Mechanical properties :
#
#
# Convention : Reuss Voigt Hill
#
# Bulk Modulus (GPa) = 63.46677 64.45878 63.96278
# Shear Modulus (GPa) = 29.70678 69.35592 49.53135
#
# Velocity S-wave (km/s) = 3.99025 6.09697 5.15244
# Velocity P-wave (km/s) = 7.43278 9.17129 8.34741
#
# Compressibility (1/GPa) = 0.01575628
#
# Stress axis : x y z
#
# Youngs Moduli (GPa) = 78.57574 103.60822 83.63671
#
# Poissons Ratio (x) = 0.33590 0.28624
# Poissons Ratio (y) = 0.25474 0.21953
# Poissons Ratio (z) = 0.26892 0.27195
#
# Static dielectric constant tensor:
#      x y z
#    x 3.512240 0.000000 0.000000 
#    y 0.000000 3.588780 0.000000 
#    z 0.000000 0.000000 3.199680 
# 
# 
# High freq. dielectric constant tensor:
#      x y z
#    x 1.727200 0.000000 0.000000 
#    y 0.000000 1.746230 0.000000 
#    z 0.000000 0.000000 1.704980 
# 
# From -- ./inp_files/27536.got.cif
#   From: 2010.03.12/outbox.cif.g09.slc.cpg/sg69_14_cif.got.tgz:27536.got - 2010.04.10 23:52:46.
