data_PCOD8285564
_publ_section_title
;
Structure prediction by ZEFSAII (Michael W. Deem and Ramdas Pophale) SiO2 
 PCOD8285564
Probable space group: F M M M
;
_chemical_formula_sum "Si O2"
_cell_formula_units_Z 160
_cell_length_a 17.448246
_cell_length_b 20.495417
_cell_length_c 22.588596
_cell_angle_alpha 90.000000
_cell_angle_beta 90.000000
_cell_angle_gamma 90.000000
_cell_volume 8077.886982
_symmetry_space_group_name_H-M "F M M M"
_symmetry_group_IT_number 69
_symmetry_cell_setting 'orthorhombic'
loop_
_space_group_symop_operation_xyz
x,y,z
-x,-y,z
x,-y,-z
-x,y,-z
-x,-y,-z
x,y,-z
-x,y,z
x,-y,z
x,1/2+y,1/2+z
-x,1/2-y,1/2+z
x,1/2-y,1/2-z
-x,1/2+y,1/2-z
-x,1/2-y,1/2-z
x,1/2+y,1/2-z
-x,1/2+y,1/2+z
x,1/2-y,1/2+z
1/2+x,y,1/2+z
1/2-x,-y,1/2+z
1/2+x,-y,1/2-z
1/2-x,y,1/2-z
1/2-x,-y,1/2-z
1/2+x,y,1/2-z
1/2-x,y,1/2+z
1/2+x,-y,1/2+z
1/2+x,1/2+y,z
1/2-x,1/2-y,z
1/2+x,1/2-y,-z
1/2-x,1/2+y,-z
1/2-x,1/2-y,-z
1/2+x,1/2+y,-z
1/2-x,1/2+y,z
1/2+x,1/2-y,z
loop_
_atom_site_type_symbol
_atom_site_label
_atom_site_fract_x
_atom_site_fract_y
_atom_site_fract_z
Si Si1 0.590219 0.075415 0.500000
Si Si2 0.158744 0.248253 0.816526
Si Si3 0.847377 0.624082 0.883269
Si Si4 0.824638 0.000000 0.792832
Si Si5 0.829106 0.619753 0.618639
Si Si6 0.411618 0.927483 0.000000
Si Si7 0.589464 0.000000 0.181722
O O1 0.500000 0.086767 0.500000
O O2 0.624057 0.106789 0.440801
O O3 0.612715 0.000000 0.500000
O O4 0.125012 0.250000 0.750000
O O5 0.250000 0.250000 0.813557
O O6 0.124290 0.310516 0.850763
O O7 0.133040 0.182948 0.850531
O O8 0.758451 0.630827 0.899349
O O9 0.891321 0.616227 0.944233
O O10 0.865950 0.562651 0.842361
O O11 0.750000 0.000000 0.750000
O O12 0.830167 0.937451 0.833819
O O13 0.900811 0.000000 0.752320
O O14 0.500000 0.941727 0.000000
O O15 0.370955 0.000000 0.000000
O O16 0.500000 0.000000 0.163332
#
# Coordination Sequence:
#
# PCOD8285564 Si02
#       7
#    16  32  32  16  32  16  16
#     4  11  25  44  63  90 127 167 217 275 327 372
#     4   9  20  37  62  94 130 165 207 267 323 380
#     4  11  21  38  63  92 126 163 211 259 315 391
#     4  12  22  37  64  98 124 163 223 274 313 380
#     4  11  22  40  68  94 125 168 222 270 319 375
#     4  11  23  38  59  88 128 168 206 260 332 389
#     4  12  24  37  60  94 133 165 202 263 330 384
#
# _framework density 19.807161000000001
#
# number of rings (size 3 to 8) (size 9 to 14) (size 15 to 20)
#    0.000    1.200    4.000    2.400    2.800    2.400 
#    0.000    6.000    0.000    4.200    0.000    0.000 
#    0.000    0.000    0.000    0.000    0.000    0.000 
#
# Total GULP energy -496007.941967 kJ/mol
# GULP energy per Si atom -12400.198549 kJ/mol
# Density = 1.976208 g / cm^3
# Si number density = 19.807161 Si / 1000 Ang^3
#
#
#
# Elastic Constant Matrix: (Units=GPa)
#
#
# Indices 1 2 3 4 5 6 
#
# 1 55.8114 30.7326 36.6266 0.0000 0.0000 0.0000
# 2 30.7326 187.6092 97.6952 0.0000 0.0000 0.0000
# 3 36.6266 97.6952 191.9847 0.0000 0.0000 0.0000
# 4 0.0000 0.0000 0.0000 42.6958 0.0000 0.0000
# 5 0.0000 0.0000 0.0000 0.0000 -8.7274 0.0000
# 6 0.0000 0.0000 0.0000 0.0000 0.0000 -7.7753
#
#
#
# Elastic Compliance Matrix: (Units=1/GPa)
#
#
# Indices 1 2 3 4 5 6 
#
# 1 0.020937 -0.001836 -0.003060 0.000000 0.000000 0.000000
# 2 -0.001836 0.007413 -0.003422 0.000000 0.000000 0.000000
# 3 -0.003060 -0.003422 0.007534 0.000000 0.000000 0.000000
# 4 0.000000 0.000000 0.000000 0.023421 0.000000 0.000000
# 5 0.000000 0.000000 0.000000 0.000000 -0.114581 0.000000
# 6 0.000000 0.000000 0.000000 0.000000 0.000000 -0.128612
#
#
# Mechanical properties :
#
#
# Convention : Reuss Voigt Hill
#
# Bulk Modulus (GPa) = 51.95515 85.05713 68.50614
# Shear Modulus (GPa) = -31.08738 23.26201 -3.91269
#
# Velocity S-wave (km/s) = -3.96599 3.43071 -1.40701
# Velocity P-wave (km/s) = 2.30549 7.66347 5.65880
#
# Compressibility (1/GPa) = 0.01924737
#
# Stress axis : x y z
#
# Youngs Moduli (GPa) = 47.76300 134.89907 132.73506
#
# Poissons Ratio (x) = 0.24772 0.40615
# Poissons Ratio (y) = 0.08771 0.45421
# Poissons Ratio (z) = 0.14615 0.46161
#
# Static dielectric constant tensor:
#      x y z
#    x 3.411440 0.000000 0.000000 
#    y 0.000000 3.924140 0.000000 
#    z 0.000000 0.000000 3.762970 
# 
# 
# High freq. dielectric constant tensor:
#      x y z
#    x 1.746920 0.000000 0.000000 
#    y 0.000000 1.781990 0.000000 
#    z 0.000000 0.000000 1.790860 
# 
# From -- ./inp_files/24687.got.cif
#   From: 2010.03.12/outbox.cif.g09.slc.cpg/sg69_13_cif.got.tgz:24687.got - 2010.04.10 23:52:46.
