data_PCOD8285939
_publ_section_title
;
Structure prediction by ZEFSAII (Michael W. Deem and Ramdas Pophale) SiO2 
 PCOD8285939
Probable space group: F D D D
;
_chemical_formula_sum "Si O2"
_cell_formula_units_Z 208
_cell_length_a 30.621214
_cell_length_b 18.932885
_cell_length_c 18.634477
_cell_angle_alpha 90.000000
_cell_angle_beta 90.000000
_cell_angle_gamma 90.000000
_cell_volume 10803.299341
_symmetry_space_group_name_H-M "F D D D"
_symmetry_group_IT_number 70
_space_group.IT_coordinate_system_code '2'
_symmetry_cell_setting 'orthorhombic'
loop_
_space_group_symop_operation_xyz
x,y,z
1/4-x,1/4-y,z
x,1/4-y,1/4-z
1/4-x,y,1/4-z
-x,-y,-z
3/4+x,3/4+y,-z
-x,3/4+y,3/4+z
3/4+x,-y,3/4+z
x,1/2+y,1/2+z
1/4-x,3/4-y,1/2+z
x,3/4-y,3/4-z
1/4-x,1/2+y,3/4-z
-x,1/2-y,1/2-z
3/4+x,1/4+y,1/2-z
-x,1/4+y,1/4+z
3/4+x,1/2-y,1/4+z
1/2+x,y,1/2+z
3/4-x,1/4-y,1/2+z
1/2+x,1/4-y,3/4-z
3/4-x,y,3/4-z
1/2-x,-y,1/2-z
1/4+x,3/4+y,1/2-z
1/2-x,3/4+y,1/4+z
1/4+x,-y,1/4+z
1/2+x,1/2+y,z
3/4-x,3/4-y,z
1/2+x,3/4-y,1/4-z
3/4-x,1/2+y,1/4-z
1/2-x,1/2-y,-z
1/4+x,1/4+y,-z
1/2-x,1/4+y,3/4+z
1/4+x,1/2-y,3/4+z
loop_
_atom_site_type_symbol
_atom_site_label
_atom_site_fract_x
_atom_site_fract_y
_atom_site_fract_z
Si Si1 0.874205 0.139875 0.239840
Si Si2 0.458961 0.577295 0.933000
Si Si3 0.787954 0.669491 0.447076
Si Si4 0.043567 0.667358 0.198942
Si Si5 0.875000 0.875000 0.543355
Si Si6 0.101216 0.980834 0.863270
Si Si7 0.993850 0.555444 0.585638
O O1 0.907748 0.163687 0.301429
O O2 0.827713 0.127906 0.275160
O O3 0.869763 0.199979 0.178621
O O4 0.892781 0.067494 0.206606
O O5 0.476421 0.637930 0.879443
O O6 0.467178 0.499663 0.899988
O O7 0.488923 0.579687 0.003512
O O8 0.802494 0.750133 0.434248
O O9 0.750104 0.660605 0.504932
O O10 0.037672 0.625000 0.125000
O O11 0.083456 0.634564 0.242571
O O12 0.882346 0.808954 0.595792
O O13 0.050738 0.979067 0.885120
O O14 0.008587 0.625000 0.625000
#
# Coordination Sequence:
#
# PCOD8285939 Si02
#       7
#    32  32  32  32  16  32  32
#     4  10  20  39  64  87 121 172 212 250 317 388
#     4  10  21  35  63  95 116 162 215 257 314 380
#     4  11  24  42  60  88 129 166 212 265 322 388
#     4  11  27  40  60  91 127 168 213 270 324 379
#     4  12  23  40  64  98 127 160 216 270 313 380
#     4  10  20  37  65  90 122 170 205 255 319 378
#     4  10  19  39  63  93 128 159 210 266 317 384
#
# _framework density 19.253377
#
# number of rings (size 3 to 8) (size 9 to 14) (size 15 to 20)
#    0.000    1.538    4.615    1.615    4.308    2.462 
#    0.000    4.615    0.000    0.923    0.000    0.000 
#    0.000    0.000    0.000    0.000    0.000    0.000 
#
# Total GULP energy -644859.646156 kJ/mol
# GULP energy per Si atom -12401.147041 kJ/mol
# Density = 1.920956 g / cm^3
# Si number density = 19.253377 Si / 1000 Ang^3
#
#
#
# Elastic Constant Matrix: (Units=GPa)
#
#
# Indices 1 2 3 4 5 6 
#
# 1 80.7098 56.0018 29.6326 0.0000 0.0000 0.0000
# 2 56.0018 146.7764 65.6246 0.0000 0.0000 0.0000
# 3 29.6326 65.6246 91.0095 0.0000 0.0000 0.0000
# 4 0.0000 0.0000 0.0000 32.8883 0.0000 0.0000
# 5 0.0000 0.0000 0.0000 0.0000 72.7132 0.0000
# 6 0.0000 0.0000 0.0000 0.0000 0.0000 33.4149
#
#
#
# Elastic Compliance Matrix: (Units=1/GPa)
#
#
# Indices 1 2 3 4 5 6 
#
# 1 0.016949 -0.005902 -0.001263 0.000000 0.000000 0.000000
# 2 -0.005902 0.012110 -0.006810 0.000000 0.000000 0.000000
# 3 -0.001263 -0.006810 0.016310 0.000000 0.000000 0.000000
# 4 0.000000 0.000000 0.000000 0.030406 0.000000 0.000000
# 5 0.000000 0.000000 0.000000 0.000000 0.013753 0.000000
# 6 0.000000 0.000000 0.000000 0.000000 0.000000 0.029927
#
#
# Mechanical properties :
#
#
# Convention : Reuss Voigt Hill
#
# Bulk Modulus (GPa) = 57.41128 69.00152 63.20640
# Shear Modulus (GPa) = 32.63469 38.95239 35.79354
#
# Velocity S-wave (km/s) = 4.12152 4.50282 4.31638
# Velocity P-wave (km/s) = 7.24795 7.93412 7.59878
#
# Compressibility (1/GPa) = 0.01741818
#
# Stress axis : x y z
#
# Youngs Moduli (GPa) = 59.00043 82.57586 61.31271
#
# Poissons Ratio (x) = 0.48739 0.07741
# Poissons Ratio (y) = 0.34824 0.41757
# Poissons Ratio (z) = 0.07449 0.56238
#
# Static dielectric constant tensor:
#      x y z
#    x 3.430960 0.000000 0.000000 
#    y 0.000000 3.745110 0.000000 
#    z 0.000000 0.000000 3.677100 
# 
# 
# High freq. dielectric constant tensor:
#      x y z
#    x 1.741240 0.000000 0.000000 
#    y 0.000000 1.755480 0.000000 
#    z 0.000000 0.000000 1.758120 
# 
# From -- ./inp_files/47717.got.cif
#   From: 2010.03.12/outbox.cif.g09.slc.cpg/sg70_24_cif.got.tgz:47717.got - 2010.04.16 13:46:32.
