data_PCOD8285622
_publ_section_title
;
Structure prediction by ZEFSAII (Michael W. Deem and Ramdas Pophale) SiO2 
 PCOD8285622
Probable space group: F M M M
;
_chemical_formula_sum "Si O2"
_cell_formula_units_Z 160
_cell_length_a 20.411871
_cell_length_b 24.032045
_cell_length_c 16.294407
_cell_angle_alpha 90.000000
_cell_angle_beta 90.000000
_cell_angle_gamma 90.000000
_cell_volume 7993.042155
_symmetry_space_group_name_H-M "F M M M"
_symmetry_group_IT_number 69
_symmetry_cell_setting 'orthorhombic'
loop_
_space_group_symop_operation_xyz
x,y,z
-x,-y,z
x,-y,-z
-x,y,-z
-x,-y,-z
x,y,-z
-x,y,z
x,-y,z
x,1/2+y,1/2+z
-x,1/2-y,1/2+z
x,1/2-y,1/2-z
-x,1/2+y,1/2-z
-x,1/2-y,1/2-z
x,1/2+y,1/2-z
-x,1/2+y,1/2+z
x,1/2-y,1/2+z
1/2+x,y,1/2+z
1/2-x,-y,1/2+z
1/2+x,-y,1/2-z
1/2-x,y,1/2-z
1/2-x,-y,1/2-z
1/2+x,y,1/2-z
1/2-x,y,1/2+z
1/2+x,-y,1/2+z
1/2+x,1/2+y,z
1/2-x,1/2-y,z
1/2+x,1/2-y,-z
1/2-x,1/2+y,-z
1/2-x,1/2-y,-z
1/2+x,1/2+y,-z
1/2-x,1/2+y,z
1/2+x,1/2-y,z
loop_
_atom_site_type_symbol
_atom_site_label
_atom_site_fract_x
_atom_site_fract_y
_atom_site_fract_z
Si Si1 0.000000 0.327973 0.092836
Si Si2 0.380887 0.866392 0.349499
Si Si3 0.748373 0.312593 0.347207
Si Si4 0.075439 0.000000 0.596675
Si Si5 0.624487 0.385576 0.336549
Si Si6 0.577104 0.561469 0.000000
Si Si7 0.500000 0.283326 0.165571
O O1 0.062037 0.348894 0.142624
O O2 0.000000 0.261107 0.091502
O O3 0.000000 0.351387 0.000000
O O4 0.313387 0.840839 0.381844
O O5 0.370495 0.894894 0.261081
O O6 0.400139 0.911233 0.416080
O O7 0.435054 0.819059 0.342296
O O8 0.750000 0.308007 0.250000
O O9 0.750000 0.250000 0.384544
O O10 0.686385 0.351019 0.373019
O O11 0.116942 0.946449 0.624474
O O12 0.071179 0.000000 0.500000
O O13 0.000000 0.000000 0.631861
O O14 0.606853 0.500000 0.000000
O O15 0.500000 0.561377 0.000000
O O16 0.500000 0.250000 0.250000
#
# Coordination Sequence:
#
# PCOD8285622 Si02
#       7
#    16  32  32  16  32  16  16
#     4  12  24  37  63  96 132 163 209 268 332 392
#     4  11  23  43  63  95 130 166 225 264 323 385
#     4   9  20  40  67  94 131 171 211 260 321 400
#     4  11  24  42  67  95 133 164 213 281 337 390
#     4  11  22  42  67  96 126 173 214 261 331 402
#     4  11  26  46  65  86 124 171 224 283 315 365
#     4  12  22  38  66  98 125 168 214 273 329 392
#
# _framework density 20.017410000000002
#
# number of rings (size 3 to 8) (size 9 to 14) (size 15 to 20)
#    0.000    1.200    4.000    1.800    5.600    0.000 
#    5.400    2.000    0.000    0.000    0.000    0.000 
#    0.000    0.000    0.000    0.000    0.000    0.000 
#
# Total GULP energy -495967.753195 kJ/mol
# GULP energy per Si atom -12399.193830 kJ/mol
# Density = 1.997185 g / cm^3
# Si number density = 20.017410 Si / 1000 Ang^3
#
#
#
# Elastic Constant Matrix: (Units=GPa)
#
#
# Indices 1 2 3 4 5 6 
#
# 1 164.8008 81.1239 28.1377 0.0000 0.0000 0.0000
# 2 81.1239 176.7520 47.6873 0.0000 0.0000 0.0000
# 3 28.1377 47.6873 90.3028 0.0000 0.0000 0.0000
# 4 0.0000 0.0000 0.0000 33.8524 0.0000 0.0000
# 5 0.0000 0.0000 0.0000 0.0000 33.9232 0.0000
# 6 0.0000 0.0000 0.0000 0.0000 0.0000 32.8043
#
#
#
# Elastic Compliance Matrix: (Units=1/GPa)
#
#
# Indices 1 2 3 4 5 6 
#
# 1 0.007870 -0.003441 -0.000635 0.000000 0.000000 0.000000
# 2 -0.003441 0.008102 -0.003206 0.000000 0.000000 0.000000
# 3 -0.000635 -0.003206 0.012965 0.000000 0.000000 0.000000
# 4 0.000000 0.000000 0.000000 0.029540 0.000000 0.000000
# 5 0.000000 0.000000 0.000000 0.000000 0.029478 0.000000
# 6 0.000000 0.000000 0.000000 0.000000 0.000000 0.030484
#
#
# Mechanical properties :
#
#
# Convention : Reuss Voigt Hill
#
# Bulk Modulus (GPa) = 69.57839 82.86150 76.21995
# Shear Modulus (GPa) = 36.28584 38.44309 37.36446
#
# Velocity S-wave (km/s) = 4.26222 4.38709 4.32510
# Velocity P-wave (km/s) = 7.68482 8.19430 7.94364
#
# Compressibility (1/GPa) = 0.01437228
#
# Stress axis : x y z
#
# Youngs Moduli (GPa) = 127.06283 123.42757 77.13063
#
# Poissons Ratio (x) = 0.42468 0.04900
# Poissons Ratio (y) = 0.43719 0.24731
# Poissons Ratio (z) = 0.08072 0.39575
#
# Static dielectric constant tensor:
#      x y z
#    x 5.179090 0.000000 0.000000 
#    y 0.000000 3.883830 0.000000 
#    z 0.000000 0.000000 3.520440 
# 
# 
# High freq. dielectric constant tensor:
#      x y z
#    x 1.789740 0.000000 0.000000 
#    y 0.000000 1.788750 0.000000 
#    z 0.000000 0.000000 1.772600 
# 
# From -- ./inp_files/24686.got.cif
#   From: 2010.03.12/outbox.cif.g09.slc.cpg/sg69_13_cif.got.tgz:24686.got - 2010.04.10 23:52:46.
