data_PCOD8285763
_publ_section_title
;
Structure prediction by ZEFSAII (Michael W. Deem and Ramdas Pophale) SiO2 
 PCOD8285763
Probable space group: F D D D
;
_chemical_formula_sum "Si O2"
_cell_formula_units_Z 176
_cell_length_a 26.363644
_cell_length_b 21.033724
_cell_length_c 18.730674
_cell_angle_alpha 90.000000
_cell_angle_beta 90.000000
_cell_angle_gamma 90.000000
_cell_volume 10386.638454
_symmetry_space_group_name_H-M "F D D D"
_symmetry_group_IT_number 70
_space_group.IT_coordinate_system_code '2'
_symmetry_cell_setting 'orthorhombic'
loop_
_space_group_symop_operation_xyz
x,y,z
1/4-x,1/4-y,z
x,1/4-y,1/4-z
1/4-x,y,1/4-z
-x,-y,-z
3/4+x,3/4+y,-z
-x,3/4+y,3/4+z
3/4+x,-y,3/4+z
x,1/2+y,1/2+z
1/4-x,3/4-y,1/2+z
x,3/4-y,3/4-z
1/4-x,1/2+y,3/4-z
-x,1/2-y,1/2-z
3/4+x,1/4+y,1/2-z
-x,1/4+y,1/4+z
3/4+x,1/2-y,1/4+z
1/2+x,y,1/2+z
3/4-x,1/4-y,1/2+z
1/2+x,1/4-y,3/4-z
3/4-x,y,3/4-z
1/2-x,-y,1/2-z
1/4+x,3/4+y,1/2-z
1/2-x,3/4+y,1/4+z
1/4+x,-y,1/4+z
1/2+x,1/2+y,z
3/4-x,3/4-y,z
1/2+x,3/4-y,1/4-z
3/4-x,1/2+y,1/4-z
1/2-x,1/2-y,-z
1/4+x,1/4+y,-z
1/2-x,1/4+y,3/4+z
1/4+x,1/2-y,3/4+z
loop_
_atom_site_type_symbol
_atom_site_label
_atom_site_fract_x
_atom_site_fract_y
_atom_site_fract_z
Si Si1 0.031783 0.616665 0.290161
Si Si2 0.838417 0.286611 0.941401
Si Si3 0.675906 0.270076 0.274677
Si Si4 0.353481 0.125000 0.125000
Si Si5 0.744934 0.465302 0.604881
Si Si6 0.949556 0.665946 0.061812
O O1 0.069536 0.650958 0.233941
O O2 0.054412 0.547227 0.304145
O O3 0.024504 0.654364 0.363997
O O4 0.974802 0.607877 0.260852
O O5 0.875000 0.306472 0.875000
O O6 0.788891 0.248676 0.915851
O O7 0.868704 0.240276 0.995654
O O8 0.679591 0.319233 0.340295
O O9 0.709521 0.301309 0.212126
O O10 0.388913 0.154626 0.061834
O O11 0.789554 0.510533 0.577126
O O12 0.975801 0.625000 0.125000
#
# Coordination Sequence:
#
# PCOD8285763 Si02
#       6
#    32  32  32  16  32  32
#     4  11  19  30  46  71  97 125 155 183 221 275
#     4  10  18  28  45  73 105 125 142 176 224 283
#     4  10  22  30  46  67  89 124 159 199 224 267
#     4  10  18  36  46  62  91 122 155 194 240 262
#     4  10  19  31  46  70  96 125 154 181 224 282
#     4   9  18  28  48  64  94 132 145 165 225 286
#
# _framework density 16.944846999999999
#
# number of rings (size 3 to 8) (size 9 to 14) (size 15 to 20)
#    0.545    1.455    1.818    3.273    0.000    3.636 
#    0.000    0.909    0.000    0.000    0.000    0.000 
#    0.000    0.000    0.000    0.000    0.000    0.000 
#
# Total GULP energy -545326.152245 kJ/mol
# GULP energy per Si atom -12393.776187 kJ/mol
# Density = 1.690628 g / cm^3
# Si number density = 16.944847 Si / 1000 Ang^3
#
#
#
# Elastic Constant Matrix: (Units=GPa)
#
#
# Indices 1 2 3 4 5 6 
#
# 1 46.2589 30.1820 20.8465 0.0000 0.0000 0.0000
# 2 30.1820 100.6722 57.4736 0.0000 0.0000 0.0000
# 3 20.8465 57.4736 58.6612 0.0000 0.0000 0.0000
# 4 0.0000 0.0000 0.0000 34.9395 0.0000 0.0000
# 5 0.0000 0.0000 0.0000 0.0000 15.0198 0.0000
# 6 0.0000 0.0000 0.0000 0.0000 0.0000 12.6759
#
#
#
# Elastic Compliance Matrix: (Units=1/GPa)
#
#
# Indices 1 2 3 4 5 6 
#
# 1 0.027245 -0.005993 -0.003811 0.000000 0.000000 0.000000
# 2 -0.005993 0.023860 -0.021247 0.000000 0.000000 0.000000
# 3 -0.003811 -0.021247 0.039218 0.000000 0.000000 0.000000
# 4 0.000000 0.000000 0.000000 0.028621 0.000000 0.000000
# 5 0.000000 0.000000 0.000000 0.000000 0.066579 0.000000
# 6 0.000000 0.000000 0.000000 0.000000 0.000000 0.078890
#
#
# Mechanical properties :
#
#
# Convention : Reuss Voigt Hill
#
# Bulk Modulus (GPa) = 35.43355 46.95519 41.19437
# Shear Modulus (GPa) = 14.88447 18.99973 16.94210
#
# Velocity S-wave (km/s) = 2.96701 3.35217 3.16545
# Velocity P-wave (km/s) = 5.71787 6.53861 6.14197
#
# Compressibility (1/GPa) = 0.02822184
#
# Stress axis : x y z
#
# Youngs Moduli (GPa) = 36.70441 41.91142 25.49824
#
# Poissons Ratio (x) = 0.25116 0.09717
# Poissons Ratio (y) = 0.21995 0.54177
# Poissons Ratio (z) = 0.13987 0.89050
#
# Static dielectric constant tensor:
#      x y z
#    x 2.993200 0.000000 0.000000 
#    y 0.000000 3.003970 0.000000 
#    z 0.000000 0.000000 2.897740 
# 
# 
# High freq. dielectric constant tensor:
#      x y z
#    x 1.640630 0.000000 0.000000 
#    y 0.000000 1.642150 0.000000 
#    z 0.000000 0.000000 1.617770 
# 
# From -- ./inp_files/29985.got.cif
#   From: 2010.03.12/outbox.cif.g09.slc.cpg/sg70_15_cif.got.tgz:29985.got - 2010.04.16 13:46:32.
