data_PCOD8285712
_publ_section_title
;
Structure prediction by ZEFSAII (Michael W. Deem and Ramdas Pophale) SiO2 
 PCOD8285712
Probable space group: F M M M
;
_chemical_formula_sum "Si O2"
_cell_formula_units_Z 40
_cell_length_a 30.000000
_cell_length_b 30.000000
_cell_length_c 9.000000
_cell_angle_alpha 90.000000
_cell_angle_beta 90.000000
_cell_angle_gamma 90.000000
_cell_volume 8100.000000
_symmetry_space_group_name_H-M "F M M M"
_symmetry_group_IT_number 69
_symmetry_cell_setting 'orthorhombic'
loop_
_space_group_symop_operation_xyz
x,y,z
-x,-y,z
x,-y,-z
-x,y,-z
-x,-y,-z
x,y,-z
-x,y,z
x,-y,z
x,1/2+y,1/2+z
-x,1/2-y,1/2+z
x,1/2-y,1/2-z
-x,1/2+y,1/2-z
-x,1/2-y,1/2-z
x,1/2+y,1/2-z
-x,1/2+y,1/2+z
x,1/2-y,1/2+z
1/2+x,y,1/2+z
1/2-x,-y,1/2+z
1/2+x,-y,1/2-z
1/2-x,y,1/2-z
1/2-x,-y,1/2-z
1/2+x,y,1/2-z
1/2-x,y,1/2+z
1/2+x,-y,1/2+z
1/2+x,1/2+y,z
1/2-x,1/2-y,z
1/2+x,1/2-y,-z
1/2-x,1/2+y,-z
1/2-x,1/2-y,-z
1/2+x,1/2+y,-z
1/2-x,1/2+y,z
1/2+x,1/2-y,z
loop_
_atom_site_type_symbol
_atom_site_label
_atom_site_fract_x
_atom_site_fract_y
_atom_site_fract_z
Si Si1 0.294607 0.108561 0.826977
Si Si2 0.406878 0.834873 0.326380
Si Si3 0.947631 0.000000 0.823430
Si Si4 0.828304 0.206024 0.677565
Si Si5 0.000000 0.294484 0.664583
Si Si6 0.611630 0.925096 0.826097
O O1 0.250000 0.090548 0.750000
O O2 0.303729 0.159904 0.776731
O O3 0.335079 0.074071 0.788201
O O4 0.285879 0.108464 0.000000
O O5 0.395342 0.844521 0.500000
O O6 0.376281 0.795534 0.259962
O O7 0.457810 0.824177 0.301475
O O8 0.401902 0.876025 0.217101
O O9 0.919713 0.957881 0.766552
O O10 0.000000 0.000000 0.769284
O O11 0.947091 0.000000 0.000000
O O12 0.832594 0.211017 0.500000
O O13 0.804315 0.250000 0.750000
O O14 0.000000 0.250000 0.750000
O O15 0.000000 0.276806 0.500000
O O16 0.603741 0.934367 0.000000
#
# Coordination Sequence:
#
# PCOD8285712 Si02
#       6
#    32  32  16  32  16  32
#     4   9  20  37  58  84 116 152 195 242 291 349
#     4  10  20  35  54  77 109 150 191 239 292 346
#     4  11  25  43  66  95 124 153 190 237 284 343
#     4  10  20  34  51  77 111 150 197 248 295 346
#     4  10  22  34  48  73 106 143 190 240 283 332
#     4  10  22  41  62  89 120 152 190 236 288 349
#
# _framework density 4.9382720000000004
#
# number of rings (size 3 to 8) (size 9 to 14) (size 15 to 20)
#    0.000    2.100    0.000    3.900    1.400    9.200 
#    0.000    2.500    0.000    0.000    0.000    0.000 
#    0.000    0.000    0.000    0.000    0.000    0.000 
#
# Total GULP energy -495608.078837 kJ/mol
# GULP energy per Si atom -12390.201971 kJ/mol
# Density = 0.492703 g / cm^3
# Si number density = 4.938272 Si / 1000 Ang^3
#
#
#
# Elastic Constant Matrix: (Units=GPa)
#
#
# Indices 1 2 3 4 5 6 
#
# 1 141.0179 32.4930 58.4483 0.0172 -0.0145 0.0062
# 2 32.4930 62.6811 18.2796 -0.0232 0.0086 0.0049
# 3 58.4483 18.2796 67.3528 -0.0566 0.0664 0.0388
# 4 0.0172 -0.0232 -0.0566 33.7769 -0.0064 0.0028
# 5 -0.0145 0.0086 0.0664 -0.0064 34.0411 -0.0199
# 6 0.0062 0.0049 0.0388 0.0028 -0.0199 22.3851
#
#
#
# Elastic Compliance Matrix: (Units=1/GPa)
#
#
# Indices 1 2 3 4 5 6 
#
# 1 0.011695 -0.003370 -0.009235 -0.000024 0.000024 0.000014
# 2 -0.003370 0.018296 -0.002041 0.000011 -0.000002 0.000000
# 3 -0.009235 -0.002041 0.023415 0.000043 -0.000049 -0.000038
# 4 -0.000024 0.000011 0.000043 0.029606 0.000005 -0.000004
# 5 0.000024 -0.000002 -0.000049 0.000005 0.029376 0.000026
# 6 0.000014 0.000000 -0.000038 -0.000004 0.000026 0.044673
#
#
# Mechanical properties :
#
#
# Convention : Reuss Voigt Hill
#
# Bulk Modulus (GPa) = 41.46796 54.38818 47.92807
# Shear Modulus (GPa) = 25.72142 28.82936 27.27539
#
# Velocity S-wave (km/s) = 3.61244 3.82447 3.71997
# Velocity P-wave (km/s) = 6.19987 6.86264 6.53966
#
# Compressibility (1/GPa) = 0.02411500
#
# Stress axis : x y z
#
# Youngs Moduli (GPa) = 85.50522 54.65725 42.70768
#
# Poissons Ratio (x) = 0.18417 0.39439
# Poissons Ratio (y) = 0.28812 0.08718
# Poissons Ratio (z) = 0.78960 0.11158
#
# Static dielectric constant tensor:
#      x y z
#    x 6.689290 -0.002310 0.001550 
#    y -0.002310 3.791730 -0.000070 
#    z 0.001550 -0.000070 3.642880 
# 
# 
# High freq. dielectric constant tensor:
#      x y z
#    x 1.777390 0.000010 0.000010 
#    y 0.000010 1.757650 -0.000010 
#    z 0.000010 -0.000010 1.780300 
# 
# From -- ./inp_files/5725.got.cif
#   From: 2010.03.12/outbox.ucp.g09.slc.cvg/sg69_3_cif.got.tgz:5725.got - 2010.05.04 19:54:48.
