data_PCOD8285941
_publ_section_title
;
Structure prediction by ZEFSAII (Michael W. Deem and Ramdas Pophale) SiO2 
 PCOD8285941
Probable space group: F D D D
;
_chemical_formula_sum "Si O2"
_cell_formula_units_Z 192
_cell_length_a 22.359774
_cell_length_b 23.001506
_cell_length_c 19.541564
_cell_angle_alpha 90.000000
_cell_angle_beta 90.000000
_cell_angle_gamma 90.000000
_cell_volume 10050.391996
_symmetry_space_group_name_H-M "F D D D"
_symmetry_group_IT_number 70
_space_group.IT_coordinate_system_code '2'
_symmetry_cell_setting 'orthorhombic'
loop_
_space_group_symop_operation_xyz
x,y,z
1/4-x,1/4-y,z
x,1/4-y,1/4-z
1/4-x,y,1/4-z
-x,-y,-z
3/4+x,3/4+y,-z
-x,3/4+y,3/4+z
3/4+x,-y,3/4+z
x,1/2+y,1/2+z
1/4-x,3/4-y,1/2+z
x,3/4-y,3/4-z
1/4-x,1/2+y,3/4-z
-x,1/2-y,1/2-z
3/4+x,1/4+y,1/2-z
-x,1/4+y,1/4+z
3/4+x,1/2-y,1/4+z
1/2+x,y,1/2+z
3/4-x,1/4-y,1/2+z
1/2+x,1/4-y,3/4-z
3/4-x,y,3/4-z
1/2-x,-y,1/2-z
1/4+x,3/4+y,1/2-z
1/2-x,3/4+y,1/4+z
1/4+x,-y,1/4+z
1/2+x,1/2+y,z
3/4-x,3/4-y,z
1/2+x,3/4-y,1/4-z
3/4-x,1/2+y,1/4-z
1/2-x,1/2-y,-z
1/4+x,1/4+y,-z
1/2-x,1/4+y,3/4+z
1/4+x,1/2-y,3/4+z
loop_
_atom_site_type_symbol
_atom_site_label
_atom_site_fract_x
_atom_site_fract_y
_atom_site_fract_z
Si Si1 0.375000 0.375000 0.763072
Si Si2 0.287023 0.693567 0.320681
Si Si3 0.253302 0.772830 0.822448
Si Si4 0.618838 0.893359 0.233399
Si Si5 0.510638 0.141933 0.426261
Si Si6 0.625000 0.721052 0.125000
Si Si7 0.829066 0.125000 0.125000
Si Si8 0.125000 0.760487 0.125000
O O1 0.433110 0.369167 0.717052
O O2 0.375115 0.316957 0.807083
O O3 0.247371 0.721924 0.260193
O O4 0.346584 0.663686 0.291035
O O5 0.244864 0.647340 0.358577
O O6 0.313196 0.742100 0.372286
O O7 0.229983 0.709152 0.844657
O O8 0.212124 0.821675 0.854058
O O9 0.320206 0.780646 0.852548
O O10 0.548466 0.885253 0.222415
O O11 0.629821 0.900124 0.314275
O O12 0.642821 0.948365 0.189516
#
# Coordination Sequence:
#
# PCOD8285941 Si02
#       8
#    16  32  32  32  32  16  16  16
#     4  11  26  38  56  94 134 155 198 274 330 357
#     4  11  19  41  68  87 116 171 214 254 311 387
#     4  10  22  41  63  94 129 158 219 260 317 384
#     4  10  19  39  66  87 115 170 215 247 307 381
#     4  11  21  42  62  89 125 167 211 258 317 389
#     4  11  21  40  59  87 126 162 202 260 324 373
#     4  10  24  37  62 101 122 158 220 274 306 378
#     4  10  19  41  65  87 128 176 200 262 318 372
#
# _framework density 19.103732999999998
#
# number of rings (size 3 to 8) (size 9 to 14) (size 15 to 20)
#    0.000    1.500    6.667    0.000    0.000    3.000 
#    6.000    0.000    0.000    0.000    0.000    0.000 
#    0.000    0.000    0.000    0.000    0.000    0.000 
#
# Total GULP energy -595159.131239 kJ/mol
# GULP energy per Si atom -12399.148567 kJ/mol
# Density = 1.906025 g / cm^3
# Si number density = 19.103733 Si / 1000 Ang^3
#
#
#
# Elastic Constant Matrix: (Units=GPa)
#
#
# Indices 1 2 3 4 5 6 
#
# 1 109.6274 30.2563 49.9595 0.0000 0.0000 0.0000
# 2 30.2563 95.7530 45.4052 0.0000 0.0000 0.0000
# 3 49.9595 45.4052 127.0465 0.0000 0.0000 0.0000
# 4 0.0000 0.0000 0.0000 22.3788 0.0000 0.0000
# 5 0.0000 0.0000 0.0000 0.0000 31.1085 0.0000
# 6 0.0000 0.0000 0.0000 0.0000 0.0000 13.6988
#
#
#
# Elastic Compliance Matrix: (Units=1/GPa)
#
#
# Indices 1 2 3 4 5 6 
#
# 1 0.011358 -0.001771 -0.003833 0.000000 0.000000 0.000000
# 2 -0.001771 0.012851 -0.003896 0.000000 0.000000 0.000000
# 3 -0.003833 -0.003896 0.010771 0.000000 0.000000 0.000000
# 4 0.000000 0.000000 0.000000 0.044685 0.000000 0.000000
# 5 0.000000 0.000000 0.000000 0.000000 0.032146 0.000000
# 6 0.000000 0.000000 0.000000 0.000000 0.000000 0.072999
#
#
# Mechanical properties :
#
#
# Convention : Reuss Voigt Hill
#
# Bulk Modulus (GPa) = 62.58584 64.85210 63.71897
# Shear Modulus (GPa) = 23.90785 27.22428 25.56606
#
# Velocity S-wave (km/s) = 3.54146 3.77911 3.66221
# Velocity P-wave (km/s) = 7.03951 7.28446 7.16303
#
# Compressibility (1/GPa) = 0.01597806
#
# Stress axis : x y z
#
# Youngs Moduli (GPa) = 88.04753 77.81655 92.84198
#
# Poissons Ratio (x) = 0.13782 0.35588
# Poissons Ratio (y) = 0.15594 0.36174
# Poissons Ratio (z) = 0.33751 0.30319
#
# Static dielectric constant tensor:
#      x y z
#    x 3.447310 0.000000 0.000000 
#    y 0.000000 3.586900 0.000000 
#    z 0.000000 0.000000 3.665900 
# 
# 
# High freq. dielectric constant tensor:
#      x y z
#    x 1.734160 0.000000 0.000000 
#    y 0.000000 1.748190 0.000000 
#    z 0.000000 0.000000 1.743400 
# 
# From -- ./inp_files/45039.got.cif
#   From: 2010.03.12/outbox.cif.g09.slc.cpg/sg70_23_cif.got.tgz:45039.got - 2010.04.16 13:46:32.
