data_PCOD8285078
_publ_section_title
;
Structure prediction by ZEFSAII (Michael W. Deem and Ramdas Pophale) SiO2 
 PCOD8285078
Probable space group: F M M M
;
_chemical_formula_sum "Si O2"
_cell_formula_units_Z 160
_cell_length_a 20.239539
_cell_length_b 24.523012
_cell_length_c 16.214379
_cell_angle_alpha 90.000000
_cell_angle_beta 90.000000
_cell_angle_gamma 90.000000
_cell_volume 8047.755009
_symmetry_space_group_name_H-M "F M M M"
_symmetry_group_IT_number 69
_symmetry_cell_setting 'orthorhombic'
loop_
_space_group_symop_operation_xyz
x,y,z
-x,-y,z
x,-y,-z
-x,y,-z
-x,-y,-z
x,y,-z
-x,y,z
x,-y,z
x,1/2+y,1/2+z
-x,1/2-y,1/2+z
x,1/2-y,1/2-z
-x,1/2+y,1/2-z
-x,1/2-y,1/2-z
x,1/2+y,1/2-z
-x,1/2+y,1/2+z
x,1/2-y,1/2+z
1/2+x,y,1/2+z
1/2-x,-y,1/2+z
1/2+x,-y,1/2-z
1/2-x,y,1/2-z
1/2-x,-y,1/2-z
1/2+x,y,1/2-z
1/2-x,y,1/2+z
1/2+x,-y,1/2+z
1/2+x,1/2+y,z
1/2-x,1/2-y,z
1/2+x,1/2-y,-z
1/2-x,1/2+y,-z
1/2-x,1/2-y,-z
1/2+x,1/2+y,-z
1/2-x,1/2+y,z
1/2+x,1/2-y,z
loop_
_atom_site_type_symbol
_atom_site_label
_atom_site_fract_x
_atom_site_fract_y
_atom_site_fract_z
Si Si1 0.778317 0.599296 0.903487
Si Si2 0.316342 0.500000 0.301059
Si Si3 0.923807 0.221558 0.837861
Si Si4 0.691206 0.215375 0.905840
Si Si5 0.574844 0.000000 0.664282
Si Si6 0.374844 0.610204 0.095697
O O1 0.818589 0.552747 0.858063
O O2 0.810600 0.654905 0.868107
O O3 0.700959 0.599258 0.880814
O O4 0.788667 0.589996 0.000000
O O5 0.250000 0.500000 0.250000
O O6 0.380461 0.500000 0.244868
O O7 0.909417 0.250000 0.750000
O O8 0.879142 0.255104 0.901629
O O9 0.903793 0.157761 0.844650
O O10 0.000000 0.228322 0.862593
O O11 0.750000 0.250000 0.862025
O O12 0.712460 0.207135 0.000000
O O13 0.586740 0.946186 0.609427
O O14 0.500000 0.000000 0.695340
O O15 0.382519 0.628181 0.000000
#
# Coordination Sequence:
#
# PCOD8285078 Si02
#       6
#    32  16  32  32  16  32
#     4  10  21  39  65  93 122 157 210 266 309 366
#     4  12  23  39  63  91 125 166 206 252 318 371
#     4  11  25  40  58  89 129 167 204 249 305 370
#     4  10  20  38  62  88 118 156 203 254 306 363
#     4  12  27  42  61  96 133 164 204 257 313 379
#     4  11  22  42  68  93 125 165 206 258 321 378
#
# _framework density 19.881321
#
# number of rings (size 3 to 8) (size 9 to 14) (size 15 to 20)
#    0.000    1.200    4.000    1.800    2.800    5.200 
#    0.000    0.000    0.000    2.400    0.000    0.000 
#    0.000    0.000    0.000    0.000    0.000    0.000 
#
# Total GULP energy -495977.888995 kJ/mol
# GULP energy per Si atom -12399.447225 kJ/mol
# Density = 1.983607 g / cm^3
# Si number density = 19.881321 Si / 1000 Ang^3
#
#
#
# Elastic Constant Matrix: (Units=GPa)
#
#
# Indices 1 2 3 4 5 6 
#
# 1 113.5360 44.8066 28.5780 0.0000 0.0000 0.0000
# 2 44.8066 178.6669 41.3913 0.0000 0.0000 0.0000
# 3 28.5780 41.3913 59.0641 0.0000 0.0000 0.0000
# 4 0.0000 0.0000 0.0000 30.5380 0.0000 0.0000
# 5 0.0000 0.0000 0.0000 0.0000 27.8446 0.0000
# 6 0.0000 0.0000 0.0000 0.0000 0.0000 23.7026
#
#
#
# Elastic Compliance Matrix: (Units=1/GPa)
#
#
# Indices 1 2 3 4 5 6 
#
# 1 0.010460 -0.001732 -0.003847 0.000000 0.000000 0.000000
# 2 -0.001732 0.006969 -0.004046 0.000000 0.000000 0.000000
# 3 -0.003847 -0.004046 0.021627 0.000000 0.000000 0.000000
# 4 0.000000 0.000000 0.000000 0.032746 0.000000 0.000000
# 5 0.000000 0.000000 0.000000 0.000000 0.035914 0.000000
# 6 0.000000 0.000000 0.000000 0.000000 0.000000 0.042189
#
#
# Mechanical properties :
#
#
# Convention : Reuss Voigt Hill
#
# Bulk Modulus (GPa) = 50.48897 64.53542 57.51220
# Shear Modulus (GPa) = 28.44855 32.18311 30.31583
#
# Velocity S-wave (km/s) = 3.78685 4.02775 3.90916
# Velocity P-wave (km/s) = 6.67612 7.35942 7.02609
#
# Compressibility (1/GPa) = 0.01980631
#
# Stress axis : x y z
#
# Youngs Moduli (GPa) = 95.60582 143.50233 46.23789
#
# Poissons Ratio (x) = 0.24852 0.17789
# Poissons Ratio (y) = 0.16557 0.18706
# Poissons Ratio (z) = 0.36782 0.58054
#
# Static dielectric constant tensor:
#      x y z
#    x 3.535380 0.000000 0.000000 
#    y 0.000000 4.000060 0.000000 
#    z 0.000000 0.000000 3.494890 
# 
# 
# High freq. dielectric constant tensor:
#      x y z
#    x 1.764350 0.000000 0.000000 
#    y 0.000000 1.799500 0.000000 
#    z 0.000000 0.000000 1.762730 
# 
# From -- ./inp_files/24938.got.cif
#   From: 2010.03.12/outbox.cif.g09.slc.cpg/sg69_13_cif.got.tgz:24938.got - 2010.04.10 23:52:46.
