data_PCOD8285397
_publ_section_title
;
Structure prediction by ZEFSAII (Michael W. Deem and Ramdas Pophale) SiO2 
 PCOD8285397
Probable space group: F M M M
;
_chemical_formula_sum "Si O2"
_cell_formula_units_Z 152
_cell_length_a 21.430279
_cell_length_b 24.800819
_cell_length_c 13.651252
_cell_angle_alpha 90.000000
_cell_angle_beta 90.000000
_cell_angle_gamma 90.000000
_cell_volume 7255.483047
_symmetry_space_group_name_H-M "F M M M"
_symmetry_group_IT_number 69
_symmetry_cell_setting 'orthorhombic'
loop_
_space_group_symop_operation_xyz
x,y,z
-x,-y,z
x,-y,-z
-x,y,-z
-x,-y,-z
x,y,-z
-x,y,z
x,-y,z
x,1/2+y,1/2+z
-x,1/2-y,1/2+z
x,1/2-y,1/2-z
-x,1/2+y,1/2-z
-x,1/2-y,1/2-z
x,1/2+y,1/2-z
-x,1/2+y,1/2+z
x,1/2-y,1/2+z
1/2+x,y,1/2+z
1/2-x,-y,1/2+z
1/2+x,-y,1/2-z
1/2-x,y,1/2-z
1/2-x,-y,1/2-z
1/2+x,y,1/2-z
1/2-x,y,1/2+z
1/2+x,-y,1/2+z
1/2+x,1/2+y,z
1/2-x,1/2-y,z
1/2+x,1/2-y,-z
1/2-x,1/2+y,-z
1/2-x,1/2-y,-z
1/2+x,1/2+y,-z
1/2-x,1/2+y,z
1/2+x,1/2-y,z
loop_
_atom_site_type_symbol
_atom_site_label
_atom_site_fract_x
_atom_site_fract_y
_atom_site_fract_z
Si Si1 0.186646 0.500000 0.884080
Si Si2 0.646276 0.213681 0.613431
Si Si3 0.928045 0.178821 0.610827
Si Si4 0.072778 0.000000 0.752401
Si Si5 0.117182 0.113947 0.785390
Si Si6 0.750000 0.083102 0.250000
Si Si7 0.750000 0.750000 0.750000
O O1 0.115227 0.500000 0.844990
O O2 0.224316 0.449403 0.843255
O O3 0.185905 0.500000 0.000000
O O4 0.664823 0.211798 0.500000
O O5 0.609918 0.268196 0.640945
O O6 0.600930 0.162212 0.638461
O O7 0.708387 0.212183 0.679605
O O8 0.912931 0.161151 0.500000
O O9 0.909012 0.128360 0.677977
O O10 0.000000 0.193096 0.624509
O O11 0.089951 0.945387 0.814332
O O12 0.000000 0.000000 0.724759
O O13 0.192104 0.116845 0.789268
#
# Coordination Sequence:
#
# PCOD8285397 Si02
#       7
#    16  32  32  16  32  16   8
#     4   9  19  39  62  83 118 164 210 266 314 361
#     4  11  24  40  65  97 128 166 211 261 322 387
#     4  10  22  40  63  93 125 163 213 265 323 389
#     4  10  23  39  62  94 128 171 220 260 309 378
#     4  11  21  40  61  88 127 171 206 263 318 371
#     4   9  21  36  54  86 120 153 211 250 304 380
#     4  12  20  44  64 104 136 162 202 272 326 382
#
# _framework density 20.949674000000002
#
# number of rings (size 3 to 8) (size 9 to 14) (size 15 to 20)
#    0.000    1.684    2.105    2.211    0.000    6.947 
#    0.000    0.526    0.000    0.632    0.000    0.000 
#    0.000    0.000    0.000    0.000    0.000    0.000 
#
# Total GULP energy -470951.185369 kJ/mol
# GULP energy per Si atom -12393.452247 kJ/mol
# Density = 2.090199 g / cm^3
# Si number density = 20.949674 Si / 1000 Ang^3
#
#
#
# Elastic Constant Matrix: (Units=GPa)
#
#
# Indices 1 2 3 4 5 6 
#
# 1 112.9991 22.6915 29.0587 0.0000 0.0000 0.0000
# 2 22.6915 136.4020 32.1297 0.0000 0.0000 0.0000
# 3 29.0587 32.1297 86.5023 0.0000 0.0000 0.0000
# 4 0.0000 0.0000 0.0000 58.7521 0.0000 0.0000
# 5 0.0000 0.0000 0.0000 0.0000 21.7155 0.0000
# 6 0.0000 0.0000 0.0000 0.0000 0.0000 15.9939
#
#
#
# Elastic Compliance Matrix: (Units=1/GPa)
#
#
# Indices 1 2 3 4 5 6 
#
# 1 0.009794 -0.000936 -0.002942 0.000000 0.000000 0.000000
# 2 -0.000936 0.008124 -0.002703 0.000000 0.000000 0.000000
# 3 -0.002942 -0.002703 0.013553 0.000000 0.000000 0.000000
# 4 0.000000 0.000000 0.000000 0.017021 0.000000 0.000000
# 5 0.000000 0.000000 0.000000 0.000000 0.046050 0.000000
# 6 0.000000 0.000000 0.000000 0.000000 0.000000 0.062524
#
#
# Mechanical properties :
#
#
# Convention : Reuss Voigt Hill
#
# Bulk Modulus (GPa) = 54.62208 55.96257 55.29232
# Shear Modulus (GPa) = 28.35578 36.09388 32.22483
#
# Velocity S-wave (km/s) = 3.68301 4.15527 3.92625
# Velocity P-wave (km/s) = 6.64949 7.05638 6.85595
#
# Compressibility (1/GPa) = 0.01830762
#
# Stress axis : x y z
#
# Youngs Moduli (GPa) = 102.10010 123.09676 73.78559
#
# Poissons Ratio (x) = 0.11525 0.21711
# Poissons Ratio (y) = 0.09559 0.19943
# Poissons Ratio (z) = 0.30042 0.33272
#
# Static dielectric constant tensor:
#      x y z
#    x 3.790710 0.000000 0.000000 
#    y 0.000000 3.966210 0.000000 
#    z 0.000000 0.000000 3.544930 
# 
# 
# High freq. dielectric constant tensor:
#      x y z
#    x 1.820220 0.000000 0.000000 
#    y 0.000000 1.838750 0.000000 
#    z 0.000000 0.000000 1.795120 
# 
# From -- ./inp_files/16841.got.cif
#   From: 2010.03.12/outbox.cif.g09.slc.cpg/sg69_9_cif.got.tgz:16841.got - 2010.04.10 23:52:46.
