data_PCOD8285027
_publ_section_title
;
Structure prediction by ZEFSAII (Michael W. Deem and Ramdas Pophale) SiO2 
 PCOD8285027
Probable space group: F M M M
;
_chemical_formula_sum "Si O2"
_cell_formula_units_Z 144
_cell_length_a 25.371915
_cell_length_b 27.620072
_cell_length_c 11.845003
_cell_angle_alpha 90.000000
_cell_angle_beta 90.000000
_cell_angle_gamma 90.000000
_cell_volume 8300.671543
_symmetry_space_group_name_H-M "F M M M"
_symmetry_group_IT_number 69
_symmetry_cell_setting 'orthorhombic'
loop_
_space_group_symop_operation_xyz
x,y,z
-x,-y,z
x,-y,-z
-x,y,-z
-x,-y,-z
x,y,-z
-x,y,z
x,-y,z
x,1/2+y,1/2+z
-x,1/2-y,1/2+z
x,1/2-y,1/2-z
-x,1/2+y,1/2-z
-x,1/2-y,1/2-z
x,1/2+y,1/2-z
-x,1/2+y,1/2+z
x,1/2-y,1/2+z
1/2+x,y,1/2+z
1/2-x,-y,1/2+z
1/2+x,-y,1/2-z
1/2-x,y,1/2-z
1/2-x,-y,1/2-z
1/2+x,y,1/2-z
1/2-x,y,1/2+z
1/2+x,-y,1/2+z
1/2+x,1/2+y,z
1/2-x,1/2-y,z
1/2+x,1/2-y,-z
1/2-x,1/2+y,-z
1/2-x,1/2-y,-z
1/2+x,1/2+y,-z
1/2-x,1/2+y,z
1/2+x,1/2-y,z
loop_
_atom_site_type_symbol
_atom_site_label
_atom_site_fract_x
_atom_site_fract_y
_atom_site_fract_z
Si Si1 0.397640 0.889568 0.366504
Si Si2 0.637068 0.055039 0.000000
Si Si3 0.438920 0.855391 0.000000
Si Si4 0.561716 0.694906 0.266937
Si Si5 0.000000 0.554237 0.365567
Si Si6 0.690198 0.055720 0.236157
O O1 0.395206 0.890126 0.500000
O O2 0.404488 0.834931 0.323905
O O3 0.447740 0.919717 0.318985
O O4 0.344464 0.912388 0.319964
O O5 0.673688 0.064145 0.107565
O O6 0.589557 0.092917 0.000000
O O7 0.614413 0.000000 0.000000
O O8 0.423526 0.823231 0.891958
O O9 0.500000 0.868348 0.000000
O O10 0.500000 0.688599 0.240753
O O11 0.579335 0.750000 0.250000
O O12 0.000000 0.500000 0.317513
O O13 0.000000 0.554815 0.500000
O O14 0.750000 0.073213 0.250000
O O15 0.683867 0.000000 0.272972
#
# Coordination Sequence:
#
# PCOD8285027 Si02
#       6
#    32  16  16  32  16  32
#     4  11  21  34  55  83 112 144 185 228 277 333
#     4  10  20  37  58  81 113 150 187 227 276 336
#     4  10  20  37  56  83 115 147 186 226 279 341
#     4  10  21  36  56  81 113 149 186 230 278 330
#     4   9  18  32  49  75 113 147 171 214 275 334
#     4  10  22  38  57  81 111 149 191 232 273 326
#
# _framework density 17.347994
#
# number of rings (size 3 to 8) (size 9 to 14) (size 15 to 20)
#    0.000    1.889    3.333    0.667    3.111    1.556 
#    0.000    0.000    0.000    0.667    0.000    3.111 
#    0.000    0.000    0.000    0.000    0.000    0.000 
#
# Total GULP energy -446526.457071 kJ/mol
# GULP energy per Si atom -12403.512696 kJ/mol
# Density = 1.730851 g / cm^3
# Si number density = 17.347994 Si / 1000 Ang^3
#
#
#
# Elastic Constant Matrix: (Units=GPa)
#
#
# Indices 1 2 3 4 5 6 
#
# 1 110.8287 73.6581 49.4893 0.0000 -0.0001 0.0000
# 2 73.6581 141.6970 59.4939 0.0000 -0.0001 0.0000
# 3 49.4893 59.4939 106.4375 0.0001 -0.0004 -0.0001
# 4 0.0000 0.0000 0.0001 24.1852 -0.0001 0.0000
# 5 -0.0001 -0.0001 -0.0004 -0.0001 20.9780 0.0001
# 6 0.0000 0.0000 -0.0001 0.0000 0.0001 21.1701
#
#
#
# Elastic Compliance Matrix: (Units=1/GPa)
#
#
# Indices 1 2 3 4 5 6 
#
# 1 0.014639 -0.006209 -0.003336 0.000000 0.000000 0.000000
# 2 -0.006209 0.011855 -0.003739 0.000000 0.000000 0.000000
# 3 -0.003336 -0.003739 0.013036 0.000000 0.000000 0.000000
# 4 0.000000 0.000000 0.000000 0.041348 0.000000 0.000000
# 5 0.000000 0.000000 0.000000 0.000000 0.047669 0.000000
# 6 0.000000 0.000000 0.000000 0.000000 0.000000 0.047236
#
#
# Mechanical properties :
#
#
# Convention : Reuss Voigt Hill
#
# Bulk Modulus (GPa) = 77.15139 80.47175 78.81157
# Shear Modulus (GPa) = 24.19271 25.02146 24.60708
#
# Velocity S-wave (km/s) = 3.73842 3.80192 3.77030
# Velocity P-wave (km/s) = 7.95008 8.10927 8.03007
#
# Compressibility (1/GPa) = 0.01296153
#
# Stress axis : x y z
#
# Youngs Moduli (GPa) = 68.30911 84.35180 76.70776
#
# Poissons Ratio (x) = 0.52376 0.25590
# Poissons Ratio (y) = 0.42415 0.28684
# Poissons Ratio (z) = 0.22788 0.31543
#
# Static dielectric constant tensor:
#      x y z
#    x 3.123310 0.000000 0.000000 
#    y 0.000000 3.267400 0.000000 
#    z 0.000000 0.000000 3.259560 
# 
# 
# High freq. dielectric constant tensor:
#      x y z
#    x 1.651280 0.000000 0.000000 
#    y 0.000000 1.668390 0.000000 
#    z 0.000000 0.000000 1.678790 
# 
# From -- ./inp_files/10397.got.cif
#   From: 2010.03.12/outbox.cif.g09.slc.cpg/sg69_6_cif.got.tgz:10397.got - 2010.04.10 23:52:46.
