data_PCOD8285757
_publ_section_title
;
Structure prediction by ZEFSAII (Michael W. Deem and Ramdas Pophale) SiO2 
 PCOD8285757
Probable space group: F D D D
;
_chemical_formula_sum "Si O2"
_cell_formula_units_Z 176
_cell_length_a 24.448964
_cell_length_b 15.989571
_cell_length_c 22.365613
_cell_angle_alpha 90.000000
_cell_angle_beta 90.000000
_cell_angle_gamma 90.000000
_cell_volume 8743.354328
_symmetry_space_group_name_H-M "F D D D"
_symmetry_group_IT_number 70
_space_group.IT_coordinate_system_code '2'
_symmetry_cell_setting 'orthorhombic'
loop_
_space_group_symop_operation_xyz
x,y,z
1/4-x,1/4-y,z
x,1/4-y,1/4-z
1/4-x,y,1/4-z
-x,-y,-z
3/4+x,3/4+y,-z
-x,3/4+y,3/4+z
3/4+x,-y,3/4+z
x,1/2+y,1/2+z
1/4-x,3/4-y,1/2+z
x,3/4-y,3/4-z
1/4-x,1/2+y,3/4-z
-x,1/2-y,1/2-z
3/4+x,1/4+y,1/2-z
-x,1/4+y,1/4+z
3/4+x,1/2-y,1/4+z
1/2+x,y,1/2+z
3/4-x,1/4-y,1/2+z
1/2+x,1/4-y,3/4-z
3/4-x,y,3/4-z
1/2-x,-y,1/2-z
1/4+x,3/4+y,1/2-z
1/2-x,3/4+y,1/4+z
1/4+x,-y,1/4+z
1/2+x,1/2+y,z
3/4-x,3/4-y,z
1/2+x,3/4-y,1/4-z
3/4-x,1/2+y,1/4-z
1/2-x,1/2-y,-z
1/4+x,1/4+y,-z
1/2-x,1/4+y,3/4+z
1/4+x,1/2-y,3/4+z
loop_
_atom_site_type_symbol
_atom_site_label
_atom_site_fract_x
_atom_site_fract_y
_atom_site_fract_z
Si Si1 0.073286 0.233077 0.918201
Si Si2 0.091303 0.879862 0.496284
Si Si3 0.875000 0.375000 0.265162
Si Si4 0.166096 0.470957 0.677000
Si Si5 0.895857 0.462721 0.687935
Si Si6 0.752423 0.137976 0.347121
O O1 0.081220 0.177574 0.977286
O O2 0.129456 0.228553 0.880974
O O3 0.026030 0.195699 0.874634
O O4 0.062907 0.329011 0.940689
O O5 0.145249 0.828494 0.514892
O O6 0.047565 0.892887 0.549491
O O7 0.117121 0.968122 0.478518
O O8 0.835825 0.431022 0.307348
O O9 0.125000 0.447848 0.625000
O O10 0.224773 0.439919 0.653996
O O11 0.875000 0.375000 0.713684
O O12 0.961774 0.453119 0.686882
#
# Coordination Sequence:
#
# PCOD8285757 Si02
#       6
#    32  32  16  32  32  32
#     4  10  20  38  56  88 125 156 206 256 303 371
#     4  10  22  38  62  90 124 164 201 262 308 364
#     4  10  17  36  56  82 126 160 189 250 312 348
#     4   9  20  36  57  87 123 155 197 254 297 363
#     4  10  21  40  60  86 124 156 207 259 305 371
#     4  10  21  39  63  89 121 167 208 253 311 373
#
# _framework density 20.129574000000002
#
# number of rings (size 3 to 8) (size 9 to 14) (size 15 to 20)
#    0.000    2.182    2.727    0.818    2.545    3.636 
#    0.000    5.455    0.000    3.818    0.000    0.000 
#    0.000    0.000    0.000    0.000    0.000    0.000 
#
# Total GULP energy -545101.297022 kJ/mol
# GULP energy per Si atom -12388.665841 kJ/mol
# Density = 2.008376 g / cm^3
# Si number density = 20.129574 Si / 1000 Ang^3
#
#
#
# Elastic Constant Matrix: (Units=GPa)
#
#
# Indices 1 2 3 4 5 6 
#
# 1 105.7708 46.1132 45.3391 0.0000 0.0000 0.0000
# 2 46.1132 135.5315 60.7103 0.0000 0.0000 0.0000
# 3 45.3391 60.7103 79.8792 0.0000 0.0000 0.0000
# 4 0.0000 0.0000 0.0000 23.6599 0.0000 0.0000
# 5 0.0000 0.0000 0.0000 0.0000 26.5539 0.0000
# 6 0.0000 0.0000 0.0000 0.0000 0.0000 23.3751
#
#
#
# Elastic Compliance Matrix: (Units=1/GPa)
#
#
# Indices 1 2 3 4 5 6 
#
# 1 0.012736 -0.001660 -0.005967 0.000000 0.000000 0.000000
# 2 -0.001660 0.011403 -0.007724 0.000000 0.000000 0.000000
# 3 -0.005967 -0.007724 0.021776 0.000000 0.000000 0.000000
# 4 0.000000 0.000000 0.000000 0.042266 0.000000 0.000000
# 5 0.000000 0.000000 0.000000 0.000000 0.037659 0.000000
# 6 0.000000 0.000000 0.000000 0.000000 0.000000 0.042781
#
#
# Mechanical properties :
#
#
# Convention : Reuss Voigt Hill
#
# Bulk Modulus (GPa) = 65.73626 69.50075 67.61850
# Shear Modulus (GPa) = 24.46234 25.98570 25.22402
#
# Velocity S-wave (km/s) = 3.48982 3.59684 3.54373
# Velocity P-wave (km/s) = 6.99756 7.20078 7.09990
#
# Compressibility (1/GPa) = 0.01521230
#
# Stress axis : x y z
#
# Youngs Moduli (GPa) = 78.51718 87.69305 45.92116
#
# Poissons Ratio (x) = 0.14561 0.27401
# Poissons Ratio (y) = 0.13038 0.35471
# Poissons Ratio (z) = 0.46851 0.67738
#
# Static dielectric constant tensor:
#      x y z
#    x 3.663550 0.000000 0.000000 
#    y 0.000000 3.734350 0.000000 
#    z 0.000000 0.000000 3.715040 
# 
# 
# High freq. dielectric constant tensor:
#      x y z
#    x 1.767700 0.000000 0.000000 
#    y 0.000000 1.783550 0.000000 
#    z 0.000000 0.000000 1.787230 
# 
# From -- ./inp_files/28775.got.cif
#   From: 2010.03.12/outbox.cif.g09.slc.cpg/sg70_15_cif.got.tgz:28775.got - 2010.04.16 13:46:32.
