data_PCOD8285673
_publ_section_title
;
Structure prediction by ZEFSAII (Michael W. Deem and Ramdas Pophale) SiO2 
 PCOD8285673
Probable space group: F M M M
;
_chemical_formula_sum "Si O2"
_cell_formula_units_Z 144
_cell_length_a 18.125842
_cell_length_b 28.466018
_cell_length_c 15.213681
_cell_angle_alpha 90.000000
_cell_angle_beta 90.000000
_cell_angle_gamma 90.000000
_cell_volume 7849.811272
_symmetry_space_group_name_H-M "F M M M"
_symmetry_group_IT_number 69
_symmetry_cell_setting 'orthorhombic'
loop_
_space_group_symop_operation_xyz
x,y,z
-x,-y,z
x,-y,-z
-x,y,-z
-x,-y,-z
x,y,-z
-x,y,z
x,-y,z
x,1/2+y,1/2+z
-x,1/2-y,1/2+z
x,1/2-y,1/2-z
-x,1/2+y,1/2-z
-x,1/2-y,1/2-z
x,1/2+y,1/2-z
-x,1/2+y,1/2+z
x,1/2-y,1/2+z
1/2+x,y,1/2+z
1/2-x,-y,1/2+z
1/2+x,-y,1/2-z
1/2-x,y,1/2-z
1/2-x,-y,1/2-z
1/2+x,y,1/2-z
1/2-x,y,1/2+z
1/2+x,-y,1/2+z
1/2+x,1/2+y,z
1/2-x,1/2-y,z
1/2+x,1/2-y,-z
1/2-x,1/2+y,-z
1/2-x,1/2-y,-z
1/2+x,1/2+y,-z
1/2-x,1/2+y,z
1/2+x,1/2-y,z
loop_
_atom_site_type_symbol
_atom_site_label
_atom_site_fract_x
_atom_site_fract_y
_atom_site_fract_z
Si Si1 0.587571 0.945837 0.190515
Si Si2 0.415083 0.693697 0.599961
Si Si3 0.086224 0.946056 0.500000
Si Si4 0.415999 0.303340 0.100369
Si Si5 0.163206 0.640029 0.253321
O O1 0.500000 0.941119 0.200512
O O2 0.628092 0.912242 0.259942
O O3 0.611125 0.000000 0.205779
O O4 0.614799 0.926271 0.093690
O O5 0.398493 0.677289 0.500000
O O6 0.500000 0.682922 0.623295
O O7 0.398329 0.748580 0.610524
O O8 0.363344 0.666290 0.666187
O O9 0.000000 0.938896 0.500000
O O10 0.107365 0.000000 0.500000
O O11 0.500000 0.313370 0.130236
O O12 0.359880 0.332090 0.159928
O O13 0.404372 0.319246 0.000000
O O14 0.250000 0.635390 0.250000
#
# Coordination Sequence:
#
# PCOD8285673 Si02
#       5
#    32  32  16  32  32
#     4   9  18  34  56  79 103 135 178 225 268 311
#     4   9  19  36  59  83 104 133 180 234 275 307
#     4   7  12  26  50  78 100 119 153 209 271 314
#     4   9  19  38  59  76 101 142 190 231 259 296
#     4  12  24  33  49  81 116 149 172 208 266 335
#
# _framework density 18.344391000000002
#
# number of rings (size 3 to 8) (size 9 to 14) (size 15 to 20)
#    0.000    2.556    0.000    5.333    1.556    4.889 
#    0.000    2.222    0.000    0.667    0.000    3.111 
#    0.000    0.000    0.000    0.000    0.000    0.000 
#
# Total GULP energy -446168.944406 kJ/mol
# GULP energy per Si atom -12393.581789 kJ/mol
# Density = 1.830264 g / cm^3
# Si number density = 18.344391 Si / 1000 Ang^3
#
#
#
# Elastic Constant Matrix: (Units=GPa)
#
#
# Indices 1 2 3 4 5 6 
#
# 1 94.0166 49.9182 42.1639 0.0000 0.0000 0.0000
# 2 49.9182 76.7913 47.4038 0.0000 0.0000 0.0000
# 3 42.1639 47.4038 79.8700 0.0000 0.0000 0.0000
# 4 0.0000 0.0000 0.0000 24.2452 0.0000 0.0000
# 5 0.0000 0.0000 0.0000 0.0000 16.0401 0.0000
# 6 0.0000 0.0000 0.0000 0.0000 0.0000 3.6665
#
#
#
# Elastic Compliance Matrix: (Units=1/GPa)
#
#
# Indices 1 2 3 4 5 6 
#
# 1 0.016943 -0.008668 -0.003800 0.000000 0.000000 0.000000
# 2 -0.008668 0.024987 -0.010254 0.000000 0.000000 0.000000
# 3 -0.003800 -0.010254 0.020612 0.000000 0.000000 0.000000
# 4 0.000000 0.000000 0.000000 0.041245 0.000000 0.000000
# 5 0.000000 0.000000 0.000000 0.000000 0.062344 0.000000
# 6 0.000000 0.000000 0.000000 0.000000 0.000000 0.272741
#
#
# Mechanical properties :
#
#
# Convention : Reuss Voigt Hill
#
# Bulk Modulus (GPa) = 58.48559 58.84997 58.66778
# Shear Modulus (GPa) = 10.20377 16.20316 13.20346
#
# Velocity S-wave (km/s) = 2.36102 2.97522 2.68573
# Velocity P-wave (km/s) = 6.27565 6.62970 6.45510
#
# Compressibility (1/GPa) = 0.01709823
#
# Stress axis : x y z
#
# Youngs Moduli (GPa) = 59.02214 40.02088 48.51531
#
# Poissons Ratio (x) = 0.34691 0.18434
# Poissons Ratio (y) = 0.51162 0.49748
# Poissons Ratio (z) = 0.22426 0.41038
#
# Static dielectric constant tensor:
#      x y z
#    x 3.037870 0.000000 0.000000 
#    y 0.000000 3.433450 0.000000 
#    z 0.000000 0.000000 3.506340 
# 
# 
# High freq. dielectric constant tensor:
#      x y z
#    x 1.676210 0.000000 0.000000 
#    y 0.000000 1.716480 0.000000 
#    z 0.000000 0.000000 1.709950 
# 
# From -- ./inp_files/15522.got.cif
#   From: 2010.03.12/outbox.cif.g09.slc.cpg/sg69_8_cif.got.tgz:15522.got - 2010.04.10 23:52:46.
