data_PCOD8285547
_publ_section_title
;
Structure prediction by ZEFSAII (Michael W. Deem and Ramdas Pophale) SiO2 
 PCOD8285547
Probable space group: F M M M
;
_chemical_formula_sum "Si O2"
_cell_formula_units_Z 160
_cell_length_a 16.926359
_cell_length_b 20.417041
_cell_length_c 22.638460
_cell_angle_alpha 90.000000
_cell_angle_beta 90.000000
_cell_angle_gamma 90.000000
_cell_volume 7823.538588
_symmetry_space_group_name_H-M "F M M M"
_symmetry_group_IT_number 69
_symmetry_cell_setting 'orthorhombic'
loop_
_space_group_symop_operation_xyz
x,y,z
-x,-y,z
x,-y,-z
-x,y,-z
-x,-y,-z
x,y,-z
-x,y,z
x,-y,z
x,1/2+y,1/2+z
-x,1/2-y,1/2+z
x,1/2-y,1/2-z
-x,1/2+y,1/2-z
-x,1/2-y,1/2-z
x,1/2+y,1/2-z
-x,1/2+y,1/2+z
x,1/2-y,1/2+z
1/2+x,y,1/2+z
1/2-x,-y,1/2+z
1/2+x,-y,1/2-z
1/2-x,y,1/2-z
1/2-x,-y,1/2-z
1/2+x,y,1/2-z
1/2-x,y,1/2+z
1/2+x,-y,1/2+z
1/2+x,1/2+y,z
1/2-x,1/2-y,z
1/2+x,1/2-y,-z
1/2-x,1/2+y,-z
1/2-x,1/2-y,-z
1/2+x,1/2+y,-z
1/2-x,1/2+y,z
1/2+x,1/2-y,z
loop_
_atom_site_type_symbol
_atom_site_label
_atom_site_fract_x
_atom_site_fract_y
_atom_site_fract_z
Si Si1 0.681930 0.372221 0.429938
Si Si2 0.500000 0.922403 0.435052
Si Si3 0.661579 0.923123 0.623543
Si Si4 0.091146 0.347947 0.717417
Si Si5 0.412029 0.500000 0.569941
Si Si6 0.590801 0.709285 0.341123
O O1 0.677035 0.360441 0.500000
O O2 0.771826 0.383088 0.410773
O O3 0.632694 0.435337 0.408313
O O4 0.646150 0.309190 0.396547
O O5 0.500000 0.891563 0.500000
O O6 0.421238 0.898090 0.403199
O O7 0.500000 0.000000 0.437611
O O8 0.651749 0.903191 0.692532
O O9 0.677353 0.000000 0.616005
O O10 0.112405 0.337187 0.785722
O O11 0.106252 0.283190 0.678562
O O12 0.000000 0.370356 0.712111
O O13 0.500000 0.500000 0.597194
O O14 0.415369 0.500000 0.500000
O O15 0.500000 0.699402 0.359930
#
# Coordination Sequence:
#
# PCOD8285547 Si02
#       6
#    32  16  32  32  16  32
#     4  11  22  37  58  88 124 157 198 249 296 353
#     4   9  18  32  54  79 108 154 195 229 292 360
#     4  11  21  36  59  87 121 156 197 250 300 355
#     4   9  19  40  65  87 116 156 204 250 304 362
#     4   9  18  34  56  78 111 159 197 233 289 347
#     4   9  20  40  65  87 115 160 203 248 304 363
#
# _framework density 20.451104999999998
#
# number of rings (size 3 to 8) (size 9 to 14) (size 15 to 20)
#    0.000    2.200    2.000    2.400    0.000    3.600 
#    1.800    6.000    0.000    0.000    0.000    0.000 
#    0.000    0.000    0.000    0.000    0.000    0.000 
#
# Total GULP energy -495927.608959 kJ/mol
# GULP energy per Si atom -12398.190224 kJ/mol
# Density = 2.040456 g / cm^3
# Si number density = 20.451105 Si / 1000 Ang^3
#
#
#
# Elastic Constant Matrix: (Units=GPa)
#
#
# Indices 1 2 3 4 5 6 
#
# 1 116.6857 23.2810 44.2050 0.0000 0.0000 0.0000
# 2 23.2810 31.5200 25.1660 0.0000 0.0000 0.0000
# 3 44.2050 25.1660 101.4634 0.0000 0.0000 0.0000
# 4 0.0000 0.0000 0.0000 30.7709 0.0000 0.0000
# 5 0.0000 0.0000 0.0000 0.0000 27.9454 0.0000
# 6 0.0000 0.0000 0.0000 0.0000 0.0000 30.0903
#
#
#
# Elastic Compliance Matrix: (Units=1/GPa)
#
#
# Indices 1 2 3 4 5 6 
#
# 1 0.010938 -0.005330 -0.003443 0.000000 0.000000 0.000000
# 2 -0.005330 0.042157 -0.008134 0.000000 0.000000 0.000000
# 3 -0.003443 -0.008134 0.013374 0.000000 0.000000 0.000000
# 4 0.000000 0.000000 0.000000 0.032498 0.000000 0.000000
# 5 0.000000 0.000000 0.000000 0.000000 0.035784 0.000000
# 6 0.000000 0.000000 0.000000 0.000000 0.000000 0.033233
#
#
# Mechanical properties :
#
#
# Convention : Reuss Voigt Hill
#
# Bulk Modulus (GPa) = 30.62432 48.33034 39.47733
# Shear Modulus (GPa) = 23.50917 28.22913 25.86915
#
# Velocity S-wave (km/s) = 3.39415 3.71930 3.56044
# Velocity P-wave (km/s) = 5.51065 6.49059 6.02059
#
# Compressibility (1/GPa) = 0.03265379
#
# Stress axis : x y z
#
# Youngs Moduli (GPa) = 91.42526 23.72094 74.77453
#
# Poissons Ratio (x) = 0.12642 0.25748
# Poissons Ratio (y) = 0.48725 0.60823
# Poissons Ratio (z) = 0.31482 0.19295
#
# Static dielectric constant tensor:
#      x y z
#    x 3.725120 0.000000 0.000000 
#    y 0.000000 3.449960 0.000000 
#    z 0.000000 0.000000 3.684250 
# 
# 
# High freq. dielectric constant tensor:
#      x y z
#    x 1.802190 0.000000 0.000000 
#    y 0.000000 1.781250 0.000000 
#    z 0.000000 0.000000 1.794020 
# 
# From -- ./inp_files/36618.got.cif
#   From: 2010.03.12/outbox.cif.g09.slc.cpg/sg69_19_cif.got.tgz:36618.got - 2010.04.10 23:52:46.
