data_PCOD8285144
_publ_section_title
;
Structure prediction by ZEFSAII (Michael W. Deem and Ramdas Pophale) SiO2 
 PCOD8285144
Probable space group: F M M M
;
_chemical_formula_sum "Si O2"
_cell_formula_units_Z 224
_cell_length_a 18.309980
_cell_length_b 30.745705
_cell_length_c 20.498027
_cell_angle_alpha 90.000000
_cell_angle_beta 90.000000
_cell_angle_gamma 90.000000
_cell_volume 11539.430788
_symmetry_space_group_name_H-M "F M M M"
_symmetry_group_IT_number 69
_symmetry_cell_setting 'orthorhombic'
loop_
_space_group_symop_operation_xyz
x,y,z
-x,-y,z
x,-y,-z
-x,y,-z
-x,-y,-z
x,y,-z
-x,y,z
x,-y,z
x,1/2+y,1/2+z
-x,1/2-y,1/2+z
x,1/2-y,1/2-z
-x,1/2+y,1/2-z
-x,1/2-y,1/2-z
x,1/2+y,1/2-z
-x,1/2+y,1/2+z
x,1/2-y,1/2+z
1/2+x,y,1/2+z
1/2-x,-y,1/2+z
1/2+x,-y,1/2-z
1/2-x,y,1/2-z
1/2-x,-y,1/2-z
1/2+x,y,1/2-z
1/2-x,y,1/2+z
1/2+x,-y,1/2+z
1/2+x,1/2+y,z
1/2-x,1/2-y,z
1/2+x,1/2-y,-z
1/2-x,1/2+y,-z
1/2-x,1/2-y,-z
1/2+x,1/2+y,-z
1/2-x,1/2+y,z
1/2+x,1/2-y,z
loop_
_atom_site_type_symbol
_atom_site_label
_atom_site_fract_x
_atom_site_fract_y
_atom_site_fract_z
Si Si1 0.413631 0.619906 0.364928
Si Si2 0.086428 0.124394 0.784988
Si Si3 0.812332 0.050153 0.575069
Si Si4 0.158799 0.452309 0.632624
Si Si5 0.413839 0.561196 0.000000
Si Si6 0.586964 0.290803 0.574263
Si Si7 0.586709 0.297554 0.871212
Si Si8 0.586657 0.658936 0.000000
O O1 0.500000 0.616291 0.372598
O O2 0.390093 0.621298 0.289649
O O3 0.379876 0.578346 0.399867
O O4 0.382933 0.663492 0.399220
O O5 0.122832 0.084648 0.823325
O O6 0.113325 0.172146 0.810966
O O7 0.000000 0.119677 0.795312
O O8 0.795067 0.061227 0.500000
O O9 0.741912 0.061557 0.618455
O O10 0.834887 0.000000 0.583058
O O11 0.156525 0.500000 0.667894
O O12 0.117080 0.460444 0.564841
O O13 0.500000 0.555809 0.000000
O O14 0.386391 0.610223 0.000000
O O15 0.614946 0.282614 0.500000
O O16 0.500000 0.291466 0.573900
O O17 0.613836 0.252748 0.624913
O O18 0.500000 0.297918 0.871354
O O19 0.619439 0.318921 0.936222
O O20 0.500000 0.662799 0.000000
#
# Coordination Sequence:
#
# PCOD8285144 Si02
#       8
#    32  32  32  32  16  32  32  16
#     4  10  22  38  56  81 112 146 188 237 282 324
#     4  10  21  35  52  81 119 155 188 219 263 332
#     4  10  22  41  62  82 106 138 183 238 291 343
#     4  11  22  36  55  81 112 146 183 226 278 333
#     4  11  19  30  53  85 117 149 181 220 273 327
#     4   9  16  28  51  81 109 139 181 235 285 324
#     4   9  15  26  47  77 112 146 179 219 271 326
#     4   9  14  23  44  76 110 142 176 212 255 311
#
# _framework density 19.411702999999999
#
# number of rings (size 3 to 8) (size 9 to 14) (size 15 to 20)
#    0.000    2.143    2.857    1.071    0.000    4.286 
#    0.000    6.429    0.000    0.857    0.000    5.000 
#    0.000    0.000    0.000    0.000    0.000    0.000 
#
# Total GULP energy -694005.309383 kJ/mol
# GULP energy per Si atom -12392.951953 kJ/mol
# Density = 1.936752 g / cm^3
# Si number density = 19.411703 Si / 1000 Ang^3
#
#
#
# Elastic Constant Matrix: (Units=GPa)
#
#
# Indices 1 2 3 4 5 6 
#
# 1 30.0281 34.9597 18.4303 0.0000 0.0000 0.0000
# 2 34.9597 145.5992 63.1761 0.0000 0.0000 0.0000
# 3 18.4303 63.1761 88.3379 0.0000 0.0000 0.0000
# 4 0.0000 0.0000 0.0000 44.6829 0.0000 0.0000
# 5 0.0000 0.0000 0.0000 0.0000 18.6786 0.0000
# 6 0.0000 0.0000 0.0000 0.0000 0.0000 3.4494
#
#
#
# Elastic Compliance Matrix: (Units=1/GPa)
#
#
# Indices 1 2 3 4 5 6 
#
# 1 0.046600 -0.010107 -0.002494 0.000000 0.000000 0.000000
# 2 -0.010107 0.012150 -0.006581 0.000000 0.000000 0.000000
# 3 -0.002494 -0.006581 0.016547 0.000000 0.000000 0.000000
# 4 0.000000 0.000000 0.000000 0.022380 0.000000 0.000000
# 5 0.000000 0.000000 0.000000 0.000000 0.053537 0.000000
# 6 0.000000 0.000000 0.000000 0.000000 0.000000 0.289902
#
#
# Mechanical properties :
#
#
# Convention : Reuss Voigt Hill
#
# Bulk Modulus (GPa) = 27.07590 55.23303 41.15446
# Shear Modulus (GPa) = 10.16692 23.18879 16.67786
#
# Velocity S-wave (km/s) = 2.29105 3.46002 2.93433
# Velocity P-wave (km/s) = 4.58007 6.66915 5.72078
#
# Compressibility (1/GPa) = 0.03693322
#
# Stress axis : x y z
#
# Youngs Moduli (GPa) = 21.45934 82.30202 60.43395
#
# Poissons Ratio (x) = 0.83181 0.15074
# Poissons Ratio (y) = 0.21688 0.39771
# Poissons Ratio (z) = 0.05353 0.54162
#
# Static dielectric constant tensor:
#      x y z
#    x 3.071650 0.000000 0.000000 
#    y 0.000000 3.858700 0.000000 
#    z 0.000000 0.000000 3.620500 
# 
# 
# High freq. dielectric constant tensor:
#      x y z
#    x 1.704970 0.000000 0.000000 
#    y 0.000000 1.776970 0.000000 
#    z 0.000000 0.000000 1.750920 
# 
# From -- ./inp_files/31211.got.cif
#   From: 2010.03.12/outbox.cif.g09.slc.cpg/sg69_16_cif.got.tgz:31211.got - 2010.04.10 23:52:46.
