data_PCOD8285779
_publ_section_title
;
Structure prediction by ZEFSAII (Michael W. Deem and Ramdas Pophale) SiO2 
 PCOD8285779
Probable space group: F D D D
;
_chemical_formula_sum "Si O2"
_cell_formula_units_Z 144
_cell_length_a 9.296904
_cell_length_b 28.538146
_cell_length_c 26.923338
_cell_angle_alpha 90.000000
_cell_angle_beta 90.000000
_cell_angle_gamma 90.000000
_cell_volume 7143.203214
_symmetry_space_group_name_H-M "F D D D"
_symmetry_group_IT_number 70
_space_group.IT_coordinate_system_code '2'
_symmetry_cell_setting 'orthorhombic'
loop_
_space_group_symop_operation_xyz
x,y,z
1/4-x,1/4-y,z
x,1/4-y,1/4-z
1/4-x,y,1/4-z
-x,-y,-z
3/4+x,3/4+y,-z
-x,3/4+y,3/4+z
3/4+x,-y,3/4+z
x,1/2+y,1/2+z
1/4-x,3/4-y,1/2+z
x,3/4-y,3/4-z
1/4-x,1/2+y,3/4-z
-x,1/2-y,1/2-z
3/4+x,1/4+y,1/2-z
-x,1/4+y,1/4+z
3/4+x,1/2-y,1/4+z
1/2+x,y,1/2+z
3/4-x,1/4-y,1/2+z
1/2+x,1/4-y,3/4-z
3/4-x,y,3/4-z
1/2-x,-y,1/2-z
1/4+x,3/4+y,1/2-z
1/2-x,3/4+y,1/4+z
1/4+x,-y,1/4+z
1/2+x,1/2+y,z
3/4-x,3/4-y,z
1/2+x,3/4-y,1/4-z
3/4-x,1/2+y,1/4-z
1/2-x,1/2-y,-z
1/4+x,1/4+y,-z
1/2-x,1/4+y,3/4+z
1/4+x,1/2-y,3/4+z
loop_
_atom_site_type_symbol
_atom_site_label
_atom_site_fract_x
_atom_site_fract_y
_atom_site_fract_z
Si Si1 0.971673 0.446605 0.579687
Si Si2 0.375000 0.113225 0.875000
Si Si3 0.024340 0.668722 0.283465
Si Si4 0.529565 0.078952 0.741613
Si Si5 0.260182 0.760840 0.685044
O O1 0.837534 0.446425 0.541893
O O2 0.948028 0.480923 0.627041
O O3 0.006089 0.393594 0.595992
O O4 0.114653 0.462006 0.550512
O O5 0.281090 0.080378 0.839984
O O6 0.125000 0.625000 0.272227
O O7 0.114572 0.717497 0.279092
O O8 0.889664 0.661422 0.247327
O O9 0.625000 0.125000 0.728782
O O10 0.527060 0.043362 0.695238
#
# Coordination Sequence:
#
# PCOD8285779 Si02
#       5
#    32  16  32  32  32
#     4  10  20  38  61  87 118 155 201 255 317 364
#     4  10  18  32  58  90 115 148 197 254 312 366
#     4  12  20  33  56  88 124 149 193 256 311 363
#     4  12  23  37  59  89 121 166 209 248 313 379
#     4  10  22  37  57  89 125 151 201 260 310 361
#
# _framework density 20.159023000000001
#
# number of rings (size 3 to 8) (size 9 to 14) (size 15 to 20)
#    0.000    1.333    6.667    2.667    0.000    0.000 
#    0.000    2.222    0.000    0.000    0.000    1.556 
#    0.000    0.000    0.000    0.000    0.000    0.000 
#
# Total GULP energy -446012.074194 kJ/mol
# GULP energy per Si atom -12389.224283 kJ/mol
# Density = 2.011314 g / cm^3
# Si number density = 20.159023 Si / 1000 Ang^3
#
#
#
# Elastic Constant Matrix: (Units=GPa)
#
#
# Indices 1 2 3 4 5 6 
#
# 1 124.6873 47.7170 29.7720 0.0000 0.0000 0.0000
# 2 47.7170 113.7102 37.5383 0.0000 0.0000 0.0000
# 3 29.7720 37.5383 43.8724 0.0000 0.0000 0.0000
# 4 0.0000 0.0000 0.0000 -0.7673 0.0000 0.0000
# 5 0.0000 0.0000 0.0000 0.0000 5.6762 0.0000
# 6 0.0000 0.0000 0.0000 0.0000 0.0000 25.3895
#
#
#
# Elastic Compliance Matrix: (Units=1/GPa)
#
#
# Indices 1 2 3 4 5 6 
#
# 1 0.010161 -0.002770 -0.004525 0.000000 0.000000 0.000000
# 2 -0.002770 0.013011 -0.009253 0.000000 0.000000 0.000000
# 3 -0.004525 -0.009253 0.033781 0.000000 0.000000 0.000000
# 4 0.000000 0.000000 0.000000 -1.303280 0.000000 0.000000
# 5 0.000000 0.000000 0.000000 0.000000 0.176174 0.000000
# 6 0.000000 0.000000 0.000000 0.000000 0.000000 0.039386
#
#
# Mechanical properties :
#
#
# Convention : Reuss Voigt Hill
#
# Bulk Modulus (GPa) = 41.91631 56.92494 49.42063
# Shear Modulus (GPa) = -5.05195 17.20919 6.07862
#
# Velocity S-wave (km/s) = -1.58477 2.92494 1.73836
# Velocity P-wave (km/s) = 4.18202 6.30129 5.34769
#
# Compressibility (1/GPa) = 0.02385706
#
# Stress axis : x y z
#
# Youngs Moduli (GPa) = 98.41993 76.85622 29.60227
#
# Poissons Ratio (x) = 0.21289 0.13395
# Poissons Ratio (y) = 0.27262 0.27391
# Poissons Ratio (z) = 0.44535 0.71116
#
# Static dielectric constant tensor:
#      x y z
#    x 4.062850 0.000000 0.000000 
#    y 0.000000 3.615260 0.000000 
#    z 0.000000 0.000000 3.433500 
# 
# 
# High freq. dielectric constant tensor:
#      x y z
#    x 1.816960 0.000000 0.000000 
#    y 0.000000 1.767430 0.000000 
#    z 0.000000 0.000000 1.741850 
# 
# From -- ./inp_files/63866.got.cif
#   From: 2010.03.12/outbox.cif.g09.slc.cpg/sg70_32_cif.got.tgz:63866.got - 2010.04.16 13:46:32.
