data_PCOD8285004
_publ_section_title
;
Structure prediction by ZEFSAII (Michael W. Deem and Ramdas Pophale) SiO2 
 PCOD8285004
Probable space group: F M M M
;
_chemical_formula_sum "Si O2"
_cell_formula_units_Z 192
_cell_length_a 28.054814
_cell_length_b 30.441888
_cell_length_c 10.384909
_cell_angle_alpha 90.000000
_cell_angle_beta 90.000000
_cell_angle_gamma 90.000000
_cell_volume 8869.143318
_symmetry_space_group_name_H-M "F M M M"
_symmetry_group_IT_number 69
_symmetry_cell_setting 'orthorhombic'
loop_
_space_group_symop_operation_xyz
x,y,z
-x,-y,z
x,-y,-z
-x,y,-z
-x,-y,-z
x,y,-z
-x,y,z
x,-y,z
x,1/2+y,1/2+z
-x,1/2-y,1/2+z
x,1/2-y,1/2-z
-x,1/2+y,1/2-z
-x,1/2-y,1/2-z
x,1/2+y,1/2-z
-x,1/2+y,1/2+z
x,1/2-y,1/2+z
1/2+x,y,1/2+z
1/2-x,-y,1/2+z
1/2+x,-y,1/2-z
1/2-x,y,1/2-z
1/2-x,-y,1/2-z
1/2+x,y,1/2-z
1/2-x,y,1/2+z
1/2+x,-y,1/2+z
1/2+x,1/2+y,z
1/2-x,1/2-y,z
1/2+x,1/2-y,-z
1/2-x,1/2+y,-z
1/2-x,1/2-y,-z
1/2+x,1/2+y,-z
1/2-x,1/2+y,z
1/2+x,1/2-y,z
loop_
_atom_site_type_symbol
_atom_site_label
_atom_site_fract_x
_atom_site_fract_y
_atom_site_fract_z
Si Si1 0.587886 0.452620 0.000000
Si Si2 0.386173 0.451024 0.720900
Si Si3 0.392435 0.282542 0.641602
Si Si4 0.442877 0.365578 0.279279
Si Si5 0.213269 0.918744 0.643886
Si Si6 0.788459 0.683358 0.853030
Si Si7 0.051763 0.636904 0.500000
O O1 0.621461 0.447318 0.874835
O O2 0.562133 0.500000 0.000000
O O3 0.546378 0.416380 0.000000
O O4 0.405631 0.500000 0.684300
O O5 0.423016 0.413020 0.675122
O O6 0.335737 0.445077 0.652790
O O7 0.396446 0.260309 0.500000
O O8 0.413538 0.250000 0.750000
O O9 0.423175 0.327205 0.630760
O O10 0.337773 0.292390 0.675061
O O11 0.500000 0.367968 0.282671
O O12 0.422955 0.351485 0.135440
O O13 0.234377 0.925427 0.500000
O O14 0.250000 0.937206 0.750000
O O15 0.202315 0.867890 0.671224
O O16 0.750000 0.701485 0.750000
O O17 0.770766 0.691994 0.000000
O O18 0.000000 0.658949 0.500000
#
# Coordination Sequence:
#
# PCOD8285004 Si02
#       7
#    16  32  32  32  32  32  16
#     4   8  16  29  48  80 118 157 199 244 295 356
#     4  10  20  36  60  91 128 167 210 259 311 370
#     4  11  25  43  65  95 129 165 208 257 312 374
#     4  10  21  40  64  90 126 167 209 261 318 371
#     4  10  21  37  59  89 124 165 208 253 306 366
#     4   9  19  39  62  91 127 162 204 252 307 370
#     4   8  16  31  54  84 114 152 200 247 300 361
#
# _framework density 21.648088999999999
#
# number of rings (size 3 to 8) (size 9 to 14) (size 15 to 20)
#    0.000    2.333    1.667    0.000    2.333    2.833 
#    0.000    5.000    0.000    0.000    0.000    2.333 
#    0.000    0.000    0.000    0.000    0.000    0.000 
#
# Total GULP energy -594801.146901 kJ/mol
# GULP energy per Si atom -12391.690560 kJ/mol
# Density = 2.159882 g / cm^3
# Si number density = 21.648089 Si / 1000 Ang^3
#
#
#
# Elastic Constant Matrix: (Units=GPa)
#
#
# Indices 1 2 3 4 5 6 
#
# 1 88.0424 32.0272 38.6136 0.0046 -0.0034 -0.0019
# 2 32.0272 95.0121 39.5583 0.0080 -0.0041 -0.0029
# 3 38.6136 39.5583 108.9891 0.0172 -0.0081 -0.0111
# 4 0.0046 0.0080 0.0172 19.6789 -0.0098 -0.0078
# 5 -0.0034 -0.0041 -0.0081 -0.0098 23.3835 0.0054
# 6 -0.0019 -0.0029 -0.0111 -0.0078 0.0054 16.3806
#
#
#
# Elastic Compliance Matrix: (Units=1/GPa)
#
#
# Indices 1 2 3 4 5 6 
#
# 1 0.014217 -0.003175 -0.003884 0.000001 0.000000 -0.000002
# 2 -0.003175 0.013108 -0.003633 -0.000001 0.000001 0.000000
# 3 -0.003884 -0.003633 0.011870 -0.000008 0.000003 0.000007
# 4 0.000001 -0.000001 -0.000008 0.050816 0.000021 0.000024
# 5 0.000000 0.000001 0.000003 0.000021 0.042765 -0.000014
# 6 -0.000002 0.000000 0.000007 0.000024 -0.000014 0.061048
#
#
# Mechanical properties :
#
#
# Convention : Reuss Voigt Hill
#
# Bulk Modulus (GPa) = 56.14759 56.93798 56.54279
# Shear Modulus (GPa) = 22.60966 24.01156 23.31061
#
# Velocity S-wave (km/s) = 3.23525 3.33404 3.28502
# Velocity P-wave (km/s) = 6.32049 6.41715 6.36901
#
# Compressibility (1/GPa) = 0.01781020
#
# Stress axis : x y z
#
# Youngs Moduli (GPa) = 70.33940 76.29118 84.24633
#
# Poissons Ratio (x) = 0.24222 0.32725
# Poissons Ratio (y) = 0.22333 0.30604
# Poissons Ratio (z) = 0.27323 0.27714
#
# Static dielectric constant tensor:
#      x y z
#    x 3.489220 0.000010 0.000010 
#    y 0.000010 3.808770 -0.000020 
#    z 0.000010 -0.000020 4.177550 
# 
# 
# High freq. dielectric constant tensor:
#      x y z
#    x 1.816520 0.000000 0.000000 
#    y 0.000000 1.844360 0.000000 
#    z 0.000000 0.000000 1.860450 
# 
# From -- ./inp_files/12429.got.cif
#   From: 2010.03.12/outbox.cif.g09.slc.cpg/sg69_7_cif.got.tgz:12429.got - 2010.04.10 23:52:46.
