data_PCOD8285057
_publ_section_title
;
Structure prediction by ZEFSAII (Michael W. Deem and Ramdas Pophale) SiO2 
 PCOD8285057
Probable space group: F M M M
;
_chemical_formula_sum "Si O2"
_cell_formula_units_Z 160
_cell_length_a 19.969266
_cell_length_b 19.384759
_cell_length_c 19.912116
_cell_angle_alpha 90.000000
_cell_angle_beta 90.000000
_cell_angle_gamma 90.000000
_cell_volume 7707.968332
_symmetry_space_group_name_H-M "F M M M"
_symmetry_group_IT_number 69
_symmetry_cell_setting 'orthorhombic'
loop_
_space_group_symop_operation_xyz
x,y,z
-x,-y,z
x,-y,-z
-x,y,-z
-x,-y,-z
x,y,-z
-x,y,z
x,-y,z
x,1/2+y,1/2+z
-x,1/2-y,1/2+z
x,1/2-y,1/2-z
-x,1/2+y,1/2-z
-x,1/2-y,1/2-z
x,1/2+y,1/2-z
-x,1/2+y,1/2+z
x,1/2-y,1/2+z
1/2+x,y,1/2+z
1/2-x,-y,1/2+z
1/2+x,-y,1/2-z
1/2-x,y,1/2-z
1/2-x,-y,1/2-z
1/2+x,y,1/2-z
1/2-x,y,1/2+z
1/2+x,-y,1/2+z
1/2+x,1/2+y,z
1/2-x,1/2-y,z
1/2+x,1/2-y,-z
1/2-x,1/2+y,-z
1/2-x,1/2-y,-z
1/2+x,1/2+y,-z
1/2-x,1/2+y,z
1/2+x,1/2-y,z
loop_
_atom_site_type_symbol
_atom_site_label
_atom_site_fract_x
_atom_site_fract_y
_atom_site_fract_z
Si Si1 0.923940 0.785781 0.927325
Si Si2 0.614535 0.582064 0.500000
Si Si3 0.423116 0.850111 0.863571
Si Si4 0.632154 0.076620 0.389688
Si Si5 0.263267 0.580197 0.000000
Si Si6 0.323699 0.422658 0.260643
O O1 0.896233 0.728524 0.875357
O O2 0.922494 0.864278 0.901065
O O3 0.000000 0.764660 0.937904
O O4 0.887135 0.780179 0.000000
O O5 0.611709 0.500000 0.500000
O O6 0.577623 0.608702 0.433512
O O7 0.689908 0.614036 0.500000
O O8 0.500000 0.852950 0.835849
O O9 0.371446 0.880316 0.809733
O O10 0.697524 0.100607 0.431800
O O11 0.643198 0.073408 0.311382
O O12 0.608478 0.000000 0.414663
O O13 0.250172 0.500000 0.000000
O O14 0.315523 0.500000 0.291011
O O15 0.250000 0.388943 0.250000
#
# Coordination Sequence:
#
# PCOD8285057 Si02
#       6
#    32  16  32  32  16  32
#     4  10  21  39  60  85 123 162 200 255 320 373
#     4  11  21  35  59  88 118 157 205 254 305 362
#     4  11  23  40  61  88 125 165 205 253 310 374
#     4  10  20  37  62  89 117 155 209 258 305 374
#     4   9  18  34  57  86 118 151 194 253 312 360
#     4  10  22  41  63  89 126 166 203 252 311 368
#
# _framework density 20.757739999999998
#
# number of rings (size 3 to 8) (size 9 to 14) (size 15 to 20)
#    0.000    1.800    2.000    2.100    0.000    7.200 
#    0.000   11.000    0.000    0.000    0.000    0.000 
#    0.000    0.000    0.000    0.000    0.000    0.000 
#
# Total GULP energy -495658.302221 kJ/mol
# GULP energy per Si atom -12391.457556 kJ/mol
# Density = 2.071049 g / cm^3
# Si number density = 20.757740 Si / 1000 Ang^3
#
#
#
# Elastic Constant Matrix: (Units=GPa)
#
#
# Indices 1 2 3 4 5 6 
#
# 1 89.5946 51.3791 43.3076 0.0000 0.0000 0.0000
# 2 51.3791 137.7802 48.5343 0.0000 0.0000 0.0000
# 3 43.3076 48.5343 110.5349 0.0000 0.0000 0.0000
# 4 0.0000 0.0000 0.0000 34.7576 0.0000 0.0000
# 5 0.0000 0.0000 0.0000 0.0000 30.2680 0.0000
# 6 0.0000 0.0000 0.0000 0.0000 0.0000 20.3498
#
#
#
# Elastic Compliance Matrix: (Units=1/GPa)
#
#
# Indices 1 2 3 4 5 6 
#
# 1 0.015715 -0.004367 -0.004240 0.000000 0.000000 0.000000
# 2 -0.004367 0.009799 -0.002592 0.000000 0.000000 0.000000
# 3 -0.004240 -0.002592 0.011846 0.000000 0.000000 0.000000
# 4 0.000000 0.000000 0.000000 0.028771 0.000000 0.000000
# 5 0.000000 0.000000 0.000000 0.000000 0.033038 0.000000
# 6 0.000000 0.000000 0.000000 0.000000 0.000000 0.049141
#
#
# Mechanical properties :
#
#
# Convention : Reuss Voigt Hill
#
# Bulk Modulus (GPa) = 66.82842 69.37242 68.10042
# Shear Modulus (GPa) = 28.45853 30.05433 29.25643
#
# Velocity S-wave (km/s) = 3.70670 3.80921 3.75830
# Velocity P-wave (km/s) = 7.11223 7.26906 7.19108
#
# Compressibility (1/GPa) = 0.01496369
#
# Stress axis : x y z
#
# Youngs Moduli (GPa) = 63.63387 102.04799 84.41587
#
# Poissons Ratio (x) = 0.44561 0.35790
# Poissons Ratio (y) = 0.27787 0.21880
# Poissons Ratio (z) = 0.26979 0.26450
#
# Static dielectric constant tensor:
#      x y z
#    x 3.715940 0.000000 0.000000 
#    y 0.000000 3.967580 0.000000 
#    z 0.000000 0.000000 3.797010 
# 
# 
# High freq. dielectric constant tensor:
#      x y z
#    x 1.796500 0.000000 0.000000 
#    y 0.000000 1.811110 0.000000 
#    z 0.000000 0.000000 1.815060 
# 
# From -- ./inp_files/31759.got.cif
#   From: 2010.03.12/outbox.cif.g09.slc.cpg/sg69_16_cif.got.tgz:31759.got - 2010.04.10 23:52:46.
