data_PCOD8285921
_publ_section_title
;
Structure prediction by ZEFSAII (Michael W. Deem and Ramdas Pophale) SiO2 
 PCOD8285921
Probable space group: F D D D
;
_chemical_formula_sum "Si O2"
_cell_formula_units_Z 56
_cell_length_a 11.289653
_cell_length_b 33.232841
_cell_length_c 4.746214
_cell_angle_alpha 90.000000
_cell_angle_beta 90.000000
_cell_angle_gamma 90.000000
_cell_volume 1780.718946
_symmetry_space_group_name_H-M "F D D D"
_symmetry_group_IT_number 70
_space_group.IT_coordinate_system_code '2'
_symmetry_cell_setting 'orthorhombic'
loop_
_space_group_symop_operation_xyz
x,y,z
1/4-x,1/4-y,z
x,1/4-y,1/4-z
1/4-x,y,1/4-z
-x,-y,-z
3/4+x,3/4+y,-z
-x,3/4+y,3/4+z
3/4+x,-y,3/4+z
x,1/2+y,1/2+z
1/4-x,3/4-y,1/2+z
x,3/4-y,3/4-z
1/4-x,1/2+y,3/4-z
-x,1/2-y,1/2-z
3/4+x,1/4+y,1/2-z
-x,1/4+y,1/4+z
3/4+x,1/2-y,1/4+z
1/2+x,y,1/2+z
3/4-x,1/4-y,1/2+z
1/2+x,1/4-y,3/4-z
3/4-x,y,3/4-z
1/2-x,-y,1/2-z
1/4+x,3/4+y,1/2-z
1/2-x,3/4+y,1/4+z
1/4+x,-y,1/4+z
1/2+x,1/2+y,z
3/4-x,3/4-y,z
1/2+x,3/4-y,1/4-z
3/4-x,1/2+y,1/4-z
1/2-x,1/2-y,-z
1/4+x,1/4+y,-z
1/2-x,1/4+y,3/4+z
1/4+x,1/2-y,3/4+z
loop_
_atom_site_type_symbol
_atom_site_label
_atom_site_fract_x
_atom_site_fract_y
_atom_site_fract_z
Si Si1 0.625000 0.625000 0.125000
Si Si2 0.625000 0.983366 0.625000
Si Si3 0.266235 0.302746 0.580165
O O1 0.712249 0.652227 0.312334
O O2 0.645153 0.951589 0.359535
O O3 0.731133 0.018090 0.582506
O O4 0.375000 0.290490 0.375000
#
# Coordination Sequence:
#
# PCOD8285921 Si02
#       3
#     8  16  32
#     4  10  22  36  60  98 156 208 240 304 398 448
#     4   9  20  35  64 108 140 190 258 314 378 449
#     4  10  19  37  64  99 148 196 246 319 377 453
#
# _framework density 31.447973000000001
#
# number of rings (size 3 to 8) (size 9 to 14) (size 15 to 20)
#    0.000    2.286    0.000    2.571    0.000    0.000 
#    0.000    0.000   12.571    0.000    7.429    0.000 
#    0.000   36.571    0.000    0.571    0.000    0.000 
#
# Total GULP energy -173528.292277 kJ/mol
# GULP energy per Si atom -12394.878020 kJ/mol
# Density = 3.137640 g / cm^3
# Si number density = 31.447973 Si / 1000 Ang^3
#
#
#
# Elastic Constant Matrix: (Units=GPa)
#
#
# Indices 1 2 3 4 5 6 
#
# 1 247.8157 107.9707 118.0061 0.0004 0.0008 0.0004
# 2 107.9707 307.4953 152.3697 0.0002 0.0005 0.0007
# 3 118.0061 152.3697 287.7354 0.0008 0.0014 0.0020
# 4 0.0004 0.0002 0.0008 64.5977 -0.0005 -0.0010
# 5 0.0008 0.0005 0.0014 -0.0005 69.8395 -0.0008
# 6 0.0004 0.0007 0.0020 -0.0010 -0.0008 22.4979
#
#
#
# Elastic Compliance Matrix: (Units=1/GPa)
#
#
# Indices 1 2 3 4 5 6 
#
# 1 0.005255 -0.001054 -0.001597 0.000000 0.000000 0.000000
# 2 -0.001054 0.004620 -0.002015 0.000000 0.000000 0.000000
# 3 -0.001597 -0.002015 0.005197 0.000000 0.000000 0.000000
# 4 0.000000 0.000000 0.000000 0.015480 0.000000 0.000001
# 5 0.000000 0.000000 0.000000 0.000000 0.014319 0.000000
# 6 0.000000 0.000000 0.000000 0.000001 0.000000 0.044449
#
#
# Mechanical properties :
#
#
# Convention : Reuss Voigt Hill
#
# Bulk Modulus (GPa) = 174.16622 177.74883 175.95752
# Shear Modulus (GPa) = 49.71925 62.36701 56.04313
#
# Velocity S-wave (km/s) = 3.98049 4.45812 4.22606
# Velocity P-wave (km/s) = 8.75376 9.11834 8.93791
#
# Compressibility (1/GPa) = 0.00574164
#
# Stress axis : x y z
#
# Youngs Moduli (GPa) = 190.29898 216.43551 192.41069
#
# Poissons Ratio (x) = 0.22807 0.30731
# Poissons Ratio (y) = 0.20053 0.38762
# Poissons Ratio (z) = 0.30393 0.43601
#
# Static dielectric constant tensor:
#      x y z
#    x 6.930640 0.000000 0.000000 
#    y 0.000000 5.340880 0.000000 
#    z 0.000000 0.000000 6.973450 
# 
# 
# High freq. dielectric constant tensor:
#      x y z
#    x 2.399070 0.000000 0.000000 
#    y 0.000000 2.276940 0.000000 
#    z 0.000000 0.000000 2.366550 
# 
# From -- ./inp_files/729.got.cif
#   From: 2010.03.12/outbox.cif.g09.slc.cpg/sg70_1_cif.got.tgz:729.got - 2010.04.16 13:46:32.
