data_PCOD8285580
_publ_section_title
;
Structure prediction by ZEFSAII (Michael W. Deem and Ramdas Pophale) SiO2 
 PCOD8285580
Probable space group: F M M M
;
_chemical_formula_sum "Si O2"
_cell_formula_units_Z 208
_cell_length_a 17.751760
_cell_length_b 22.367799
_cell_length_c 27.647732
_cell_angle_alpha 90.000000
_cell_angle_beta 90.000000
_cell_angle_gamma 90.000000
_cell_volume 10978.024109
_symmetry_space_group_name_H-M "F M M M"
_symmetry_group_IT_number 69
_symmetry_cell_setting 'orthorhombic'
loop_
_space_group_symop_operation_xyz
x,y,z
-x,-y,z
x,-y,-z
-x,y,-z
-x,-y,-z
x,y,-z
-x,y,z
x,-y,z
x,1/2+y,1/2+z
-x,1/2-y,1/2+z
x,1/2-y,1/2-z
-x,1/2+y,1/2-z
-x,1/2-y,1/2-z
x,1/2+y,1/2-z
-x,1/2+y,1/2+z
x,1/2-y,1/2+z
1/2+x,y,1/2+z
1/2-x,-y,1/2+z
1/2+x,-y,1/2-z
1/2-x,y,1/2-z
1/2-x,-y,1/2-z
1/2+x,y,1/2-z
1/2-x,y,1/2+z
1/2+x,-y,1/2+z
1/2+x,1/2+y,z
1/2-x,1/2-y,z
1/2+x,1/2-y,-z
1/2-x,1/2+y,-z
1/2-x,1/2-y,-z
1/2+x,1/2+y,-z
1/2-x,1/2+y,z
1/2+x,1/2-y,z
loop_
_atom_site_type_symbol
_atom_site_label
_atom_site_fract_x
_atom_site_fract_y
_atom_site_fract_z
Si Si1 0.587420 0.239726 0.556309
Si Si2 0.084779 0.071105 0.291002
Si Si3 0.087293 0.934867 0.185672
Si Si4 0.414120 0.429377 0.000000
Si Si5 0.807593 0.430934 0.875831
Si Si6 0.347617 0.626004 0.096581
Si Si7 0.416444 0.125227 0.943540
O O1 0.600185 0.225099 0.500000
O O2 0.500000 0.228914 0.569583
O O3 0.641541 0.196552 0.587347
O O4 0.611418 0.307466 0.568310
O O5 0.115625 0.090509 0.237689
O O6 0.146458 0.094532 0.329521
O O7 0.000000 0.096722 0.301458
O O8 0.081193 0.000000 0.294231
O O9 0.099667 0.890439 0.141546
O O10 0.000000 0.945261 0.192998
O O11 0.125084 0.000000 0.174601
O O12 0.370798 0.408890 0.951960
O O13 0.415718 0.500000 0.000000
O O14 0.500000 0.403934 0.000000
O O15 0.783409 0.500000 0.869874
O O16 0.736223 0.389374 0.886340
O O17 0.862516 0.424585 0.921410
O O18 0.500000 0.115888 0.922358
O O19 0.417108 0.114726 0.000000
#
# Coordination Sequence:
#
# PCOD8285580 Si02
#       7
#    32  32  32  16  32  32  32
#     4   9  18  36  58  77 100 137 188 232 264 308
#     4   8  16  33  55  75  99 138 184 227 270 318
#     4   9  17  31  52  77 104 137 185 233 266 311
#     4  11  22  34  48  69 105 151 188 217 255 307
#     4  11  23  35  51  79 115 147 173 214 273 335
#     4  12  22  32  50  79 112 148 177 213 267 322
#     4   9  20  38  59  79  99 134 186 236 275 316
#
# _framework density 18.946943999999998
#
# number of rings (size 3 to 8) (size 9 to 14) (size 15 to 20)
#    0.000    2.231    0.769    5.077    1.077    3.692 
#    0.000    4.615    0.000    0.923    0.000    6.462 
#    0.000    0.000    0.000    0.000    0.000    0.000 
#
# Total GULP energy -644486.227175 kJ/mol
# GULP energy per Si atom -12393.965907 kJ/mol
# Density = 1.890382 g / cm^3
# Si number density = 18.946944 Si / 1000 Ang^3
#
#
#
# Elastic Constant Matrix: (Units=GPa)
#
#
# Indices 1 2 3 4 5 6 
#
# 1 71.4693 10.9461 46.3490 0.0000 0.0000 0.0000
# 2 10.9461 20.8872 21.9408 0.0000 0.0000 0.0000
# 3 46.3490 21.9408 99.1404 0.0000 0.0000 0.0000
# 4 0.0000 0.0000 0.0000 15.5340 0.0000 0.0000
# 5 0.0000 0.0000 0.0000 0.0000 14.4886 0.0000
# 6 0.0000 0.0000 0.0000 0.0000 0.0000 11.7241
#
#
#
# Elastic Compliance Matrix: (Units=1/GPa)
#
#
# Indices 1 2 3 4 5 6 
#
# 1 0.020092 -0.000863 -0.009202 0.000000 0.000000 0.000000
# 2 -0.000863 0.062414 -0.013409 0.000000 0.000000 0.000000
# 3 -0.009202 -0.013409 0.017356 0.000000 0.000000 0.000000
# 4 0.000000 0.000000 0.000000 0.064375 0.000000 0.000000
# 5 0.000000 0.000000 0.000000 0.000000 0.069020 0.000000
# 6 0.000000 0.000000 0.000000 0.000000 0.000000 0.085295
#
#
# Mechanical properties :
#
#
# Convention : Reuss Voigt Hill
#
# Bulk Modulus (GPa) = 18.89882 38.88541 28.89211
# Shear Modulus (GPa) = 13.05010 15.83340 14.44175
#
# Velocity S-wave (km/s) = 2.62729 2.89393 2.76383
# Velocity P-wave (km/s) = 4.38176 5.63332 5.04649
#
# Compressibility (1/GPa) = 0.05291337
#
# Stress axis : x y z
#
# Youngs Moduli (GPa) = 49.77111 16.02201 57.61549
#
# Poissons Ratio (x) = 0.01383 0.53019
# Poissons Ratio (y) = 0.04295 0.77259
# Poissons Ratio (z) = 0.45800 0.21485
#
# Static dielectric constant tensor:
#      x y z
#    x 3.475030 0.000000 0.000000 
#    y 0.000000 3.283970 0.000000 
#    z 0.000000 0.000000 3.652140 
# 
# 
# High freq. dielectric constant tensor:
#      x y z
#    x 1.731250 0.000000 0.000000 
#    y 0.000000 1.705670 0.000000 
#    z 0.000000 0.000000 1.739880 
# 
# From -- ./inp_files/42135.got.cif
#   From: 2010.03.12/outbox.cif.g09.slc.cpg/sg69_22_cif.got.tgz:42135.got - 2010.04.10 23:52:46.
