data_PCOD8285295
_publ_section_title
;
Structure prediction by ZEFSAII (Michael W. Deem and Ramdas Pophale) SiO2 
 PCOD8285295
Probable space group: F M M M
;
_chemical_formula_sum "Si O2"
_cell_formula_units_Z 176
_cell_length_a 26.900702
_cell_length_b 18.295491
_cell_length_c 17.010538
_cell_angle_alpha 90.000000
_cell_angle_beta 90.000000
_cell_angle_gamma 90.000000
_cell_volume 8371.932771
_symmetry_space_group_name_H-M "F M M M"
_symmetry_group_IT_number 69
_symmetry_cell_setting 'orthorhombic'
loop_
_space_group_symop_operation_xyz
x,y,z
-x,-y,z
x,-y,-z
-x,y,-z
-x,-y,-z
x,y,-z
-x,y,z
x,-y,z
x,1/2+y,1/2+z
-x,1/2-y,1/2+z
x,1/2-y,1/2-z
-x,1/2+y,1/2-z
-x,1/2-y,1/2-z
x,1/2+y,1/2-z
-x,1/2+y,1/2+z
x,1/2-y,1/2+z
1/2+x,y,1/2+z
1/2-x,-y,1/2+z
1/2+x,-y,1/2-z
1/2-x,y,1/2-z
1/2-x,-y,1/2-z
1/2+x,y,1/2-z
1/2-x,y,1/2+z
1/2+x,-y,1/2+z
1/2+x,1/2+y,z
1/2-x,1/2-y,z
1/2+x,1/2-y,-z
1/2-x,1/2+y,-z
1/2-x,1/2-y,-z
1/2+x,1/2+y,-z
1/2-x,1/2+y,z
1/2+x,1/2-y,z
loop_
_atom_site_type_symbol
_atom_site_label
_atom_site_fract_x
_atom_site_fract_y
_atom_site_fract_z
Si Si1 0.058086 0.582023 0.195253
Si Si2 0.556126 0.414490 0.000000
Si Si3 0.895164 0.647998 0.345989
Si Si4 0.277169 0.319583 0.409477
Si Si5 0.387476 0.192507 0.093424
Si Si6 0.712473 0.585073 0.179687
O O1 0.081377 0.500000 0.196972
O O2 0.069411 0.624599 0.275369
O O3 0.077937 0.625952 0.119942
O O4 0.000000 0.575966 0.185229
O O5 0.588222 0.393519 0.924247
O O6 0.549455 0.500000 0.000000
O O7 0.500000 0.379278 0.000000
O O8 0.902282 0.733758 0.361381
O O9 0.838848 0.629372 0.320399
O O10 0.283060 0.302335 0.500000
O O11 0.250000 0.250000 0.368674
O O12 0.332565 0.329594 0.376691
O O13 0.243964 0.392062 0.397182
O O14 0.392539 0.204092 0.000000
O O15 0.699909 0.500000 0.179298
O O16 0.750000 0.607566 0.250000
#
# Coordination Sequence:
#
# PCOD8285295 Si02
#       6
#    32  16  32  32  32  32
#     4  11  26  47  69  95 133 181 231 283 341 404
#     4  11  24  40  64  99 137 177 221 276 347 420
#     4  12  23  43  69  99 137 176 223 286 346 413
#     4  10  21  39  61  87 127 168 208 256 313 384
#     4  11  24  44  69 101 135 174 225 282 340 406
#     4  11  24  39  61  96 133 172 220 270 326 397
#
# _framework density 21.022625000000001
#
# number of rings (size 3 to 8) (size 9 to 14) (size 15 to 20)
#    0.000    1.000    2.727    3.818    1.273    7.273 
#    0.000    2.727    0.000    0.000    0.000    0.000 
#    0.000    0.000    0.000    0.000    0.000    0.000 
#
# Total GULP energy -545554.606887 kJ/mol
# GULP energy per Si atom -12398.968338 kJ/mol
# Density = 2.097478 g / cm^3
# Si number density = 21.022625 Si / 1000 Ang^3
#
#
#
# Elastic Constant Matrix: (Units=GPa)
#
#
# Indices 1 2 3 4 5 6 
#
# 1 109.3831 48.4937 37.5460 0.0000 0.0000 0.0000
# 2 48.4937 118.0694 45.5899 0.0000 0.0000 0.0000
# 3 37.5460 45.5899 76.8224 0.0000 0.0000 0.0000
# 4 0.0000 0.0000 0.0000 24.7982 0.0000 0.0000
# 5 0.0000 0.0000 0.0000 0.0000 39.7406 0.0000
# 6 0.0000 0.0000 0.0000 0.0000 0.0000 34.3562
#
#
#
# Elastic Compliance Matrix: (Units=1/GPa)
#
#
# Indices 1 2 3 4 5 6 
#
# 1 0.011978 -0.003450 -0.003807 0.000000 0.000000 0.000000
# 2 -0.003450 0.011981 -0.005424 0.000000 0.000000 0.000000
# 3 -0.003807 -0.005424 0.018096 0.000000 0.000000 0.000000
# 4 0.000000 0.000000 0.000000 0.040326 0.000000 0.000000
# 5 0.000000 0.000000 0.000000 0.000000 0.025163 0.000000
# 6 0.000000 0.000000 0.000000 0.000000 0.000000 0.029107
#
#
# Mechanical properties :
#
#
# Convention : Reuss Voigt Hill
#
# Bulk Modulus (GPa) = 59.90100 63.05934 61.48017
# Shear Modulus (GPa) = 29.83695 31.28868 30.56282
#
# Velocity S-wave (km/s) = 3.77142 3.86208 3.81702
# Velocity P-wave (km/s) = 6.89349 7.06743 6.98100
#
# Compressibility (1/GPa) = 0.01669421
#
# Stress axis : x y z
#
# Youngs Moduli (GPa) = 83.48384 83.46660 55.25933
#
# Poissons Ratio (x) = 0.28794 0.21037
# Poissons Ratio (y) = 0.28800 0.29972
# Poissons Ratio (z) = 0.31782 0.45272
#
# Static dielectric constant tensor:
#      x y z
#    x 4.086750 0.000000 0.000000 
#    y 0.000000 3.868160 0.000000 
#    z 0.000000 0.000000 3.748350 
# 
# 
# High freq. dielectric constant tensor:
#      x y z
#    x 1.837530 0.000000 0.000000 
#    y 0.000000 1.828260 0.000000 
#    z 0.000000 0.000000 1.822750 
# 
# From -- ./inp_files/26780.got.cif
#   From: 2010.03.12/outbox.cif.g09.slc.cpg/sg69_14_cif.got.tgz:26780.got - 2010.04.10 23:52:46.
