data_PCOD8285173
_publ_section_title
;
Structure prediction by ZEFSAII (Michael W. Deem and Ramdas Pophale) SiO2 
 PCOD8285173
Probable space group: F M M M
;
_chemical_formula_sum "Si O2"
_cell_formula_units_Z 160
_cell_length_a 17.862023
_cell_length_b 30.074094
_cell_length_c 15.321657
_cell_angle_alpha 90.000000
_cell_angle_beta 90.000000
_cell_angle_gamma 90.000000
_cell_volume 8230.551426
_symmetry_space_group_name_H-M "F M M M"
_symmetry_group_IT_number 69
_symmetry_cell_setting 'orthorhombic'
loop_
_space_group_symop_operation_xyz
x,y,z
-x,-y,z
x,-y,-z
-x,y,-z
-x,-y,-z
x,y,-z
-x,y,z
x,-y,z
x,1/2+y,1/2+z
-x,1/2-y,1/2+z
x,1/2-y,1/2-z
-x,1/2+y,1/2-z
-x,1/2-y,1/2-z
x,1/2+y,1/2-z
-x,1/2+y,1/2+z
x,1/2-y,1/2+z
1/2+x,y,1/2+z
1/2-x,-y,1/2+z
1/2+x,-y,1/2-z
1/2-x,y,1/2-z
1/2-x,-y,1/2-z
1/2+x,y,1/2-z
1/2-x,y,1/2+z
1/2+x,-y,1/2+z
1/2+x,1/2+y,z
1/2-x,1/2-y,z
1/2+x,1/2-y,-z
1/2-x,1/2+y,-z
1/2-x,1/2-y,-z
1/2+x,1/2+y,-z
1/2-x,1/2+y,z
1/2+x,1/2-y,z
loop_
_atom_site_type_symbol
_atom_site_label
_atom_site_fract_x
_atom_site_fract_y
_atom_site_fract_z
Si Si1 0.084533 0.070261 0.595608
Si Si2 0.911951 0.677511 0.500000
Si Si3 0.913478 0.671082 0.861566
Si Si4 0.333652 0.049260 0.739268
Si Si5 0.835421 0.268873 0.000000
Si Si6 0.088528 0.134682 0.823108
O O1 0.104902 0.052255 0.500000
O O2 0.095243 0.123140 0.595672
O O3 0.135939 0.044829 0.663034
O O4 0.000000 0.058551 0.621134
O O5 0.892455 0.728615 0.500000
O O6 0.878477 0.655188 0.587682
O O7 0.000000 0.671617 0.500000
O O8 0.855331 0.703321 0.912116
O O9 0.890034 0.666452 0.759091
O O10 0.000000 0.688073 0.870643
O O11 0.250000 0.066847 0.750000
O O12 0.379175 0.084967 0.683316
O O13 0.337383 0.000000 0.695477
O O14 0.750000 0.250000 0.000000
O O15 0.000000 0.129495 0.825600
#
# Coordination Sequence:
#
# PCOD8285173 Si02
#       6
#    32  16  32  32  16  32
#     4   9  17  32  59  88 109 139 186 238 290 341
#     4  10  22  40  57  80 110 143 193 243 276 317
#     4   9  17  35  60  82 108 145 184 227 282 337
#     4  10  21  36  53  81 117 152 186 224 283 350
#     4  12  24  34  52  87 118 147 184 223 274 343
#     4   9  20  39  62  82 106 146 193 239 283 326
#
# _framework density 19.439767
#
# number of rings (size 3 to 8) (size 9 to 14) (size 15 to 20)
#    0.000    2.400    1.000    2.700    0.000    6.000 
#    1.800    5.500    0.000    1.800    0.000    0.000 
#    0.000    0.000    0.000    0.000    0.000    0.000 
#
# Total GULP energy -495751.193595 kJ/mol
# GULP energy per Si atom -12393.779840 kJ/mol
# Density = 1.939552 g / cm^3
# Si number density = 19.439767 Si / 1000 Ang^3
#
#
#
# Elastic Constant Matrix: (Units=GPa)
#
#
# Indices 1 2 3 4 5 6 
#
# 1 56.8603 20.7049 43.0795 0.0000 0.0000 0.0000
# 2 20.7049 89.0710 52.0558 0.0000 0.0000 0.0000
# 3 43.0795 52.0558 132.3238 0.0000 0.0000 0.0000
# 4 0.0000 0.0000 0.0000 -1.1592 0.0000 0.0000
# 5 0.0000 0.0000 0.0000 0.0000 -10.1297 0.0000
# 6 0.0000 0.0000 0.0000 0.0000 0.0000 37.7064
#
#
#
# Elastic Compliance Matrix: (Units=1/GPa)
#
#
# Indices 1 2 3 4 5 6 
#
# 1 0.023458 -0.001285 -0.007131 0.000000 0.000000 0.000000
# 2 -0.001285 0.014649 -0.005345 0.000000 0.000000 0.000000
# 3 -0.007131 -0.005345 0.011982 0.000000 0.000000 0.000000
# 4 0.000000 0.000000 0.000000 -0.862698 0.000000 0.000000
# 5 0.000000 0.000000 0.000000 0.000000 -0.098719 0.000000
# 6 0.000000 0.000000 0.000000 0.000000 0.000000 0.026521
#
#
# Mechanical properties :
#
#
# Convention : Reuss Voigt Hill
#
# Bulk Modulus (GPa) = 44.31354 56.65950 50.48652
# Shear Modulus (GPa) = -5.88399 16.11117 5.11359
#
# Velocity S-wave (km/s) = -1.74165 2.88197 1.62363
# Velocity P-wave (km/s) = 4.33593 6.34695 5.43526
#
# Compressibility (1/GPa) = 0.02256647
#
# Stress axis : x y z
#
# Youngs Moduli (GPa) = 42.62947 68.26275 83.46192
#
# Poissons Ratio (x) = 0.08772 0.59521
# Poissons Ratio (y) = 0.05478 0.44607
# Poissons Ratio (z) = 0.30401 0.36484
#
# Static dielectric constant tensor:
#      x y z
#    x 3.387710 0.000000 0.000000 
#    y 0.000000 3.540160 0.000000 
#    z 0.000000 0.000000 3.907330 
# 
# 
# High freq. dielectric constant tensor:
#      x y z
#    x 1.740070 0.000000 0.000000 
#    y 0.000000 1.755150 0.000000 
#    z 0.000000 0.000000 1.757090 
# 
# From -- ./inp_files/15685.got.cif
#   From: 2010.03.12/outbox.cif.g09.slc.cpg/sg69_8_cif.got.tgz:15685.got - 2010.04.10 23:52:46.
