data_PCOD8285780
_publ_section_title
;
Structure prediction by ZEFSAII (Michael W. Deem and Ramdas Pophale) SiO2 
 PCOD8285780
Probable space group: F D D D
;
_chemical_formula_sum "Si O2"
_cell_formula_units_Z 168
_cell_length_a 24.760654
_cell_length_b 30.995920
_cell_length_c 13.225918
_cell_angle_alpha 90.000000
_cell_angle_beta 90.000000
_cell_angle_gamma 90.000000
_cell_volume 10150.617634
_symmetry_space_group_name_H-M "F D D D"
_symmetry_group_IT_number 70
_space_group.IT_coordinate_system_code '2'
_symmetry_cell_setting 'orthorhombic'
loop_
_space_group_symop_operation_xyz
x,y,z
1/4-x,1/4-y,z
x,1/4-y,1/4-z
1/4-x,y,1/4-z
-x,-y,-z
3/4+x,3/4+y,-z
-x,3/4+y,3/4+z
3/4+x,-y,3/4+z
x,1/2+y,1/2+z
1/4-x,3/4-y,1/2+z
x,3/4-y,3/4-z
1/4-x,1/2+y,3/4-z
-x,1/2-y,1/2-z
3/4+x,1/4+y,1/2-z
-x,1/4+y,1/4+z
3/4+x,1/2-y,1/4+z
1/2+x,y,1/2+z
3/4-x,1/4-y,1/2+z
1/2+x,1/4-y,3/4-z
3/4-x,y,3/4-z
1/2-x,-y,1/2-z
1/4+x,3/4+y,1/2-z
1/2-x,3/4+y,1/4+z
1/4+x,-y,1/4+z
1/2+x,1/2+y,z
3/4-x,3/4-y,z
1/2+x,3/4-y,1/4-z
3/4-x,1/2+y,1/4-z
1/2-x,1/2-y,-z
1/4+x,1/4+y,-z
1/2-x,1/4+y,3/4+z
1/4+x,1/2-y,3/4+z
loop_
_atom_site_type_symbol
_atom_site_label
_atom_site_fract_x
_atom_site_fract_y
_atom_site_fract_z
Si Si1 0.875000 0.375000 0.875000
Si Si2 0.786299 0.615994 0.832674
Si Si3 0.719361 0.043784 0.254019
Si Si4 0.037243 0.179383 0.533002
Si Si5 0.645156 0.400447 0.474390
Si Si6 0.638854 0.752517 0.740722
O O1 0.908529 0.348400 0.957354
O O2 0.744098 0.575984 0.837239
O O3 0.755276 0.659642 0.797025
O O4 0.833791 0.609464 0.752725
O O5 0.812249 0.617792 0.943628
O O6 0.732443 0.068778 0.149257
O O7 0.750000 0.000000 0.250000
O O8 0.657770 0.030335 0.280026
O O9 0.054286 0.227395 0.497118
O O10 0.661720 0.375000 0.375000
O O11 0.647004 0.452053 0.452746
O O12 0.625000 0.764492 0.625000
#
# Coordination Sequence:
#
# PCOD8285780 Si02
#       6
#     8  32  32  32  32  32
#     4  12  16  28  48  84 118 128 156 216 292 322
#     4  11  20  33  52  78 106 144 181 212 278 327
#     4  11  17  27  50  79 108 134 166 218 281 328
#     4  11  19  30  49  81 112 135 163 218 274 334
#     4  11  22  37  51  73 108 145 185 225 259 324
#     4  10  18  33  51  79 112 131 171 227 279 322
#
# _framework density 16.550718
#
# number of rings (size 3 to 8) (size 9 to 14) (size 15 to 20)
#    0.000    1.143    8.571    2.286    0.000    0.000 
#    0.000    0.952    0.000    0.000    0.000    4.667 
#    0.000    0.000    0.000    0.000    0.000    0.000 
#
# Total GULP energy -520317.319994 kJ/mol
# GULP energy per Si atom -12388.507619 kJ/mol
# Density = 1.651305 g / cm^3
# Si number density = 16.550718 Si / 1000 Ang^3
#
#
#
# Elastic Constant Matrix: (Units=GPa)
#
#
# Indices 1 2 3 4 5 6 
#
# 1 73.7153 44.3907 32.8388 0.0000 0.0000 0.0000
# 2 44.3907 115.3106 45.0323 0.0000 0.0000 0.0000
# 3 32.8388 45.0323 66.0201 0.0000 -0.0001 0.0000
# 4 0.0000 0.0000 0.0000 26.1841 0.0000 0.0000
# 5 0.0000 0.0000 -0.0001 0.0000 22.7543 0.0000
# 6 0.0000 0.0000 0.0000 0.0000 0.0000 35.0536
#
#
#
# Elastic Compliance Matrix: (Units=1/GPa)
#
#
# Indices 1 2 3 4 5 6 
#
# 1 0.019356 -0.005032 -0.006195 0.000000 0.000000 0.000000
# 2 -0.005032 0.013129 -0.006453 0.000000 0.000000 0.000000
# 3 -0.006195 -0.006453 0.022630 0.000000 0.000000 0.000000
# 4 0.000000 0.000000 0.000000 0.038191 0.000000 0.000000
# 5 0.000000 0.000000 0.000000 0.000000 0.043948 0.000000
# 6 0.000000 0.000000 0.000000 0.000000 0.000000 0.028528
#
#
# Mechanical properties :
#
#
# Convention : Reuss Voigt Hill
#
# Bulk Modulus (GPa) = 50.61977 55.50775 53.06376
# Shear Modulus (GPa) = 24.07013 25.65068 24.86041
#
# Velocity S-wave (km/s) = 3.81770 3.94105 3.87986
# Velocity P-wave (km/s) = 7.07701 7.37021 7.22510
#
# Compressibility (1/GPa) = 0.01975513
#
# Stress axis : x y z
#
# Youngs Moduli (GPa) = 51.66412 76.16583 44.18935
#
# Poissons Ratio (x) = 0.38325 0.27377
# Poissons Ratio (y) = 0.25996 0.28514
# Poissons Ratio (z) = 0.32008 0.49147
#
# Static dielectric constant tensor:
#      x y z
#    x 1.731760 0.000000 0.000000 
#    y 0.000000 3.262280 0.000000 
#    z 0.000000 0.000000 2.558850 
# 
# 
# High freq. dielectric constant tensor:
#      x y z
#    x 1.641080 0.000000 0.000000 
#    y 0.000000 1.654510 0.000000 
#    z 0.000000 0.000000 1.580090 
# 
# From -- ./inp_files/30234.got.cif
#   From: 2010.03.12/outbox.cif.g09.slc.cpg/sg70_16_cif.got.tgz:30234.got - 2010.04.16 13:46:32.
