data_PCOD8285349
_publ_section_title
;
Structure prediction by ZEFSAII (Michael W. Deem and Ramdas Pophale) SiO2 
 PCOD8285349
Probable space group: F M M M
;
_chemical_formula_sum "Si O2"
_cell_formula_units_Z 152
_cell_length_a 29.983964
_cell_length_b 13.094325
_cell_length_c 19.761035
_cell_angle_alpha 90.000000
_cell_angle_beta 90.000000
_cell_angle_gamma 90.000000
_cell_volume 7758.573005
_symmetry_space_group_name_H-M "F M M M"
_symmetry_group_IT_number 69
_symmetry_cell_setting 'orthorhombic'
loop_
_space_group_symop_operation_xyz
x,y,z
-x,-y,z
x,-y,-z
-x,y,-z
-x,-y,-z
x,y,-z
-x,y,z
x,-y,z
x,1/2+y,1/2+z
-x,1/2-y,1/2+z
x,1/2-y,1/2-z
-x,1/2+y,1/2-z
-x,1/2-y,1/2-z
x,1/2+y,1/2-z
-x,1/2+y,1/2+z
x,1/2-y,1/2+z
1/2+x,y,1/2+z
1/2-x,-y,1/2+z
1/2+x,-y,1/2-z
1/2-x,y,1/2-z
1/2-x,-y,1/2-z
1/2+x,y,1/2-z
1/2-x,y,1/2+z
1/2+x,-y,1/2+z
1/2+x,1/2+y,z
1/2-x,1/2-y,z
1/2+x,1/2-y,-z
1/2-x,1/2+y,-z
1/2-x,1/2-y,-z
1/2+x,1/2+y,-z
1/2-x,1/2+y,z
1/2+x,1/2-y,z
loop_
_atom_site_type_symbol
_atom_site_label
_atom_site_fract_x
_atom_site_fract_y
_atom_site_fract_z
Si Si1 0.750000 0.250000 0.750000
Si Si2 0.884360 0.323724 0.383625
Si Si3 0.824892 0.886543 0.771394
Si Si4 0.449347 0.000000 0.420251
Si Si5 0.150675 0.384246 0.115739
Si Si6 0.817959 0.117206 0.000000
Si Si7 0.719368 0.120052 0.000000
O O1 0.782019 0.178474 0.795610
O O2 0.869123 0.343158 0.306603
O O3 0.927990 0.393214 0.394766
O O4 0.889772 0.199742 0.392699
O O5 0.845393 0.358096 0.433192
O O6 0.829977 0.879527 0.691010
O O7 0.816021 0.000000 0.796818
O O8 0.500000 0.000000 0.394560
O O9 0.445372 0.000000 0.500000
O O10 0.133246 0.500000 0.099590
O O11 0.190457 0.349496 0.065931
O O12 0.769173 0.173200 0.000000
O O13 0.807353 0.000000 0.000000
O O14 0.726489 0.000000 0.000000
#
# Coordination Sequence:
#
# PCOD8285349 Si02
#       7
#     8  32  32  16  32  16  16
#     4  12  22  36  48  84 118 180 206 258 280 342
#     4  12  20  39  61  86 115 154 195 247 307 355
#     4  11  23  36  54  81 121 162 216 249 294 340
#     4  11  24  44  70  99 118 137 185 248 319 378
#     4  10  22  38  54  83 119 168 206 246 276 344
#     4  11  21  33  54  84 117 163 197 253 286 342
#     4   9  21  35  49  75 122 162 213 234 278 316
#
# _framework density 19.591232000000002
#
# number of rings (size 3 to 8) (size 9 to 14) (size 15 to 20)
#    0.000    1.158    5.263    0.947    2.947    1.684 
#    0.000    0.000    0.000    3.158    0.000    1.474 
#    0.000    0.000    0.000    0.000    0.000    0.000 
#
# Total GULP energy -470795.890068 kJ/mol
# GULP energy per Si atom -12389.365528 kJ/mol
# Density = 1.954664 g / cm^3
# Si number density = 19.591232 Si / 1000 Ang^3
#
#
#
# Elastic Constant Matrix: (Units=GPa)
#
#
# Indices 1 2 3 4 5 6 
#
# 1 112.0065 71.1209 31.5973 0.0000 0.0000 0.0000
# 2 71.1209 149.8378 5.0690 0.0000 0.0000 0.0000
# 3 31.5973 5.0690 100.2026 0.0000 0.0000 0.0000
# 4 0.0000 0.0000 0.0000 -43.1903 0.0000 0.0000
# 5 0.0000 0.0000 0.0000 0.0000 18.5104 0.0000
# 6 0.0000 0.0000 0.0000 0.0000 0.0000 19.7622
#
#
#
# Elastic Compliance Matrix: (Units=1/GPa)
#
#
# Indices 1 2 3 4 5 6 
#
# 1 0.014341 -0.006665 -0.004185 0.000000 0.000000 0.000000
# 2 -0.006665 0.009783 0.001607 0.000000 0.000000 0.000000
# 3 -0.004185 0.001607 0.011218 0.000000 0.000000 0.000000
# 4 0.000000 0.000000 0.000000 -0.023153 0.000000 0.000000
# 5 0.000000 0.000000 0.000000 0.000000 0.054024 0.000000
# 6 0.000000 0.000000 0.000000 0.000000 0.000000 0.050602
#
#
# Mechanical properties :
#
#
# Convention : Reuss Voigt Hill
#
# Bulk Modulus (GPa) = 59.32809 64.18015 61.75412
# Shear Modulus (GPa) = 35.48119 15.96712 25.72415
#
# Velocity S-wave (km/s) = 4.26029 2.85794 3.62753
# Velocity P-wave (km/s) = 7.38572 6.61220 7.00964
#
# Compressibility (1/GPa) = 0.01685542
#
# Stress axis : x y z
#
# Youngs Moduli (GPa) = 69.73012 102.21524 89.14106
#
# Poissons Ratio (x) = 0.68131 0.37306
# Poissons Ratio (y) = 0.46478 -0.14324
# Poissons Ratio (z) = 0.29182 -0.16425
#
# Static dielectric constant tensor:
#      x y z
#    x 3.199920 0.000000 0.000000 
#    y 0.000000 4.364440 0.000000 
#    z 0.000000 0.000000 3.615110 
# 
# 
# High freq. dielectric constant tensor:
#      x y z
#    x 1.692640 0.000000 0.000000 
#    y 0.000000 1.803660 0.000000 
#    z 0.000000 0.000000 1.768130 
# 
# From -- ./inp_files/33381.got.cif
#   From: 2010.03.12/outbox.cif.g09.slc.cpg/sg69_17_cif.got.tgz:33381.got - 2010.04.10 23:52:46.
