data_PCOD8285438
_publ_section_title
;
Structure prediction by ZEFSAII (Michael W. Deem and Ramdas Pophale) SiO2 
 PCOD8285438
Probable space group: F M M M
;
_chemical_formula_sum "Si O2"
_cell_formula_units_Z 112
_cell_length_a 19.759905
_cell_length_b 10.193970
_cell_length_c 24.678437
_cell_angle_alpha 90.000000
_cell_angle_beta 90.000000
_cell_angle_gamma 90.000000
_cell_volume 4971.023930
_symmetry_space_group_name_H-M "F M M M"
_symmetry_group_IT_number 69
_symmetry_cell_setting 'orthorhombic'
loop_
_space_group_symop_operation_xyz
x,y,z
-x,-y,z
x,-y,-z
-x,y,-z
-x,-y,-z
x,y,-z
-x,y,z
x,-y,z
x,1/2+y,1/2+z
-x,1/2-y,1/2+z
x,1/2-y,1/2-z
-x,1/2+y,1/2-z
-x,1/2-y,1/2-z
x,1/2+y,1/2-z
-x,1/2+y,1/2+z
x,1/2-y,1/2+z
1/2+x,y,1/2+z
1/2-x,-y,1/2+z
1/2+x,-y,1/2-z
1/2-x,y,1/2-z
1/2-x,-y,1/2-z
1/2+x,y,1/2-z
1/2-x,y,1/2+z
1/2+x,-y,1/2+z
1/2+x,1/2+y,z
1/2-x,1/2-y,z
1/2+x,1/2-y,-z
1/2-x,1/2+y,-z
1/2-x,1/2-y,-z
1/2+x,1/2+y,-z
1/2-x,1/2+y,z
1/2+x,1/2-y,z
loop_
_atom_site_type_symbol
_atom_site_label
_atom_site_fract_x
_atom_site_fract_y
_atom_site_fract_z
Si Si1 0.578371 0.000000 0.794425
Si Si2 0.803913 0.349677 0.638159
Si Si3 0.079262 0.500000 0.912597
Si Si4 0.921285 0.215983 0.060034
Si Si5 0.644732 0.750000 0.750000
O O1 0.614758 0.000000 0.853285
O O2 0.597406 0.127796 0.761596
O O3 0.500000 0.000000 0.803716
O O4 0.776889 0.500000 0.640547
O O5 0.750000 0.250000 0.609538
O O6 0.874311 0.352966 0.604687
O O7 0.810908 0.291837 0.698561
O O8 0.099757 0.369014 0.944417
O O9 0.000000 0.500000 0.904391
O O10 0.000000 0.197602 0.077642
O O11 0.909828 0.155050 0.000000
#
# Coordination Sequence:
#
# PCOD8285438 Si02
#       5
#    16  32  16  32  16
#     4  11  22  37  66 106 143 180 225 282 343 407
#     4  12  29  47  70 101 138 184 232 281 342 409
#     4   9  17  34  64 102 137 172 219 272 337 403
#     4  10  22  43  72 104 138 177 226 285 346 408
#     4  12  24  44  68  98 139 186 233 278 337 408
#
# _framework density 22.530569
#
# number of rings (size 3 to 8) (size 9 to 14) (size 15 to 20)
#    0.000    1.143    4.286    1.286    4.000    5.714 
#    0.000    1.429    0.000    0.000    0.000    0.000 
#    0.000    0.000    0.000    0.000    0.000    0.000 
#
# Total GULP energy -347044.385753 kJ/mol
# GULP energy per Si atom -12394.442348 kJ/mol
# Density = 2.247929 g / cm^3
# Si number density = 22.530569 Si / 1000 Ang^3
#
#
#
# Elastic Constant Matrix: (Units=GPa)
#
#
# Indices 1 2 3 4 5 6 
#
# 1 92.1591 40.7582 46.4785 0.0000 0.0000 0.0000
# 2 40.7582 163.8904 28.4639 0.0000 0.0000 0.0000
# 3 46.4785 28.4639 115.5507 0.0000 0.0000 0.0000
# 4 0.0000 0.0000 0.0000 16.2919 0.0000 0.0000
# 5 0.0000 0.0000 0.0000 0.0000 25.3790 0.0000
# 6 0.0000 0.0000 0.0000 0.0000 0.0000 37.5627
#
#
#
# Elastic Compliance Matrix: (Units=1/GPa)
#
#
# Indices 1 2 3 4 5 6 
#
# 1 0.014708 -0.002748 -0.005239 0.000000 0.000000 0.000000
# 2 -0.002748 0.006888 -0.000591 0.000000 0.000000 0.000000
# 3 -0.005239 -0.000591 0.010907 0.000000 0.000000 0.000000
# 4 0.000000 0.000000 0.000000 0.061380 0.000000 0.000000
# 5 0.000000 0.000000 0.000000 0.000000 0.039403 0.000000
# 6 0.000000 0.000000 0.000000 0.000000 0.000000 0.026622
#
#
# Mechanical properties :
#
#
# Convention : Reuss Voigt Hill
#
# Bulk Modulus (GPa) = 65.16251 67.00015 66.08133
# Shear Modulus (GPa) = 27.44518 32.90668 30.17593
#
# Velocity S-wave (km/s) = 3.49396 3.82584 3.66366
# Velocity P-wave (km/s) = 6.72767 7.02268 6.87676
#
# Compressibility (1/GPa) = 0.01534625
#
# Stress axis : x y z
#
# Youngs Moduli (GPa) = 67.98821 145.18575 91.68150
#
# Poissons Ratio (x) = 0.39896 0.48035
# Poissons Ratio (y) = 0.18683 0.05422
# Poissons Ratio (z) = 0.35621 0.08586
#
# Static dielectric constant tensor:
#      x y z
#    x 3.857330 0.000000 0.000000 
#    y 0.000000 4.198010 0.000000 
#    z 0.000000 0.000000 4.090020 
# 
# 
# High freq. dielectric constant tensor:
#      x y z
#    x 1.871030 0.000000 0.000000 
#    y 0.000000 1.898190 0.000000 
#    z 0.000000 0.000000 1.884870 
# 
# From -- ./inp_files/41545.got.cif
#   From: 2010.03.12/outbox.cif.g09.slc.cpg/sg69_21_cif.got.tgz:41545.got - 2010.04.10 23:52:46.
