data_PCOD8285984
_publ_section_title
;
Structure prediction by ZEFSAII (Michael W. Deem and Ramdas Pophale) SiO2 
 PCOD8285984
Probable space group: F D D D
;
_chemical_formula_sum "Si O2"
_cell_formula_units_Z 168
_cell_length_a 20.513428
_cell_length_b 12.984091
_cell_length_c 34.476037
_cell_angle_alpha 90.000000
_cell_angle_beta 90.000000
_cell_angle_gamma 90.000000
_cell_volume 9182.630945
_symmetry_space_group_name_H-M "F D D D"
_symmetry_group_IT_number 70
_space_group.IT_coordinate_system_code '2'
_symmetry_cell_setting 'orthorhombic'
loop_
_space_group_symop_operation_xyz
x,y,z
1/4-x,1/4-y,z
x,1/4-y,1/4-z
1/4-x,y,1/4-z
-x,-y,-z
3/4+x,3/4+y,-z
-x,3/4+y,3/4+z
3/4+x,-y,3/4+z
x,1/2+y,1/2+z
1/4-x,3/4-y,1/2+z
x,3/4-y,3/4-z
1/4-x,1/2+y,3/4-z
-x,1/2-y,1/2-z
3/4+x,1/4+y,1/2-z
-x,1/4+y,1/4+z
3/4+x,1/2-y,1/4+z
1/2+x,y,1/2+z
3/4-x,1/4-y,1/2+z
1/2+x,1/4-y,3/4-z
3/4-x,y,3/4-z
1/2-x,-y,1/2-z
1/4+x,3/4+y,1/2-z
1/2-x,3/4+y,1/4+z
1/4+x,-y,1/4+z
1/2+x,1/2+y,z
3/4-x,3/4-y,z
1/2+x,3/4-y,1/4-z
3/4-x,1/2+y,1/4-z
1/2-x,1/2-y,-z
1/4+x,1/4+y,-z
1/2-x,1/4+y,3/4+z
1/4+x,1/2-y,3/4+z
loop_
_atom_site_type_symbol
_atom_site_label
_atom_site_fract_x
_atom_site_fract_y
_atom_site_fract_z
Si Si1 0.029383 0.327442 0.696976
Si Si2 0.072957 0.962770 0.678794
Si Si3 0.772968 0.645180 0.717078
Si Si4 0.636198 0.464170 0.903718
Si Si5 0.625000 0.625000 0.625000
Si Si6 0.476830 0.848224 0.132500
O O1 0.106005 0.316563 0.691952
O O2 0.024321 0.388452 0.736864
O O3 0.997696 0.214298 0.698561
O O4 0.996306 0.397242 0.663185
O O5 0.041110 0.861808 0.659003
O O6 0.074621 0.054589 0.647890
O O7 0.029211 0.012273 0.712528
O O8 0.842576 0.678978 0.697498
O O9 0.655852 0.375000 0.875000
O O10 0.559732 0.493615 0.896749
O O11 0.679091 0.559356 0.891356
#
# Coordination Sequence:
#
# PCOD8285984 Si02
#       6
#    32  32  32  32   8  32
#     4  11  19  33  54  85 110 138 185 244 283 343
#     4  11  19  33  55  82 110 144 187 232 290 343
#     4  10  21  32  51  81 120 142 173 237 313 329
#     4  10  20  36  53  78 117 153 185 231 285 353
#     4  12  16  28  60  80 106 140 176 240 294 312
#     4  10  20  34  58  82 107 150 197 226 276 359
#
# _framework density 18.295411000000001
#
# number of rings (size 3 to 8) (size 9 to 14) (size 15 to 20)
#    0.000    1.524    5.714    0.000    2.667    1.524 
#    3.429    0.952    0.000    6.857    0.000    0.000 
#    0.000    0.000    0.000    0.000    0.000    0.000 
#
# Total GULP energy -520335.784221 kJ/mol
# GULP energy per Si atom -12388.947243 kJ/mol
# Density = 1.825377 g / cm^3
# Si number density = 18.295411 Si / 1000 Ang^3
#
#
#
# Elastic Constant Matrix: (Units=GPa)
#
#
# Indices 1 2 3 4 5 6 
#
# 1 108.3253 29.2107 62.1704 0.0000 0.0000 0.0000
# 2 29.2107 32.4212 33.3169 0.0000 0.0000 0.0000
# 3 62.1704 33.3169 128.5010 0.0000 0.0000 0.0000
# 4 0.0000 0.0000 0.0000 19.0362 0.0000 0.0000
# 5 0.0000 0.0000 0.0000 0.0000 22.1458 0.0000
# 6 0.0000 0.0000 0.0000 0.0000 0.0000 21.2328
#
#
#
# Elastic Compliance Matrix: (Units=1/GPa)
#
#
# Indices 1 2 3 4 5 6 
#
# 1 0.014077 -0.007749 -0.004801 0.000000 0.000000 0.000000
# 2 -0.007749 0.046312 -0.008259 0.000000 0.000000 0.000000
# 3 -0.004801 -0.008259 0.012246 0.000000 0.000000 0.000000
# 4 0.000000 0.000000 0.000000 0.052532 0.000000 0.000000
# 5 0.000000 0.000000 0.000000 0.000000 0.045155 0.000000
# 6 0.000000 0.000000 0.000000 0.000000 0.000000 0.047097
#
#
# Mechanical properties :
#
#
# Convention : Reuss Voigt Hill
#
# Bulk Modulus (GPa) = 32.23965 57.62705 44.93335
# Shear Modulus (GPa) = 18.56147 22.11959 20.34053
#
# Velocity S-wave (km/s) = 3.18864 3.48087 3.33796
# Velocity P-wave (km/s) = 5.58718 6.90810 6.28245
#
# Compressibility (1/GPa) = 0.03101770
#
# Stress axis : x y z
#
# Youngs Moduli (GPa) = 71.04011 21.59261 81.65754
#
# Poissons Ratio (x) = 0.16731 0.39207
# Poissons Ratio (y) = 0.55046 0.67438
# Poissons Ratio (z) = 0.34109 0.17833
#
# Static dielectric constant tensor:
#      x y z
#    x 3.979080 0.000000 0.000000 
#    y 0.000000 3.653810 0.000000 
#    z 0.000000 0.000000 3.527600 
# 
# 
# High freq. dielectric constant tensor:
#      x y z
#    x 1.712800 0.000000 0.000000 
#    y 0.000000 1.679170 0.000000 
#    z 0.000000 0.000000 1.706950 
# 
# From -- ./inp_files/27795.got.cif
#   From: 2010.03.12/outbox.cif.g09.slc.cpg/sg70_14_cif.got.tgz:27795.got - 2010.04.16 13:46:32.
