data_PCOD8285476
_publ_section_title
;
Structure prediction by ZEFSAII (Michael W. Deem and Ramdas Pophale) SiO2 
 PCOD8285476
Probable space group: F M M M
;
_chemical_formula_sum "Si O2"
_cell_formula_units_Z 192
_cell_length_a 17.934310
_cell_length_b 29.039552
_cell_length_c 26.541335
_cell_angle_alpha 90.000000
_cell_angle_beta 90.000000
_cell_angle_gamma 90.000000
_cell_volume 13822.842134
_symmetry_space_group_name_H-M "F M M M"
_symmetry_group_IT_number 69
_symmetry_cell_setting 'orthorhombic'
loop_
_space_group_symop_operation_xyz
x,y,z
-x,-y,z
x,-y,-z
-x,y,-z
-x,-y,-z
x,y,-z
-x,y,z
x,-y,z
x,1/2+y,1/2+z
-x,1/2-y,1/2+z
x,1/2-y,1/2-z
-x,1/2+y,1/2-z
-x,1/2-y,1/2-z
x,1/2+y,1/2-z
-x,1/2+y,1/2+z
x,1/2-y,1/2+z
1/2+x,y,1/2+z
1/2-x,-y,1/2+z
1/2+x,-y,1/2-z
1/2-x,y,1/2-z
1/2-x,-y,1/2-z
1/2+x,y,1/2-z
1/2-x,y,1/2+z
1/2+x,-y,1/2+z
1/2+x,1/2+y,z
1/2-x,1/2-y,z
1/2+x,1/2-y,-z
1/2-x,1/2+y,-z
1/2-x,1/2-y,-z
1/2+x,1/2+y,-z
1/2-x,1/2+y,z
1/2+x,1/2-y,z
loop_
_atom_site_type_symbol
_atom_site_label
_atom_site_fract_x
_atom_site_fract_y
_atom_site_fract_z
Si Si1 0.911477 0.139681 0.944558
Si Si2 0.588447 0.691809 0.152931
Si Si3 0.917674 0.718458 0.200866
Si Si4 0.337857 0.358295 0.246609
Si Si5 0.411397 0.049939 0.608054
Si Si6 0.912523 0.051901 0.222828
O O1 0.886949 0.177291 0.903270
O O2 0.879187 0.089829 0.927851
O O3 0.000000 0.137134 0.946974
O O4 0.879302 0.152242 0.000000
O O5 0.500000 0.683567 0.162586
O O6 0.608626 0.746261 0.156894
O O7 0.632837 0.661235 0.193412
O O8 0.918998 0.750000 0.250000
O O9 0.863808 0.674889 0.207559
O O10 0.000000 0.698951 0.189448
O O11 0.250000 0.359802 0.250000
O O12 0.369103 0.409880 0.255653
O O13 0.500000 0.050717 0.607486
O O14 0.385414 0.057999 0.665305
O O15 0.382653 0.000000 0.588754
O O16 0.000000 0.061237 0.227973
O O17 0.893295 0.000000 0.241682
#
# Coordination Sequence:
#
# PCOD8285476 Si02
#       6
#    32  32  32  32  32  32
#     4   9  15  22  36  57  78 101 130 163 195 228
#     4   9  16  28  41  54  79 107 132 165 199 233
#     4   8  15  26  40  54  70  98 131 163 199 237
#     4  11  19  25  38  59  79 100 130 168 206 231
#     4   8  13  21  34  51  72 100 129 157 188 219
#     4   9  16  27  42  55  74 108 138 157 187 235
#
# _framework density 13.890052000000001
#
# number of rings (size 3 to 8) (size 9 to 14) (size 15 to 20)
#    0.000    3.000    1.667    3.500    0.000    3.667 
#    0.000    1.667    0.000    0.000    0.000    2.333 
#    0.000    0.000    0.000    0.000    0.000    1.000 
#
# Total GULP energy -594676.063442 kJ/mol
# GULP energy per Si atom -12389.084655 kJ/mol
# Density = 1.385844 g / cm^3
# Si number density = 13.890052 Si / 1000 Ang^3
#
#
#
# Elastic Constant Matrix: (Units=GPa)
#
#
# Indices 1 2 3 4 5 6 
#
# 1 53.3918 43.1932 16.8424 0.0000 0.0000 0.0000
# 2 43.1932 123.6038 54.1760 0.0000 0.0000 0.0000
# 3 16.8424 54.1760 63.1142 0.0000 0.0000 0.0000
# 4 0.0000 0.0000 0.0000 19.4830 0.0000 0.0000
# 5 0.0000 0.0000 0.0000 0.0000 4.5429 0.0000
# 6 0.0000 0.0000 0.0000 0.0000 0.0000 9.1600
#
#
#
# Elastic Compliance Matrix: (Units=1/GPa)
#
#
# Indices 1 2 3 4 5 6 
#
# 1 0.026187 -0.009760 0.001390 0.000000 0.000000 0.000000
# 2 -0.009760 0.016608 -0.011651 0.000000 0.000000 0.000000
# 3 0.001390 -0.011651 0.025475 0.000000 0.000000 0.000000
# 4 0.000000 0.000000 0.000000 0.051327 0.000000 0.000000
# 5 0.000000 0.000000 0.000000 0.000000 0.220122 0.000000
# 6 0.000000 0.000000 0.000000 0.000000 0.000000 0.109170
#
#
# Mechanical properties :
#
#
# Convention : Reuss Voigt Hill
#
# Bulk Modulus (GPa) = 35.42824 52.05923 43.74374
# Shear Modulus (GPa) = 10.03331 15.03039 12.53185
#
# Velocity S-wave (km/s) = 2.69055 3.29309 3.00695
# Velocity P-wave (km/s) = 5.93411 7.21250 6.60431
#
# Compressibility (1/GPa) = 0.02822607
#
# Stress axis : x y z
#
# Youngs Moduli (GPa) = 38.18714 60.21261 39.25467
#
# Poissons Ratio (x) = 0.58768 -0.05455
# Poissons Ratio (y) = 0.37271 0.45737
# Poissons Ratio (z) = -0.05307 0.70155
#
# Static dielectric constant tensor:
#      x y z
#    x 2.345740 0.000000 0.000000 
#    y 0.000000 3.112150 0.000000 
#    z 0.000000 0.000000 2.736970 
# 
# 
# High freq. dielectric constant tensor:
#      x y z
#    x 1.480430 0.000000 0.000000 
#    y 0.000000 1.542020 0.000000 
#    z 0.000000 0.000000 1.491830 
# 
# From -- ./inp_files/45936.got.cif
#   From: 2010.03.12/outbox.cif.g09.slc.cpg/sg69_23_cif.got.tgz:45936.got - 2010.04.10 23:52:46.
