data_PCOD8285423
_publ_section_title
;
Structure prediction by ZEFSAII (Michael W. Deem and Ramdas Pophale) SiO2 
 PCOD8285423
Probable space group: F M M M
;
_chemical_formula_sum "Si O2"
_cell_formula_units_Z 144
_cell_length_a 23.956789
_cell_length_b 29.814106
_cell_length_c 9.739995
_cell_angle_alpha 90.000000
_cell_angle_beta 90.000000
_cell_angle_gamma 90.000000
_cell_volume 6956.793831
_symmetry_space_group_name_H-M "F M M M"
_symmetry_group_IT_number 69
_symmetry_cell_setting 'orthorhombic'
loop_
_space_group_symop_operation_xyz
x,y,z
-x,-y,z
x,-y,-z
-x,y,-z
-x,-y,-z
x,y,-z
-x,y,z
x,-y,z
x,1/2+y,1/2+z
-x,1/2-y,1/2+z
x,1/2-y,1/2-z
-x,1/2+y,1/2-z
-x,1/2-y,1/2-z
x,1/2+y,1/2-z
-x,1/2+y,1/2+z
x,1/2-y,1/2+z
1/2+x,y,1/2+z
1/2-x,-y,1/2+z
1/2+x,-y,1/2-z
1/2-x,y,1/2-z
1/2-x,-y,1/2-z
1/2+x,y,1/2-z
1/2-x,y,1/2+z
1/2+x,-y,1/2+z
1/2+x,1/2+y,z
1/2-x,1/2-y,z
1/2+x,1/2-y,-z
1/2-x,1/2+y,-z
1/2-x,1/2-y,-z
1/2+x,1/2+y,-z
1/2-x,1/2+y,z
1/2+x,1/2-y,z
loop_
_atom_site_type_symbol
_atom_site_label
_atom_site_fract_x
_atom_site_fract_y
_atom_site_fract_z
Si Si1 0.750000 0.632357 0.250000
Si Si2 0.162647 0.772490 0.500000
Si Si3 0.641971 0.407659 0.344840
Si Si4 0.191104 0.500000 0.836454
Si Si5 0.562832 0.346062 0.843554
Si Si6 0.728738 0.182585 0.500000
Si Si7 0.591280 0.750000 0.750000
O O1 0.707282 0.605153 0.342105
O O2 0.789068 0.659805 0.357210
O O3 0.203391 0.815152 0.500000
O O4 0.200287 0.729516 0.500000
O O5 0.126751 0.775062 0.364651
O O6 0.618979 0.402966 0.500000
O O7 0.648586 0.459305 0.298016
O O8 0.602205 0.377262 0.249803
O O9 0.250000 0.500000 0.750000
O O10 0.206118 0.500000 0.000000
O O11 0.500000 0.365021 0.830073
O O12 0.557918 0.292581 0.809352
O O13 0.585148 0.349835 0.000000
#
# Coordination Sequence:
#
# PCOD8285423 Si02
#       7
#    16  16  32  16  32  16  16
#     4  12  22  34  60  90 124 168 208 257 312 383
#     4  11  22  36  55  80 120 172 213 265 322 376
#     4  11  24  42  67  98 133 170 216 263 322 389
#     4  10  22  42  65 104 139 171 212 258 318 391
#     4  11  26  46  68  93 125 171 222 275 328 383
#     4  11  22  34  50  83 126 164 216 259 312 377
#     4  12  23  41  60  88 124 165 220 272 321 380
#
# _framework density 20.699190999999999
#
# number of rings (size 3 to 8) (size 9 to 14) (size 15 to 20)
#    0.000    0.889    3.333    4.333    3.111    3.111 
#    0.000    0.556    0.000    3.333    0.000    0.000 
#    0.000    0.000    0.000    0.000    0.000    0.000 
#
# Total GULP energy -445977.699567 kJ/mol
# GULP energy per Si atom -12388.269432 kJ/mol
# Density = 2.065208 g / cm^3
# Si number density = 20.699191 Si / 1000 Ang^3
#
#
#
# Elastic Constant Matrix: (Units=GPa)
#
#
# Indices 1 2 3 4 5 6 
#
# 1 74.1334 38.1823 36.1182 -0.0005 0.0035 0.0006
# 2 38.1823 132.1561 47.9670 -0.0004 0.0013 0.0001
# 3 36.1182 47.9670 131.9551 -0.0035 0.0133 0.0021
# 4 -0.0005 -0.0004 -0.0035 28.2487 0.0026 0.0004
# 5 0.0035 0.0013 0.0133 0.0026 -4.0749 -0.0013
# 6 0.0006 0.0001 0.0021 0.0004 -0.0013 16.4878
#
#
#
# Elastic Compliance Matrix: (Units=1/GPa)
#
#
# Indices 1 2 3 4 5 6 
#
# 1 0.017014 -0.003716 -0.003306 0.000000 0.000003 0.000000
# 2 -0.003716 0.009528 -0.002447 0.000000 -0.000008 0.000000
# 3 -0.003306 -0.002447 0.009373 0.000001 0.000027 -0.000001
# 4 0.000000 0.000000 0.000001 0.035400 0.000022 -0.000001
# 5 0.000003 -0.000008 0.000027 0.000022 -0.245403 -0.000020
# 6 0.000000 0.000000 -0.000001 -0.000001 -0.000020 0.060651
#
#
# Mechanical properties :
#
#
# Convention : Reuss Voigt Hill
#
# Bulk Modulus (GPa) = 58.90044 64.75331 61.82688
# Shear Modulus (GPa) = -56.28002 22.53079 -16.87462
#
# Velocity S-wave (km/s) = -5.22001 3.30280 -2.85832
# Velocity P-wave (km/s) = 2.79538 6.77463 4.36357
#
# Compressibility (1/GPa) = 0.01697780
#
# Stress axis : x y z
#
# Youngs Moduli (GPa) = 58.77611 104.95028 106.69294
#
# Poissons Ratio (x) = 0.38995 0.35276
# Poissons Ratio (y) = 0.21838 0.26104
# Poissons Ratio (z) = 0.19433 0.25678
#
# Static dielectric constant tensor:
#      x y z
#    x 3.867650 0.000000 0.000010 
#    y 0.000000 3.964280 0.000000 
#    z 0.000010 0.000000 3.390310 
# 
# 
# High freq. dielectric constant tensor:
#      x y z
#    x 1.792760 0.000000 0.000000 
#    y 0.000000 1.811420 0.000000 
#    z 0.000000 0.000000 1.825490 
# 
# From -- ./inp_files/5703.got.cif
#   From: 2010.03.12/outbox.cif.g09.slc.cpg/sg69_3_cif.got.tgz:5703.got - 2010.04.10 23:52:46.
