data_PCOD8285812
_publ_section_title
;
Structure prediction by ZEFSAII (Michael W. Deem and Ramdas Pophale) SiO2 
 PCOD8285812
Probable space group: F D D D
;
_chemical_formula_sum "Si O2"
_cell_formula_units_Z 208
_cell_length_a 30.315193
_cell_length_b 18.211597
_cell_length_c 19.460288
_cell_angle_alpha 90.000000
_cell_angle_beta 90.000000
_cell_angle_gamma 90.000000
_cell_volume 10743.792997
_symmetry_space_group_name_H-M "F D D D"
_symmetry_group_IT_number 70
_space_group.IT_coordinate_system_code '2'
_symmetry_cell_setting 'orthorhombic'
loop_
_space_group_symop_operation_xyz
x,y,z
1/4-x,1/4-y,z
x,1/4-y,1/4-z
1/4-x,y,1/4-z
-x,-y,-z
3/4+x,3/4+y,-z
-x,3/4+y,3/4+z
3/4+x,-y,3/4+z
x,1/2+y,1/2+z
1/4-x,3/4-y,1/2+z
x,3/4-y,3/4-z
1/4-x,1/2+y,3/4-z
-x,1/2-y,1/2-z
3/4+x,1/4+y,1/2-z
-x,1/4+y,1/4+z
3/4+x,1/2-y,1/4+z
1/2+x,y,1/2+z
3/4-x,1/4-y,1/2+z
1/2+x,1/4-y,3/4-z
3/4-x,y,3/4-z
1/2-x,-y,1/2-z
1/4+x,3/4+y,1/2-z
1/2-x,3/4+y,1/4+z
1/4+x,-y,1/4+z
1/2+x,1/2+y,z
3/4-x,3/4-y,z
1/2+x,3/4-y,1/4-z
3/4-x,1/2+y,1/4-z
1/2-x,1/2-y,-z
1/4+x,1/4+y,-z
1/2-x,1/4+y,3/4+z
1/4+x,1/2-y,3/4+z
loop_
_atom_site_type_symbol
_atom_site_label
_atom_site_fract_x
_atom_site_fract_y
_atom_site_fract_z
Si Si1 0.815892 0.999751 0.268142
Si Si2 0.636637 0.483183 0.046271
Si Si3 0.795623 0.403818 0.641929
Si Si4 0.875000 0.875000 0.046582
Si Si5 0.103151 0.915932 0.699203
Si Si6 0.522072 0.344925 0.519917
Si Si7 0.476413 0.755866 0.910480
O O1 0.867038 0.023130 0.263681
O O2 0.786267 0.071566 0.251249
O O3 0.800669 0.969114 0.342820
O O4 0.813488 0.934568 0.214191
O O5 0.625000 0.503605 0.125000
O O6 0.606235 0.415679 0.017611
O O7 0.687689 0.459430 0.035952
O O8 0.626833 0.553389 0.000185
O O9 0.832715 0.366676 0.595617
O O10 0.757015 0.345417 0.660019
O O11 0.774374 0.471935 0.602341
O O12 0.125000 0.902553 0.625000
O O13 0.053311 0.944480 0.699243
O O14 0.488652 0.323481 0.458899
#
# Coordination Sequence:
#
# PCOD8285812 Si02
#       7
#    32  32  32  16  32  32  32
#     4   9  20  35  57  87 118 162 189 233 291 359
#     4  10  20  42  66  83 107 158 205 244 305 369
#     4  11  23  36  55  86 128 153 192 248 299 341
#     4  12  25  40  56  91 122 156 194 262 298 353
#     4   8  17  35  60  83 111 149 199 238 285 351
#     4  10  20  37  63  89 116 156 202 243 293 357
#     4  10  18  36  59  88 116 153 201 238 282 355
#
# _framework density 19.360016000000002
#
# number of rings (size 3 to 8) (size 9 to 14) (size 15 to 20)
#    0.000    2.154    1.538    4.846    2.154    2.462 
#    0.000    3.077    0.000    0.000    0.000    0.000 
#    0.000    0.000    0.000    0.000    0.000    0.000 
#
# Total GULP energy -644399.299723 kJ/mol
# GULP energy per Si atom -12392.294225 kJ/mol
# Density = 1.931595 g / cm^3
# Si number density = 19.360016 Si / 1000 Ang^3
#
#
#
# Elastic Constant Matrix: (Units=GPa)
#
#
# Indices 1 2 3 4 5 6 
#
# 1 70.1981 30.6977 47.1668 0.0000 0.0000 0.0000
# 2 30.6977 74.6607 51.7412 0.0000 0.0000 0.0000
# 3 47.1668 51.7412 91.6177 0.0000 0.0000 0.0000
# 4 0.0000 0.0000 0.0000 32.4712 0.0000 0.0000
# 5 0.0000 0.0000 0.0000 0.0000 29.4347 0.0000
# 6 0.0000 0.0000 0.0000 0.0000 0.0000 22.6337
#
#
#
# Elastic Compliance Matrix: (Units=1/GPa)
#
#
# Indices 1 2 3 4 5 6 
#
# 1 0.021953 -0.001962 -0.010194 0.000000 0.000000 0.000000
# 2 -0.001962 0.022182 -0.011518 0.000000 0.000000 0.000000
# 3 -0.010194 -0.011518 0.022668 0.000000 0.000000 0.000000
# 4 0.000000 0.000000 0.000000 0.030796 0.000000 0.000000
# 5 0.000000 0.000000 0.000000 0.000000 0.033973 0.000000
# 6 0.000000 0.000000 0.000000 0.000000 0.000000 0.044182
#
#
# Mechanical properties :
#
#
# Convention : Reuss Voigt Hill
#
# Bulk Modulus (GPa) = 51.39717 55.07645 53.23681
# Shear Modulus (GPa) = 21.77833 24.03266 22.90550
#
# Velocity S-wave (km/s) = 3.35761 3.52711 3.44340
# Velocity P-wave (km/s) = 6.45268 6.71548 6.58539
#
# Compressibility (1/GPa) = 0.01945632
#
# Stress axis : x y z
#
# Youngs Moduli (GPa) = 45.55279 45.08078 44.11587
#
# Poissons Ratio (x) = 0.08843 0.44971
# Poissons Ratio (y) = 0.08935 0.50811
# Poissons Ratio (z) = 0.46436 0.51923
#
# Static dielectric constant tensor:
#      x y z
#    x 3.788240 0.000000 0.000000 
#    y 0.000000 3.460470 0.000000 
#    z 0.000000 0.000000 3.473250 
# 
# 
# High freq. dielectric constant tensor:
#      x y z
#    x 1.758840 0.000000 0.000000 
#    y 0.000000 1.744510 0.000000 
#    z 0.000000 0.000000 1.735000 
# 
# From -- ./inp_files/39861.got.cif
#   From: 2010.03.12/outbox.cif.g09.slc.cpg/sg70_20_cif.got.tgz:39861.got - 2010.04.16 13:46:32.
