data_PCOD8285558
_publ_section_title
;
Structure prediction by ZEFSAII (Michael W. Deem and Ramdas Pophale) SiO2 
 PCOD8285558
Probable space group: F M M M
;
_chemical_formula_sum "Si O2"
_cell_formula_units_Z 160
_cell_length_a 17.760649
_cell_length_b 21.498201
_cell_length_c 20.650924
_cell_angle_alpha 90.000000
_cell_angle_beta 90.000000
_cell_angle_gamma 90.000000
_cell_volume 7884.977147
_symmetry_space_group_name_H-M "F M M M"
_symmetry_group_IT_number 69
_symmetry_cell_setting 'orthorhombic'
loop_
_space_group_symop_operation_xyz
x,y,z
-x,-y,z
x,-y,-z
-x,y,-z
-x,-y,-z
x,y,-z
-x,y,z
x,-y,z
x,1/2+y,1/2+z
-x,1/2-y,1/2+z
x,1/2-y,1/2-z
-x,1/2+y,1/2-z
-x,1/2-y,1/2-z
x,1/2+y,1/2-z
-x,1/2+y,1/2+z
x,1/2-y,1/2+z
1/2+x,y,1/2+z
1/2-x,-y,1/2+z
1/2+x,-y,1/2-z
1/2-x,y,1/2-z
1/2-x,-y,1/2-z
1/2+x,y,1/2-z
1/2-x,y,1/2+z
1/2+x,-y,1/2+z
1/2+x,1/2+y,z
1/2-x,1/2-y,z
1/2+x,1/2-y,-z
1/2-x,1/2+y,-z
1/2-x,1/2-y,-z
1/2+x,1/2+y,-z
1/2-x,1/2+y,z
1/2+x,1/2-y,z
loop_
_atom_site_type_symbol
_atom_site_label
_atom_site_fract_x
_atom_site_fract_y
_atom_site_fract_z
Si Si1 0.683111 0.384414 0.423313
Si Si2 0.582373 0.926188 0.500000
Si Si3 0.663700 0.926384 0.628068
Si Si4 0.088963 0.335085 0.715807
Si Si5 0.417682 0.500000 0.576199
Si Si6 0.665222 0.724767 0.337312
O O1 0.701639 0.387465 0.500000
O O2 0.753745 0.397636 0.377004
O O3 0.623679 0.436977 0.402677
O O4 0.655315 0.315355 0.403415
O O5 0.500000 0.896577 0.500000
O O6 0.623335 0.902410 0.563589
O O7 0.579357 0.000000 0.500000
O O8 0.617082 0.901706 0.689727
O O9 0.668126 0.000000 0.633668
O O10 0.139357 0.319263 0.778155
O O11 0.107973 0.283291 0.660672
O O12 0.000000 0.336054 0.731481
O O13 0.500000 0.500000 0.609161
O O14 0.425595 0.500000 0.500000
O O15 0.750000 0.750000 0.328051
#
# Coordination Sequence:
#
# PCOD8285558 Si02
#       6
#    32  16  32  32  16  32
#     4  11  22  39  66  96 127 163 206 258 311 374
#     4   9  18  32  54  85 124 164 196 238 303 367
#     4  11  21  37  64  95 127 162 205 252 311 377
#     4  11  24  43  65  89 124 167 210 259 315 369
#     4   9  20  38  62  91 126 166 204 248 308 370
#     4  11  23  42  66  89 120 166 218 255 309 376
#
# _framework density 20.291751000000001
#
# number of rings (size 3 to 8) (size 9 to 14) (size 15 to 20)
#    0.000    1.400    4.000    3.000    0.000    3.200 
#    3.600    1.000    0.000    0.000    0.000    0.000 
#    0.000    0.000    0.000    0.000    0.000    0.000 
#
# Total GULP energy -495820.066200 kJ/mol
# GULP energy per Si atom -12395.501655 kJ/mol
# Density = 2.024557 g / cm^3
# Si number density = 20.291751 Si / 1000 Ang^3
#
#
#
# Elastic Constant Matrix: (Units=GPa)
#
#
# Indices 1 2 3 4 5 6 
#
# 1 125.0646 19.6555 29.6077 0.0000 0.0000 0.0000
# 2 19.6555 74.7690 34.1643 0.0000 0.0000 0.0000
# 3 29.6077 34.1643 55.3682 0.0000 0.0000 0.0000
# 4 0.0000 0.0000 0.0000 60.5845 0.0000 0.0000
# 5 0.0000 0.0000 0.0000 0.0000 14.7004 0.0000
# 6 0.0000 0.0000 0.0000 0.0000 0.0000 28.6238
#
#
#
# Elastic Compliance Matrix: (Units=1/GPa)
#
#
# Indices 1 2 3 4 5 6 
#
# 1 0.009158 -0.000236 -0.004751 0.000000 0.000000 0.000000
# 2 -0.000236 0.018632 -0.011370 0.000000 0.000000 0.000000
# 3 -0.004751 -0.011370 0.027617 0.000000 0.000000 0.000000
# 4 0.000000 0.000000 0.000000 0.016506 0.000000 0.000000
# 5 0.000000 0.000000 0.000000 0.000000 0.068025 0.000000
# 6 0.000000 0.000000 0.000000 0.000000 0.000000 0.034936
#
#
# Mechanical properties :
#
#
# Convention : Reuss Voigt Hill
#
# Bulk Modulus (GPa) = 44.06922 46.89519 45.48220
# Shear Modulus (GPa) = 23.23914 32.23337 27.73625
#
# Velocity S-wave (km/s) = 3.38783 3.98992 3.70114
# Velocity P-wave (km/s) = 6.08836 6.66232 6.38180
#
# Compressibility (1/GPa) = 0.02269157
#
# Stress axis : x y z
#
# Youngs Moduli (GPa) = 109.19632 53.67073 36.20902
#
# Poissons Ratio (x) = 0.01269 0.17203
# Poissons Ratio (y) = 0.02582 0.41171
# Poissons Ratio (z) = 0.51881 0.61025
#
# Static dielectric constant tensor:
#      x y z
#    x 3.935810 0.000000 0.000000 
#    y 0.000000 3.787690 0.000000 
#    z 0.000000 0.000000 3.492320 
# 
# 
# High freq. dielectric constant tensor:
#      x y z
#    x 1.801710 0.000000 0.000000 
#    y 0.000000 1.793570 0.000000 
#    z 0.000000 0.000000 1.770220 
# 
# From -- ./inp_files/36617.got.cif
#   From: 2010.03.12/outbox.cif.g09.slc.cpg/sg69_19_cif.got.tgz:36617.got - 2010.04.10 23:52:46.
