data_PCOD8285314
_publ_section_title
;
Structure prediction by ZEFSAII (Michael W. Deem and Ramdas Pophale) SiO2 
 PCOD8285314
Probable space group: F M M M
;
_chemical_formula_sum "Si O2"
_cell_formula_units_Z 144
_cell_length_a 18.443059
_cell_length_b 28.080764
_cell_length_c 14.613585
_cell_angle_alpha 90.000000
_cell_angle_beta 90.000000
_cell_angle_gamma 90.000000
_cell_volume 7568.305339
_symmetry_space_group_name_H-M "F M M M"
_symmetry_group_IT_number 69
_symmetry_cell_setting 'orthorhombic'
loop_
_space_group_symop_operation_xyz
x,y,z
-x,-y,z
x,-y,-z
-x,y,-z
-x,-y,-z
x,y,-z
-x,y,z
x,-y,z
x,1/2+y,1/2+z
-x,1/2-y,1/2+z
x,1/2-y,1/2-z
-x,1/2+y,1/2-z
-x,1/2-y,1/2-z
x,1/2+y,1/2-z
-x,1/2+y,1/2+z
x,1/2-y,1/2+z
1/2+x,y,1/2+z
1/2-x,-y,1/2+z
1/2+x,-y,1/2-z
1/2-x,y,1/2-z
1/2-x,-y,1/2-z
1/2+x,y,1/2-z
1/2-x,y,1/2+z
1/2+x,-y,1/2+z
1/2+x,1/2+y,z
1/2-x,1/2-y,z
1/2+x,1/2-y,-z
1/2-x,1/2+y,-z
1/2-x,1/2-y,-z
1/2+x,1/2+y,-z
1/2-x,1/2+y,z
1/2+x,1/2-y,z
loop_
_atom_site_type_symbol
_atom_site_label
_atom_site_fract_x
_atom_site_fract_y
_atom_site_fract_z
Si Si1 0.915041 0.445014 0.799693
Si Si2 0.179484 0.222162 0.896808
Si Si3 0.585479 0.447808 0.500000
Si Si4 0.167187 0.861531 0.240475
Si Si5 0.582987 0.190251 0.103697
O O1 0.890925 0.500000 0.788077
O O2 0.875208 0.411531 0.725098
O O3 0.000000 0.440109 0.783197
O O4 0.893293 0.424272 0.902024
O O5 0.250000 0.250000 0.854906
O O6 0.157940 0.174809 0.842784
O O7 0.108405 0.254983 0.893456
O O8 0.199192 0.206813 0.000000
O O9 0.621225 0.500000 0.500000
O O10 0.500000 0.453791 0.500000
O O11 0.250000 0.875487 0.250000
O O12 0.136645 0.838874 0.332897
O O13 0.500000 0.187108 0.138523
O O14 0.588644 0.170085 0.000000
#
# Coordination Sequence:
#
# PCOD8285314 Si02
#       5
#    32  32  16  32  32
#     4   9  19  36  57  83 118 156 195 246 299 349
#     4  10  21  40  59  78 116 163 202 240 292 353
#     4   7  12  28  54  80 109 148 187 231 296 353
#     4  12  23  33  57  88 117 157 198 241 298 359
#     4  10  22  38  59  88 119 152 195 248 299 351
#
# _framework density 19.026716
#
# number of rings (size 3 to 8) (size 9 to 14) (size 15 to 20)
#    0.000    2.111    2.222    2.667    1.556    3.111 
#    0.000    0.000    0.000    0.667    0.000    1.556 
#    0.000    0.000    0.000    0.000    0.000    0.000 
#
# Total GULP energy -446085.712303 kJ/mol
# GULP energy per Si atom -12391.269786 kJ/mol
# Density = 1.898341 g / cm^3
# Si number density = 19.026716 Si / 1000 Ang^3
#
#
#
# Elastic Constant Matrix: (Units=GPa)
#
#
# Indices 1 2 3 4 5 6 
#
# 1 96.4939 47.9575 41.1732 0.0000 0.0000 0.0000
# 2 47.9575 110.0721 60.4833 0.0000 0.0000 0.0000
# 3 41.1732 60.4833 71.5145 0.0000 0.0000 0.0000
# 4 0.0000 0.0000 0.0000 28.8473 0.0000 0.0000
# 5 0.0000 0.0000 0.0000 0.0000 27.6189 0.0000
# 6 0.0000 0.0000 0.0000 0.0000 0.0000 36.5207
#
#
#
# Elastic Compliance Matrix: (Units=1/GPa)
#
#
# Indices 1 2 3 4 5 6 
#
# 1 0.014314 -0.003191 -0.005542 0.000000 0.000000 0.000000
# 2 -0.003191 0.017684 -0.013119 0.000000 0.000000 0.000000
# 3 -0.005542 -0.013119 0.028269 0.000000 0.000000 0.000000
# 4 0.000000 0.000000 0.000000 0.034665 0.000000 0.000000
# 5 0.000000 0.000000 0.000000 0.000000 0.036207 0.000000
# 6 0.000000 0.000000 0.000000 0.000000 0.000000 0.027382
#
#
# Mechanical properties :
#
#
# Convention : Reuss Voigt Hill
#
# Bulk Modulus (GPa) = 60.37608 64.14539 62.26074
# Shear Modulus (GPa) = 24.06768 27.16180 25.61474
#
# Velocity S-wave (km/s) = 3.56046 3.78241 3.67311
# Velocity P-wave (km/s) = 6.97880 7.27062 7.12621
#
# Compressibility (1/GPa) = 0.01656285
#
# Stress axis : x y z
#
# Youngs Moduli (GPa) = 69.86071 56.54814 35.37398
#
# Poissons Ratio (x) = 0.18046 0.19605
# Poissons Ratio (y) = 0.22294 0.46407
# Poissons Ratio (z) = 0.38718 0.74185
#
# Static dielectric constant tensor:
#      x y z
#    x 3.530670 0.000000 0.000000 
#    y 0.000000 3.628020 0.000000 
#    z 0.000000 0.000000 3.473880 
# 
# 
# High freq. dielectric constant tensor:
#      x y z
#    x 1.725990 0.000000 0.000000 
#    y 0.000000 1.741920 0.000000 
#    z 0.000000 0.000000 1.719110 
# 
# From -- ./inp_files/15523.got.cif
#   From: 2010.03.12/outbox.cif.g09.slc.cpg/sg69_8_cif.got.tgz:15523.got - 2010.04.10 23:52:46.
