data_PCOD8285961
_publ_section_title
;
Structure prediction by ZEFSAII (Michael W. Deem and Ramdas Pophale) SiO2 
 PCOD8285961
Probable space group: F D D D
;
_chemical_formula_sum "Si O2"
_cell_formula_units_Z 160
_cell_length_a 17.007479
_cell_length_b 20.385580
_cell_length_c 20.255627
_cell_angle_alpha 90.000000
_cell_angle_beta 90.000000
_cell_angle_gamma 90.000000
_cell_volume 7022.774228
_symmetry_space_group_name_H-M "F D D D"
_symmetry_group_IT_number 70
_space_group.IT_coordinate_system_code '2'
_symmetry_cell_setting 'orthorhombic'
loop_
_space_group_symop_operation_xyz
x,y,z
1/4-x,1/4-y,z
x,1/4-y,1/4-z
1/4-x,y,1/4-z
-x,-y,-z
3/4+x,3/4+y,-z
-x,3/4+y,3/4+z
3/4+x,-y,3/4+z
x,1/2+y,1/2+z
1/4-x,3/4-y,1/2+z
x,3/4-y,3/4-z
1/4-x,1/2+y,3/4-z
-x,1/2-y,1/2-z
3/4+x,1/4+y,1/2-z
-x,1/4+y,1/4+z
3/4+x,1/2-y,1/4+z
1/2+x,y,1/2+z
3/4-x,1/4-y,1/2+z
1/2+x,1/4-y,3/4-z
3/4-x,y,3/4-z
1/2-x,-y,1/2-z
1/4+x,3/4+y,1/2-z
1/2-x,3/4+y,1/4+z
1/4+x,-y,1/4+z
1/2+x,1/2+y,z
3/4-x,3/4-y,z
1/2+x,3/4-y,1/4-z
3/4-x,1/2+y,1/4-z
1/2-x,1/2-y,-z
1/4+x,1/4+y,-z
1/2-x,1/4+y,3/4+z
1/4+x,1/2-y,3/4+z
loop_
_atom_site_type_symbol
_atom_site_label
_atom_site_fract_x
_atom_site_fract_y
_atom_site_fract_z
Si Si1 0.206335 0.736551 0.593278
Si Si2 0.566164 0.345558 0.763052
Si Si3 0.957245 0.342544 0.074716
Si Si4 0.293881 0.696466 0.847551
Si Si5 0.265523 0.580000 0.067003
O O1 0.125000 0.713052 0.625000
O O2 0.247595 0.670748 0.565650
O O3 0.177212 0.784427 0.535764
O O4 0.270319 0.773420 0.640421
O O5 0.546846 0.412282 0.724267
O O6 0.647872 0.355124 0.800380
O O7 0.875000 0.375000 0.098265
O O8 0.023244 0.394181 0.096046
O O9 0.957843 0.334029 0.996026
O O10 0.375000 0.726671 0.875000
O O11 0.231255 0.754983 0.842206
O O12 0.230425 0.625000 0.125000
#
# Coordination Sequence:
#
# PCOD8285961 Si02
#       5
#    32  32  32  32  32
#     4  10  19  41  75 102 140 183 229 296 359 426
#     4  10  21  44  72 100 140 184 234 289 356 423
#     4  11  23  43  67  99 138 181 230 290 352 418
#     4  11  24  46  72  96 137 188 226 292 359 419
#     4  12  27  43  68 101 135 181 241 285 346 422
#
# _framework density 22.783018999999999
#
# number of rings (size 3 to 8) (size 9 to 14) (size 15 to 20)
#    0.000    1.200    4.000    2.400    2.800    4.000 
#    0.000    0.000    8.800    0.000    0.000    0.000 
#    0.000    0.000    0.000    0.000    0.000    0.000 
#
# Total GULP energy -496038.434052 kJ/mol
# GULP energy per Si atom -12400.960851 kJ/mol
# Density = 2.273116 g / cm^3
# Si number density = 22.783019 Si / 1000 Ang^3
#
#
#
# Elastic Constant Matrix: (Units=GPa)
#
#
# Indices 1 2 3 4 5 6 
#
# 1 98.5907 18.8191 29.4937 0.0000 0.0000 0.0000
# 2 18.8191 105.8143 47.6152 0.0000 0.0000 0.0000
# 3 29.4937 47.6152 127.2707 0.0000 0.0000 0.0000
# 4 0.0000 0.0000 0.0000 25.1396 0.0000 0.0000
# 5 0.0000 0.0000 0.0000 0.0000 40.3057 0.0000
# 6 0.0000 0.0000 0.0000 0.0000 0.0000 25.1474
#
#
#
# Elastic Compliance Matrix: (Units=1/GPa)
#
#
# Indices 1 2 3 4 5 6 
#
# 1 0.010981 -0.000971 -0.002181 0.000000 0.000000 0.000000
# 2 -0.000971 0.011450 -0.004058 0.000000 0.000000 0.000000
# 3 -0.002181 -0.004058 0.009881 0.000000 0.000000 0.000000
# 4 0.000000 0.000000 0.000000 0.039778 0.000000 0.000000
# 5 0.000000 0.000000 0.000000 0.000000 0.024810 0.000000
# 6 0.000000 0.000000 0.000000 0.000000 0.000000 0.039766
#
#
# Mechanical properties :
#
#
# Convention : Reuss Voigt Hill
#
# Bulk Modulus (GPa) = 55.89935 58.17018 57.03477
# Shear Modulus (GPa) = 31.83683 33.83505 32.83594
#
# Velocity S-wave (km/s) = 3.74223 3.85788 3.80049
# Velocity P-wave (km/s) = 6.57732 6.74033 6.65932
#
# Compressibility (1/GPa) = 0.01788929
#
# Stress axis : x y z
#
# Youngs Moduli (GPa) = 91.06716 87.33978 101.20295
#
# Poissons Ratio (x) = 0.08484 0.22075
# Poissons Ratio (y) = 0.08846 0.41073
# Poissons Ratio (z) = 0.19864 0.35446
#
# Static dielectric constant tensor:
#      x y z
#    x 3.912080 0.000000 0.000000 
#    y 0.000000 3.822160 0.000000 
#    z 0.000000 0.000000 4.235970 
# 
# 
# High freq. dielectric constant tensor:
#      x y z
#    x 1.895650 0.000000 0.000000 
#    y 0.000000 1.889080 0.000000 
#    z 0.000000 0.000000 1.907410 
# 
# From -- ./inp_files/43657.got.cif
#   From: 2010.03.12/outbox.cif.g09.slc.cpg/sg70_22_cif.got.tgz:43657.got - 2010.04.16 13:46:32.
