data_PCOD8285594
_publ_section_title
;
Structure prediction by ZEFSAII (Michael W. Deem and Ramdas Pophale) SiO2 
 PCOD8285594
Probable space group: F M M M
;
_chemical_formula_sum "Si O2"
_cell_formula_units_Z 160
_cell_length_a 25.958570
_cell_length_b 17.189153
_cell_length_c 18.058428
_cell_angle_alpha 90.000000
_cell_angle_beta 90.000000
_cell_angle_gamma 90.000000
_cell_volume 8057.775879
_symmetry_space_group_name_H-M "F M M M"
_symmetry_group_IT_number 69
_symmetry_cell_setting 'orthorhombic'
loop_
_space_group_symop_operation_xyz
x,y,z
-x,-y,z
x,-y,-z
-x,y,-z
-x,-y,-z
x,y,-z
-x,y,z
x,-y,z
x,1/2+y,1/2+z
-x,1/2-y,1/2+z
x,1/2-y,1/2-z
-x,1/2+y,1/2-z
-x,1/2-y,1/2-z
x,1/2+y,1/2-z
-x,1/2+y,1/2+z
x,1/2-y,1/2+z
1/2+x,y,1/2+z
1/2-x,-y,1/2+z
1/2+x,-y,1/2-z
1/2-x,y,1/2-z
1/2-x,-y,1/2-z
1/2+x,y,1/2-z
1/2-x,y,1/2+z
1/2+x,-y,1/2+z
1/2+x,1/2+y,z
1/2-x,1/2-y,z
1/2+x,1/2-y,-z
1/2-x,1/2+y,-z
1/2-x,1/2-y,-z
1/2+x,1/2+y,-z
1/2-x,1/2+y,z
1/2+x,1/2-y,z
loop_
_atom_site_type_symbol
_atom_site_label
_atom_site_fract_x
_atom_site_fract_y
_atom_site_fract_z
Si Si1 0.439359 0.694352 0.500000
Si Si2 0.310579 0.414394 0.081662
Si Si3 0.655316 0.593984 0.500000
Si Si4 0.095297 0.317083 0.382205
Si Si5 0.720588 0.326347 0.626669
Si Si6 0.000000 0.591484 0.584588
Si Si7 0.654876 0.750000 0.750000
O O1 0.500000 0.673311 0.500000
O O2 0.405709 0.615016 0.500000
O O3 0.424984 0.742259 0.573829
O O4 0.329867 0.500000 0.105267
O O5 0.358620 0.357236 0.073576
O O6 0.267433 0.386851 0.140523
O O7 0.284167 0.416527 0.000000
O O8 0.662329 0.500000 0.500000
O O9 0.679668 0.635382 0.428423
O O10 0.049614 0.378491 0.371903
O O11 0.116682 0.298361 0.301416
O O12 0.750000 0.250000 0.593621
O O13 0.691659 0.307131 0.703036
O O14 0.000000 0.500000 0.584020
O O15 0.000000 0.624570 0.500000
#
# Coordination Sequence:
#
# PCOD8285594 Si02
#       7
#    16  32  16  32  32  16  16
#     4  12  22  44  74  99 120 165 228 272 323 380
#     4  11  22  36  62  98 131 165 211 272 332 382
#     4  12  25  44  70 101 134 170 220 280 327 375
#     4  12  22  41  65  97 126 169 217 269 320 395
#     4  12  23  41  66  93 130 174 221 267 317 384
#     4  11  22  41  70 100 126 156 207 280 339 381
#     4  12  27  39  64  90 134 173 222 263 318 388
#
# _framework density 19.856597000000001
#
# number of rings (size 3 to 8) (size 9 to 14) (size 15 to 20)
#    0.000    0.300    8.000    1.800    0.000    2.200 
#    0.000    5.000    0.000    0.000    0.000    0.000 
#    0.000    0.000    0.000    0.000    0.000    0.000 
#
# Total GULP energy -495846.897435 kJ/mol
# GULP energy per Si atom -12396.172436 kJ/mol
# Density = 1.981140 g / cm^3
# Si number density = 19.856597 Si / 1000 Ang^3
#
#
#
# Elastic Constant Matrix: (Units=GPa)
#
#
# Indices 1 2 3 4 5 6 
#
# 1 162.6193 53.5356 57.9785 0.0000 0.0000 0.0000
# 2 53.5356 102.1009 52.8827 0.0000 0.0000 0.0000
# 3 57.9785 52.8827 108.0449 0.0000 0.0000 0.0000
# 4 0.0000 0.0000 0.0000 14.6157 0.0000 0.0000
# 5 0.0000 0.0000 0.0000 0.0000 26.9580 0.0000
# 6 0.0000 0.0000 0.0000 0.0000 0.0000 14.5315
#
#
#
# Elastic Compliance Matrix: (Units=1/GPa)
#
#
# Indices 1 2 3 4 5 6 
#
# 1 0.008117 -0.002679 -0.003044 0.000000 0.000000 0.000000
# 2 -0.002679 0.014005 -0.005417 0.000000 0.000000 0.000000
# 3 -0.003044 -0.005417 0.013540 0.000000 0.000000 0.000000
# 4 0.000000 0.000000 0.000000 0.068419 0.000000 0.000000
# 5 0.000000 0.000000 0.000000 0.000000 0.037095 0.000000
# 6 0.000000 0.000000 0.000000 0.000000 0.000000 0.068816
#
#
# Mechanical properties :
#
#
# Convention : Reuss Voigt Hill
#
# Bulk Modulus (GPa) = 74.73246 77.95095 76.34171
# Shear Modulus (GPa) = 21.12087 25.11227 23.11657
#
# Velocity S-wave (km/s) = 3.26493 3.56009 3.41570
# Velocity P-wave (km/s) = 7.20631 7.49941 7.35432
#
# Compressibility (1/GPa) = 0.01338107
#
# Stress axis : x y z
#
# Youngs Moduli (GPa) = 123.20298 71.40460 73.85360
#
# Poissons Ratio (x) = 0.19130 0.22483
# Poissons Ratio (y) = 0.33008 0.40006
# Poissons Ratio (z) = 0.37506 0.38679
#
# Static dielectric constant tensor:
#      x y z
#    x 3.881280 0.000000 0.000000 
#    y 0.000000 3.718000 0.000000 
#    z 0.000000 0.000000 3.437670 
# 
# 
# High freq. dielectric constant tensor:
#      x y z
#    x 1.792210 0.000000 0.000000 
#    y 0.000000 1.769530 0.000000 
#    z 0.000000 0.000000 1.750060 
# 
# From -- ./inp_files/26713.got.cif
#   From: 2010.03.12/outbox.cif.g09.slc.cpg/sg69_14_cif.got.tgz:26713.got - 2010.04.10 23:52:46.
