data_PCOD8285359
_publ_section_title
;
Structure prediction by ZEFSAII (Michael W. Deem and Ramdas Pophale) SiO2 
 PCOD8285359
Probable space group: F M M M
;
_chemical_formula_sum "Si O2"
_cell_formula_units_Z 176
_cell_length_a 15.579904
_cell_length_b 21.573405
_cell_length_c 26.093543
_cell_angle_alpha 90.000000
_cell_angle_beta 90.000000
_cell_angle_gamma 90.000000
_cell_volume 8770.341936
_symmetry_space_group_name_H-M "F M M M"
_symmetry_group_IT_number 69
_symmetry_cell_setting 'orthorhombic'
loop_
_space_group_symop_operation_xyz
x,y,z
-x,-y,z
x,-y,-z
-x,y,-z
-x,-y,-z
x,y,-z
-x,y,z
x,-y,z
x,1/2+y,1/2+z
-x,1/2-y,1/2+z
x,1/2-y,1/2-z
-x,1/2+y,1/2-z
-x,1/2-y,1/2-z
x,1/2+y,1/2-z
-x,1/2+y,1/2+z
x,1/2-y,1/2+z
1/2+x,y,1/2+z
1/2-x,-y,1/2+z
1/2+x,-y,1/2-z
1/2-x,y,1/2-z
1/2-x,-y,1/2-z
1/2+x,y,1/2-z
1/2-x,y,1/2+z
1/2+x,-y,1/2+z
1/2+x,1/2+y,z
1/2-x,1/2-y,z
1/2+x,1/2-y,-z
1/2-x,1/2+y,-z
1/2-x,1/2-y,-z
1/2+x,1/2+y,-z
1/2-x,1/2+y,z
1/2+x,1/2-y,z
loop_
_atom_site_type_symbol
_atom_site_label
_atom_site_fract_x
_atom_site_fract_y
_atom_site_fract_z
Si Si1 0.903614 0.629850 0.298132
Si Si2 0.151828 0.753737 0.856241
Si Si3 0.758985 0.430380 0.635024
Si Si4 0.096274 0.623985 0.821262
Si Si5 0.000000 0.569445 0.560517
Si Si6 0.659922 0.347353 0.060400
O O1 0.897915 0.699175 0.319678
O O2 0.832285 0.585895 0.323508
O O3 0.885694 0.635453 0.238158
O O4 0.000000 0.603678 0.308823
O O5 0.250000 0.750000 0.837659
O O6 0.106870 0.687623 0.852899
O O7 0.147591 0.779197 0.915207
O O8 0.773681 0.500000 0.615147
O O9 0.664646 0.426413 0.659646
O O10 0.759747 0.382187 0.587015
O O11 0.000000 0.598593 0.830643
O O12 0.917818 0.608166 0.578194
O O13 0.000000 0.500000 0.584479
O O14 0.000000 0.564097 0.500000
O O15 0.671853 0.340639 0.000000
#
# Coordination Sequence:
#
# PCOD8285359 Si02
#       6
#    32  32  32  32  16  32
#     4  10  22  38  61  90 121 157 195 243 304 365
#     4  11  21  37  60  89 120 157 198 247 293 355
#     4  11  24  40  61  90 120 158 205 251 295 355
#     4  11  23  40  60  86 121 163 203 244 297 349
#     4   9  18  34  58  88 119 152 187 231 296 369
#     4  10  22  39  60  89 122 157 194 243 305 363
#
# _framework density 20.067634000000002
#
# number of rings (size 3 to 8) (size 9 to 14) (size 15 to 20)
#    0.000    1.545    3.636    2.182    6.364    5.818 
#    0.000    1.818    0.000    1.636    0.000    1.273 
#    0.000    0.000    0.000    0.000    0.000    0.000 
#
# Total GULP energy -545547.466986 kJ/mol
# GULP energy per Si atom -12398.806068 kJ/mol
# Density = 2.002196 g / cm^3
# Si number density = 20.067634 Si / 1000 Ang^3
#
#
#
# Elastic Constant Matrix: (Units=GPa)
#
#
# Indices 1 2 3 4 5 6 
#
# 1 111.5764 8.2073 38.1990 0.0000 0.0000 0.0000
# 2 8.2073 70.9982 28.5879 0.0000 0.0000 0.0000
# 3 38.1990 28.5879 117.1342 0.0000 0.0000 0.0000
# 4 0.0000 0.0000 0.0000 17.4845 0.0000 0.0000
# 5 0.0000 0.0000 0.0000 0.0000 22.7010 0.0000
# 6 0.0000 0.0000 0.0000 0.0000 0.0000 -131.2922
#
#
#
# Elastic Compliance Matrix: (Units=1/GPa)
#
#
# Indices 1 2 3 4 5 6 
#
# 1 0.010091 0.000176 -0.003334 0.000000 0.000000 0.000000
# 2 0.000176 0.015623 -0.003870 0.000000 0.000000 0.000000
# 3 -0.003334 -0.003870 0.010569 0.000000 0.000000 0.000000
# 4 0.000000 0.000000 0.000000 0.057194 0.000000 0.000000
# 5 0.000000 0.000000 0.000000 0.000000 0.044051 0.000000
# 6 0.000000 0.000000 0.000000 0.000000 0.000000 -0.007617
#
#
# Mechanical properties :
#
#
# Convention : Reuss Voigt Hill
#
# Bulk Modulus (GPa) = 44.99137 49.96635 47.47886
# Shear Modulus (GPa) = 33.03038 -3.24038 14.89500
#
# Velocity S-wave (km/s) = 4.06144 -1.27210 2.72736
# Velocity P-wave (km/s) = 6.66800 4.77445 5.79903
#
# Compressibility (1/GPa) = 0.02222649
#
# Stress axis : x y z
#
# Youngs Moduli (GPa) = 99.09975 64.00841 94.61668
#
# Poissons Ratio (x) = -0.01126 0.31542
# Poissons Ratio (y) = -0.01743 0.36620
# Poissons Ratio (z) = 0.33037 0.24773
#
# Static dielectric constant tensor:
#      x y z
#    x 3.842880 0.000000 0.000000 
#    y 0.000000 3.574410 0.000000 
#    z 0.000000 0.000000 3.541050 
# 
# 
# High freq. dielectric constant tensor:
#      x y z
#    x 1.788000 0.000000 0.000000 
#    y 0.000000 1.773790 0.000000 
#    z 0.000000 0.000000 1.773660 
# 
# From -- ./inp_files/17902.got.cif
#   From: 2010.03.12/outbox.cif.g09.slc.cpg/sg69_9_cif.got.tgz:17902.got - 2010.04.10 23:52:46.
