data_PCOD8285938
_publ_section_title
;
Structure prediction by ZEFSAII (Michael W. Deem and Ramdas Pophale) SiO2 
 PCOD8285938
Probable space group: F D D D
;
_chemical_formula_sum "Si O2"
_cell_formula_units_Z 160
_cell_length_a 15.553809
_cell_length_b 23.763147
_cell_length_c 21.584399
_cell_angle_alpha 90.000000
_cell_angle_beta 90.000000
_cell_angle_gamma 90.000000
_cell_volume 7977.754667
_symmetry_space_group_name_H-M "F D D D"
_symmetry_group_IT_number 70
_space_group.IT_coordinate_system_code '2'
_symmetry_cell_setting 'orthorhombic'
loop_
_space_group_symop_operation_xyz
x,y,z
1/4-x,1/4-y,z
x,1/4-y,1/4-z
1/4-x,y,1/4-z
-x,-y,-z
3/4+x,3/4+y,-z
-x,3/4+y,3/4+z
3/4+x,-y,3/4+z
x,1/2+y,1/2+z
1/4-x,3/4-y,1/2+z
x,3/4-y,3/4-z
1/4-x,1/2+y,3/4-z
-x,1/2-y,1/2-z
3/4+x,1/4+y,1/2-z
-x,1/4+y,1/4+z
3/4+x,1/2-y,1/4+z
1/2+x,y,1/2+z
3/4-x,1/4-y,1/2+z
1/2+x,1/4-y,3/4-z
3/4-x,y,3/4-z
1/2-x,-y,1/2-z
1/4+x,3/4+y,1/2-z
1/2-x,3/4+y,1/4+z
1/4+x,-y,1/4+z
1/2+x,1/2+y,z
3/4-x,3/4-y,z
1/2+x,3/4-y,1/4-z
3/4-x,1/2+y,1/4-z
1/2-x,1/2-y,-z
1/4+x,1/4+y,-z
1/2-x,1/4+y,3/4+z
1/4+x,1/2-y,3/4+z
loop_
_atom_site_type_symbol
_atom_site_label
_atom_site_fract_x
_atom_site_fract_y
_atom_site_fract_z
Si Si1 0.219944 0.991188 0.330673
Si Si2 0.366742 0.940479 0.264318
Si Si3 0.112855 0.858333 0.442164
Si Si4 0.809228 0.029946 0.527545
Si Si5 0.082719 0.570629 0.192171
O O1 0.320483 0.975096 0.320795
O O2 0.171217 0.944151 0.287931
O O3 0.191605 0.991645 0.401742
O O4 0.188842 0.049695 0.299027
O O5 0.375000 0.875000 0.281311
O O6 0.462610 0.962706 0.254207
O O7 0.147853 0.875000 0.375000
O O8 0.132647 0.913870 0.483518
O O9 0.016517 0.836687 0.437970
O O10 0.852583 0.982638 0.484945
O O11 0.125000 0.625000 0.224076
O O12 0.125000 0.559436 0.125000
#
# Coordination Sequence:
#
# PCOD8285938 Si02
#       5
#    32  32  32  32  32
#     4  10  22  37  62  93 128 161 203 254 306 371
#     4  11  21  38  63  92 129 166 200 250 313 373
#     4  10  19  39  63  87 116 157 206 250 299 367
#     4  11  23  38  65  93 121 161 212 252 309 379
#     4  11  23  43  64  85 120 166 209 261 312 361
#
# _framework density 20.055768
#
# number of rings (size 3 to 8) (size 9 to 14) (size 15 to 20)
#    0.000    1.400    6.000    0.600    0.000    2.400 
#    0.000    2.000    0.000    0.000    0.000    0.000 
#    0.000    0.000    0.000    0.000    0.000    0.000 
#
# Total GULP energy -495624.330303 kJ/mol
# GULP energy per Si atom -12390.608258 kJ/mol
# Density = 2.001012 g / cm^3
# Si number density = 20.055768 Si / 1000 Ang^3
#
#
#
# Elastic Constant Matrix: (Units=GPa)
#
#
# Indices 1 2 3 4 5 6 
#
# 1 85.0049 35.8114 24.3560 0.0000 0.0000 0.0000
# 2 35.8114 107.1770 46.2778 0.0000 0.0000 0.0000
# 3 24.3560 46.2778 80.6588 0.0000 0.0000 0.0000
# 4 0.0000 0.0000 0.0000 30.4792 0.0000 0.0000
# 5 0.0000 0.0000 0.0000 0.0000 11.4690 0.0000
# 6 0.0000 0.0000 0.0000 0.0000 0.0000 30.7586
#
#
#
# Elastic Compliance Matrix: (Units=1/GPa)
#
#
# Indices 1 2 3 4 5 6 
#
# 1 0.013940 -0.003776 -0.002043 0.000000 0.000000 0.000000
# 2 -0.003776 0.013426 -0.006563 0.000000 0.000000 0.000000
# 3 -0.002043 -0.006563 0.016780 0.000000 0.000000 0.000000
# 4 0.000000 0.000000 0.000000 0.032809 0.000000 0.000000
# 5 0.000000 0.000000 0.000000 0.000000 0.087192 0.000000
# 6 0.000000 0.000000 0.000000 0.000000 0.000000 0.032511
#
#
# Mechanical properties :
#
#
# Convention : Reuss Voigt Hill
#
# Bulk Modulus (GPa) = 51.59214 53.97010 52.78112
# Shear Modulus (GPa) = 21.94116 25.63439 23.78778
#
# Velocity S-wave (km/s) = 3.31117 3.57901 3.44769
# Velocity P-wave (km/s) = 6.35599 6.63683 6.49793
#
# Compressibility (1/GPa) = 0.01938280
#
# Stress axis : x y z
#
# Youngs Moduli (GPa) = 71.73568 74.48407 59.59381
#
# Poissons Ratio (x) = 0.28123 0.12176
# Poissons Ratio (y) = 0.27085 0.39110
# Poissons Ratio (z) = 0.14656 0.48883
#
# Static dielectric constant tensor:
#      x y z
#    x 3.782090 0.000000 0.000000 
#    y 0.000000 4.004890 0.000000 
#    z 0.000000 0.000000 3.421420 
# 
# 
# High freq. dielectric constant tensor:
#      x y z
#    x 1.794710 0.000000 0.000000 
#    y 0.000000 1.787870 0.000000 
#    z 0.000000 0.000000 1.753380 
# 
# From -- ./inp_files/28650.got.cif
#   From: 2010.03.12/outbox.cif.g09.slc.cpg/sg70_15_cif.got.tgz:28650.got - 2010.04.16 13:46:32.
