data_PCOD8285499
_publ_section_title
;
Structure prediction by ZEFSAII (Michael W. Deem and Ramdas Pophale) SiO2 
 PCOD8285499
Probable space group: F M M M
;
_chemical_formula_sum "Si O2"
_cell_formula_units_Z 176
_cell_length_a 12.916014
_cell_length_b 31.448872
_cell_length_c 26.186003
_cell_angle_alpha 90.000000
_cell_angle_beta 90.000000
_cell_angle_gamma 90.000000
_cell_volume 10636.599163
_symmetry_space_group_name_H-M "F M M M"
_symmetry_group_IT_number 69
_symmetry_cell_setting 'orthorhombic'
loop_
_space_group_symop_operation_xyz
x,y,z
-x,-y,z
x,-y,-z
-x,y,-z
-x,-y,-z
x,y,-z
-x,y,z
x,-y,z
x,1/2+y,1/2+z
-x,1/2-y,1/2+z
x,1/2-y,1/2-z
-x,1/2+y,1/2-z
-x,1/2-y,1/2-z
x,1/2+y,1/2-z
-x,1/2+y,1/2+z
x,1/2-y,1/2+z
1/2+x,y,1/2+z
1/2-x,-y,1/2+z
1/2+x,-y,1/2-z
1/2-x,y,1/2-z
1/2-x,-y,1/2-z
1/2+x,y,1/2-z
1/2-x,y,1/2+z
1/2+x,-y,1/2+z
1/2+x,1/2+y,z
1/2-x,1/2-y,z
1/2+x,1/2-y,-z
1/2-x,1/2+y,-z
1/2-x,1/2-y,-z
1/2+x,1/2+y,-z
1/2-x,1/2+y,z
1/2+x,1/2-y,z
loop_
_atom_site_type_symbol
_atom_site_label
_atom_site_fract_x
_atom_site_fract_y
_atom_site_fract_z
Si Si1 0.000000 0.726382 0.664883
Si Si2 0.717678 0.794112 0.360220
Si Si3 0.618964 0.585026 0.391278
Si Si4 0.123605 0.500000 0.943086
Si Si5 0.198807 0.368098 0.200138
Si Si6 0.500000 0.186938 0.777240
Si Si7 0.118690 0.825731 0.440735
O O1 0.095806 0.712558 0.628566
O O2 0.000000 0.776318 0.679559
O O3 0.000000 0.702634 0.719385
O O4 0.750000 0.750000 0.332200
O O5 0.722009 0.833559 0.322254
O O6 0.793408 0.800138 0.409272
O O7 0.500000 0.577738 0.377210
O O8 0.666138 0.542246 0.415442
O O9 0.680769 0.593778 0.339251
O O10 0.632149 0.624089 0.430452
O O11 0.000000 0.500000 0.944712
O O12 0.168970 0.500000 0.000000
O O13 0.250000 0.388903 0.250000
O O14 0.095769 0.343036 0.212181
O O15 0.138922 0.816636 0.500000
O O16 0.000000 0.812146 0.425691
#
# Coordination Sequence:
#
# PCOD8285499 Si02
#       7
#    16  32  32  16  32  16  32
#     4  11  22  32  47  72  98 128 179 224 252 285
#     4  11  22  31  48  69  96 129 170 216 255 294
#     4   9  17  29  50  73  99 128 159 199 248 307
#     4   9  16  28  49  78 102 121 154 201 253 300
#     4  11  20  32  47  70  98 133 170 202 245 300
#     4  11  20  32  48  65  97 136 168 211 253 286
#     4   9  19  35  52  70  95 130 169 209 259 313
#
# _framework density 16.546641999999999
#
# number of rings (size 3 to 8) (size 9 to 14) (size 15 to 20)
#    0.000    1.909    4.545    0.545    2.545    2.909 
#    0.000    0.909    0.000    0.000    0.000    0.000 
#    0.000    7.091    0.000   28.818    0.000    4.364 
#
# Total GULP energy -545265.412814 kJ/mol
# GULP energy per Si atom -12392.395746 kJ/mol
# Density = 1.650898 g / cm^3
# Si number density = 16.546642 Si / 1000 Ang^3
#
#
#
# Elastic Constant Matrix: (Units=GPa)
#
#
# Indices 1 2 3 4 5 6 
#
# 1 105.1087 31.6427 44.4860 0.0000 0.0000 0.0000
# 2 31.6427 89.6221 44.3720 0.0000 0.0000 0.0000
# 3 44.4860 44.3720 111.4780 0.0000 0.0000 0.0000
# 4 0.0000 0.0000 0.0000 15.9239 0.0000 0.0000
# 5 0.0000 0.0000 0.0000 0.0000 26.2785 0.0000
# 6 0.0000 0.0000 0.0000 0.0000 0.0000 -11.1442
#
#
#
# Elastic Compliance Matrix: (Units=1/GPa)
#
#
# Indices 1 2 3 4 5 6 
#
# 1 0.011812 -0.002288 -0.003803 0.000000 0.000000 0.000000
# 2 -0.002288 0.014340 -0.004795 0.000000 0.000000 0.000000
# 3 -0.003803 -0.004795 0.012397 0.000000 0.000000 0.000000
# 4 0.000000 0.000000 0.000000 0.062799 0.000000 0.000000
# 5 0.000000 0.000000 0.000000 0.000000 0.038054 0.000000
# 6 0.000000 0.000000 0.000000 0.000000 0.000000 -0.089733
#
#
# Mechanical properties :
#
#
# Convention : Reuss Voigt Hill
#
# Bulk Modulus (GPa) = 59.60443 60.80112 60.20278
# Shear Modulus (GPa) = 64.90844 18.59219 41.75031
#
# Velocity S-wave (km/s) = 6.26999 3.35569 5.02859
# Velocity P-wave (km/s) = 9.40836 7.19995 8.37724
#
# Compressibility (1/GPa) = 0.01677728
#
# Stress axis : x y z
#
# Youngs Moduli (GPa) = 84.65747 69.73742 80.66760
#
# Poissons Ratio (x) = 0.15953 0.30680
# Poissons Ratio (y) = 0.19366 0.38678
# Poissons Ratio (z) = 0.32197 0.33437
#
# Static dielectric constant tensor:
#      x y z
#    x 3.037480 0.000000 0.000000 
#    y 0.000000 3.061530 0.000000 
#    z 0.000000 0.000000 3.145060 
# 
# 
# High freq. dielectric constant tensor:
#      x y z
#    x 1.622120 0.000000 0.000000 
#    y 0.000000 1.619440 0.000000 
#    z 0.000000 0.000000 1.632710 
# 
# From -- ./inp_files/40478.got.cif
#   From: 2010.03.12/outbox.cif.g09.slc.cpg/sg69_21_cif.got.tgz:40478.got - 2010.04.10 23:52:46.
