data_PCOD8285745
_publ_section_title
;
Structure prediction by ZEFSAII (Michael W. Deem and Ramdas Pophale) SiO2 
 PCOD8285745
Probable space group: F D D D
;
_chemical_formula_sum "Si O2"
_cell_formula_units_Z 136
_cell_length_a 20.757287
_cell_length_b 11.627176
_cell_length_c 33.130324
_cell_angle_alpha 90.000000
_cell_angle_beta 90.000000
_cell_angle_gamma 90.000000
_cell_volume 7995.958283
_symmetry_space_group_name_H-M "F D D D"
_symmetry_group_IT_number 70
_space_group.IT_coordinate_system_code '2'
_symmetry_cell_setting 'orthorhombic'
loop_
_space_group_symop_operation_xyz
x,y,z
1/4-x,1/4-y,z
x,1/4-y,1/4-z
1/4-x,y,1/4-z
-x,-y,-z
3/4+x,3/4+y,-z
-x,3/4+y,3/4+z
3/4+x,-y,3/4+z
x,1/2+y,1/2+z
1/4-x,3/4-y,1/2+z
x,3/4-y,3/4-z
1/4-x,1/2+y,3/4-z
-x,1/2-y,1/2-z
3/4+x,1/4+y,1/2-z
-x,1/4+y,1/4+z
3/4+x,1/2-y,1/4+z
1/2+x,y,1/2+z
3/4-x,1/4-y,1/2+z
1/2+x,1/4-y,3/4-z
3/4-x,y,3/4-z
1/2-x,-y,1/2-z
1/4+x,3/4+y,1/2-z
1/2-x,3/4+y,1/4+z
1/4+x,-y,1/4+z
1/2+x,1/2+y,z
3/4-x,3/4-y,z
1/2+x,3/4-y,1/4-z
3/4-x,1/2+y,1/4-z
1/2-x,1/2-y,-z
1/4+x,1/4+y,-z
1/2-x,1/4+y,3/4+z
1/4+x,1/2-y,3/4+z
loop_
_atom_site_type_symbol
_atom_site_label
_atom_site_fract_x
_atom_site_fract_y
_atom_site_fract_z
Si Si1 0.875000 0.375000 0.875000
Si Si2 0.672304 0.875000 0.875000
Si Si3 0.537053 0.717477 0.560473
Si Si4 0.625000 0.625000 0.756060
Si Si5 0.800511 0.864837 0.100220
Si Si6 0.686221 0.769992 0.426558
O O1 0.916463 0.287374 0.901355
O O2 0.716344 0.768910 0.890579
O O3 0.628057 0.835035 0.837684
O O4 0.580779 0.711996 0.520337
O O5 0.495332 0.835427 0.564545
O O6 0.490871 0.608200 0.561486
O O7 0.672664 0.551476 0.783424
O O8 0.875000 0.875000 0.086644
O O9 0.788736 0.938201 0.140757
#
# Coordination Sequence:
#
# PCOD8285745 Si02
#       6
#     8  16  32  16  32  32
#     4  10  18  32  56  86 104 142 184 226 282 324
#     4  10  17  30  62  78 102 145 202 218 262 334
#     4  11  20  34  54  84 111 143 176 237 284 327
#     4  11  24  31  52  90 118 134 180 242 300 311
#     4  10  17  32  60  78 104 146 196 220 264 338
#     4  11  17  35  54  81 108 141 183 234 272 329
#
# _framework density 17.008592
#
# number of rings (size 3 to 8) (size 9 to 14) (size 15 to 20)
#    0.000    1.412   10.588    0.706    0.000    0.000 
#    0.000    1.176    0.000    0.706    0.000    0.000 
#    0.000    0.000    0.000    0.000    0.000    0.000 
#
# Total GULP energy -421472.870738 kJ/mol
# GULP energy per Si atom -12396.260904 kJ/mol
# Density = 1.696988 g / cm^3
# Si number density = 17.008592 Si / 1000 Ang^3
#
#
#
# Elastic Constant Matrix: (Units=GPa)
#
#
# Indices 1 2 3 4 5 6 
#
# 1 63.0629 24.8223 24.8934 0.0000 0.0000 0.0000
# 2 24.8223 100.9862 15.6620 0.0000 0.0000 0.0000
# 3 24.8934 15.6620 77.9719 0.0000 0.0000 0.0000
# 4 0.0000 0.0000 0.0000 22.7806 0.0000 0.0000
# 5 0.0000 0.0000 0.0000 0.0000 18.2924 0.0000
# 6 0.0000 0.0000 0.0000 0.0000 0.0000 26.8768
#
#
#
# Elastic Compliance Matrix: (Units=1/GPa)
#
#
# Indices 1 2 3 4 5 6 
#
# 1 0.019570 -0.003965 -0.005451 0.000000 0.000000 0.000000
# 2 -0.003965 0.011024 -0.000949 0.000000 0.000000 0.000000
# 3 -0.005451 -0.000949 0.014756 0.000000 0.000000 0.000000
# 4 0.000000 0.000000 0.000000 0.043897 0.000000 0.000000
# 5 0.000000 0.000000 0.000000 0.000000 0.054668 0.000000
# 6 0.000000 0.000000 0.000000 0.000000 0.000000 0.037207
#
#
# Mechanical properties :
#
#
# Convention : Reuss Voigt Hill
#
# Bulk Modulus (GPa) = 40.61700 41.41961 41.01830
# Shear Modulus (GPa) = 23.80301 25.36617 24.58459
#
# Velocity S-wave (km/s) = 3.74501 3.86602 3.80599
# Velocity P-wave (km/s) = 6.52934 6.65832 6.59414
#
# Compressibility (1/GPa) = 0.02462023
#
# Stress axis : x y z
#
# Youngs Moduli (GPa) = 51.09955 90.71130 67.76859
#
# Poissons Ratio (x) = 0.35965 0.36944
# Poissons Ratio (y) = 0.20260 0.06428
# Poissons Ratio (z) = 0.27857 0.08605
#
# Static dielectric constant tensor:
#      x y z
#    x 3.180840 0.000000 0.000000 
#    y 0.000000 3.359040 0.000000 
#    z 0.000000 0.000000 3.121090 
# 
# 
# High freq. dielectric constant tensor:
#      x y z
#    x 1.643220 0.000000 0.000000 
#    y 0.000000 1.648540 0.000000 
#    z 0.000000 0.000000 1.642640 
# 
# From -- ./inp_files/17888.got.cif
#   From: 2010.03.12/outbox.cif.g09.slc.cpg/sg70_9_cif.got.tgz:17888.got - 2010.04.16 13:46:32.
