data_PCOD8285469
_publ_section_title
;
Structure prediction by ZEFSAII (Michael W. Deem and Ramdas Pophale) SiO2 
 PCOD8285469
Probable space group: F M M M
;
_chemical_formula_sum "Si O2"
_cell_formula_units_Z 144
_cell_length_a 18.858967
_cell_length_b 22.783235
_cell_length_c 15.185278
_cell_angle_alpha 90.000000
_cell_angle_beta 90.000000
_cell_angle_gamma 90.000000
_cell_volume 6524.632234
_symmetry_space_group_name_H-M "F M M M"
_symmetry_group_IT_number 69
_symmetry_cell_setting 'orthorhombic'
loop_
_space_group_symop_operation_xyz
x,y,z
-x,-y,z
x,-y,-z
-x,y,-z
-x,-y,-z
x,y,-z
-x,y,z
x,-y,z
x,1/2+y,1/2+z
-x,1/2-y,1/2+z
x,1/2-y,1/2-z
-x,1/2+y,1/2-z
-x,1/2-y,1/2-z
x,1/2+y,1/2-z
-x,1/2+y,1/2+z
x,1/2-y,1/2+z
1/2+x,y,1/2+z
1/2-x,-y,1/2+z
1/2+x,-y,1/2-z
1/2-x,y,1/2-z
1/2-x,-y,1/2-z
1/2+x,y,1/2-z
1/2-x,y,1/2+z
1/2+x,-y,1/2+z
1/2+x,1/2+y,z
1/2-x,1/2-y,z
1/2+x,1/2-y,-z
1/2-x,1/2+y,-z
1/2-x,1/2-y,-z
1/2+x,1/2+y,-z
1/2-x,1/2+y,z
1/2+x,1/2-y,z
loop_
_atom_site_type_symbol
_atom_site_label
_atom_site_fract_x
_atom_site_fract_y
_atom_site_fract_z
Si Si1 0.083488 0.809229 0.500000
Si Si2 0.581460 0.123517 0.827067
Si Si3 0.354074 0.616793 0.146770
Si Si4 0.183318 0.293745 0.500000
Si Si5 0.888909 0.000000 0.599182
Si Si6 0.767322 0.500000 0.350967
Si Si7 0.000000 0.436084 0.400018
O O1 0.110644 0.842382 0.587421
O O2 0.111591 0.743512 0.500000
O O3 0.000000 0.807422 0.500000
O O4 0.500000 0.141646 0.802603
O O5 0.639121 0.136374 0.749541
O O6 0.581335 0.054799 0.847244
O O7 0.310937 0.557986 0.126899
O O8 0.434232 0.604722 0.121161
O O9 0.317413 0.667262 0.088563
O O10 0.250000 0.250000 0.500000
O O11 0.919554 0.000000 0.500000
O O12 0.803934 0.000000 0.592467
O O13 0.750000 0.500000 0.250000
O O14 0.000000 0.500000 0.349594
O O15 0.000000 0.452690 0.500000
#
# Coordination Sequence:
#
# PCOD8285469 Si02
#       7
#    16  32  32  16  16  16  16
#     4  10  26  49  68  99 137 183 245 296 346 407
#     4  11  23  42  72 106 139 178 233 295 355 426
#     4  12  25  44  72 105 142 182 230 291 366 429
#     4  12  32  49  72  97 138 192 249 296 352 423
#     4  12  25  39  69 101 153 193 224 273 363 444
#     4  12  26  41  65 106 140 181 216 277 354 445
#     4  11  22  40  70 110 146 176 220 283 366 448
#
# _framework density 22.070209999999999
#
# number of rings (size 3 to 8) (size 9 to 14) (size 15 to 20)
#    0.000    0.556    6.667    0.333    6.222    1.333 
#    0.000    3.333    0.000    0.000    0.000    0.000 
#    0.000    0.000    0.000    0.000    0.000    0.000 
#
# Total GULP energy -446366.567011 kJ/mol
# GULP energy per Si atom -12399.071306 kJ/mol
# Density = 2.201998 g / cm^3
# Si number density = 22.070210 Si / 1000 Ang^3
#
#
#
# Elastic Constant Matrix: (Units=GPa)
#
#
# Indices 1 2 3 4 5 6 
#
# 1 83.9827 34.1032 21.5344 0.0000 0.0000 0.0000
# 2 34.1032 143.0863 65.4754 0.0000 0.0000 0.0000
# 3 21.5344 65.4754 157.9962 0.0000 0.0000 0.0000
# 4 0.0000 0.0000 0.0000 32.5455 0.0000 0.0000
# 5 0.0000 0.0000 0.0000 0.0000 20.4440 0.0000
# 6 0.0000 0.0000 0.0000 0.0000 0.0000 42.7973
#
#
#
# Elastic Compliance Matrix: (Units=1/GPa)
#
#
# Indices 1 2 3 4 5 6 
#
# 1 0.013231 -0.002873 -0.000613 0.000000 0.000000 0.000000
# 2 -0.002873 0.009248 -0.003441 0.000000 0.000000 0.000000
# 3 -0.000613 -0.003441 0.007839 0.000000 0.000000 0.000000
# 4 0.000000 0.000000 0.000000 0.030726 0.000000 0.000000
# 5 0.000000 0.000000 0.000000 0.000000 0.048914 0.000000
# 6 0.000000 0.000000 0.000000 0.000000 0.000000 0.023366
#
#
# Mechanical properties :
#
#
# Convention : Reuss Voigt Hill
#
# Bulk Modulus (GPa) = 60.73714 69.69903 65.21808
# Shear Modulus (GPa) = 32.75130 36.75417 34.75274
#
# Velocity S-wave (km/s) = 3.85640 4.08527 3.97248
# Velocity P-wave (km/s) = 6.88540 7.34178 7.11725
#
# Compressibility (1/GPa) = 0.01646439
#
# Stress axis : x y z
#
# Youngs Moduli (GPa) = 75.57995 108.13006 127.57161
#
# Poissons Ratio (x) = 0.31067 0.07816
# Poissons Ratio (y) = 0.21715 0.43897
# Poissons Ratio (z) = 0.04631 0.37207
#
# Static dielectric constant tensor:
#      x y z
#    x 4.520560 0.000000 0.000000 
#    y 0.000000 4.088310 0.000000 
#    z 0.000000 0.000000 4.435510 
# 
# 
# High freq. dielectric constant tensor:
#      x y z
#    x 1.871290 0.000000 0.000000 
#    y 0.000000 1.857320 0.000000 
#    z 0.000000 0.000000 1.882520 
# 
# From -- ./inp_files/24546.got.cif
#   From: 2010.03.12/outbox.cif.g09.slc.cpg/sg69_13_cif.got.tgz:24546.got - 2010.04.10 23:52:46.
