data_PCOD8285642
_publ_section_title
;
Structure prediction by ZEFSAII (Michael W. Deem and Ramdas Pophale) SiO2 
 PCOD8285642
Probable space group: F M M M
;
_chemical_formula_sum "Si O2"
_cell_formula_units_Z 192
_cell_length_a 29.972489
_cell_length_b 18.086277
_cell_length_c 19.093519
_cell_angle_alpha 90.000000
_cell_angle_beta 90.000000
_cell_angle_gamma 90.000000
_cell_volume 10350.419814
_symmetry_space_group_name_H-M "F M M M"
_symmetry_group_IT_number 69
_symmetry_cell_setting 'orthorhombic'
loop_
_space_group_symop_operation_xyz
x,y,z
-x,-y,z
x,-y,-z
-x,y,-z
-x,-y,-z
x,y,-z
-x,y,z
x,-y,z
x,1/2+y,1/2+z
-x,1/2-y,1/2+z
x,1/2-y,1/2-z
-x,1/2+y,1/2-z
-x,1/2-y,1/2-z
x,1/2+y,1/2-z
-x,1/2+y,1/2+z
x,1/2-y,1/2+z
1/2+x,y,1/2+z
1/2-x,-y,1/2+z
1/2+x,-y,1/2-z
1/2-x,y,1/2-z
1/2-x,-y,1/2-z
1/2+x,y,1/2-z
1/2-x,y,1/2+z
1/2+x,-y,1/2+z
1/2+x,1/2+y,z
1/2-x,1/2-y,z
1/2+x,1/2-y,-z
1/2-x,1/2+y,-z
1/2-x,1/2-y,-z
1/2+x,1/2+y,-z
1/2-x,1/2+y,z
1/2+x,1/2-y,z
loop_
_atom_site_type_symbol
_atom_site_label
_atom_site_fract_x
_atom_site_fract_y
_atom_site_fract_z
Si Si1 0.000000 0.697747 0.318249
Si Si2 0.580748 0.582348 0.363659
Si Si3 0.758867 0.835450 0.081427
Si Si4 0.426213 0.918581 0.299430
Si Si5 0.323193 0.914251 0.312942
Si Si6 0.679164 0.587872 0.345772
Si Si7 0.500000 0.673274 0.420838
O O1 0.000000 0.750000 0.250000
O O2 0.956730 0.646828 0.327250
O O3 0.000000 0.748890 0.384324
O O4 0.580128 0.500000 0.395684
O O5 0.567137 0.579809 0.283231
O O6 0.630411 0.617375 0.369454
O O7 0.544999 0.629390 0.404989
O O8 0.750000 0.750000 0.097119
O O9 0.799265 0.863600 0.129604
O O10 0.714451 0.880100 0.100216
O O11 0.770766 0.849072 0.000000
O O12 0.375769 0.902048 0.322173
O O13 0.440238 0.000000 0.328419
O O14 0.309214 0.888975 0.234357
O O15 0.309954 0.000000 0.324971
O O16 0.678533 0.500000 0.349153
O O17 0.500000 0.695035 0.500000
#
# Coordination Sequence:
#
# PCOD8285642 Si02
#       7
#    16  32  32  32  32  32  16
#     4  12  21  35  59  87 113 150 190 226 268 339
#     4   9  18  35  57  83 111 145 184 224 277 343
#     4  11  24  38  51  77 115 152 187 230 289 348
#     4   9  18  36  62  87 109 139 188 243 282 320
#     4   9  19  37  60  85 109 139 187 241 283 329
#     4   9  19  36  60  84 107 138 186 237 278 329
#     4  12  25  36  49  80 125 158 182 225 279 333
#
# _framework density 18.549970999999999
#
# number of rings (size 3 to 8) (size 9 to 14) (size 15 to 20)
#    0.000    2.167    1.667    3.500    0.000    8.000 
#    0.000    4.167    0.000    2.000    0.000    0.000 
#    0.000    0.000    0.000    0.000    0.000    0.000 
#
# Total GULP energy -595069.538320 kJ/mol
# GULP energy per Si atom -12397.282048 kJ/mol
# Density = 1.850775 g / cm^3
# Si number density = 18.549971 Si / 1000 Ang^3
#
#
#
# Elastic Constant Matrix: (Units=GPa)
#
#
# Indices 1 2 3 4 5 6 
#
# 1 95.8605 48.3134 56.1123 0.0000 0.0000 0.0000
# 2 48.3134 87.6327 57.0802 0.0000 0.0000 0.0000
# 3 56.1123 57.0802 106.3958 0.0000 0.0000 0.0000
# 4 0.0000 0.0000 0.0000 18.4798 0.0000 0.0000
# 5 0.0000 0.0000 0.0000 0.0000 10.9280 0.0000
# 6 0.0000 0.0000 0.0000 0.0000 0.0000 -2.9382
#
#
#
# Elastic Compliance Matrix: (Units=1/GPa)
#
#
# Indices 1 2 3 4 5 6 
#
# 1 0.016542 -0.005284 -0.005890 0.000000 0.000000 0.000000
# 2 -0.005284 0.019229 -0.007529 0.000000 0.000000 0.000000
# 3 -0.005890 -0.007529 0.016544 0.000000 0.000000 0.000000
# 4 0.000000 0.000000 0.000000 0.054113 0.000000 0.000000
# 5 0.000000 0.000000 0.000000 0.000000 0.091508 0.000000
# 6 0.000000 0.000000 0.000000 0.000000 0.000000 -0.340350
#
#
# Mechanical properties :
#
#
# Convention : Reuss Voigt Hill
#
# Bulk Modulus (GPa) = 67.06954 68.10008 67.58481
# Shear Modulus (GPa) = -49.98066 13.85282 -18.06392
#
# Velocity S-wave (km/s) = -5.19637 2.73570 -3.12396
# Velocity P-wave (km/s) = 0.48124 6.83887 4.84777
#
# Compressibility (1/GPa) = 0.01490990
#
# Stress axis : x y z
#
# Youngs Moduli (GPa) = 60.45084 52.00594 60.44366
#
# Poissons Ratio (x) = 0.27479 0.35599
# Poissons Ratio (y) = 0.31941 0.45510
# Poissons Ratio (z) = 0.35603 0.39157
#
# Static dielectric constant tensor:
#      x y z
#    x 3.717440 0.000000 0.000000 
#    y 0.000000 3.619080 0.000000 
#    z 0.000000 0.000000 3.226530 
# 
# 
# High freq. dielectric constant tensor:
#      x y z
#    x 1.734060 0.000000 0.000000 
#    y 0.000000 1.718140 0.000000 
#    z 0.000000 0.000000 1.695300 
# 
# From -- ./inp_files/27802.got.cif
#   From: 2010.03.12/outbox.cif.g09.slc.cpg/sg69_14_cif.got.tgz:27802.got - 2010.04.10 23:52:46.
