data_PCOD8285630
_publ_section_title
;
Structure prediction by ZEFSAII (Michael W. Deem and Ramdas Pophale) SiO2 
 PCOD8285630
Probable space group: F M M M
;
_chemical_formula_sum "Si O2"
_cell_formula_units_Z 144
_cell_length_a 16.593192
_cell_length_b 17.531460
_cell_length_c 24.360329
_cell_angle_alpha 90.000000
_cell_angle_beta 90.000000
_cell_angle_gamma 90.000000
_cell_volume 7086.489908
_symmetry_space_group_name_H-M "F M M M"
_symmetry_group_IT_number 69
_symmetry_cell_setting 'orthorhombic'
loop_
_space_group_symop_operation_xyz
x,y,z
-x,-y,z
x,-y,-z
-x,y,-z
-x,-y,-z
x,y,-z
-x,y,z
x,-y,z
x,1/2+y,1/2+z
-x,1/2-y,1/2+z
x,1/2-y,1/2-z
-x,1/2+y,1/2-z
-x,1/2-y,1/2-z
x,1/2+y,1/2-z
-x,1/2+y,1/2+z
x,1/2-y,1/2+z
1/2+x,y,1/2+z
1/2-x,-y,1/2+z
1/2+x,-y,1/2-z
1/2-x,y,1/2-z
1/2-x,-y,1/2-z
1/2+x,y,1/2-z
1/2-x,y,1/2+z
1/2+x,-y,1/2+z
1/2+x,1/2+y,z
1/2-x,1/2-y,z
1/2+x,1/2-y,-z
1/2-x,1/2+y,-z
1/2-x,1/2-y,-z
1/2+x,1/2+y,-z
1/2-x,1/2+y,z
1/2+x,1/2-y,z
loop_
_atom_site_type_symbol
_atom_site_label
_atom_site_fract_x
_atom_site_fract_y
_atom_site_fract_z
Si Si1 0.407107 0.086450 0.063888
Si Si2 0.369858 0.088190 0.646267
Si Si3 0.500000 0.590805 0.938364
Si Si4 0.791624 0.666422 0.858253
Si Si5 0.587963 0.337953 0.260981
O O1 0.500000 0.105260 0.076076
O O2 0.354070 0.152394 0.092506
O O3 0.387182 0.000000 0.084530
O O4 0.388169 0.091819 0.000000
O O5 0.422084 0.120764 0.595284
O O6 0.277071 0.103830 0.634144
O O7 0.395474 0.123749 0.703311
O O8 0.387083 0.000000 0.651580
O O9 0.500000 0.500000 0.943060
O O10 0.500000 0.626167 0.000000
O O11 0.750000 0.750000 0.858330
O O12 0.839211 0.646491 0.802517
O O13 0.500000 0.366110 0.283525
O O14 0.583436 0.250000 0.250000
#
# Coordination Sequence:
#
# PCOD8285630 Si02
#       5
#    32  32  16  32  32
#     4   9  20  42  68  92 124 169 222 278 329 380
#     4  11  23  40  64  95 126 164 215 267 314 379
#     4   9  20  42  67  92 126 166 207 258 318 375
#     4  12  24  38  62  95 132 170 213 263 328 391
#     4  11  23  41  63  86 125 171 210 255 319 383
#
# _framework density 20.320356
#
# number of rings (size 3 to 8) (size 9 to 14) (size 15 to 20)
#    0.000    1.444    3.333    2.667    0.000    4.000 
#    2.000    2.222    0.000    0.000    0.000    0.000 
#    0.000    0.000    0.000    0.000    0.000    0.000 
#
# Total GULP energy -446232.370644 kJ/mol
# GULP energy per Si atom -12395.343629 kJ/mol
# Density = 2.027411 g / cm^3
# Si number density = 20.320356 Si / 1000 Ang^3
#
#
#
# Elastic Constant Matrix: (Units=GPa)
#
#
# Indices 1 2 3 4 5 6 
#
# 1 156.4768 35.0338 90.8298 0.0000 0.0000 0.0000
# 2 35.0338 59.0343 51.1915 0.0000 0.0000 0.0000
# 3 90.8298 51.1915 153.7922 0.0000 0.0000 0.0000
# 4 0.0000 0.0000 0.0000 23.6428 0.0000 0.0000
# 5 0.0000 0.0000 0.0000 0.0000 26.6018 0.0000
# 6 0.0000 0.0000 0.0000 0.0000 0.0000 34.4176
#
#
#
# Elastic Compliance Matrix: (Units=1/GPa)
#
#
# Indices 1 2 3 4 5 6 
#
# 1 0.009777 -0.001117 -0.005402 0.000000 0.000000 0.000000
# 2 -0.001117 0.023940 -0.007309 0.000000 0.000000 0.000000
# 3 -0.005402 -0.007309 0.012126 0.000000 0.000000 0.000000
# 4 0.000000 0.000000 0.000000 0.042296 0.000000 0.000000
# 5 0.000000 0.000000 0.000000 0.000000 0.037591 0.000000
# 6 0.000000 0.000000 0.000000 0.000000 0.000000 0.029055
#
#
# Mechanical properties :
#
#
# Convention : Reuss Voigt Hill
#
# Bulk Modulus (GPa) = 54.98828 80.37927 67.68378
# Shear Modulus (GPa) = 26.52465 29.74900 28.13683
#
# Velocity S-wave (km/s) = 3.61685 3.83038 3.72514
# Velocity P-wave (km/s) = 6.67544 7.69443 7.20298
#
# Compressibility (1/GPa) = 0.01818569
#
# Stress axis : x y z
#
# Youngs Moduli (GPa) = 102.28400 41.77062 82.47001
#
# Poissons Ratio (x) = 0.04668 0.44552
# Poissons Ratio (y) = 0.11430 0.60276
# Poissons Ratio (z) = 0.55255 0.30529
#
# Static dielectric constant tensor:
#      x y z
#    x 4.260070 0.000000 0.000000 
#    y 0.000000 3.475130 0.000000 
#    z 0.000000 0.000000 3.614380 
# 
# 
# High freq. dielectric constant tensor:
#      x y z
#    x 1.815350 0.000000 0.000000 
#    y 0.000000 1.778220 0.000000 
#    z 0.000000 0.000000 1.795640 
# 
# From -- ./inp_files/36473.got.cif
#   From: 2010.03.12/outbox.cif.g09.slc.cpg/sg69_19_cif.got.tgz:36473.got - 2010.04.10 23:52:46.
