data_PCOD8285928
_publ_section_title
;
Structure prediction by ZEFSAII (Michael W. Deem and Ramdas Pophale) SiO2 
 PCOD8285928
Probable space group: F D D D
;
_chemical_formula_sum "Si O2"
_cell_formula_units_Z 168
_cell_length_a 19.512778
_cell_length_b 22.500333
_cell_length_c 19.311841
_cell_angle_alpha 90.000000
_cell_angle_beta 90.000000
_cell_angle_gamma 90.000000
_cell_volume 8478.747973
_symmetry_space_group_name_H-M "F D D D"
_symmetry_group_IT_number 70
_space_group.IT_coordinate_system_code '2'
_symmetry_cell_setting 'orthorhombic'
loop_
_space_group_symop_operation_xyz
x,y,z
1/4-x,1/4-y,z
x,1/4-y,1/4-z
1/4-x,y,1/4-z
-x,-y,-z
3/4+x,3/4+y,-z
-x,3/4+y,3/4+z
3/4+x,-y,3/4+z
x,1/2+y,1/2+z
1/4-x,3/4-y,1/2+z
x,3/4-y,3/4-z
1/4-x,1/2+y,3/4-z
-x,1/2-y,1/2-z
3/4+x,1/4+y,1/2-z
-x,1/4+y,1/4+z
3/4+x,1/2-y,1/4+z
1/2+x,y,1/2+z
3/4-x,1/4-y,1/2+z
1/2+x,1/4-y,3/4-z
3/4-x,y,3/4-z
1/2-x,-y,1/2-z
1/4+x,3/4+y,1/2-z
1/2-x,3/4+y,1/4+z
1/4+x,-y,1/4+z
1/2+x,1/2+y,z
3/4-x,3/4-y,z
1/2+x,3/4-y,1/4-z
3/4-x,1/2+y,1/4-z
1/2-x,1/2-y,-z
1/4+x,1/4+y,-z
1/2-x,1/4+y,3/4+z
1/4+x,1/2-y,3/4+z
loop_
_atom_site_type_symbol
_atom_site_label
_atom_site_fract_x
_atom_site_fract_y
_atom_site_fract_z
Si Si1 0.625000 0.125000 0.625000
Si Si2 0.500400 0.248491 0.166436
Si Si3 0.375000 0.079973 0.875000
Si Si4 0.130901 0.914110 0.254664
Si Si5 0.592744 0.537080 0.301444
Si Si6 0.290199 0.125000 0.625000
Si Si7 0.963429 0.847350 0.755335
O O1 0.672687 0.166077 0.576585
O O2 0.500000 0.250000 0.250000
O O3 0.560227 0.287686 0.133881
O O4 0.430106 0.273234 0.130997
O O5 0.509448 0.181324 0.137827
O O6 0.378776 0.125823 0.813338
O O7 0.092283 0.875174 0.311139
O O8 0.210984 0.926178 0.269187
O O9 0.092810 0.977745 0.253697
O O10 0.670635 0.562927 0.304912
O O11 0.539609 0.582559 0.264474
#
# Coordination Sequence:
#
# PCOD8285928 Si02
#       7
#     8  32  16  32  32  16  32
#     4   8  18  30  56  80 114 162 192 236 308 370
#     4  11  22  44  65  91 129 168 221 275 322 392
#     4  12  24  40  66  95 126 173 216 282 322 380
#     4  11  21  38  63  95 128 168 215 262 328 393
#     4   9  21  37  62  92 129 165 206 262 325 385
#     4  10  23  41  68  93 123 174 220 266 334 392
#     4  10  19  38  60  91 133 164 203 260 319 393
#
# _framework density 19.814246000000001
#
# number of rings (size 3 to 8) (size 9 to 14) (size 15 to 20)
#    0.000    1.905    3.810    1.143    0.000    3.429 
#    0.000   11.429    0.000    0.000    0.000    0.000 
#    0.000    0.000    0.000    0.000    0.000    0.000 
#
# Total GULP energy -520299.296057 kJ/mol
# GULP energy per Si atom -12388.078478 kJ/mol
# Density = 1.976915 g / cm^3
# Si number density = 19.814246 Si / 1000 Ang^3
#
#
#
# Elastic Constant Matrix: (Units=GPa)
#
#
# Indices 1 2 3 4 5 6 
#
# 1 91.2258 49.8785 50.2296 0.0000 0.0000 0.0000
# 2 49.8785 131.5127 66.2416 0.0000 0.0000 0.0000
# 3 50.2296 66.2416 146.9613 0.0000 0.0000 0.0000
# 4 0.0000 0.0000 0.0000 26.8650 0.0000 0.0000
# 5 0.0000 0.0000 0.0000 0.0000 21.0526 0.0000
# 6 0.0000 0.0000 0.0000 0.0000 0.0000 23.8320
#
#
#
# Elastic Compliance Matrix: (Units=1/GPa)
#
#
# Indices 1 2 3 4 5 6 
#
# 1 0.014979 -0.004014 -0.003311 0.000000 0.000000 0.000000
# 2 -0.004014 0.010913 -0.003547 0.000000 0.000000 0.000000
# 3 -0.003311 -0.003547 0.009535 0.000000 0.000000 0.000000
# 4 0.000000 0.000000 0.000000 0.037223 0.000000 0.000000
# 5 0.000000 0.000000 0.000000 0.000000 0.047500 0.000000
# 6 0.000000 0.000000 0.000000 0.000000 0.000000 0.041960
#
#
# Mechanical properties :
#
#
# Convention : Reuss Voigt Hill
#
# Bulk Modulus (GPa) = 73.07679 78.04434 75.56056
# Shear Modulus (GPa) = 26.53731 27.90658 27.22194
#
# Velocity S-wave (km/s) = 3.66362 3.75695 3.71058
# Velocity P-wave (km/s) = 7.40656 7.63499 7.52164
#
# Compressibility (1/GPa) = 0.01368424
#
# Stress axis : x y z
#
# Youngs Moduli (GPa) = 66.75965 91.63689 104.87890
#
# Poissons Ratio (x) = 0.36779 0.34721
# Poissons Ratio (y) = 0.26795 0.37200
# Poissons Ratio (z) = 0.22101 0.32503
#
# Static dielectric constant tensor:
#      x y z
#    x 3.645470 0.000000 0.000000 
#    y 0.000000 3.793750 0.000000 
#    z 0.000000 0.000000 3.586190 
# 
# 
# High freq. dielectric constant tensor:
#      x y z
#    x 1.762780 0.000000 0.000000 
#    y 0.000000 1.786640 0.000000 
#    z 0.000000 0.000000 1.765470 
# 
# From -- ./inp_files/44926.got.cif
#   From: 2010.03.12/outbox.cif.g09.slc.cpg/sg70_23_cif.got.tgz:44926.got - 2010.04.16 13:46:32.
