data_PCOD8285109
_publ_section_title
;
Structure prediction by ZEFSAII (Michael W. Deem and Ramdas Pophale) SiO2 
 PCOD8285109
Probable space group: F M M M
;
_chemical_formula_sum "Si O2"
_cell_formula_units_Z 96
_cell_length_a 19.713676
_cell_length_b 17.631425
_cell_length_c 13.511903
_cell_angle_alpha 90.000000
_cell_angle_beta 90.000000
_cell_angle_gamma 90.000000
_cell_volume 4696.469945
_symmetry_space_group_name_H-M "F M M M"
_symmetry_group_IT_number 69
_symmetry_cell_setting 'orthorhombic'
loop_
_space_group_symop_operation_xyz
x,y,z
-x,-y,z
x,-y,-z
-x,y,-z
-x,-y,-z
x,y,-z
-x,y,z
x,-y,z
x,1/2+y,1/2+z
-x,1/2-y,1/2+z
x,1/2-y,1/2-z
-x,1/2+y,1/2-z
-x,1/2-y,1/2-z
x,1/2+y,1/2-z
-x,1/2+y,1/2+z
x,1/2-y,1/2+z
1/2+x,y,1/2+z
1/2-x,-y,1/2+z
1/2+x,-y,1/2-z
1/2-x,y,1/2-z
1/2-x,-y,1/2-z
1/2+x,y,1/2-z
1/2-x,y,1/2+z
1/2+x,-y,1/2+z
1/2+x,1/2+y,z
1/2-x,1/2-y,z
1/2+x,1/2-y,-z
1/2-x,1/2+y,-z
1/2-x,1/2-y,-z
1/2+x,1/2+y,-z
1/2-x,1/2+y,z
1/2+x,1/2-y,z
loop_
_atom_site_type_symbol
_atom_site_label
_atom_site_fract_x
_atom_site_fract_y
_atom_site_fract_z
Si Si1 0.750000 0.375341 0.250000
Si Si2 0.421094 0.643058 0.608679
Si Si3 0.793808 0.000000 0.883377
Si Si4 0.580809 0.000000 0.240961
Si Si5 0.140877 0.750000 0.750000
O O1 0.748991 0.427786 0.347974
O O2 0.814990 0.323943 0.269351
O O3 0.386197 0.637336 0.500000
O O4 0.500000 0.636509 0.593697
O O5 0.397846 0.573831 0.678212
O O6 0.404775 0.725802 0.656017
O O7 0.870151 0.000000 0.836745
O O8 0.801926 0.000000 0.000000
O O9 0.500000 0.000000 0.269784
#
# Coordination Sequence:
#
# PCOD8285109 Si02
#       5
#    16  32  16  16  16
#     4  10  24  42  60  88 120 162 204 244 302 360
#     4  10  21  38  64  93 122 161 203 250 305 354
#     4  11  23  44  66  88 119 157 208 256 298 357
#     4  10  20  41  67  91 123 156 203 258 296 356
#     4  11  21  40  62  86 127 157 200 250 298 369
#
# _framework density 20.440885000000002
#
# number of rings (size 3 to 8) (size 9 to 14) (size 15 to 20)
#    0.000    1.667    3.333    1.000    0.000    5.000 
#    0.000    3.333    0.000    0.000    0.000    0.000 
#    0.000    0.000    0.000    0.000    0.000    0.000 
#
# Total GULP energy -297317.529185 kJ/mol
# GULP energy per Si atom -12388.230383 kJ/mol
# Density = 2.039436 g / cm^3
# Si number density = 20.440885 Si / 1000 Ang^3
#
#
#
# Elastic Constant Matrix: (Units=GPa)
#
#
# Indices 1 2 3 4 5 6 
#
# 1 45.5944 37.4915 38.4502 0.0000 0.0000 0.0000
# 2 37.4915 143.0139 75.0297 0.0000 0.0000 0.0000
# 3 38.4502 75.0297 181.8605 0.0000 0.0000 0.0000
# 4 0.0000 0.0000 0.0000 30.5152 0.0000 0.0000
# 5 0.0000 0.0000 0.0000 0.0000 25.2538 0.0000
# 6 0.0000 0.0000 0.0000 0.0000 0.0000 50.5409
#
#
#
# Elastic Compliance Matrix: (Units=1/GPa)
#
#
# Indices 1 2 3 4 5 6 
#
# 1 0.030039 -0.005798 -0.003959 0.000000 0.000000 0.000000
# 2 -0.005798 0.010043 -0.002918 0.000000 0.000000 0.000000
# 3 -0.003959 -0.002918 0.007539 0.000000 0.000000 0.000000
# 4 0.000000 0.000000 0.000000 0.032771 0.000000 0.000000
# 5 0.000000 0.000000 0.000000 0.000000 0.039598 0.000000
# 6 0.000000 0.000000 0.000000 0.000000 0.000000 0.019786
#
#
# Mechanical properties :
#
#
# Convention : Reuss Voigt Hill
#
# Bulk Modulus (GPa) = 44.89874 74.71240 59.80557
# Shear Modulus (GPa) = 28.97742 35.89512 32.43627
#
# Velocity S-wave (km/s) = 3.76922 4.19507 3.98783
# Velocity P-wave (km/s) = 6.39965 7.75207 7.10810
#
# Compressibility (1/GPa) = 0.02227234
#
# Stress axis : x y z
#
# Youngs Moduli (GPa) = 33.29055 99.57340 132.63547
#
# Poissons Ratio (x) = 0.57729 0.52511
# Poissons Ratio (y) = 0.19301 0.38697
# Poissons Ratio (z) = 0.13180 0.29051
#
# Static dielectric constant tensor:
#      x y z
#    x 3.857740 0.000000 0.000000 
#    y 0.000000 4.034460 0.000000 
#    z 0.000000 0.000000 4.107450 
# 
# 
# High freq. dielectric constant tensor:
#      x y z
#    x 1.813220 0.000000 0.000000 
#    y 0.000000 1.810110 0.000000 
#    z 0.000000 0.000000 1.776510 
# 
# From -- ./inp_files/9803.got.cif
#   From: 2010.03.12/outbox.cif.g09.slc.cpg/sg69_5_cif.got.tgz:9803.got - 2010.04.10 23:52:46.
