data_PCOD8285138
_publ_section_title
;
Structure prediction by ZEFSAII (Michael W. Deem and Ramdas Pophale) SiO2 
 PCOD8285138
Probable space group: F M M M
;
_chemical_formula_sum "Si O2"
_cell_formula_units_Z 176
_cell_length_a 12.576105
_cell_length_b 24.236599
_cell_length_c 31.537501
_cell_angle_alpha 90.000000
_cell_angle_beta 90.000000
_cell_angle_gamma 90.000000
_cell_volume 9612.693817
_symmetry_space_group_name_H-M "F M M M"
_symmetry_group_IT_number 69
_symmetry_cell_setting 'orthorhombic'
loop_
_space_group_symop_operation_xyz
x,y,z
-x,-y,z
x,-y,-z
-x,y,-z
-x,-y,-z
x,y,-z
-x,y,z
x,-y,z
x,1/2+y,1/2+z
-x,1/2-y,1/2+z
x,1/2-y,1/2-z
-x,1/2+y,1/2-z
-x,1/2-y,1/2-z
x,1/2+y,1/2-z
-x,1/2+y,1/2+z
x,1/2-y,1/2+z
1/2+x,y,1/2+z
1/2-x,-y,1/2+z
1/2+x,-y,1/2-z
1/2-x,y,1/2-z
1/2-x,-y,1/2-z
1/2+x,y,1/2-z
1/2-x,y,1/2+z
1/2+x,-y,1/2+z
1/2+x,1/2+y,z
1/2-x,1/2-y,z
1/2+x,1/2-y,-z
1/2-x,1/2+y,-z
1/2-x,1/2-y,-z
1/2+x,1/2+y,-z
1/2-x,1/2+y,z
1/2+x,1/2-y,z
loop_
_atom_site_type_symbol
_atom_site_label
_atom_site_fract_x
_atom_site_fract_y
_atom_site_fract_z
Si Si1 0.873660 0.060188 0.588619
Si Si2 0.374039 0.670725 0.547790
Si Si3 0.126281 0.439316 0.816139
Si Si4 0.126088 0.331986 0.770453
Si Si5 0.750000 0.250000 0.109352
Si Si6 0.124578 0.219251 0.815193
O O1 0.831762 0.109063 0.558471
O O2 0.830519 0.069804 0.636241
O O3 0.000000 0.060658 0.589373
O O4 0.834152 0.000000 0.571881
O O5 0.338528 0.684936 0.500000
O O6 0.500000 0.673901 0.552941
O O7 0.325636 0.714029 0.580066
O O8 0.162646 0.500000 0.799420
O O9 0.171726 0.390571 0.786591
O O10 0.000000 0.435905 0.816732
O O11 0.151610 0.282860 0.803451
O O12 0.173095 0.319538 0.722868
O O13 0.000000 0.333383 0.764865
O O14 0.821337 0.209453 0.139111
O O15 0.000000 0.208283 0.819510
#
# Coordination Sequence:
#
# PCOD8285138 Si02
#       6
#    32  32  32  32  16  32
#     4   8  14  26  46  71  95 120 150 183 227 283
#     4  10  21  35  50  70  96 122 149 188 237 289
#     4   8  12  19  36  62  89 116 145 179 220 266
#     4   8  14  26  41  61  90 119 153 192 225 259
#     4  12  21  31  48  68  92 124 158 191 233 282
#     4   9  18  30  45  64  87 119 157 196 227 257
#
# _framework density 18.309123
#
# number of rings (size 3 to 8) (size 9 to 14) (size 15 to 20)
#    0.000    3.091    0.000    4.091    0.000    4.727 
#    0.000    1.818    0.000    1.091    0.000    3.818 
#    0.000    2.182    0.000    8.909    0.000    1.455 
#
# Total GULP energy -545282.092029 kJ/mol
# GULP energy per Si atom -12392.774819 kJ/mol
# Density = 1.826745 g / cm^3
# Si number density = 18.309123 Si / 1000 Ang^3
#
#
#
# Elastic Constant Matrix: (Units=GPa)
#
#
# Indices 1 2 3 4 5 6 
#
# 1 21.2827 14.7755 32.0000 0.0000 0.0000 0.0000
# 2 14.7755 104.6564 62.6097 0.0000 0.0000 0.0000
# 3 32.0000 62.6097 132.7068 0.0000 0.0000 0.0000
# 4 0.0000 0.0000 0.0000 28.1451 0.0000 0.0000
# 5 0.0000 0.0000 0.0000 0.0000 25.4780 0.0000
# 6 0.0000 0.0000 0.0000 0.0000 0.0000 10.1073
#
#
#
# Elastic Compliance Matrix: (Units=1/GPa)
#
#
# Indices 1 2 3 4 5 6 
#
# 1 0.073719 0.000316 -0.017925 0.000000 0.000000 0.000000
# 2 0.000316 0.013314 -0.006357 0.000000 0.000000 0.000000
# 3 -0.017925 -0.006357 0.014857 0.000000 0.000000 0.000000
# 4 0.000000 0.000000 0.000000 0.035530 0.000000 0.000000
# 5 0.000000 0.000000 0.000000 0.000000 0.039249 0.000000
# 6 0.000000 0.000000 0.000000 0.000000 0.000000 0.098939
#
#
# Mechanical properties :
#
#
# Convention : Reuss Voigt Hill
#
# Bulk Modulus (GPa) = 18.53347 53.04625 35.78986
# Shear Modulus (GPa) = 14.64011 22.69679 18.66845
#
# Velocity S-wave (km/s) = 2.83080 3.52468 3.19662
# Velocity P-wave (km/s) = 4.56389 6.75277 5.76320
#
# Compressibility (1/GPa) = 0.05395645
#
# Stress axis : x y z
#
# Youngs Moduli (GPa) = 13.56501 75.11016 67.30775
#
# Poissons Ratio (x) = -0.02372 1.20650
# Poissons Ratio (y) = -0.00428 0.42791
# Poissons Ratio (z) = 0.24315 0.47751
#
# Static dielectric constant tensor:
#      x y z
#    x 3.153410 0.000000 0.000000 
#    y 0.000000 3.715490 0.000000 
#    z 0.000000 0.000000 3.475960 
# 
# 
# High freq. dielectric constant tensor:
#      x y z
#    x 1.680880 0.000000 0.000000 
#    y 0.000000 1.705060 0.000000 
#    z 0.000000 0.000000 1.704030 
# 
# From -- ./inp_files/45834.got.cif
#   From: 2010.03.12/outbox.cif.g09.slc.cpg/sg69_23_cif.got.tgz:45834.got - 2010.04.10 23:52:46.
