data_PCOD8285353
_publ_section_title
;
Structure prediction by ZEFSAII (Michael W. Deem and Ramdas Pophale) SiO2 
 PCOD8285353
Probable space group: F M M M
;
_chemical_formula_sum "Si O2"
_cell_formula_units_Z 144
_cell_length_a 9.987337
_cell_length_b 27.421217
_cell_length_c 27.406754
_cell_angle_alpha 90.000000
_cell_angle_beta 90.000000
_cell_angle_gamma 90.000000
_cell_volume 7505.748906
_symmetry_space_group_name_H-M "F M M M"
_symmetry_group_IT_number 69
_symmetry_cell_setting 'orthorhombic'
loop_
_space_group_symop_operation_xyz
x,y,z
-x,-y,z
x,-y,-z
-x,y,-z
-x,-y,-z
x,y,-z
-x,y,z
x,-y,z
x,1/2+y,1/2+z
-x,1/2-y,1/2+z
x,1/2-y,1/2-z
-x,1/2+y,1/2-z
-x,1/2-y,1/2-z
x,1/2+y,1/2-z
-x,1/2+y,1/2+z
x,1/2-y,1/2+z
1/2+x,y,1/2+z
1/2-x,-y,1/2+z
1/2+x,-y,1/2-z
1/2-x,y,1/2-z
1/2-x,-y,1/2-z
1/2+x,y,1/2-z
1/2-x,y,1/2+z
1/2+x,-y,1/2+z
1/2+x,1/2+y,z
1/2-x,1/2-y,z
1/2+x,1/2-y,-z
1/2-x,1/2+y,-z
1/2-x,1/2-y,-z
1/2+x,1/2+y,-z
1/2-x,1/2+y,z
1/2+x,1/2-y,z
loop_
_atom_site_type_symbol
_atom_site_label
_atom_site_fract_x
_atom_site_fract_y
_atom_site_fract_z
Si Si1 0.740119 0.854404 0.350416
Si Si2 0.000000 0.817584 0.297409
Si Si3 0.658274 0.394211 0.444133
Si Si4 0.152667 0.554859 0.294253
Si Si5 0.500000 0.703766 0.186034
Si Si6 0.342050 0.000000 0.053528
O O1 0.869841 0.844303 0.317727
O O2 0.774892 0.854943 0.408071
O O3 0.678719 0.906825 0.337048
O O4 0.632579 0.811951 0.342703
O O5 0.000000 0.761522 0.312506
O O6 0.000000 0.821833 0.238941
O O7 0.708196 0.386640 0.500000
O O8 0.500000 0.387211 0.442037
O O9 0.699732 0.448205 0.422613
O O10 0.180816 0.500000 0.313998
O O11 0.250000 0.567582 0.250000
O O12 0.000000 0.559468 0.275613
O O13 0.500000 0.000000 0.048267
O O14 0.277330 0.000000 0.000000
#
# Coordination Sequence:
#
# PCOD8285353 Si02
#       6
#    32  16  32  32  16  16
#     4  12  22  37  62  90 114 159 196 245 302 357
#     4  11  24  42  64  88 111 156 200 248 299 361
#     4   9  18  34  56  84 118 156 203 251 288 343
#     4  10  22  38  56  83 124 166 200 235 284 359
#     4  11  24  42  62  86 123 146 196 254 305 355
#     4   7  12  26  50  79 112 148 193 244 281 319
#
# _framework density 19.185293999999999
#
# number of rings (size 3 to 8) (size 9 to 14) (size 15 to 20)
#    0.000    1.889    2.222    4.000    3.111    1.778 
#    0.000    0.556    0.000    4.000    0.000    3.889 
#    0.000    0.000    0.000    0.000    0.000    0.000 
#
# Total GULP energy -446181.841664 kJ/mol
# GULP energy per Si atom -12393.940046 kJ/mol
# Density = 1.914163 g / cm^3
# Si number density = 19.185294 Si / 1000 Ang^3
#
#
#
# Elastic Constant Matrix: (Units=GPa)
#
#
# Indices 1 2 3 4 5 6 
#
# 1 98.6065 27.0709 36.1777 0.0000 0.0000 0.0000
# 2 27.0709 65.6661 38.7629 0.0000 0.0000 0.0000
# 3 36.1777 38.7629 101.5532 0.0000 0.0000 0.0000
# 4 0.0000 0.0000 0.0000 24.6426 0.0000 0.0000
# 5 0.0000 0.0000 0.0000 0.0000 44.1982 0.0000
# 6 0.0000 0.0000 0.0000 0.0000 0.0000 -29.3364
#
#
#
# Elastic Compliance Matrix: (Units=1/GPa)
#
#
# Indices 1 2 3 4 5 6 
#
# 1 0.012156 -0.003169 -0.003121 0.000000 0.000000 0.000000
# 2 -0.003169 0.020484 -0.006690 0.000000 0.000000 0.000000
# 3 -0.003121 -0.006690 0.013512 0.000000 0.000000 0.000000
# 4 0.000000 0.000000 0.000000 0.040580 0.000000 0.000000
# 5 0.000000 0.000000 0.000000 0.000000 0.022625 0.000000
# 6 0.000000 0.000000 0.000000 0.000000 0.000000 -0.034087
#
#
# Mechanical properties :
#
#
# Convention : Reuss Voigt Hill
#
# Bulk Modulus (GPa) = 49.52214 52.20543 50.86378
# Shear Modulus (GPa) = 46.31270 18.82184 32.56727
#
# Velocity S-wave (km/s) = 4.91855 3.13558 4.12456
# Velocity P-wave (km/s) = 7.62396 6.35448 7.01798
#
# Compressibility (1/GPa) = 0.02019299
#
# Stress axis : x y z
#
# Youngs Moduli (GPa) = 82.26102 48.81852 74.00623
#
# Poissons Ratio (x) = 0.15471 0.23097
# Poissons Ratio (y) = 0.26070 0.49508
# Poissons Ratio (z) = 0.25673 0.32658
#
# Static dielectric constant tensor:
#      x y z
#    x 3.584190 0.000000 0.000000 
#    y 0.000000 3.597110 0.000000 
#    z 0.000000 0.000000 3.337580 
# 
# 
# High freq. dielectric constant tensor:
#      x y z
#    x 1.736070 0.000000 0.000000 
#    y 0.000000 1.749590 0.000000 
#    z 0.000000 0.000000 1.725790 
# 
# From -- ./inp_files/44556.got.cif
#   From: 2010.03.12/outbox.cif.g09.slc.cpg/sg69_23_cif.got.tgz:44556.got - 2010.04.10 23:52:46.
