data_PCOD8285161
_publ_section_title
;
Structure prediction by ZEFSAII (Michael W. Deem and Ramdas Pophale) SiO2 
 PCOD8285161
Probable space group: F M M M
;
_chemical_formula_sum "Si O2"
_cell_formula_units_Z 144
_cell_length_a 17.908888
_cell_length_b 30.411743
_cell_length_c 14.062145
_cell_angle_alpha 90.000000
_cell_angle_beta 90.000000
_cell_angle_gamma 90.000000
_cell_volume 7658.813674
_symmetry_space_group_name_H-M "F M M M"
_symmetry_group_IT_number 69
_symmetry_cell_setting 'orthorhombic'
loop_
_space_group_symop_operation_xyz
x,y,z
-x,-y,z
x,-y,-z
-x,y,-z
-x,-y,-z
x,y,-z
-x,y,z
x,-y,z
x,1/2+y,1/2+z
-x,1/2-y,1/2+z
x,1/2-y,1/2-z
-x,1/2+y,1/2-z
-x,1/2-y,1/2-z
x,1/2+y,1/2-z
-x,1/2+y,1/2+z
x,1/2-y,1/2+z
1/2+x,y,1/2+z
1/2-x,-y,1/2+z
1/2+x,-y,1/2-z
1/2-x,y,1/2-z
1/2-x,-y,1/2-z
1/2+x,y,1/2-z
1/2-x,y,1/2+z
1/2+x,-y,1/2+z
1/2+x,1/2+y,z
1/2-x,1/2-y,z
1/2+x,1/2-y,-z
1/2-x,1/2+y,-z
1/2-x,1/2-y,-z
1/2+x,1/2+y,-z
1/2-x,1/2+y,z
1/2+x,1/2-y,z
loop_
_atom_site_type_symbol
_atom_site_label
_atom_site_fract_x
_atom_site_fract_y
_atom_site_fract_z
Si Si1 0.833099 0.202734 0.211480
Si Si2 0.190645 0.051318 0.000000
Si Si3 0.084538 0.949861 0.828171
Si Si4 0.585829 0.873798 0.814984
Si Si5 0.292082 0.795632 0.500000
Si Si6 0.315536 0.377689 0.500000
O O1 0.859357 0.250000 0.250000
O O2 0.750000 0.192319 0.250000
O O3 0.889551 0.166288 0.248585
O O4 0.840162 0.201851 0.096680
O O5 0.141876 0.064625 0.909154
O O6 0.266900 0.078182 0.000000
O O7 0.210816 0.000000 0.000000
O O8 0.099276 0.919795 0.737563
O O9 0.000000 0.943964 0.866865
O O10 0.098701 0.000000 0.796507
O O11 0.500000 0.866827 0.842066
O O12 0.632998 0.876321 0.909166
O O13 0.250000 0.750000 0.500000
O O14 0.234504 0.834972 0.500000
#
# Coordination Sequence:
#
# PCOD8285161 Si02
#       6
#    32  16  32  32  16  16
#     4  11  21  38  62  89 118 155 192 242 295 347
#     4  10  21  35  59  91 117 148 193 244 297 351
#     4   9  19  37  59  84 117 154 191 238 297 354
#     4  11  24  40  58  83 116 158 200 242 295 350
#     4  12  20  35  61  91 115 148 197 232 291 353
#     4  12  23  37  58  81 116 155 196 246 287 352
#
# _framework density 18.801867000000001
#
# number of rings (size 3 to 8) (size 9 to 14) (size 15 to 20)
#    0.000    1.333    4.444    2.000    0.000    2.667 
#    0.000    3.889    0.000    3.333    0.000    0.000 
#    0.000    0.000    0.000    0.000    0.000    0.000 
#
# Total GULP energy -446488.145188 kJ/mol
# GULP energy per Si atom -12402.448477 kJ/mol
# Density = 1.875907 g / cm^3
# Si number density = 18.801867 Si / 1000 Ang^3
#
#
#
# Elastic Constant Matrix: (Units=GPa)
#
#
# Indices 1 2 3 4 5 6 
#
# 1 74.9702 60.0518 65.3539 0.0000 0.0000 0.0000
# 2 60.0518 111.1580 61.3380 0.0000 0.0000 0.0000
# 3 65.3539 61.3380 169.0367 0.0000 0.0000 0.0000
# 4 0.0000 0.0000 0.0000 26.3859 0.0000 0.0000
# 5 0.0000 0.0000 0.0000 0.0000 34.0139 0.0000
# 6 0.0000 0.0000 0.0000 0.0000 0.0000 33.1975
#
#
#
# Elastic Compliance Matrix: (Units=1/GPa)
#
#
# Indices 1 2 3 4 5 6 
#
# 1 0.028694 -0.011728 -0.006838 0.000000 0.000000 0.000000
# 2 -0.011728 0.016042 -0.001287 0.000000 0.000000 0.000000
# 3 -0.006838 -0.001287 0.009027 0.000000 0.000000 0.000000
# 4 0.000000 0.000000 0.000000 0.037899 0.000000 0.000000
# 5 0.000000 0.000000 0.000000 0.000000 0.029400 0.000000
# 6 0.000000 0.000000 0.000000 0.000000 0.000000 0.030123
#
#
# Mechanical properties :
#
#
# Convention : Reuss Voigt Hill
#
# Bulk Modulus (GPa) = 71.14045 80.96135 76.05090
# Shear Modulus (GPa) = 25.56546 29.94754 27.75650
#
# Velocity S-wave (km/s) = 3.69145 3.99531 3.84638
# Velocity P-wave (km/s) = 7.48920 8.02727 7.76290
#
# Compressibility (1/GPa) = 0.01405670
#
# Stress axis : x y z
#
# Youngs Moduli (GPa) = 34.85040 62.33491 110.78422
#
# Poissons Ratio (x) = 0.73109 0.75754
# Poissons Ratio (y) = 0.40874 0.14256
# Poissons Ratio (z) = 0.23831 0.08021
#
# Static dielectric constant tensor:
#      x y z
#    x 3.326210 0.000000 0.000000 
#    y 0.000000 3.640230 0.000000 
#    z 0.000000 0.000000 3.831300 
# 
# 
# High freq. dielectric constant tensor:
#      x y z
#    x 1.717140 0.000000 0.000000 
#    y 0.000000 1.747650 0.000000 
#    z 0.000000 0.000000 1.740990 
# 
# From -- ./inp_files/15614.got.cif
#   From: 2010.03.12/outbox.cif.g09.slc.cpg/sg69_8_cif.got.tgz:15614.got - 2010.04.10 23:52:46.
