data_PCOD8285232
_publ_section_title
;
Structure prediction by ZEFSAII (Michael W. Deem and Ramdas Pophale) SiO2 
 PCOD8285232
Probable space group: F M M M
;
_chemical_formula_sum "Si O2"
_cell_formula_units_Z 160
_cell_length_a 26.929163
_cell_length_b 18.585614
_cell_length_c 16.123848
_cell_angle_alpha 90.000000
_cell_angle_beta 90.000000
_cell_angle_gamma 90.000000
_cell_volume 8069.905770
_symmetry_space_group_name_H-M "F M M M"
_symmetry_group_IT_number 69
_symmetry_cell_setting 'orthorhombic'
loop_
_space_group_symop_operation_xyz
x,y,z
-x,-y,z
x,-y,-z
-x,y,-z
-x,-y,-z
x,y,-z
-x,y,z
x,-y,z
x,1/2+y,1/2+z
-x,1/2-y,1/2+z
x,1/2-y,1/2-z
-x,1/2+y,1/2-z
-x,1/2-y,1/2-z
x,1/2+y,1/2-z
-x,1/2+y,1/2+z
x,1/2-y,1/2+z
1/2+x,y,1/2+z
1/2-x,-y,1/2+z
1/2+x,-y,1/2-z
1/2-x,y,1/2-z
1/2-x,-y,1/2-z
1/2+x,y,1/2-z
1/2-x,y,1/2+z
1/2+x,-y,1/2+z
1/2+x,1/2+y,z
1/2-x,1/2-y,z
1/2+x,1/2-y,-z
1/2-x,1/2+y,-z
1/2-x,1/2-y,-z
1/2+x,1/2+y,-z
1/2-x,1/2+y,z
1/2+x,1/2-y,z
loop_
_atom_site_type_symbol
_atom_site_label
_atom_site_fract_x
_atom_site_fract_y
_atom_site_fract_z
Si Si1 0.113237 0.161695 0.338578
Si Si2 0.767028 0.918815 0.500000
Si Si3 0.384911 0.919846 0.000000
Si Si4 0.943233 0.713102 0.407228
Si Si5 0.943744 0.081822 0.801228
Si Si6 0.730816 0.830204 0.838697
O O1 0.094652 0.121008 0.420370
O O2 0.088598 0.240785 0.341185
O O3 0.095127 0.113385 0.263415
O O4 0.171782 0.171037 0.334428
O O5 0.825853 0.921590 0.500000
O O6 0.749288 0.878490 0.584339
O O7 0.745128 0.000000 0.500000
O O8 0.406888 0.000000 0.000000
O O9 0.921952 0.722607 0.500000
O O10 0.939011 0.628919 0.384514
O O11 0.000000 0.739216 0.401818
O O12 0.000000 0.086620 0.765912
O O13 0.929264 0.000000 0.822785
O O14 0.750000 0.860763 0.750000
O O15 0.750000 0.750000 0.854043
#
# Coordination Sequence:
#
# PCOD8285232 Si02
#       6
#    32  16  16  32  32  32
#     4  11  20  37  62  85 118 156 197 246 299 357
#     4   9  19  39  61  82 116 152 195 251 303 360
#     4   9  18  33  56  87 114 152 192 233 304 362
#     4  10  21  37  60  90 119 154 200 243 292 357
#     4  10  22  38  58  87 121 158 196 240 296 357
#     4  10  23  38  60  90 117 158 205 253 306 355
#
# _framework density 19.826750000000001
#
# number of rings (size 3 to 8) (size 9 to 14) (size 15 to 20)
#    0.000    2.000    1.000    2.100    5.600    3.200 
#    0.000    2.000    0.000    2.400    0.000    0.000 
#    0.000    0.000    0.000    0.000    0.000    0.000 
#
# Total GULP energy -495979.081648 kJ/mol
# GULP energy per Si atom -12399.477041 kJ/mol
# Density = 1.978162 g / cm^3
# Si number density = 19.826750 Si / 1000 Ang^3
#
#
#
# Elastic Constant Matrix: (Units=GPa)
#
#
# Indices 1 2 3 4 5 6 
#
# 1 71.7939 38.4273 30.4912 0.0000 0.0000 0.0000
# 2 38.4273 142.4912 49.6882 0.0000 0.0000 0.0000
# 3 30.4912 49.6882 117.0139 0.0000 0.0000 0.0000
# 4 0.0000 0.0000 0.0000 24.5590 0.0000 0.0000
# 5 0.0000 0.0000 0.0000 0.0000 28.0285 0.0000
# 6 0.0000 0.0000 0.0000 0.0000 0.0000 24.7310
#
#
#
# Elastic Compliance Matrix: (Units=1/GPa)
#
#
# Indices 1 2 3 4 5 6 
#
# 1 0.017094 -0.003588 -0.002931 0.000000 0.000000 0.000000
# 2 -0.003588 0.008991 -0.002883 0.000000 0.000000 0.000000
# 3 -0.002931 -0.002883 0.010534 0.000000 0.000000 0.000000
# 4 0.000000 0.000000 0.000000 0.040718 0.000000 0.000000
# 5 0.000000 0.000000 0.000000 0.000000 0.035678 0.000000
# 6 0.000000 0.000000 0.000000 0.000000 0.000000 0.040435
#
#
# Mechanical properties :
#
#
# Convention : Reuss Voigt Hill
#
# Bulk Modulus (GPa) = 56.13093 63.16805 59.64949
# Shear Modulus (GPa) = 28.05969 29.64318 28.85144
#
# Velocity S-wave (km/s) = 3.76605 3.87086 3.81882
# Velocity P-wave (km/s) = 6.87627 7.20467 7.04238
#
# Compressibility (1/GPa) = 0.01781549
#
# Stress axis : x y z
#
# Youngs Moduli (GPa) = 58.50046 111.22381 94.93199
#
# Poissons Ratio (x) = 0.39906 0.27822
# Poissons Ratio (y) = 0.20990 0.27368
# Poissons Ratio (z) = 0.17145 0.32065
#
# Static dielectric constant tensor:
#      x y z
#    x 3.366690 0.000000 0.000000 
#    y 0.000000 3.789080 0.000000 
#    z 0.000000 0.000000 3.786460 
# 
# 
# High freq. dielectric constant tensor:
#      x y z
#    x 1.752650 0.000000 0.000000 
#    y 0.000000 1.780660 0.000000 
#    z 0.000000 0.000000 1.779990 
# 
# From -- ./inp_files/26685.got.cif
#   From: 2010.03.12/outbox.cif.g09.slc.cpg/sg69_14_cif.got.tgz:26685.got - 2010.04.10 23:52:46.
