data_PCOD8285708
_publ_section_title
;
Structure prediction by ZEFSAII (Michael W. Deem and Ramdas Pophale) SiO2 
 PCOD8285708
Probable space group: F M M M
;
_chemical_formula_sum "Si O2"
_cell_formula_units_Z 36
_cell_length_a 30.000000
_cell_length_b 30.000000
_cell_length_c 9.000000
_cell_angle_alpha 90.000000
_cell_angle_beta 90.000000
_cell_angle_gamma 90.000000
_cell_volume 8100.000000
_symmetry_space_group_name_H-M "F M M M"
_symmetry_group_IT_number 69
_symmetry_cell_setting 'orthorhombic'
loop_
_space_group_symop_operation_xyz
x,y,z
-x,-y,z
x,-y,-z
-x,y,-z
-x,-y,-z
x,y,-z
-x,y,z
x,-y,z
x,1/2+y,1/2+z
-x,1/2-y,1/2+z
x,1/2-y,1/2-z
-x,1/2+y,1/2-z
-x,1/2-y,1/2-z
x,1/2+y,1/2-z
-x,1/2+y,1/2+z
x,1/2-y,1/2+z
1/2+x,y,1/2+z
1/2-x,-y,1/2+z
1/2+x,-y,1/2-z
1/2-x,y,1/2-z
1/2-x,-y,1/2-z
1/2+x,y,1/2-z
1/2-x,y,1/2+z
1/2+x,-y,1/2+z
1/2+x,1/2+y,z
1/2-x,1/2-y,z
1/2+x,1/2-y,-z
1/2-x,1/2+y,-z
1/2-x,1/2-y,-z
1/2+x,1/2+y,-z
1/2-x,1/2+y,z
1/2+x,1/2-y,z
loop_
_atom_site_type_symbol
_atom_site_label
_atom_site_fract_x
_atom_site_fract_y
_atom_site_fract_z
Si Si1 0.377750 0.114038 0.823171
Si Si2 0.448104 0.551328 0.827634
Si Si3 0.000000 0.701445 0.180791
Si Si4 0.590796 0.200486 0.319174
Si Si5 0.203953 0.949282 0.674435
O O1 0.420357 0.084983 0.774569
O O2 0.374758 0.162210 0.737200
O O3 0.334263 0.085474 0.776771
O O4 0.379955 0.122488 0.000000
O O5 0.500000 0.560228 0.795055
O O6 0.436230 0.500000 0.788029
O O7 0.437175 0.560804 0.000000
O O8 0.000000 0.750000 0.250000
O O9 0.044763 0.680210 0.249727
O O10 0.000000 0.700931 0.000000
O O11 0.589555 0.203756 0.500000
O O12 0.601476 0.250000 0.250000
O O13 0.211453 0.947188 0.500000
O O14 0.250000 0.934348 0.750000
O O15 0.190873 0.000000 0.722894
#
# Coordination Sequence:
#
# PCOD8285708 Si02
#       5
#    32  32  16  32  32
#     4  11  22  35  54  81 111 144 183 227 275 330
#     4   9  19  35  52  73 106 146 186 226 267 317
#     4  10  18  32  52  74 101 136 179 226 274 318
#     4  11  22  37  55  77 107 144 185 231 278 325
#     4   9  19  36  58  84 113 143 178 223 273 327
#
# _framework density 4.4444439999999998
#
# number of rings (size 3 to 8) (size 9 to 14) (size 15 to 20)
#    0.000    2.000    0.000    6.333    1.556    3.556 
#    0.000    3.333    0.000    0.667    0.000    4.667 
#    0.000    0.000    0.000    0.000    0.000    0.000 
#
# Total GULP energy -446179.659126 kJ/mol
# GULP energy per Si atom -12393.879420 kJ/mol
# Density = 0.443433 g / cm^3
# Si number density = 4.444444 Si / 1000 Ang^3
#
#
#
# Elastic Constant Matrix: (Units=GPa)
#
#
# Indices 1 2 3 4 5 6 
#
# 1 96.9808 61.5797 40.1457 -0.0023 0.0029 0.0009
# 2 61.5797 135.3940 50.7415 -0.0214 0.0108 0.0170
# 3 40.1457 50.7415 127.4876 -0.0228 0.0085 0.0178
# 4 -0.0023 -0.0214 -0.0228 38.8264 0.0068 0.0157
# 5 0.0029 0.0108 0.0085 0.0068 32.8114 -0.0043
# 6 0.0009 0.0170 0.0178 0.0157 -0.0043 31.0268
#
#
#
# Elastic Compliance Matrix: (Units=1/GPa)
#
#
# Indices 1 2 3 4 5 6 
#
# 1 0.015086 -0.005972 -0.002374 -0.000004 0.000001 0.000004
# 2 -0.005972 0.011045 -0.002515 0.000004 -0.000002 -0.000004
# 3 -0.002374 -0.002515 0.009593 0.000004 -0.000001 -0.000004
# 4 -0.000004 0.000004 0.000004 0.025756 -0.000005 -0.000013
# 5 0.000001 -0.000002 -0.000001 -0.000005 0.030477 0.000004
# 6 0.000004 -0.000004 -0.000004 -0.000013 0.000004 0.032230
#
#
# Mechanical properties :
#
#
# Convention : Reuss Voigt Hill
#
# Bulk Modulus (GPa) = 71.42184 73.86626 72.64405
# Shear Modulus (GPa) = 33.20612 34.35928 33.78270
#
# Velocity S-wave (km/s) = 4.32655 4.40103 4.36395
# Velocity P-wave (km/s) = 8.07593 8.21373 8.14512
#
# Compressibility (1/GPa) = 0.01400132
#
# Stress axis : x y z
#
# Youngs Moduli (GPa) = 66.28769 90.54214 104.24782
#
# Poissons Ratio (x) = 0.54069 0.24745
# Poissons Ratio (y) = 0.39585 0.26222
# Poissons Ratio (z) = 0.15735 0.22775
#
# Static dielectric constant tensor:
#      x y z
#    x 3.534020 -0.000050 0.000050 
#    y -0.000050 3.797480 -0.000120 
#    z 0.000050 -0.000120 3.499290 
# 
# 
# High freq. dielectric constant tensor:
#      x y z
#    x 1.672520 0.000000 0.000000 
#    y 0.000000 1.707340 -0.000010 
#    z 0.000000 -0.000010 1.709450 
# 
# From -- ./inp_files/5581.got.cif
#   From: 2010.03.12/outbox.ucp.g09.slc.cvg/sg69_3_cif.got.tgz:5581.got - 2010.05.04 19:54:48.
