data_PCOD8285829
_publ_section_title
;
Structure prediction by ZEFSAII (Michael W. Deem and Ramdas Pophale) SiO2 
 PCOD8285829
Probable space group: F D D D
;
_chemical_formula_sum "Si O2"
_cell_formula_units_Z 208
_cell_length_a 26.564328
_cell_length_b 22.044078
_cell_length_c 16.751503
_cell_angle_alpha 90.000000
_cell_angle_beta 90.000000
_cell_angle_gamma 90.000000
_cell_volume 9809.447620
_symmetry_space_group_name_H-M "F D D D"
_symmetry_group_IT_number 70
_space_group.IT_coordinate_system_code '2'
_symmetry_cell_setting 'orthorhombic'
loop_
_space_group_symop_operation_xyz
x,y,z
1/4-x,1/4-y,z
x,1/4-y,1/4-z
1/4-x,y,1/4-z
-x,-y,-z
3/4+x,3/4+y,-z
-x,3/4+y,3/4+z
3/4+x,-y,3/4+z
x,1/2+y,1/2+z
1/4-x,3/4-y,1/2+z
x,3/4-y,3/4-z
1/4-x,1/2+y,3/4-z
-x,1/2-y,1/2-z
3/4+x,1/4+y,1/2-z
-x,1/4+y,1/4+z
3/4+x,1/2-y,1/4+z
1/2+x,y,1/2+z
3/4-x,1/4-y,1/2+z
1/2+x,1/4-y,3/4-z
3/4-x,y,3/4-z
1/2-x,-y,1/2-z
1/4+x,3/4+y,1/2-z
1/2-x,3/4+y,1/4+z
1/4+x,-y,1/4+z
1/2+x,1/2+y,z
3/4-x,3/4-y,z
1/2+x,3/4-y,1/4-z
3/4-x,1/2+y,1/4-z
1/2-x,1/2-y,-z
1/4+x,1/4+y,-z
1/2-x,1/4+y,3/4+z
1/4+x,1/2-y,3/4+z
loop_
_atom_site_type_symbol
_atom_site_label
_atom_site_fract_x
_atom_site_fract_y
_atom_site_fract_z
Si Si1 0.655551 0.766475 0.922179
Si Si2 0.486640 0.651312 0.897689
Si Si3 0.997022 0.188071 0.078716
Si Si4 0.587981 0.375000 0.375000
Si Si5 0.593817 0.680410 0.826318
Si Si6 0.051159 0.785970 0.243974
Si Si7 0.180639 0.277622 0.097737
O O1 0.699742 0.772641 0.857616
O O2 0.622514 0.828020 0.924178
O O3 0.622159 0.707253 0.903712
O O4 0.679724 0.753513 0.007695
O O5 0.539351 0.656146 0.851646
O O6 0.444437 0.686917 0.845077
O O7 0.469990 0.582243 0.900581
O O8 0.490552 0.679657 0.984708
O O9 0.998845 0.125000 0.125000
O O10 0.048689 0.224387 0.095165
O O11 0.553630 0.410483 0.439393
O O12 0.625000 0.625000 0.788694
O O13 0.593771 0.735464 0.761724
O O14 0.000000 0.750000 0.250000
O O15 0.125000 0.297382 0.125000
#
# Coordination Sequence:
#
# PCOD8285829 Si02
#       7
#    32  32  32  16  32  32  32
#     4  11  21  41  65  93 130 172 214 268 334 400
#     4  11  23  43  65  96 131 174 218 273 328 398
#     4  12  25  41  64  95 134 174 215 270 335 398
#     4  10  18  38  68  96 124 172 224 268 332 402
#     4  10  22  40  67  97 128 172 217 278 338 394
#     4   9  21  39  65  92 128 167 219 273 323 391
#     4  12  25  41  64  95 129 172 217 271 329 405
#
# _framework density 21.204049000000001
#
# number of rings (size 3 to 8) (size 9 to 14) (size 15 to 20)
#    0.000    1.231    2.308    3.231    2.154    4.000 
#    0.000    0.000    0.000    6.462    0.000    0.000 
#    0.000    0.000    0.000    0.000    0.000    0.000 
#
# Total GULP energy -644791.407302 kJ/mol
# GULP energy per Si atom -12399.834756 kJ/mol
# Density = 2.115579 g / cm^3
# Si number density = 21.204049 Si / 1000 Ang^3
#
#
#
# Elastic Constant Matrix: (Units=GPa)
#
#
# Indices 1 2 3 4 5 6 
#
# 1 95.5646 45.2679 35.4990 0.0000 0.0000 0.0000
# 2 45.2679 114.1170 52.0832 0.0000 0.0000 0.0000
# 3 35.4990 52.0832 155.7915 0.0000 0.0000 0.0000
# 4 0.0000 0.0000 0.0000 19.7835 0.0000 0.0000
# 5 0.0000 0.0000 0.0000 0.0000 30.4186 0.0000
# 6 0.0000 0.0000 0.0000 0.0000 0.0000 19.8812
#
#
#
# Elastic Compliance Matrix: (Units=1/GPa)
#
#
# Indices 1 2 3 4 5 6 
#
# 1 0.013168 -0.004548 -0.001480 0.000000 0.000000 0.000000
# 2 -0.004548 0.011912 -0.002946 0.000000 0.000000 0.000000
# 3 -0.001480 -0.002946 0.007741 0.000000 0.000000 0.000000
# 4 0.000000 0.000000 0.000000 0.050547 0.000000 0.000000
# 5 0.000000 0.000000 0.000000 0.000000 0.032875 0.000000
# 6 0.000000 0.000000 0.000000 0.000000 0.000000 0.050299
#
#
# Mechanical properties :
#
#
# Convention : Reuss Voigt Hill
#
# Bulk Modulus (GPa) = 67.23705 70.13037 68.68371
# Shear Modulus (GPa) = 26.39261 29.52486 27.95874
#
# Velocity S-wave (km/s) = 3.53185 3.73556 3.63513
# Velocity P-wave (km/s) = 6.95776 7.19387 7.07680
#
# Compressibility (1/GPa) = 0.01487275
#
# Stress axis : x y z
#
# Youngs Moduli (GPa) = 75.93988 83.95202 129.18355
#
# Poissons Ratio (x) = 0.38182 0.19120
# Poissons Ratio (y) = 0.34538 0.38056
# Poissons Ratio (z) = 0.11240 0.24731
#
# Static dielectric constant tensor:
#      x y z
#    x 4.009580 0.000000 0.000000 
#    y 0.000000 4.150320 0.000000 
#    z 0.000000 0.000000 4.081740 
# 
# 
# High freq. dielectric constant tensor:
#      x y z
#    x 1.835020 0.000000 0.000000 
#    y 0.000000 1.842400 0.000000 
#    z 0.000000 0.000000 1.824700 
# 
# From -- ./inp_files/38743.got.cif
#   From: 2010.03.12/outbox.cif.g09.slc.cpg/sg70_20_cif.got.tgz:38743.got - 2010.04.16 13:46:32.
