data_PCOD8285036
_publ_section_title
;
Structure prediction by ZEFSAII (Michael W. Deem and Ramdas Pophale) SiO2 
 PCOD8285036
Probable space group: F M M M
;
_chemical_formula_sum "Si O2"
_cell_formula_units_Z 192
_cell_length_a 17.681706
_cell_length_b 19.152656
_cell_length_c 29.022680
_cell_angle_alpha 90.000000
_cell_angle_beta 90.000000
_cell_angle_gamma 90.000000
_cell_volume 9828.577962
_symmetry_space_group_name_H-M "F M M M"
_symmetry_group_IT_number 69
_symmetry_cell_setting 'orthorhombic'
loop_
_space_group_symop_operation_xyz
x,y,z
-x,-y,z
x,-y,-z
-x,y,-z
-x,-y,-z
x,y,-z
-x,y,z
x,-y,z
x,1/2+y,1/2+z
-x,1/2-y,1/2+z
x,1/2-y,1/2-z
-x,1/2+y,1/2-z
-x,1/2-y,1/2-z
x,1/2+y,1/2-z
-x,1/2+y,1/2+z
x,1/2-y,1/2+z
1/2+x,y,1/2+z
1/2-x,-y,1/2+z
1/2+x,-y,1/2-z
1/2-x,y,1/2-z
1/2-x,-y,1/2-z
1/2+x,y,1/2-z
1/2-x,y,1/2+z
1/2+x,-y,1/2+z
1/2+x,1/2+y,z
1/2-x,1/2-y,z
1/2+x,1/2-y,-z
1/2-x,1/2+y,-z
1/2-x,1/2-y,-z
1/2+x,1/2+y,-z
1/2-x,1/2+y,z
1/2+x,1/2-y,z
loop_
_atom_site_type_symbol
_atom_site_label
_atom_site_fract_x
_atom_site_fract_y
_atom_site_fract_z
Si Si1 0.654530 0.418167 0.447346
Si Si2 0.176619 0.579773 0.778307
Si Si3 0.588385 0.075912 0.308973
Si Si4 0.087140 0.691024 0.376913
Si Si5 0.913195 0.148185 0.640500
Si Si6 0.289877 0.181318 0.447433
O O1 0.626360 0.403187 0.500000
O O2 0.659383 0.500000 0.437631
O O3 0.597600 0.383214 0.410832
O O4 0.737878 0.386399 0.440333
O O5 0.193650 0.500000 0.792511
O O6 0.250000 0.609716 0.750000
O O7 0.105696 0.587652 0.744546
O O8 0.151273 0.619374 0.824801
O O9 0.500000 0.076045 0.315275
O O10 0.622603 0.139079 0.338594
O O11 0.621703 0.000000 0.324632
O O12 0.099728 0.769360 0.359996
O O13 0.130097 0.671541 0.423339
O O14 0.000000 0.675617 0.386862
O O15 0.000000 0.130589 0.655527
O O16 0.309678 0.195521 0.500000
O O17 0.250000 0.250000 0.426134
#
# Coordination Sequence:
#
# PCOD8285036 Si02
#       6
#    32  32  32  32  32  32
#     4  10  22  39  61  91 122 156 199 245 295 353
#     4  10  22  38  57  84 114 152 201 246 290 344
#     4   9  19  37  58  79 109 149 192 242 296 346
#     4  10  22  37  58  89 119 154 200 244 295 358
#     4  11  23  39  60  88 125 162 196 241 297 360
#     4  10  20  37  59  82 115 157 196 240 293 348
#
# _framework density 19.534870999999999
#
# number of rings (size 3 to 8) (size 9 to 14) (size 15 to 20)
#    0.000    2.000    1.667    1.000    2.333    4.000 
#    0.000    5.833    0.000    0.000    0.000    4.667 
#    0.000    0.000    0.000    0.000    0.000    0.000 
#
# Total GULP energy -594953.952194 kJ/mol
# GULP energy per Si atom -12394.874004 kJ/mol
# Density = 1.949041 g / cm^3
# Si number density = 19.534871 Si / 1000 Ang^3
#
#
#
# Elastic Constant Matrix: (Units=GPa)
#
#
# Indices 1 2 3 4 5 6 
#
# 1 71.2367 33.3885 51.6116 0.0000 0.0000 0.0000
# 2 33.3885 121.0099 54.8046 0.0000 0.0000 0.0000
# 3 51.6116 54.8046 107.0563 0.0000 0.0000 0.0000
# 4 0.0000 0.0000 0.0000 24.1799 0.0000 0.0000
# 5 0.0000 0.0000 0.0000 0.0000 40.0567 0.0000
# 6 0.0000 0.0000 0.0000 0.0000 0.0000 25.1162
#
#
#
# Elastic Compliance Matrix: (Units=1/GPa)
#
#
# Indices 1 2 3 4 5 6 
#
# 1 0.021818 -0.001635 -0.009681 0.000000 0.000000 0.000000
# 2 -0.001635 0.010881 -0.004782 0.000000 0.000000 0.000000
# 3 -0.009681 -0.004782 0.016456 0.000000 0.000000 0.000000
# 4 0.000000 0.000000 0.000000 0.041357 0.000000 0.000000
# 5 0.000000 0.000000 0.000000 0.000000 0.024965 0.000000
# 6 0.000000 0.000000 0.000000 0.000000 0.000000 0.039815
#
#
# Mechanical properties :
#
#
# Convention : Reuss Voigt Hill
#
# Bulk Modulus (GPa) = 58.96824 64.32358 61.64591
# Shear Modulus (GPa) = 25.88783 28.50379 27.19581
#
# Velocity S-wave (km/s) = 3.64429 3.82399 3.73522
# Velocity P-wave (km/s) = 6.92528 7.24543 7.08716
#
# Compressibility (1/GPa) = 0.01695828
#
# Stress axis : x y z
#
# Youngs Moduli (GPa) = 45.83267 91.90693 60.76773
#
# Poissons Ratio (x) = 0.15030 0.58832
# Poissons Ratio (y) = 0.07495 0.29057
# Poissons Ratio (z) = 0.44373 0.43946
#
# Static dielectric constant tensor:
#      x y z
#    x 3.486320 0.000000 0.000000 
#    y 0.000000 3.880970 0.000000 
#    z 0.000000 0.000000 3.581900 
# 
# 
# High freq. dielectric constant tensor:
#      x y z
#    x 1.755020 0.000000 0.000000 
#    y 0.000000 1.765630 0.000000 
#    z 0.000000 0.000000 1.759580 
# 
# From -- ./inp_files/37342.got.cif
#   From: 2010.03.12/outbox.cif.g09.slc.cpg/sg69_19_cif.got.tgz:37342.got - 2010.04.10 23:52:46.
