data_PCOD8285006
_publ_section_title
;
Structure prediction by ZEFSAII (Michael W. Deem and Ramdas Pophale) SiO2 
 PCOD8285006
Probable space group: F M M M
;
_chemical_formula_sum "Si O2"
_cell_formula_units_Z 192
_cell_length_a 28.924293
_cell_length_b 18.644824
_cell_length_c 17.833493
_cell_angle_alpha 90.000000
_cell_angle_beta 90.000000
_cell_angle_gamma 90.000000
_cell_volume 9617.395056
_symmetry_space_group_name_H-M "F M M M"
_symmetry_group_IT_number 69
_symmetry_cell_setting 'orthorhombic'
loop_
_space_group_symop_operation_xyz
x,y,z
-x,-y,z
x,-y,-z
-x,y,-z
-x,-y,-z
x,y,-z
-x,y,z
x,-y,z
x,1/2+y,1/2+z
-x,1/2-y,1/2+z
x,1/2-y,1/2-z
-x,1/2+y,1/2-z
-x,1/2-y,1/2-z
x,1/2+y,1/2-z
-x,1/2+y,1/2+z
x,1/2-y,1/2+z
1/2+x,y,1/2+z
1/2-x,-y,1/2+z
1/2+x,-y,1/2-z
1/2-x,y,1/2-z
1/2-x,-y,1/2-z
1/2+x,y,1/2-z
1/2-x,y,1/2+z
1/2+x,-y,1/2+z
1/2+x,1/2+y,z
1/2-x,1/2-y,z
1/2+x,1/2-y,-z
1/2-x,1/2+y,-z
1/2-x,1/2-y,-z
1/2+x,1/2+y,-z
1/2-x,1/2+y,z
1/2+x,1/2-y,z
loop_
_atom_site_type_symbol
_atom_site_label
_atom_site_fract_x
_atom_site_fract_y
_atom_site_fract_z
Si Si1 0.500000 0.915261 0.701614
Si Si2 0.069676 0.916612 0.081017
Si Si3 0.331823 0.417479 0.412074
Si Si4 0.156506 0.667550 0.584394
Si Si5 0.748385 0.831962 0.338212
Si Si6 0.094578 0.301431 0.911859
Si Si7 0.500000 0.803429 0.179978
O O1 0.542993 0.884969 0.652595
O O2 0.500000 0.882916 0.784552
O O3 0.500000 0.000000 0.712522
O O4 0.123488 0.901006 0.089454
O O5 0.060013 0.000000 0.079494
O O6 0.052720 0.884216 0.000000
O O7 0.321910 0.413213 0.500000
O O8 0.336551 0.500000 0.385154
O O9 0.288949 0.379704 0.371951
O O10 0.379631 0.376327 0.392385
O O11 0.173982 0.682686 0.500000
O O12 0.198583 0.641329 0.635213
O O13 0.128898 0.737545 0.614469
O O14 0.750000 0.838306 0.250000
O O15 0.750000 0.750000 0.366446
O O16 0.045954 0.294726 0.869536
O O17 0.084174 0.294961 0.000000
O O18 0.500000 0.750000 0.250000
#
# Coordination Sequence:
#
# PCOD8285006 Si02
#       7
#    16  32  32  32  32  32  16
#     4  10  21  37  55  81 117 159 191 227 296 362
#     4   9  18  34  57  85 116 151 194 240 286 347
#     4  10  22  41  65  90 117 157 209 257 298 349
#     4  10  20  36  61  86 112 151 198 244 292 348
#     4  11  23  38  59  89 123 159 194 236 300 370
#     4  10  22  41  62  84 114 156 203 249 299 354
#     4  12  25  38  59  90 122 153 196 253 300 357
#
# _framework density 19.963826000000001
#
# number of rings (size 3 to 8) (size 9 to 14) (size 15 to 20)
#    0.000    1.833    1.667    2.000    0.000    6.000 
#    0.000    6.667    0.000    2.500    0.000    0.000 
#    0.000    0.000    0.000    0.000    0.000    0.000 
#
# Total GULP energy -594963.346321 kJ/mol
# GULP energy per Si atom -12395.069715 kJ/mol
# Density = 1.991839 g / cm^3
# Si number density = 19.963826 Si / 1000 Ang^3
#
#
#
# Elastic Constant Matrix: (Units=GPa)
#
#
# Indices 1 2 3 4 5 6 
#
# 1 147.1040 42.1912 62.0111 0.0000 0.0000 0.0000
# 2 42.1912 76.9934 26.9694 0.0000 0.0000 0.0000
# 3 62.0111 26.9694 78.4223 0.0000 0.0000 0.0000
# 4 0.0000 0.0000 0.0000 24.5854 0.0000 0.0000
# 5 0.0000 0.0000 0.0000 0.0000 -28.1953 0.0000
# 6 0.0000 0.0000 0.0000 0.0000 0.0000 28.6186
#
#
#
# Elastic Compliance Matrix: (Units=1/GPa)
#
#
# Indices 1 2 3 4 5 6 
#
# 1 0.010912 -0.003362 -0.007472 0.000000 0.000000 0.000000
# 2 -0.003362 0.015803 -0.002776 0.000000 0.000000 0.000000
# 3 -0.007472 -0.002776 0.019615 0.000000 0.000000 0.000000
# 4 0.000000 0.000000 0.000000 0.040675 0.000000 0.000000
# 5 0.000000 0.000000 0.000000 0.000000 -0.035467 0.000000
# 6 0.000000 0.000000 0.000000 0.000000 0.000000 0.034942
#
#
# Mechanical properties :
#
#
# Convention : Reuss Voigt Hill
#
# Bulk Modulus (GPa) = 52.33207 62.76254 57.54731
# Shear Modulus (GPa) = 41.64216 16.42495 29.03355
#
# Velocity S-wave (km/s) = 4.57210 2.87145 3.81768
# Velocity P-wave (km/s) = 7.35816 6.51920 6.95135
#
# Compressibility (1/GPa) = 0.01910874
#
# Stress axis : x y z
#
# Youngs Moduli (GPa) = 91.64065 63.27926 50.98202
#
# Poissons Ratio (x) = 0.21276 0.38096
# Poissons Ratio (y) = 0.30812 0.14152
# Poissons Ratio (z) = 0.68477 0.17566
#
# Static dielectric constant tensor:
#      x y z
#    x 3.687540 0.000000 0.000000 
#    y 0.000000 3.733860 0.000000 
#    z 0.000000 0.000000 3.728560 
# 
# 
# High freq. dielectric constant tensor:
#      x y z
#    x 1.784660 0.000000 0.000000 
#    y 0.000000 1.777600 0.000000 
#    z 0.000000 0.000000 1.774250 
# 
# From -- ./inp_files/23693.got.cif
#   From: 2010.03.12/outbox.cif.g09.slc.cpg/sg69_12_cif.got.tgz:23693.got - 2010.04.10 23:52:46.
