data_PCOD8285040
_publ_section_title
;
Structure prediction by ZEFSAII (Michael W. Deem and Ramdas Pophale) SiO2 
 PCOD8285040
Probable space group: F M M M
;
_chemical_formula_sum "Si O2"
_cell_formula_units_Z 112
_cell_length_a 20.931590
_cell_length_b 27.720590
_cell_length_c 8.916804
_cell_angle_alpha 90.000000
_cell_angle_beta 90.000000
_cell_angle_gamma 90.000000
_cell_volume 5173.850904
_symmetry_space_group_name_H-M "F M M M"
_symmetry_group_IT_number 69
_symmetry_cell_setting 'orthorhombic'
loop_
_space_group_symop_operation_xyz
x,y,z
-x,-y,z
x,-y,-z
-x,y,-z
-x,-y,-z
x,y,-z
-x,y,z
x,-y,z
x,1/2+y,1/2+z
-x,1/2-y,1/2+z
x,1/2-y,1/2-z
-x,1/2+y,1/2-z
-x,1/2-y,1/2-z
x,1/2+y,1/2-z
-x,1/2+y,1/2+z
x,1/2-y,1/2+z
1/2+x,y,1/2+z
1/2-x,-y,1/2+z
1/2+x,-y,1/2-z
1/2-x,y,1/2-z
1/2-x,-y,1/2-z
1/2+x,y,1/2-z
1/2-x,y,1/2+z
1/2+x,-y,1/2+z
1/2+x,1/2+y,z
1/2-x,1/2-y,z
1/2+x,1/2-y,-z
1/2-x,1/2+y,-z
1/2-x,1/2-y,-z
1/2+x,1/2+y,-z
1/2-x,1/2+y,z
1/2+x,1/2-y,z
loop_
_atom_site_type_symbol
_atom_site_label
_atom_site_fract_x
_atom_site_fract_y
_atom_site_fract_z
Si Si1 0.187234 0.606969 0.176662
Si Si2 0.638547 0.302406 0.176190
Si Si3 0.571665 0.442784 0.169514
Si Si4 0.500000 0.200130 0.330021
O O1 0.250000 0.581884 0.250000
O O2 0.186119 0.661225 0.242459
O O3 0.123689 0.577704 0.216813
O O4 0.195191 0.608399 0.000000
O O5 0.645363 0.250000 0.250000
O O6 0.567304 0.326265 0.205570
O O7 0.654236 0.298620 0.000000
O O8 0.500000 0.424563 0.212224
O O9 0.573567 0.500000 0.178965
O O10 0.587693 0.425479 0.000000
O O11 0.500000 0.215926 0.500000
O O12 0.500000 0.250000 0.250000
#
# Coordination Sequence:
#
# PCOD8285040 Si02
#       4
#    32  32  32  16
#     4  12  26  42  61  90 126 168 213 259 310 368
#     4  10  20  37  59  87 122 164 209 257 310 367
#     4   9  20  42  71  99 127 161 201 249 309 374
#     4   8  16  30  52  80 111 148 191 242 298 353
#
# _framework density 21.647317999999999
#
# number of rings (size 3 to 8) (size 9 to 14) (size 15 to 20)
#    0.000    2.000    0.000    4.286    2.000    3.429 
#    0.000    4.286    0.000    0.000    0.000    0.000 
#    0.000    0.000    0.000    0.000    0.000    0.000 
#
# Total GULP energy -347027.453693 kJ/mol
# GULP energy per Si atom -12393.837632 kJ/mol
# Density = 2.159805 g / cm^3
# Si number density = 21.647318 Si / 1000 Ang^3
#
#
#
# Elastic Constant Matrix: (Units=GPa)
#
#
# Indices 1 2 3 4 5 6 
#
# 1 134.6186 33.7177 70.7949 0.0001 -0.0003 0.0000
# 2 33.7177 33.2538 32.0803 0.0000 0.0000 0.0000
# 3 70.7949 32.0803 158.9476 0.0000 -0.0002 0.0000
# 4 0.0001 0.0000 0.0000 34.4481 -0.0001 0.0000
# 5 -0.0003 0.0000 -0.0002 -0.0001 35.3466 0.0000
# 6 0.0000 0.0000 0.0000 0.0000 0.0000 22.3677
#
#
#
# Elastic Compliance Matrix: (Units=1/GPa)
#
#
# Indices 1 2 3 4 5 6 
#
# 1 0.011237 -0.008153 -0.003360 0.000000 0.000000 0.000000
# 2 -0.008153 0.043258 -0.005099 0.000000 0.000000 0.000000
# 3 -0.003360 -0.005099 0.008817 0.000000 0.000000 0.000000
# 4 0.000000 0.000000 0.000000 0.029029 0.000000 0.000000
# 5 0.000000 0.000000 0.000000 0.000000 0.028291 0.000000
# 6 0.000000 0.000000 0.000000 0.000000 0.000000 0.044707
#
#
# Mechanical properties :
#
#
# Convention : Reuss Voigt Hill
#
# Bulk Modulus (GPa) = 33.23555 66.66729 49.95142
# Shear Modulus (GPa) = 23.97011 31.11429 27.54220
#
# Velocity S-wave (km/s) = 3.33122 3.79532 3.57082
# Velocity P-wave (km/s) = 5.49387 7.07601 6.33453
#
# Compressibility (1/GPa) = 0.03008827
#
# Stress axis : x y z
#
# Youngs Moduli (GPa) = 88.99012 23.11711 113.41849
#
# Poissons Ratio (x) = 0.18847 0.38103
# Poissons Ratio (y) = 0.72554 0.57837
# Poissons Ratio (z) = 0.29896 0.11788
#
# Static dielectric constant tensor:
#      x y z
#    x 4.396330 0.000000 0.000000 
#    y 0.000000 3.637430 0.000000 
#    z 0.000000 0.000000 3.794550 
# 
# 
# High freq. dielectric constant tensor:
#      x y z
#    x 1.869630 0.000000 0.000000 
#    y 0.000000 1.840070 0.000000 
#    z 0.000000 0.000000 1.843930 
# 
# From -- ./inp_files/3729.got.cif
#   From: 2010.03.12/outbox.cif.g09.slc.cpg/sg69_2_cif.got.tgz:3729.got - 2010.04.10 23:52:46.
