data_PCOD8285999
_publ_section_title
;
Structure prediction by ZEFSAII (Michael W. Deem and Ramdas Pophale) SiO2 
 PCOD8285999
Probable space group: F D D D
;
_chemical_formula_sum "Si O2"
_cell_formula_units_Z 192
_cell_length_a 17.514703
_cell_length_b 33.531919
_cell_length_c 17.763508
_cell_angle_alpha 90.000000
_cell_angle_beta 90.000000
_cell_angle_gamma 90.000000
_cell_volume 10432.536711
_symmetry_space_group_name_H-M "F D D D"
_symmetry_group_IT_number 70
_space_group.IT_coordinate_system_code '2'
_symmetry_cell_setting 'orthorhombic'
loop_
_space_group_symop_operation_xyz
x,y,z
1/4-x,1/4-y,z
x,1/4-y,1/4-z
1/4-x,y,1/4-z
-x,-y,-z
3/4+x,3/4+y,-z
-x,3/4+y,3/4+z
3/4+x,-y,3/4+z
x,1/2+y,1/2+z
1/4-x,3/4-y,1/2+z
x,3/4-y,3/4-z
1/4-x,1/2+y,3/4-z
-x,1/2-y,1/2-z
3/4+x,1/4+y,1/2-z
-x,1/4+y,1/4+z
3/4+x,1/2-y,1/4+z
1/2+x,y,1/2+z
3/4-x,1/4-y,1/2+z
1/2+x,1/4-y,3/4-z
3/4-x,y,3/4-z
1/2-x,-y,1/2-z
1/4+x,3/4+y,1/2-z
1/2-x,3/4+y,1/4+z
1/4+x,-y,1/4+z
1/2+x,1/2+y,z
3/4-x,3/4-y,z
1/2+x,3/4-y,1/4-z
3/4-x,1/2+y,1/4-z
1/2-x,1/2-y,-z
1/4+x,1/4+y,-z
1/2-x,1/4+y,3/4+z
1/4+x,1/2-y,3/4+z
loop_
_atom_site_type_symbol
_atom_site_label
_atom_site_fract_x
_atom_site_fract_y
_atom_site_fract_z
Si Si1 0.375000 0.875000 0.875000
Si Si2 0.729653 0.587859 0.002387
Si Si3 0.686913 0.269915 0.546933
Si Si4 0.375000 0.375000 0.627724
Si Si5 0.277957 0.749434 0.282300
Si Si6 0.888341 0.108078 0.958301
Si Si7 0.625000 0.125000 0.625000
Si Si8 0.971540 0.916258 0.248413
O O1 0.321669 0.902813 0.926341
O O2 0.680668 0.597533 0.927913
O O3 0.809211 0.611842 0.005850
O O4 0.755374 0.541713 0.006026
O O5 0.678268 0.596696 0.075095
O O6 0.750000 0.250000 0.500000
O O7 0.701776 0.253978 0.629978
O O8 0.612754 0.255796 0.499605
O O9 0.687632 0.317763 0.550348
O O10 0.322800 0.403032 0.576335
O O11 0.222404 0.714460 0.252953
O O12 0.875000 0.125912 0.875000
O O13 0.807350 0.101631 0.999606
#
# Coordination Sequence:
#
# PCOD8285999 Si02
#       8
#     8  32  32  16  32  32   8  32
#     4  10  24  44  68  82 112 154 208 266 284 356
#     4  11  23  35  57  91 124 152 188 253 298 353
#     4  10  20  35  59  82 120 160 195 236 288 363
#     4  10  20  38  66  80 114 164 196 230 302 376
#     4  10  21  36  55  89 116 149 200 242 291 351
#     4  11  20  40  61  86 118 161 201 234 295 371
#     4  10  24  36  48  90 132 154 192 230 312 352
#     4  10  21  44  63  84 111 159 209 238 298 360
#
# _framework density 18.403960999999999
#
# number of rings (size 3 to 8) (size 9 to 14) (size 15 to 20)
#    0.000    1.667    5.000    1.000    9.333    0.667 
#    4.500    0.000    0.000    4.000    0.000    0.000 
#    0.000    0.000    0.000    0.000    0.000    0.000 
#
# Total GULP energy -594926.791992 kJ/mol
# GULP energy per Si atom -12394.308167 kJ/mol
# Density = 1.836207 g / cm^3
# Si number density = 18.403961 Si / 1000 Ang^3
#
#
#
# Elastic Constant Matrix: (Units=GPa)
#
#
# Indices 1 2 3 4 5 6 
#
# 1 115.6394 65.1156 50.5644 0.0000 0.0000 0.0000
# 2 65.1156 148.1578 52.0102 0.0000 0.0000 0.0000
# 3 50.5644 52.0102 91.3617 0.0000 0.0000 0.0000
# 4 0.0000 0.0000 0.0000 -22.6407 0.0000 0.0000
# 5 0.0000 0.0000 0.0000 0.0000 23.6537 0.0000
# 6 0.0000 0.0000 0.0000 0.0000 0.0000 30.7340
#
#
#
# Elastic Compliance Matrix: (Units=1/GPa)
#
#
# Indices 1 2 3 4 5 6 
#
# 1 0.013068 -0.004005 -0.004953 0.000000 0.000000 0.000000
# 2 -0.004005 0.009663 -0.003284 0.000000 0.000000 0.000000
# 3 -0.004953 -0.003284 0.015556 0.000000 0.000000 0.000000
# 4 0.000000 0.000000 0.000000 -0.044168 0.000000 0.000000
# 5 0.000000 0.000000 0.000000 0.000000 0.042277 0.000000
# 6 0.000000 0.000000 0.000000 0.000000 0.000000 0.032537
#
#
# Mechanical properties :
#
#
# Convention : Reuss Voigt Hill
#
# Bulk Modulus (GPa) = 72.44574 76.72659 74.58616
# Shear Modulus (GPa) = 51.01103 18.84730 34.92917
#
# Velocity S-wave (km/s) = 5.27044 3.20361 4.36123
# Velocity P-wave (km/s) = 8.74565 7.44748 8.12254
#
# Compressibility (1/GPa) = 0.01380343
#
# Stress axis : x y z
#
# Youngs Moduli (GPa) = 76.52067 103.49150 64.28272
#
# Poissons Ratio (x) = 0.41447 0.31838
# Poissons Ratio (y) = 0.30646 0.21112
# Poissons Ratio (z) = 0.37899 0.33989
#
# Static dielectric constant tensor:
#      x y z
#    x 3.827270 0.000000 0.000000 
#    y 0.000000 3.305600 0.000000 
#    z 0.000000 0.000000 3.423910 
# 
# 
# High freq. dielectric constant tensor:
#      x y z
#    x 1.719530 0.000000 0.000000 
#    y 0.000000 1.709300 0.000000 
#    z 0.000000 0.000000 1.703490 
# 
# From -- ./inp_files/35543.got.cif
#   From: 2010.03.12/outbox.cif.g09.slc.cpg/sg70_18_cif.got.tgz:35543.got - 2010.04.16 13:46:32.
