data_PCOD8285760
_publ_section_title
;
Structure prediction by ZEFSAII (Michael W. Deem and Ramdas Pophale) SiO2 
 PCOD8285760
Probable space group: F D D D
;
_chemical_formula_sum "Si O2"
_cell_formula_units_Z 96
_cell_length_a 10.630584
_cell_length_b 16.296298
_cell_length_c 26.456250
_cell_angle_alpha 90.000000
_cell_angle_beta 90.000000
_cell_angle_gamma 90.000000
_cell_volume 4583.258653
_symmetry_space_group_name_H-M "F D D D"
_symmetry_group_IT_number 70
_space_group.IT_coordinate_system_code '2'
_symmetry_cell_setting 'orthorhombic'
loop_
_space_group_symop_operation_xyz
x,y,z
1/4-x,1/4-y,z
x,1/4-y,1/4-z
1/4-x,y,1/4-z
-x,-y,-z
3/4+x,3/4+y,-z
-x,3/4+y,3/4+z
3/4+x,-y,3/4+z
x,1/2+y,1/2+z
1/4-x,3/4-y,1/2+z
x,3/4-y,3/4-z
1/4-x,1/2+y,3/4-z
-x,1/2-y,1/2-z
3/4+x,1/4+y,1/2-z
-x,1/4+y,1/4+z
3/4+x,1/2-y,1/4+z
1/2+x,y,1/2+z
3/4-x,1/4-y,1/2+z
1/2+x,1/4-y,3/4-z
3/4-x,y,3/4-z
1/2-x,-y,1/2-z
1/4+x,3/4+y,1/2-z
1/2-x,3/4+y,1/4+z
1/4+x,-y,1/4+z
1/2+x,1/2+y,z
3/4-x,3/4-y,z
1/2+x,3/4-y,1/4-z
3/4-x,1/2+y,1/4-z
1/2-x,1/2-y,-z
1/4+x,1/4+y,-z
1/2-x,1/4+y,3/4+z
1/4+x,1/2-y,3/4+z
loop_
_atom_site_type_symbol
_atom_site_label
_atom_site_fract_x
_atom_site_fract_y
_atom_site_fract_z
Si Si1 0.637450 0.715519 0.761267
Si Si2 0.757374 0.219157 0.640137
Si Si3 0.007910 0.714049 0.098270
O O1 0.625000 0.625000 0.785137
O O2 0.500000 0.750000 0.750000
O O3 0.713724 0.772698 0.800188
O O4 0.721621 0.707975 0.711175
O O5 0.745278 0.125000 0.625000
O O6 0.625000 0.263007 0.625000
O O7 0.875216 0.259494 0.609444
O O8 0.999941 0.625000 0.125000
O O9 0.125000 0.761760 0.125000
#
# Coordination Sequence:
#
# PCOD8285760 Si02
#       3
#    32  32  32
#     4  12  22  39  71  99 128 179 231 275 340 407
#     4  10  22  41  63  92 134 171 212 274 338 396
#     4  10  17  37  65  93 121 165 215 276 326 383
#
# _framework density 20.945796000000001
#
# number of rings (size 3 to 8) (size 9 to 14) (size 15 to 20)
#    0.000    1.333    6.667    2.000    0.000    1.333 
#    6.000    0.000    0.000    0.000    0.000    0.000 
#    0.000    0.000    0.000    0.000    0.000    0.000 
#
# Total GULP energy -297389.576953 kJ/mol
# GULP energy per Si atom -12391.232373 kJ/mol
# Density = 2.089812 g / cm^3
# Si number density = 20.945796 Si / 1000 Ang^3
#
#
#
# Elastic Constant Matrix: (Units=GPa)
#
#
# Indices 1 2 3 4 5 6 
#
# 1 240.4213 20.4712 75.5966 0.0000 0.0000 0.0000
# 2 20.4712 59.6944 37.9593 0.0000 0.0000 0.0000
# 3 75.5966 37.9593 185.6914 0.0000 0.0000 0.0000
# 4 0.0000 0.0000 0.0000 36.6637 0.0000 0.0000
# 5 0.0000 0.0000 0.0000 0.0000 74.1165 0.0000
# 6 0.0000 0.0000 0.0000 0.0000 0.0000 9.2908
#
#
#
# Elastic Compliance Matrix: (Units=1/GPa)
#
#
# Indices 1 2 3 4 5 6 
#
# 1 0.004781 -0.000462 -0.001852 0.000000 0.000000 0.000000
# 2 -0.000462 0.019300 -0.003757 0.000000 0.000000 0.000000
# 3 -0.001852 -0.003757 0.006907 0.000000 0.000000 0.000000
# 4 0.000000 0.000000 0.000000 0.027275 0.000000 0.000000
# 5 0.000000 0.000000 0.000000 0.000000 0.013492 0.000000
# 6 0.000000 0.000000 0.000000 0.000000 0.000000 0.107633
#
#
# Mechanical properties :
#
#
# Convention : Reuss Voigt Hill
#
# Bulk Modulus (GPa) = 53.06247 83.76236 68.41242
# Shear Modulus (GPa) = 25.27646 47.46620 36.37133
#
# Velocity S-wave (km/s) = 3.47761 4.76557 4.17159
# Velocity P-wave (km/s) = 6.44308 8.38795 7.47900
#
# Compressibility (1/GPa) = 0.01884571
#
# Stress axis : x y z
#
# Youngs Moduli (GPa) = 209.16050 51.81462 144.77469
#
# Poissons Ratio (x) = 0.02393 0.26812
# Poissons Ratio (y) = 0.09661 0.54395
# Poissons Ratio (z) = 0.38736 0.19468
#
# Static dielectric constant tensor:
#      x y z
#    x 6.486110 0.000000 0.000000 
#    y 0.000000 3.417350 0.000000 
#    z 0.000000 0.000000 3.848710 
# 
# 
# High freq. dielectric constant tensor:
#      x y z
#    x 1.850030 0.000000 0.000000 
#    y 0.000000 1.767040 0.000000 
#    z 0.000000 0.000000 1.821440 
# 
# From -- ./inp_files/15804.got.cif
#   From: 2010.03.12/outbox.cif.g09.slc.cpg/sg70_8_cif.got.tgz:15804.got - 2010.04.16 13:46:32.
