data_PCOD8285443
_publ_section_title
;
Structure prediction by ZEFSAII (Michael W. Deem and Ramdas Pophale) SiO2 
 PCOD8285443
Probable space group: F M M M
;
_chemical_formula_sum "Si O2"
_cell_formula_units_Z 160
_cell_length_a 9.637180
_cell_length_b 29.740674
_cell_length_c 29.096967
_cell_angle_alpha 90.000000
_cell_angle_beta 90.000000
_cell_angle_gamma 90.000000
_cell_volume 8339.662947
_symmetry_space_group_name_H-M "F M M M"
_symmetry_group_IT_number 69
_symmetry_cell_setting 'orthorhombic'
loop_
_space_group_symop_operation_xyz
x,y,z
-x,-y,z
x,-y,-z
-x,y,-z
-x,-y,-z
x,y,-z
-x,y,z
x,-y,z
x,1/2+y,1/2+z
-x,1/2-y,1/2+z
x,1/2-y,1/2-z
-x,1/2+y,1/2-z
-x,1/2-y,1/2-z
x,1/2+y,1/2-z
-x,1/2+y,1/2+z
x,1/2-y,1/2+z
1/2+x,y,1/2+z
1/2-x,-y,1/2+z
1/2+x,-y,1/2-z
1/2-x,y,1/2-z
1/2-x,-y,1/2-z
1/2+x,y,1/2-z
1/2-x,y,1/2+z
1/2+x,-y,1/2+z
1/2+x,1/2+y,z
1/2-x,1/2-y,z
1/2+x,1/2-y,-z
1/2-x,1/2+y,-z
1/2-x,1/2-y,-z
1/2+x,1/2+y,-z
1/2-x,1/2+y,z
1/2+x,1/2-y,z
loop_
_atom_site_type_symbol
_atom_site_label
_atom_site_fract_x
_atom_site_fract_y
_atom_site_fract_z
Si Si1 0.500000 0.446849 0.713455
Si Si2 0.344231 0.331060 0.581305
Si Si3 0.261522 0.895221 0.162199
Si Si4 0.670116 0.298217 0.000000
Si Si5 0.500000 0.052721 0.321483
Si Si6 0.250000 0.250000 0.863187
Si Si7 0.153298 0.310415 0.711480
O O1 0.500000 0.500000 0.706928
O O2 0.368942 0.426877 0.687730
O O3 0.500000 0.434588 0.767384
O O4 0.500000 0.336808 0.560416
O O5 0.315890 0.373296 0.614798
O O6 0.222349 0.327667 0.543356
O O7 0.344282 0.283465 0.607400
O O8 0.221826 0.857209 0.198286
O O9 0.130025 0.926279 0.151747
O O10 0.750000 0.250000 0.000000
O O11 0.500000 0.292946 0.000000
O O12 0.500000 0.000000 0.329018
O O13 0.142528 0.221874 0.832406
O O14 0.250000 0.287843 0.750000
O O15 0.000000 0.317896 0.731730
#
# Coordination Sequence:
#
# PCOD8285443 Si02
#       7
#    16  32  32  16  16  16  32
#     4  11  22  40  62  92 127 166 214 262 313 366
#     4  11  23  42  64  89 124 162 203 255 311 370
#     4  11  23  38  60  88 124 164 210 256 310 366
#     4  12  26  42  70  98 127 158 201 256 317 374
#     4  11  22  38  62  92 129 170 210 260 315 370
#     4  10  23  35  58  80 116 156 208 243 301 352
#     4  11  23  36  52  76 113 161 213 257 295 349
#
# _framework density 19.185427000000001
#
# number of rings (size 3 to 8) (size 9 to 14) (size 15 to 20)
#    0.000    1.000    3.000    4.200    2.800    4.800 
#    0.000    0.000    0.000    0.000    0.000    4.200 
#    0.000    0.000    0.000    0.000    0.000    0.000 
#
# Total GULP energy -495860.149462 kJ/mol
# GULP energy per Si atom -12396.503737 kJ/mol
# Density = 1.914176 g / cm^3
# Si number density = 19.185427 Si / 1000 Ang^3
#
#
#
# Elastic Constant Matrix: (Units=GPa)
#
#
# Indices 1 2 3 4 5 6 
#
# 1 160.9230 37.3332 42.9653 0.0000 0.0000 0.0000
# 2 37.3332 98.9719 35.5766 0.0000 0.0000 0.0000
# 3 42.9653 35.5766 82.9320 0.0000 0.0000 0.0000
# 4 0.0000 0.0000 0.0000 30.6864 0.0000 0.0000
# 5 0.0000 0.0000 0.0000 0.0000 31.0629 0.0000
# 6 0.0000 0.0000 0.0000 0.0000 0.0000 19.5277
#
#
#
# Elastic Compliance Matrix: (Units=1/GPa)
#
#
# Indices 1 2 3 4 5 6 
#
# 1 0.007441 -0.001680 -0.003134 0.000000 0.000000 0.000000
# 2 -0.001680 0.012325 -0.004417 0.000000 0.000000 0.000000
# 3 -0.003134 -0.004417 0.015577 0.000000 0.000000 0.000000
# 4 0.000000 0.000000 0.000000 0.032588 0.000000 0.000000
# 5 0.000000 0.000000 0.000000 0.000000 0.032193 0.000000
# 6 0.000000 0.000000 0.000000 0.000000 0.000000 0.051209
#
#
# Mechanical properties :
#
#
# Convention : Reuss Voigt Hill
#
# Bulk Modulus (GPa) = 59.24079 63.84192 61.54135
# Shear Modulus (GPa) = 28.50275 31.38551 29.94413
#
# Velocity S-wave (km/s) = 3.85859 4.04902 3.95495
# Velocity P-wave (km/s) = 7.12718 7.43020 7.28027
#
# Compressibility (1/GPa) = 0.01688026
#
# Stress axis : x y z
#
# Youngs Moduli (GPa) = 134.39559 81.13348 64.19882
#
# Poissons Ratio (x) = 0.13631 0.20121
# Poissons Ratio (y) = 0.22580 0.28356
# Poissons Ratio (z) = 0.42121 0.35836
#
# Static dielectric constant tensor:
#      x y z
#    x 3.658320 0.000000 0.000000 
#    y 0.000000 3.511810 0.000000 
#    z 0.000000 0.000000 3.437600 
# 
# 
# High freq. dielectric constant tensor:
#      x y z
#    x 1.762240 0.000000 0.000000 
#    y 0.000000 1.741940 0.000000 
#    z 0.000000 0.000000 1.724330 
# 
# From -- ./inp_files/5830.got.cif
#   From: 2010.03.12/outbox.cif.g09.slc.cpg/sg69_3_cif.got.tgz:5830.got - 2010.04.10 23:52:46.
