data_PCOD8285222
_publ_section_title
;
Structure prediction by ZEFSAII (Michael W. Deem and Ramdas Pophale) SiO2 
 PCOD8285222
Probable space group: F M M M
;
_chemical_formula_sum "Si O2"
_cell_formula_units_Z 176
_cell_length_a 25.087441
_cell_length_b 19.299971
_cell_length_c 18.567305
_cell_angle_alpha 90.000000
_cell_angle_beta 90.000000
_cell_angle_gamma 90.000000
_cell_volume 8990.045548
_symmetry_space_group_name_H-M "F M M M"
_symmetry_group_IT_number 69
_symmetry_cell_setting 'orthorhombic'
loop_
_space_group_symop_operation_xyz
x,y,z
-x,-y,z
x,-y,-z
-x,y,-z
-x,-y,-z
x,y,-z
-x,y,z
x,-y,z
x,1/2+y,1/2+z
-x,1/2-y,1/2+z
x,1/2-y,1/2-z
-x,1/2+y,1/2-z
-x,1/2-y,1/2-z
x,1/2+y,1/2-z
-x,1/2+y,1/2+z
x,1/2-y,1/2+z
1/2+x,y,1/2+z
1/2-x,-y,1/2+z
1/2+x,-y,1/2-z
1/2-x,y,1/2-z
1/2-x,-y,1/2-z
1/2+x,y,1/2-z
1/2-x,y,1/2+z
1/2+x,-y,1/2+z
1/2+x,1/2+y,z
1/2-x,1/2-y,z
1/2+x,1/2-y,-z
1/2-x,1/2+y,-z
1/2-x,1/2-y,-z
1/2+x,1/2+y,-z
1/2-x,1/2+y,z
1/2+x,1/2-y,z
loop_
_atom_site_type_symbol
_atom_site_label
_atom_site_fract_x
_atom_site_fract_y
_atom_site_fract_z
Si Si1 0.938260 0.000000 0.414717
Si Si2 0.439441 0.419589 0.804899
Si Si3 0.644234 0.622166 0.085396
Si Si4 0.377765 0.612972 0.325788
Si Si5 0.800096 0.500000 0.799696
Si Si6 0.812404 0.254110 0.164540
Si Si7 0.722648 0.500000 0.082229
O O1 0.908291 0.930757 0.387271
O O2 0.935780 0.000000 0.500000
O O3 0.000000 0.000000 0.388019
O O4 0.500000 0.399620 0.819451
O O5 0.433101 0.500000 0.781019
O O6 0.410283 0.405658 0.880402
O O7 0.418623 0.370192 0.739494
O O8 0.658469 0.693977 0.122123
O O9 0.690444 0.568121 0.104809
O O10 0.636252 0.630434 0.000000
O O11 0.333623 0.568077 0.283854
O O12 0.345747 0.677681 0.360010
O O13 0.750000 0.500000 0.750000
O O14 0.780468 0.500000 0.881933
O O15 0.818335 0.250000 0.250000
O O16 0.750000 0.250000 0.142162
O O17 0.736491 0.500000 0.000000
#
# Coordination Sequence:
#
# PCOD8285222 Si02
#       7
#    16  32  32  32  16  32  16
#     4  10  22  42  68  96 125 163 213 267 321 370
#     4  11  21  38  65  93 120 153 201 256 318 375
#     4  11  23  41  61  89 124 160 207 258 312 368
#     4  11  22  38  61  92 125 163 207 255 309 374
#     4  11  21  31  59  89 121 152 205 259 305 356
#     4  11  24  40  62  90 128 170 210 247 306 380
#     4  10  21  37  58  85 121 158 198 255 317 365
#
# _framework density 19.577209
#
# number of rings (size 3 to 8) (size 9 to 14) (size 15 to 20)
#    0.000    1.182    4.545    2.727    2.545    2.909 
#    0.000    3.636    0.000    0.000    0.000    0.000 
#    0.000    0.000    0.000    0.000    0.000    0.000 
#
# Total GULP energy -545496.130212 kJ/mol
# GULP energy per Si atom -12397.639323 kJ/mol
# Density = 1.953265 g / cm^3
# Si number density = 19.577209 Si / 1000 Ang^3
#
#
#
# Elastic Constant Matrix: (Units=GPa)
#
#
# Indices 1 2 3 4 5 6 
#
# 1 110.4040 29.2005 30.3549 0.0000 0.0000 0.0000
# 2 29.2005 103.7526 17.5916 0.0000 0.0000 0.0000
# 3 30.3549 17.5916 76.5802 0.0000 0.0000 0.0000
# 4 0.0000 0.0000 0.0000 65.4934 0.0000 0.0000
# 5 0.0000 0.0000 0.0000 0.0000 33.9510 0.0000
# 6 0.0000 0.0000 0.0000 0.0000 0.0000 8.6061
#
#
#
# Elastic Compliance Matrix: (Units=1/GPa)
#
#
# Indices 1 2 3 4 5 6 
#
# 1 0.010705 -0.002386 -0.003695 0.000000 0.000000 0.000000
# 2 -0.002386 0.010561 -0.001480 0.000000 0.000000 0.000000
# 3 -0.003695 -0.001480 0.014863 0.000000 0.000000 0.000000
# 4 0.000000 0.000000 0.000000 0.015269 0.000000 0.000000
# 5 0.000000 0.000000 0.000000 0.000000 0.029454 0.000000
# 6 0.000000 0.000000 0.000000 0.000000 0.000000 0.116196
#
#
# Mechanical properties :
#
#
# Convention : Reuss Voigt Hill
#
# Bulk Modulus (GPa) = 47.60620 49.44788 48.52704
# Shear Modulus (GPa) = 22.81310 35.84942 29.33126
#
# Velocity S-wave (km/s) = 3.41734 4.28387 3.87490
# Velocity P-wave (km/s) = 6.31988 7.05560 6.69785
#
# Compressibility (1/GPa) = 0.02100567
#
# Stress axis : x y z
#
# Youngs Moduli (GPa) = 93.41701 94.68920 67.28190
#
# Poissons Ratio (x) = 0.22595 0.24860
# Poissons Ratio (y) = 0.22292 0.09959
# Poissons Ratio (z) = 0.34517 0.14015
#
# Static dielectric constant tensor:
#      x y z
#    x 0.000000 0.000000 0.000000 
#    y 0.000000 0.000000 0.000000 
#    z 0.000000 0.000000 0.000000 
# 
# 
# High freq. dielectric constant tensor:
#      x y z
#    x 1.774260 0.000000 0.000000 
#    y 0.000000 1.751300 0.000000 
#    z 0.000000 0.000000 1.761960 
# 
# From -- ./inp_files/26831.got.cif
#   From: 2010.03.12/outbox.cif.g09.slc.cpg/sg69_14_cif.got.tgz:26831.got - 2010.04.10 23:52:46.
