data_PCOD8285493
_publ_section_title
;
Structure prediction by ZEFSAII (Michael W. Deem and Ramdas Pophale) SiO2 
 PCOD8285493
Probable space group: F M M M
;
_chemical_formula_sum "Si O2"
_cell_formula_units_Z 224
_cell_length_a 30.874090
_cell_length_b 20.941539
_cell_length_c 18.415663
_cell_angle_alpha 90.000000
_cell_angle_beta 90.000000
_cell_angle_gamma 90.000000
_cell_volume 11906.664588
_symmetry_space_group_name_H-M "F M M M"
_symmetry_group_IT_number 69
_symmetry_cell_setting 'orthorhombic'
loop_
_space_group_symop_operation_xyz
x,y,z
-x,-y,z
x,-y,-z
-x,y,-z
-x,-y,-z
x,y,-z
-x,y,z
x,-y,z
x,1/2+y,1/2+z
-x,1/2-y,1/2+z
x,1/2-y,1/2-z
-x,1/2+y,1/2-z
-x,1/2-y,1/2-z
x,1/2+y,1/2-z
-x,1/2+y,1/2+z
x,1/2-y,1/2+z
1/2+x,y,1/2+z
1/2-x,-y,1/2+z
1/2+x,-y,1/2-z
1/2-x,y,1/2-z
1/2-x,-y,1/2-z
1/2+x,y,1/2-z
1/2-x,y,1/2+z
1/2+x,-y,1/2+z
1/2+x,1/2+y,z
1/2-x,1/2-y,z
1/2+x,1/2-y,-z
1/2-x,1/2+y,-z
1/2-x,1/2-y,-z
1/2+x,1/2+y,-z
1/2-x,1/2+y,z
1/2+x,1/2-y,z
loop_
_atom_site_type_symbol
_atom_site_label
_atom_site_fract_x
_atom_site_fract_y
_atom_site_fract_z
Si Si1 0.579462 0.653185 0.085364
Si Si2 0.791672 0.294275 0.082787
Si Si3 0.911837 0.116481 0.347338
Si Si4 0.324895 0.428979 0.583112
Si Si5 0.127435 0.246381 0.335967
Si Si6 0.500000 0.118770 0.085595
Si Si7 0.549532 0.573753 0.205510
Si Si8 0.500000 0.740062 0.084937
O O1 0.620780 0.686693 0.121817
O O2 0.568090 0.586472 0.124352
O O3 0.541657 0.701128 0.108739
O O4 0.585329 0.641256 0.000000
O O5 0.750000 0.250000 0.095861
O O6 0.788861 0.372198 0.095939
O O7 0.823944 0.270931 0.144158
O O8 0.808137 0.283080 0.000000
O O9 0.868526 0.078765 0.369444
O O10 0.904668 0.191193 0.366830
O O11 0.919425 0.110815 0.261199
O O12 0.955084 0.087302 0.386145
O O13 0.340316 0.426030 0.500000
O O14 0.305146 0.500000 0.600644
O O15 0.122451 0.250000 0.250000
O O16 0.500000 0.189955 0.119955
O O17 0.500000 0.114094 0.000000
O O18 0.500000 0.597478 0.212909
O O19 0.552811 0.500000 0.222364
O O20 0.500000 0.750160 0.000000
#
# Coordination Sequence:
#
# PCOD8285493 Si02
#       8
#    32  32  32  32  32  16  32  16
#     4  11  21  35  53  76 105 137 184 238 283 331
#     4   9  19  36  58  85 114 142 174 219 272 326
#     4  11  20  33  50  75 112 148 189 231 278 329
#     4   9  18  33  54  80 111 149 189 223 264 329
#     4  11  21  33  56  85 108 137 172 220 284 343
#     4  11  20  29  47  76 113 151 187 233 283 331
#     4  11  23  36  50  69  99 147 199 241 280 321
#     4   9  18  29  45  70 100 134 173 222 280 327
#
# _framework density 18.812992999999999
#
# number of rings (size 3 to 8) (size 9 to 14) (size 15 to 20)
#    0.000    1.714    4.286    1.286    0.000    1.714 
#    0.000    2.857    0.000    2.571    0.000    4.000 
#    0.000    0.000    0.000    0.000    0.000    0.000 
#
# Total GULP energy -693785.605650 kJ/mol
# GULP energy per Si atom -12389.028672 kJ/mol
# Density = 1.877017 g / cm^3
# Si number density = 18.812993 Si / 1000 Ang^3
#
#
#
# Elastic Constant Matrix: (Units=GPa)
#
#
# Indices 1 2 3 4 5 6 
#
# 1 72.2449 46.9344 28.8555 0.0000 0.0000 0.0000
# 2 46.9344 85.1161 23.9387 0.0000 0.0000 0.0000
# 3 28.8555 23.9387 90.0103 0.0000 0.0000 0.0000
# 4 0.0000 0.0000 0.0000 22.7811 0.0000 0.0000
# 5 0.0000 0.0000 0.0000 0.0000 24.0020 0.0000
# 6 0.0000 0.0000 0.0000 0.0000 0.0000 24.2702
#
#
#
# Elastic Compliance Matrix: (Units=1/GPa)
#
#
# Indices 1 2 3 4 5 6 
#
# 1 0.023030 -0.011482 -0.004329 0.000000 0.000000 0.000000
# 2 -0.011482 0.018423 -0.001219 0.000000 0.000000 0.000000
# 3 -0.004329 -0.001219 0.012822 0.000000 0.000000 0.000000
# 4 0.000000 0.000000 0.000000 0.043896 0.000000 0.000000
# 5 0.000000 0.000000 0.000000 0.000000 0.041663 0.000000
# 6 0.000000 0.000000 0.000000 0.000000 0.000000 0.041203
#
#
# Mechanical properties :
#
#
# Convention : Reuss Voigt Hill
#
# Bulk Modulus (GPa) = 49.46815 49.64760 49.55788
# Shear Modulus (GPa) = 22.53933 24.05350 23.29641
#
# Velocity S-wave (km/s) = 3.46507 3.57957 3.52279
# Velocity P-wave (km/s) = 6.50851 6.59786 6.55334
#
# Compressibility (1/GPa) = 0.02021503
#
# Stress axis : x y z
#
# Youngs Moduli (GPa) = 43.42149 54.28128 77.99148
#
# Poissons Ratio (x) = 0.62323 0.33766
# Poissons Ratio (y) = 0.49854 0.09506
# Poissons Ratio (z) = 0.18799 0.06616
#
# Static dielectric constant tensor:
#      x y z
#    x 3.178950 0.000000 0.000000 
#    y 0.000000 3.561540 0.000000 
#    z 0.000000 0.000000 3.329910 
# 
# 
# High freq. dielectric constant tensor:
#      x y z
#    x 1.697920 0.000000 0.000000 
#    y 0.000000 1.728510 0.000000 
#    z 0.000000 0.000000 1.728960 
# 
# From -- ./inp_files/27974.got.cif
#   From: 2010.03.12/outbox.cif.g09.slc.cpg/sg69_14_cif.got.tgz:27974.got - 2010.04.10 23:52:46.
