data_PCOD8285250
_publ_section_title
;
Structure prediction by ZEFSAII (Michael W. Deem and Ramdas Pophale) SiO2 
 PCOD8285250
Probable space group: F M M M
;
_chemical_formula_sum "Si O2"
_cell_formula_units_Z 96
_cell_length_a 8.710721
_cell_length_b 31.460150
_cell_length_c 18.778298
_cell_angle_alpha 90.000000
_cell_angle_beta 90.000000
_cell_angle_gamma 90.000000
_cell_volume 5146.015849
_symmetry_space_group_name_H-M "F M M M"
_symmetry_group_IT_number 69
_symmetry_cell_setting 'orthorhombic'
loop_
_space_group_symop_operation_xyz
x,y,z
-x,-y,z
x,-y,-z
-x,y,-z
-x,-y,-z
x,y,-z
-x,y,z
x,-y,z
x,1/2+y,1/2+z
-x,1/2-y,1/2+z
x,1/2-y,1/2-z
-x,1/2+y,1/2-z
-x,1/2-y,1/2-z
x,1/2+y,1/2-z
-x,1/2+y,1/2+z
x,1/2-y,1/2+z
1/2+x,y,1/2+z
1/2-x,-y,1/2+z
1/2+x,-y,1/2-z
1/2-x,y,1/2-z
1/2-x,-y,1/2-z
1/2+x,y,1/2-z
1/2-x,y,1/2+z
1/2+x,-y,1/2+z
1/2+x,1/2+y,z
1/2-x,1/2-y,z
1/2+x,1/2-y,-z
1/2-x,1/2+y,-z
1/2-x,1/2-y,-z
1/2+x,1/2+y,-z
1/2-x,1/2+y,z
1/2+x,1/2-y,z
loop_
_atom_site_type_symbol
_atom_site_label
_atom_site_fract_x
_atom_site_fract_y
_atom_site_fract_z
Si Si1 0.179697 0.046007 0.672261
Si Si2 0.180918 0.369653 0.671528
Si Si3 0.322806 0.294370 0.416337
O O1 0.250000 0.043130 0.750000
O O2 0.260328 0.086268 0.634170
O O3 0.000000 0.055452 0.677719
O O4 0.208997 0.000000 0.633725
O O5 0.250000 0.364156 0.750000
O O6 0.231702 0.331313 0.622297
O O7 0.000000 0.370519 0.677476
O O8 0.301851 0.301026 0.500000
O O9 0.500000 0.295207 0.393530
O O10 0.250000 0.250000 0.391543
#
# Coordination Sequence:
#
# PCOD8285250 Si02
#       3
#    32  32  32
#     4   9  16  27  45  70 101 135 170 208 252 301
#     4  11  21  33  52  78 108 138 172 213 256 301
#     4  10  21  38  58  78 102 133 170 210 255 309
#
# _framework density 18.655208999999999
#
# number of rings (size 3 to 8) (size 9 to 14) (size 15 to 20)
#    0.000    2.000    0.000    7.000    0.000    4.667 
#    0.000    3.333    0.000    1.000    0.000    7.000 
#    0.000    0.000    0.000    0.000    0.000    0.000 
#
# Total GULP energy -297450.245009 kJ/mol
# GULP energy per Si atom -12393.760209 kJ/mol
# Density = 1.861275 g / cm^3
# Si number density = 18.655209 Si / 1000 Ang^3
#
#
#
# Elastic Constant Matrix: (Units=GPa)
#
#
# Indices 1 2 3 4 5 6 
#
# 1 173.5356 88.4304 30.1683 0.0000 0.0000 0.0000
# 2 88.4304 200.4602 40.4633 0.0000 0.0000 0.0000
# 3 30.1683 40.4633 22.2036 0.0000 0.0000 0.0000
# 4 0.0000 0.0000 0.0000 -25.0622 0.0000 0.0000
# 5 0.0000 0.0000 0.0000 0.0000 22.5418 0.0000
# 6 0.0000 0.0000 0.0000 0.0000 0.0000 38.3352
#
#
#
# Elastic Compliance Matrix: (Units=1/GPa)
#
#
# Indices 1 2 3 4 5 6 
#
# 1 0.008083 -0.002134 -0.007094 0.000000 0.000000 0.000000
# 2 -0.002134 0.008455 -0.012508 0.000000 0.000000 0.000000
# 3 -0.007094 -0.012508 0.077471 0.000000 0.000000 0.000000
# 4 0.000000 0.000000 0.000000 -0.039901 0.000000 0.000000
# 5 0.000000 0.000000 0.000000 0.000000 0.044362 0.000000
# 6 0.000000 0.000000 0.000000 0.000000 0.000000 0.026086
#
#
# Mechanical properties :
#
#
# Convention : Reuss Voigt Hill
#
# Bulk Modulus (GPa) = 19.78754 79.36926 49.57840
# Shear Modulus (GPa) = 27.04545 22.97213 25.00879
#
# Velocity S-wave (km/s) = 3.81169 3.51295 3.66536
# Velocity P-wave (km/s) = 5.47741 7.68714 6.67436
#
# Compressibility (1/GPa) = 0.05053686
#
# Stress axis : x y z
#
# Youngs Moduli (GPa) = 123.71459 118.27801 12.90799
#
# Poissons Ratio (x) = 0.25238 0.09157
# Poissons Ratio (y) = 0.26399 0.16146
# Poissons Ratio (z) = 0.87763 1.47946
#
# Static dielectric constant tensor:
#      x y z
#    x 3.847550 0.000000 0.000000 
#    y 0.000000 4.502120 0.000000 
#    z 0.000000 0.000000 2.935980 
# 
# 
# High freq. dielectric constant tensor:
#      x y z
#    x 1.747750 0.000000 0.000000 
#    y 0.000000 1.757010 0.000000 
#    z 0.000000 0.000000 1.663970 
# 
# From -- ./inp_files/2808.got.cif
#   From: 2010.03.12/outbox.cif.g09.slc.cpg/sg69_2_cif.got.tgz:2808.got - 2010.04.10 23:52:46.
