data_PCOD8285966
_publ_section_title
;
Structure prediction by ZEFSAII (Michael W. Deem and Ramdas Pophale) SiO2 
 PCOD8285966
Probable space group: F D D D
;
_chemical_formula_sum "Si O2"
_cell_formula_units_Z 160
_cell_length_a 37.358689
_cell_length_b 26.878767
_cell_length_c 6.392003
_cell_angle_alpha 90.000000
_cell_angle_beta 90.000000
_cell_angle_gamma 90.000000
_cell_volume 6418.564950
_symmetry_space_group_name_H-M "F D D D"
_symmetry_group_IT_number 70
_space_group.IT_coordinate_system_code '2'
_symmetry_cell_setting 'orthorhombic'
loop_
_space_group_symop_operation_xyz
x,y,z
1/4-x,1/4-y,z
x,1/4-y,1/4-z
1/4-x,y,1/4-z
-x,-y,-z
3/4+x,3/4+y,-z
-x,3/4+y,3/4+z
3/4+x,-y,3/4+z
x,1/2+y,1/2+z
1/4-x,3/4-y,1/2+z
x,3/4-y,3/4-z
1/4-x,1/2+y,3/4-z
-x,1/2-y,1/2-z
3/4+x,1/4+y,1/2-z
-x,1/4+y,1/4+z
3/4+x,1/2-y,1/4+z
1/2+x,y,1/2+z
3/4-x,1/4-y,1/2+z
1/2+x,1/4-y,3/4-z
3/4-x,y,3/4-z
1/2-x,-y,1/2-z
1/4+x,3/4+y,1/2-z
1/2-x,3/4+y,1/4+z
1/4+x,-y,1/4+z
1/2+x,1/2+y,z
3/4-x,3/4-y,z
1/2+x,3/4-y,1/4-z
3/4-x,1/2+y,1/4-z
1/2-x,1/2-y,-z
1/4+x,1/4+y,-z
1/2-x,1/4+y,3/4+z
1/4+x,1/2-y,3/4+z
loop_
_atom_site_type_symbol
_atom_site_label
_atom_site_fract_x
_atom_site_fract_y
_atom_site_fract_z
Si Si1 0.060329 0.769255 0.448736
Si Si2 0.869996 0.566712 0.108700
Si Si3 0.024195 0.080533 0.327721
Si Si4 0.238380 0.185743 0.809929
Si Si5 0.545611 0.284545 0.967381
O O1 0.100828 0.788052 0.505568
O O2 0.057007 0.708348 0.460130
O O3 0.030077 0.795566 0.600026
O O4 0.052917 0.788035 0.214306
O O5 0.878191 0.625000 0.125000
O O6 0.875000 0.546708 0.875000
O O7 0.828748 0.555315 0.169790
O O8 0.011481 0.076165 0.565688
O O9 0.028859 0.140444 0.299079
O O10 0.991511 0.064315 0.174184
O O11 0.209622 0.228210 0.857873
#
# Coordination Sequence:
#
# PCOD8285966 Si02
#       5
#    32  32  32  32  32
#     4   8  15  24  38  64  89 114 151 184 217 279
#     4  10  20  30  45  65  95 122 148 186 239 281
#     4   8  13  23  41  63  85 115 151 185 222 267
#     4   8  13  22  42  61  88 114 149 185 225 267
#     4   8  15  26  37  62  90 115 143 191 227 264
#
# _framework density 24.927692
#
# number of rings (size 3 to 8) (size 9 to 14) (size 15 to 20)
#    0.000    3.600    0.000    2.400    8.400    0.000 
#    0.000    1.000    0.000    7.200    0.000    0.000 
#    0.000    1.600    0.000    0.000    0.000    0.000 
#
# Total GULP energy -495656.611759 kJ/mol
# GULP energy per Si atom -12391.415294 kJ/mol
# Density = 2.487096 g / cm^3
# Si number density = 24.927692 Si / 1000 Ang^3
#
#
#
# Elastic Constant Matrix: (Units=GPa)
#
#
# Indices 1 2 3 4 5 6 
#
# 1 166.9279 93.0216 19.0770 0.0030 0.0016 -0.0060
# 2 93.0216 213.6137 6.4758 0.1367 0.0026 -0.0574
# 3 19.0770 6.4758 75.8029 0.2208 -0.0162 -0.2061
# 4 0.0030 0.1367 0.2208 22.9692 -0.0059 -0.1210
# 5 0.0016 0.0026 -0.0162 -0.0059 25.7395 -0.0559
# 6 -0.0060 -0.0574 -0.2061 -0.1210 -0.0559 -3.8090
#
#
#
# Elastic Compliance Matrix: (Units=1/GPa)
#
#
# Indices 1 2 3 4 5 6 
#
# 1 0.008135 -0.003490 -0.001749 0.000037 -0.000001 0.000133
# 2 -0.003490 0.006190 0.000349 -0.000040 0.000000 -0.000105
# 3 -0.001749 0.000349 0.013601 -0.000136 0.000007 -0.000734
# 4 0.000037 -0.000040 -0.000136 0.043531 0.000007 -0.001375
# 5 -0.000001 0.000000 0.000007 0.000007 0.038850 -0.000571
# 6 0.000133 -0.000105 -0.000734 -0.001375 -0.000571 -0.262446
#
#
# Mechanical properties :
#
#
# Convention : Reuss Voigt Hill
#
# Bulk Modulus (GPa) = 55.10356 77.05481 66.07919
# Shear Modulus (GPa) = -36.68071 31.49794 -2.59139
#
# Velocity S-wave (km/s) = -3.84016 3.55853 -1.02069
# Velocity P-wave (km/s) = 1.57828 6.91828 5.01765
#
# Compressibility (1/GPa) = 0.01814765
#
# Stress axis : x y z
#
# Youngs Moduli (GPa) = 122.92499 161.54240 73.52493
#
# Poissons Ratio (x) = 0.56370 0.12859
# Poissons Ratio (y) = 0.42895 -0.02567
# Poissons Ratio (z) = 0.21499 -0.05641
#
# Static dielectric constant tensor:
#      x y z
#    x 4.596450 0.000050 0.000270 
#    y 0.000050 4.917690 -0.000660 
#    z 0.000270 -0.000660 4.673290 
# 
# 
# High freq. dielectric constant tensor:
#      x y z
#    x 1.957900 0.000000 0.000000 
#    y 0.000000 1.981110 -0.000020 
#    z 0.000000 -0.000020 2.084170 
# 
# From -- ./inp_files/22375.got.cif
#   From: 2010.03.12/outbox.cif.g09.slc.cpg/sg70_12_cif.got.tgz:22375.got - 2010.04.16 13:46:32.
