data_PCOD8285269
_publ_section_title
;
Structure prediction by ZEFSAII (Michael W. Deem and Ramdas Pophale) SiO2 
 PCOD8285269
Probable space group: F M M M
;
_chemical_formula_sum "Si O2"
_cell_formula_units_Z 208
_cell_length_a 17.872911
_cell_length_b 21.050394
_cell_length_c 28.872006
_cell_angle_alpha 90.000000
_cell_angle_beta 90.000000
_cell_angle_gamma 90.000000
_cell_volume 10862.567320
_symmetry_space_group_name_H-M "F M M M"
_symmetry_group_IT_number 69
_symmetry_cell_setting 'orthorhombic'
loop_
_space_group_symop_operation_xyz
x,y,z
-x,-y,z
x,-y,-z
-x,y,-z
-x,-y,-z
x,y,-z
-x,y,z
x,-y,z
x,1/2+y,1/2+z
-x,1/2-y,1/2+z
x,1/2-y,1/2-z
-x,1/2+y,1/2-z
-x,1/2-y,1/2-z
x,1/2+y,1/2-z
-x,1/2+y,1/2+z
x,1/2-y,1/2+z
1/2+x,y,1/2+z
1/2-x,-y,1/2+z
1/2+x,-y,1/2-z
1/2-x,y,1/2-z
1/2-x,-y,1/2-z
1/2+x,y,1/2-z
1/2-x,y,1/2+z
1/2+x,-y,1/2+z
1/2+x,1/2+y,z
1/2-x,1/2-y,z
1/2+x,1/2-y,-z
1/2-x,1/2+y,-z
1/2-x,1/2-y,-z
1/2+x,1/2+y,-z
1/2-x,1/2+y,z
1/2+x,1/2-y,z
loop_
_atom_site_type_symbol
_atom_site_label
_atom_site_fract_x
_atom_site_fract_y
_atom_site_fract_z
Si Si1 0.913067 0.928810 0.716376
Si Si2 0.165359 0.768815 0.865646
Si Si3 0.195324 0.072393 0.553917
Si Si4 0.350312 0.638561 0.053975
Si Si5 0.413288 0.360666 0.622310
Si Si6 0.165504 0.316875 0.731847
Si Si7 0.000000 0.569584 0.445210
O O1 0.898148 0.910027 0.663350
O O2 0.875518 0.879224 0.750619
O O3 0.000000 0.927447 0.727643
O O4 0.880748 0.000000 0.724176
O O5 0.250000 0.750000 0.859715
O O6 0.154080 0.797752 0.916359
O O7 0.110472 0.709001 0.860588
O O8 0.153003 0.818356 0.823655
O O9 0.177731 0.078785 0.500000
O O10 0.280093 0.093385 0.564603
O O11 0.136645 0.117988 0.579070
O O12 0.185864 0.000000 0.570721
O O13 0.425403 0.604549 0.071317
O O14 0.353796 0.657720 0.000000
O O15 0.500000 0.359908 0.607336
O O16 0.130685 0.250000 0.750000
O O17 0.250000 0.321010 0.750000
O O18 0.000000 0.500000 0.422519
O O19 0.000000 0.563950 0.500000
#
# Coordination Sequence:
#
# PCOD8285269 Si02
#       7
#    32  32  32  32  32  32  16
#     4  10  22  41  63  88 121 159 201 251 304 361
#     4  12  22  39  62  87 120 157 200 249 306 364
#     4  10  21  38  60  86 118 158 204 252 304 360
#     4  10  22  38  61  92 123 158 199 249 304 362
#     4  11  23  38  59  87 118 163 207 246 302 364
#     4  11  21  39  64  90 117 157 203 251 300 360
#     4   9  18  38  64  88 121 162 201 245 302 369
#
# _framework density 19.148326999999998
#
# number of rings (size 3 to 8) (size 9 to 14) (size 15 to 20)
#    0.000    1.462    4.615    0.923    1.077    5.231 
#    0.000    2.308    0.000    0.000    0.000    0.000 
#    0.000    0.000    0.000    0.000    0.000    0.000 
#
# Total GULP energy -644799.272140 kJ/mol
# GULP energy per Si atom -12399.986003 kJ/mol
# Density = 1.910475 g / cm^3
# Si number density = 19.148327 Si / 1000 Ang^3
#
#
#
# Elastic Constant Matrix: (Units=GPa)
#
#
# Indices 1 2 3 4 5 6 
#
# 1 100.6172 36.9402 52.9377 0.0000 0.0000 0.0000
# 2 36.9402 118.5161 59.1414 0.0000 0.0000 0.0000
# 3 52.9377 59.1414 90.4815 0.0000 0.0000 0.0000
# 4 0.0000 0.0000 0.0000 41.2111 0.0000 0.0000
# 5 0.0000 0.0000 0.0000 0.0000 26.8474 0.0000
# 6 0.0000 0.0000 0.0000 0.0000 0.0000 -25.7917
#
#
#
# Elastic Compliance Matrix: (Units=1/GPa)
#
#
# Indices 1 2 3 4 5 6 
#
# 1 0.014373 -0.000421 -0.008134 0.000000 0.000000 0.000000
# 2 -0.000421 0.012534 -0.007947 0.000000 0.000000 0.000000
# 3 -0.008134 -0.007947 0.021005 0.000000 0.000000 0.000000
# 4 0.000000 0.000000 0.000000 0.024265 0.000000 0.000000
# 5 0.000000 0.000000 0.000000 0.000000 0.037248 0.000000
# 6 0.000000 0.000000 0.000000 0.000000 0.000000 -0.038772
#
#
# Mechanical properties :
#
#
# Convention : Reuss Voigt Hill
#
# Bulk Modulus (GPa) = 67.07220 67.51707 67.29463
# Shear Modulus (GPa) = 46.02997 19.15974 32.59485
#
# Velocity S-wave (km/s) = 4.90824 3.16665 4.13028
# Velocity P-wave (km/s) = 8.19908 6.97903 7.61353
#
# Compressibility (1/GPa) = 0.01490931
#
# Stress axis : x y z
#
# Youngs Moduli (GPa) = 69.57665 79.78099 47.60783
#
# Poissons Ratio (x) = 0.03358 0.38724
# Poissons Ratio (y) = 0.02928 0.37832
# Poissons Ratio (z) = 0.56593 0.63399
#
# Static dielectric constant tensor:
#      x y z
#    x 3.552380 0.000000 0.000000 
#    y 0.000000 3.555300 0.000000 
#    z 0.000000 0.000000 3.474940 
# 
# 
# High freq. dielectric constant tensor:
#      x y z
#    x 1.747380 0.000000 0.000000 
#    y 0.000000 1.748500 0.000000 
#    z 0.000000 0.000000 1.740730 
# 
# From -- ./inp_files/42037.got.cif
#   From: 2010.03.12/outbox.cif.g09.slc.cpg/sg69_22_cif.got.tgz:42037.got - 2010.04.10 23:52:46.
