data_PCOD8285465
_publ_section_title
;
Structure prediction by ZEFSAII (Michael W. Deem and Ramdas Pophale) SiO2 
 PCOD8285465
Probable space group: F M M M
;
_chemical_formula_sum "Si O2"
_cell_formula_units_Z 96
_cell_length_a 34.354911
_cell_length_b 8.878314
_cell_length_c 15.624257
_cell_angle_alpha 90.000000
_cell_angle_beta 90.000000
_cell_angle_gamma 90.000000
_cell_volume 4765.612239
_symmetry_space_group_name_H-M "F M M M"
_symmetry_group_IT_number 69
_symmetry_cell_setting 'orthorhombic'
loop_
_space_group_symop_operation_xyz
x,y,z
-x,-y,z
x,-y,-z
-x,y,-z
-x,-y,-z
x,y,-z
-x,y,z
x,-y,z
x,1/2+y,1/2+z
-x,1/2-y,1/2+z
x,1/2-y,1/2-z
-x,1/2+y,1/2-z
-x,1/2-y,1/2-z
x,1/2+y,1/2-z
-x,1/2+y,1/2+z
x,1/2-y,1/2+z
1/2+x,y,1/2+z
1/2-x,-y,1/2+z
1/2+x,-y,1/2-z
1/2-x,y,1/2-z
1/2-x,-y,1/2-z
1/2+x,y,1/2-z
1/2-x,y,1/2+z
1/2+x,-y,1/2+z
1/2+x,1/2+y,z
1/2-x,1/2-y,z
1/2+x,1/2-y,-z
1/2-x,1/2+y,-z
1/2-x,1/2-y,-z
1/2+x,1/2+y,-z
1/2-x,1/2+y,z
1/2+x,1/2-y,z
loop_
_atom_site_type_symbol
_atom_site_label
_atom_site_fract_x
_atom_site_fract_y
_atom_site_fract_z
Si Si1 0.415980 0.179121 0.598681
Si Si2 0.500000 0.165031 0.601403
Si Si3 0.840428 0.178143 0.335957
Si Si4 0.708000 0.321905 0.500000
O O1 0.408106 0.220054 0.500000
O O2 0.458941 0.243145 0.627557
O O3 0.384512 0.264039 0.655678
O O4 0.413423 0.000000 0.612783
O O5 0.500000 0.146297 0.500000
O O6 0.500000 0.000000 0.643499
O O7 0.822173 0.250000 0.250000
O O8 0.814981 0.234333 0.416173
O O9 0.840263 0.000000 0.328193
O O10 0.712182 0.500000 0.500000
O O11 0.750000 0.250000 0.500000
#
# Coordination Sequence:
#
# PCOD8285465 Si02
#       4
#    32  16  32  16
#     4   9  16  30  55  84 115 155 197 240 289 341
#     4   7  12  24  46  79 114 148 194 242 284 333
#     4  11  23  40  60  88 121 154 193 239 287 342
#     4  10  24  44  66  89 118 149 185 234 289 348
#
# _framework density 20.144316
#
# number of rings (size 3 to 8) (size 9 to 14) (size 15 to 20)
#    0.000    2.500    1.667    3.000    0.000    3.333 
#    0.000    5.000    0.000    3.000    0.000    0.000 
#    0.000    0.000    0.000    0.000    0.000    0.000 
#
# Total GULP energy -297427.774047 kJ/mol
# GULP energy per Si atom -12392.823919 kJ/mol
# Density = 2.009847 g / cm^3
# Si number density = 20.144316 Si / 1000 Ang^3
#
#
#
# Elastic Constant Matrix: (Units=GPa)
#
#
# Indices 1 2 3 4 5 6 
#
# 1 152.6305 34.7018 66.5387 0.0000 0.0000 0.0000
# 2 34.7018 46.3721 39.2791 0.0000 0.0000 0.0000
# 3 66.5387 39.2791 132.0878 0.0000 0.0000 0.0000
# 4 0.0000 0.0000 0.0000 26.7628 0.0000 0.0000
# 5 0.0000 0.0000 0.0000 0.0000 10.0378 0.0000
# 6 0.0000 0.0000 0.0000 0.0000 0.0000 29.0936
#
#
#
# Elastic Compliance Matrix: (Units=1/GPa)
#
#
# Indices 1 2 3 4 5 6 
#
# 1 0.008873 -0.003815 -0.003335 0.000000 0.000000 0.000000
# 2 -0.003815 0.030466 -0.007138 0.000000 0.000000 0.000000
# 3 -0.003335 -0.007138 0.011373 0.000000 0.000000 0.000000
# 4 0.000000 0.000000 0.000000 0.037365 0.000000 0.000000
# 5 0.000000 0.000000 0.000000 0.000000 0.099624 0.000000
# 6 0.000000 0.000000 0.000000 0.000000 0.000000 0.034372
#
#
# Mechanical properties :
#
#
# Convention : Reuss Voigt Hill
#
# Bulk Modulus (GPa) = 45.17530 68.01442 56.59486
# Shear Modulus (GPa) = 19.37774 25.88354 22.63064
#
# Velocity S-wave (km/s) = 3.10489 3.58845 3.35539
# Velocity P-wave (km/s) = 5.94376 7.14186 6.57018
#
# Compressibility (1/GPa) = 0.02213599
#
# Stress axis : x y z
#
# Youngs Moduli (GPa) = 112.69939 32.82395 87.92373
#
# Poissons Ratio (x) = 0.12522 0.29326
# Poissons Ratio (y) = 0.42994 0.62759
# Poissons Ratio (z) = 0.37590 0.23429
#
# Static dielectric constant tensor:
#      x y z
#    x 3.896970 0.000000 0.000000 
#    y 0.000000 3.293640 0.000000 
#    z 0.000000 0.000000 3.671730 
# 
# 
# High freq. dielectric constant tensor:
#      x y z
#    x 1.795730 0.000000 0.000000 
#    y 0.000000 1.756430 0.000000 
#    z 0.000000 0.000000 1.777480 
# 
# From -- ./inp_files/19162.got.cif
#   From: 2010.03.12/outbox.cif.g09.slc.cpg/sg69_10_cif.got.tgz:19162.got - 2010.04.10 23:52:46.
