data_PCOD8285519
_publ_section_title
;
Structure prediction by ZEFSAII (Michael W. Deem and Ramdas Pophale) SiO2 
 PCOD8285519
Probable space group: F M M M
;
_chemical_formula_sum "Si O2"
_cell_formula_units_Z 128
_cell_length_a 26.807200
_cell_length_b 17.794938
_cell_length_c 14.849243
_cell_angle_alpha 90.000000
_cell_angle_beta 90.000000
_cell_angle_gamma 90.000000
_cell_volume 7083.570946
_symmetry_space_group_name_H-M "F M M M"
_symmetry_group_IT_number 69
_symmetry_cell_setting 'orthorhombic'
loop_
_space_group_symop_operation_xyz
x,y,z
-x,-y,z
x,-y,-z
-x,y,-z
-x,-y,-z
x,y,-z
-x,y,z
x,-y,z
x,1/2+y,1/2+z
-x,1/2-y,1/2+z
x,1/2-y,1/2-z
-x,1/2+y,1/2-z
-x,1/2-y,1/2-z
x,1/2+y,1/2-z
-x,1/2+y,1/2+z
x,1/2-y,1/2+z
1/2+x,y,1/2+z
1/2-x,-y,1/2+z
1/2+x,-y,1/2-z
1/2-x,y,1/2-z
1/2-x,-y,1/2-z
1/2+x,y,1/2-z
1/2-x,y,1/2+z
1/2+x,-y,1/2+z
1/2+x,1/2+y,z
1/2-x,1/2-y,z
1/2+x,1/2-y,-z
1/2-x,1/2+y,-z
1/2-x,1/2-y,-z
1/2+x,1/2+y,-z
1/2-x,1/2+y,z
1/2+x,1/2-y,z
loop_
_atom_site_type_symbol
_atom_site_label
_atom_site_fract_x
_atom_site_fract_y
_atom_site_fract_z
Si Si1 0.558439 0.086230 0.602655
Si Si2 0.635025 0.663280 0.773539
Si Si3 0.726399 0.582219 0.846126
Si Si4 0.669807 0.411602 0.597679
O O1 0.573522 0.106838 0.500000
O O2 0.500000 0.098125 0.616321
O O3 0.585085 0.141111 0.673615
O O4 0.573268 0.000000 0.622992
O O5 0.636450 0.750000 0.750000
O O6 0.680725 0.640568 0.839741
O O7 0.636770 0.622672 0.677017
O O8 0.707662 0.500000 0.882357
O O9 0.750000 0.568954 0.750000
O O10 0.772067 0.615948 0.904825
O O11 0.646373 0.390609 0.500000
O O12 0.670183 0.500000 0.614022
#
# Coordination Sequence:
#
# PCOD8285519 Si02
#       4
#    32  32  32  32
#     4   9  19  37  59  78  95 123 169 219 258 295
#     4  11  21  31  49  77 108 135 161 200 259 317
#     4   8  15  29  46  65  93 132 174 204 226 267
#     4   9  18  33  52  73 100 137 178 213 244 287
#
# _framework density 18.069982
#
# number of rings (size 3 to 8) (size 9 to 14) (size 15 to 20)
#    0.000    2.750    0.000    4.500    0.000    7.000 
#    0.000    3.750    0.000    0.750    0.000    3.500 
#    0.000    0.000    0.000    0.000    0.000    0.000 
#
# Total GULP energy -396481.281780 kJ/mol
# GULP energy per Si atom -12390.040056 kJ/mol
# Density = 1.802885 g / cm^3
# Si number density = 18.069982 Si / 1000 Ang^3
#
#
#
# Elastic Constant Matrix: (Units=GPa)
#
#
# Indices 1 2 3 4 5 6 
#
# 1 73.2249 44.1688 44.3898 0.0000 0.0000 0.0000
# 2 44.1688 90.9743 42.5363 0.0000 0.0000 0.0000
# 3 44.3898 42.5363 113.2289 0.0000 0.0000 0.0000
# 4 0.0000 0.0000 0.0000 13.8632 0.0000 0.0000
# 5 0.0000 0.0000 0.0000 0.0000 28.8608 0.0000
# 6 0.0000 0.0000 0.0000 0.0000 0.0000 17.6336
#
#
#
# Elastic Compliance Matrix: (Units=1/GPa)
#
#
# Indices 1 2 3 4 5 6 
#
# 1 0.021861 -0.008014 -0.005560 0.000000 0.000000 0.000000
# 2 -0.008014 0.016272 -0.002971 0.000000 0.000000 0.000000
# 3 -0.005560 -0.002971 0.012127 0.000000 0.000000 0.000000
# 4 0.000000 0.000000 0.000000 0.072134 0.000000 0.000000
# 5 0.000000 0.000000 0.000000 0.000000 0.034649 0.000000
# 6 0.000000 0.000000 0.000000 0.000000 0.000000 0.056710
#
#
# Mechanical properties :
#
#
# Convention : Reuss Voigt Hill
#
# Bulk Modulus (GPa) = 58.23846 59.95754 59.09800
# Shear Modulus (GPa) = 19.79676 21.82707 20.81191
#
# Velocity S-wave (km/s) = 3.31352 3.47928 3.39741
# Velocity P-wave (km/s) = 6.85117 7.02804 6.94017
#
# Compressibility (1/GPa) = 0.01717078
#
# Stress axis : x y z
#
# Youngs Moduli (GPa) = 45.74357 61.45420 82.45810
#
# Poissons Ratio (x) = 0.49251 0.45843
# Poissons Ratio (y) = 0.36660 0.24499
# Poissons Ratio (z) = 0.25432 0.18259
#
# Static dielectric constant tensor:
#      x y z
#    x 3.278810 0.000000 0.000000 
#    y 0.000000 3.140890 0.000000 
#    z 0.000000 0.000000 6.442480 
# 
# 
# High freq. dielectric constant tensor:
#      x y z
#    x 1.675390 0.000000 0.000000 
#    y 0.000000 1.678220 0.000000 
#    z 0.000000 0.000000 1.702770 
# 
# From -- ./inp_files/25516.got.cif
#   From: 2010.03.12/outbox.cif.g09.slc.cpg/sg69_13_cif.got.tgz:25516.got - 2010.04.10 23:52:46.
