data_PCOD8285604
_publ_section_title
;
Structure prediction by ZEFSAII (Michael W. Deem and Ramdas Pophale) SiO2 
 PCOD8285604
Probable space group: F M M M
;
_chemical_formula_sum "Si O2"
_cell_formula_units_Z 160
_cell_length_a 14.506510
_cell_length_b 19.019943
_cell_length_c 27.961689
_cell_angle_alpha 90.000000
_cell_angle_beta 90.000000
_cell_angle_gamma 90.000000
_cell_volume 7714.993311
_symmetry_space_group_name_H-M "F M M M"
_symmetry_group_IT_number 69
_symmetry_cell_setting 'orthorhombic'
loop_
_space_group_symop_operation_xyz
x,y,z
-x,-y,z
x,-y,-z
-x,y,-z
-x,-y,-z
x,y,-z
-x,y,z
x,-y,z
x,1/2+y,1/2+z
-x,1/2-y,1/2+z
x,1/2-y,1/2-z
-x,1/2+y,1/2-z
-x,1/2-y,1/2-z
x,1/2+y,1/2-z
-x,1/2+y,1/2+z
x,1/2-y,1/2+z
1/2+x,y,1/2+z
1/2-x,-y,1/2+z
1/2+x,-y,1/2-z
1/2-x,y,1/2-z
1/2-x,-y,1/2-z
1/2+x,y,1/2-z
1/2-x,y,1/2+z
1/2+x,-y,1/2+z
1/2+x,1/2+y,z
1/2-x,1/2-y,z
1/2+x,1/2-y,-z
1/2-x,1/2+y,-z
1/2-x,1/2-y,-z
1/2+x,1/2+y,-z
1/2-x,1/2+y,z
1/2+x,1/2-y,z
loop_
_atom_site_type_symbol
_atom_site_label
_atom_site_fract_x
_atom_site_fract_y
_atom_site_fract_z
Si Si1 0.816463 0.577454 0.394274
Si Si2 0.500000 0.229038 0.054856
Si Si3 0.609618 0.419771 0.691212
Si Si4 0.101000 0.917375 0.797425
Si Si5 0.000000 0.394638 0.446356
Si Si6 0.317930 0.185165 0.111863
O O1 0.772362 0.500000 0.393913
O O2 0.831531 0.607562 0.339906
O O3 0.744971 0.631145 0.419401
O O4 0.911940 0.573187 0.421321
O O5 0.500000 0.311710 0.056535
O O6 0.407471 0.204402 0.081359
O O7 0.500000 0.201378 0.000000
O O8 0.500000 0.417572 0.687782
O O9 0.642960 0.500000 0.678393
O O10 0.641685 0.399969 0.745115
O O11 0.652004 0.359605 0.658065
O O12 0.000000 0.881469 0.804007
O O13 0.087734 0.000000 0.802762
O O14 0.000000 0.422176 0.500000
O O15 0.250000 0.250000 0.125060
#
# Coordination Sequence:
#
# PCOD8285604 Si02
#       6
#    32  16  32  32  16  32
#     4  11  22  38  64  98 133 164 204 259 314 371
#     4  11  26  49  70  87 118 166 213 257 314 387
#     4   9  18  36  64  93 126 169 214 252 295 359
#     4   8  15  31  58  91 128 173 210 242 297 367
#     4  11  23  42  68  93 123 161 202 265 332 376
#     4  12  24  41  66  94 125 161 211 255 310 376
#
# _framework density 20.738837
#
# number of rings (size 3 to 8) (size 9 to 14) (size 15 to 20)
#    0.000    1.800    4.000    2.100    0.000    2.800 
#    0.000    5.000    0.000    7.800    0.000    0.000 
#    0.000    0.000    0.000    0.000    0.000    0.000 
#
# Total GULP energy -495565.168554 kJ/mol
# GULP energy per Si atom -12389.129214 kJ/mol
# Density = 2.069163 g / cm^3
# Si number density = 20.738837 Si / 1000 Ang^3
#
#
#
# Elastic Constant Matrix: (Units=GPa)
#
#
# Indices 1 2 3 4 5 6 
#
# 1 107.9975 52.2387 42.4227 0.0000 0.0000 0.0000
# 2 52.2387 112.1516 49.6213 0.0000 0.0000 0.0000
# 3 42.4227 49.6213 113.6080 0.0000 0.0000 0.0000
# 4 0.0000 0.0000 0.0000 25.0322 0.0000 0.0000
# 5 0.0000 0.0000 0.0000 0.0000 178.6592 0.0000
# 6 0.0000 0.0000 0.0000 0.0000 0.0000 38.8844
#
#
#
# Elastic Compliance Matrix: (Units=1/GPa)
#
#
# Indices 1 2 3 4 5 6 
#
# 1 0.012563 -0.004681 -0.002647 0.000000 0.000000 0.000000
# 2 -0.004681 0.012796 -0.003841 0.000000 0.000000 0.000000
# 3 -0.002647 -0.003841 0.011468 0.000000 0.000000 0.000000
# 4 0.000000 0.000000 0.000000 0.039949 0.000000 0.000000
# 5 0.000000 0.000000 0.000000 0.000000 0.005597 0.000000
# 6 0.000000 0.000000 0.000000 0.000000 0.000000 0.025717
#
#
# Mechanical properties :
#
#
# Convention : Reuss Voigt Hill
#
# Bulk Modulus (GPa) = 69.01213 69.14693 69.07953
# Shear Modulus (GPa) = 36.96621 61.14679 49.05650
#
# Velocity S-wave (km/s) = 4.22650 5.43583 4.86886
# Velocity P-wave (km/s) = 7.56087 8.53298 8.06159
#
# Compressibility (1/GPa) = 0.01449021
#
# Stress axis : x y z
#
# Youngs Moduli (GPa) = 79.59718 78.14773 87.19647
#
# Poissons Ratio (x) = 0.36579 0.23080
# Poissons Ratio (y) = 0.37257 0.33495
# Poissons Ratio (z) = 0.21068 0.30019
#
# Static dielectric constant tensor:
#      x y z
#    x 4.051050 0.000000 0.000000 
#    y 0.000000 3.691180 0.000000 
#    z 0.000000 0.000000 3.947720 
# 
# 
# High freq. dielectric constant tensor:
#      x y z
#    x 1.832680 0.000000 0.000000 
#    y 0.000000 1.798680 0.000000 
#    z 0.000000 0.000000 1.796530 
# 
# From -- ./inp_files/45677.got.cif
#   From: 2010.03.12/outbox.cif.g09.slc.cpg/sg69_23_cif.got.tgz:45677.got - 2010.04.10 23:52:46.
