data_PCOD8285505
_publ_section_title
;
Structure prediction by ZEFSAII (Michael W. Deem and Ramdas Pophale) SiO2 
 PCOD8285505
Probable space group: F M M M
;
_chemical_formula_sum "Si O2"
_cell_formula_units_Z 144
_cell_length_a 18.146452
_cell_length_b 15.253441
_cell_length_c 25.158475
_cell_angle_alpha 90.000000
_cell_angle_beta 90.000000
_cell_angle_gamma 90.000000
_cell_volume 6963.761093
_symmetry_space_group_name_H-M "F M M M"
_symmetry_group_IT_number 69
_symmetry_cell_setting 'orthorhombic'
loop_
_space_group_symop_operation_xyz
x,y,z
-x,-y,z
x,-y,-z
-x,y,-z
-x,-y,-z
x,y,-z
-x,y,z
x,-y,z
x,1/2+y,1/2+z
-x,1/2-y,1/2+z
x,1/2-y,1/2-z
-x,1/2+y,1/2-z
-x,1/2-y,1/2-z
x,1/2+y,1/2-z
-x,1/2+y,1/2+z
x,1/2-y,1/2+z
1/2+x,y,1/2+z
1/2-x,-y,1/2+z
1/2+x,-y,1/2-z
1/2-x,y,1/2-z
1/2-x,-y,1/2-z
1/2+x,y,1/2-z
1/2-x,y,1/2+z
1/2+x,-y,1/2+z
1/2+x,1/2+y,z
1/2-x,1/2-y,z
1/2+x,1/2-y,-z
1/2-x,1/2+y,-z
1/2-x,1/2-y,-z
1/2+x,1/2+y,-z
1/2-x,1/2+y,z
1/2+x,1/2-y,z
loop_
_atom_site_type_symbol
_atom_site_label
_atom_site_fract_x
_atom_site_fract_y
_atom_site_fract_z
Si Si1 0.585659 0.402671 0.000000
Si Si2 0.586577 0.500000 0.297529
Si Si3 0.412853 0.153586 0.875527
Si Si4 0.142778 0.659951 0.610210
Si Si5 0.412250 0.500000 0.178352
Si Si6 0.783168 0.101431 0.439613
O O1 0.606892 0.349174 0.947789
O O2 0.623549 0.500000 0.000000
O O3 0.500000 0.416681 0.000000
O O4 0.500000 0.500000 0.292737
O O5 0.611127 0.411559 0.327938
O O6 0.619774 0.500000 0.238327
O O7 0.500000 0.149767 0.887120
O O8 0.385505 0.251273 0.861822
O O9 0.368742 0.122173 0.927874
O O10 0.117920 0.584878 0.649601
O O11 0.231052 0.656812 0.600540
O O12 0.500000 0.500000 0.176197
O O13 0.765450 0.128962 0.500000
O O14 0.765968 0.000000 0.430543
#
# Coordination Sequence:
#
# PCOD8285505 Si02
#       6
#    16  16  32  32  16  32
#     4  11  20  34  57  89 136 170 199 249 313 391
#     4   9  22  45  66  89 127 173 222 276 320 364
#     4  11  24  43  66  93 129 172 222 270 315 378
#     4  12  23  39  63 100 134 166 209 262 331 389
#     4  11  22  40  68  97 128 171 219 269 328 385
#     4  11  23  42  65  92 132 178 212 259 322 388
#
# _framework density 20.678481999999999
#
# number of rings (size 3 to 8) (size 9 to 14) (size 15 to 20)
#    0.000    1.000    4.444    2.667    1.556    2.222 
#    0.000    6.667    0.000    2.667    0.000    0.000 
#    0.000    0.000    0.000    0.000    0.000    0.000 
#
# Total GULP energy -446354.023113 kJ/mol
# GULP energy per Si atom -12398.722864 kJ/mol
# Density = 2.063142 g / cm^3
# Si number density = 20.678482 Si / 1000 Ang^3
#
#
#
# Elastic Constant Matrix: (Units=GPa)
#
#
# Indices 1 2 3 4 5 6 
#
# 1 123.9750 43.2346 47.4627 0.0000 0.0000 0.0000
# 2 43.2346 163.1018 86.5489 0.0000 0.0000 0.0000
# 3 47.4627 86.5489 116.7806 0.0000 0.0000 0.0000
# 4 0.0000 0.0000 0.0000 0.4798 0.0000 0.0000
# 5 0.0000 0.0000 0.0000 0.0000 27.4717 0.0000
# 6 0.0000 0.0000 0.0000 0.0000 0.0000 32.0694
#
#
#
# Elastic Compliance Matrix: (Units=1/GPa)
#
#
# Indices 1 2 3 4 5 6 
#
# 1 0.009613 -0.000783 -0.003327 0.000000 0.000000 0.000000
# 2 -0.000783 0.010169 -0.007218 0.000000 0.000000 0.000000
# 3 -0.003327 -0.007218 0.015265 0.000000 0.000000 0.000000
# 4 0.000000 0.000000 0.000000 2.084304 0.000000 0.000000
# 5 0.000000 0.000000 0.000000 0.000000 0.036401 0.000000
# 6 0.000000 0.000000 0.000000 0.000000 0.000000 0.031182
#
#
# Mechanical properties :
#
#
# Convention : Reuss Voigt Hill
#
# Bulk Modulus (GPa) = 80.70483 84.26109 82.48296
# Shear Modulus (GPa) = 2.25864 27.11158 14.68511
#
# Velocity S-wave (km/s) = 1.04625 3.62484 2.66778
# Velocity P-wave (km/s) = 6.36967 7.63911 7.03309
#
# Compressibility (1/GPa) = 0.01239083
#
# Stress axis : x y z
#
# Youngs Moduli (GPa) = 104.02864 98.33787 65.51017
#
# Poissons Ratio (x) = 0.07698 0.21793
# Poissons Ratio (y) = 0.08144 0.47287
# Poissons Ratio (z) = 0.34607 0.70984
#
# Static dielectric constant tensor:
#      x y z
#    x 3.881040 0.000000 0.000000 
#    y 0.000000 3.959260 0.000000 
#    z 0.000000 0.000000 3.767890 
# 
# 
# High freq. dielectric constant tensor:
#      x y z
#    x 1.816920 0.000000 0.000000 
#    y 0.000000 1.823320 0.000000 
#    z 0.000000 0.000000 1.788140 
# 
# From -- ./inp_files/46192.got.cif
#   From: 2010.03.12/outbox.cif.g09.slc.cpg/sg69_24_cif.got.tgz:46192.got - 2010.04.10 23:52:46.
