data_PCOD8285053
_publ_section_title
;
Structure prediction by ZEFSAII (Michael W. Deem and Ramdas Pophale) SiO2 
 PCOD8285053
Probable space group: F M M M
;
_chemical_formula_sum "Si O2"
_cell_formula_units_Z 160
_cell_length_a 14.628594
_cell_length_b 23.144746
_cell_length_c 23.797342
_cell_angle_alpha 90.000000
_cell_angle_beta 90.000000
_cell_angle_gamma 90.000000
_cell_volume 8057.187268
_symmetry_space_group_name_H-M "F M M M"
_symmetry_group_IT_number 69
_symmetry_cell_setting 'orthorhombic'
loop_
_space_group_symop_operation_xyz
x,y,z
-x,-y,z
x,-y,-z
-x,y,-z
-x,-y,-z
x,y,-z
-x,y,z
x,-y,z
x,1/2+y,1/2+z
-x,1/2-y,1/2+z
x,1/2-y,1/2-z
-x,1/2+y,1/2-z
-x,1/2-y,1/2-z
x,1/2+y,1/2-z
-x,1/2+y,1/2+z
x,1/2-y,1/2+z
1/2+x,y,1/2+z
1/2-x,-y,1/2+z
1/2+x,-y,1/2-z
1/2-x,y,1/2-z
1/2-x,-y,1/2-z
1/2+x,y,1/2-z
1/2-x,y,1/2+z
1/2+x,-y,1/2+z
1/2+x,1/2+y,z
1/2-x,1/2-y,z
1/2+x,1/2-y,-z
1/2-x,1/2+y,-z
1/2-x,1/2-y,-z
1/2+x,1/2+y,-z
1/2-x,1/2+y,z
1/2+x,1/2-y,z
loop_
_atom_site_type_symbol
_atom_site_label
_atom_site_fract_x
_atom_site_fract_y
_atom_site_fract_z
Si Si1 0.391792 0.936466 0.252787
Si Si2 0.391865 0.124939 0.859704
Si Si3 0.247322 0.432964 0.433639
Si Si4 0.392587 0.753985 0.186687
Si Si5 0.607621 0.132103 0.360116
O O1 0.500000 0.937434 0.254317
O O2 0.359195 0.911321 0.193939
O O3 0.355789 0.897671 0.303458
O O4 0.349931 0.000000 0.259917
O O5 0.500000 0.121157 0.871301
O O6 0.340272 0.097502 0.912633
O O7 0.357748 0.190207 0.847562
O O8 0.246801 0.428453 0.500000
O O9 0.242362 0.500000 0.414329
O O10 0.159961 0.397040 0.411792
O O11 0.500000 0.759909 0.195000
O O12 0.350010 0.750000 0.250000
O O13 0.367385 0.699413 0.147771
O O14 0.500000 0.122946 0.370267
#
# Coordination Sequence:
#
# PCOD8285053 Si02
#       5
#    32  32  32  32  32
#     4   9  16  28  52  85 117 147 180 226 288 350
#     4  10  20  37  61  89 120 152 190 238 295 353
#     4  11  26  44  59  80 112 156 210 253 288 339
#     4   9  16  33  61  92 125 157 184 224 290 363
#     4  10  20  37  61  89 120 152 190 238 295 353
#
# _framework density 19.858046999999999
#
# number of rings (size 3 to 8) (size 9 to 14) (size 15 to 20)
#    0.000    2.200    2.000    1.200    0.000    4.800 
#    0.000    7.000    0.000    3.600    0.000    0.000 
#    0.000    0.000    0.000    0.000    0.000    0.000 
#
# Total GULP energy -495886.488744 kJ/mol
# GULP energy per Si atom -12397.162219 kJ/mol
# Density = 1.981285 g / cm^3
# Si number density = 19.858047 Si / 1000 Ang^3
#
#
#
# Elastic Constant Matrix: (Units=GPa)
#
#
# Indices 1 2 3 4 5 6 
#
# 1 68.1499 18.2085 33.4209 0.0000 0.0000 0.0000
# 2 18.2085 135.7768 49.0578 0.0000 0.0000 0.0000
# 3 33.4209 49.0578 95.9610 0.0000 0.0000 0.0000
# 4 0.0000 0.0000 0.0000 24.0738 0.0000 0.0000
# 5 0.0000 0.0000 0.0000 0.0000 37.1418 0.0000
# 6 0.0000 0.0000 0.0000 0.0000 0.0000 20.5936
#
#
#
# Elastic Compliance Matrix: (Units=1/GPa)
#
#
# Indices 1 2 3 4 5 6 
#
# 1 0.017699 -0.000180 -0.006073 0.000000 0.000000 0.000000
# 2 -0.000180 0.009035 -0.004557 0.000000 0.000000 0.000000
# 3 -0.006073 -0.004557 0.014865 0.000000 0.000000 0.000000
# 4 0.000000 0.000000 0.000000 0.041539 0.000000 0.000000
# 5 0.000000 0.000000 0.000000 0.000000 0.026924 0.000000
# 6 0.000000 0.000000 0.000000 0.000000 0.000000 0.048559
#
#
# Mechanical properties :
#
#
# Convention : Reuss Voigt Hill
#
# Bulk Modulus (GPa) = 50.04293 55.69580 52.86936
# Shear Modulus (GPa) = 26.75226 29.64189 28.19707
#
# Velocity S-wave (km/s) = 3.67437 3.86772 3.77229
# Velocity P-wave (km/s) = 6.57696 6.93207 6.75685
#
# Compressibility (1/GPa) = 0.01998284
#
# Stress axis : x y z
#
# Youngs Moduli (GPa) = 56.49882 110.67488 67.27083
#
# Poissons Ratio (x) = 0.01987 0.40850
# Poissons Ratio (y) = 0.01014 0.30653
# Poissons Ratio (z) = 0.34309 0.50431
#
# Static dielectric constant tensor:
#      x y z
#    x 3.409630 0.000000 0.000000 
#    y 0.000000 4.081790 0.000000 
#    z 0.000000 0.000000 3.328150 
# 
# 
# High freq. dielectric constant tensor:
#      x y z
#    x 1.769660 0.000000 0.000000 
#    y 0.000000 1.795310 0.000000 
#    z 0.000000 0.000000 1.744460 
# 
# From -- ./inp_files/17675.got.cif
#   From: 2010.03.12/outbox.cif.g09.slc.cpg/sg69_9_cif.got.tgz:17675.got - 2010.04.10 23:52:46.
