data_PCOD8285795
_publ_section_title
;
Structure prediction by ZEFSAII (Michael W. Deem and Ramdas Pophale) SiO2 
 PCOD8285795
Probable space group: F D D D
;
_chemical_formula_sum "Si O2"
_cell_formula_units_Z 136
_cell_length_a 25.488806
_cell_length_b 14.034487
_cell_length_c 21.917727
_cell_angle_alpha 90.000000
_cell_angle_beta 90.000000
_cell_angle_gamma 90.000000
_cell_volume 7840.460074
_symmetry_space_group_name_H-M "F D D D"
_symmetry_group_IT_number 70
_space_group.IT_coordinate_system_code '2'
_symmetry_cell_setting 'orthorhombic'
loop_
_space_group_symop_operation_xyz
x,y,z
1/4-x,1/4-y,z
x,1/4-y,1/4-z
1/4-x,y,1/4-z
-x,-y,-z
3/4+x,3/4+y,-z
-x,3/4+y,3/4+z
3/4+x,-y,3/4+z
x,1/2+y,1/2+z
1/4-x,3/4-y,1/2+z
x,3/4-y,3/4-z
1/4-x,1/2+y,3/4-z
-x,1/2-y,1/2-z
3/4+x,1/4+y,1/2-z
-x,1/4+y,1/4+z
3/4+x,1/2-y,1/4+z
1/2+x,y,1/2+z
3/4-x,1/4-y,1/2+z
1/2+x,1/4-y,3/4-z
3/4-x,y,3/4-z
1/2-x,-y,1/2-z
1/4+x,3/4+y,1/2-z
1/2-x,3/4+y,1/4+z
1/4+x,-y,1/4+z
1/2+x,1/2+y,z
3/4-x,3/4-y,z
1/2+x,3/4-y,1/4-z
3/4-x,1/2+y,1/4-z
1/2-x,1/2-y,-z
1/4+x,1/4+y,-z
1/2-x,1/4+y,3/4+z
1/4+x,1/2-y,3/4+z
loop_
_atom_site_type_symbol
_atom_site_label
_atom_site_fract_x
_atom_site_fract_y
_atom_site_fract_z
Si Si1 0.125000 0.625000 0.125000
Si Si2 0.233178 0.750336 0.688244
Si Si3 0.785312 0.283156 0.446072
Si Si4 0.880005 0.104206 0.805924
Si Si5 0.339810 0.790419 0.758387
O O1 0.085306 0.565541 0.169128
O O2 0.243275 0.752940 0.615680
O O3 0.210509 0.646207 0.702455
O O4 0.189313 0.825144 0.708691
O O5 0.284641 0.781158 0.724891
O O6 0.750000 0.250000 0.500000
O O7 0.842940 0.237988 0.451487
O O8 0.875000 0.143391 0.875000
O O9 0.866867 0.186345 0.756576
O O10 0.375000 0.875000 0.726815
#
# Coordination Sequence:
#
# PCOD8285795 Si02
#       5
#     8  32  32  32  32
#     4   8  20  36  60  76 110 148 192 214 264 338
#     4  10  21  33  58  86 105 142 188 224 268 330
#     4  10  19  35  59  78 112 140 178 228 281 319
#     4  10  18  34  58  80 104 145 184 225 275 325
#     4  10  19  36  56  80 112 147 186 222 266 332
#
# _framework density 17.345922000000002
#
# number of rings (size 3 to 8) (size 9 to 14) (size 15 to 20)
#    0.706    1.412    3.529    0.706    0.000    3.765 
#    0.000    2.353    5.176    0.000    0.000    0.000 
#    0.000    0.000    0.000    0.000    0.000    0.000 
#
# Total GULP energy -421222.384744 kJ/mol
# GULP energy per Si atom -12388.893669 kJ/mol
# Density = 1.730644 g / cm^3
# Si number density = 17.345922 Si / 1000 Ang^3
#
#
#
# Elastic Constant Matrix: (Units=GPa)
#
#
# Indices 1 2 3 4 5 6 
#
# 1 143.9576 75.7366 61.3201 0.0000 0.0000 0.0000
# 2 75.7366 115.2096 39.9812 0.0000 0.0000 0.0000
# 3 61.3201 39.9812 75.9127 0.0000 0.0000 0.0000
# 4 0.0000 0.0000 0.0000 14.2808 0.0000 0.0000
# 5 0.0000 0.0000 0.0000 0.0000 31.6278 0.0000
# 6 0.0000 0.0000 0.0000 0.0000 0.0000 27.6502
#
#
#
# Elastic Compliance Matrix: (Units=1/GPa)
#
#
# Indices 1 2 3 4 5 6 
#
# 1 0.013444 -0.006203 -0.007593 0.000000 0.000000 0.000000
# 2 -0.006203 0.013483 -0.002091 0.000000 0.000000 0.000000
# 3 -0.007593 -0.002091 0.020407 0.000000 0.000000 0.000000
# 4 0.000000 0.000000 0.000000 0.070024 0.000000 0.000000
# 5 0.000000 0.000000 0.000000 0.000000 0.031618 0.000000
# 6 0.000000 0.000000 0.000000 0.000000 0.000000 0.036166
#
#
# Mechanical properties :
#
#
# Convention : Reuss Voigt Hill
#
# Bulk Modulus (GPa) = 64.26014 76.57286 70.41650
# Shear Modulus (GPa) = 22.51212 25.24791 23.88002
#
# Velocity S-wave (km/s) = 3.60645 3.81931 3.71441
# Velocity P-wave (km/s) = 7.38029 7.98060 7.68631
#
# Compressibility (1/GPa) = 0.01556175
#
# Stress axis : x y z
#
# Youngs Moduli (GPa) = 74.38185 74.16735 49.00194
#
# Poissons Ratio (x) = 0.46006 0.37206
# Poissons Ratio (y) = 0.46139 0.10244
# Poissons Ratio (z) = 0.56477 0.15505
#
# Static dielectric constant tensor:
#      x y z
#    x -5.168540 0.000000 0.000000 
#    y 0.000000 3.306610 0.000000 
#    z 0.000000 0.000000 3.153160 
# 
# 
# High freq. dielectric constant tensor:
#      x y z
#    x 1.655150 0.000000 0.000000 
#    y 0.000000 1.686540 0.000000 
#    z 0.000000 0.000000 1.650370 
# 
# From -- ./inp_files/27440.got.cif
#   From: 2010.03.12/outbox.cif.g09.slc.cpg/sg70_14_cif.got.tgz:27440.got - 2010.04.16 13:46:32.
