data_PCOD8285242
_publ_section_title
;
Structure prediction by ZEFSAII (Michael W. Deem and Ramdas Pophale) SiO2 
 PCOD8285242
Probable space group: F M M M
;
_chemical_formula_sum "Si O2"
_cell_formula_units_Z 160
_cell_length_a 26.989019
_cell_length_b 35.499091
_cell_length_c 10.643310
_cell_angle_alpha 90.000000
_cell_angle_beta 90.000000
_cell_angle_gamma 90.000000
_cell_volume 10197.202489
_symmetry_space_group_name_H-M "F M M M"
_symmetry_group_IT_number 69
_symmetry_cell_setting 'orthorhombic'
loop_
_space_group_symop_operation_xyz
x,y,z
-x,-y,z
x,-y,-z
-x,y,-z
-x,-y,-z
x,y,-z
-x,y,z
x,-y,z
x,1/2+y,1/2+z
-x,1/2-y,1/2+z
x,1/2-y,1/2-z
-x,1/2+y,1/2-z
-x,1/2-y,1/2-z
x,1/2+y,1/2-z
-x,1/2+y,1/2+z
x,1/2-y,1/2+z
1/2+x,y,1/2+z
1/2-x,-y,1/2+z
1/2+x,-y,1/2-z
1/2-x,y,1/2-z
1/2-x,-y,1/2-z
1/2+x,y,1/2-z
1/2-x,y,1/2+z
1/2+x,-y,1/2+z
1/2+x,1/2+y,z
1/2-x,1/2-y,z
1/2+x,1/2-y,-z
1/2-x,1/2+y,-z
1/2-x,1/2-y,-z
1/2+x,1/2+y,-z
1/2-x,1/2+y,z
1/2+x,1/2-y,z
loop_
_atom_site_type_symbol
_atom_site_label
_atom_site_fract_x
_atom_site_fract_y
_atom_site_fract_z
Si Si1 0.558829 0.723216 0.140500
Si Si2 0.056353 0.958695 0.500000
Si Si3 0.709092 0.544044 0.354031
Si Si4 0.944421 0.861777 0.853011
Si Si5 0.444798 0.000000 0.356263
Si Si6 0.604801 0.569493 0.265054
O O1 0.500000 0.726787 0.136870
O O2 0.581307 0.750000 0.250000
O O3 0.573663 0.680586 0.176130
O O4 0.579142 0.733771 0.000000
O O5 0.069338 0.933419 0.617067
O O6 0.000000 0.968324 0.500000
O O7 0.084426 0.000000 0.500000
O O8 0.723837 0.554394 0.500000
O O9 0.697261 0.500000 0.346126
O O10 0.750000 0.555214 0.250000
O O11 0.661125 0.566957 0.310698
O O12 0.904095 0.889752 0.794636
O O13 0.000000 0.868823 0.798688
O O14 0.946014 0.868925 0.000000
O O15 0.411397 0.036306 0.328318
O O16 0.500000 0.000000 0.288170
O O17 0.457038 0.000000 0.500000
#
# Coordination Sequence:
#
# PCOD8285242 Si02
#       6
#    32  16  32  32  16  32
#     4   8  14  27  45  64  90 125 162 198 234 275
#     4  11  20  30  46  64  92 130 160 187 236 290
#     4  10  21  38  54  69  89 118 161 213 259 300
#     4   9  18  31  46  67  98 131 162 198 238 284
#     4  11  22  31  44  67  94 126 164 199 231 286
#     4  12  20  33  48  66  94 124 160 201 245 290
#
# _framework density 15.690579
#
# number of rings (size 3 to 8) (size 9 to 14) (size 15 to 20)
#    0.000    2.000    3.000    3.600    0.000    3.200 
#    1.800    0.000    0.000    0.000    0.000    0.000 
#    0.000    0.800    0.000    6.200    0.000    1.800 
#
# Total GULP energy -495655.295100 kJ/mol
# GULP energy per Si atom -12391.382378 kJ/mol
# Density = 1.565487 g / cm^3
# Si number density = 15.690579 Si / 1000 Ang^3
#
#
#
# Elastic Constant Matrix: (Units=GPa)
#
#
# Indices 1 2 3 4 5 6 
#
# 1 65.7218 27.4283 40.5913 -0.0002 0.0001 -0.0001
# 2 27.4283 99.6513 59.1385 -0.0001 0.0002 -0.0001
# 3 40.5913 59.1385 102.1771 0.0024 -0.0019 -0.0008
# 4 -0.0002 -0.0001 0.0024 28.7170 -0.0008 -0.0005
# 5 0.0001 0.0002 -0.0019 -0.0008 22.7870 0.0003
# 6 -0.0001 -0.0001 -0.0008 -0.0005 0.0003 15.1691
#
#
#
# Elastic Compliance Matrix: (Units=1/GPa)
#
#
# Indices 1 2 3 4 5 6 
#
# 1 0.020259 -0.001218 -0.007343 0.000001 -0.000001 0.000000
# 2 -0.001218 0.015358 -0.008405 0.000001 -0.000001 0.000000
# 3 -0.007343 -0.008405 0.017569 -0.000002 0.000002 0.000001
# 4 0.000001 0.000001 -0.000002 0.034823 0.000001 0.000001
# 5 -0.000001 -0.000001 0.000002 0.000001 0.043885 -0.000001
# 6 0.000000 0.000000 0.000001 0.000001 -0.000001 0.065923
#
#
# Mechanical properties :
#
#
# Convention : Reuss Voigt Hill
#
# Bulk Modulus (GPa) = 51.93927 57.98515 54.96221
# Shear Modulus (GPa) = 20.99351 22.69408 21.84380
#
# Velocity S-wave (km/s) = 3.66179 3.80722 3.73521
# Velocity P-wave (km/s) = 7.14509 7.50747 7.32852
#
# Compressibility (1/GPa) = 0.01925326
#
# Stress axis : x y z
#
# Youngs Moduli (GPa) = 49.35969 65.11071 56.91884
#
# Poissons Ratio (x) = 0.07933 0.41796
# Poissons Ratio (y) = 0.06014 0.47841
# Poissons Ratio (z) = 0.36245 0.54727
#
# Static dielectric constant tensor:
#      x y z
#    x 2.708660 0.000000 0.000000 
#    y 0.000000 3.690060 0.000000 
#    z 0.000000 0.000000 3.305150 
# 
# 
# High freq. dielectric constant tensor:
#      x y z
#    x 1.562380 0.000000 0.000000 
#    y 0.000000 1.579720 0.000000 
#    z 0.000000 0.000000 1.618300 
# 
# From -- ./inp_files/10563.got.cif
#   From: 2010.03.12/outbox.cif.g09.slc.cpg/sg69_6_cif.got.tgz:10563.got - 2010.04.10 23:52:46.
