data_PCOD8285599
_publ_section_title
;
Structure prediction by ZEFSAII (Michael W. Deem and Ramdas Pophale) SiO2 
 PCOD8285599
Probable space group: F M M M
;
_chemical_formula_sum "Si O2"
_cell_formula_units_Z 208
_cell_length_a 22.305493
_cell_length_b 17.011224
_cell_length_c 26.565919
_cell_angle_alpha 90.000000
_cell_angle_beta 90.000000
_cell_angle_gamma 90.000000
_cell_volume 10080.271605
_symmetry_space_group_name_H-M "F M M M"
_symmetry_group_IT_number 69
_symmetry_cell_setting 'orthorhombic'
loop_
_space_group_symop_operation_xyz
x,y,z
-x,-y,z
x,-y,-z
-x,y,-z
-x,-y,-z
x,y,-z
-x,y,z
x,-y,z
x,1/2+y,1/2+z
-x,1/2-y,1/2+z
x,1/2-y,1/2-z
-x,1/2+y,1/2-z
-x,1/2-y,1/2-z
x,1/2+y,1/2-z
-x,1/2+y,1/2+z
x,1/2-y,1/2+z
1/2+x,y,1/2+z
1/2-x,-y,1/2+z
1/2+x,-y,1/2-z
1/2-x,y,1/2-z
1/2-x,-y,1/2-z
1/2+x,y,1/2-z
1/2-x,y,1/2+z
1/2+x,-y,1/2+z
1/2+x,1/2+y,z
1/2-x,1/2-y,z
1/2+x,1/2-y,-z
1/2-x,1/2+y,-z
1/2-x,1/2-y,-z
1/2+x,1/2+y,-z
1/2-x,1/2+y,z
1/2+x,1/2-y,z
loop_
_atom_site_type_symbol
_atom_site_label
_atom_site_fract_x
_atom_site_fract_y
_atom_site_fract_z
Si Si1 0.649115 0.309055 0.440739
Si Si2 0.256685 0.836048 0.855342
Si Si3 0.637315 0.906039 0.323002
Si Si4 0.933852 0.592887 0.120168
Si Si5 0.429790 0.164181 0.401633
Si Si6 0.355006 0.091875 0.790596
Si Si7 0.930309 0.000000 0.057040
O O1 0.663943 0.306963 0.500000
O O2 0.711016 0.322884 0.409891
O O3 0.605551 0.381634 0.427719
O O4 0.612473 0.231703 0.424022
O O5 0.250000 0.750000 0.830867
O O6 0.193349 0.880811 0.858665
O O7 0.292383 0.889819 0.816488
O O8 0.581301 0.852270 0.342270
O O9 0.644653 0.875354 0.265916
O O10 0.625723 0.000000 0.326882
O O11 0.935540 0.500000 0.120808
O O12 0.906880 0.626768 0.172770
O O13 0.000000 0.629256 0.114770
O O14 0.500000 0.180939 0.413890
O O15 0.403761 0.081286 0.422462
O O16 0.363972 0.000000 0.787111
O O17 0.000000 0.000000 0.069572
O O18 0.913912 0.000000 0.000000
#
# Coordination Sequence:
#
# PCOD8285599 Si02
#       7
#    32  32  32  32  32  32  16
#     4  11  24  42  63  85 117 159 202 251 309 359
#     4  11  22  40  60  86 115 153 198 252 298 357
#     4  11  22  39  61  89 123 161 199 242 298 358
#     4   9  19  38  62  91 124 155 196 245 294 356
#     4  11  22  38  59  89 123 157 201 248 295 357
#     4   9  20  37  61  88 118 157 197 239 294 355
#     4   9  18  34  56  80 111 152 196 242 287 340
#
# _framework density 20.634364000000001
#
# number of rings (size 3 to 8) (size 9 to 14) (size 15 to 20)
#    0.000    1.769    2.308    1.846    0.000    6.154 
#    0.000    2.308    0.000    2.769    0.000    0.000 
#    0.000    0.000    0.000    0.000    0.000    0.000 
#
# Total GULP energy -644200.528922 kJ/mol
# GULP energy per Si atom -12388.471710 kJ/mol
# Density = 2.058740 g / cm^3
# Si number density = 20.634364 Si / 1000 Ang^3
#
#
#
# Elastic Constant Matrix: (Units=GPa)
#
#
# Indices 1 2 3 4 5 6 
#
# 1 42.3085 9.1061 24.0155 0.0000 0.0000 0.0000
# 2 9.1061 45.5229 23.3194 0.0000 0.0000 0.0000
# 3 24.0155 23.3194 138.1235 0.0000 0.0000 0.0000
# 4 0.0000 0.0000 0.0000 26.2044 0.0000 0.0000
# 5 0.0000 0.0000 0.0000 0.0000 5.6701 0.0000
# 6 0.0000 0.0000 0.0000 0.0000 0.0000 32.1568
#
#
#
# Elastic Compliance Matrix: (Units=1/GPa)
#
#
# Indices 1 2 3 4 5 6 
#
# 1 0.026653 -0.003238 -0.004088 0.000000 0.000000 0.000000
# 2 -0.003238 0.024440 -0.003563 0.000000 0.000000 0.000000
# 3 -0.004088 -0.003563 0.008552 0.000000 0.000000 0.000000
# 4 0.000000 0.000000 0.000000 0.038162 0.000000 0.000000
# 5 0.000000 0.000000 0.000000 0.000000 0.176362 0.000000
# 6 0.000000 0.000000 0.000000 0.000000 0.000000 0.031098
#
#
# Mechanical properties :
#
#
# Convention : Reuss Voigt Hill
#
# Bulk Modulus (GPa) = 26.40739 37.64853 32.02796
# Shear Modulus (GPa) = 14.72033 24.10718 19.41376
#
# Velocity S-wave (km/s) = 2.67383 3.42175 3.07065
# Velocity P-wave (km/s) = 4.72843 5.82206 5.30351
#
# Compressibility (1/GPa) = 0.03786819
#
# Stress axis : x y z
#
# Youngs Moduli (GPa) = 37.51928 40.91666 116.92928
#
# Poissons Ratio (x) = 0.13247 0.47795
# Poissons Ratio (y) = 0.12147 0.41665
# Poissons Ratio (z) = 0.15336 0.14580
#
# Static dielectric constant tensor:
#      x y z
#    x 4.173400 0.000000 0.000000 
#    y 0.000000 3.817930 0.000000 
#    z 0.000000 0.000000 3.880470 
# 
# 
# High freq. dielectric constant tensor:
#      x y z
#    x 1.805380 0.000000 0.000000 
#    y 0.000000 1.813310 0.000000 
#    z 0.000000 0.000000 1.801110 
# 
# From -- ./inp_files/43292.got.cif
#   From: 2010.03.12/outbox.cif.g09.slc.cpg/sg69_22_cif.got.tgz:43292.got - 2010.04.10 23:52:46.
