data_PCOD8285835
_publ_section_title
;
Structure prediction by ZEFSAII (Michael W. Deem and Ramdas Pophale) SiO2 
 PCOD8285835
Probable space group: F D D D
;
_chemical_formula_sum "Si O2"
_cell_formula_units_Z 208
_cell_length_a 17.613859
_cell_length_b 28.783629
_cell_length_c 19.703218
_cell_angle_alpha 90.000000
_cell_angle_beta 90.000000
_cell_angle_gamma 90.000000
_cell_volume 9989.349916
_symmetry_space_group_name_H-M "F D D D"
_symmetry_group_IT_number 70
_space_group.IT_coordinate_system_code '2'
_symmetry_cell_setting 'orthorhombic'
loop_
_space_group_symop_operation_xyz
x,y,z
1/4-x,1/4-y,z
x,1/4-y,1/4-z
1/4-x,y,1/4-z
-x,-y,-z
3/4+x,3/4+y,-z
-x,3/4+y,3/4+z
3/4+x,-y,3/4+z
x,1/2+y,1/2+z
1/4-x,3/4-y,1/2+z
x,3/4-y,3/4-z
1/4-x,1/2+y,3/4-z
-x,1/2-y,1/2-z
3/4+x,1/4+y,1/2-z
-x,1/4+y,1/4+z
3/4+x,1/2-y,1/4+z
1/2+x,y,1/2+z
3/4-x,1/4-y,1/2+z
1/2+x,1/4-y,3/4-z
3/4-x,y,3/4-z
1/2-x,-y,1/2-z
1/4+x,3/4+y,1/2-z
1/2-x,3/4+y,1/4+z
1/4+x,-y,1/4+z
1/2+x,1/2+y,z
3/4-x,3/4-y,z
1/2+x,3/4-y,1/4-z
3/4-x,1/2+y,1/4-z
1/2-x,1/2-y,-z
1/4+x,1/4+y,-z
1/2-x,1/4+y,3/4+z
1/4+x,1/2-y,3/4+z
loop_
_atom_site_type_symbol
_atom_site_label
_atom_site_fract_x
_atom_site_fract_y
_atom_site_fract_z
Si Si1 0.736294 0.665819 0.541683
Si Si2 0.985304 0.331265 0.133825
Si Si3 0.125000 0.760912 0.625000
Si Si4 0.570297 0.681529 0.512601
Si Si5 0.961414 0.017104 0.653635
Si Si6 0.041529 0.821457 0.146274
Si Si7 0.081625 0.519988 0.486321
O O1 0.657009 0.693474 0.531561
O O2 0.713142 0.612286 0.555709
O O3 0.784220 0.689992 0.601319
O O4 0.790069 0.667699 0.476055
O O5 0.931256 0.319401 0.198459
O O6 0.051618 0.293647 0.125053
O O7 0.019490 0.382266 0.145772
O O8 0.932907 0.330168 0.066900
O O9 0.124563 0.727300 0.558580
O O10 0.520248 0.725520 0.534161
O O11 0.877170 0.014209 0.685066
O O12 0.981012 0.968623 0.618420
O O13 0.125000 0.805109 0.125000
O O14 0.000000 0.500000 0.500000
#
# Coordination Sequence:
#
# PCOD8285835 Si02
#       7
#    32  32  16  32  32  32  32
#     4  10  22  37  58  90 130 167 202 243 314 387
#     4  10  20  39  64  86 120 160 213 249 321 386
#     4  10  18  42  62  89 114 152 219 268 314 376
#     4  10  20  38  62  89 128 167 198 251 311 389
#     4  12  22  37  59  92 124 161 209 261 316 375
#     4  11  23  37  60  91 128 167 201 260 315 384
#     4  10  23  38  66  91 114 165 220 272 316 377
#
# _framework density 20.822175999999999
#
# number of rings (size 3 to 8) (size 9 to 14) (size 15 to 20)
#    0.000    1.538    2.308    3.231    0.000    4.308 
#    0.000    0.000    0.000    1.846    4.000    0.000 
#    0.000    0.000    0.000    0.000    0.000    0.000 
#
# Total GULP energy -644642.851004 kJ/mol
# GULP energy per Si atom -12396.977904 kJ/mol
# Density = 2.077478 g / cm^3
# Si number density = 20.822176 Si / 1000 Ang^3
#
#
#
# Elastic Constant Matrix: (Units=GPa)
#
#
# Indices 1 2 3 4 5 6 
#
# 1 102.1913 14.5805 36.8540 0.0000 0.0000 0.0000
# 2 14.5805 69.9033 47.8285 0.0000 0.0000 0.0000
# 3 36.8540 47.8285 111.2806 0.0000 0.0000 0.0000
# 4 0.0000 0.0000 0.0000 33.4771 0.0000 0.0000
# 5 0.0000 0.0000 0.0000 0.0000 32.5967 0.0000
# 6 0.0000 0.0000 0.0000 0.0000 0.0000 26.9098
#
#
#
# Elastic Compliance Matrix: (Units=1/GPa)
#
#
# Indices 1 2 3 4 5 6 
#
# 1 0.011117 0.000284 -0.003804 0.000000 0.000000 0.000000
# 2 0.000284 0.020272 -0.008807 0.000000 0.000000 0.000000
# 3 -0.003804 -0.008807 0.014031 0.000000 0.000000 0.000000
# 4 0.000000 0.000000 0.000000 0.029871 0.000000 0.000000
# 5 0.000000 0.000000 0.000000 0.000000 0.030678 0.000000
# 6 0.000000 0.000000 0.000000 0.000000 0.000000 0.037161
#
#
# Mechanical properties :
#
#
# Convention : Reuss Voigt Hill
#
# Bulk Modulus (GPa) = 48.15459 53.54458 50.84958
# Shear Modulus (GPa) = 28.61950 30.87088 29.74519
#
# Velocity S-wave (km/s) = 3.71141 3.85463 3.78370
# Velocity P-wave (km/s) = 6.44538 6.75143 6.60018
#
# Compressibility (1/GPa) = 0.02076645
#
# Stress axis : x y z
#
# Youngs Moduli (GPa) = 89.95377 49.32901 71.26983
#
# Poissons Ratio (x) = -0.01400 0.27108
# Poissons Ratio (y) = -0.02552 0.62767
# Poissons Ratio (z) = 0.34215 0.43444
#
# Static dielectric constant tensor:
#      x y z
#    x 3.753470 0.000000 0.000000 
#    y 0.000000 3.771660 0.000000 
#    z 0.000000 0.000000 4.165560 
# 
# 
# High freq. dielectric constant tensor:
#      x y z
#    x 1.814290 0.000000 0.000000 
#    y 0.000000 1.795620 0.000000 
#    z 0.000000 0.000000 1.821600 
# 
# From -- ./inp_files/44070.got.cif
#   From: 2010.03.12/outbox.cif.g09.slc.cpg/sg70_23_cif.got.tgz:44070.got - 2010.04.16 13:46:32.
