data_PCOD8285766
_publ_section_title
;
Structure prediction by ZEFSAII (Michael W. Deem and Ramdas Pophale) SiO2 
 PCOD8285766
Probable space group: F D D D
;
_chemical_formula_sum "Si O2"
_cell_formula_units_Z 112
_cell_length_a 25.880675
_cell_length_b 16.921404
_cell_length_c 9.453158
_cell_angle_alpha 90.000000
_cell_angle_beta 90.000000
_cell_angle_gamma 90.000000
_cell_volume 4139.891034
_symmetry_space_group_name_H-M "F D D D"
_symmetry_group_IT_number 70
_space_group.IT_coordinate_system_code '2'
_symmetry_cell_setting 'orthorhombic'
loop_
_space_group_symop_operation_xyz
x,y,z
1/4-x,1/4-y,z
x,1/4-y,1/4-z
1/4-x,y,1/4-z
-x,-y,-z
3/4+x,3/4+y,-z
-x,3/4+y,3/4+z
3/4+x,-y,3/4+z
x,1/2+y,1/2+z
1/4-x,3/4-y,1/2+z
x,3/4-y,3/4-z
1/4-x,1/2+y,3/4-z
-x,1/2-y,1/2-z
3/4+x,1/4+y,1/2-z
-x,1/4+y,1/4+z
3/4+x,1/2-y,1/4+z
1/2+x,y,1/2+z
3/4-x,1/4-y,1/2+z
1/2+x,1/4-y,3/4-z
3/4-x,y,3/4-z
1/2-x,-y,1/2-z
1/4+x,3/4+y,1/2-z
1/2-x,3/4+y,1/4+z
1/4+x,-y,1/4+z
1/2+x,1/2+y,z
3/4-x,3/4-y,z
1/2+x,3/4-y,1/4-z
3/4-x,1/2+y,1/4-z
1/2-x,1/2-y,-z
1/4+x,1/4+y,-z
1/2-x,1/4+y,3/4+z
1/4+x,1/2-y,3/4+z
loop_
_atom_site_type_symbol
_atom_site_label
_atom_site_fract_x
_atom_site_fract_y
_atom_site_fract_z
Si Si1 0.933994 0.125000 0.125000
Si Si2 0.673522 0.733229 0.048674
Si Si3 0.749875 0.739292 0.295927
Si Si4 0.813595 0.375218 0.703199
O O1 0.901571 0.193217 0.204293
O O2 0.966082 0.165038 0.998999
O O3 0.625000 0.694140 0.125000
O O4 0.715604 0.763038 0.159988
O O5 0.697306 0.666302 0.948050
O O6 0.786632 0.817727 0.324436
O O7 0.713920 0.712193 0.430791
O O8 0.875000 0.375000 0.736245
#
# Coordination Sequence:
#
# PCOD8285766 Si02
#       4
#    16  32  32  32
#     4  10  18  30  43  70 108 142 179 224 272 342
#     4  11  19  28  48  72 110 149 175 224 287 338
#     4  11  18  31  45  74 117 145 178 227 283 347
#     4  11  20  30  50  77 118 149 176 226 290 340
#
# _framework density 27.053851000000002
#
# number of rings (size 3 to 8) (size 9 to 14) (size 15 to 20)
#    0.000    1.143    8.571    1.714    0.000    0.000 
#    0.000    0.000    0.000    0.000    0.000   18.000 
#    0.000   10.286    0.000    0.000    0.000    0.000 
#
# Total GULP energy -346925.677468 kJ/mol
# GULP energy per Si atom -12390.202767 kJ/mol
# Density = 2.699228 g / cm^3
# Si number density = 27.053851 Si / 1000 Ang^3
#
#
#
# Elastic Constant Matrix: (Units=GPa)
#
#
# Indices 1 2 3 4 5 6 
#
# 1 156.0629 68.3711 35.8243 0.0000 0.0000 0.0000
# 2 68.3711 154.2763 38.3283 0.0000 0.0000 0.0000
# 3 35.8243 38.3283 102.4096 0.0000 0.0000 0.0000
# 4 0.0000 0.0000 0.0000 9.8248 0.0000 0.0000
# 5 0.0000 0.0000 0.0000 0.0000 -26.8606 0.0000
# 6 0.0000 0.0000 0.0000 0.0000 0.0000 18.1021
#
#
#
# Elastic Compliance Matrix: (Units=1/GPa)
#
#
# Indices 1 2 3 4 5 6 
#
# 1 0.008201 -0.003221 -0.001663 0.000000 0.000000 0.000000
# 2 -0.003221 0.008412 -0.002021 0.000000 0.000000 0.000000
# 3 -0.001663 -0.002021 0.011103 0.000000 0.000000 0.000000
# 4 0.000000 0.000000 0.000000 0.101783 0.000000 0.000000
# 5 0.000000 0.000000 0.000000 0.000000 -0.037229 0.000000
# 6 0.000000 0.000000 0.000000 0.000000 0.000000 0.055242
#
#
# Mechanical properties :
#
#
# Convention : Reuss Voigt Hill
#
# Bulk Modulus (GPa) = 71.92183 77.53291 74.72737
# Shear Modulus (GPa) = 30.12827 18.22827 24.17827
#
# Velocity S-wave (km/s) = 3.34075 2.59854 2.99274
# Velocity P-wave (km/s) = 6.44385 6.14200 6.29473
#
# Compressibility (1/GPa) = 0.01390398
#
# Stress axis : x y z
#
# Youngs Moduli (GPa) = 121.94214 118.88390 90.06550
#
# Poissons Ratio (x) = 0.38294 0.14979
# Poissons Ratio (y) = 0.39279 0.18206
# Poissons Ratio (z) = 0.20281 0.24031
#
# Static dielectric constant tensor:
#      x y z
#    x 4.959940 0.000000 0.000000 
#    y 0.000000 4.934650 0.000000 
#    z 0.000000 0.000000 4.652380 
# 
# 
# High freq. dielectric constant tensor:
#      x y z
#    x 2.064070 0.000000 0.000000 
#    y 0.000000 2.104910 0.000000 
#    z 0.000000 0.000000 2.117860 
# 
# From -- ./inp_files/16267.got.cif
#   From: 2010.03.12/outbox.cif.g09.slc.cpg/sg70_9_cif.got.tgz:16267.got - 2010.04.16 13:46:32.
