data_PCOD8285636
_publ_section_title
;
Structure prediction by ZEFSAII (Michael W. Deem and Ramdas Pophale) SiO2 
 PCOD8285636
Probable space group: F M M M
;
_chemical_formula_sum "Si O2"
_cell_formula_units_Z 160
_cell_length_a 14.703698
_cell_length_b 28.058854
_cell_length_c 19.465400
_cell_angle_alpha 90.000000
_cell_angle_beta 90.000000
_cell_angle_gamma 90.000000
_cell_volume 8030.818967
_symmetry_space_group_name_H-M "F M M M"
_symmetry_group_IT_number 69
_symmetry_cell_setting 'orthorhombic'
loop_
_space_group_symop_operation_xyz
x,y,z
-x,-y,z
x,-y,-z
-x,y,-z
-x,-y,-z
x,y,-z
-x,y,z
x,-y,z
x,1/2+y,1/2+z
-x,1/2-y,1/2+z
x,1/2-y,1/2-z
-x,1/2+y,1/2-z
-x,1/2-y,1/2-z
x,1/2+y,1/2-z
-x,1/2+y,1/2+z
x,1/2-y,1/2+z
1/2+x,y,1/2+z
1/2-x,-y,1/2+z
1/2+x,-y,1/2-z
1/2-x,y,1/2-z
1/2-x,-y,1/2-z
1/2+x,y,1/2-z
1/2-x,y,1/2+z
1/2+x,-y,1/2+z
1/2+x,1/2+y,z
1/2-x,1/2-y,z
1/2+x,1/2-y,-z
1/2-x,1/2+y,-z
1/2-x,1/2-y,-z
1/2+x,1/2+y,-z
1/2-x,1/2+y,z
1/2+x,1/2-y,z
loop_
_atom_site_type_symbol
_atom_site_label
_atom_site_fract_x
_atom_site_fract_y
_atom_site_fract_z
Si Si1 0.687643 0.600590 0.817391
Si Si2 0.500000 0.556071 0.227408
Si Si3 0.675279 0.389156 0.422226
Si Si4 0.396895 0.195620 0.680301
Si Si5 0.500000 0.056639 0.115100
Si Si6 0.102831 0.300221 0.157361
O O1 0.750000 0.596912 0.750000
O O2 0.591681 0.574047 0.809180
O O3 0.747454 0.580671 0.880921
O O4 0.669063 0.654171 0.844579
O O5 0.500000 0.500000 0.223339
O O6 0.500000 0.574105 0.305744
O O7 0.706518 0.379869 0.500000
O O8 0.586559 0.421835 0.422666
O O9 0.661160 0.338149 0.384880
O O10 0.500000 0.188056 0.654888
O O11 0.360077 0.245832 0.650393
O O12 0.394707 0.189492 0.762214
O O13 0.500000 0.000000 0.108289
O O14 0.000000 0.303429 0.129536
#
# Coordination Sequence:
#
# PCOD8285636 Si02
#       6
#    32  16  32  32  16  32
#     4  12  22  39  66  93 128 166 214 260 317 382
#     4  11  24  43  70 101 128 156 212 286 330 365
#     4  12  25  40  61  94 136 174 210 258 322 394
#     4   9  17  33  59  87 120 159 209 259 303 365
#     4  11  23  42  68  97 127 160 204 271 343 391
#     4   9  17  32  57  90 122 161 206 253 313 371
#
# _framework density 19.923248000000001
#
# number of rings (size 3 to 8) (size 9 to 14) (size 15 to 20)
#    0.000    1.400    6.000    1.500    0.000    2.800 
#    0.000    2.500    0.000    1.800    0.000    0.000 
#    0.000    0.000    0.000    0.000    0.000    0.000 
#
# Total GULP energy -495708.324866 kJ/mol
# GULP energy per Si atom -12392.708122 kJ/mol
# Density = 1.987790 g / cm^3
# Si number density = 19.923248 Si / 1000 Ang^3
#
#
#
# Elastic Constant Matrix: (Units=GPa)
#
#
# Indices 1 2 3 4 5 6 
#
# 1 120.1315 27.7071 45.9629 0.0000 0.0000 0.0000
# 2 27.7071 71.7538 26.3319 0.0000 0.0000 0.0000
# 3 45.9629 26.3319 102.1218 0.0000 0.0000 0.0000
# 4 0.0000 0.0000 0.0000 15.2119 0.0000 0.0000
# 5 0.0000 0.0000 0.0000 0.0000 22.3260 0.0000
# 6 0.0000 0.0000 0.0000 0.0000 0.0000 4.5337
#
#
#
# Elastic Compliance Matrix: (Units=1/GPa)
#
#
# Indices 1 2 3 4 5 6 
#
# 1 0.010463 -0.002554 -0.004051 0.000000 0.000000 0.000000
# 2 -0.002554 0.016016 -0.002980 0.000000 0.000000 0.000000
# 3 -0.004051 -0.002980 0.012384 0.000000 0.000000 0.000000
# 4 0.000000 0.000000 0.000000 0.065738 0.000000 0.000000
# 5 0.000000 0.000000 0.000000 0.000000 0.044791 0.000000
# 6 0.000000 0.000000 0.000000 0.000000 0.000000 0.220570
#
#
# Mechanical properties :
#
#
# Convention : Reuss Voigt Hill
#
# Bulk Modulus (GPa) = 50.77795 54.89009 52.83402
# Shear Modulus (GPa) = 12.63596 21.34800 16.99198
#
# Velocity S-wave (km/s) = 2.52113 3.27695 2.92357
# Velocity P-wave (km/s) = 5.83240 6.47522 6.16220
#
# Compressibility (1/GPa) = 0.01969359
#
# Stress axis : x y z
#
# Youngs Moduli (GPa) = 95.57473 62.43611 80.75022
#
# Poissons Ratio (x) = 0.15944 0.32710
# Poissons Ratio (y) = 0.24407 0.24067
# Poissons Ratio (z) = 0.38715 0.18609
#
# Static dielectric constant tensor:
#      x y z
#    x 3.887660 0.000000 0.000000 
#    y 0.000000 3.771060 0.000000 
#    z 0.000000 0.000000 3.267840 
# 
# 
# High freq. dielectric constant tensor:
#      x y z
#    x 1.792260 0.000000 0.000000 
#    y 0.000000 1.776790 0.000000 
#    z 0.000000 0.000000 1.730400 
# 
# From -- ./inp_files/15670.got.cif
#   From: 2010.03.12/outbox.cif.g09.slc.cpg/sg69_8_cif.got.tgz:15670.got - 2010.04.10 23:52:46.
