data_PCOD8285842
_publ_section_title
;
Structure prediction by ZEFSAII (Michael W. Deem and Ramdas Pophale) SiO2 
 PCOD8285842
Probable space group: F D D D
;
_chemical_formula_sum "Si O2"
_cell_formula_units_Z 128
_cell_length_a 22.744798
_cell_length_b 30.828327
_cell_length_c 6.365585
_cell_angle_alpha 90.000000
_cell_angle_beta 90.000000
_cell_angle_gamma 90.000000
_cell_volume 4463.446800
_symmetry_space_group_name_H-M "F D D D"
_symmetry_group_IT_number 70
_space_group.IT_coordinate_system_code '2'
_symmetry_cell_setting 'orthorhombic'
loop_
_space_group_symop_operation_xyz
x,y,z
1/4-x,1/4-y,z
x,1/4-y,1/4-z
1/4-x,y,1/4-z
-x,-y,-z
3/4+x,3/4+y,-z
-x,3/4+y,3/4+z
3/4+x,-y,3/4+z
x,1/2+y,1/2+z
1/4-x,3/4-y,1/2+z
x,3/4-y,3/4-z
1/4-x,1/2+y,3/4-z
-x,1/2-y,1/2-z
3/4+x,1/4+y,1/2-z
-x,1/4+y,1/4+z
3/4+x,1/2-y,1/4+z
1/2+x,y,1/2+z
3/4-x,1/4-y,1/2+z
1/2+x,1/4-y,3/4-z
3/4-x,y,3/4-z
1/2-x,-y,1/2-z
1/4+x,3/4+y,1/2-z
1/2-x,3/4+y,1/4+z
1/4+x,-y,1/4+z
1/2+x,1/2+y,z
3/4-x,3/4-y,z
1/2+x,3/4-y,1/4-z
3/4-x,1/2+y,1/4-z
1/2-x,1/2-y,-z
1/4+x,1/4+y,-z
1/2-x,1/4+y,3/4+z
1/4+x,1/2-y,3/4+z
loop_
_atom_site_type_symbol
_atom_site_label
_atom_site_fract_x
_atom_site_fract_y
_atom_site_fract_z
Si Si1 0.231168 0.929975 0.578386
Si Si2 0.222102 0.520295 0.963615
Si Si3 0.635844 0.671678 0.365074
Si Si4 0.807219 0.089459 0.889945
O O1 0.297743 0.935306 0.658974
O O2 0.226636 0.916439 0.331734
O O3 0.196927 0.891037 0.705083
O O4 0.207921 0.979080 0.613681
O O5 0.250000 0.500000 0.750000
O O6 0.159400 0.543618 0.956538
O O7 0.271581 0.556071 0.045635
O O8 0.625000 0.625000 0.471216
O O9 0.625000 0.667815 0.125000
O O10 0.875000 0.075328 0.875000
#
# Coordination Sequence:
#
# PCOD8285842 Si02
#       4
#    32  32  32  32
#     4  10  20  31  46  78 105 135 172 211 259 324
#     4  10  19  26  46  76 101 137 164 202 274 310
#     4  11  16  29  47  71 110 126 160 212 262 317
#     4  10  19  32  47  73 109 136 166 212 272 310
#
# _framework density 28.677388000000001
#
# number of rings (size 3 to 8) (size 9 to 14) (size 15 to 20)
#    0.000    1.750    7.500    1.500    7.000    0.000 
#    0.000    0.000    0.000    1.500    0.000    0.000 
#    0.000    0.000    0.000    0.000    0.000    0.000 
#
# Total GULP energy -396527.920237 kJ/mol
# GULP energy per Si atom -12391.497507 kJ/mol
# Density = 2.861212 g / cm^3
# Si number density = 28.677388 Si / 1000 Ang^3
#
#
#
# Elastic Constant Matrix: (Units=GPa)
#
#
# Indices 1 2 3 4 5 6 
#
# 1 259.5027 111.1099 28.4706 -1.6050 0.0800 0.0528
# 2 111.1099 316.3772 35.7561 -1.6142 -0.1314 0.0190
# 3 28.4706 35.7561 81.7022 0.8812 0.1503 0.0260
# 4 -1.6050 -1.6142 0.8812 338.3531 -3.8396 0.9403
# 5 0.0800 -0.1314 0.1503 -3.8396 3.4710 0.0290
# 6 0.0528 0.0190 0.0260 0.9403 0.0290 64.0186
#
#
#
# Elastic Compliance Matrix: (Units=1/GPa)
#
#
# Indices 1 2 3 4 5 6 
#
# 1 0.004604 -0.001510 -0.000943 0.000016 -0.000105 -0.000003
# 2 -0.001510 0.003821 -0.001147 0.000017 0.000248 0.000000
# 3 -0.000943 -0.001147 0.013072 -0.000051 -0.000644 -0.000003
# 4 0.000016 0.000017 -0.000051 0.002994 0.003314 -0.000045
# 5 -0.000105 0.000248 -0.000644 0.003314 0.291811 -0.000181
# 6 -0.000003 0.000000 -0.000003 -0.000045 -0.000181 0.015621
#
#
# Mechanical properties :
#
#
# Convention : Reuss Voigt Hill
#
# Bulk Modulus (GPa) = 69.94792 112.02837 90.98815
# Shear Modulus (GPa) = 14.53961 113.31822 63.92892
#
# Velocity S-wave (km/s) = 2.25412 6.29290 4.72661
# Velocity P-wave (km/s) = 5.58740 9.58909 7.84760
#
# Compressibility (1/GPa) = 0.01429635
#
# Stress axis : x y z
#
# Youngs Moduli (GPa) = 217.21428 261.71737 76.50041
#
# Poissons Ratio (x) = 0.39524 0.07217
# Poissons Ratio (y) = 0.32803 0.08771
# Poissons Ratio (z) = 0.20491 0.30008
#
# Static dielectric constant tensor:
#      x y z
#    x 6.222310 0.031350 -0.000990 
#    y 0.031350 9.948480 -0.005170 
#    z -0.000990 -0.005170 5.588620 
# 
# 
# High freq. dielectric constant tensor:
#      x y z
#    x 2.141000 0.000030 0.000060 
#    y 0.000030 2.203680 -0.000030 
#    z 0.000060 -0.000030 2.214290 
# 
# From -- ./inp_files/19114.got.cif
#   From: 2010.03.12/outbox.cif.g09.slc.cpg/sg70_10_cif.got.tgz:19114.got - 2010.04.16 13:46:32.
