data_PCOD8285037
_publ_section_title
;
Structure prediction by ZEFSAII (Michael W. Deem and Ramdas Pophale) SiO2 
 PCOD8285037
Probable space group: F M M M
;
_chemical_formula_sum "Si O2"
_cell_formula_units_Z 144
_cell_length_a 20.778665
_cell_length_b 17.323290
_cell_length_c 19.520212
_cell_angle_alpha 90.000000
_cell_angle_beta 90.000000
_cell_angle_gamma 90.000000
_cell_volume 7026.394780
_symmetry_space_group_name_H-M "F M M M"
_symmetry_group_IT_number 69
_symmetry_cell_setting 'orthorhombic'
loop_
_space_group_symop_operation_xyz
x,y,z
-x,-y,z
x,-y,-z
-x,y,-z
-x,-y,-z
x,y,-z
-x,y,z
x,-y,z
x,1/2+y,1/2+z
-x,1/2-y,1/2+z
x,1/2-y,1/2-z
-x,1/2+y,1/2-z
-x,1/2-y,1/2-z
x,1/2+y,1/2-z
-x,1/2+y,1/2+z
x,1/2-y,1/2+z
1/2+x,y,1/2+z
1/2-x,-y,1/2+z
1/2+x,-y,1/2-z
1/2-x,y,1/2-z
1/2-x,-y,1/2-z
1/2+x,y,1/2-z
1/2-x,y,1/2+z
1/2+x,-y,1/2+z
1/2+x,1/2+y,z
1/2-x,1/2-y,z
1/2+x,1/2-y,-z
1/2-x,1/2+y,-z
1/2-x,1/2-y,-z
1/2+x,1/2+y,-z
1/2-x,1/2+y,z
1/2+x,1/2-y,z
loop_
_atom_site_type_symbol
_atom_site_label
_atom_site_fract_x
_atom_site_fract_y
_atom_site_fract_z
Si Si1 0.685170 0.834661 0.719357
Si Si2 0.424613 0.314063 0.574168
Si Si3 0.930314 0.500000 0.579547
Si Si4 0.574243 0.409400 0.702789
Si Si5 0.641321 0.844560 0.577746
O O1 0.675821 0.750000 0.750000
O O2 0.750000 0.873088 0.750000
O O3 0.621247 0.884474 0.735641
O O4 0.695004 0.830743 0.636518
O O5 0.396015 0.340635 0.500000
O O6 0.500000 0.324738 0.572996
O O7 0.397499 0.367376 0.634866
O O8 0.409927 0.224039 0.585356
O O9 0.943910 0.500000 0.500000
O O10 0.891815 0.575960 0.599532
O O11 0.000000 0.500000 0.617897
O O12 0.500000 0.385154 0.718752
O O13 0.579005 0.500000 0.690566
O O14 0.670365 0.847719 0.500000
#
# Coordination Sequence:
#
# PCOD8285037 Si02
#       5
#    32  32  16  32  32
#     4  11  24  43  62  88 120 159 201 250 305 361
#     4   9  17  32  57  87 119 158 201 247 302 357
#     4   9  18  32  55  90 126 156 193 246 302 355
#     4  10  22  39  60  90 123 159 204 252 302 356
#     4  10  20  37  59  84 118 158 201 248 298 360
#
# _framework density 20.494150999999999
#
# number of rings (size 3 to 8) (size 9 to 14) (size 15 to 20)
#    0.000    2.111    2.222    0.667    1.556    5.778 
#    0.000    5.556    0.000    0.000    0.000    0.000 
#    0.000    0.000    0.000    0.000    0.000    0.000 
#
# Total GULP energy -446113.313185 kJ/mol
# GULP energy per Si atom -12392.036477 kJ/mol
# Density = 2.044751 g / cm^3
# Si number density = 20.494151 Si / 1000 Ang^3
#
#
#
# Elastic Constant Matrix: (Units=GPa)
#
#
# Indices 1 2 3 4 5 6 
#
# 1 76.9743 24.0640 48.3307 0.0000 0.0000 0.0000
# 2 24.0640 98.0353 39.1608 0.0000 0.0000 0.0000
# 3 48.3307 39.1608 162.8382 0.0000 0.0000 0.0000
# 4 0.0000 0.0000 0.0000 25.8811 0.0000 0.0000
# 5 0.0000 0.0000 0.0000 0.0000 22.0136 0.0000
# 6 0.0000 0.0000 0.0000 0.0000 0.0000 18.8172
#
#
#
# Elastic Compliance Matrix: (Units=1/GPa)
#
#
# Indices 1 2 3 4 5 6 
#
# 1 0.016425 -0.002306 -0.004320 0.000000 0.000000 0.000000
# 2 -0.002306 0.011608 -0.002107 0.000000 0.000000 0.000000
# 3 -0.004320 -0.002107 0.007930 0.000000 0.000000 0.000000
# 4 0.000000 0.000000 0.000000 0.038638 0.000000 0.000000
# 5 0.000000 0.000000 0.000000 0.000000 0.045427 0.000000
# 6 0.000000 0.000000 0.000000 0.000000 0.000000 0.053143
#
#
# Mechanical properties :
#
#
# Convention : Reuss Voigt Hill
#
# Bulk Modulus (GPa) = 54.06535 62.32878 58.19706
# Shear Modulus (GPa) = 25.40606 28.42852 26.91729
#
# Velocity S-wave (km/s) = 3.52472 3.72849 3.62804
# Velocity P-wave (km/s) = 6.55767 7.00104 6.78298
#
# Compressibility (1/GPa) = 0.01849613
#
# Stress axis : x y z
#
# Youngs Moduli (GPa) = 60.88311 86.14626 126.10124
#
# Poissons Ratio (x) = 0.19864 0.54481
# Poissons Ratio (y) = 0.14039 0.26573
# Poissons Ratio (z) = 0.26304 0.18153
#
# Static dielectric constant tensor:
#      x y z
#    x 3.527390 0.000000 0.000000 
#    y 0.000000 3.796720 0.000000 
#    z 0.000000 0.000000 4.217910 
# 
# 
# High freq. dielectric constant tensor:
#      x y z
#    x 1.764160 0.000000 0.000000 
#    y 0.000000 1.799210 0.000000 
#    z 0.000000 0.000000 1.821050 
# 
# From -- ./inp_files/24469.got.cif
#   From: 2010.03.12/outbox.cif.g09.slc.cpg/sg69_13_cif.got.tgz:24469.got - 2010.04.10 23:52:46.
