data_PCOD8285626
_publ_section_title
;
Structure prediction by ZEFSAII (Michael W. Deem and Ramdas Pophale) SiO2 
 PCOD8285626
Probable space group: F M M M
;
_chemical_formula_sum "Si O2"
_cell_formula_units_Z 104
_cell_length_a 27.497640
_cell_length_b 11.625659
_cell_length_c 14.968238
_cell_angle_alpha 90.000000
_cell_angle_beta 90.000000
_cell_angle_gamma 90.000000
_cell_volume 4785.019171
_symmetry_space_group_name_H-M "F M M M"
_symmetry_group_IT_number 69
_symmetry_cell_setting 'orthorhombic'
loop_
_space_group_symop_operation_xyz
x,y,z
-x,-y,z
x,-y,-z
-x,y,-z
-x,-y,-z
x,y,-z
-x,y,z
x,-y,z
x,1/2+y,1/2+z
-x,1/2-y,1/2+z
x,1/2-y,1/2-z
-x,1/2+y,1/2-z
-x,1/2-y,1/2-z
x,1/2+y,1/2-z
-x,1/2+y,1/2+z
x,1/2-y,1/2+z
1/2+x,y,1/2+z
1/2-x,-y,1/2+z
1/2+x,-y,1/2-z
1/2-x,y,1/2-z
1/2-x,-y,1/2-z
1/2+x,y,1/2-z
1/2-x,y,1/2+z
1/2+x,-y,1/2+z
1/2+x,1/2+y,z
1/2-x,1/2-y,z
1/2+x,1/2-y,-z
1/2-x,1/2+y,-z
1/2-x,1/2-y,-z
1/2+x,1/2+y,-z
1/2-x,1/2+y,z
1/2+x,1/2-y,z
loop_
_atom_site_type_symbol
_atom_site_label
_atom_site_fract_x
_atom_site_fract_y
_atom_site_fract_z
Si Si1 0.945999 0.500000 0.103697
Si Si2 0.500000 0.135647 0.601635
Si Si3 0.250000 0.250000 0.750000
Si Si4 0.095965 0.758683 0.348347
Si Si5 0.313157 0.632270 0.098530
O O1 0.914353 0.390264 0.129079
O O2 0.000000 0.500000 0.150152
O O3 0.955384 0.500000 0.000000
O O4 0.500000 0.180316 0.500000
O O5 0.452762 0.183794 0.649630
O O6 0.500000 0.000000 0.608342
O O7 0.280765 0.329170 0.817488
O O8 0.118037 0.750000 0.250000
O O9 0.137390 0.706200 0.411237
O O10 0.327255 0.500000 0.115415
O O11 0.287359 0.645183 0.000000
#
# Coordination Sequence:
#
# PCOD8285626 Si02
#       5
#    16  16   8  32  32
#     4  11  24  42  64  93 136 184 228 274 324 385
#     4  11  23  39  63  93 131 179 225 272 334 403
#     4  12  24  48  76 106 132 166 226 284 354 412
#     4  12  25  40  66  97 137 178 226 275 330 396
#     4  11  25  47  73 102 138 177 222 280 343 408
#
# _framework density 21.734499
#
# number of rings (size 3 to 8) (size 9 to 14) (size 15 to 20)
#    0.000    0.615    3.077    5.077    4.308    2.462 
#    2.769    0.000    0.000    0.000    0.000    0.000 
#    0.000    0.000    0.000    0.000    0.000    0.000 
#
# Total GULP energy -322347.172220 kJ/mol
# GULP energy per Si atom -12397.968162 kJ/mol
# Density = 2.168503 g / cm^3
# Si number density = 21.734499 Si / 1000 Ang^3
#
#
#
# Elastic Constant Matrix: (Units=GPa)
#
#
# Indices 1 2 3 4 5 6 
#
# 1 109.3906 62.6634 37.0038 0.0000 0.0000 0.0000
# 2 62.6634 175.8012 50.9268 0.0000 0.0000 0.0000
# 3 37.0038 50.9268 135.5420 0.0000 0.0000 0.0000
# 4 0.0000 0.0000 0.0000 36.7878 0.0000 0.0000
# 5 0.0000 0.0000 0.0000 0.0000 27.5629 0.0000
# 6 0.0000 0.0000 0.0000 0.0000 0.0000 -2.8450
#
#
#
# Elastic Compliance Matrix: (Units=1/GPa)
#
#
# Indices 1 2 3 4 5 6 
#
# 1 0.011889 -0.003700 -0.001855 0.000000 0.000000 0.000000
# 2 -0.003700 0.007535 -0.001821 0.000000 0.000000 0.000000
# 3 -0.001855 -0.001821 0.008568 0.000000 0.000000 0.000000
# 4 0.000000 0.000000 0.000000 0.027183 0.000000 0.000000
# 5 0.000000 0.000000 0.000000 0.000000 0.036281 0.000000
# 6 0.000000 0.000000 0.000000 0.000000 0.000000 -0.351496
#
#
# Mechanical properties :
#
#
# Convention : Reuss Voigt Hill
#
# Bulk Modulus (GPa) = 75.53437 80.21355 77.87396
# Shear Modulus (GPa) = -20.75770 30.31048 4.77639
#
# Velocity S-wave (km/s) = -3.09375 3.73846 1.48404
# Velocity P-wave (km/s) = 4.69754 7.45795 6.23249
#
# Compressibility (1/GPa) = 0.01323901
#
# Stress axis : x y z
#
# Youngs Moduli (GPa) = 84.11252 132.72074 116.70719
#
# Poissons Ratio (x) = 0.49110 0.21654
# Poissons Ratio (y) = 0.31123 0.21250
# Poissons Ratio (z) = 0.15607 0.24165
#
# Static dielectric constant tensor:
#      x y z
#    x 3.753110 0.000000 0.000000 
#    y 0.000000 3.960460 0.000000 
#    z 0.000000 0.000000 4.234690 
# 
# 
# High freq. dielectric constant tensor:
#      x y z
#    x 1.841740 0.000000 0.000000 
#    y 0.000000 1.866160 0.000000 
#    z 0.000000 0.000000 1.875890 
# 
# From -- ./inp_files/19207.got.cif
#   From: 2010.03.12/outbox.cif.g09.slc.cpg/sg69_10_cif.got.tgz:19207.got - 2010.04.10 23:52:46.
