data_PCOD8285332
_publ_section_title
;
Structure prediction by ZEFSAII (Michael W. Deem and Ramdas Pophale) SiO2 
 PCOD8285332
Probable space group: F M M M
;
_chemical_formula_sum "Si O2"
_cell_formula_units_Z 136
_cell_length_a 11.463799
_cell_length_b 22.547775
_cell_length_c 25.634461
_cell_angle_alpha 90.000000
_cell_angle_beta 90.000000
_cell_angle_gamma 90.000000
_cell_volume 6626.076497
_symmetry_space_group_name_H-M "F M M M"
_symmetry_group_IT_number 69
_symmetry_cell_setting 'orthorhombic'
loop_
_space_group_symop_operation_xyz
x,y,z
-x,-y,z
x,-y,-z
-x,y,-z
-x,-y,-z
x,y,-z
-x,y,z
x,-y,z
x,1/2+y,1/2+z
-x,1/2-y,1/2+z
x,1/2-y,1/2-z
-x,1/2+y,1/2-z
-x,1/2-y,1/2-z
x,1/2+y,1/2-z
-x,1/2+y,1/2+z
x,1/2-y,1/2+z
1/2+x,y,1/2+z
1/2-x,-y,1/2+z
1/2+x,-y,1/2-z
1/2-x,y,1/2-z
1/2-x,-y,1/2-z
1/2+x,y,1/2-z
1/2-x,y,1/2+z
1/2+x,-y,1/2+z
1/2+x,1/2+y,z
1/2-x,1/2-y,z
1/2+x,1/2-y,-z
1/2-x,1/2+y,-z
1/2-x,1/2-y,-z
1/2+x,1/2+y,-z
1/2-x,1/2+y,z
1/2+x,1/2-y,z
loop_
_atom_site_type_symbol
_atom_site_label
_atom_site_fract_x
_atom_site_fract_y
_atom_site_fract_z
Si Si1 0.261545 0.180537 0.559955
Si Si2 0.735331 0.000000 0.312088
Si Si3 0.372206 0.271100 0.308553
Si Si4 0.000000 0.617642 0.560897
Si Si5 0.871029 0.109740 0.355351
Si Si6 0.500000 0.500000 0.869354
O O1 0.233830 0.167103 0.500000
O O2 0.250000 0.250000 0.571965
O O3 0.389843 0.158168 0.575550
O O4 0.167755 0.143062 0.592140
O O5 0.750000 0.000000 0.250000
O O6 0.788577 0.942738 0.338856
O O7 0.602280 0.000000 0.327641
O O8 0.500000 0.249839 0.332754
O O9 0.366747 0.250000 0.250000
O O10 0.250000 0.250000 0.337277
O O11 0.370516 0.342257 0.308753
O O12 0.000000 0.599890 0.500000
O O13 0.000000 0.557529 0.594033
O O14 0.000000 0.083888 0.364666
#
# Coordination Sequence:
#
# PCOD8285332 Si02
#       6
#    32  16  32  16  32   8
#     4  10  22  41  68 103 139 174 213 266 338 413
#     4  12  29  47  66  92 129 177 234 283 334 393
#     4   9  19  37  60  89 120 161 209 264 327 392
#     4  10  21  42  74 105 136 172 223 290 345 412
#     4  11  24  44  65  90 130 173 219 274 334 396
#     4  12  23  50  72  98 130 182 237 284 348 400
#
# _framework density 20.524968000000001
#
# number of rings (size 3 to 8) (size 9 to 14) (size 15 to 20)
#    0.000    1.647    2.353    1.235    6.588    0.471 
#    4.235    0.588    0.000    1.412    0.000    0.000 
#    0.000    0.000    0.000    0.000    0.000    0.000 
#
# Total GULP energy -421302.225441 kJ/mol
# GULP energy per Si atom -12391.241925 kJ/mol
# Density = 2.047825 g / cm^3
# Si number density = 20.524968 Si / 1000 Ang^3
#
#
#
# Elastic Constant Matrix: (Units=GPa)
#
#
# Indices 1 2 3 4 5 6 
#
# 1 201.9731 71.2953 44.1643 0.0000 0.0000 0.0000
# 2 71.2953 138.1431 57.5043 0.0000 0.0000 0.0000
# 3 44.1643 57.5043 99.1517 0.0000 0.0000 0.0000
# 4 0.0000 0.0000 0.0000 6.0014 0.0000 0.0000
# 5 0.0000 0.0000 0.0000 0.0000 -86.2371 0.0000
# 6 0.0000 0.0000 0.0000 0.0000 0.0000 35.4634
#
#
#
# Elastic Compliance Matrix: (Units=1/GPa)
#
#
# Indices 1 2 3 4 5 6 
#
# 1 0.006158 -0.002684 -0.001186 0.000000 0.000000 0.000000
# 2 -0.002684 0.010713 -0.005017 0.000000 0.000000 0.000000
# 3 -0.001186 -0.005017 0.013524 0.000000 0.000000 0.000000
# 4 0.000000 0.000000 0.000000 0.166629 0.000000 0.000000
# 5 0.000000 0.000000 0.000000 0.000000 -0.011596 0.000000
# 6 0.000000 0.000000 0.000000 0.000000 0.000000 0.028198
#
#
# Mechanical properties :
#
#
# Convention : Reuss Voigt Hill
#
# Bulk Modulus (GPa) = 79.24588 87.24398 83.24493
# Shear Modulus (GPa) = 21.22169 8.79914 15.01041
#
# Velocity S-wave (km/s) = 3.21899 2.07276 2.70724
# Velocity P-wave (km/s) = 7.24632 6.95176 7.10057
#
# Compressibility (1/GPa) = 0.01261895
#
# Stress axis : x y z
#
# Youngs Moduli (GPa) = 162.38759 93.34572 73.94411
#
# Poissons Ratio (x) = 0.25058 0.08770
# Poissons Ratio (y) = 0.43592 0.37100
# Poissons Ratio (z) = 0.19260 0.46835
#
# Static dielectric constant tensor:
#      x y z
#    x 4.481260 0.000000 0.000000 
#    y 0.000000 3.786200 0.000000 
#    z 0.000000 0.000000 3.543090 
# 
# 
# High freq. dielectric constant tensor:
#      x y z
#    x 1.828230 0.000000 0.000000 
#    y 0.000000 1.799830 0.000000 
#    z 0.000000 0.000000 1.801230 
# 
# From -- ./inp_files/40067.got.cif
#   From: 2010.03.12/outbox.cif.g09.slc.cpg/sg69_21_cif.got.tgz:40067.got - 2010.04.10 23:52:46.
