data_PCOD8285340
_publ_section_title
;
Structure prediction by ZEFSAII (Michael W. Deem and Ramdas Pophale) SiO2 
 PCOD8285340
Probable space group: F M M M
;
_chemical_formula_sum "Si O2"
_cell_formula_units_Z 96
_cell_length_a 10.379513
_cell_length_b 25.566882
_cell_length_c 17.665685
_cell_angle_alpha 90.000000
_cell_angle_beta 90.000000
_cell_angle_gamma 90.000000
_cell_volume 4687.974346
_symmetry_space_group_name_H-M "F M M M"
_symmetry_group_IT_number 69
_symmetry_cell_setting 'orthorhombic'
loop_
_space_group_symop_operation_xyz
x,y,z
-x,-y,z
x,-y,-z
-x,y,-z
-x,-y,-z
x,y,-z
-x,y,z
x,-y,z
x,1/2+y,1/2+z
-x,1/2-y,1/2+z
x,1/2-y,1/2-z
-x,1/2+y,1/2-z
-x,1/2-y,1/2-z
x,1/2+y,1/2-z
-x,1/2+y,1/2+z
x,1/2-y,1/2+z
1/2+x,y,1/2+z
1/2-x,-y,1/2+z
1/2+x,-y,1/2-z
1/2-x,y,1/2-z
1/2-x,-y,1/2-z
1/2+x,y,1/2-z
1/2-x,y,1/2+z
1/2+x,-y,1/2+z
1/2+x,1/2+y,z
1/2-x,1/2-y,z
1/2+x,1/2-y,-z
1/2-x,1/2+y,-z
1/2-x,1/2-y,-z
1/2+x,1/2+y,-z
1/2-x,1/2+y,z
1/2+x,1/2-y,z
loop_
_atom_site_type_symbol
_atom_site_label
_atom_site_fract_x
_atom_site_fract_y
_atom_site_fract_z
Si Si1 0.257096 0.396791 0.339854
Si Si2 0.000000 0.438470 0.589804
Si Si3 0.146288 0.708189 0.088796
Si Si4 0.359804 0.000000 0.812473
O O1 0.250000 0.389378 0.250000
O O2 0.327071 0.347010 0.373491
O O3 0.343535 0.447561 0.361984
O O4 0.118511 0.406705 0.375730
O O5 0.000000 0.500000 0.612681
O O6 0.000000 0.432291 0.500000
O O7 0.250000 0.750000 0.120579
O O8 0.000000 0.726445 0.108220
O O9 0.164990 0.701310 0.000000
O O10 0.250000 0.000000 0.750000
O O11 0.500000 0.000000 0.773214
#
# Coordination Sequence:
#
# PCOD8285340 Si02
#       4
#    32  16  32  16
#     4  11  24  38  67  94 134 167 221 267 329 382
#     4  11  24  42  64  99 137 183 227 265 319 402
#     4  10  23  44  66  90 123 167 216 268 330 395
#     4  10  22  36  60  91 135 173 209 259 331 391
#
# _framework density 20.477927000000001
#
# number of rings (size 3 to 8) (size 9 to 14) (size 15 to 20)
#    0.000    1.500    1.667    2.000   14.000    0.667 
#    0.000    1.667    0.000    4.000    0.000    0.000 
#    0.000    0.000    0.000    0.000    0.000    0.000 
#
# Total GULP energy -297510.924056 kJ/mol
# GULP energy per Si atom -12396.288502 kJ/mol
# Density = 2.043132 g / cm^3
# Si number density = 20.477927 Si / 1000 Ang^3
#
#
#
# Elastic Constant Matrix: (Units=GPa)
#
#
# Indices 1 2 3 4 5 6 
#
# 1 171.7999 69.5762 55.8386 0.0000 0.0000 0.0000
# 2 69.5762 166.0086 38.3774 0.0000 0.0000 0.0000
# 3 55.8386 38.3774 65.1914 0.0000 0.0000 0.0000
# 4 0.0000 0.0000 0.0000 39.4278 0.0000 0.0000
# 5 0.0000 0.0000 0.0000 0.0000 21.9815 0.0000
# 6 0.0000 0.0000 0.0000 0.0000 0.0000 39.9805
#
#
#
# Elastic Compliance Matrix: (Units=1/GPa)
#
#
# Indices 1 2 3 4 5 6 
#
# 1 0.008728 -0.002234 -0.006161 0.000000 0.000000 0.000000
# 2 -0.002234 0.007544 -0.002528 0.000000 0.000000 0.000000
# 3 -0.006161 -0.002528 0.022104 0.000000 0.000000 0.000000
# 4 0.000000 0.000000 0.000000 0.025363 0.000000 0.000000
# 5 0.000000 0.000000 0.000000 0.000000 0.045493 0.000000
# 6 0.000000 0.000000 0.000000 0.000000 0.000000 0.025012
#
#
# Mechanical properties :
#
#
# Convention : Reuss Voigt Hill
#
# Bulk Modulus (GPa) = 60.48946 81.17602 70.83274
# Shear Modulus (GPa) = 30.94071 36.22516 33.58294
#
# Velocity S-wave (km/s) = 3.89128 4.21049 4.05403
# Velocity P-wave (km/s) = 7.05638 7.96018 7.52187
#
# Compressibility (1/GPa) = 0.01653181
#
# Stress axis : x y z
#
# Youngs Moduli (GPa) = 114.57848 132.54906 45.23982
#
# Poissons Ratio (x) = 0.29607 0.27870
# Poissons Ratio (y) = 0.25593 0.11437
# Poissons Ratio (z) = 0.70587 0.33509
#
# Static dielectric constant tensor:
#      x y z
#    x 7.256200 0.000000 0.000000 
#    y 0.000000 4.279530 0.000000 
#    z 0.000000 0.000000 3.379170 
# 
# 
# High freq. dielectric constant tensor:
#      x y z
#    x 1.818360 0.000000 0.000000 
#    y 0.000000 1.812330 0.000000 
#    z 0.000000 0.000000 1.781280 
# 
# From -- ./inp_files/20707.got.cif
#   From: 2010.03.12/outbox.cif.g09.slc.cpg/sg69_11_cif.got.tgz:20707.got - 2010.04.10 23:52:46.
