data_PCOD8285123
_publ_section_title
;
Structure prediction by ZEFSAII (Michael W. Deem and Ramdas Pophale) SiO2 
 PCOD8285123
Probable space group: F M M M
;
_chemical_formula_sum "Si O2"
_cell_formula_units_Z 168
_cell_length_a 29.268884
_cell_length_b 15.465941
_cell_length_c 19.452814
_cell_angle_alpha 90.000000
_cell_angle_beta 90.000000
_cell_angle_gamma 90.000000
_cell_volume 8805.721519
_symmetry_space_group_name_H-M "F M M M"
_symmetry_group_IT_number 69
_symmetry_cell_setting 'orthorhombic'
loop_
_space_group_symop_operation_xyz
x,y,z
-x,-y,z
x,-y,-z
-x,y,-z
-x,-y,-z
x,y,-z
-x,y,z
x,-y,z
x,1/2+y,1/2+z
-x,1/2-y,1/2+z
x,1/2-y,1/2-z
-x,1/2+y,1/2-z
-x,1/2-y,1/2-z
x,1/2+y,1/2-z
-x,1/2+y,1/2+z
x,1/2-y,1/2+z
1/2+x,y,1/2+z
1/2-x,-y,1/2+z
1/2+x,-y,1/2-z
1/2-x,y,1/2-z
1/2-x,-y,1/2-z
1/2+x,y,1/2-z
1/2-x,y,1/2+z
1/2+x,-y,1/2+z
1/2+x,1/2+y,z
1/2-x,1/2-y,z
1/2+x,1/2-y,-z
1/2-x,1/2+y,-z
1/2-x,1/2-y,-z
1/2+x,1/2+y,-z
1/2-x,1/2+y,z
1/2+x,1/2-y,z
loop_
_atom_site_type_symbol
_atom_site_label
_atom_site_fract_x
_atom_site_fract_y
_atom_site_fract_z
Si Si1 0.500000 0.313364 0.578839
Si Si2 0.000000 0.000000 0.632138
Si Si3 0.096305 0.246709 0.578521
Si Si4 0.332968 0.401480 0.575499
Si Si5 0.202955 0.899083 0.719316
Si Si6 0.887854 0.665588 0.711168
Si Si7 0.551072 0.000000 0.262644
O O1 0.500000 0.290485 0.500000
O O2 0.500000 0.416152 0.585286
O O3 0.454454 0.269731 0.609274
O O4 0.045338 0.000000 0.680153
O O5 0.097021 0.282170 0.500000
O O6 0.121981 0.155563 0.582977
O O7 0.119312 0.315845 0.629719
O O8 0.309847 0.385660 0.500000
O O9 0.349893 0.500000 0.582170
O O10 0.297549 0.380503 0.637017
O O11 0.250000 0.861414 0.750000
O O12 0.161227 0.852390 0.756133
O O13 0.198787 0.000000 0.735754
O O14 0.908440 0.750000 0.750000
O O15 0.921896 0.585473 0.716339
O O16 0.500000 0.000000 0.297219
#
# Coordination Sequence:
#
# PCOD8285123 Si02
#       7
#    16   8  32  32  32  32  16
#     4  10  21  33  52  82 121 158 196 241 307 372
#     4  10  21  32  52  86 121 148 190 252 296 364
#     4  10  22  37  55  84 118 159 203 251 299 357
#     4   9  18  34  58  85 119 155 192 243 313 372
#     4  10  21  38  62  91 123 157 201 253 306 364
#     4  12  22  40  64  86 120 164 200 254 303 358
#     4  10  26  39  58  91 122 153 207 251 299 359
#
# _framework density 19.078503999999999
#
# number of rings (size 3 to 8) (size 9 to 14) (size 15 to 20)
#    0.286    1.524    2.857    1.286    2.667    0.762 
#    0.000    1.429    0.000    4.000    0.000    0.000 
#    0.000    0.000    0.000    0.000    0.000    0.000 
#
# Total GULP energy -520560.878601 kJ/mol
# GULP energy per Si atom -12394.306633 kJ/mol
# Density = 1.903508 g / cm^3
# Si number density = 19.078504 Si / 1000 Ang^3
#
#
#
# Elastic Constant Matrix: (Units=GPa)
#
#
# Indices 1 2 3 4 5 6 
#
# 1 105.2036 45.1585 71.4831 0.0000 0.0000 0.0000
# 2 45.1585 89.8545 47.9705 0.0000 0.0000 0.0000
# 3 71.4831 47.9705 139.7447 0.0000 0.0000 0.0000
# 4 0.0000 0.0000 0.0000 32.2118 0.0000 0.0000
# 5 0.0000 0.0000 0.0000 0.0000 26.8545 0.0000
# 6 0.0000 0.0000 0.0000 0.0000 0.0000 13.0485
#
#
#
# Elastic Compliance Matrix: (Units=1/GPa)
#
#
# Indices 1 2 3 4 5 6 
#
# 1 0.015912 -0.004471 -0.006605 0.000000 0.000000 0.000000
# 2 -0.004471 0.014883 -0.002822 0.000000 0.000000 0.000000
# 3 -0.006605 -0.002822 0.011503 0.000000 0.000000 0.000000
# 4 0.000000 0.000000 0.000000 0.031045 0.000000 0.000000
# 5 0.000000 0.000000 0.000000 0.000000 0.037238 0.000000
# 6 0.000000 0.000000 0.000000 0.000000 0.000000 0.076637
#
#
# Mechanical properties :
#
#
# Convention : Reuss Voigt Hill
#
# Bulk Modulus (GPa) = 68.95197 73.78079 71.36638
# Shear Modulus (GPa) = 22.74310 25.76900 24.25605
#
# Velocity S-wave (km/s) = 3.45640 3.67915 3.56951
# Velocity P-wave (km/s) = 7.22140 7.53687 7.38082
#
# Compressibility (1/GPa) = 0.01450285
#
# Stress axis : x y z
#
# Youngs Moduli (GPa) = 62.84423 67.19272 86.93336
#
# Poissons Ratio (x) = 0.30042 0.57418
# Poissons Ratio (y) = 0.28098 0.24530
# Poissons Ratio (z) = 0.41507 0.18960
#
# Static dielectric constant tensor:
#      x y z
#    x 3.556090 0.000000 0.000000 
#    y 0.000000 3.340510 0.000000 
#    z 0.000000 0.000000 3.782610 
# 
# 
# High freq. dielectric constant tensor:
#      x y z
#    x 1.725410 0.000000 0.000000 
#    y 0.000000 1.731000 0.000000 
#    z 0.000000 0.000000 1.748820 
# 
# From -- ./inp_files/33925.got.cif
#   From: 2010.03.12/outbox.cif.g09.slc.cpg/sg69_17_cif.got.tgz:33925.got - 2010.04.10 23:52:46.
