data_PCOD8285990
_publ_section_title
;
Structure prediction by ZEFSAII (Michael W. Deem and Ramdas Pophale) SiO2 
 PCOD8285990
Probable space group: F D D D
;
_chemical_formula_sum "Si O2"
_cell_formula_units_Z 120
_cell_length_a 7.162006
_cell_length_b 24.897379
_cell_length_c 27.045205
_cell_angle_alpha 90.000000
_cell_angle_beta 90.000000
_cell_angle_gamma 90.000000
_cell_volume 4822.570538
_symmetry_space_group_name_H-M "F D D D"
_symmetry_group_IT_number 70
_space_group.IT_coordinate_system_code '2'
_symmetry_cell_setting 'orthorhombic'
loop_
_space_group_symop_operation_xyz
x,y,z
1/4-x,1/4-y,z
x,1/4-y,1/4-z
1/4-x,y,1/4-z
-x,-y,-z
3/4+x,3/4+y,-z
-x,3/4+y,3/4+z
3/4+x,-y,3/4+z
x,1/2+y,1/2+z
1/4-x,3/4-y,1/2+z
x,3/4-y,3/4-z
1/4-x,1/2+y,3/4-z
-x,1/2-y,1/2-z
3/4+x,1/4+y,1/2-z
-x,1/4+y,1/4+z
3/4+x,1/2-y,1/4+z
1/2+x,y,1/2+z
3/4-x,1/4-y,1/2+z
1/2+x,1/4-y,3/4-z
3/4-x,y,3/4-z
1/2-x,-y,1/2-z
1/4+x,3/4+y,1/2-z
1/2-x,3/4+y,1/4+z
1/4+x,-y,1/4+z
1/2+x,1/2+y,z
3/4-x,3/4-y,z
1/2+x,3/4-y,1/4-z
3/4-x,1/2+y,1/4-z
1/2-x,1/2-y,-z
1/4+x,1/4+y,-z
1/2-x,1/4+y,3/4+z
1/4+x,1/2-y,3/4+z
loop_
_atom_site_type_symbol
_atom_site_label
_atom_site_fract_x
_atom_site_fract_y
_atom_site_fract_z
Si Si1 0.950829 0.025054 0.926684
Si Si2 0.125000 0.625000 0.625000
Si Si3 0.625000 0.125000 0.793090
Si Si4 0.253397 0.458827 0.475881
Si Si5 0.884905 0.661793 0.538101
O O1 0.875000 0.004490 0.875000
O O2 0.991190 0.089106 0.922827
O O3 0.795096 0.015845 0.969819
O O4 0.140284 0.991423 0.934710
O O5 0.253283 0.586564 0.590205
O O6 0.525037 0.079606 0.758216
O O7 0.191537 0.397492 0.471895
O O8 0.475774 0.457989 0.464321
#
# Coordination Sequence:
#
# PCOD8285990 Si02
#       5
#    32   8  16  32  32
#     4  10  21  38  64  92 133 177 225 272 336 399
#     4  10  20  34  68  96 126 176 204 260 344 424
#     4   9  20  37  60  94 130 178 218 281 323 386
#     4   9  20  38  61  93 134 170 216 281 332 396
#     4   9  19  38  64  93 131 170 216 275 339 399
#
# _framework density 24.882995999999999
#
# number of rings (size 3 to 8) (size 9 to 14) (size 15 to 20)
#    0.000    2.667    0.000    0.000    1.867    7.467 
#    0.000    0.000   11.733    0.000    0.000    0.000 
#    0.000    0.000    0.000    0.000    0.000    0.000 
#
# Total GULP energy -371875.302073 kJ/mol
# GULP energy per Si atom -12395.843402 kJ/mol
# Density = 2.482636 g / cm^3
# Si number density = 24.882996 Si / 1000 Ang^3
#
#
#
# Elastic Constant Matrix: (Units=GPa)
#
#
# Indices 1 2 3 4 5 6 
#
# 1 178.4386 39.0515 76.2880 0.0000 0.0000 0.0000
# 2 39.0515 61.0741 43.8909 0.0000 0.0000 0.0000
# 3 76.2880 43.8909 157.9504 0.0000 0.0000 0.0000
# 4 0.0000 0.0000 0.0000 4.5938 0.0000 0.0000
# 5 0.0000 0.0000 0.0000 0.0000 21.1798 0.0000
# 6 0.0000 0.0000 0.0000 0.0000 0.0000 51.7897
#
#
#
# Elastic Compliance Matrix: (Units=1/GPa)
#
#
# Indices 1 2 3 4 5 6 
#
# 1 0.007403 -0.002704 -0.002824 0.000000 0.000000 0.000000
# 2 -0.002704 0.021447 -0.004654 0.000000 0.000000 0.000000
# 3 -0.002824 -0.004654 0.008988 0.000000 0.000000 0.000000
# 4 0.000000 0.000000 0.000000 0.217687 0.000000 0.000000
# 5 0.000000 0.000000 0.000000 0.000000 0.047215 0.000000
# 6 0.000000 0.000000 0.000000 0.000000 0.000000 0.019309
#
#
# Mechanical properties :
#
#
# Convention : Reuss Voigt Hill
#
# Bulk Modulus (GPa) = 57.22593 79.54711 68.38652
# Shear Modulus (GPa) = 14.35798 31.39483 22.87641
#
# Velocity S-wave (km/s) = 2.40473 3.55589 3.03538
# Velocity P-wave (km/s) = 5.54601 6.99264 6.31091
#
# Compressibility (1/GPa) = 0.01747460
#
# Stress axis : x y z
#
# Youngs Moduli (GPa) = 135.07172 46.62684 111.25516
#
# Poissons Ratio (x) = 0.12609 0.31422
# Poissons Ratio (y) = 0.36525 0.51773
# Poissons Ratio (z) = 0.38149 0.21698
#
# Static dielectric constant tensor:
#      x y z
#    x 5.210080 0.000000 0.000000 
#    y 0.000000 4.475410 0.000000 
#    z 0.000000 0.000000 4.189850 
# 
# 
# High freq. dielectric constant tensor:
#      x y z
#    x 1.991770 0.000000 0.000000 
#    y 0.000000 2.019750 0.000000 
#    z 0.000000 0.000000 1.965100 
# 
# From -- ./inp_files/56515.got.cif
#   From: 2010.03.12/outbox.cif.g09.slc.cpg/sg70_29_cif.got.tgz:56515.got - 2010.04.16 13:46:32.
