data_PCOD8285211
_publ_section_title
;
Structure prediction by ZEFSAII (Michael W. Deem and Ramdas Pophale) SiO2 
 PCOD8285211
Probable space group: F M M M
;
_chemical_formula_sum "Si O2"
_cell_formula_units_Z 208
_cell_length_a 20.128700
_cell_length_b 16.582235
_cell_length_c 29.457243
_cell_angle_alpha 90.000000
_cell_angle_beta 90.000000
_cell_angle_gamma 90.000000
_cell_volume 9832.204211
_symmetry_space_group_name_H-M "F M M M"
_symmetry_group_IT_number 69
_symmetry_cell_setting 'orthorhombic'
loop_
_space_group_symop_operation_xyz
x,y,z
-x,-y,z
x,-y,-z
-x,y,-z
-x,-y,-z
x,y,-z
-x,y,z
x,-y,z
x,1/2+y,1/2+z
-x,1/2-y,1/2+z
x,1/2-y,1/2-z
-x,1/2+y,1/2-z
-x,1/2-y,1/2-z
x,1/2+y,1/2-z
-x,1/2+y,1/2+z
x,1/2-y,1/2+z
1/2+x,y,1/2+z
1/2-x,-y,1/2+z
1/2+x,-y,1/2-z
1/2-x,y,1/2-z
1/2-x,-y,1/2-z
1/2+x,y,1/2-z
1/2-x,y,1/2+z
1/2+x,-y,1/2+z
1/2+x,1/2+y,z
1/2-x,1/2-y,z
1/2+x,1/2-y,-z
1/2-x,1/2+y,-z
1/2-x,1/2-y,-z
1/2+x,1/2+y,-z
1/2-x,1/2+y,z
1/2+x,1/2-y,z
loop_
_atom_site_type_symbol
_atom_site_label
_atom_site_fract_x
_atom_site_fract_y
_atom_site_fract_z
Si Si1 0.574929 0.847424 0.905883
Si Si2 0.309700 0.095685 0.448030
Si Si3 0.924214 0.404704 0.289402
Si Si4 0.687173 0.404605 0.278179
Si Si5 0.577073 0.836881 0.612996
Si Si6 0.795458 0.409634 0.875786
Si Si7 0.575663 0.911395 0.000000
O O1 0.500000 0.875054 0.894089
O O2 0.589262 0.758323 0.888140
O O3 0.625980 0.911301 0.885575
O O4 0.591623 0.852254 0.958872
O O5 0.302668 0.129168 0.500000
O O6 0.379920 0.121241 0.426330
O O7 0.250153 0.131083 0.415380
O O8 0.305756 0.000000 0.449941
O O9 0.915581 0.500000 0.294913
O O10 0.878799 0.371683 0.247805
O O11 0.900826 0.366822 0.337206
O O12 0.000000 0.380416 0.278172
O O13 0.678845 0.500000 0.284207
O O14 0.750000 0.378972 0.250000
O O15 0.704642 0.364672 0.326991
O O16 0.500000 0.858499 0.603538
O O17 0.768331 0.500000 0.870498
O O18 0.500000 0.936666 0.000000
O O19 0.613950 0.000000 0.000000
#
# Coordination Sequence:
#
# PCOD8285211 Si02
#       7
#    32  32  32  32  32  32  16
#     4  10  22  37  56  84 115 148 190 234 281 341
#     4  10  22  38  57  83 113 148 192 238 285 342
#     4   9  17  31  54  83 112 146 188 231 282 343
#     4   9  17  31  54  81 108 141 185 236 285 335
#     4  10  21  37  57  81 116 153 187 233 287 341
#     4  10  21  37  58  83 113 149 189 240 291 336
#     4   9  18  34  56  79 105 145 192 235 277 321
#
# _framework density 21.154971
#
# number of rings (size 3 to 8) (size 9 to 14) (size 15 to 20)
#    0.000    2.385    0.000    1.846    2.154    5.846 
#    0.000    3.846    0.000    3.692    0.000    0.000 
#    0.000    0.000    0.000    0.000    0.000    0.000 
#
# Total GULP energy -644183.151128 kJ/mol
# GULP energy per Si atom -12388.137522 kJ/mol
# Density = 2.110682 g / cm^3
# Si number density = 21.154971 Si / 1000 Ang^3
#
#
#
# Elastic Constant Matrix: (Units=GPa)
#
#
# Indices 1 2 3 4 5 6 
#
# 1 125.0742 12.7543 85.8056 0.0000 0.0000 0.0000
# 2 12.7543 27.0093 17.5519 0.0000 0.0000 0.0000
# 3 85.8056 17.5519 190.7255 0.0000 0.0000 0.0000
# 4 0.0000 0.0000 0.0000 12.5987 0.0000 0.0000
# 5 0.0000 0.0000 0.0000 0.0000 39.6926 0.0000
# 6 0.0000 0.0000 0.0000 0.0000 0.0000 20.7407
#
#
#
# Elastic Compliance Matrix: (Units=1/GPa)
#
#
# Indices 1 2 3 4 5 6 
#
# 1 0.011690 -0.002236 -0.005054 0.000000 0.000000 0.000000
# 2 -0.002236 0.039807 -0.002657 0.000000 0.000000 0.000000
# 3 -0.005054 -0.002657 0.007761 0.000000 0.000000 0.000000
# 4 0.000000 0.000000 0.000000 0.079373 0.000000 0.000000
# 5 0.000000 0.000000 0.000000 0.000000 0.025194 0.000000
# 6 0.000000 0.000000 0.000000 0.000000 0.000000 0.048214
#
#
# Mechanical properties :
#
#
# Convention : Reuss Voigt Hill
#
# Bulk Modulus (GPa) = 25.40369 63.89252 44.64810
# Shear Modulus (GPa) = 20.40355 29.71955 25.06155
#
# Velocity S-wave (km/s) = 3.10898 3.75220 3.44563
# Velocity P-wave (km/s) = 4.99220 7.00283 6.08119
#
# Compressibility (1/GPa) = 0.03936436
#
# Stress axis : x y z
#
# Youngs Moduli (GPa) = 85.54175 25.12116 128.84609
#
# Poissons Ratio (x) = 0.05618 0.65112
# Poissons Ratio (y) = 0.19130 0.34237
# Poissons Ratio (z) = 0.43229 0.06675
#
# Static dielectric constant tensor:
#      x y z
#    x 3.953310 0.000000 0.000000 
#    y 0.000000 3.344180 0.000000 
#    z 0.000000 0.000000 2.435880 
# 
# 
# High freq. dielectric constant tensor:
#      x y z
#    x 1.833840 0.000000 0.000000 
#    y 0.000000 1.788310 0.000000 
#    z 0.000000 0.000000 1.843670 
# 
# From -- ./inp_files/42742.got.cif
#   From: 2010.03.12/outbox.cif.g09.slc.cpg/sg69_22_cif.got.tgz:42742.got - 2010.04.10 23:52:46.
