data_PCOD8285020
_publ_section_title
;
Structure prediction by ZEFSAII (Michael W. Deem and Ramdas Pophale) SiO2 
 PCOD8285020
Probable space group: F M M M
;
_chemical_formula_sum "Si O2"
_cell_formula_units_Z 192
_cell_length_a 19.592286
_cell_length_b 16.312292
_cell_length_c 30.058084
_cell_angle_alpha 90.000000
_cell_angle_beta 90.000000
_cell_angle_gamma 90.000000
_cell_volume 9606.416067
_symmetry_space_group_name_H-M "F M M M"
_symmetry_group_IT_number 69
_symmetry_cell_setting 'orthorhombic'
loop_
_space_group_symop_operation_xyz
x,y,z
-x,-y,z
x,-y,-z
-x,y,-z
-x,-y,-z
x,y,-z
-x,y,z
x,-y,z
x,1/2+y,1/2+z
-x,1/2-y,1/2+z
x,1/2-y,1/2-z
-x,1/2+y,1/2-z
-x,1/2-y,1/2-z
x,1/2+y,1/2-z
-x,1/2+y,1/2+z
x,1/2-y,1/2+z
1/2+x,y,1/2+z
1/2-x,-y,1/2+z
1/2+x,-y,1/2-z
1/2-x,y,1/2-z
1/2-x,-y,1/2-z
1/2+x,y,1/2-z
1/2-x,y,1/2+z
1/2+x,-y,1/2+z
1/2+x,1/2+y,z
1/2-x,1/2-y,z
1/2+x,1/2-y,-z
1/2-x,1/2+y,-z
1/2-x,1/2-y,-z
1/2+x,1/2+y,-z
1/2-x,1/2+y,z
1/2+x,1/2-y,z
loop_
_atom_site_type_symbol
_atom_site_label
_atom_site_fract_x
_atom_site_fract_y
_atom_site_fract_z
Si Si1 0.831304 0.747616 0.549142
Si Si2 0.422636 0.092909 0.573560
Si Si3 0.112513 0.363509 0.668464
Si Si4 0.000000 0.403879 0.165891
Si Si5 0.632451 0.180783 0.139563
Si Si6 0.500000 0.596513 0.764552
Si Si7 0.743143 0.907215 0.199905
O O1 0.854388 0.777840 0.500000
O O2 0.750000 0.750000 0.551560
O O3 0.865503 0.657180 0.556230
O O4 0.853062 0.811365 0.587002
O O5 0.500000 0.116363 0.557571
O O6 0.423590 0.092778 0.627044
O O7 0.404972 0.000000 0.557199
O O8 0.119159 0.268017 0.660537
O O9 0.068224 0.372850 0.712378
O O10 0.184533 0.406516 0.675860
O O11 0.066417 0.375301 0.139997
O O12 0.000000 0.500000 0.167913
O O13 0.000000 0.365567 0.215280
O O14 0.693171 0.143309 0.168432
O O15 0.500000 0.500000 0.762663
O O16 0.750000 0.869945 0.250000
O O17 0.715272 0.000000 0.203358
#
# Coordination Sequence:
#
# PCOD8285020 Si02
#       7
#    32  32  32  16  32  16  32
#     4  10  23  43  66  93 122 160 205 250 310 378
#     4  10  20  36  62  97 131 163 199 251 323 388
#     4  11  21  34  57  88 120 158 199 247 301 365
#     4  11  25  41  58  80 114 161 210 250 295 352
#     4  11  23  40  61  86 118 160 201 252 306 353
#     4  11  21  35  55  83 120 160 199 246 299 360
#     4  11  23  38  58  86 122 164 207 251 305 366
#
# _framework density 19.986643000000001
#
# number of rings (size 3 to 8) (size 9 to 14) (size 15 to 20)
#    0.000    1.333    0.833    6.000    3.500    7.333 
#    0.000    1.667    0.000    4.500    0.000    0.000 
#    0.000    0.000    0.000    0.000    0.000    0.000 
#
# Total GULP energy -595073.922204 kJ/mol
# GULP energy per Si atom -12397.373379 kJ/mol
# Density = 1.994115 g / cm^3
# Si number density = 19.986643 Si / 1000 Ang^3
#
#
#
# Elastic Constant Matrix: (Units=GPa)
#
#
# Indices 1 2 3 4 5 6 
#
# 1 139.6004 44.7899 54.5353 0.0000 0.0000 0.0000
# 2 44.7899 82.7236 48.5918 0.0000 0.0000 0.0000
# 3 54.5353 48.5918 159.5328 0.0000 0.0000 0.0000
# 4 0.0000 0.0000 0.0000 7.4340 0.0000 0.0000
# 5 0.0000 0.0000 0.0000 0.0000 20.8222 0.0000
# 6 0.0000 0.0000 0.0000 0.0000 0.0000 40.0875
#
#
#
# Elastic Compliance Matrix: (Units=1/GPa)
#
#
# Indices 1 2 3 4 5 6 
#
# 1 0.009152 -0.003797 -0.001972 0.000000 0.000000 0.000000
# 2 -0.003797 0.016298 -0.003666 0.000000 0.000000 0.000000
# 3 -0.001972 -0.003666 0.008059 0.000000 0.000000 0.000000
# 4 0.000000 0.000000 0.000000 0.134517 0.000000 0.000000
# 5 0.000000 0.000000 0.000000 0.000000 0.048026 0.000000
# 6 0.000000 0.000000 0.000000 0.000000 0.000000 0.024945
#
#
# Mechanical properties :
#
#
# Convention : Reuss Voigt Hill
#
# Bulk Modulus (GPa) = 68.31245 75.29899 71.80572
# Shear Modulus (GPa) = 18.88604 29.26474 24.07539
#
# Velocity S-wave (km/s) = 3.07731 3.83066 3.47446
# Velocity P-wave (km/s) = 6.84688 7.57111 7.21808
#
# Compressibility (1/GPa) = 0.01463862
#
# Stress axis : x y z
#
# Youngs Moduli (GPa) = 109.26728 61.35836 124.08316
#
# Poissons Ratio (x) = 0.23297 0.24470
# Poissons Ratio (y) = 0.41487 0.45491
# Poissons Ratio (z) = 0.21548 0.22495
#
# Static dielectric constant tensor:
#      x y z
#    x 3.745430 0.000000 0.000000 
#    y 0.000000 3.632230 0.000000 
#    z 0.000000 0.000000 4.013090 
# 
# 
# High freq. dielectric constant tensor:
#      x y z
#    x 1.792270 0.000000 0.000000 
#    y 0.000000 1.774270 0.000000 
#    z 0.000000 0.000000 1.783860 
# 
# From -- ./inp_files/46448.got.cif
#   From: 2010.03.12/outbox.cif.g09.slc.cpg/sg69_24_cif.got.tgz:46448.got - 2010.04.10 23:52:46.
