data_PCOD8285872
_publ_section_title
;
Structure prediction by ZEFSAII (Michael W. Deem and Ramdas Pophale) SiO2 
 PCOD8285872
Probable space group: F D D D
;
_chemical_formula_sum "Si O2"
_cell_formula_units_Z 240
_cell_length_a 28.563255
_cell_length_b 20.475058
_cell_length_c 20.355326
_cell_angle_alpha 90.000000
_cell_angle_beta 90.000000
_cell_angle_gamma 90.000000
_cell_volume 11904.492889
_symmetry_space_group_name_H-M "F D D D"
_symmetry_group_IT_number 70
_space_group.IT_coordinate_system_code '2'
_symmetry_cell_setting 'orthorhombic'
loop_
_space_group_symop_operation_xyz
x,y,z
1/4-x,1/4-y,z
x,1/4-y,1/4-z
1/4-x,y,1/4-z
-x,-y,-z
3/4+x,3/4+y,-z
-x,3/4+y,3/4+z
3/4+x,-y,3/4+z
x,1/2+y,1/2+z
1/4-x,3/4-y,1/2+z
x,3/4-y,3/4-z
1/4-x,1/2+y,3/4-z
-x,1/2-y,1/2-z
3/4+x,1/4+y,1/2-z
-x,1/4+y,1/4+z
3/4+x,1/2-y,1/4+z
1/2+x,y,1/2+z
3/4-x,1/4-y,1/2+z
1/2+x,1/4-y,3/4-z
3/4-x,y,3/4-z
1/2-x,-y,1/2-z
1/4+x,3/4+y,1/2-z
1/2-x,3/4+y,1/4+z
1/4+x,-y,1/4+z
1/2+x,1/2+y,z
3/4-x,3/4-y,z
1/2+x,3/4-y,1/4-z
3/4-x,1/2+y,1/4-z
1/2-x,1/2-y,-z
1/4+x,1/4+y,-z
1/2-x,1/4+y,3/4+z
1/4+x,1/2-y,3/4+z
loop_
_atom_site_type_symbol
_atom_site_label
_atom_site_fract_x
_atom_site_fract_y
_atom_site_fract_z
Si Si1 0.901310 0.164641 0.989303
Si Si2 0.979601 0.247406 0.931313
Si Si3 0.169607 0.091379 0.810247
Si Si4 0.759102 0.601854 0.468568
Si Si5 0.310690 0.733900 0.960296
Si Si6 0.416473 0.991534 0.175709
Si Si7 0.866699 0.125000 0.125000
Si Si8 0.895127 0.036795 0.808825
O O1 0.952244 0.192762 0.973331
O O2 0.865638 0.218102 0.960674
O O3 0.890607 0.096601 0.952956
O O4 0.898688 0.156118 0.068051
O O5 0.955081 0.257708 0.861225
O O6 0.030520 0.216169 0.922926
O O7 0.986810 0.316696 0.967574
O O8 0.125000 0.125000 0.774527
O O9 0.213401 0.139138 0.828911
O O10 0.196621 0.041594 0.762154
O O11 0.143292 0.055983 0.871976
O O12 0.783016 0.670748 0.487710
O O13 0.800196 0.558777 0.434539
O O14 0.415547 0.068277 0.155904
O O15 0.392598 0.985610 0.247725
O O16 0.875000 0.002701 0.875000
#
# Coordination Sequence:
#
# PCOD8285872 Si02
#       8
#    32  32  32  32  32  32  16  32
#     4  10  19  34  56  85 117 159 200 255 299 360
#     4  11  22  34  59  90 123 157 206 254 307 359
#     4  12  24  38  56  81 126 169 205 245 303 366
#     4  10  22  36  55  89 118 164 202 255 299 370
#     4  11  21  38  57  81 125 170 207 245 295 368
#     4  10  22  37  60  84 114 161 200 247 306 373
#     4  10  20  38  60  78 117 164 209 242 300 374
#     4   9  19  36  61  85 110 147 206 253 304 364
#
# _framework density 20.160454999999999
#
# number of rings (size 3 to 8) (size 9 to 14) (size 15 to 20)
#    0.000    1.600    2.667    4.000    0.000    0.533 
#    0.000    0.667    0.000    4.400    0.000    0.000 
#    0.000    0.000    0.000    0.000    0.000    0.000 
#
# Total GULP energy -743401.111596 kJ/mol
# GULP energy per Si atom -12390.018527 kJ/mol
# Density = 2.011457 g / cm^3
# Si number density = 20.160455 Si / 1000 Ang^3
#
#
#
# Elastic Constant Matrix: (Units=GPa)
#
#
# Indices 1 2 3 4 5 6 
#
# 1 75.6974 20.2938 34.0893 0.0000 0.0000 0.0000
# 2 20.2938 50.7086 36.8748 0.0000 0.0000 0.0000
# 3 34.0893 36.8748 157.7725 0.0000 0.0000 0.0000
# 4 0.0000 0.0000 0.0000 27.5865 0.0000 0.0000
# 5 0.0000 0.0000 0.0000 0.0000 25.7061 0.0000
# 6 0.0000 0.0000 0.0000 0.0000 0.0000 23.6262
#
#
#
# Elastic Compliance Matrix: (Units=1/GPa)
#
#
# Indices 1 2 3 4 5 6 
#
# 1 0.015451 -0.004525 -0.002281 0.000000 0.000000 0.000000
# 2 -0.004525 0.025084 -0.004885 0.000000 0.000000 0.000000
# 3 -0.002281 -0.004885 0.007973 0.000000 0.000000 0.000000
# 4 0.000000 0.000000 0.000000 0.036250 0.000000 0.000000
# 5 0.000000 0.000000 0.000000 0.000000 0.038901 0.000000
# 6 0.000000 0.000000 0.000000 0.000000 0.000000 0.042326
#
#
# Mechanical properties :
#
#
# Convention : Reuss Voigt Hill
#
# Bulk Modulus (GPa) = 39.79950 51.85493 45.82722
# Shear Modulus (GPa) = 25.28568 28.24514 26.76541
#
# Velocity S-wave (km/s) = 3.54534 3.74708 3.64760
# Velocity P-wave (km/s) = 6.04512 6.67066 6.36558
#
# Compressibility (1/GPa) = 0.02512594
#
# Stress axis : x y z
#
# Youngs Moduli (GPa) = 64.72194 39.86654 125.42710
#
# Poissons Ratio (x) = 0.18039 0.28608
# Poissons Ratio (y) = 0.29286 0.61270
# Poissons Ratio (z) = 0.14762 0.19475
#
# Static dielectric constant tensor:
#      x y z
#    x 3.643610 0.000000 0.000000 
#    y 0.000000 3.523130 0.000000 
#    z 0.000000 0.000000 3.764040 
# 
# 
# High freq. dielectric constant tensor:
#      x y z
#    x 1.786110 0.000000 0.000000 
#    y 0.000000 1.756710 0.000000 
#    z 0.000000 0.000000 1.780780 
# 
# From -- ./inp_files/47817.got.cif
#   From: 2010.03.12/outbox.cif.g09.slc.cpg/sg70_24_cif.got.tgz:47817.got - 2010.04.16 13:46:32.
