data_PCOD8285988
_publ_section_title
;
Structure prediction by ZEFSAII (Michael W. Deem and Ramdas Pophale) SiO2 
 PCOD8285988
Probable space group: F D D D
;
_chemical_formula_sum "Si O2"
_cell_formula_units_Z 176
_cell_length_a 33.588163
_cell_length_b 11.034831
_cell_length_c 23.675851
_cell_angle_alpha 90.000000
_cell_angle_beta 90.000000
_cell_angle_gamma 90.000000
_cell_volume 8775.210366
_symmetry_space_group_name_H-M "F D D D"
_symmetry_group_IT_number 70
_space_group.IT_coordinate_system_code '2'
_symmetry_cell_setting 'orthorhombic'
loop_
_space_group_symop_operation_xyz
x,y,z
1/4-x,1/4-y,z
x,1/4-y,1/4-z
1/4-x,y,1/4-z
-x,-y,-z
3/4+x,3/4+y,-z
-x,3/4+y,3/4+z
3/4+x,-y,3/4+z
x,1/2+y,1/2+z
1/4-x,3/4-y,1/2+z
x,3/4-y,3/4-z
1/4-x,1/2+y,3/4-z
-x,1/2-y,1/2-z
3/4+x,1/4+y,1/2-z
-x,1/4+y,1/4+z
3/4+x,1/2-y,1/4+z
1/2+x,y,1/2+z
3/4-x,1/4-y,1/2+z
1/2+x,1/4-y,3/4-z
3/4-x,y,3/4-z
1/2-x,-y,1/2-z
1/4+x,3/4+y,1/2-z
1/2-x,3/4+y,1/4+z
1/4+x,-y,1/4+z
1/2+x,1/2+y,z
3/4-x,3/4-y,z
1/2+x,3/4-y,1/4-z
3/4-x,1/2+y,1/4-z
1/2-x,1/2-y,-z
1/4+x,1/4+y,-z
1/2-x,1/4+y,3/4+z
1/4+x,1/2-y,3/4+z
loop_
_atom_site_type_symbol
_atom_site_label
_atom_site_fract_x
_atom_site_fract_y
_atom_site_fract_z
Si Si1 0.375000 0.041069 0.875000
Si Si2 0.315300 0.531367 0.811573
Si Si3 0.586319 0.063510 0.016135
Si Si4 0.754886 0.875000 0.875000
Si Si5 0.125000 0.625000 0.497593
Si Si6 0.803715 0.543567 0.031250
Si Si7 0.359771 0.618936 0.061421
O O1 0.346572 0.123813 0.912465
O O2 0.403660 0.961569 0.917121
O O3 0.282233 0.484039 0.853611
O O4 0.339183 0.416662 0.787692
O O5 0.292077 0.601744 0.762635
O O6 0.625000 0.125000 0.988849
O O7 0.551891 0.162992 0.002181
O O8 0.579398 0.940056 0.980744
O O9 0.729010 0.948309 0.920251
O O10 0.109149 0.730323 0.457386
O O11 0.846385 0.573779 0.058465
O O12 0.343266 0.625000 0.125000
#
# Coordination Sequence:
#
# PCOD8285988 Si02
#       7
#    16  32  32  16  16  32  32
#     4  12  19  39  64  98 118 155 209 274 324 344
#     4  11  23  37  62  90 122 162 208 261 310 363
#     4  10  20  35  62  92 118 150 200 263 319 365
#     4  12  24  39  60  84 130 176 204 244 310 398
#     4  10  20  39  58  96 124 147 218 266 308 352
#     4  10  22  39  56  87 118 162 210 242 313 385
#     4  10  20  34  61  92 122 155 194 267 316 362
#
# _framework density 20.056498999999999
#
# number of rings (size 3 to 8) (size 9 to 14) (size 15 to 20)
#    0.000    1.455    6.364    1.909    3.818    0.000 
#    0.000    0.909    0.000    0.000    0.000    0.000 
#    0.000    0.000    0.000    0.000    0.000    0.000 
#
# Total GULP energy -545223.172967 kJ/mol
# GULP energy per Si atom -12391.435749 kJ/mol
# Density = 2.001085 g / cm^3
# Si number density = 20.056499 Si / 1000 Ang^3
#
#
#
# Elastic Constant Matrix: (Units=GPa)
#
#
# Indices 1 2 3 4 5 6 
#
# 1 61.1058 39.9261 42.1745 0.0000 0.0000 0.0000
# 2 39.9261 136.8493 66.1306 0.0000 0.0000 0.0000
# 3 42.1745 66.1306 148.0803 0.0000 0.0000 0.0000
# 4 0.0000 0.0000 0.0000 21.2810 0.0000 0.0000
# 5 0.0000 0.0000 0.0000 0.0000 29.6493 0.0000
# 6 0.0000 0.0000 0.0000 0.0000 0.0000 11.8079
#
#
#
# Elastic Compliance Matrix: (Units=1/GPa)
#
#
# Indices 1 2 3 4 5 6 
#
# 1 0.022247 -0.004372 -0.004384 0.000000 0.000000 0.000000
# 2 -0.004372 0.010178 -0.003300 0.000000 0.000000 0.000000
# 3 -0.004384 -0.003300 0.009475 0.000000 0.000000 0.000000
# 4 0.000000 0.000000 0.000000 0.046990 0.000000 0.000000
# 5 0.000000 0.000000 0.000000 0.000000 0.033728 0.000000
# 6 0.000000 0.000000 0.000000 0.000000 0.000000 0.084689
#
#
# Mechanical properties :
#
#
# Convention : Reuss Voigt Hill
#
# Bulk Modulus (GPa) = 56.21599 71.38863 63.80231
# Shear Modulus (GPa) = 21.06604 25.73458 23.40031
#
# Velocity S-wave (km/s) = 3.24440 3.58593 3.41943
# Velocity P-wave (km/s) = 6.49034 7.26748 6.88988
#
# Compressibility (1/GPa) = 0.01778853
#
# Stress axis : x y z
#
# Youngs Moduli (GPa) = 44.94889 98.25509 105.53809
#
# Poissons Ratio (x) = 0.42961 0.46264
# Poissons Ratio (y) = 0.19654 0.34826
# Poissons Ratio (z) = 0.19704 0.32423
#
# Static dielectric constant tensor:
#      x y z
#    x 3.217680 0.000000 0.000000 
#    y 0.000000 4.051040 0.000000 
#    z 0.000000 0.000000 3.931120 
# 
# 
# High freq. dielectric constant tensor:
#      x y z
#    x 1.727580 0.000000 0.000000 
#    y 0.000000 1.802600 0.000000 
#    z 0.000000 0.000000 1.797760 
# 
# From -- ./inp_files/55007.got.cif
#   From: 2010.03.12/outbox.cif.g09.slc.cpg/sg70_28_cif.got.tgz:55007.got - 2010.04.16 13:46:32.
