data_PCOD8285321
_publ_section_title
;
Structure prediction by ZEFSAII (Michael W. Deem and Ramdas Pophale) SiO2 
 PCOD8285321
Probable space group: F M M M
;
_chemical_formula_sum "Si O2"
_cell_formula_units_Z 144
_cell_length_a 27.011107
_cell_length_b 14.521615
_cell_length_c 18.225804
_cell_angle_alpha 90.000000
_cell_angle_beta 90.000000
_cell_angle_gamma 90.000000
_cell_volume 7148.978605
_symmetry_space_group_name_H-M "F M M M"
_symmetry_group_IT_number 69
_symmetry_cell_setting 'orthorhombic'
loop_
_space_group_symop_operation_xyz
x,y,z
-x,-y,z
x,-y,-z
-x,y,-z
-x,-y,-z
x,y,-z
-x,y,z
x,-y,z
x,1/2+y,1/2+z
-x,1/2-y,1/2+z
x,1/2-y,1/2-z
-x,1/2+y,1/2-z
-x,1/2-y,1/2-z
x,1/2+y,1/2-z
-x,1/2+y,1/2+z
x,1/2-y,1/2+z
1/2+x,y,1/2+z
1/2-x,-y,1/2+z
1/2+x,-y,1/2-z
1/2-x,y,1/2-z
1/2-x,-y,1/2-z
1/2+x,y,1/2-z
1/2-x,y,1/2+z
1/2+x,-y,1/2+z
1/2+x,1/2+y,z
1/2-x,1/2-y,z
1/2+x,1/2-y,-z
1/2-x,1/2+y,-z
1/2-x,1/2-y,-z
1/2+x,1/2+y,-z
1/2-x,1/2+y,z
1/2+x,1/2-y,z
loop_
_atom_site_type_symbol
_atom_site_label
_atom_site_fract_x
_atom_site_fract_y
_atom_site_fract_z
Si Si1 0.225434 0.346895 0.918534
Si Si2 0.616814 0.000000 0.745236
Si Si3 0.722106 0.000000 0.326794
Si Si4 0.631719 0.689179 0.319579
Si Si5 0.557633 0.299725 0.081288
Si Si6 0.943018 0.000000 0.111653
O O1 0.250000 0.250000 0.929056
O O2 0.262718 0.410724 0.872908
O O3 0.175063 0.330441 0.875927
O O4 0.215112 0.388895 0.000000
O O5 0.663706 0.000000 0.689406
O O6 0.614013 0.910644 0.795174
O O7 0.566871 0.000000 0.698252
O O8 0.750000 0.000000 0.250000
O O9 0.649917 0.750000 0.250000
O O10 0.586751 0.740283 0.359352
O O11 0.500000 0.299026 0.104622
O O12 0.578951 0.404807 0.078830
O O13 0.564876 0.257366 0.000000
O O14 0.000000 0.000000 0.092432
#
# Coordination Sequence:
#
# PCOD8285321 Si02
#       6
#    32  16  16  32  32  16
#     4  11  25  42  63  92 125 166 212 261 318 378
#     4  12  24  39  61  99 122 165 212 260 321 374
#     4  12  23  42  65  88 129 170 213 261 309 377
#     4  12  23  39  65  91 130 166 211 264 321 382
#     4  10  22  41  65  94 129 169 212 262 321 381
#     4  10  21  40  65  95 129 161 205 263 319 378
#
# _framework density 20.142738000000001
#
# number of rings (size 3 to 8) (size 9 to 14) (size 15 to 20)
#    0.000    0.889    4.444    2.667    0.000    2.667 
#    0.000    2.778    0.000    1.333    0.000    0.000 
#    0.000    0.000    0.000    0.000    0.000    0.000 
#
# Total GULP energy -446305.961667 kJ/mol
# GULP energy per Si atom -12397.387824 kJ/mol
# Density = 2.009689 g / cm^3
# Si number density = 20.142738 Si / 1000 Ang^3
#
#
#
# Elastic Constant Matrix: (Units=GPa)
#
#
# Indices 1 2 3 4 5 6 
#
# 1 48.3388 30.6786 26.5108 0.0000 0.0000 0.0000
# 2 30.6786 136.4986 54.0591 0.0000 0.0000 0.0000
# 3 26.5108 54.0591 135.1348 0.0000 0.0000 0.0000
# 4 0.0000 0.0000 0.0000 27.9540 0.0000 0.0000
# 5 0.0000 0.0000 0.0000 0.0000 42.6955 0.0000
# 6 0.0000 0.0000 0.0000 0.0000 0.0000 29.2197
#
#
#
# Elastic Compliance Matrix: (Units=1/GPa)
#
#
# Indices 1 2 3 4 5 6 
#
# 1 0.025233 -0.004409 -0.003186 0.000000 0.000000 0.000000
# 2 -0.004409 0.009476 -0.002926 0.000000 0.000000 0.000000
# 3 -0.003186 -0.002926 0.009195 0.000000 0.000000 0.000000
# 4 0.000000 0.000000 0.000000 0.035773 0.000000 0.000000
# 5 0.000000 0.000000 0.000000 0.000000 0.023422 0.000000
# 6 0.000000 0.000000 0.000000 0.000000 0.000000 0.034223
#
#
# Mechanical properties :
#
#
# Convention : Reuss Voigt Hill
#
# Bulk Modulus (GPa) = 43.74105 60.27435 52.00770
# Shear Modulus (GPa) = 30.12302 33.88877 32.00589
#
# Velocity S-wave (km/s) = 3.87134 4.10619 3.99049
# Velocity P-wave (km/s) = 6.46109 7.24360 6.86350
#
# Compressibility (1/GPa) = 0.02286182
#
# Stress axis : x y z
#
# Youngs Moduli (GPa) = 39.63022 105.53224 108.74902
#
# Poissons Ratio (x) = 0.46533 0.34651
# Poissons Ratio (y) = 0.17474 0.31816
# Poissons Ratio (z) = 0.12628 0.30875
#
# Static dielectric constant tensor:
#      x y z
#    x 3.188980 0.000000 0.000000 
#    y 0.000000 3.954690 0.000000 
#    z 0.000000 0.000000 4.010400 
# 
# 
# High freq. dielectric constant tensor:
#      x y z
#    x 1.774630 0.000000 0.000000 
#    y 0.000000 1.798480 0.000000 
#    z 0.000000 0.000000 1.803430 
# 
# From -- ./inp_files/27435.got.cif
#   From: 2010.03.12/outbox.cif.g09.slc.cpg/sg69_14_cif.got.tgz:27435.got - 2010.04.10 23:52:46.
