data_PCOD8285121
_publ_section_title
;
Structure prediction by ZEFSAII (Michael W. Deem and Ramdas Pophale) SiO2 
 PCOD8285121
Probable space group: F M M M
;
_chemical_formula_sum "Si O2"
_cell_formula_units_Z 192
_cell_length_a 33.342108
_cell_length_b 31.086448
_cell_length_c 10.035745
_cell_angle_alpha 90.000000
_cell_angle_beta 90.000000
_cell_angle_gamma 90.000000
_cell_volume 10401.926319
_symmetry_space_group_name_H-M "F M M M"
_symmetry_group_IT_number 69
_symmetry_cell_setting 'orthorhombic'
loop_
_space_group_symop_operation_xyz
x,y,z
-x,-y,z
x,-y,-z
-x,y,-z
-x,-y,-z
x,y,-z
-x,y,z
x,-y,z
x,1/2+y,1/2+z
-x,1/2-y,1/2+z
x,1/2-y,1/2-z
-x,1/2+y,1/2-z
-x,1/2-y,1/2-z
x,1/2+y,1/2-z
-x,1/2+y,1/2+z
x,1/2-y,1/2+z
1/2+x,y,1/2+z
1/2-x,-y,1/2+z
1/2+x,-y,1/2-z
1/2-x,y,1/2-z
1/2-x,-y,1/2-z
1/2+x,y,1/2-z
1/2-x,y,1/2+z
1/2+x,-y,1/2+z
1/2+x,1/2+y,z
1/2-x,1/2-y,z
1/2+x,1/2-y,-z
1/2-x,1/2+y,-z
1/2-x,1/2-y,-z
1/2+x,1/2+y,-z
1/2-x,1/2+y,z
1/2+x,1/2-y,z
loop_
_atom_site_type_symbol
_atom_site_label
_atom_site_fract_x
_atom_site_fract_y
_atom_site_fract_z
Si Si1 0.500000 0.649295 0.354761
Si Si2 0.070359 0.714931 0.852211
Si Si3 0.162055 0.210942 0.345929
Si Si4 0.287579 0.873969 0.153873
Si Si5 0.086547 0.951281 0.854376
Si Si6 0.347499 0.050060 0.152294
Si Si7 0.500000 0.925027 0.345659
O O1 0.500000 0.626282 0.500000
O O2 0.540893 0.675257 0.341285
O O3 0.500000 0.618705 0.231605
O O4 0.054368 0.750000 0.750000
O O5 0.115499 0.700308 0.817675
O O6 0.068808 0.735197 0.000000
O O7 0.169261 0.224508 0.500000
O O8 0.176649 0.250000 0.250000
O O9 0.185287 0.167264 0.310826
O O10 0.250000 0.872657 0.250000
O O11 0.310030 0.919054 0.181847
O O12 0.273699 0.871982 0.000000
O O13 0.116003 0.931786 0.743042
O O14 0.040240 0.950659 0.806803
O O15 0.099670 0.000000 0.871036
O O16 0.091815 0.928330 0.000000
O O17 0.335936 0.000000 0.181269
O O18 0.361768 0.055312 0.000000
O O19 0.500000 0.913749 0.500000
#
# Coordination Sequence:
#
# PCOD8285121 Si02
#       7
#    16  32  32  32  32  32  16
#     4  10  21  32  48  75 105 140 177 215 261 311
#     4   9  18  33  52  74 100 135 176 216 261 309
#     4   9  19  36  56  78 106 141 177 219 268 316
#     4  10  22  38  57  81 111 142 174 218 271 325
#     4   9  18  34  54  75 103 141 181 220 262 308
#     4   9  19  36  58  83 110 142 179 220 267 319
#     4  10  21  33  47  74 108 142 179 219 261 305
#
# _framework density 18.458119
#
# number of rings (size 3 to 8) (size 9 to 14) (size 15 to 20)
#    0.000    2.667    0.000    0.500    2.333    4.333 
#    0.000    1.667    0.000    2.500    0.000    0.000 
#    0.000    0.000    0.000    0.000    0.000    0.000 
#
# Total GULP energy -594892.804020 kJ/mol
# GULP energy per Si atom -12393.600084 kJ/mol
# Density = 1.841611 g / cm^3
# Si number density = 18.458119 Si / 1000 Ang^3
#
#
#
# Elastic Constant Matrix: (Units=GPa)
#
#
# Indices 1 2 3 4 5 6 
#
# 1 102.0060 43.6053 62.6805 -0.0039 0.0107 0.0074
# 2 43.6053 86.0709 51.6263 -0.0161 0.0084 0.0100
# 3 62.6805 51.6263 85.9003 -0.0199 0.0092 0.0177
# 4 -0.0039 -0.0161 -0.0199 28.3181 0.0092 0.0127
# 5 0.0107 0.0084 0.0092 0.0092 34.6786 -0.0072
# 6 0.0074 0.0100 0.0177 0.0127 -0.0072 22.1343
#
#
#
# Elastic Compliance Matrix: (Units=1/GPa)
#
#
# Indices 1 2 3 4 5 6 
#
# 1 0.017976 -0.001938 -0.011952 -0.000007 -0.000002 0.000004
# 2 -0.001938 0.018376 -0.009630 0.000003 -0.000001 0.000000
# 3 -0.011952 -0.009630 0.026151 0.000011 -0.000001 -0.000013
# 4 -0.000007 0.000003 0.000011 0.035313 -0.000009 -0.000020
# 5 -0.000002 -0.000001 -0.000001 -0.000009 0.028836 0.000009
# 6 0.000004 0.000000 -0.000013 -0.000020 0.000009 0.045179
#
#
# Mechanical properties :
#
#
# Convention : Reuss Voigt Hill
#
# Bulk Modulus (GPa) = 64.67317 65.53350 65.10334
# Shear Modulus (GPa) = 22.31880 24.76387 23.54134
#
# Velocity S-wave (km/s) = 3.48107 3.66679 3.57514
# Velocity P-wave (km/s) = 7.16038 7.31493 7.23806
#
# Compressibility (1/GPa) = 0.01546236
#
# Stress axis : x y z
#
# Youngs Moduli (GPa) = 55.62894 54.41758 38.24005
#
# Poissons Ratio (x) = 0.10546 0.45706
# Poissons Ratio (y) = 0.10781 0.36826
# Poissons Ratio (z) = 0.66489 0.52405
#
# Static dielectric constant tensor:
#      x y z
#    x 4.534960 -0.000140 0.003090 
#    y -0.000140 3.265720 0.000490 
#    z 0.003090 0.000490 2.534750 
# 
# 
# High freq. dielectric constant tensor:
#      x y z
#    x 1.714250 0.000000 0.000000 
#    y 0.000000 1.700130 0.000000 
#    z 0.000000 0.000000 1.724830 
# 
# From -- ./inp_files/12449.got.cif
#   From: 2010.03.12/outbox.cif.g09.slc.cpg/sg69_7_cif.got.tgz:12449.got - 2010.04.10 23:52:46.
