data_PCOD8285420
_publ_section_title
;
Structure prediction by ZEFSAII (Michael W. Deem and Ramdas Pophale) SiO2 
 PCOD8285420
Probable space group: F M M M
;
_chemical_formula_sum "Si O2"
_cell_formula_units_Z 192
_cell_length_a 17.689693
_cell_length_b 17.795573
_cell_length_c 31.687861
_cell_angle_alpha 90.000000
_cell_angle_beta 90.000000
_cell_angle_gamma 90.000000
_cell_volume 9975.282338
_symmetry_space_group_name_H-M "F M M M"
_symmetry_group_IT_number 69
_symmetry_cell_setting 'orthorhombic'
loop_
_space_group_symop_operation_xyz
x,y,z
-x,-y,z
x,-y,-z
-x,y,-z
-x,-y,-z
x,y,-z
-x,y,z
x,-y,z
x,1/2+y,1/2+z
-x,1/2-y,1/2+z
x,1/2-y,1/2-z
-x,1/2+y,1/2-z
-x,1/2-y,1/2-z
x,1/2+y,1/2-z
-x,1/2+y,1/2+z
x,1/2-y,1/2+z
1/2+x,y,1/2+z
1/2-x,-y,1/2+z
1/2+x,-y,1/2-z
1/2-x,y,1/2-z
1/2-x,-y,1/2-z
1/2+x,y,1/2-z
1/2-x,y,1/2+z
1/2+x,-y,1/2+z
1/2+x,1/2+y,z
1/2-x,1/2-y,z
1/2+x,1/2-y,-z
1/2-x,1/2+y,-z
1/2-x,1/2-y,-z
1/2+x,1/2+y,-z
1/2-x,1/2+y,z
1/2+x,1/2-y,z
loop_
_atom_site_type_symbol
_atom_site_label
_atom_site_fract_x
_atom_site_fract_y
_atom_site_fract_z
Si Si1 0.410427 0.207099 0.687476
Si Si2 0.321154 0.414904 0.950308
Si Si3 0.589310 0.707596 0.093007
Si Si4 0.590566 0.000000 0.821080
Si Si5 0.410053 0.141396 0.771477
Si Si6 0.840187 0.147791 0.549237
Si Si7 0.088481 0.000000 0.584035
O O1 0.500000 0.210840 0.685989
O O2 0.380549 0.191732 0.640460
O O3 0.385034 0.143940 0.721882
O O4 0.378456 0.286430 0.703819
O O5 0.320369 0.500000 0.931663
O O6 0.391742 0.367633 0.932873
O O7 0.245629 0.370034 0.937489
O O8 0.328849 0.420053 0.000000
O O9 0.500000 0.722348 0.090777
O O10 0.630706 0.781195 0.075335
O O11 0.624212 0.070346 0.795535
O O12 0.500000 0.000000 0.821469
O O13 0.623204 0.000000 0.868648
O O14 0.500000 0.139743 0.773881
O O15 0.846842 0.167970 0.500000
O O16 0.888449 0.073728 0.558462
O O17 0.000000 0.000000 0.588403
#
# Coordination Sequence:
#
# PCOD8285420 Si02
#       7
#    32  32  32  16  32  32  16
#     4   8  15  28  45  70 106 142 173 217 274 324
#     4  10  22  42  61  76 105 153 199 229 268 335
#     4  11  22  35  56  89 117 140 183 243 289 323
#     4   9  16  25  42  74 106 138 176 216 264 326
#     4   8  13  25  44  66 103 146 175 206 263 333
#     4  11  22  38  57  80 113 151 190 227 274 343
#     4  11  21  32  53  87 121 145 175 229 291 336
#
# _framework density 19.247575999999999
#
# number of rings (size 3 to 8) (size 9 to 14) (size 15 to 20)
#    0.000    2.333    0.833    3.750    0.000    7.000 
#    1.500    0.833    0.000    0.000    0.000   21.000 
#    0.000    0.000    0.000    0.000    0.000    0.000 
#
# Total GULP energy -594951.345079 kJ/mol
# GULP energy per Si atom -12394.819689 kJ/mol
# Density = 1.920377 g / cm^3
# Si number density = 19.247576 Si / 1000 Ang^3
#
#
#
# Elastic Constant Matrix: (Units=GPa)
#
#
# Indices 1 2 3 4 5 6 
#
# 1 31.3458 27.9343 28.0868 0.0000 0.0000 0.0000
# 2 27.9343 77.1918 24.9261 0.0000 0.0000 0.0000
# 3 28.0868 24.9261 62.5251 0.0000 0.0000 0.0000
# 4 0.0000 0.0000 0.0000 100.7356 0.0000 0.0000
# 5 0.0000 0.0000 0.0000 0.0000 2.7841 0.0000
# 6 0.0000 0.0000 0.0000 0.0000 0.0000 8.2825
#
#
#
# Elastic Compliance Matrix: (Units=1/GPa)
#
#
# Indices 1 2 3 4 5 6 
#
# 1 0.068664 -0.017088 -0.024032 0.000000 0.000000 0.000000
# 2 -0.017088 0.019121 0.000053 0.000000 0.000000 0.000000
# 3 -0.024032 0.000053 0.026768 0.000000 0.000000 0.000000
# 4 0.000000 0.000000 0.000000 0.009927 0.000000 0.000000
# 5 0.000000 0.000000 0.000000 0.000000 0.359186 0.000000
# 6 0.000000 0.000000 0.000000 0.000000 0.000000 0.120736
#
#
# Mechanical properties :
#
#
# Convention : Reuss Voigt Hill
#
# Bulk Modulus (GPa) = 30.84585 36.99523 33.92054
# Shear Modulus (GPa) = 7.17008 28.36813 17.76910
#
# Velocity S-wave (km/s) = 1.93217 3.84325 3.04169
# Velocity P-wave (km/s) = 4.58675 6.24151 5.47699
#
# Compressibility (1/GPa) = 0.03241928
#
# Stress axis : x y z
#
# Youngs Moduli (GPa) = 14.56365 52.29735 37.35833
#
# Poissons Ratio (x) = 0.89366 0.89780
# Poissons Ratio (y) = 0.24886 -0.00199
# Poissons Ratio (z) = 0.35000 -0.00278
#
# Static dielectric constant tensor:
#      x y z
#    x 3.127190 0.000000 0.000000 
#    y 0.000000 3.711340 0.000000 
#    z 0.000000 0.000000 3.884800 
# 
# 
# High freq. dielectric constant tensor:
#      x y z
#    x 1.703240 0.000000 0.000000 
#    y 0.000000 1.752770 0.000000 
#    z 0.000000 0.000000 1.760740 
# 
# From -- ./inp_files/46415.got.cif
#   From: 2010.03.12/outbox.cif.g09.slc.cpg/sg69_24_cif.got.tgz:46415.got - 2010.04.10 23:52:46.
