data_PCOD8285444
_publ_section_title
;
Structure prediction by ZEFSAII (Michael W. Deem and Ramdas Pophale) SiO2 
 PCOD8285444
Probable space group: F M M M
;
_chemical_formula_sum "Si O2"
_cell_formula_units_Z 168
_cell_length_a 14.629664
_cell_length_b 23.118873
_cell_length_c 25.846433
_cell_angle_alpha 90.000000
_cell_angle_beta 90.000000
_cell_angle_gamma 90.000000
_cell_volume 8741.815308
_symmetry_space_group_name_H-M "F M M M"
_symmetry_group_IT_number 69
_symmetry_cell_setting 'orthorhombic'
loop_
_space_group_symop_operation_xyz
x,y,z
-x,-y,z
x,-y,-z
-x,y,-z
-x,-y,-z
x,y,-z
-x,y,z
x,-y,z
x,1/2+y,1/2+z
-x,1/2-y,1/2+z
x,1/2-y,1/2-z
-x,1/2+y,1/2-z
-x,1/2-y,1/2-z
x,1/2+y,1/2-z
-x,1/2+y,1/2+z
x,1/2-y,1/2+z
1/2+x,y,1/2+z
1/2-x,-y,1/2+z
1/2+x,-y,1/2-z
1/2-x,y,1/2-z
1/2-x,-y,1/2-z
1/2+x,y,1/2-z
1/2-x,y,1/2+z
1/2+x,-y,1/2+z
1/2+x,1/2+y,z
1/2-x,1/2-y,z
1/2+x,1/2-y,-z
1/2-x,1/2+y,-z
1/2-x,1/2-y,-z
1/2+x,1/2+y,-z
1/2-x,1/2+y,z
1/2+x,1/2-y,z
loop_
_atom_site_type_symbol
_atom_site_label
_atom_site_fract_x
_atom_site_fract_y
_atom_site_fract_z
Si Si1 0.851363 0.225178 0.942838
Si Si2 0.250380 0.817944 0.689569
Si Si3 0.395378 0.625738 0.125619
Si Si4 0.253750 0.000000 0.000000
Si Si5 0.399910 0.333199 0.392183
Si Si6 0.107210 0.395087 0.000000
Si Si7 0.395728 0.500000 0.088129
O O1 0.750000 0.250000 0.941783
O O2 0.854439 0.158272 0.925015
O O3 0.908589 0.264410 0.902833
O O4 0.894044 0.228336 0.000000
O O5 0.250000 0.830222 0.750000
O O6 0.250000 0.750000 0.676821
O O7 0.344332 0.848832 0.675027
O O8 0.168703 0.847001 0.655508
O O9 0.500000 0.642351 0.131885
O O10 0.381884 0.556912 0.122741
O O11 0.322405 0.053035 0.000000
O O12 0.185399 0.000000 0.952330
O O13 0.500000 0.356581 0.375572
O O14 0.369278 0.359906 0.447597
O O15 0.000000 0.414146 0.000000
O O16 0.500000 0.500000 0.064358
#
# Coordination Sequence:
#
# PCOD8285444 Si02
#       7
#    32  32  32   8  32  16  16
#     4  11  21  32  57  85 120 154 194 231 287 356
#     4  11  23  39  58  87 121 150 196 248 297 361
#     4  11  22  40  59  81 115 156 196 241 294 344
#     4  12  22  36  62  76 126 170 194 226 304 338
#     4  11  20  36  58  86 120 152 192 241 294 351
#     4  10  23  37  59  91 122 154 201 245 285 356
#     4  10  25  39  56  85 116 153 207 247 278 349
#
# _framework density 19.217977000000001
#
# number of rings (size 3 to 8) (size 9 to 14) (size 15 to 20)
#    0.000    1.143    4.762    2.000    1.333    1.905 
#    0.000    2.381    0.000    0.000    0.000    2.667 
#    0.000    0.000    0.000    0.000    0.000    0.000 
#
# Total GULP energy -520448.055391 kJ/mol
# GULP energy per Si atom -12391.620366 kJ/mol
# Density = 1.917424 g / cm^3
# Si number density = 19.217977 Si / 1000 Ang^3
#
#
#
# Elastic Constant Matrix: (Units=GPa)
#
#
# Indices 1 2 3 4 5 6 
#
# 1 124.8841 56.4924 69.0078 0.0000 0.0000 0.0000
# 2 56.4924 119.0557 43.1049 0.0000 0.0000 0.0000
# 3 69.0078 43.1049 142.3609 0.0000 0.0000 0.0000
# 4 0.0000 0.0000 0.0000 14.6231 0.0000 0.0000
# 5 0.0000 0.0000 0.0000 0.0000 18.9869 0.0000
# 6 0.0000 0.0000 0.0000 0.0000 0.0000 31.0349
#
#
#
# Elastic Compliance Matrix: (Units=1/GPa)
#
#
# Indices 1 2 3 4 5 6 
#
# 1 0.012582 -0.004225 -0.004820 0.000000 0.000000 0.000000
# 2 -0.004225 0.010852 -0.001238 0.000000 0.000000 0.000000
# 3 -0.004820 -0.001238 0.009735 0.000000 0.000000 0.000000
# 4 0.000000 0.000000 0.000000 0.068385 0.000000 0.000000
# 5 0.000000 0.000000 0.000000 0.000000 0.052668 0.000000
# 6 0.000000 0.000000 0.000000 0.000000 0.000000 0.032222
#
#
# Mechanical properties :
#
#
# Convention : Reuss Voigt Hill
#
# Bulk Modulus (GPa) = 79.33667 80.39012 79.86339
# Shear Modulus (GPa) = 23.67299 27.44202 25.55750
#
# Velocity S-wave (km/s) = 3.51353 3.78290 3.65070
# Velocity P-wave (km/s) = 7.60474 7.81038 7.70824
#
# Compressibility (1/GPa) = 0.01260451
#
# Stress axis : x y z
#
# Youngs Moduli (GPa) = 79.47907 92.14487 102.71731
#
# Poissons Ratio (x) = 0.38933 0.49506
# Poissons Ratio (y) = 0.33582 0.12715
# Poissons Ratio (z) = 0.38306 0.11406
#
# Static dielectric constant tensor:
#      x y z
#    x 3.717360 0.000000 0.000000 
#    y 0.000000 3.584990 0.000000 
#    z 0.000000 0.000000 3.430420 
# 
# 
# High freq. dielectric constant tensor:
#      x y z
#    x 1.766750 0.000000 0.000000 
#    y 0.000000 1.733900 0.000000 
#    z 0.000000 0.000000 1.727140 
# 
# From -- ./inp_files/41019.got.cif
#   From: 2010.03.12/outbox.cif.g09.slc.cpg/sg69_21_cif.got.tgz:41019.got - 2010.04.10 23:52:46.
