data_PCOD8285256
_publ_section_title
;
Structure prediction by ZEFSAII (Michael W. Deem and Ramdas Pophale) SiO2 
 PCOD8285256
Probable space group: F M M M
;
_chemical_formula_sum "Si O2"
_cell_formula_units_Z 168
_cell_length_a 23.552538
_cell_length_b 17.769175
_cell_length_c 21.251644
_cell_angle_alpha 90.000000
_cell_angle_beta 90.000000
_cell_angle_gamma 90.000000
_cell_volume 8894.007879
_symmetry_space_group_name_H-M "F M M M"
_symmetry_group_IT_number 69
_symmetry_cell_setting 'orthorhombic'
loop_
_space_group_symop_operation_xyz
x,y,z
-x,-y,z
x,-y,-z
-x,y,-z
-x,-y,-z
x,y,-z
-x,y,z
x,-y,z
x,1/2+y,1/2+z
-x,1/2-y,1/2+z
x,1/2-y,1/2-z
-x,1/2+y,1/2-z
-x,1/2-y,1/2-z
x,1/2+y,1/2-z
-x,1/2+y,1/2+z
x,1/2-y,1/2+z
1/2+x,y,1/2+z
1/2-x,-y,1/2+z
1/2+x,-y,1/2-z
1/2-x,y,1/2-z
1/2-x,-y,1/2-z
1/2+x,y,1/2-z
1/2-x,y,1/2+z
1/2+x,-y,1/2+z
1/2+x,1/2+y,z
1/2-x,1/2-y,z
1/2+x,1/2-y,-z
1/2-x,1/2+y,-z
1/2-x,1/2-y,-z
1/2+x,1/2+y,-z
1/2-x,1/2+y,z
1/2+x,1/2-y,z
loop_
_atom_site_type_symbol
_atom_site_label
_atom_site_fract_x
_atom_site_fract_y
_atom_site_fract_z
Si Si1 0.655340 0.810723 0.428589
Si Si2 0.250000 0.250000 0.250000
Si Si3 0.239910 0.914847 0.427363
Si Si4 0.565802 0.586773 0.268509
Si Si5 0.837036 0.170810 0.340294
Si Si6 0.435574 0.586216 0.876486
O O1 0.661347 0.782089 0.500000
O O2 0.710798 0.857103 0.408053
O O3 0.646617 0.740764 0.383474
O O4 0.601485 0.864553 0.423394
O O5 0.210334 0.194734 0.290205
O O6 0.222559 0.904806 0.500000
O O7 0.186151 0.896450 0.383902
O O8 0.260353 0.000000 0.414132
O O9 0.500000 0.607750 0.280999
O O10 0.576623 0.500000 0.287254
O O11 0.605470 0.642172 0.308061
O O12 0.581858 0.599219 0.195830
O O13 0.500000 0.610963 0.886881
O O14 0.426626 0.500000 0.895391
#
# Coordination Sequence:
#
# PCOD8285256 Si02
#       6
#    32   8  32  32  32  32
#     4  11  22  37  56  80 115 153 188 230 282 338
#     4  12  24  36  54  88 124 148 190 228 284 348
#     4  10  21  38  59  81 108 148 192 233 285 339
#     4   9  20  39  62  86 113 150 193 237 287 337
#     4  12  22  38  57  84 118 150 186 238 281 336
#     4   9  19  37  58  82 113 147 187 235 284 335
#
# _framework density 18.889122
#
# number of rings (size 3 to 8) (size 9 to 14) (size 15 to 20)
#    0.000    1.714    1.905    4.000    0.000    3.810 
#    0.000    4.286    0.000    1.714    0.000    6.667 
#    0.000    0.000    0.000    0.000    0.000    0.000 
#
# Total GULP energy -520911.402012 kJ/mol
# GULP energy per Si atom -12402.652429 kJ/mol
# Density = 1.884613 g / cm^3
# Si number density = 18.889122 Si / 1000 Ang^3
#
#
#
# Elastic Constant Matrix: (Units=GPa)
#
#
# Indices 1 2 3 4 5 6 
#
# 1 83.0798 26.7175 30.9677 0.0000 0.0000 0.0000
# 2 26.7175 64.9753 26.5014 0.0000 0.0000 0.0000
# 3 30.9677 26.5014 54.5340 0.0000 0.0000 0.0000
# 4 0.0000 0.0000 0.0000 33.8660 0.0000 0.0000
# 5 0.0000 0.0000 0.0000 0.0000 26.1884 0.0000
# 6 0.0000 0.0000 0.0000 0.0000 0.0000 31.1954
#
#
#
# Elastic Compliance Matrix: (Units=1/GPa)
#
#
# Indices 1 2 3 4 5 6 
#
# 1 0.015903 -0.003562 -0.007300 0.000000 0.000000 0.000000
# 2 -0.003562 0.019993 -0.007693 0.000000 0.000000 0.000000
# 3 -0.007300 -0.007693 0.026221 0.000000 0.000000 0.000000
# 4 0.000000 0.000000 0.000000 0.029528 0.000000 0.000000
# 5 0.000000 0.000000 0.000000 0.000000 0.038185 0.000000
# 6 0.000000 0.000000 0.000000 0.000000 0.000000 0.032056
#
#
# Mechanical properties :
#
#
# Convention : Reuss Voigt Hill
#
# Bulk Modulus (GPa) = 39.98821 41.21804 40.60312
# Shear Modulus (GPa) = 24.11598 26.14345 25.12972
#
# Velocity S-wave (km/s) = 3.57699 3.72432 3.65140
# Velocity P-wave (km/s) = 6.18674 6.35315 6.27049
#
# Compressibility (1/GPa) = 0.02500737
#
# Stress axis : x y z
#
# Youngs Moduli (GPa) = 62.88105 50.01777 38.13733
#
# Poissons Ratio (x) = 0.17816 0.27839
# Poissons Ratio (y) = 0.22398 0.29340
# Poissons Ratio (z) = 0.45902 0.38479
#
# Static dielectric constant tensor:
#      x y z
#    x 3.386990 0.000000 0.000000 
#    y 0.000000 3.442830 0.000000 
#    z 0.000000 0.000000 3.456210 
# 
# 
# High freq. dielectric constant tensor:
#      x y z
#    x 1.731460 0.000000 0.000000 
#    y 0.000000 1.737320 0.000000 
#    z 0.000000 0.000000 1.735690 
# 
# From -- ./inp_files/33410.got.cif
#   From: 2010.03.12/outbox.cif.g09.slc.cpg/sg69_17_cif.got.tgz:33410.got - 2010.04.10 23:52:46.
