data_PCOD8285776
_publ_section_title
;
Structure prediction by ZEFSAII (Michael W. Deem and Ramdas Pophale) SiO2 
 PCOD8285776
Probable space group: F D D D
;
_chemical_formula_sum "Si O2"
_cell_formula_units_Z 160
_cell_length_a 23.581047
_cell_length_b 12.881257
_cell_length_c 27.814889
_cell_angle_alpha 90.000000
_cell_angle_beta 90.000000
_cell_angle_gamma 90.000000
_cell_volume 8448.870630
_symmetry_space_group_name_H-M "F D D D"
_symmetry_group_IT_number 70
_space_group.IT_coordinate_system_code '2'
_symmetry_cell_setting 'orthorhombic'
loop_
_space_group_symop_operation_xyz
x,y,z
1/4-x,1/4-y,z
x,1/4-y,1/4-z
1/4-x,y,1/4-z
-x,-y,-z
3/4+x,3/4+y,-z
-x,3/4+y,3/4+z
3/4+x,-y,3/4+z
x,1/2+y,1/2+z
1/4-x,3/4-y,1/2+z
x,3/4-y,3/4-z
1/4-x,1/2+y,3/4-z
-x,1/2-y,1/2-z
3/4+x,1/4+y,1/2-z
-x,1/4+y,1/4+z
3/4+x,1/2-y,1/4+z
1/2+x,y,1/2+z
3/4-x,1/4-y,1/2+z
1/2+x,1/4-y,3/4-z
3/4-x,y,3/4-z
1/2-x,-y,1/2-z
1/4+x,3/4+y,1/2-z
1/2-x,3/4+y,1/4+z
1/4+x,-y,1/4+z
1/2+x,1/2+y,z
3/4-x,3/4-y,z
1/2+x,3/4-y,1/4-z
3/4-x,1/2+y,1/4-z
1/2-x,1/2-y,-z
1/4+x,1/4+y,-z
1/2-x,1/4+y,3/4+z
1/4+x,1/2-y,3/4+z
loop_
_atom_site_type_symbol
_atom_site_label
_atom_site_fract_x
_atom_site_fract_y
_atom_site_fract_z
Si Si1 0.100028 0.239189 0.173720
Si Si2 0.295602 0.221280 0.650817
Si Si3 0.475873 0.800401 0.160382
Si Si4 0.645914 0.232282 0.327295
Si Si5 0.886109 0.565020 0.526625
O O1 0.125000 0.125000 0.179755
O O2 0.125000 0.290804 0.125000
O O3 0.118480 0.305784 0.219539
O O4 0.031994 0.234957 0.170853
O O5 0.260920 0.125000 0.625000
O O6 0.259615 0.325758 0.659836
O O7 0.348536 0.237591 0.615652
O O8 0.322452 0.193549 0.702574
O O9 0.454262 0.775246 0.106949
O O10 0.428863 0.771328 0.200872
O O11 0.625000 0.125000 0.302481
O O12 0.657918 0.318561 0.287239
#
# Coordination Sequence:
#
# PCOD8285776 Si02
#       5
#    32  32  32  32  32
#     4  11  25  36  48  73 118 150 178 222 277 334
#     4   8  15  30  56  85 107 127 175 242 279 316
#     4  10  18  33  56  82 107 143 187 225 282 327
#     4   8  16  30  57  85 106 129 176 241 282 316
#     4  10  18  32  57  82 107 141 185 228 281 337
#
# _framework density 18.937442000000001
#
# number of rings (size 3 to 8) (size 9 to 14) (size 15 to 20)
#    0.000    2.600    0.000    5.400    5.600    0.000 
#    0.000    0.000    4.400    3.600    0.000    0.000 
#    0.000    0.000    0.000    0.000    0.000    0.000 
#
# Total GULP energy -495632.076675 kJ/mol
# GULP energy per Si atom -12390.801917 kJ/mol
# Density = 1.889434 g / cm^3
# Si number density = 18.937442 Si / 1000 Ang^3
#
#
#
# Elastic Constant Matrix: (Units=GPa)
#
#
# Indices 1 2 3 4 5 6 
#
# 1 51.5212 21.8029 21.2650 0.0000 0.0000 0.0000
# 2 21.8029 139.5058 53.7743 0.0000 0.0000 0.0000
# 3 21.2650 53.7743 138.9305 0.0000 0.0000 0.0000
# 4 0.0000 0.0000 0.0000 26.1373 0.0000 0.0000
# 5 0.0000 0.0000 0.0000 0.0000 12.0066 0.0000
# 6 0.0000 0.0000 0.0000 0.0000 0.0000 21.6373
#
#
#
# Elastic Compliance Matrix: (Units=1/GPa)
#
#
# Indices 1 2 3 4 5 6 
#
# 1 0.021407 -0.002448 -0.002329 0.000000 0.000000 0.000000
# 2 -0.002448 0.008705 -0.002995 0.000000 0.000000 0.000000
# 3 -0.002329 -0.002995 0.008713 0.000000 0.000000 0.000000
# 4 0.000000 0.000000 0.000000 0.038260 0.000000 0.000000
# 5 0.000000 0.000000 0.000000 0.000000 0.083287 0.000000
# 6 0.000000 0.000000 0.000000 0.000000 0.000000 0.046216
#
#
# Mechanical properties :
#
#
# Convention : Reuss Voigt Hill
#
# Bulk Modulus (GPa) = 42.95166 58.18242 50.56704
# Shear Modulus (GPa) = 21.74932 27.49728 24.62330
#
# Velocity S-wave (km/s) = 3.39260 3.81465 3.60980
# Velocity P-wave (km/s) = 6.17061 7.08465 6.64337
#
# Compressibility (1/GPa) = 0.02328199
#
# Stress axis : x y z
#
# Youngs Moduli (GPa) = 46.71440 114.87564 114.76485
#
# Poissons Ratio (x) = 0.28119 0.26730
# Poissons Ratio (y) = 0.11435 0.34369
# Poissons Ratio (z) = 0.10880 0.34402
#
# Static dielectric constant tensor:
#      x y z
#    x 3.048230 0.000000 0.000000 
#    y 0.000000 4.120390 0.000000 
#    z 0.000000 0.000000 3.450070 
# 
# 
# High freq. dielectric constant tensor:
#      x y z
#    x 1.689320 0.000000 0.000000 
#    y 0.000000 1.742590 0.000000 
#    z 0.000000 0.000000 1.718420 
# 
# From -- ./inp_files/28858.got.cif
#   From: 2010.03.12/outbox.cif.g09.slc.cpg/sg70_15_cif.got.tgz:28858.got - 2010.04.16 13:46:32.
