data_PCOD8285043
_publ_section_title
;
Structure prediction by ZEFSAII (Michael W. Deem and Ramdas Pophale) SiO2 
 PCOD8285043
Probable space group: F M M M
;
_chemical_formula_sum "Si O2"
_cell_formula_units_Z 176
_cell_length_a 16.949081
_cell_length_b 23.519566
_cell_length_c 23.034161
_cell_angle_alpha 90.000000
_cell_angle_beta 90.000000
_cell_angle_gamma 90.000000
_cell_volume 9182.223443
_symmetry_space_group_name_H-M "F M M M"
_symmetry_group_IT_number 69
_symmetry_cell_setting 'orthorhombic'
loop_
_space_group_symop_operation_xyz
x,y,z
-x,-y,z
x,-y,-z
-x,y,-z
-x,-y,-z
x,y,-z
-x,y,z
x,-y,z
x,1/2+y,1/2+z
-x,1/2-y,1/2+z
x,1/2-y,1/2-z
-x,1/2+y,1/2-z
-x,1/2-y,1/2-z
x,1/2+y,1/2-z
-x,1/2+y,1/2+z
x,1/2-y,1/2+z
1/2+x,y,1/2+z
1/2-x,-y,1/2+z
1/2+x,-y,1/2-z
1/2-x,y,1/2-z
1/2-x,-y,1/2-z
1/2+x,y,1/2-z
1/2-x,y,1/2+z
1/2+x,-y,1/2+z
1/2+x,1/2+y,z
1/2-x,1/2-y,z
1/2+x,1/2-y,-z
1/2-x,1/2+y,-z
1/2-x,1/2-y,-z
1/2+x,1/2+y,-z
1/2-x,1/2+y,z
1/2+x,1/2-y,z
loop_
_atom_site_type_symbol
_atom_site_label
_atom_site_fract_x
_atom_site_fract_y
_atom_site_fract_z
Si Si1 0.587306 0.566914 0.849014
Si Si2 0.910588 0.251071 0.433483
Si Si3 0.407137 0.934536 0.782621
Si Si4 0.862861 0.635895 0.886500
Si Si5 0.500000 0.438683 0.566405
Si Si6 0.311726 0.139055 0.567344
O O1 0.500000 0.590965 0.862631
O O2 0.587024 0.500000 0.855219
O O3 0.610899 0.583428 0.783373
O O4 0.648549 0.590517 0.894822
O O5 0.895368 0.230647 0.500000
O O6 0.897835 0.199524 0.388512
O O7 0.849735 0.300417 0.416357
O O8 0.000000 0.273820 0.426936
O O9 0.500000 0.927743 0.797611
O O10 0.357178 0.889773 0.821364
O O11 0.380556 0.000000 0.793448
O O12 0.779819 0.638573 0.918405
O O13 0.920624 0.594557 0.920466
O O14 0.500000 0.500000 0.599634
O O15 0.500000 0.452009 0.500000
O O16 0.325899 0.125095 0.500000
#
# Coordination Sequence:
#
# PCOD8285043 Si02
#       6
#    32  32  32  32  16  32
#     4   9  20  40  63  84 111 150 196 247 298 347
#     4  10  20  37  60  82 111 155 203 244 288 344
#     4   9  18  36  61  86 113 151 197 238 285 350
#     4  12  21  35  58  85 119 154 190 235 290 351
#     4  11  22  34  52  82 119 158 194 230 281 348
#     4  11  24  38  56  86 120 153 194 244 295 348
#
# _framework density 19.167472
#
# number of rings (size 3 to 8) (size 9 to 14) (size 15 to 20)
#    0.000    1.727    1.818    4.364    0.000    5.091 
#    0.000    3.636    0.000    5.455    0.000    0.000 
#    0.000    0.000    0.000    0.000    0.000    0.000 
#
# Total GULP energy -545545.798481 kJ/mol
# GULP energy per Si atom -12398.768147 kJ/mol
# Density = 1.912385 g / cm^3
# Si number density = 19.167472 Si / 1000 Ang^3
#
#
#
# Elastic Constant Matrix: (Units=GPa)
#
#
# Indices 1 2 3 4 5 6 
#
# 1 115.9793 54.7069 42.6171 0.0000 0.0000 0.0000
# 2 54.7069 85.6455 51.0528 0.0000 0.0000 0.0000
# 3 42.6171 51.0528 93.5920 0.0000 0.0000 0.0000
# 4 0.0000 0.0000 0.0000 17.5350 0.0000 0.0000
# 5 0.0000 0.0000 0.0000 0.0000 26.3616 0.0000
# 6 0.0000 0.0000 0.0000 0.0000 0.0000 47.5951
#
#
#
# Elastic Compliance Matrix: (Units=1/GPa)
#
#
# Indices 1 2 3 4 5 6 
#
# 1 0.012587 -0.006851 -0.001994 0.000000 0.000000 0.000000
# 2 -0.006851 0.021031 -0.008352 0.000000 0.000000 0.000000
# 3 -0.001994 -0.008352 0.016149 0.000000 0.000000 0.000000
# 4 0.000000 0.000000 0.000000 0.057029 0.000000 0.000000
# 5 0.000000 0.000000 0.000000 0.000000 0.037934 0.000000
# 6 0.000000 0.000000 0.000000 0.000000 0.000000 0.021011
#
#
# Mechanical properties :
#
#
# Convention : Reuss Voigt Hill
#
# Bulk Modulus (GPa) = 65.05708 65.77449 65.41579
# Shear Modulus (GPa) = 24.35945 28.08766 26.22356
#
# Velocity S-wave (km/s) = 3.56880 3.83218 3.70283
# Velocity P-wave (km/s) = 7.14121 7.34650 7.24458
#
# Compressibility (1/GPa) = 0.01537112
#
# Stress axis : x y z
#
# Youngs Moduli (GPa) = 79.44930 47.54860 61.92404
#
# Poissons Ratio (x) = 0.32576 0.12349
# Poissons Ratio (y) = 0.54432 0.51722
# Poissons Ratio (z) = 0.15843 0.39715
#
# Static dielectric constant tensor:
#      x y z
#    x 3.312370 0.000000 0.000000 
#    y 0.000000 3.454630 0.000000 
#    z 0.000000 0.000000 3.654490 
# 
# 
# High freq. dielectric constant tensor:
#      x y z
#    x 1.746590 0.000000 0.000000 
#    y 0.000000 1.742040 0.000000 
#    z 0.000000 0.000000 1.742930 
# 
# From -- ./inp_files/35913.got.cif
#   From: 2010.03.12/outbox.cif.g09.slc.cpg/sg69_18_cif.got.tgz:35913.got - 2010.04.10 23:52:46.
