data_PCOD8285032
_publ_section_title
;
Structure prediction by ZEFSAII (Michael W. Deem and Ramdas Pophale) SiO2 
 PCOD8285032
Probable space group: F M M M
;
_chemical_formula_sum "Si O2"
_cell_formula_units_Z 128
_cell_length_a 14.769584
_cell_length_b 28.237389
_cell_length_c 16.017845
_cell_angle_alpha 90.000000
_cell_angle_beta 90.000000
_cell_angle_gamma 90.000000
_cell_volume 6680.314158
_symmetry_space_group_name_H-M "F M M M"
_symmetry_group_IT_number 69
_symmetry_cell_setting 'orthorhombic'
loop_
_space_group_symop_operation_xyz
x,y,z
-x,-y,z
x,-y,-z
-x,y,-z
-x,-y,-z
x,y,-z
-x,y,z
x,-y,z
x,1/2+y,1/2+z
-x,1/2-y,1/2+z
x,1/2-y,1/2-z
-x,1/2+y,1/2-z
-x,1/2-y,1/2-z
x,1/2+y,1/2-z
-x,1/2+y,1/2+z
x,1/2-y,1/2+z
1/2+x,y,1/2+z
1/2-x,-y,1/2+z
1/2+x,-y,1/2-z
1/2-x,y,1/2-z
1/2-x,-y,1/2-z
1/2+x,y,1/2-z
1/2-x,y,1/2+z
1/2+x,-y,1/2+z
1/2+x,1/2+y,z
1/2-x,1/2-y,z
1/2+x,1/2-y,-z
1/2-x,1/2+y,-z
1/2-x,1/2-y,-z
1/2+x,1/2+y,-z
1/2-x,1/2+y,z
1/2+x,1/2-y,z
loop_
_atom_site_type_symbol
_atom_site_label
_atom_site_fract_x
_atom_site_fract_y
_atom_site_fract_z
Si Si1 0.500000 0.195502 0.356250
Si Si2 0.000000 0.200605 0.340880
Si Si3 0.346324 0.876226 0.357943
Si Si4 0.000000 0.447643 0.097516
Si Si5 0.606103 0.447330 0.000000
Si Si6 0.360560 0.875878 0.163691
O O1 0.500000 0.204140 0.258351
O O2 0.500000 0.249426 0.390896
O O3 0.590081 0.167674 0.387289
O O4 0.911005 0.171501 0.366319
O O5 0.364439 0.921341 0.415415
O O6 0.369424 0.886804 0.262066
O O7 0.240464 0.865406 0.367179
O O8 0.907499 0.421208 0.122602
O O9 0.000000 0.500000 0.138773
O O10 0.000000 0.452825 0.000000
O O11 0.649589 0.500000 0.000000
O O12 0.500000 0.451415 0.000000
#
# Coordination Sequence:
#
# PCOD8285032 Si02
#       6
#    16  16  32  16  16  32
#     4   9  16  31  57  84 115 142 184 225 270 335
#     4   8  16  32  56  87 110 144 183 227 275 326
#     4  10  20  37  58  83 114 149 185 232 281 331
#     4  10  22  38  57  79 107 145 185 234 284 329
#     4  11  24  38  56  80 112 152 190 231 284 337
#     4   9  20  37  59  84 112 145 188 234 279 332
#
# _framework density 19.160775999999998
#
# number of rings (size 3 to 8) (size 9 to 14) (size 15 to 20)
#    0.000    2.500    1.250    0.750    1.750    3.000 
#    0.000    7.500   11.000    1.500    0.000    0.000 
#    0.000    0.000    0.000    0.000    0.000    0.000 
#
# Total GULP energy -396577.590421 kJ/mol
# GULP energy per Si atom -12393.049701 kJ/mol
# Density = 1.911717 g / cm^3
# Si number density = 19.160776 Si / 1000 Ang^3
#
#
#
# Elastic Constant Matrix: (Units=GPa)
#
#
# Indices 1 2 3 4 5 6 
#
# 1 166.4801 89.2498 32.8812 0.0000 0.0000 0.0000
# 2 89.2498 195.7190 47.7943 0.0000 0.0000 0.0000
# 3 32.8812 47.7943 51.4202 0.0000 0.0000 0.0000
# 4 0.0000 0.0000 0.0000 90.7587 0.0000 0.0000
# 5 0.0000 0.0000 0.0000 0.0000 16.3010 0.0000
# 6 0.0000 0.0000 0.0000 0.0000 0.0000 23.8122
#
#
#
# Elastic Compliance Matrix: (Units=1/GPa)
#
#
# Indices 1 2 3 4 5 6 
#
# 1 0.008151 -0.003162 -0.002273 0.000000 0.000000 0.000000
# 2 -0.003162 0.007836 -0.005262 0.000000 0.000000 0.000000
# 3 -0.002273 -0.005262 0.025792 0.000000 0.000000 0.000000
# 4 0.000000 0.000000 0.000000 0.011018 0.000000 0.000000
# 5 0.000000 0.000000 0.000000 0.000000 0.061346 0.000000
# 6 0.000000 0.000000 0.000000 0.000000 0.000000 0.041995
#
#
# Mechanical properties :
#
#
# Convention : Reuss Voigt Hill
#
# Bulk Modulus (GPa) = 49.05491 83.71886 66.38688
# Shear Modulus (GPa) = 27.12575 42.42064 34.77320
#
# Velocity S-wave (km/s) = 3.76665 4.71035 4.26468
# Velocity P-wave (km/s) = 6.67639 8.56568 7.67936
#
# Compressibility (1/GPa) = 0.02038532
#
# Stress axis : x y z
#
# Youngs Moduli (GPa) = 122.68915 127.61595 38.77170
#
# Poissons Ratio (x) = 0.40348 0.08814
# Poissons Ratio (y) = 0.38790 0.20401
# Poissons Ratio (z) = 0.27891 0.67148
#
# Static dielectric constant tensor:
#      x y z
#    x 3.761530 0.000000 0.000000 
#    y 0.000000 3.884100 0.000000 
#    z 0.000000 0.000000 3.355310 
# 
# 
# High freq. dielectric constant tensor:
#      x y z
#    x 1.753760 0.000000 0.000000 
#    y 0.000000 1.744430 0.000000 
#    z 0.000000 0.000000 1.730670 
# 
# From -- ./inp_files/21642.got.cif
#   From: 2010.03.12/outbox.cif.g09.slc.cpg/sg69_11_cif.got.tgz:21642.got - 2010.04.10 23:52:46.
