data_PCOD8285866
_publ_section_title
;
Structure prediction by ZEFSAII (Michael W. Deem and Ramdas Pophale) SiO2 
 PCOD8285866
Probable space group: F D D D
;
_chemical_formula_sum "Si O2"
_cell_formula_units_Z 160
_cell_length_a 14.029888
_cell_length_b 27.762570
_cell_length_c 17.765024
_cell_angle_alpha 90.000000
_cell_angle_beta 90.000000
_cell_angle_gamma 90.000000
_cell_volume 6919.578956
_symmetry_space_group_name_H-M "F D D D"
_symmetry_group_IT_number 70
_space_group.IT_coordinate_system_code '2'
_symmetry_cell_setting 'orthorhombic'
loop_
_space_group_symop_operation_xyz
x,y,z
1/4-x,1/4-y,z
x,1/4-y,1/4-z
1/4-x,y,1/4-z
-x,-y,-z
3/4+x,3/4+y,-z
-x,3/4+y,3/4+z
3/4+x,-y,3/4+z
x,1/2+y,1/2+z
1/4-x,3/4-y,1/2+z
x,3/4-y,3/4-z
1/4-x,1/2+y,3/4-z
-x,1/2-y,1/2-z
3/4+x,1/4+y,1/2-z
-x,1/4+y,1/4+z
3/4+x,1/2-y,1/4+z
1/2+x,y,1/2+z
3/4-x,1/4-y,1/2+z
1/2+x,1/4-y,3/4-z
3/4-x,y,3/4-z
1/2-x,-y,1/2-z
1/4+x,3/4+y,1/2-z
1/2-x,3/4+y,1/4+z
1/4+x,-y,1/4+z
1/2+x,1/2+y,z
3/4-x,3/4-y,z
1/2+x,3/4-y,1/4-z
3/4-x,1/2+y,1/4-z
1/2-x,1/2-y,-z
1/4+x,1/4+y,-z
1/2-x,1/4+y,3/4+z
1/4+x,1/2-y,3/4+z
loop_
_atom_site_type_symbol
_atom_site_label
_atom_site_fract_x
_atom_site_fract_y
_atom_site_fract_z
Si Si1 0.919860 0.588506 0.293040
Si Si2 0.342025 0.423842 0.047778
Si Si3 0.825245 0.762634 0.172758
Si Si4 0.121989 0.442328 0.208599
Si Si5 0.245998 0.796830 0.450917
O O1 0.875000 0.578647 0.375000
O O2 0.943864 0.646078 0.285059
O O3 0.847785 0.576559 0.225332
O O4 0.012545 0.554231 0.286998
O O5 0.375000 0.375000 0.090285
O O6 0.357439 0.467040 0.107055
O O7 0.233133 0.421823 0.023575
O O8 0.406408 0.425510 0.971461
O O9 0.893168 0.736287 0.234174
O O10 0.759135 0.720179 0.136231
O O11 0.125000 0.464106 0.125000
O O12 0.250000 0.750000 0.500000
#
# Coordination Sequence:
#
# PCOD8285866 Si02
#       5
#    32  32  32  32  32
#     4  11  19  39  61  90 130 163 204 267 331 386
#     4  11  20  39  62  91 127 162 207 260 334 392
#     4  11  23  38  67  90 126 170 211 262 324 385
#     4  11  25  41  60  90 128 171 221 265 310 387
#     4  10  19  33  61  96 118 152 207 253 330 386
#
# _framework density 23.122793000000001
#
# number of rings (size 3 to 8) (size 9 to 14) (size 15 to 20)
#    0.000    1.200    6.000    3.600    0.000    1.600 
#    0.000    1.000    0.000    3.000    0.000    0.000 
#    0.000    0.000    0.000    0.000    0.000    0.000 
#
# Total GULP energy -495655.934131 kJ/mol
# GULP energy per Si atom -12391.398353 kJ/mol
# Density = 2.307016 g / cm^3
# Si number density = 23.122793 Si / 1000 Ang^3
#
#
#
# Elastic Constant Matrix: (Units=GPa)
#
#
# Indices 1 2 3 4 5 6 
#
# 1 46.7405 5.2915 1.1362 0.0000 0.0000 0.0000
# 2 5.2915 117.5897 54.7399 0.0000 0.0000 0.0000
# 3 1.1362 54.7399 86.7554 0.0000 0.0000 0.0000
# 4 0.0000 0.0000 0.0000 26.4390 0.0000 0.0000
# 5 0.0000 0.0000 0.0000 0.0000 13.0994 0.0000
# 6 0.0000 0.0000 0.0000 0.0000 0.0000 32.2538
#
#
#
# Elastic Compliance Matrix: (Units=1/GPa)
#
#
# Indices 1 2 3 4 5 6 
#
# 1 0.021518 -0.001185 0.000466 0.000000 0.000000 0.000000
# 2 -0.001185 0.012106 -0.007623 0.000000 0.000000 0.000000
# 3 0.000466 -0.007623 0.016330 0.000000 0.000000 0.000000
# 4 0.000000 0.000000 0.000000 0.037823 0.000000 0.000000
# 5 0.000000 0.000000 0.000000 0.000000 0.076339 0.000000
# 6 0.000000 0.000000 0.000000 0.000000 0.000000 0.031004
#
#
# Mechanical properties :
#
#
# Convention : Reuss Voigt Hill
#
# Bulk Modulus (GPa) = 30.05745 41.49122 35.77433
# Shear Modulus (GPa) = 22.43211 27.01965 24.72588
#
# Velocity S-wave (km/s) = 3.11807 3.42208 3.27361
# Velocity P-wave (km/s) = 5.09808 5.79629 5.45836
#
# Compressibility (1/GPa) = 0.03326962
#
# Stress axis : x y z
#
# Youngs Moduli (GPa) = 46.47368 82.60264 61.23518
#
# Poissons Ratio (x) = 0.09790 -0.02854
# Poissons Ratio (y) = 0.05508 0.46680
# Poissons Ratio (z) = -0.02166 0.62969
#
# Static dielectric constant tensor:
#      x y z
#    x 4.382750 0.000000 0.000000 
#    y 0.000000 4.847530 0.000000 
#    z 0.000000 0.000000 4.153560 
# 
# 
# High freq. dielectric constant tensor:
#      x y z
#    x 1.882720 0.000000 0.000000 
#    y 0.000000 1.924250 0.000000 
#    z 0.000000 0.000000 1.890570 
# 
# From -- ./inp_files/35148.got.cif
#   From: 2010.03.12/outbox.cif.g09.slc.cpg/sg70_18_cif.got.tgz:35148.got - 2010.04.16 13:46:32.
