data_PCOD8285297
_publ_section_title
;
Structure prediction by ZEFSAII (Michael W. Deem and Ramdas Pophale) SiO2 
 PCOD8285297
Probable space group: F M M M
;
_chemical_formula_sum "Si O2"
_cell_formula_units_Z 128
_cell_length_a 26.100673
_cell_length_b 7.838068
_cell_length_c 29.741972
_cell_angle_alpha 90.000000
_cell_angle_beta 90.000000
_cell_angle_gamma 90.000000
_cell_volume 6084.578423
_symmetry_space_group_name_H-M "F M M M"
_symmetry_group_IT_number 69
_symmetry_cell_setting 'orthorhombic'
loop_
_space_group_symop_operation_xyz
x,y,z
-x,-y,z
x,-y,-z
-x,y,-z
-x,-y,-z
x,y,-z
-x,y,z
x,-y,z
x,1/2+y,1/2+z
-x,1/2-y,1/2+z
x,1/2-y,1/2-z
-x,1/2+y,1/2-z
-x,1/2-y,1/2-z
x,1/2+y,1/2-z
-x,1/2+y,1/2+z
x,1/2-y,1/2+z
1/2+x,y,1/2+z
1/2-x,-y,1/2+z
1/2+x,-y,1/2-z
1/2-x,y,1/2-z
1/2-x,-y,1/2-z
1/2+x,y,1/2-z
1/2-x,y,1/2+z
1/2+x,-y,1/2+z
1/2+x,1/2+y,z
1/2-x,1/2-y,z
1/2+x,1/2-y,-z
1/2-x,1/2+y,-z
1/2-x,1/2-y,-z
1/2+x,1/2+y,-z
1/2-x,1/2+y,z
1/2+x,1/2-y,z
loop_
_atom_site_type_symbol
_atom_site_label
_atom_site_fract_x
_atom_site_fract_y
_atom_site_fract_z
Si Si1 0.000000 0.700296 0.198776
Si Si2 0.872647 0.192079 0.051468
Si Si3 0.056775 0.500000 0.946763
Si Si4 0.610377 0.298455 0.698704
Si Si5 0.692915 0.799267 0.128622
O O1 0.000000 0.750000 0.250000
O O2 0.054722 0.772902 0.180457
O O3 0.000000 0.500000 0.191931
O O4 0.914409 0.328616 0.069556
O O5 0.821521 0.211531 0.081209
O O6 0.894936 0.000000 0.055588
O O7 0.857662 0.232843 0.000000
O O8 0.000000 0.500000 0.924866
O O9 0.052042 0.500000 0.000000
O O10 0.609921 0.500000 0.695222
O O11 0.621911 0.250000 0.750000
O O12 0.655043 0.224391 0.666982
O O13 0.750000 0.750000 0.142569
O O14 0.687251 0.000000 0.123400
#
# Coordination Sequence:
#
# PCOD8285297 Si02
#       5
#    16  32  16  32  32
#     4   8  14  30  54  80 107 140 181 229 285 346
#     4  10  21  39  62  89 122 159 203 249 297 355
#     4   9  18  36  62  90 124 163 196 241 301 356
#     4   9  19  35  57  83 113 149 189 237 294 357
#     4  11  23  39  57  84 116 155 201 253 307 360
#
# _framework density 21.036791000000001
#
# number of rings (size 3 to 8) (size 9 to 14) (size 15 to 20)
#    0.000    2.375    1.250    0.750    0.000    3.500 
#    2.250    5.000    0.000    0.000    0.000    0.000 
#    0.000    0.000    0.000    0.000    0.000    0.000 
#
# Total GULP energy -396534.153854 kJ/mol
# GULP energy per Si atom -12391.692308 kJ/mol
# Density = 2.098891 g / cm^3
# Si number density = 21.036791 Si / 1000 Ang^3
#
#
#
# Elastic Constant Matrix: (Units=GPa)
#
#
# Indices 1 2 3 4 5 6 
#
# 1 203.0275 39.6109 76.3135 0.0001 0.0000 -0.0008
# 2 39.6109 86.2918 25.1093 0.0000 0.0000 -0.0001
# 3 76.3135 25.1093 94.0383 0.0000 0.0000 0.0002
# 4 0.0001 0.0000 0.0000 23.1812 0.0000 0.0000
# 5 0.0000 0.0000 0.0000 0.0000 29.1918 -0.0001
# 6 -0.0008 -0.0001 0.0002 0.0000 -0.0001 25.2749
#
#
#
# Elastic Compliance Matrix: (Units=1/GPa)
#
#
# Indices 1 2 3 4 5 6 
#
# 1 0.007329 -0.001771 -0.005474 0.000000 0.000000 0.000000
# 2 -0.001771 0.012993 -0.002032 0.000000 0.000000 0.000000
# 3 -0.005474 -0.002032 0.015619 0.000000 0.000000 0.000000
# 4 0.000000 0.000000 0.000000 0.043138 0.000000 0.000000
# 5 0.000000 0.000000 0.000000 0.000000 0.034256 0.000000
# 6 0.000000 0.000000 0.000000 0.000000 0.000000 0.039565
#
#
# Mechanical properties :
#
#
# Convention : Reuss Voigt Hill
#
# Bulk Modulus (GPa) = 57.51879 73.93612 65.72745
# Shear Modulus (GPa) = 28.20869 31.68452 29.94661
#
# Velocity S-wave (km/s) = 3.66583 3.88512 3.77707
# Velocity P-wave (km/s) = 6.73195 7.43962 7.09461
#
# Compressibility (1/GPa) = 0.01738562
#
# Stress axis : x y z
#
# Youngs Moduli (GPa) = 136.44949 76.96533 64.02418
#
# Poissons Ratio (x) = 0.13632 0.35050
# Poissons Ratio (y) = 0.24168 0.13009
# Poissons Ratio (z) = 0.74698 0.15639
#
# Static dielectric constant tensor:
#      x y z
#    x 4.355300 0.000000 0.000000 
#    y 0.000000 3.809840 0.000000 
#    z 0.000000 0.000000 3.933710 
# 
# 
# High freq. dielectric constant tensor:
#      x y z
#    x 1.823520 0.000000 0.000000 
#    y 0.000000 1.820070 0.000000 
#    z 0.000000 0.000000 1.812610 
# 
# From -- ./inp_files/4791.got.cif
#   From: 2010.03.12/outbox.cif.g09.slc.cpg/sg69_3_cif.got.tgz:4791.got - 2010.04.10 23:52:46.
