data_PCOD8285721
_publ_section_title
;
Structure prediction by ZEFSAII (Michael W. Deem and Ramdas Pophale) SiO2 
 PCOD8285721
Probable space group: F D D D
;
_chemical_formula_sum "Si O2"
_cell_formula_units_Z 152
_cell_length_a 29.261002
_cell_length_b 9.712032
_cell_length_c 23.376656
_cell_angle_alpha 90.000000
_cell_angle_beta 90.000000
_cell_angle_gamma 90.000000
_cell_volume 6643.266648
_symmetry_space_group_name_H-M "F D D D"
_symmetry_group_IT_number 70
_space_group.IT_coordinate_system_code '2'
_symmetry_cell_setting 'orthorhombic'
loop_
_space_group_symop_operation_xyz
x,y,z
1/4-x,1/4-y,z
x,1/4-y,1/4-z
1/4-x,y,1/4-z
-x,-y,-z
3/4+x,3/4+y,-z
-x,3/4+y,3/4+z
3/4+x,-y,3/4+z
x,1/2+y,1/2+z
1/4-x,3/4-y,1/2+z
x,3/4-y,3/4-z
1/4-x,1/2+y,3/4-z
-x,1/2-y,1/2-z
3/4+x,1/4+y,1/2-z
-x,1/4+y,1/4+z
3/4+x,1/2-y,1/4+z
1/2+x,y,1/2+z
3/4-x,1/4-y,1/2+z
1/2+x,1/4-y,3/4-z
3/4-x,y,3/4-z
1/2-x,-y,1/2-z
1/4+x,3/4+y,1/2-z
1/2-x,3/4+y,1/4+z
1/4+x,-y,1/4+z
1/2+x,1/2+y,z
3/4-x,3/4-y,z
1/2+x,3/4-y,1/4-z
3/4-x,1/2+y,1/4-z
1/2-x,1/2-y,-z
1/4+x,1/4+y,-z
1/2-x,1/4+y,3/4+z
1/4+x,1/2-y,3/4+z
loop_
_atom_site_type_symbol
_atom_site_label
_atom_site_fract_x
_atom_site_fract_y
_atom_site_fract_z
Si Si1 0.577297 0.363808 0.675046
Si Si2 0.075339 0.058271 0.468632
Si Si3 0.289113 0.625000 0.125000
Si Si4 0.746645 0.759523 0.733632
Si Si5 0.827420 0.197165 0.299009
Si Si6 0.625000 0.125000 0.125000
O O1 0.534832 0.358504 0.718655
O O2 0.561924 0.301381 0.614821
O O3 0.618104 0.271167 0.702897
O O4 0.595066 0.522940 0.665695
O O5 0.125000 0.125000 0.472239
O O6 0.033379 0.164173 0.474367
O O7 0.071512 0.986375 0.406417
O O8 0.068434 0.950534 0.520214
O O9 0.256569 0.691091 0.172528
O O10 0.794045 0.803770 0.765579
#
# Coordination Sequence:
#
# PCOD8285721 Si02
#       6
#    32  32  16  32  32   8
#     4  10  16  25  38  60  91 122 152 181 226 285
#     4  11  19  30  44  66  95 133 161 193 240 297
#     4  10  21  30  43  70 100 126 166 197 236 299
#     4  11  17  28  43  62  95 128 156 189 238 298
#     4   9  18  25  39  62  90 129 156 179 231 289
#     4   8  14  20  32  44  68 112 140 160 198 250
#
# _framework density 22.880309
#
# number of rings (size 3 to 8) (size 9 to 14) (size 15 to 20)
#    0.000    2.105    2.105    8.211    1.474    0.000 
#    0.000    0.000    0.000    0.000    0.000    1.474 
#    0.000    0.000    0.000    0.000    0.000    0.000 
#
# Total GULP energy -470767.030179 kJ/mol
# GULP energy per Si atom -12388.606057 kJ/mol
# Density = 2.282823 g / cm^3
# Si number density = 22.880309 Si / 1000 Ang^3
#
#
#
# Elastic Constant Matrix: (Units=GPa)
#
#
# Indices 1 2 3 4 5 6 
#
# 1 182.7000 19.9294 90.9096 0.0000 0.0000 0.0000
# 2 19.9294 22.4516 14.5131 0.0000 0.0000 0.0000
# 3 90.9096 14.5131 130.4494 0.0000 0.0000 0.0000
# 4 0.0000 0.0000 0.0000 9.2822 0.0000 0.0000
# 5 0.0000 0.0000 0.0000 0.0000 44.5633 0.0000
# 6 0.0000 0.0000 0.0000 0.0000 0.0000 10.2657
#
#
#
# Elastic Compliance Matrix: (Units=1/GPa)
#
#
# Indices 1 2 3 4 5 6 
#
# 1 0.008717 -0.004106 -0.005618 0.000000 0.000000 0.000000
# 2 -0.004106 0.049926 -0.002693 0.000000 0.000000 0.000000
# 3 -0.005618 -0.002693 0.011880 0.000000 0.000000 0.000000
# 4 0.000000 0.000000 0.000000 0.107733 0.000000 0.000000
# 5 0.000000 0.000000 0.000000 0.000000 0.022440 0.000000
# 6 0.000000 0.000000 0.000000 0.000000 0.000000 0.097412
#
#
# Mechanical properties :
#
#
# Convention : Reuss Voigt Hill
#
# Bulk Modulus (GPa) = 21.88696 65.14500 43.51598
# Shear Modulus (GPa) = 14.78541 26.83885 20.81213
#
# Velocity S-wave (km/s) = 2.54482 3.42864 3.01924
# Velocity P-wave (km/s) = 4.26865 6.64891 5.58701
#
# Compressibility (1/GPa) = 0.04568932
#
# Stress axis : x y z
#
# Youngs Moduli (GPa) = 114.72203 20.02971 84.17184
#
# Poissons Ratio (x) = 0.08224 0.47286
# Poissons Ratio (y) = 0.47105 0.22667
# Poissons Ratio (z) = 0.64449 0.05394
#
# Static dielectric constant tensor:
#      x y z
#    x 4.637220 0.000000 0.000000 
#    y 0.000000 3.616950 0.000000 
#    z 0.000000 0.000000 4.234040 
# 
# 
# High freq. dielectric constant tensor:
#      x y z
#    x 1.918670 0.000000 0.000000 
#    y 0.000000 1.853050 0.000000 
#    z 0.000000 0.000000 1.900060 
# 
# From -- ./inp_files/51492.got.cif
#   From: 2010.03.12/outbox.cif.g09.slc.cpg/sg70_26_cif.got.tgz:51492.got - 2010.04.16 13:46:32.
