data_PCOD8285631
_publ_section_title
;
Structure prediction by ZEFSAII (Michael W. Deem and Ramdas Pophale) SiO2 
 PCOD8285631
Probable space group: F M M M
;
_chemical_formula_sum "Si O2"
_cell_formula_units_Z 192
_cell_length_a 23.948065
_cell_length_b 15.062502
_cell_length_c 26.433157
_cell_angle_alpha 90.000000
_cell_angle_beta 90.000000
_cell_angle_gamma 90.000000
_cell_volume 9534.909631
_symmetry_space_group_name_H-M "F M M M"
_symmetry_group_IT_number 69
_symmetry_cell_setting 'orthorhombic'
loop_
_space_group_symop_operation_xyz
x,y,z
-x,-y,z
x,-y,-z
-x,y,-z
-x,-y,-z
x,y,-z
-x,y,z
x,-y,z
x,1/2+y,1/2+z
-x,1/2-y,1/2+z
x,1/2-y,1/2-z
-x,1/2+y,1/2-z
-x,1/2-y,1/2-z
x,1/2+y,1/2-z
-x,1/2+y,1/2+z
x,1/2-y,1/2+z
1/2+x,y,1/2+z
1/2-x,-y,1/2+z
1/2+x,-y,1/2-z
1/2-x,y,1/2-z
1/2-x,-y,1/2-z
1/2+x,y,1/2-z
1/2-x,y,1/2+z
1/2+x,-y,1/2+z
1/2+x,1/2+y,z
1/2-x,1/2-y,z
1/2+x,1/2-y,-z
1/2-x,1/2+y,-z
1/2-x,1/2-y,-z
1/2+x,1/2+y,-z
1/2-x,1/2+y,z
1/2+x,1/2-y,z
loop_
_atom_site_type_symbol
_atom_site_label
_atom_site_fract_x
_atom_site_fract_y
_atom_site_fract_z
Si Si1 0.250093 0.150383 0.631279
Si Si2 0.435833 0.825506 0.556712
Si Si3 0.363707 0.399516 0.184316
Si Si4 0.251850 0.500000 0.556545
Si Si5 0.349421 0.399114 0.698235
Si Si6 0.435489 0.262359 0.344055
Si Si7 0.379727 0.500000 0.943545
O O1 0.250000 0.250000 0.609956
O O2 0.311579 0.123476 0.648822
O O3 0.228233 0.087725 0.586062
O O4 0.207335 0.144009 0.677750
O O5 0.414473 0.800155 0.500000
O O6 0.500000 0.854258 0.555017
O O7 0.427388 0.742463 0.594704
O O8 0.401856 0.908590 0.581576
O O9 0.383156 0.500000 0.170039
O O10 0.343790 0.394571 0.241890
O O11 0.414203 0.330432 0.179133
O O12 0.277495 0.500000 0.500000
O O13 0.185783 0.500000 0.554171
O O14 0.355993 0.500000 0.679312
O O15 0.402734 0.345859 0.677809
O O16 0.500000 0.273832 0.329037
O O17 0.405881 0.500000 0.000000
#
# Coordination Sequence:
#
# PCOD8285631 Si02
#       7
#    32  32  32  16  32  32  16
#     4  12  23  39  67  94 122 159 206 257 305 362
#     4   9  18  33  55  84 118 158 203 248 294 355
#     4  11  23  40  65  93 124 158 200 256 317 374
#     4  11  24  41  59  90 131 161 195 246 305 375
#     4  11  24  42  64  88 120 163 212 257 305 360
#     4  11  24  39  60  91 128 164 204 254 308 367
#     4   9  17  30  53  83 118 156 189 231 301 371
#
# _framework density 20.136531000000002
#
# number of rings (size 3 to 8) (size 9 to 14) (size 15 to 20)
#    0.000    1.333    3.333    2.250    1.167    5.333 
#    0.000    2.500    0.000    0.000    0.000    2.333 
#    0.000    0.000    0.000    0.000    0.000    0.000 
#
# Total GULP energy -595261.027013 kJ/mol
# GULP energy per Si atom -12401.271396 kJ/mol
# Density = 2.009070 g / cm^3
# Si number density = 20.136531 Si / 1000 Ang^3
#
#
#
# Elastic Constant Matrix: (Units=GPa)
#
#
# Indices 1 2 3 4 5 6 
#
# 1 68.4142 17.1043 7.4537 0.0000 0.0000 0.0000
# 2 17.1043 131.0020 37.3863 0.0000 0.0000 0.0000
# 3 7.4537 37.3863 73.7123 0.0000 0.0000 0.0000
# 4 0.0000 0.0000 0.0000 19.6408 0.0000 0.0000
# 5 0.0000 0.0000 0.0000 0.0000 24.4536 0.0000
# 6 0.0000 0.0000 0.0000 0.0000 0.0000 24.4857
#
#
#
# Elastic Compliance Matrix: (Units=1/GPa)
#
#
# Indices 1 2 3 4 5 6 
#
# 1 0.015134 -0.001800 -0.000618 0.000000 0.000000 0.000000
# 2 -0.001800 0.009139 -0.004453 0.000000 0.000000 0.000000
# 3 -0.000618 -0.004453 0.015887 0.000000 0.000000 0.000000
# 4 0.000000 0.000000 0.000000 0.050914 0.000000 0.000000
# 5 0.000000 0.000000 0.000000 0.000000 0.040894 0.000000
# 6 0.000000 0.000000 0.000000 0.000000 0.000000 0.040840
#
#
# Mechanical properties :
#
#
# Convention : Reuss Voigt Hill
#
# Bulk Modulus (GPa) = 37.85083 44.11302 40.98193
# Shear Modulus (GPa) = 25.59413 27.79496 26.69454
#
# Velocity S-wave (km/s) = 3.56902 3.71930 3.64494
# Velocity P-wave (km/s) = 5.98513 6.35601 6.17335
#
# Compressibility (1/GPa) = 0.02641950
#
# Stress axis : x y z
#
# Youngs Moduli (GPa) = 66.07602 109.41623 62.94279
#
# Poissons Ratio (x) = 0.19692 0.03887
# Poissons Ratio (y) = 0.11892 0.28031
# Poissons Ratio (z) = 0.04080 0.48728
#
# Static dielectric constant tensor:
#      x y z
#    x 3.485830 0.000000 0.000000 
#    y 0.000000 3.743430 0.000000 
#    z 0.000000 0.000000 4.090490 
# 
# 
# High freq. dielectric constant tensor:
#      x y z
#    x 1.775070 0.000000 0.000000 
#    y 0.000000 1.779270 0.000000 
#    z 0.000000 0.000000 1.801020 
# 
# From -- ./inp_files/38394.got.cif
#   From: 2010.03.12/outbox.cif.g09.slc.cpg/sg69_20_cif.got.tgz:38394.got - 2010.04.10 23:52:46.
