data_PCOD8285010
_publ_section_title
;
Structure prediction by ZEFSAII (Michael W. Deem and Ramdas Pophale) SiO2 
 PCOD8285010
Probable space group: F M M M
;
_chemical_formula_sum "Si O2"
_cell_formula_units_Z 88
_cell_length_a 8.946188
_cell_length_b 18.464516
_cell_length_c 27.072188
_cell_angle_alpha 90.000000
_cell_angle_beta 90.000000
_cell_angle_gamma 90.000000
_cell_volume 4471.974371
_symmetry_space_group_name_H-M "F M M M"
_symmetry_group_IT_number 69
_symmetry_cell_setting 'orthorhombic'
loop_
_space_group_symop_operation_xyz
x,y,z
-x,-y,z
x,-y,-z
-x,y,-z
-x,-y,-z
x,y,-z
-x,y,z
x,-y,z
x,1/2+y,1/2+z
-x,1/2-y,1/2+z
x,1/2-y,1/2-z
-x,1/2+y,1/2-z
-x,1/2-y,1/2-z
x,1/2+y,1/2-z
-x,1/2+y,1/2+z
x,1/2-y,1/2+z
1/2+x,y,1/2+z
1/2-x,-y,1/2+z
1/2+x,-y,1/2-z
1/2-x,y,1/2-z
1/2-x,-y,1/2-z
1/2+x,y,1/2-z
1/2-x,y,1/2+z
1/2+x,-y,1/2+z
1/2+x,1/2+y,z
1/2-x,1/2-y,z
1/2+x,1/2-y,-z
1/2-x,1/2+y,-z
1/2-x,1/2-y,-z
1/2+x,1/2+y,-z
1/2-x,1/2+y,z
1/2+x,1/2-y,z
loop_
_atom_site_type_symbol
_atom_site_label
_atom_site_fract_x
_atom_site_fract_y
_atom_site_fract_z
Si Si1 0.833694 0.681605 0.155098
Si Si2 0.325389 0.915525 0.587913
Si Si3 0.178094 0.671334 0.000000
Si Si4 0.750000 0.750000 0.750000
O O1 0.750000 0.750000 0.129272
O O2 0.736667 0.610441 0.141508
O O3 0.844669 0.696236 0.214353
O O4 0.000000 0.673954 0.133494
O O5 0.500000 0.897822 0.582961
O O6 0.231540 0.872422 0.547674
O O7 0.294549 0.000000 0.581706
O O8 0.250000 0.750000 0.000000
O O9 0.000000 0.677707 0.000000
#
# Coordination Sequence:
#
# PCOD8285010 Si02
#       4
#    32  32  16   8
#     4  10  20  36  61  89 118 154 200 248 296 354
#     4  11  24  41  61  88 125 162 198 245 300 355
#     4  12  25  42  65  91 121 159 203 246 291 352
#     4   8  22  36  64  90 118 156 196 256 302 350
#
# _framework density 19.678108999999999
#
# number of rings (size 3 to 8) (size 9 to 14) (size 15 to 20)
#    1.091    0.364    0.000    6.000    0.000    5.091 
#    0.000    0.909    0.000    0.000    0.000    0.000 
#    0.000    0.000    0.000    0.000    0.000    0.000 
#
# Total GULP energy -272606.142655 kJ/mol
# GULP energy per Si atom -12391.188303 kJ/mol
# Density = 1.963332 g / cm^3
# Si number density = 19.678109 Si / 1000 Ang^3
#
#
#
# Elastic Constant Matrix: (Units=GPa)
#
#
# Indices 1 2 3 4 5 6 
#
# 1 179.5987 92.3948 46.6432 0.0000 0.0000 0.0000
# 2 92.3948 130.4584 58.0872 0.0000 0.0000 0.0000
# 3 46.6432 58.0872 102.0516 0.0000 0.0000 0.0000
# 4 0.0000 0.0000 0.0000 25.1988 0.0000 0.0000
# 5 0.0000 0.0000 0.0000 0.0000 27.8357 0.0000
# 6 0.0000 0.0000 0.0000 0.0000 0.0000 32.4027
#
#
#
# Elastic Compliance Matrix: (Units=1/GPa)
#
#
# Indices 1 2 3 4 5 6 
#
# 1 0.008790 -0.005943 -0.000635 0.000000 0.000000 0.000000
# 2 -0.005943 0.014285 -0.005415 0.000000 0.000000 0.000000
# 3 -0.000635 -0.005415 0.013171 0.000000 0.000000 0.000000
# 4 0.000000 0.000000 0.000000 0.039684 0.000000 0.000000
# 5 0.000000 0.000000 0.000000 0.000000 0.035925 0.000000
# 6 0.000000 0.000000 0.000000 0.000000 0.000000 0.030862
#
#
# Mechanical properties :
#
#
# Convention : Reuss Voigt Hill
#
# Bulk Modulus (GPa) = 81.55690 89.59543 85.57617
# Shear Modulus (GPa) = 29.27575 31.41968 30.34772
#
# Velocity S-wave (km/s) = 3.86130 4.00019 3.93135
# Velocity P-wave (km/s) = 7.83677 8.18319 8.01185
#
# Compressibility (1/GPa) = 0.01226138
#
# Stress axis : x y z
#
# Youngs Moduli (GPa) = 113.76420 70.00323 75.92267
#
# Poissons Ratio (x) = 0.41601 0.04821
# Poissons Ratio (y) = 0.67607 0.41111
# Poissons Ratio (z) = 0.07224 0.37906
#
# Static dielectric constant tensor:
#      x y z
#    x 3.603080 0.000000 0.000000 
#    y 0.000000 3.557170 0.000000 
#    z 0.000000 0.000000 3.627190 
# 
# 
# High freq. dielectric constant tensor:
#      x y z
#    x 1.782340 0.000000 0.000000 
#    y 0.000000 1.757130 0.000000 
#    z 0.000000 0.000000 1.761750 
# 
# From -- ./inp_files/44188.got.cif
#   From: 2010.03.12/outbox.cif.g09.slc.cpg/sg69_23_cif.got.tgz:44188.got - 2010.04.10 23:52:46.
