data_PCOD8285867
_publ_section_title
;
Structure prediction by ZEFSAII (Michael W. Deem and Ramdas Pophale) SiO2 
 PCOD8285867
Probable space group: F D D D
;
_chemical_formula_sum "Si O2"
_cell_formula_units_Z 160
_cell_length_a 9.801128
_cell_length_b 25.318053
_cell_length_c 26.069679
_cell_angle_alpha 90.000000
_cell_angle_beta 90.000000
_cell_angle_gamma 90.000000
_cell_volume 6469.072961
_symmetry_space_group_name_H-M "F D D D"
_symmetry_group_IT_number 70
_space_group.IT_coordinate_system_code '2'
_symmetry_cell_setting 'orthorhombic'
loop_
_space_group_symop_operation_xyz
x,y,z
1/4-x,1/4-y,z
x,1/4-y,1/4-z
1/4-x,y,1/4-z
-x,-y,-z
3/4+x,3/4+y,-z
-x,3/4+y,3/4+z
3/4+x,-y,3/4+z
x,1/2+y,1/2+z
1/4-x,3/4-y,1/2+z
x,3/4-y,3/4-z
1/4-x,1/2+y,3/4-z
-x,1/2-y,1/2-z
3/4+x,1/4+y,1/2-z
-x,1/4+y,1/4+z
3/4+x,1/2-y,1/4+z
1/2+x,y,1/2+z
3/4-x,1/4-y,1/2+z
1/2+x,1/4-y,3/4-z
3/4-x,y,3/4-z
1/2-x,-y,1/2-z
1/4+x,3/4+y,1/2-z
1/2-x,3/4+y,1/4+z
1/4+x,-y,1/4+z
1/2+x,1/2+y,z
3/4-x,3/4-y,z
1/2+x,3/4-y,1/4-z
3/4-x,1/2+y,1/4-z
1/2-x,1/2-y,-z
1/4+x,1/4+y,-z
1/2-x,1/4+y,3/4+z
1/4+x,1/2-y,3/4+z
loop_
_atom_site_type_symbol
_atom_site_label
_atom_site_fract_x
_atom_site_fract_y
_atom_site_fract_z
Si Si1 0.464918 0.065022 0.633992
Si Si2 0.573765 0.000138 0.268320
Si Si3 0.595741 0.928433 0.565782
Si Si4 0.569086 0.526250 0.329502
Si Si5 0.256846 0.831752 0.067236
O O1 0.419508 0.125000 0.625000
O O2 0.625000 0.057192 0.625000
O O3 0.422456 0.047960 0.691496
O O4 0.382944 0.030552 0.592663
O O5 0.441168 0.035991 0.280156
O O6 0.707743 0.038790 0.272411
O O7 0.557764 0.979231 0.210098
O O8 0.625000 0.943970 0.625000
O O9 0.437485 0.938420 0.553498
O O10 0.619632 0.865467 0.556229
O O11 0.501653 0.552169 0.378821
O O12 0.375000 0.875000 0.071722
#
# Coordination Sequence:
#
# PCOD8285867 Si02
#       5
#    32  32  32  32  32
#     4  10  19  34  48  81 128 153 183 262 336 366
#     4  10  19  34  54  87 125 154 211 272 325 391
#     4  11  17  34  58  84 121 167 203 265 344 377
#     4  11  19  35  59  90 116 166 217 261 331 402
#     4   9  19  35  55  87 126 164 204 273 336 378
#
# _framework density 24.733066000000001
#
# number of rings (size 3 to 8) (size 9 to 14) (size 15 to 20)
#    0.000    1.800    8.000    0.600    0.000    0.000 
#    7.200    0.000    0.000    1.200   15.600    0.000 
#    0.000    0.000    0.000    0.000    0.000    0.000 
#
# Total GULP energy -496177.548973 kJ/mol
# GULP energy per Si atom -12404.438724 kJ/mol
# Density = 2.467677 g / cm^3
# Si number density = 24.733066 Si / 1000 Ang^3
#
#
#
# Elastic Constant Matrix: (Units=GPa)
#
#
# Indices 1 2 3 4 5 6 
#
# 1 113.2731 60.5262 8.4758 0.0000 0.0000 0.0000
# 2 60.5262 195.4349 72.5012 0.0000 0.0000 0.0000
# 3 8.4758 72.5012 124.2838 0.0000 0.0000 0.0000
# 4 0.0000 0.0000 0.0000 32.0269 0.0000 0.0000
# 5 0.0000 0.0000 0.0000 0.0000 26.2312 0.0000
# 6 0.0000 0.0000 0.0000 0.0000 0.0000 36.1460
#
#
#
# Elastic Compliance Matrix: (Units=1/GPa)
#
#
# Indices 1 2 3 4 5 6 
#
# 1 0.010808 -0.003923 0.001551 0.000000 0.000000 0.000000
# 2 -0.003923 0.007954 -0.004372 0.000000 0.000000 0.000000
# 3 0.001551 -0.004372 0.010491 0.000000 0.000000 0.000000
# 4 0.000000 0.000000 0.000000 0.031224 0.000000 0.000000
# 5 0.000000 0.000000 0.000000 0.000000 0.038122 0.000000
# 6 0.000000 0.000000 0.000000 0.000000 0.000000 0.027666
#
#
# Mechanical properties :
#
#
# Convention : Reuss Voigt Hill
#
# Bulk Modulus (GPa) = 63.43075 79.55535 71.49305
# Shear Modulus (GPa) = 34.48102 38.31340 36.39721
#
# Velocity S-wave (km/s) = 3.73785 3.94010 3.84031
# Velocity P-wave (km/s) = 6.65812 7.27562 6.97370
#
# Compressibility (1/GPa) = 0.01576523
#
# Stress axis : x y z
#
# Youngs Moduli (GPa) = 92.52197 125.72800 95.32093
#
# Poissons Ratio (x) = 0.49320 -0.14787
# Poissons Ratio (y) = 0.36294 0.41677
# Poissons Ratio (z) = -0.14353 0.54972
#
# Static dielectric constant tensor:
#      x y z
#    x 4.793720 0.000000 0.000000 
#    y 0.000000 5.038850 0.000000 
#    z 0.000000 0.000000 4.170390 
# 
# 
# High freq. dielectric constant tensor:
#      x y z
#    x 2.009040 0.000000 0.000000 
#    y 0.000000 2.007600 0.000000 
#    z 0.000000 0.000000 1.958850 
# 
# From -- ./inp_files/57523.got.cif
#   From: 2010.03.12/outbox.cif.g09.slc.cpg/sg70_29_cif.got.tgz:57523.got - 2010.04.16 13:46:32.
