data_PCOD8285633
_publ_section_title
;
Structure prediction by ZEFSAII (Michael W. Deem and Ramdas Pophale) SiO2 
 PCOD8285633
Probable space group: F M M M
;
_chemical_formula_sum "Si O2"
_cell_formula_units_Z 192
_cell_length_a 17.203499
_cell_length_b 17.771404
_cell_length_c 29.667239
_cell_angle_alpha 90.000000
_cell_angle_beta 90.000000
_cell_angle_gamma 90.000000
_cell_volume 9070.174798
_symmetry_space_group_name_H-M "F M M M"
_symmetry_group_IT_number 69
_symmetry_cell_setting 'orthorhombic'
loop_
_space_group_symop_operation_xyz
x,y,z
-x,-y,z
x,-y,-z
-x,y,-z
-x,-y,-z
x,y,-z
-x,y,z
x,-y,z
x,1/2+y,1/2+z
-x,1/2-y,1/2+z
x,1/2-y,1/2-z
-x,1/2+y,1/2-z
-x,1/2-y,1/2-z
x,1/2+y,1/2-z
-x,1/2+y,1/2+z
x,1/2-y,1/2+z
1/2+x,y,1/2+z
1/2-x,-y,1/2+z
1/2+x,-y,1/2-z
1/2-x,y,1/2-z
1/2-x,-y,1/2-z
1/2+x,y,1/2-z
1/2-x,y,1/2+z
1/2+x,-y,1/2+z
1/2+x,1/2+y,z
1/2-x,1/2-y,z
1/2+x,1/2-y,-z
1/2-x,1/2+y,-z
1/2-x,1/2-y,-z
1/2+x,1/2+y,-z
1/2-x,1/2+y,z
1/2+x,1/2-y,z
loop_
_atom_site_type_symbol
_atom_site_label
_atom_site_fract_x
_atom_site_fract_y
_atom_site_fract_z
Si Si1 0.913427 0.320695 0.415488
Si Si2 0.586257 0.161978 0.742324
Si Si3 0.639268 0.088169 0.165656
Si Si4 0.194213 0.086854 0.500000
Si Si5 0.706215 0.330166 0.164805
Si Si6 0.414074 0.150404 0.073824
Si Si7 0.133360 0.410446 0.500000
O O1 0.846126 0.332852 0.379390
O O2 0.902046 0.238082 0.436107
O O3 0.908793 0.381038 0.455294
O O4 0.000000 0.326893 0.393479
O O5 0.500000 0.136557 0.726026
O O6 0.586282 0.250000 0.750000
O O7 0.606192 0.117370 0.787422
O O8 0.652229 0.145137 0.706066
O O9 0.730634 0.104255 0.161056
O O10 0.594674 0.133075 0.126605
O O11 0.623425 0.000000 0.160760
O O12 0.149111 0.106455 0.454708
O O13 0.279328 0.124049 0.500000
O O14 0.210091 0.000000 0.500000
O O15 0.750000 0.250000 0.171832
O O16 0.500000 0.125130 0.058323
O O17 0.128343 0.500000 0.500000
#
# Coordination Sequence:
#
# PCOD8285633 Si02
#       7
#    32  32  32  16  32  32  16
#     4  11  24  43  69 100 130 171 226 273 331 406
#     4  11  23  41  67  96 130 176 227 272 330 407
#     4  12  26  42  66 100 137 176 224 282 345 405
#     4  11  24  39  60  92 130 176 224 269 329 402
#     4  12  23  42  69  97 130 176 218 279 335 395
#     4  11  23  41  64  95 134 176 223 277 335 404
#     4  11  26  45  68  98 137 177 224 285 341 388
#
# _framework density 21.168278999999998
#
# number of rings (size 3 to 8) (size 9 to 14) (size 15 to 20)
#    0.000    0.667    3.333    4.000    0.000   11.333 
#    0.000    0.000    0.000    3.000    0.000    0.000 
#    0.000    0.000    0.000    0.000    0.000    0.000 
#
# Total GULP energy -595318.673013 kJ/mol
# GULP energy per Si atom -12402.472354 kJ/mol
# Density = 2.112010 g / cm^3
# Si number density = 21.168279 Si / 1000 Ang^3
#
#
#
# Elastic Constant Matrix: (Units=GPa)
#
#
# Indices 1 2 3 4 5 6 
#
# 1 126.0842 31.5189 29.7313 0.0000 0.0000 0.0000
# 2 31.5189 94.3606 27.3505 0.0000 0.0000 0.0000
# 3 29.7313 27.3505 101.6634 0.0000 0.0000 0.0000
# 4 0.0000 0.0000 0.0000 30.0671 0.0000 0.0000
# 5 0.0000 0.0000 0.0000 0.0000 44.3689 0.0000
# 6 0.0000 0.0000 0.0000 0.0000 0.0000 44.9858
#
#
#
# Elastic Compliance Matrix: (Units=1/GPa)
#
#
# Indices 1 2 3 4 5 6 
#
# 1 0.009007 -0.002435 -0.001979 0.000000 0.000000 0.000000
# 2 -0.002435 0.012152 -0.002557 0.000000 0.000000 0.000000
# 3 -0.001979 -0.002557 0.011103 0.000000 0.000000 0.000000
# 4 0.000000 0.000000 0.000000 0.033259 0.000000 0.000000
# 5 0.000000 0.000000 0.000000 0.000000 0.022538 0.000000
# 6 0.000000 0.000000 0.000000 0.000000 0.000000 0.022229
#
#
# Mechanical properties :
#
#
# Convention : Reuss Voigt Hill
#
# Bulk Modulus (GPa) = 54.58565 55.47885 55.03225
# Shear Modulus (GPa) = 38.36216 39.45152 38.90684
#
# Velocity S-wave (km/s) = 4.26167 4.32175 4.29182
# Velocity P-wave (km/s) = 7.07519 7.15324 7.11432
#
# Compressibility (1/GPa) = 0.01831983
#
# Stress axis : x y z
#
# Youngs Moduli (GPa) = 111.03086 82.28996 90.06509
#
# Poissons Ratio (x) = 0.20036 0.17823
# Poissons Ratio (y) = 0.27034 0.23032
# Poissons Ratio (z) = 0.21972 0.21043
#
# Static dielectric constant tensor:
#      x y z
#    x 4.302760 0.000000 0.000000 
#    y 0.000000 3.827150 0.000000 
#    z 0.000000 0.000000 3.339390 
# 
# 
# High freq. dielectric constant tensor:
#      x y z
#    x 1.858180 0.000000 0.000000 
#    y 0.000000 1.817810 0.000000 
#    z 0.000000 0.000000 1.834150 
# 
# From -- ./inp_files/46402.got.cif
#   From: 2010.03.12/outbox.cif.g09.slc.cpg/sg69_24_cif.got.tgz:46402.got - 2010.04.10 23:52:46.
