data_PCOD8285777
_publ_section_title
;
Structure prediction by ZEFSAII (Michael W. Deem and Ramdas Pophale) SiO2 
 PCOD8285777
Probable space group: F D D D
;
_chemical_formula_sum "Si O2"
_cell_formula_units_Z 144
_cell_length_a 25.925585
_cell_length_b 10.109441
_cell_length_c 31.002932
_cell_angle_alpha 90.000000
_cell_angle_beta 90.000000
_cell_angle_gamma 90.000000
_cell_volume 8125.656788
_symmetry_space_group_name_H-M "F D D D"
_symmetry_group_IT_number 70
_space_group.IT_coordinate_system_code '2'
_symmetry_cell_setting 'orthorhombic'
loop_
_space_group_symop_operation_xyz
x,y,z
1/4-x,1/4-y,z
x,1/4-y,1/4-z
1/4-x,y,1/4-z
-x,-y,-z
3/4+x,3/4+y,-z
-x,3/4+y,3/4+z
3/4+x,-y,3/4+z
x,1/2+y,1/2+z
1/4-x,3/4-y,1/2+z
x,3/4-y,3/4-z
1/4-x,1/2+y,3/4-z
-x,1/2-y,1/2-z
3/4+x,1/4+y,1/2-z
-x,1/4+y,1/4+z
3/4+x,1/2-y,1/4+z
1/2+x,y,1/2+z
3/4-x,1/4-y,1/2+z
1/2+x,1/4-y,3/4-z
3/4-x,y,3/4-z
1/2-x,-y,1/2-z
1/4+x,3/4+y,1/2-z
1/2-x,3/4+y,1/4+z
1/4+x,-y,1/4+z
1/2+x,1/2+y,z
3/4-x,3/4-y,z
1/2+x,3/4-y,1/4-z
3/4-x,1/2+y,1/4-z
1/2-x,1/2-y,-z
1/4+x,1/4+y,-z
1/2-x,1/4+y,3/4+z
1/4+x,1/2-y,3/4+z
loop_
_atom_site_type_symbol
_atom_site_label
_atom_site_fract_x
_atom_site_fract_y
_atom_site_fract_z
Si Si1 0.429129 0.432893 0.686146
Si Si2 0.507184 0.214613 0.662405
Si Si3 0.428995 0.660386 0.857063
Si Si4 0.576524 0.038427 0.715030
Si Si5 0.488937 0.125000 0.125000
O O1 0.375000 0.375000 0.668649
O O2 0.467270 0.309832 0.685318
O O3 0.424043 0.489774 0.734203
O O4 0.450715 0.553733 0.658209
O O5 0.480641 0.125000 0.625000
O O6 0.553858 0.295704 0.640272
O O7 0.526253 0.119546 0.700551
O O8 0.375000 0.720155 0.875000
O O9 0.420780 0.601978 0.809273
O O10 0.473454 0.770281 0.851858
O O11 0.625000 0.125000 0.701119
#
# Coordination Sequence:
#
# PCOD8285777 Si02
#       5
#    32  32  32  32  16
#     4  10  22  36  53  74 108 146 181 225 254 317
#     4   9  18  31  55  82 103 138 174 217 271 316
#     4  10  18  33  58  82 110 135 168 222 275 330
#     4  10  18  32  57  84 107 133 177 225 270 317
#     4  10  23  38  52  78 108 150 179 210 276 322
#
# _framework density 17.721644999999999
#
# number of rings (size 3 to 8) (size 9 to 14) (size 15 to 20)
#    0.000    2.222    2.222    1.000    1.556    0.889 
#    0.000    0.000    0.000    2.667    0.000    0.000 
#    0.000    0.000    0.000    0.000    0.000    0.000 
#
# Total GULP energy -446341.942647 kJ/mol
# GULP energy per Si atom -12398.387296 kJ/mol
# Density = 1.768131 g / cm^3
# Si number density = 17.721645 Si / 1000 Ang^3
#
#
#
# Elastic Constant Matrix: (Units=GPa)
#
#
# Indices 1 2 3 4 5 6 
#
# 1 96.5271 43.7291 55.4062 0.0000 0.0000 -0.0001
# 2 43.7291 96.8832 54.3169 0.0000 0.0000 -0.0002
# 3 55.4062 54.3169 84.1470 0.0000 0.0000 0.0000
# 4 0.0000 0.0000 0.0000 24.3421 0.0000 0.0000
# 5 0.0000 0.0000 0.0000 0.0000 21.5391 0.0000
# 6 -0.0001 -0.0002 0.0000 0.0000 0.0000 30.3056
#
#
#
# Elastic Compliance Matrix: (Units=1/GPa)
#
#
# Indices 1 2 3 4 5 6 
#
# 1 0.016944 -0.002183 -0.009747 0.000000 0.000000 0.000000
# 2 -0.002183 0.016457 -0.009186 0.000000 0.000000 0.000000
# 3 -0.009747 -0.009186 0.024231 0.000000 0.000000 0.000000
# 4 0.000000 0.000000 0.000000 0.041081 0.000000 0.000000
# 5 0.000000 0.000000 0.000000 0.000000 0.046427 0.000000
# 6 0.000000 0.000000 0.000000 0.000000 0.000000 0.032997
#
#
# Mechanical properties :
#
#
# Convention : Reuss Voigt Hill
#
# Bulk Modulus (GPa) = 64.93451 64.94020 64.93736
# Shear Modulus (GPa) = 22.17271 23.51103 22.84187
#
# Velocity S-wave (km/s) = 3.54102 3.64632 3.59405
# Velocity P-wave (km/s) = 7.31022 7.37914 7.34476
#
# Compressibility (1/GPa) = 0.01540013
#
# Stress axis : x y z
#
# Youngs Moduli (GPa) = 59.01917 60.76521 41.26872
#
# Poissons Ratio (x) = 0.13264 0.40226
# Poissons Ratio (y) = 0.12883 0.37908
# Poissons Ratio (z) = 0.57529 0.55816
#
# Static dielectric constant tensor:
#      x y z
#    x 3.280670 0.000000 0.000000 
#    y 0.000000 3.246640 0.000000 
#    z 0.000000 0.000000 3.120300 
# 
# 
# High freq. dielectric constant tensor:
#      x y z
#    x 1.686870 0.000000 0.000000 
#    y 0.000000 1.681310 0.000000 
#    z 0.000000 0.000000 1.676740 
# 
# From -- ./inp_files/20785.got.cif
#   From: 2010.03.12/outbox.cif.g09.slc.cpg/sg70_11_cif.got.tgz:20785.got - 2010.04.16 13:46:32.
