data_PCOD8285781
_publ_section_title
;
Structure prediction by ZEFSAII (Michael W. Deem and Ramdas Pophale) SiO2 
 PCOD8285781
Probable space group: F D D D
;
_chemical_formula_sum "Si O2"
_cell_formula_units_Z 160
_cell_length_a 19.538407
_cell_length_b 32.861843
_cell_length_c 13.584267
_cell_angle_alpha 90.000000
_cell_angle_beta 90.000000
_cell_angle_gamma 90.000000
_cell_volume 8722.024004
_symmetry_space_group_name_H-M "F D D D"
_symmetry_group_IT_number 70
_space_group.IT_coordinate_system_code '2'
_symmetry_cell_setting 'orthorhombic'
loop_
_space_group_symop_operation_xyz
x,y,z
1/4-x,1/4-y,z
x,1/4-y,1/4-z
1/4-x,y,1/4-z
-x,-y,-z
3/4+x,3/4+y,-z
-x,3/4+y,3/4+z
3/4+x,-y,3/4+z
x,1/2+y,1/2+z
1/4-x,3/4-y,1/2+z
x,3/4-y,3/4-z
1/4-x,1/2+y,3/4-z
-x,1/2-y,1/2-z
3/4+x,1/4+y,1/2-z
-x,1/4+y,1/4+z
3/4+x,1/2-y,1/4+z
1/2+x,y,1/2+z
3/4-x,1/4-y,1/2+z
1/2+x,1/4-y,3/4-z
3/4-x,y,3/4-z
1/2-x,-y,1/2-z
1/4+x,3/4+y,1/2-z
1/2-x,3/4+y,1/4+z
1/4+x,-y,1/4+z
1/2+x,1/2+y,z
3/4-x,3/4-y,z
1/2+x,3/4-y,1/4-z
3/4-x,1/2+y,1/4-z
1/2-x,1/2-y,-z
1/4+x,1/4+y,-z
1/2-x,1/4+y,3/4+z
1/4+x,1/2-y,3/4+z
loop_
_atom_site_type_symbol
_atom_site_label
_atom_site_fract_x
_atom_site_fract_y
_atom_site_fract_z
Si Si1 0.128569 0.402624 0.967725
Si Si2 0.093104 0.667904 0.489659
Si Si3 0.771029 0.799199 0.084355
Si Si4 0.270442 0.634064 0.883670
Si Si5 0.767824 0.710309 0.130366
O O1 0.114667 0.375000 0.875000
O O2 0.162861 0.445292 0.935053
O O3 0.056104 0.407057 0.024513
O O4 0.180156 0.379802 0.040053
O O5 0.125000 0.625000 0.525908
O O6 0.150750 0.698914 0.453227
O O7 0.049799 0.687109 0.579595
O O8 0.045155 0.660710 0.394651
O O9 0.751578 0.837240 0.154747
O O10 0.760545 0.758604 0.149093
O O11 0.724236 0.798113 0.986037
#
# Coordination Sequence:
#
# PCOD8285781 Si02
#       5
#    32  32  32  32  32
#     4  10  18  33  52  75 109 140 179 222 264 333
#     4   9  19  34  55  75 106 144 179 217 271 329
#     4  10  19  33  50  80 109 132 174 231 272 325
#     4   9  19  33  54  77 103 144 183 212 266 329
#     4  10  20  31  50  81 109 135 172 223 293 317
#
# _framework density 18.344366000000001
#
# number of rings (size 3 to 8) (size 9 to 14) (size 15 to 20)
#    0.000    2.400    2.000    0.600    0.000    4.000 
#    3.600    1.000    0.000   10.200    0.000    0.000 
#    0.000    0.000    0.000    0.000    0.000    0.000 
#
# Total GULP energy -495812.470989 kJ/mol
# GULP energy per Si atom -12395.311775 kJ/mol
# Density = 1.830261 g / cm^3
# Si number density = 18.344366 Si / 1000 Ang^3
#
#
#
# Elastic Constant Matrix: (Units=GPa)
#
#
# Indices 1 2 3 4 5 6 
#
# 1 75.2437 40.6534 41.0434 0.0000 0.0000 0.0000
# 2 40.6534 108.8551 39.8529 0.0000 0.0000 0.0000
# 3 41.0434 39.8529 78.0073 0.0000 0.0000 0.0000
# 4 0.0000 0.0000 0.0000 23.9981 0.0000 0.0000
# 5 0.0000 0.0000 0.0000 0.0000 18.7247 0.0000
# 6 0.0000 0.0000 0.0000 0.0000 0.0000 24.7070
#
#
#
# Elastic Compliance Matrix: (Units=1/GPa)
#
#
# Indices 1 2 3 4 5 6 
#
# 1 0.020296 -0.004515 -0.008372 0.000000 0.000000 0.000000
# 2 -0.004515 0.012304 -0.003911 0.000000 0.000000 0.000000
# 3 -0.008372 -0.003911 0.019222 0.000000 0.000000 0.000000
# 4 0.000000 0.000000 0.000000 0.041670 0.000000 0.000000
# 5 0.000000 0.000000 0.000000 0.000000 0.053406 0.000000
# 6 0.000000 0.000000 0.000000 0.000000 0.000000 0.040474
#
#
# Mechanical properties :
#
#
# Convention : Reuss Voigt Hill
#
# Bulk Modulus (GPa) = 54.86241 56.13394 55.49817
# Shear Modulus (GPa) = 22.02213 22.85637 22.43925
#
# Velocity S-wave (km/s) = 3.46856 3.53365 3.50125
# Velocity P-wave (km/s) = 6.78329 6.87862 6.83112
#
# Compressibility (1/GPa) = 0.01822742
#
# Stress axis : x y z
#
# Youngs Moduli (GPa) = 49.27006 81.27189 52.02276
#
# Poissons Ratio (x) = 0.36692 0.43555
# Poissons Ratio (y) = 0.22244 0.20345
# Poissons Ratio (z) = 0.41251 0.31783
#
# Static dielectric constant tensor:
#      x y z
#    x 3.559500 0.000000 0.000000 
#    y 0.000000 3.316390 0.000000 
#    z 0.000000 0.000000 3.185380 
# 
# 
# High freq. dielectric constant tensor:
#      x y z
#    x 1.709460 0.000000 0.000000 
#    y 0.000000 1.701760 0.000000 
#    z 0.000000 0.000000 1.681280 
# 
# From -- ./inp_files/19507.got.cif
#   From: 2010.03.12/outbox.cif.g09.slc.cpg/sg70_10_cif.got.tgz:19507.got - 2010.04.16 13:46:32.
