data_PCOD8285200
_publ_section_title
;
Structure prediction by ZEFSAII (Michael W. Deem and Ramdas Pophale) SiO2 
 PCOD8285200
Probable space group: F M M M
;
_chemical_formula_sum "Si O2"
_cell_formula_units_Z 128
_cell_length_a 18.737205
_cell_length_b 13.772137
_cell_length_c 20.625017
_cell_angle_alpha 90.000000
_cell_angle_beta 90.000000
_cell_angle_gamma 90.000000
_cell_volume 5322.313568
_symmetry_space_group_name_H-M "F M M M"
_symmetry_group_IT_number 69
_symmetry_cell_setting 'orthorhombic'
loop_
_space_group_symop_operation_xyz
x,y,z
-x,-y,z
x,-y,-z
-x,y,-z
-x,-y,-z
x,y,-z
-x,y,z
x,-y,z
x,1/2+y,1/2+z
-x,1/2-y,1/2+z
x,1/2-y,1/2-z
-x,1/2+y,1/2-z
-x,1/2-y,1/2-z
x,1/2+y,1/2-z
-x,1/2+y,1/2+z
x,1/2-y,1/2+z
1/2+x,y,1/2+z
1/2-x,-y,1/2+z
1/2+x,-y,1/2-z
1/2-x,y,1/2-z
1/2-x,-y,1/2-z
1/2+x,y,1/2-z
1/2-x,y,1/2+z
1/2+x,-y,1/2+z
1/2+x,1/2+y,z
1/2-x,1/2-y,z
1/2+x,1/2-y,-z
1/2-x,1/2+y,-z
1/2-x,1/2-y,-z
1/2+x,1/2+y,-z
1/2-x,1/2+y,z
1/2+x,1/2-y,z
loop_
_atom_site_type_symbol
_atom_site_label
_atom_site_fract_x
_atom_site_fract_y
_atom_site_fract_z
Si Si1 0.000000 0.223333 0.072815
Si Si2 0.353628 0.394381 0.248401
Si Si3 0.500000 0.661207 0.701122
Si Si4 0.353378 0.692589 0.885268
Si Si5 0.792349 0.607936 0.118448
O O1 0.000000 0.308368 0.125625
O O2 0.071511 0.157665 0.084137
O O3 0.000000 0.264980 0.000000
O O4 0.344124 0.500000 0.213842
O O5 0.428364 0.399899 0.287527
O O6 0.356325 0.310266 0.193735
O O7 0.290982 0.382471 0.302649
O O8 0.500000 0.750000 0.750000
O O9 0.288056 0.625222 0.908146
O O10 0.341983 0.804906 0.908129
O O11 0.817802 0.500000 0.096183
#
# Coordination Sequence:
#
# PCOD8285200 Si02
#       5
#    16  32  16  32  32
#     4  12  26  44  68  94 129 184 232 274 339 398
#     4  11  20  33  63 103 136 170 216 273 340 398
#     4  12  19  38  63  95 130 170 221 279 335 391
#     4  11  21  40  64  93 138 172 217 276 325 398
#     4  10  21  36  63 101 134 170 213 271 340 396
#
# _framework density 24.049690999999999
#
# number of rings (size 3 to 8) (size 9 to 14) (size 15 to 20)
#    0.000    1.000    5.000    2.625    0.000    4.000 
#    0.000    5.000    0.000   13.500    0.000    0.000 
#    0.000    0.000    0.000    0.000    0.000    0.000 
#
# Total GULP energy -396528.622931 kJ/mol
# GULP energy per Si atom -12391.519467 kJ/mol
# Density = 2.399495 g / cm^3
# Si number density = 24.049691 Si / 1000 Ang^3
#
#
#
# Elastic Constant Matrix: (Units=GPa)
#
#
# Indices 1 2 3 4 5 6 
#
# 1 145.4459 37.7602 22.3304 0.0000 0.0000 0.0000
# 2 37.7602 118.2438 17.1296 0.0000 0.0000 0.0000
# 3 22.3304 17.1296 77.6825 0.0000 0.0000 0.0000
# 4 0.0000 0.0000 0.0000 7.5304 0.0000 0.0000
# 5 0.0000 0.0000 0.0000 0.0000 12.0312 0.0000
# 6 0.0000 0.0000 0.0000 0.0000 0.0000 23.9720
#
#
#
# Elastic Compliance Matrix: (Units=1/GPa)
#
#
# Indices 1 2 3 4 5 6 
#
# 1 0.007716 -0.002213 -0.001730 0.000000 0.000000 0.000000
# 2 -0.002213 0.009371 -0.001430 0.000000 0.000000 0.000000
# 3 -0.001730 -0.001430 0.013686 0.000000 0.000000 0.000000
# 4 0.000000 0.000000 0.000000 0.132795 0.000000 0.000000
# 5 0.000000 0.000000 0.000000 0.000000 0.083117 0.000000
# 6 0.000000 0.000000 0.000000 0.000000 0.000000 0.041715
#
#
# Mechanical properties :
#
#
# Convention : Reuss Voigt Hill
#
# Bulk Modulus (GPa) = 49.93617 55.09028 52.51323
# Shear Modulus (GPa) = 16.34938 26.31685 21.33312
#
# Velocity S-wave (km/s) = 2.61016 3.31156 2.98156
# Velocity P-wave (km/s) = 5.46742 6.13013 5.80824
#
# Compressibility (1/GPa) = 0.02002556
#
# Stress axis : x y z
#
# Youngs Moduli (GPa) = 129.60741 106.71112 73.06984
#
# Poissons Ratio (x) = 0.23619 0.12640
# Poissons Ratio (y) = 0.28686 0.10450
# Poissons Ratio (z) = 0.22420 0.15261
#
# Static dielectric constant tensor:
#      x y z
#    x 4.952950 0.000000 0.000000 
#    y 0.000000 4.070450 0.000000 
#    z 0.000000 0.000000 3.638330 
# 
# 
# High freq. dielectric constant tensor:
#      x y z
#    x 1.983790 0.000000 0.000000 
#    y 0.000000 1.934270 0.000000 
#    z 0.000000 0.000000 1.891270 
# 
# From -- ./inp_files/31515.got.cif
#   From: 2010.03.12/outbox.cif.g09.slc.cpg/sg69_16_cif.got.tgz:31515.got - 2010.04.10 23:52:46.
