data_PCOD8285694
_publ_section_title
;
Structure prediction by ZEFSAII (Michael W. Deem and Ramdas Pophale) SiO2 
 PCOD8285694
Probable space group: F M M M
;
_chemical_formula_sum "Si O2"
_cell_formula_units_Z 112
_cell_length_a 38.223041
_cell_length_b 9.932341
_cell_length_c 18.931389
_cell_angle_alpha 90.000000
_cell_angle_beta 90.000000
_cell_angle_gamma 90.000000
_cell_volume 7187.193495
_symmetry_space_group_name_H-M "F M M M"
_symmetry_group_IT_number 69
_symmetry_cell_setting 'orthorhombic'
loop_
_space_group_symop_operation_xyz
x,y,z
-x,-y,z
x,-y,-z
-x,y,-z
-x,-y,-z
x,y,-z
-x,y,z
x,-y,z
x,1/2+y,1/2+z
-x,1/2-y,1/2+z
x,1/2-y,1/2-z
-x,1/2+y,1/2-z
-x,1/2-y,1/2-z
x,1/2+y,1/2-z
-x,1/2+y,1/2+z
x,1/2-y,1/2+z
1/2+x,y,1/2+z
1/2-x,-y,1/2+z
1/2+x,-y,1/2-z
1/2-x,y,1/2-z
1/2-x,-y,1/2-z
1/2+x,y,1/2-z
1/2-x,y,1/2+z
1/2+x,-y,1/2+z
1/2+x,1/2+y,z
1/2-x,1/2-y,z
1/2+x,1/2-y,-z
1/2-x,1/2+y,-z
1/2-x,1/2-y,-z
1/2+x,1/2+y,-z
1/2-x,1/2+y,z
1/2+x,1/2-y,z
loop_
_atom_site_type_symbol
_atom_site_label
_atom_site_fract_x
_atom_site_fract_y
_atom_site_fract_z
Si Si1 0.340249 0.654968 0.187797
Si Si2 0.080678 0.147279 0.807724
Si Si3 0.719558 0.846066 0.418600
Si Si4 0.541348 0.500000 0.081570
O O1 0.336614 0.500000 0.211539
O O2 0.326304 0.750000 0.250000
O O3 0.380401 0.692781 0.169050
O O4 0.316904 0.685247 0.119607
O O5 0.064567 0.250000 0.750000
O O6 0.082512 0.000000 0.770630
O O7 0.056651 0.133653 0.878521
O O8 0.712540 0.813591 0.500000
O O9 0.750000 0.750000 0.388230
O O10 0.731483 0.000000 0.406751
O O11 0.500000 0.500000 0.088193
O O12 0.553415 0.500000 0.000000
#
# Coordination Sequence:
#
# PCOD8285694 Si02
#       4
#    32  32  32  16
#     4   9  17  30  46  66  89 117 149 187 228 268
#     4   8  16  30  48  70  96 125 159 192 230 282
#     4   9  18  31  45  62  86 115 152 191 229 273
#     4   9  18  30  48  76 103 124 155 199 236 273
#
# _framework density 15.583273
#
# number of rings (size 3 to 8) (size 9 to 14) (size 15 to 20)
#    0.857    2.429    0.000    0.000    0.000    3.429 
#    0.000    2.857    0.000    0.857    0.000   10.000 
#    0.000    0.000    0.000    0.000    0.000    0.000 
#
# Total GULP energy -346947.048657 kJ/mol
# GULP energy per Si atom -12390.966023 kJ/mol
# Density = 1.554780 g / cm^3
# Si number density = 15.583273 Si / 1000 Ang^3
#
#
#
# Elastic Constant Matrix: (Units=GPa)
#
#
# Indices 1 2 3 4 5 6 
#
# 1 75.6112 36.9572 56.8075 0.0000 0.0000 0.0000
# 2 36.9572 56.6062 49.0458 0.0000 0.0000 0.0000
# 3 56.8075 49.0458 102.7461 0.0000 0.0000 0.0000
# 4 0.0000 0.0000 0.0000 25.9100 0.0000 0.0000
# 5 0.0000 0.0000 0.0000 0.0000 29.1605 0.0000
# 6 0.0000 0.0000 0.0000 0.0000 0.0000 20.0343
#
#
#
# Elastic Compliance Matrix: (Units=1/GPa)
#
#
# Indices 1 2 3 4 5 6 
#
# 1 0.024221 -0.007180 -0.009964 0.000000 0.000000 0.000000
# 2 -0.007180 0.032254 -0.011427 0.000000 0.000000 0.000000
# 3 -0.009964 -0.011427 0.020696 0.000000 0.000000 0.000000
# 4 0.000000 0.000000 0.000000 0.038595 0.000000 0.000000
# 5 0.000000 0.000000 0.000000 0.000000 0.034293 0.000000
# 6 0.000000 0.000000 0.000000 0.000000 0.000000 0.049914
#
#
# Mechanical properties :
#
#
# Convention : Reuss Voigt Hill
#
# Bulk Modulus (GPa) = 49.92603 57.84274 53.88438
# Shear Modulus (GPa) = 18.95421 21.16450 20.05935
#
# Velocity S-wave (km/s) = 3.49136 3.68931 3.59170
# Velocity P-wave (km/s) = 6.95417 7.43956 7.20096
#
# Compressibility (1/GPa) = 0.02002963
#
# Stress axis : x y z
#
# Youngs Moduli (GPa) = 41.28577 31.00369 48.31741
#
# Poissons Ratio (x) = 0.22261 0.48145
# Poissons Ratio (y) = 0.29644 0.55211
# Poissons Ratio (z) = 0.41139 0.35427
#
# Static dielectric constant tensor:
#      x y z
#    x 2.933850 0.000000 0.000000 
#    y 0.000000 2.953570 0.000000 
#    z 0.000000 0.000000 2.871860 
# 
# 
# High freq. dielectric constant tensor:
#      x y z
#    x 1.595880 0.000000 0.000000 
#    y 0.000000 1.585980 0.000000 
#    z 0.000000 0.000000 1.582990 
# 
# From -- ./inp_files/38726.got.cif
#   From: 2010.03.12/outbox.cif.g09.slc.cpg/sg69_20_cif.got.tgz:38726.got - 2010.04.10 23:52:46.
