data_PCOD8285095
_publ_section_title
;
Structure prediction by ZEFSAII (Michael W. Deem and Ramdas Pophale) SiO2 
 PCOD8285095
Probable space group: F M M M
;
_chemical_formula_sum "Si O2"
_cell_formula_units_Z 160
_cell_length_a 22.210717
_cell_length_b 17.109694
_cell_length_c 21.293397
_cell_angle_alpha 90.000000
_cell_angle_beta 90.000000
_cell_angle_gamma 90.000000
_cell_volume 8091.886308
_symmetry_space_group_name_H-M "F M M M"
_symmetry_group_IT_number 69
_symmetry_cell_setting 'orthorhombic'
loop_
_space_group_symop_operation_xyz
x,y,z
-x,-y,z
x,-y,-z
-x,y,-z
-x,-y,-z
x,y,-z
-x,y,z
x,-y,z
x,1/2+y,1/2+z
-x,1/2-y,1/2+z
x,1/2-y,1/2-z
-x,1/2+y,1/2-z
-x,1/2-y,1/2-z
x,1/2+y,1/2-z
-x,1/2+y,1/2+z
x,1/2-y,1/2+z
1/2+x,y,1/2+z
1/2-x,-y,1/2+z
1/2+x,-y,1/2-z
1/2-x,y,1/2-z
1/2-x,-y,1/2-z
1/2+x,y,1/2-z
1/2-x,y,1/2+z
1/2+x,-y,1/2+z
1/2+x,1/2+y,z
1/2-x,1/2-y,z
1/2+x,1/2-y,-z
1/2-x,1/2+y,-z
1/2-x,1/2-y,-z
1/2+x,1/2+y,-z
1/2-x,1/2+y,z
1/2+x,1/2-y,z
loop_
_atom_site_type_symbol
_atom_site_label
_atom_site_fract_x
_atom_site_fract_y
_atom_site_fract_z
Si Si1 0.289729 0.823610 0.166380
Si Si2 0.500000 0.280781 0.427910
Si Si3 0.122753 0.911858 0.752086
Si Si4 0.369104 0.236851 0.431951
Si Si5 0.500000 0.332348 0.712663
Si Si6 0.180995 0.586795 0.382545
O O1 0.250000 0.750000 0.187720
O O2 0.324167 0.857369 0.225969
O O3 0.339870 0.796110 0.116947
O O4 0.248696 0.892311 0.138473
O O5 0.500000 0.320404 0.500000
O O6 0.440587 0.228108 0.421101
O O7 0.500000 0.333864 0.364300
O O8 0.132688 0.910347 0.826335
O O9 0.057956 0.879113 0.735285
O O10 0.128532 0.000000 0.725578
O O11 0.355622 0.273506 0.500000
O O12 0.340948 0.150421 0.432335
O O13 0.500000 0.250000 0.750000
O O14 0.182327 0.500000 0.412312
#
# Coordination Sequence:
#
# PCOD8285095 Si02
#       6
#    32  16  32  32  16  32
#     4  10  21  35  60  84 114 153 199 238 289 351
#     4  10  20  39  63  87 115 150 197 250 298 348
#     4  11  23  39  58  88 124 153 191 247 305 359
#     4  10  21  38  60  86 113 149 200 251 289 345
#     4  12  23  37  66  92 118 159 205 251 304 359
#     4  10  22  37  55  83 119 156 188 235 298 357
#
# _framework density 19.772893
#
# number of rings (size 3 to 8) (size 9 to 14) (size 15 to 20)
#    0.000    1.600    2.000    2.700    2.800    8.000 
#    0.000    1.500    0.000    6.000    0.000    0.000 
#    0.000    0.000    0.000    0.000    0.000    0.000 
#
# Total GULP energy -495738.519649 kJ/mol
# GULP energy per Si atom -12393.462991 kJ/mol
# Density = 1.972789 g / cm^3
# Si number density = 19.772893 Si / 1000 Ang^3
#
#
#
# Elastic Constant Matrix: (Units=GPa)
#
#
# Indices 1 2 3 4 5 6 
#
# 1 118.0476 22.3479 19.1721 0.0000 0.0000 0.0000
# 2 22.3479 82.8972 16.9321 0.0000 0.0000 0.0000
# 3 19.1721 16.9321 70.1569 0.0000 0.0000 0.0000
# 4 0.0000 0.0000 0.0000 19.4936 0.0000 0.0000
# 5 0.0000 0.0000 0.0000 0.0000 -18.4099 0.0000
# 6 0.0000 0.0000 0.0000 0.0000 0.0000 28.5255
#
#
#
# Elastic Compliance Matrix: (Units=1/GPa)
#
#
# Indices 1 2 3 4 5 6 
#
# 1 0.009189 -0.002066 -0.002012 0.000000 0.000000 0.000000
# 2 -0.002066 0.013153 -0.002610 0.000000 0.000000 0.000000
# 3 -0.002012 -0.002610 0.015434 0.000000 0.000000 0.000000
# 4 0.000000 0.000000 0.000000 0.051299 0.000000 0.000000
# 5 0.000000 0.000000 0.000000 0.000000 -0.054319 0.000000
# 6 0.000000 0.000000 0.000000 0.000000 0.000000 0.035056
#
#
# Mechanical properties :
#
#
# Convention : Reuss Voigt Hill
#
# Bulk Modulus (GPa) = 40.98542 43.11176 42.04859
# Shear Modulus (GPa) = 54.75081 20.09847 37.42464
#
# Velocity S-wave (km/s) = 5.26782 3.19166 4.35527
# Velocity P-wave (km/s) = 7.60086 5.95257 6.82664
#
# Compressibility (1/GPa) = 0.02439892
#
# Stress axis : x y z
#
# Youngs Moduli (GPa) = 108.82384 76.02698 64.79375
#
# Poissons Ratio (x) = 0.15709 0.13040
# Poissons Ratio (y) = 0.22485 0.16910
# Poissons Ratio (z) = 0.21901 0.19842
#
# Static dielectric constant tensor:
#      x y z
#    x 3.780730 0.000000 0.000000 
#    y 0.000000 3.655520 0.000000 
#    z 0.000000 0.000000 3.675300 
# 
# 
# High freq. dielectric constant tensor:
#      x y z
#    x 1.790030 0.000000 0.000000 
#    y 0.000000 1.755430 0.000000 
#    z 0.000000 0.000000 1.769540 
# 
# From -- ./inp_files/24622.got.cif
#   From: 2010.03.12/outbox.cif.g09.slc.cpg/sg69_13_cif.got.tgz:24622.got - 2010.04.10 23:52:46.
