data_PCOD8285810
_publ_section_title
;
Structure prediction by ZEFSAII (Michael W. Deem and Ramdas Pophale) SiO2 
 PCOD8285810
Probable space group: F D D D
;
_chemical_formula_sum "Si O2"
_cell_formula_units_Z 176
_cell_length_a 14.329881
_cell_length_b 19.553963
_cell_length_c 32.036933
_cell_angle_alpha 90.000000
_cell_angle_beta 90.000000
_cell_angle_gamma 90.000000
_cell_volume 8976.939659
_symmetry_space_group_name_H-M "F D D D"
_symmetry_group_IT_number 70
_space_group.IT_coordinate_system_code '2'
_symmetry_cell_setting 'orthorhombic'
loop_
_space_group_symop_operation_xyz
x,y,z
1/4-x,1/4-y,z
x,1/4-y,1/4-z
1/4-x,y,1/4-z
-x,-y,-z
3/4+x,3/4+y,-z
-x,3/4+y,3/4+z
3/4+x,-y,3/4+z
x,1/2+y,1/2+z
1/4-x,3/4-y,1/2+z
x,3/4-y,3/4-z
1/4-x,1/2+y,3/4-z
-x,1/2-y,1/2-z
3/4+x,1/4+y,1/2-z
-x,1/4+y,1/4+z
3/4+x,1/2-y,1/4+z
1/2+x,y,1/2+z
3/4-x,1/4-y,1/2+z
1/2+x,1/4-y,3/4-z
3/4-x,y,3/4-z
1/2-x,-y,1/2-z
1/4+x,3/4+y,1/2-z
1/2-x,3/4+y,1/4+z
1/4+x,-y,1/4+z
1/2+x,1/2+y,z
3/4-x,3/4-y,z
1/2+x,3/4-y,1/4-z
3/4-x,1/2+y,1/4-z
1/2-x,1/2-y,-z
1/4+x,1/4+y,-z
1/2-x,1/4+y,3/4+z
1/4+x,1/2-y,3/4+z
loop_
_atom_site_type_symbol
_atom_site_label
_atom_site_fract_x
_atom_site_fract_y
_atom_site_fract_z
Si Si1 0.727016 0.142738 0.803571
Si Si2 0.783912 0.008082 0.518296
Si Si3 0.387133 0.701597 0.421093
Si Si4 0.280235 0.911357 0.648026
Si Si5 0.375000 0.875000 0.980830
Si Si6 0.222747 0.466225 0.293725
O O1 0.625000 0.125000 0.785645
O O2 0.766432 0.202179 0.774408
O O3 0.790921 0.073724 0.806864
O O4 0.716583 0.175349 0.849022
O O5 0.691669 0.002025 0.547253
O O6 0.828636 0.933321 0.509955
O O7 0.862527 0.052968 0.542657
O O8 0.375000 0.737371 0.375000
O O9 0.443985 0.633292 0.412430
O O10 0.375000 0.875000 0.663413
O O11 0.261886 0.984501 0.667640
O O12 0.291190 0.848479 0.951037
O O13 0.250000 0.500000 0.250000
#
# Coordination Sequence:
#
# PCOD8285810 Si02
#       6
#    32  32  32  32  16  32
#     4  10  23  37  55  81 113 155 201 251 293 332
#     4  11  19  35  57  84 117 152 196 245 292 356
#     4  10  19  33  57  86 111 146 202 247 292 346
#     4  10  18  36  58  84 114 150 195 241 287 354
#     4  10  20  32  53  92 122 152 184 226 314 370
#     4  10  19  30  55  84 120 154 185 230 291 363
#
# _framework density 19.605789999999999
#
# number of rings (size 3 to 8) (size 9 to 14) (size 15 to 20)
#    0.000    1.818    1.818    5.455    1.273    0.727 
#    0.000    1.818    0.000    0.545    0.000    0.000 
#    0.000    0.000    0.000    0.000    0.000    0.000 
#
# Total GULP energy -545281.985504 kJ/mol
# GULP energy per Si atom -12392.772398 kJ/mol
# Density = 1.956117 g / cm^3
# Si number density = 19.605790 Si / 1000 Ang^3
#
#
#
# Elastic Constant Matrix: (Units=GPa)
#
#
# Indices 1 2 3 4 5 6 
#
# 1 123.5370 31.5315 19.1866 0.0000 0.0000 0.0000
# 2 31.5315 51.4899 31.3595 0.0000 0.0000 0.0000
# 3 19.1866 31.3595 79.4306 0.0000 0.0000 0.0000
# 4 0.0000 0.0000 0.0000 7.4280 0.0000 0.0000
# 5 0.0000 0.0000 0.0000 0.0000 28.2514 0.0000
# 6 0.0000 0.0000 0.0000 0.0000 0.0000 40.1178
#
#
#
# Elastic Compliance Matrix: (Units=1/GPa)
#
#
# Indices 1 2 3 4 5 6 
#
# 1 0.009594 -0.005877 0.000003 0.000000 0.000000 0.000000
# 2 -0.005877 0.029170 -0.010097 0.000000 0.000000 0.000000
# 3 0.000003 -0.010097 0.016575 0.000000 0.000000 0.000000
# 4 0.000000 0.000000 0.000000 0.134625 0.000000 0.000000
# 5 0.000000 0.000000 0.000000 0.000000 0.035396 0.000000
# 6 0.000000 0.000000 0.000000 0.000000 0.000000 0.024927
#
#
# Mechanical properties :
#
#
# Convention : Reuss Voigt Hill
#
# Bulk Modulus (GPa) = 42.74028 46.51252 44.62640
# Shear Modulus (GPa) = 17.23970 26.65144 21.94557
#
# Velocity S-wave (km/s) = 2.96854 3.69096 3.34929
# Velocity P-wave (km/s) = 5.79628 6.47608 6.14558
#
# Compressibility (1/GPa) = 0.02339713
#
# Stress axis : x y z
#
# Youngs Moduli (GPa) = 104.22765 34.28223 60.33126
#
# Poissons Ratio (x) = 0.20148 -0.00017
# Poissons Ratio (y) = 0.61256 0.60915
# Poissons Ratio (z) = -0.00029 0.34614
#
# Static dielectric constant tensor:
#      x y z
#    x 4.816650 0.000000 0.000000 
#    y 0.000000 3.328480 0.000000 
#    z 0.000000 0.000000 3.614440 
# 
# 
# High freq. dielectric constant tensor:
#      x y z
#    x 1.789700 0.000000 0.000000 
#    y 0.000000 1.713160 0.000000 
#    z 0.000000 0.000000 1.757910 
# 
# From -- ./inp_files/65875.got.cif
#   From: 2010.03.12/outbox.cif.g09.slc.cpg/sg70_33_cif.got.tgz:65875.got - 2010.04.16 13:46:32.
