data_PCOD8285682
_publ_section_title
;
Structure prediction by ZEFSAII (Michael W. Deem and Ramdas Pophale) SiO2 
 PCOD8285682
Probable space group: F M M M
;
_chemical_formula_sum "Si O2"
_cell_formula_units_Z 160
_cell_length_a 20.221303
_cell_length_b 20.795043
_cell_length_c 29.811610
_cell_angle_alpha 90.000000
_cell_angle_beta 90.000000
_cell_angle_gamma 90.000000
_cell_volume 12535.867427
_symmetry_space_group_name_H-M "F M M M"
_symmetry_group_IT_number 69
_symmetry_cell_setting 'orthorhombic'
loop_
_space_group_symop_operation_xyz
x,y,z
-x,-y,z
x,-y,-z
-x,y,-z
-x,-y,-z
x,y,-z
-x,y,z
x,-y,z
x,1/2+y,1/2+z
-x,1/2-y,1/2+z
x,1/2-y,1/2-z
-x,1/2+y,1/2-z
-x,1/2-y,1/2-z
x,1/2+y,1/2-z
-x,1/2+y,1/2+z
x,1/2-y,1/2+z
1/2+x,y,1/2+z
1/2-x,-y,1/2+z
1/2+x,-y,1/2-z
1/2-x,y,1/2-z
1/2-x,-y,1/2-z
1/2+x,y,1/2-z
1/2-x,y,1/2+z
1/2+x,-y,1/2+z
1/2+x,1/2+y,z
1/2-x,1/2-y,z
1/2+x,1/2-y,-z
1/2-x,1/2+y,-z
1/2-x,1/2-y,-z
1/2+x,1/2+y,-z
1/2-x,1/2+y,z
1/2+x,1/2-y,z
loop_
_atom_site_type_symbol
_atom_site_label
_atom_site_fract_x
_atom_site_fract_y
_atom_site_fract_z
Si Si1 0.421527 0.571662 0.550536
Si Si2 0.926403 0.927555 0.709623
Si Si3 0.923932 0.166188 0.626534
Si Si4 0.823875 0.249234 0.325180
Si Si5 0.177022 0.149057 0.755326
O O1 0.398955 0.588509 0.500000
O O2 0.500000 0.569868 0.554359
O O3 0.394802 0.500000 0.563689
O O4 0.395589 0.628532 0.582952
O O5 0.917989 0.884451 0.666167
O O6 0.876599 0.906726 0.748842
O O7 0.000000 0.920657 0.729511
O O8 0.911125 0.000000 0.694743
O O9 0.877659 0.228317 0.637123
O O10 0.000000 0.189530 0.620295
O O11 0.750000 0.250000 0.346417
O O12 0.828663 0.201870 0.283320
O O13 0.837499 0.320030 0.304372
O O14 0.250000 0.118522 0.750000
#
# Coordination Sequence:
#
# PCOD8285682 Si02
#       5
#    32  32  32  32  32
#     4   8  13  21  33  49  69  90 108 127 153 186
#     4   9  16  23  31  46  67  86 104 132 166 191
#     4   9  15  22  34  50  65  83 109 136 159 187
#     4   8  14  24  35  46  62  84 108 136 165 187
#     4   8  14  24  35  45  59  83 113 136 157 189
#
# _framework density 12.763375999999999
#
# number of rings (size 3 to 8) (size 9 to 14) (size 15 to 20)
#    0.000    3.600    0.000    2.400    0.000    3.600 
#    0.000    4.000    0.000    0.600    0.000    0.000 
#    0.000    0.000    0.000    0.000    0.000    0.000 
#
# Total GULP energy -495527.449445 kJ/mol
# GULP energy per Si atom -12388.186236 kJ/mol
# Density = 1.273433 g / cm^3
# Si number density = 12.763376 Si / 1000 Ang^3
#
#
#
# Elastic Constant Matrix: (Units=GPa)
#
#
# Indices 1 2 3 4 5 6 
#
# 1 68.2902 35.2088 30.7806 0.0000 0.0000 0.0000
# 2 35.2088 40.5957 23.0200 0.0000 0.0000 0.0000
# 3 30.7806 23.0200 50.4826 0.0000 0.0000 0.0000
# 4 0.0000 0.0000 0.0000 18.0079 0.0000 0.0000
# 5 0.0000 0.0000 0.0000 0.0000 8.2053 0.0000
# 6 0.0000 0.0000 0.0000 0.0000 0.0000 13.4103
#
#
#
# Elastic Compliance Matrix: (Units=1/GPa)
#
#
# Indices 1 2 3 4 5 6 
#
# 1 0.028878 -0.020314 -0.008344 0.000000 0.000000 0.000000
# 2 -0.020314 0.047514 -0.009280 0.000000 0.000000 0.000000
# 3 -0.008344 -0.009280 0.029128 0.000000 0.000000 0.000000
# 4 0.000000 0.000000 0.000000 0.055531 0.000000 0.000000
# 5 0.000000 0.000000 0.000000 0.000000 0.121872 0.000000
# 6 0.000000 0.000000 0.000000 0.000000 0.000000 0.074570
#
#
# Mechanical properties :
#
#
# Convention : Reuss Voigt Hill
#
# Bulk Modulus (GPa) = 33.73509 37.48748 35.61128
# Shear Modulus (GPa) = 11.28024 12.61529 11.94777
#
# Velocity S-wave (km/s) = 2.97610 3.14729 3.06289
# Velocity P-wave (km/s) = 6.18855 6.53009 6.36161
#
# Compressibility (1/GPa) = 0.02964272
#
# Stress axis : x y z
#
# Youngs Moduli (GPa) = 34.62834 21.04632 34.33066
#
# Poissons Ratio (x) = 0.42754 0.28647
# Poissons Ratio (y) = 0.70345 0.31860
# Poissons Ratio (z) = 0.28895 0.19532
#
# Static dielectric constant tensor:
#      x y z
#    x 2.694520 0.000000 0.000000 
#    y 0.000000 2.662300 0.000000 
#    z 0.000000 0.000000 2.550460 
# 
# 
# High freq. dielectric constant tensor:
#      x y z
#    x 1.469890 0.000000 0.000000 
#    y 0.000000 1.466120 0.000000 
#    z 0.000000 0.000000 1.453380 
# 
# From -- ./inp_files/25080.got.cif
#   From: 2010.03.12/outbox.cif.g09.slc.cpg/sg69_13_cif.got.tgz:25080.got - 2010.04.10 23:52:46.
