data_PCOD8285234
_publ_section_title
;
Structure prediction by ZEFSAII (Michael W. Deem and Ramdas Pophale) SiO2 
 PCOD8285234
Probable space group: F M M M
;
_chemical_formula_sum "Si O2"
_cell_formula_units_Z 176
_cell_length_a 14.725222
_cell_length_b 25.115217
_cell_length_c 21.546802
_cell_angle_alpha 90.000000
_cell_angle_beta 90.000000
_cell_angle_gamma 90.000000
_cell_volume 7968.592287
_symmetry_space_group_name_H-M "F M M M"
_symmetry_group_IT_number 69
_symmetry_cell_setting 'orthorhombic'
loop_
_space_group_symop_operation_xyz
x,y,z
-x,-y,z
x,-y,-z
-x,y,-z
-x,-y,-z
x,y,-z
-x,y,z
x,-y,z
x,1/2+y,1/2+z
-x,1/2-y,1/2+z
x,1/2-y,1/2-z
-x,1/2+y,1/2-z
-x,1/2-y,1/2-z
x,1/2+y,1/2-z
-x,1/2+y,1/2+z
x,1/2-y,1/2+z
1/2+x,y,1/2+z
1/2-x,-y,1/2+z
1/2+x,-y,1/2-z
1/2-x,y,1/2-z
1/2-x,-y,1/2-z
1/2+x,y,1/2-z
1/2-x,y,1/2+z
1/2+x,-y,1/2+z
1/2+x,1/2+y,z
1/2-x,1/2-y,z
1/2+x,1/2-y,-z
1/2-x,1/2+y,-z
1/2-x,1/2-y,-z
1/2+x,1/2+y,-z
1/2-x,1/2+y,z
1/2+x,1/2-y,z
loop_
_atom_site_type_symbol
_atom_site_label
_atom_site_fract_x
_atom_site_fract_y
_atom_site_fract_z
Si Si1 0.603997 0.389629 0.347158
Si Si2 0.160312 0.284394 0.569114
Si Si3 0.601769 0.438070 0.216917
Si Si4 0.291224 0.399742 0.110307
Si Si5 0.901938 0.000000 0.930818
Si Si6 0.398069 0.226200 0.187591
O O1 0.500000 0.388331 0.374618
O O2 0.609152 0.430054 0.290157
O O3 0.681545 0.408983 0.395373
O O4 0.643144 0.331201 0.329083
O O5 0.115973 0.275178 0.500000
O O6 0.250000 0.250000 0.574331
O O7 0.181030 0.346431 0.575029
O O8 0.100383 0.265204 0.627640
O O9 0.500000 0.422127 0.195920
O O10 0.623156 0.500000 0.200456
O O11 0.674013 0.399926 0.182131
O O12 0.343004 0.447978 0.079528
O O13 0.000000 0.000000 0.893611
O O14 0.932795 0.000000 0.000000
O O15 0.500000 0.213285 0.207523
O O16 0.349378 0.250000 0.250000
#
# Coordination Sequence:
#
# PCOD8285234 Si02
#       6
#    32  32  32  32  16  32
#     4  10  22  38  58  93 133 173 218 271 332 399
#     4  11  24  42  63  94 133 175 229 280 338 413
#     4  10  21  37  60  95 136 171 216 277 340 408
#     4  12  22  40  68  93 128 175 221 276 341 407
#     4  11  26  46  68  95 125 159 212 282 348 409
#     4  10  21  40  64  94 132 173 224 282 340 402
#
# _framework density 22.086711000000001
#
# number of rings (size 3 to 8) (size 9 to 14) (size 15 to 20)
#    0.000    1.364    2.727    2.727    1.273    4.364 
#    0.000    0.000    0.000    2.727    0.000    0.000 
#    0.000    0.000    0.000    0.000    0.000    0.000 
#
# Total GULP energy -545084.035686 kJ/mol
# GULP energy per Si atom -12388.273538 kJ/mol
# Density = 2.203644 g / cm^3
# Si number density = 22.086711 Si / 1000 Ang^3
#
#
#
# Elastic Constant Matrix: (Units=GPa)
#
#
# Indices 1 2 3 4 5 6 
#
# 1 120.5408 45.1056 21.7386 0.0000 0.0000 0.0000
# 2 45.1056 128.7105 26.3014 0.0000 0.0000 0.0000
# 3 21.7386 26.3014 98.7314 0.0000 0.0000 0.0000
# 4 0.0000 0.0000 0.0000 41.0793 0.0000 0.0000
# 5 0.0000 0.0000 0.0000 0.0000 -0.0370 0.0000
# 6 0.0000 0.0000 0.0000 0.0000 0.0000 33.9018
#
#
#
# Elastic Compliance Matrix: (Units=1/GPa)
#
#
# Indices 1 2 3 4 5 6 
#
# 1 0.009704 -0.003135 -0.001301 0.000000 0.000000 0.000000
# 2 -0.003135 0.009229 -0.001768 0.000000 0.000000 0.000000
# 3 -0.001301 -0.001768 0.010886 0.000000 0.000000 0.000000
# 4 0.000000 0.000000 0.000000 0.024343 0.000000 0.000000
# 5 0.000000 0.000000 0.000000 0.000000-27.049633 0.000000
# 6 0.000000 0.000000 0.000000 0.000000 0.000000 0.029497
#
#
# Mechanical properties :
#
#
# Convention : Reuss Voigt Hill
#
# Bulk Modulus (GPa) = 57.43846 59.36377 58.40112
# Shear Modulus (GPa) = -0.18554 31.97798 15.89622
#
# Velocity S-wave (km/s) = -0.29015 3.80917 2.68567
# Velocity P-wave (km/s) = 5.09412 6.80311 6.00968
#
# Compressibility (1/GPa) = 0.01740994
#
# Stress axis : x y z
#
# Youngs Moduli (GPa) = 103.05443 108.35127 91.85987
#
# Poissons Ratio (x) = 0.33964 0.11955
# Poissons Ratio (y) = 0.32303 0.16245
# Poissons Ratio (z) = 0.13412 0.19161
#
# Static dielectric constant tensor:
#      x y z
#    x 4.055230 0.000000 0.000000 
#    y 0.000000 3.238410 0.000000 
#    z 0.000000 0.000000 4.173170 
# 
# 
# High freq. dielectric constant tensor:
#      x y z
#    x 1.868030 0.000000 0.000000 
#    y 0.000000 1.873490 0.000000 
#    z 0.000000 0.000000 1.854400 
# 
# From -- ./inp_files/17935.got.cif
#   From: 2010.03.12/outbox.cif.g09.slc.cpg/sg69_9_cif.got.tgz:17935.got - 2010.04.10 23:52:46.
