data_PCOD8285253
_publ_section_title
;
Structure prediction by ZEFSAII (Michael W. Deem and Ramdas Pophale) SiO2 
 PCOD8285253
Probable space group: F M M M
;
_chemical_formula_sum "Si O2"
_cell_formula_units_Z 136
_cell_length_a 18.739606
_cell_length_b 15.974771
_cell_length_c 23.529471
_cell_angle_alpha 90.000000
_cell_angle_beta 90.000000
_cell_angle_gamma 90.000000
_cell_volume 7043.803956
_symmetry_space_group_name_H-M "F M M M"
_symmetry_group_IT_number 69
_symmetry_cell_setting 'orthorhombic'
loop_
_space_group_symop_operation_xyz
x,y,z
-x,-y,z
x,-y,-z
-x,y,-z
-x,-y,-z
x,y,-z
-x,y,z
x,-y,z
x,1/2+y,1/2+z
-x,1/2-y,1/2+z
x,1/2-y,1/2-z
-x,1/2+y,1/2-z
-x,1/2-y,1/2-z
x,1/2+y,1/2-z
-x,1/2+y,1/2+z
x,1/2-y,1/2+z
1/2+x,y,1/2+z
1/2-x,-y,1/2+z
1/2+x,-y,1/2-z
1/2-x,y,1/2-z
1/2-x,-y,1/2-z
1/2+x,y,1/2-z
1/2-x,y,1/2+z
1/2+x,-y,1/2+z
1/2+x,1/2+y,z
1/2-x,1/2-y,z
1/2+x,1/2-y,-z
1/2-x,1/2+y,-z
1/2-x,1/2-y,-z
1/2+x,1/2+y,-z
1/2-x,1/2+y,z
1/2+x,1/2-y,z
loop_
_atom_site_type_symbol
_atom_site_label
_atom_site_fract_x
_atom_site_fract_y
_atom_site_fract_z
Si Si1 0.170650 0.594006 0.727491
Si Si2 0.324564 0.798944 0.379673
Si Si3 0.310628 0.000000 0.000000
Si Si4 0.210274 0.337794 0.500000
Si Si5 0.418174 0.164147 0.824641
Si Si6 0.919536 0.500000 0.897366
O O1 0.139226 0.500000 0.729940
O O2 0.250000 0.596789 0.750000
O O3 0.172699 0.623002 0.662609
O O4 0.122489 0.657395 0.764452
O O5 0.250000 0.750000 0.374401
O O6 0.336930 0.838152 0.442549
O O7 0.388703 0.736925 0.364861
O O8 0.360942 0.000000 0.945751
O O9 0.263467 0.916476 0.000000
O O10 0.250000 0.250000 0.500000
O O11 0.500000 0.183192 0.811091
O O12 0.406430 0.078953 0.858050
O O13 0.000000 0.500000 0.922935
#
# Coordination Sequence:
#
# PCOD8285253 Si02
#       6
#    32  32   8  16  32  16
#     4  11  23  36  61  91 126 164 207 256 316 383
#     4  11  22  40  60  89 125 168 210 260 312 369
#     4  12  23  36  66  92 129 174 210 266 312 374
#     4  10  24  39  60  91 129 162 217 263 300 371
#     4  11  23  40  63  91 126 163 208 263 321 379
#     4  10  21  38  58  89 129 166 204 256 316 377
#
# _framework density 19.307749000000001
#
# number of rings (size 3 to 8) (size 9 to 14) (size 15 to 20)
#    0.000    1.176    3.529    3.706    1.647    1.882 
#    0.000    1.765    0.000    0.000    0.000    0.824 
#    0.000    0.000    0.000    0.000    0.000    0.000 
#
# Total GULP energy -421656.983061 kJ/mol
# GULP energy per Si atom -12401.675972 kJ/mol
# Density = 1.926380 g / cm^3
# Si number density = 19.307749 Si / 1000 Ang^3
#
#
#
# Elastic Constant Matrix: (Units=GPa)
#
#
# Indices 1 2 3 4 5 6 
#
# 1 89.6761 39.6195 55.3751 0.0000 0.0000 0.0000
# 2 39.6195 98.2533 49.7932 0.0000 0.0000 0.0000
# 3 55.3751 49.7932 174.3263 0.0000 0.0000 0.0000
# 4 0.0000 0.0000 0.0000 88.9855 0.0000 0.0000
# 5 0.0000 0.0000 0.0000 0.0000 27.3883 0.0000
# 6 0.0000 0.0000 0.0000 0.0000 0.0000 32.0930
#
#
#
# Elastic Compliance Matrix: (Units=1/GPa)
#
#
# Indices 1 2 3 4 5 6 
#
# 1 0.015304 -0.004335 -0.003623 0.000000 0.000000 0.000000
# 2 -0.004335 0.013128 -0.002373 0.000000 0.000000 0.000000
# 3 -0.003623 -0.002373 0.007565 0.000000 0.000000 0.000000
# 4 0.000000 0.000000 0.000000 0.011238 0.000000 0.000000
# 5 0.000000 0.000000 0.000000 0.000000 0.036512 0.000000
# 6 0.000000 0.000000 0.000000 0.000000 0.000000 0.031159
#
#
# Mechanical properties :
#
#
# Convention : Reuss Voigt Hill
#
# Bulk Modulus (GPa) = 65.20899 72.42570 68.81735
# Shear Modulus (GPa) = 35.54173 44.19120 39.86646
#
# Velocity S-wave (km/s) = 4.29511 4.78931 4.54893
# Velocity P-wave (km/s) = 7.64487 8.25687 7.95676
#
# Compressibility (1/GPa) = 0.01533531
#
# Stress axis : x y z
#
# Youngs Moduli (GPa) = 65.34371 76.17118 132.18759
#
# Poissons Ratio (x) = 0.33020 0.47892
# Poissons Ratio (y) = 0.28326 0.31366
# Poissons Ratio (z) = 0.23674 0.18074
#
# Static dielectric constant tensor:
#      x y z
#    x 3.419820 0.000000 0.000000 
#    y 0.000000 3.625480 0.000000 
#    z 0.000000 0.000000 3.916510 
# 
# 
# High freq. dielectric constant tensor:
#      x y z
#    x 1.731080 0.000000 0.000000 
#    y 0.000000 1.762050 0.000000 
#    z 0.000000 0.000000 1.764480 
# 
# From -- ./inp_files/16617.got.cif
#   From: 2010.03.12/outbox.cif.g09.slc.cpg/sg69_9_cif.got.tgz:16617.got - 2010.04.10 23:52:46.
