data_PCOD8285182
_publ_section_title
;
Structure prediction by ZEFSAII (Michael W. Deem and Ramdas Pophale) SiO2 
 PCOD8285182
Probable space group: F M M M
;
_chemical_formula_sum "Si O2"
_cell_formula_units_Z 160
_cell_length_a 25.508930
_cell_length_b 18.705551
_cell_length_c 16.476870
_cell_angle_alpha 90.000000
_cell_angle_beta 90.000000
_cell_angle_gamma 90.000000
_cell_volume 7862.080074
_symmetry_space_group_name_H-M "F M M M"
_symmetry_group_IT_number 69
_symmetry_cell_setting 'orthorhombic'
loop_
_space_group_symop_operation_xyz
x,y,z
-x,-y,z
x,-y,-z
-x,y,-z
-x,-y,-z
x,y,-z
-x,y,z
x,-y,z
x,1/2+y,1/2+z
-x,1/2-y,1/2+z
x,1/2-y,1/2-z
-x,1/2+y,1/2-z
-x,1/2-y,1/2-z
x,1/2+y,1/2-z
-x,1/2+y,1/2+z
x,1/2-y,1/2+z
1/2+x,y,1/2+z
1/2-x,-y,1/2+z
1/2+x,-y,1/2-z
1/2-x,y,1/2-z
1/2-x,-y,1/2-z
1/2+x,y,1/2-z
1/2-x,y,1/2+z
1/2+x,-y,1/2+z
1/2+x,1/2+y,z
1/2-x,1/2-y,z
1/2+x,1/2-y,-z
1/2-x,1/2+y,-z
1/2-x,1/2-y,-z
1/2+x,1/2+y,-z
1/2-x,1/2+y,z
1/2+x,1/2-y,z
loop_
_atom_site_type_symbol
_atom_site_label
_atom_site_fract_x
_atom_site_fract_y
_atom_site_fract_z
Si Si1 0.100735 0.147649 0.335058
Si Si2 0.775046 0.921984 0.500000
Si Si3 0.400001 0.921562 0.000000
Si Si4 0.937685 0.715521 0.407707
Si Si5 0.939823 0.078255 0.821461
Si Si6 0.713956 0.914591 0.826381
O O1 0.079586 0.117651 0.420237
O O2 0.092233 0.232913 0.343850
O O3 0.064812 0.112587 0.267113
O O4 0.160540 0.128512 0.314037
O O5 0.837557 0.924973 0.500000
O O6 0.759270 0.887149 0.587705
O O7 0.749318 0.000000 0.500000
O O8 0.424608 0.000000 0.000000
O O9 0.921198 0.732681 0.500000
O O10 0.917804 0.634963 0.387143
O O11 0.000000 0.722469 0.394815
O O12 0.000000 0.065304 0.840315
O O13 0.911193 0.000000 0.827718
O O14 0.750000 0.895488 0.750000
O O15 0.702572 0.000000 0.831898
#
# Coordination Sequence:
#
# PCOD8285182 Si02
#       6
#    32  16  16  32  32  32
#     4  11  18  32  54  83 117 150 186 235 292 351
#     4   7  12  24  42  67 103 144 182 225 277 331
#     4   9  16  26  45  76 111 148 181 220 279 349
#     4  10  21  37  57  83 115 154 196 236 286 348
#     4  10  21  36  56  82 112 149 193 240 287 340
#     4   9  17  29  50  81 115 154 197 237 285 349
#
# _framework density 20.350847999999999
#
# number of rings (size 3 to 8) (size 9 to 14) (size 15 to 20)
#    0.000    2.400    1.000    4.200    0.000    2.000 
#    0.000    2.000    2.200    4.800    0.000    1.400 
#    0.000    0.000    0.000    0.000    0.000    0.000 
#
# Total GULP energy -495544.572047 kJ/mol
# GULP energy per Si atom -12388.614301 kJ/mol
# Density = 2.030453 g / cm^3
# Si number density = 20.350848 Si / 1000 Ang^3
#
#
#
# Elastic Constant Matrix: (Units=GPa)
#
#
# Indices 1 2 3 4 5 6 
#
# 1 35.8524 30.9683 26.8657 0.0000 0.0000 0.0000
# 2 30.9683 143.5077 36.4963 0.0000 0.0000 0.0000
# 3 26.8657 36.4963 109.7019 0.0000 0.0000 0.0000
# 4 0.0000 0.0000 0.0000 27.2823 0.0000 0.0000
# 5 0.0000 0.0000 0.0000 0.0000 29.6167 0.0000
# 6 0.0000 0.0000 0.0000 0.0000 0.0000 18.8130
#
#
#
# Elastic Compliance Matrix: (Units=1/GPa)
#
#
# Indices 1 2 3 4 5 6 
#
# 1 0.039095 -0.006556 -0.007393 0.000000 0.000000 0.000000
# 2 -0.006556 0.008712 -0.001293 0.000000 0.000000 0.000000
# 3 -0.007393 -0.001293 0.011356 0.000000 0.000000 0.000000
# 4 0.000000 0.000000 0.000000 0.036654 0.000000 0.000000
# 5 0.000000 0.000000 0.000000 0.000000 0.033765 0.000000
# 6 0.000000 0.000000 0.000000 0.000000 0.000000 0.053155
#
#
# Mechanical properties :
#
#
# Convention : Reuss Voigt Hill
#
# Bulk Modulus (GPa) = 34.86865 53.08027 43.97446
# Shear Modulus (GPa) = 22.44358 28.12451 25.28405
#
# Velocity S-wave (km/s) = 3.32450 3.72154 3.52860
# Velocity P-wave (km/s) = 5.64866 6.67875 6.18518
#
# Compressibility (1/GPa) = 0.02867905
#
# Stress axis : x y z
#
# Youngs Moduli (GPa) = 25.57847 114.78614 88.05740
#
# Poissons Ratio (x) = 0.75258 0.65102
# Poissons Ratio (y) = 0.16770 0.11383
# Poissons Ratio (z) = 0.18911 0.14838
#
# Static dielectric constant tensor:
#      x y z
#    x 3.113910 0.000000 0.000000 
#    y 0.000000 3.896780 0.000000 
#    z 0.000000 0.000000 4.119240 
# 
# 
# High freq. dielectric constant tensor:
#      x y z
#    x 1.740600 0.000000 0.000000 
#    y 0.000000 1.788360 0.000000 
#    z 0.000000 0.000000 1.815200 
# 
# From -- ./inp_files/26684.got.cif
#   From: 2010.03.12/outbox.cif.g09.slc.cpg/sg69_14_cif.got.tgz:26684.got - 2010.04.10 23:52:46.
