data_PCOD8285077
_publ_section_title
;
Structure prediction by ZEFSAII (Michael W. Deem and Ramdas Pophale) SiO2 
 PCOD8285077
Probable space group: F M M M
;
_chemical_formula_sum "Si O2"
_cell_formula_units_Z 164
_cell_length_a 31.970277
_cell_length_b 13.738083
_cell_length_c 18.684062
_cell_angle_alpha 90.000000
_cell_angle_beta 90.000000
_cell_angle_gamma 90.000000
_cell_volume 8206.232830
_symmetry_space_group_name_H-M "F M M M"
_symmetry_group_IT_number 69
_symmetry_cell_setting 'orthorhombic'
loop_
_space_group_symop_operation_xyz
x,y,z
-x,-y,z
x,-y,-z
-x,y,-z
-x,-y,-z
x,y,-z
-x,y,z
x,-y,z
x,1/2+y,1/2+z
-x,1/2-y,1/2+z
x,1/2-y,1/2-z
-x,1/2+y,1/2-z
-x,1/2-y,1/2-z
x,1/2+y,1/2-z
-x,1/2+y,1/2+z
x,1/2-y,1/2+z
1/2+x,y,1/2+z
1/2-x,-y,1/2+z
1/2+x,-y,1/2-z
1/2-x,y,1/2-z
1/2-x,-y,1/2-z
1/2+x,y,1/2-z
1/2-x,y,1/2+z
1/2+x,-y,1/2+z
1/2+x,1/2+y,z
1/2-x,1/2-y,z
1/2+x,1/2-y,-z
1/2-x,1/2+y,-z
1/2-x,1/2-y,-z
1/2+x,1/2+y,-z
1/2-x,1/2+y,z
1/2+x,1/2-y,z
loop_
_atom_site_type_symbol
_atom_site_label
_atom_site_fract_x
_atom_site_fract_y
_atom_site_fract_z
Si Si1 0.668077 0.110374 0.500000
Si Si2 0.952043 0.252706 0.863387
Si Si3 0.921818 0.609670 0.246847
Si Si4 0.203417 0.279272 0.362641
Si Si5 0.174330 0.388641 0.769349
Si Si6 0.074634 0.154078 0.000000
Si Si7 0.000000 0.000000 0.000000
O O1 0.681985 0.169751 0.569945
O O2 0.618237 0.097010 0.500000
O O3 0.686960 0.000000 0.500000
O O4 0.933076 0.352278 0.832198
O O5 0.948318 0.167110 0.805272
O O6 0.925520 0.224695 0.932027
O O7 0.000000 0.267451 0.884285
O O8 0.936932 0.500000 0.253400
O O9 0.872609 0.621483 0.260836
O O10 0.250000 0.250000 0.384640
O O11 0.204380 0.353755 0.295267
O O12 0.179427 0.180166 0.338900
O O13 0.184653 0.500000 0.790571
O O14 0.035440 0.082611 0.000000
#
# Coordination Sequence:
#
# PCOD8285077 Si02
#       7
#    16  32  32  32  32  16   4
#     4  12  25  41  63  85 121 163 196 246 307 365
#     4  11  22  36  55  83 116 152 191 246 298 349
#     4  10  21  36  58  84 116 152 196 235 289 356
#     4  11  23  39  60  90 121 152 199 246 291 352
#     4  10  20  38  62  88 115 156 195 241 295 348
#     4  12  24  41  60  89 121 150 201 247 303 360
#     4  12  24  40  60  96 118 152 196 254 304 364
#
# _framework density 19.98481
#
# number of rings (size 3 to 8) (size 9 to 14) (size 15 to 20)
#    0.000    1.171    1.463    7.902    1.366    5.463 
#    0.000    0.976    0.000    4.683    0.000    0.000 
#    0.000    0.000    0.000    0.000    0.000    0.000 
#
# Total GULP energy -507941.024982 kJ/mol
# GULP energy per Si atom -12388.805487 kJ/mol
# Density = 1.993932 g / cm^3
# Si number density = 19.984810 Si / 1000 Ang^3
#
#
#
# Elastic Constant Matrix: (Units=GPa)
#
#
# Indices 1 2 3 4 5 6 
#
# 1 92.7738 24.3503 16.1711 0.0000 0.0000 0.0000
# 2 24.3503 125.1112 40.5875 0.0000 0.0000 0.0000
# 3 16.1711 40.5875 110.9057 0.0000 0.0000 0.0000
# 4 0.0000 0.0000 0.0000 12.5949 0.0000 0.0000
# 5 0.0000 0.0000 0.0000 0.0000 29.9500 0.0000
# 6 0.0000 0.0000 0.0000 0.0000 0.0000 22.1717
#
#
#
# Elastic Compliance Matrix: (Units=1/GPa)
#
#
# Indices 1 2 3 4 5 6 
#
# 1 0.011450 -0.001914 -0.000969 0.000000 0.000000 0.000000
# 2 -0.001914 0.009390 -0.003157 0.000000 0.000000 0.000000
# 3 -0.000969 -0.003157 0.010313 0.000000 0.000000 0.000000
# 4 0.000000 0.000000 0.000000 0.079397 0.000000 0.000000
# 5 0.000000 0.000000 0.000000 0.000000 0.033389 0.000000
# 6 0.000000 0.000000 0.000000 0.000000 0.000000 0.045103
#
#
# Mechanical properties :
#
#
# Convention : Reuss Voigt Hill
#
# Bulk Modulus (GPa) = 52.43152 54.55650 53.49401
# Shear Modulus (GPa) = 24.09866 29.45543 26.77705
#
# Velocity S-wave (km/s) = 3.47630 3.84329 3.66439
# Velocity P-wave (km/s) = 6.51195 6.85950 6.68799
#
# Compressibility (1/GPa) = 0.01907250
#
# Stress axis : x y z
#
# Youngs Moduli (GPa) = 87.33446 106.50005 96.96140
#
# Poissons Ratio (x) = 0.20386 0.09396
# Poissons Ratio (y) = 0.16717 0.30612
# Poissons Ratio (z) = 0.08463 0.33624
#
# Static dielectric constant tensor:
#      x y z
#    x 3.662030 0.000000 0.000000 
#    y 0.000000 3.836740 0.000000 
#    z 0.000000 0.000000 3.771410 
# 
# 
# High freq. dielectric constant tensor:
#      x y z
#    x 1.792360 0.000000 0.000000 
#    y 0.000000 1.786990 0.000000 
#    z 0.000000 0.000000 1.760990 
# 
# From -- ./inp_files/27557.got.cif
#   From: 2010.03.12/outbox.cif.g09.slc.cpg/sg69_14_cif.got.tgz:27557.got - 2010.04.10 23:52:46.
