data_PCOD8285981
_publ_section_title
;
Structure prediction by ZEFSAII (Michael W. Deem and Ramdas Pophale) SiO2 
 PCOD8285981
Probable space group: F D D D
;
_chemical_formula_sum "Si O2"
_cell_formula_units_Z 144
_cell_length_a 13.296651
_cell_length_b 27.307723
_cell_length_c 20.974177
_cell_angle_alpha 90.000000
_cell_angle_beta 90.000000
_cell_angle_gamma 90.000000
_cell_volume 7615.750145
_symmetry_space_group_name_H-M "F D D D"
_symmetry_group_IT_number 70
_space_group.IT_coordinate_system_code '2'
_symmetry_cell_setting 'orthorhombic'
loop_
_space_group_symop_operation_xyz
x,y,z
1/4-x,1/4-y,z
x,1/4-y,1/4-z
1/4-x,y,1/4-z
-x,-y,-z
3/4+x,3/4+y,-z
-x,3/4+y,3/4+z
3/4+x,-y,3/4+z
x,1/2+y,1/2+z
1/4-x,3/4-y,1/2+z
x,3/4-y,3/4-z
1/4-x,1/2+y,3/4-z
-x,1/2-y,1/2-z
3/4+x,1/4+y,1/2-z
-x,1/4+y,1/4+z
3/4+x,1/2-y,1/4+z
1/2+x,y,1/2+z
3/4-x,1/4-y,1/2+z
1/2+x,1/4-y,3/4-z
3/4-x,y,3/4-z
1/2-x,-y,1/2-z
1/4+x,3/4+y,1/2-z
1/2-x,3/4+y,1/4+z
1/4+x,-y,1/4+z
1/2+x,1/2+y,z
3/4-x,3/4-y,z
1/2+x,3/4-y,1/4-z
3/4-x,1/2+y,1/4-z
1/2-x,1/2-y,-z
1/4+x,1/4+y,-z
1/2-x,1/4+y,3/4+z
1/4+x,1/2-y,3/4+z
loop_
_atom_site_type_symbol
_atom_site_label
_atom_site_fract_x
_atom_site_fract_y
_atom_site_fract_z
Si Si1 0.125000 0.788712 0.125000
Si Si2 0.594668 0.254753 0.794184
Si Si3 0.737649 0.568276 0.109874
Si Si4 0.949241 0.750321 0.505323
Si Si5 0.592163 0.069678 0.894472
O O1 0.145769 0.755525 0.187135
O O2 0.221244 0.821456 0.107839
O O3 0.500000 0.250000 0.750000
O O4 0.572010 0.295269 0.846019
O O5 0.691194 0.274467 0.755625
O O6 0.616619 0.202399 0.828049
O O7 0.739876 0.625000 0.125000
O O8 0.625000 0.547975 0.125000
O O9 0.774466 0.552326 0.039068
O O10 0.881312 0.786406 0.547210
O O11 0.625000 0.125000 0.904055
#
# Coordination Sequence:
#
# PCOD8285981 Si02
#       5
#    16  32  32  32  32
#     4  10  22  42  59  84 116 162 201 246 302 368
#     4  10  20  35  56  84 118 154 194 243 304 359
#     4  10  20  34  55  86 117 153 195 246 304 358
#     4  10  21  39  59  82 118 161 200 245 304 358
#     4  10  23  38  59  87 117 155 200 255 304 361
#
# _framework density 18.908183999999999
#
# number of rings (size 3 to 8) (size 9 to 14) (size 15 to 20)
#    0.000    2.000    2.222    0.667    0.000    7.111 
#    0.000    0.556    0.000    0.000    0.000    0.000 
#    0.000    0.000    0.000    0.000    0.000    0.000 
#
# Total GULP energy -446147.479090 kJ/mol
# GULP energy per Si atom -12392.985530 kJ/mol
# Density = 1.886515 g / cm^3
# Si number density = 18.908184 Si / 1000 Ang^3
#
#
#
# Elastic Constant Matrix: (Units=GPa)
#
#
# Indices 1 2 3 4 5 6 
#
# 1 160.7654 56.7204 64.1582 0.0000 0.0000 0.0000
# 2 56.7204 99.1096 41.0563 0.0000 0.0000 0.0000
# 3 64.1582 41.0563 121.9137 0.0000 0.0000 0.0000
# 4 0.0000 0.0000 0.0000 11.0311 0.0000 0.0000
# 5 0.0000 0.0000 0.0000 0.0000 42.7704 0.0000
# 6 0.0000 0.0000 0.0000 0.0000 0.0000 23.2628
#
#
#
# Elastic Compliance Matrix: (Units=1/GPa)
#
#
# Indices 1 2 3 4 5 6 
#
# 1 0.008885 -0.003658 -0.003444 0.000000 0.000000 0.000000
# 2 -0.003658 0.013232 -0.002531 0.000000 0.000000 0.000000
# 3 -0.003444 -0.002531 0.010867 0.000000 0.000000 0.000000
# 4 0.000000 0.000000 0.000000 0.090653 0.000000 0.000000
# 5 0.000000 0.000000 0.000000 0.000000 0.023381 0.000000
# 6 0.000000 0.000000 0.000000 0.000000 0.000000 0.042987
#
#
# Mechanical properties :
#
#
# Convention : Reuss Voigt Hill
#
# Bulk Modulus (GPa) = 72.89598 78.40648 75.65123
# Shear Modulus (GPa) = 23.38145 30.06976 26.72561
#
# Velocity S-wave (km/s) = 3.52032 3.99219 3.76365
# Velocity P-wave (km/s) = 7.42696 7.92509 7.68007
#
# Compressibility (1/GPa) = 0.01371818
#
# Stress axis : x y z
#
# Youngs Moduli (GPa) = 112.54383 75.57473 92.01975
#
# Poissons Ratio (x) = 0.27649 0.31692
# Poissons Ratio (y) = 0.41174 0.23288
# Poissons Ratio (z) = 0.38760 0.19126
#
# Static dielectric constant tensor:
#      x y z
#    x 2.413810 0.000000 0.000000 
#    y 0.000000 3.192000 0.000000 
#    z 0.000000 0.000000 12.218770 
# 
# 
# High freq. dielectric constant tensor:
#      x y z
#    x 1.754860 0.000000 0.000000 
#    y 0.000000 1.701930 0.000000 
#    z 0.000000 0.000000 1.751960 
# 
# From -- ./inp_files/19179.got.cif
#   From: 2010.03.12/outbox.cif.g09.slc.cpg/sg70_10_cif.got.tgz:19179.got - 2010.04.16 13:46:32.
