data_PCOD8285110
_publ_section_title
;
Structure prediction by ZEFSAII (Michael W. Deem and Ramdas Pophale) SiO2 
 PCOD8285110
Probable space group: F M M M
;
_chemical_formula_sum "Si O2"
_cell_formula_units_Z 128
_cell_length_a 18.138771
_cell_length_b 21.093459
_cell_length_c 17.595171
_cell_angle_alpha 90.000000
_cell_angle_beta 90.000000
_cell_angle_gamma 90.000000
_cell_volume 6732.078213
_symmetry_space_group_name_H-M "F M M M"
_symmetry_group_IT_number 69
_symmetry_cell_setting 'orthorhombic'
loop_
_space_group_symop_operation_xyz
x,y,z
-x,-y,z
x,-y,-z
-x,y,-z
-x,-y,-z
x,y,-z
-x,y,z
x,-y,z
x,1/2+y,1/2+z
-x,1/2-y,1/2+z
x,1/2-y,1/2-z
-x,1/2+y,1/2-z
-x,1/2-y,1/2-z
x,1/2+y,1/2-z
-x,1/2+y,1/2+z
x,1/2-y,1/2+z
1/2+x,y,1/2+z
1/2-x,-y,1/2+z
1/2+x,-y,1/2-z
1/2-x,y,1/2-z
1/2-x,-y,1/2-z
1/2+x,y,1/2-z
1/2-x,y,1/2+z
1/2+x,-y,1/2+z
1/2+x,1/2+y,z
1/2-x,1/2-y,z
1/2+x,1/2-y,-z
1/2-x,1/2+y,-z
1/2-x,1/2-y,-z
1/2+x,1/2+y,-z
1/2-x,1/2+y,z
1/2+x,1/2-y,z
loop_
_atom_site_type_symbol
_atom_site_label
_atom_site_fract_x
_atom_site_fract_y
_atom_site_fract_z
Si Si1 0.164681 0.736823 0.500000
Si Si2 0.671804 0.881093 0.415214
Si Si3 0.412946 0.128973 0.000000
Si Si4 0.418565 0.073979 0.720836
Si Si5 0.172943 0.425229 0.137311
O O1 0.250000 0.750000 0.500000
O O2 0.150066 0.693394 0.575222
O O3 0.115902 0.799097 0.500000
O O4 0.674004 0.912946 0.500000
O O5 0.610191 0.913549 0.363895
O O6 0.751677 0.887759 0.376643
O O7 0.386083 0.090510 0.072836
O O8 0.500000 0.130969 0.000000
O O9 0.500000 0.104837 0.730128
O O10 0.361464 0.100435 0.783556
O O11 0.425521 0.000000 0.734605
O O12 0.190147 0.500000 0.139417
#
# Coordination Sequence:
#
# PCOD8285110 Si02
#       5
#    16  32  16  32  32
#     4  10  20  42  60  82 113 153 202 247 293 335
#     4  10  21  37  66  84 116 153 207 244 291 349
#     4  12  23  37  62  88 119 159 199 245 296 352
#     4  10  22  38  56  88 129 159 189 239 299 355
#     4  11  21  37  61  91 124 155 194 242 298 364
#
# _framework density 19.013445000000001
#
# number of rings (size 3 to 8) (size 9 to 14) (size 15 to 20)
#    0.750    0.750    3.750    2.625    0.000    7.000 
#    0.000    2.500    0.000    3.000    0.000    0.000 
#    0.000    0.000    0.000    0.000    0.000    0.000 
#
# Total GULP energy -396621.115728 kJ/mol
# GULP energy per Si atom -12394.409866 kJ/mol
# Density = 1.897017 g / cm^3
# Si number density = 19.013445 Si / 1000 Ang^3
#
#
#
# Elastic Constant Matrix: (Units=GPa)
#
#
# Indices 1 2 3 4 5 6 
#
# 1 79.4322 4.5010 41.2500 0.0000 0.0000 0.0000
# 2 4.5010 36.6216 11.1405 0.0000 0.0000 0.0000
# 3 41.2500 11.1405 126.0367 0.0000 0.0000 0.0000
# 4 0.0000 0.0000 0.0000 -1.8015 0.0000 0.0000
# 5 0.0000 0.0000 0.0000 0.0000 28.0910 0.0000
# 6 0.0000 0.0000 0.0000 0.0000 0.0000 27.7319
#
#
#
# Elastic Compliance Matrix: (Units=1/GPa)
#
#
# Indices 1 2 3 4 5 6 
#
# 1 0.015172 -0.000364 -0.004933 0.000000 0.000000 0.000000
# 2 -0.000364 0.028070 -0.002362 0.000000 0.000000 0.000000
# 3 -0.004933 -0.002362 0.009758 0.000000 0.000000 0.000000
# 4 0.000000 0.000000 0.000000 -0.555098 0.000000 0.000000
# 5 0.000000 0.000000 0.000000 0.000000 0.035599 0.000000
# 6 0.000000 0.000000 0.000000 0.000000 0.000000 0.036060
#
#
# Mechanical properties :
#
#
# Convention : Reuss Voigt Hill
#
# Bulk Modulus (GPa) = 26.53897 39.54151 33.04024
# Shear Modulus (GPa) = -12.42045 23.15089 5.36522
#
# Velocity S-wave (km/s) = -2.55864 3.49321 1.68164
# Velocity P-wave (km/s) = 2.29335 6.09194 4.60278
#
# Compressibility (1/GPa) = 0.03768044
#
# Stress axis : x y z
#
# Youngs Moduli (GPa) = 65.91118 35.62581 102.48426
#
# Poissons Ratio (x) = 0.01297 0.50559
# Poissons Ratio (y) = 0.02399 0.24207
# Poissons Ratio (z) = 0.32516 0.08415
#
# Static dielectric constant tensor:
#      x y z
#    x 5.066010 0.000000 0.000000 
#    y 0.000000 2.893060 0.000000 
#    z 0.000000 0.000000 3.666830 
# 
# 
# High freq. dielectric constant tensor:
#      x y z
#    x 1.747580 0.000000 0.000000 
#    y 0.000000 1.715410 0.000000 
#    z 0.000000 0.000000 1.743290 
# 
# From -- ./inp_files/29648.got.cif
#   From: 2010.03.12/outbox.cif.g09.slc.cpg/sg69_15_cif.got.tgz:29648.got - 2010.04.10 23:52:46.
