data_PCOD8285688
_publ_section_title
;
Structure prediction by ZEFSAII (Michael W. Deem and Ramdas Pophale) SiO2 
 PCOD8285688
Probable space group: F M M M
;
_chemical_formula_sum "Si O2"
_cell_formula_units_Z 160
_cell_length_a 9.584298
_cell_length_b 27.694191
_cell_length_c 37.636725
_cell_angle_alpha 90.000000
_cell_angle_beta 90.000000
_cell_angle_gamma 90.000000
_cell_volume 9989.892560
_symmetry_space_group_name_H-M "F M M M"
_symmetry_group_IT_number 69
_symmetry_cell_setting 'orthorhombic'
loop_
_space_group_symop_operation_xyz
x,y,z
-x,-y,z
x,-y,-z
-x,y,-z
-x,-y,-z
x,y,-z
-x,y,z
x,-y,z
x,1/2+y,1/2+z
-x,1/2-y,1/2+z
x,1/2-y,1/2-z
-x,1/2+y,1/2-z
-x,1/2-y,1/2-z
x,1/2+y,1/2-z
-x,1/2+y,1/2+z
x,1/2-y,1/2+z
1/2+x,y,1/2+z
1/2-x,-y,1/2+z
1/2+x,-y,1/2-z
1/2-x,y,1/2-z
1/2-x,-y,1/2-z
1/2+x,y,1/2-z
1/2-x,y,1/2+z
1/2+x,-y,1/2+z
1/2+x,1/2+y,z
1/2-x,1/2-y,z
1/2+x,1/2-y,-z
1/2-x,1/2+y,-z
1/2-x,1/2-y,-z
1/2+x,1/2+y,-z
1/2-x,1/2+y,z
1/2+x,1/2-y,z
loop_
_atom_site_type_symbol
_atom_site_label
_atom_site_fract_x
_atom_site_fract_y
_atom_site_fract_z
Si Si1 0.665057 0.855435 0.393302
Si Si2 0.665924 0.946637 0.645857
Si Si3 0.337705 0.797412 0.459988
Si Si4 0.660547 0.608382 0.784350
Si Si5 0.838795 0.703820 0.673432
O O1 0.500000 0.857866 0.389458
O O2 0.723688 0.909050 0.384082
O O3 0.710764 0.839411 0.432862
O O4 0.717694 0.816472 0.364372
O O5 0.500000 0.948695 0.643913
O O6 0.710955 0.927630 0.684558
O O7 0.729648 0.000000 0.639048
O O8 0.308859 0.815977 0.500000
O O9 0.500000 0.784526 0.454514
O O10 0.250000 0.750000 0.451470
O O11 0.500000 0.598938 0.774924
O O12 0.750000 0.596447 0.750000
O O13 0.682784 0.663484 0.796493
O O14 0.750000 0.750000 0.684734
O O15 0.000000 0.719096 0.670619
#
# Coordination Sequence:
#
# PCOD8285688 Si02
#       5
#    32  32  32  32  32
#     4   8  14  25  40  58  81 107 134 165 198 232
#     4   8  14  26  44  62  78 101 134 166 198 240
#     4   9  16  25  39  61  88 114 137 162 194 231
#     4   9  18  30  42  59  81 102 128 164 202 239
#     4   9  17  28  41  57  78 105 136 165 193 231
#
# _framework density 16.016189000000001
#
# number of rings (size 3 to 8) (size 9 to 14) (size 15 to 20)
#    0.000    3.400    0.000    3.000    0.000    1.600 
#    0.000    2.000    0.000    1.800    0.000    4.200 
#    0.000    0.000    0.000    5.000    0.000    5.200 
#
# Total GULP energy -495725.290139 kJ/mol
# GULP energy per Si atom -12393.132253 kJ/mol
# Density = 1.597974 g / cm^3
# Si number density = 16.016189 Si / 1000 Ang^3
#
#
#
# Elastic Constant Matrix: (Units=GPa)
#
#
# Indices 1 2 3 4 5 6 
#
# 1 28.8187 30.8454 29.6406 0.0000 0.0000 0.0000
# 2 30.8454 124.8136 63.1105 0.0000 0.0000 0.0000
# 3 29.6406 63.1105 116.0340 0.0000 0.0000 0.0000
# 4 0.0000 0.0000 0.0000 17.6822 0.0000 0.0000
# 5 0.0000 0.0000 0.0000 0.0000 18.2549 0.0000
# 6 0.0000 0.0000 0.0000 0.0000 0.0000 13.9945
#
#
#
# Elastic Compliance Matrix: (Units=1/GPa)
#
#
# Indices 1 2 3 4 5 6 
#
# 1 0.053047 -0.008632 -0.008856 0.000000 0.000000 0.000000
# 2 -0.008632 0.012456 -0.004570 0.000000 0.000000 0.000000
# 3 -0.008856 -0.004570 0.013366 0.000000 0.000000 0.000000
# 4 0.000000 0.000000 0.000000 0.056554 0.000000 0.000000
# 5 0.000000 0.000000 0.000000 0.000000 0.054780 0.000000
# 6 0.000000 0.000000 0.000000 0.000000 0.000000 0.071457
#
#
# Mechanical properties :
#
#
# Convention : Reuss Voigt Hill
#
# Bulk Modulus (GPa) = 28.77384 57.42881 43.10133
# Shear Modulus (GPa) = 15.75506 19.72429 17.73967
#
# Velocity S-wave (km/s) = 3.13979 3.51311 3.33169
# Velocity P-wave (km/s) = 5.58112 7.23813 6.46295
#
# Compressibility (1/GPa) = 0.03475379
#
# Stress axis : x y z
#
# Youngs Moduli (GPa) = 18.85126 80.28454 74.81758
#
# Poissons Ratio (x) = 0.69299 0.66258
# Poissons Ratio (y) = 0.16272 0.34189
# Poissons Ratio (z) = 0.16695 0.36687
#
# Static dielectric constant tensor:
#      x y z
#    x 2.656630 0.000000 0.000000 
#    y 0.000000 3.283850 0.000000 
#    z 0.000000 0.000000 3.103820 
# 
# 
# High freq. dielectric constant tensor:
#      x y z
#    x 1.574690 0.000000 0.000000 
#    y 0.000000 1.610180 0.000000 
#    z 0.000000 0.000000 1.612250 
# 
# From -- ./inp_files/11661.got.cif
#   From: 2010.03.12/outbox.cif.g09.slc.cpg/sg69_6_cif.got.tgz:11661.got - 2010.04.10 23:52:46.
