data_PCOD8285338
_publ_section_title
;
Structure prediction by ZEFSAII (Michael W. Deem and Ramdas Pophale) SiO2 
 PCOD8285338
Probable space group: F M M M
;
_chemical_formula_sum "Si O2"
_cell_formula_units_Z 168
_cell_length_a 22.764084
_cell_length_b 13.718548
_cell_length_c 26.520347
_cell_angle_alpha 90.000000
_cell_angle_beta 90.000000
_cell_angle_gamma 90.000000
_cell_volume 8282.043913
_symmetry_space_group_name_H-M "F M M M"
_symmetry_group_IT_number 69
_symmetry_cell_setting 'orthorhombic'
loop_
_space_group_symop_operation_xyz
x,y,z
-x,-y,z
x,-y,-z
-x,y,-z
-x,-y,-z
x,y,-z
-x,y,z
x,-y,z
x,1/2+y,1/2+z
-x,1/2-y,1/2+z
x,1/2-y,1/2-z
-x,1/2+y,1/2-z
-x,1/2-y,1/2-z
x,1/2+y,1/2-z
-x,1/2+y,1/2+z
x,1/2-y,1/2+z
1/2+x,y,1/2+z
1/2-x,-y,1/2+z
1/2+x,-y,1/2-z
1/2-x,y,1/2-z
1/2-x,-y,1/2-z
1/2+x,y,1/2-z
1/2-x,y,1/2+z
1/2+x,-y,1/2+z
1/2+x,1/2+y,z
1/2-x,1/2-y,z
1/2+x,1/2-y,-z
1/2-x,1/2+y,-z
1/2-x,1/2-y,-z
1/2+x,1/2+y,-z
1/2-x,1/2+y,z
1/2+x,1/2-y,z
loop_
_atom_site_type_symbol
_atom_site_label
_atom_site_fract_x
_atom_site_fract_y
_atom_site_fract_z
Si Si1 0.667521 0.390102 0.805889
Si Si2 0.669051 0.311428 0.556552
Si Si3 0.790996 0.390427 0.417276
Si Si4 0.068378 0.113777 0.375320
Si Si5 0.250000 0.250000 0.750000
Si Si6 0.936096 0.385371 0.762620
O O1 0.677947 0.500000 0.785687
O O2 0.671821 0.387922 0.865762
O O3 0.716391 0.318805 0.787297
O O4 0.606181 0.349869 0.782576
O O5 0.665154 0.355244 0.500000
O O6 0.721268 0.365546 0.587702
O O7 0.680688 0.195244 0.549421
O O8 0.608055 0.326414 0.585623
O O9 0.797454 0.500000 0.440490
O O10 0.086744 0.145126 0.318374
O O11 0.000000 0.138613 0.385059
O O12 0.080148 0.000000 0.384139
O O13 0.942633 0.500000 0.762414
O O14 0.000000 0.338680 0.752000
#
# Coordination Sequence:
#
# PCOD8285338 Si02
#       6
#    32  32  32  32   8  32
#     4  10  22  36  55  83 114 152 189 226 275 334
#     4  11  23  38  60  86 110 145 193 243 294 345
#     4  10  22  39  57  82 115 149 188 234 286 341
#     4   9  19  36  59  87 119 151 183 231 291 343
#     4  12  22  32  50  78 118 156 186 218 268 322
#     4   8  16  34  58  82 112 149 186 224 270 327
#
# _framework density 20.284848
#
# number of rings (size 3 to 8) (size 9 to 14) (size 15 to 20)
#    0.000    2.286    0.000    4.286    5.333    3.048 
#    0.000    2.381    0.000    1.714    0.000    1.333 
#    0.000    0.000    0.000    0.000    0.000    0.000 
#
# Total GULP energy -520405.560456 kJ/mol
# GULP energy per Si atom -12390.608582 kJ/mol
# Density = 2.023868 g / cm^3
# Si number density = 20.284848 Si / 1000 Ang^3
#
#
#
# Elastic Constant Matrix: (Units=GPa)
#
#
# Indices 1 2 3 4 5 6 
#
# 1 121.1328 31.1716 67.9778 0.0000 0.0000 0.0000
# 2 31.1716 91.1188 23.6454 0.0000 0.0000 0.0000
# 3 67.9778 23.6454 111.7548 0.0000 0.0000 0.0000
# 4 0.0000 0.0000 0.0000 22.5273 0.0000 0.0000
# 5 0.0000 0.0000 0.0000 0.0000 20.2423 0.0000
# 6 0.0000 0.0000 0.0000 0.0000 0.0000 29.3395
#
#
#
# Elastic Compliance Matrix: (Units=1/GPa)
#
#
# Indices 1 2 3 4 5 6 
#
# 1 0.013070 -0.002548 -0.007411 0.000000 0.000000 0.000000
# 2 -0.002548 0.012109 -0.001012 0.000000 0.000000 0.000000
# 3 -0.007411 -0.001012 0.013670 0.000000 0.000000 0.000000
# 4 0.000000 0.000000 0.000000 0.044391 0.000000 0.000000
# 5 0.000000 0.000000 0.000000 0.000000 0.049402 0.000000
# 6 0.000000 0.000000 0.000000 0.000000 0.000000 0.034084
#
#
# Mechanical properties :
#
#
# Convention : Reuss Voigt Hill
#
# Bulk Modulus (GPa) = 59.14771 63.28844 61.21807
# Shear Modulus (GPa) = 25.73294 27.83594 26.78444
#
# Velocity S-wave (km/s) = 3.56558 3.70841 3.63770
# Velocity P-wave (km/s) = 6.79507 7.04301 6.92015
#
# Compressibility (1/GPa) = 0.01690682
#
# Stress axis : x y z
#
# Youngs Moduli (GPa) = 76.51041 82.58304 73.15120
#
# Poissons Ratio (x) = 0.21043 0.54213
# Poissons Ratio (y) = 0.19495 0.07404
# Poissons Ratio (z) = 0.56703 0.08358
#
# Static dielectric constant tensor:
#      x y z
#    x 16.134410 0.000000 0.000000 
#    y 0.000000 3.857830 0.000000 
#    z 0.000000 0.000000 3.580540 
# 
# 
# High freq. dielectric constant tensor:
#      x y z
#    x 1.781950 0.000000 0.000000 
#    y 0.000000 1.803680 0.000000 
#    z 0.000000 0.000000 1.780290 
# 
# From -- ./inp_files/42595.got.cif
#   From: 2010.03.12/outbox.cif.g09.slc.cpg/sg69_22_cif.got.tgz:42595.got - 2010.04.10 23:52:46.
