data_PCOD8285561
_publ_section_title
;
Structure prediction by ZEFSAII (Michael W. Deem and Ramdas Pophale) SiO2 
 PCOD8285561
Probable space group: F M M M
;
_chemical_formula_sum "Si O2"
_cell_formula_units_Z 144
_cell_length_a 19.551958
_cell_length_b 16.093380
_cell_length_c 23.315827
_cell_angle_alpha 90.000000
_cell_angle_beta 90.000000
_cell_angle_gamma 90.000000
_cell_volume 7336.490271
_symmetry_space_group_name_H-M "F M M M"
_symmetry_group_IT_number 69
_symmetry_cell_setting 'orthorhombic'
loop_
_space_group_symop_operation_xyz
x,y,z
-x,-y,z
x,-y,-z
-x,y,-z
-x,-y,-z
x,y,-z
-x,y,z
x,-y,z
x,1/2+y,1/2+z
-x,1/2-y,1/2+z
x,1/2-y,1/2-z
-x,1/2+y,1/2-z
-x,1/2-y,1/2-z
x,1/2+y,1/2-z
-x,1/2+y,1/2+z
x,1/2-y,1/2+z
1/2+x,y,1/2+z
1/2-x,-y,1/2+z
1/2+x,-y,1/2-z
1/2-x,y,1/2-z
1/2-x,-y,1/2-z
1/2+x,y,1/2-z
1/2-x,y,1/2+z
1/2+x,-y,1/2+z
1/2+x,1/2+y,z
1/2-x,1/2-y,z
1/2+x,1/2-y,-z
1/2-x,1/2+y,-z
1/2-x,1/2-y,-z
1/2+x,1/2+y,-z
1/2-x,1/2+y,z
1/2+x,1/2-y,z
loop_
_atom_site_type_symbol
_atom_site_label
_atom_site_fract_x
_atom_site_fract_y
_atom_site_fract_z
Si Si1 0.647319 0.701277 0.088310
Si Si2 0.223865 0.000000 0.343737
Si Si3 0.704353 0.865586 0.063674
Si Si4 0.421724 0.909275 0.500000
Si Si5 0.143267 0.500000 0.726390
Si Si6 0.920947 0.324736 0.705561
O O1 0.643553 0.797784 0.069586
O O2 0.721625 0.673831 0.069238
O O3 0.632041 0.694458 0.155159
O O4 0.593458 0.643395 0.056428
O O5 0.198046 0.075545 0.382044
O O6 0.186450 0.000000 0.283817
O O7 0.305770 0.000000 0.329555
O O8 0.698241 0.907357 0.000000
O O9 0.500000 0.929868 0.500000
O O10 0.383357 0.000000 0.500000
O O11 0.096564 0.582767 0.728305
O O12 0.907981 0.250000 0.750000
O O13 0.000000 0.323914 0.685574
#
# Coordination Sequence:
#
# PCOD8285561 Si02
#       6
#    32  16  32  16  16  32
#     4  11  21  39  58  89 124 162 205 246 314 371
#     4  11  23  38  62  91 122 159 205 260 307 366
#     4  11  21  38  61  89 125 164 201 252 307 371
#     4  11  24  37  58  91 125 164 208 255 309 373
#     4  11  23  42  60  93 125 158 210 261 317 366
#     4  11  24  42  64  89 123 167 211 257 310 377
#
# _framework density 19.627914000000001
#
# number of rings (size 3 to 8) (size 9 to 14) (size 15 to 20)
#    0.000    1.000    4.444    3.333    3.111    0.000 
#    0.000    0.000    0.000    0.000    0.000    0.778 
#    0.000    0.000    0.000    0.000    0.000    0.000 
#
# Total GULP energy -446065.680504 kJ/mol
# GULP energy per Si atom -12390.713347 kJ/mol
# Density = 1.958324 g / cm^3
# Si number density = 19.627914 Si / 1000 Ang^3
#
#
#
# Elastic Constant Matrix: (Units=GPa)
#
#
# Indices 1 2 3 4 5 6 
#
# 1 52.0240 34.2700 23.2281 0.0000 0.0000 0.0000
# 2 34.2700 148.4910 51.9519 0.0000 0.0000 0.0000
# 3 23.2281 51.9519 124.3648 0.0000 0.0000 0.0000
# 4 0.0000 0.0000 0.0000 40.9917 0.0000 0.0000
# 5 0.0000 0.0000 0.0000 0.0000 105.8593 0.0000
# 6 0.0000 0.0000 0.0000 0.0000 0.0000 22.0877
#
#
#
# Elastic Compliance Matrix: (Units=1/GPa)
#
#
# Indices 1 2 3 4 5 6 
#
# 1 0.023296 -0.004514 -0.002465 0.000000 0.000000 0.000000
# 2 -0.004514 0.008762 -0.002817 0.000000 0.000000 0.000000
# 3 -0.002465 -0.002817 0.009678 0.000000 0.000000 0.000000
# 4 0.000000 0.000000 0.000000 0.024395 0.000000 0.000000
# 5 0.000000 0.000000 0.000000 0.000000 0.009447 0.000000
# 6 0.000000 0.000000 0.000000 0.000000 0.000000 0.045274
#
#
# Mechanical properties :
#
#
# Convention : Reuss Voigt Hill
#
# Bulk Modulus (GPa) = 45.16056 60.41998 52.79027
# Shear Modulus (GPa) = 33.82360 48.14972 40.98666
#
# Velocity S-wave (km/s) = 4.15570 4.95828 4.57462
# Velocity P-wave (km/s) = 6.78857 7.97677 7.40654
#
# Compressibility (1/GPa) = 0.02214322
#
# Stress axis : x y z
#
# Youngs Moduli (GPa) = 42.92549 114.13240 103.32566
#
# Poissons Ratio (x) = 0.51518 0.25475
# Poissons Ratio (y) = 0.19376 0.29107
# Poissons Ratio (z) = 0.10583 0.32152
#
# Static dielectric constant tensor:
#      x y z
#    x 3.472200 0.000000 0.000000 
#    y 0.000000 6.392470 0.000000 
#    z 0.000000 0.000000 3.779600 
# 
# 
# High freq. dielectric constant tensor:
#      x y z
#    x 1.740790 0.000000 0.000000 
#    y 0.000000 1.780560 0.000000 
#    z 0.000000 0.000000 1.777200 
# 
# From -- ./inp_files/22948.got.cif
#   From: 2010.03.12/outbox.cif.g09.slc.cpg/sg69_12_cif.got.tgz:22948.got - 2010.04.10 23:52:46.
