data_PCOD8285930
_publ_section_title
;
Structure prediction by ZEFSAII (Michael W. Deem and Ramdas Pophale) SiO2 
 PCOD8285930
Probable space group: F D D D
;
_chemical_formula_sum "Si O2"
_cell_formula_units_Z 200
_cell_length_a 14.241371
_cell_length_b 27.917572
_cell_length_c 26.190008
_cell_angle_alpha 90.000000
_cell_angle_beta 90.000000
_cell_angle_gamma 90.000000
_cell_volume 10412.741243
_symmetry_space_group_name_H-M "F D D D"
_symmetry_group_IT_number 70
_space_group.IT_coordinate_system_code '2'
_symmetry_cell_setting 'orthorhombic'
loop_
_space_group_symop_operation_xyz
x,y,z
1/4-x,1/4-y,z
x,1/4-y,1/4-z
1/4-x,y,1/4-z
-x,-y,-z
3/4+x,3/4+y,-z
-x,3/4+y,3/4+z
3/4+x,-y,3/4+z
x,1/2+y,1/2+z
1/4-x,3/4-y,1/2+z
x,3/4-y,3/4-z
1/4-x,1/2+y,3/4-z
-x,1/2-y,1/2-z
3/4+x,1/4+y,1/2-z
-x,1/4+y,1/4+z
3/4+x,1/2-y,1/4+z
1/2+x,y,1/2+z
3/4-x,1/4-y,1/2+z
1/2+x,1/4-y,3/4-z
3/4-x,y,3/4-z
1/2-x,-y,1/2-z
1/4+x,3/4+y,1/2-z
1/2-x,3/4+y,1/4+z
1/4+x,-y,1/4+z
1/2+x,1/2+y,z
3/4-x,3/4-y,z
1/2+x,3/4-y,1/4-z
3/4-x,1/2+y,1/4-z
1/2-x,1/2-y,-z
1/4+x,1/4+y,-z
1/2-x,1/4+y,3/4+z
1/4+x,1/2-y,3/4+z
loop_
_atom_site_type_symbol
_atom_site_label
_atom_site_fract_x
_atom_site_fract_y
_atom_site_fract_z
Si Si1 0.553090 0.759305 0.424233
Si Si2 0.125000 0.051622 0.125000
Si Si3 0.593236 0.572683 0.371728
Si Si4 0.053517 0.304565 0.698391
Si Si5 0.004018 0.692378 0.477805
Si Si6 0.250608 0.801730 0.939150
Si Si7 0.375000 0.875000 0.875000
Si Si8 0.625000 0.625000 0.041236
O O1 0.466414 0.770810 0.387727
O O2 0.584941 0.705893 0.408621
O O3 0.516174 0.763193 0.483265
O O4 0.642878 0.795089 0.418374
O O5 0.087922 0.082485 0.077225
O O6 0.625000 0.625000 0.355259
O O7 0.498187 0.582049 0.403096
O O8 0.575384 0.543563 0.318337
O O9 0.158612 0.324210 0.700764
O O10 0.000321 0.315480 0.751351
O O11 0.055314 0.248232 0.684192
O O12 0.039979 0.645513 0.507789
O O13 0.306313 0.842495 0.908990
#
# Coordination Sequence:
#
# PCOD8285930 Si02
#       8
#    32  16  32  32  32  32   8  16
#     4   9  21  40  60  86 119 163 201 249 304 373
#     4   9  18  38  66  83 122 155 200 248 310 339
#     4  11  22  38  59  88 119 156 208 253 300 365
#     4   9  20  39  59  75 119 165 188 236 319 362
#     4  10  19  38  61  82 118 161 200 241 306 363
#     4   9  21  38  56  87 121 153 199 246 305 363
#     4  12  24  32  62  96 118 150 212 264 288 356
#     4   9  18  34  61  90 109 154 198 247 286 366
#
# _framework density 19.207238
#
# number of rings (size 3 to 8) (size 9 to 14) (size 15 to 20)
#    0.000    2.400    0.800    1.440    5.600    3.840 
#    2.880    4.800    0.000    0.000    0.000    0.000 
#    0.000    0.000    0.000    0.000    0.000    0.000 
#
# Total GULP energy -619530.944516 kJ/mol
# GULP energy per Si atom -12390.618890 kJ/mol
# Density = 1.916352 g / cm^3
# Si number density = 19.207238 Si / 1000 Ang^3
#
#
#
# Elastic Constant Matrix: (Units=GPa)
#
#
# Indices 1 2 3 4 5 6 
#
# 1 108.8743 49.0188 60.1996 0.0000 0.0000 0.0000
# 2 49.0188 75.3025 53.6860 0.0000 0.0000 0.0000
# 3 60.1996 53.6860 124.7361 0.0000 0.0000 0.0000
# 4 0.0000 0.0000 0.0000 25.2848 0.0000 0.0000
# 5 0.0000 0.0000 0.0000 0.0000 31.0100 0.0000
# 6 0.0000 0.0000 0.0000 0.0000 0.0000 26.2069
#
#
#
# Elastic Compliance Matrix: (Units=1/GPa)
#
#
# Indices 1 2 3 4 5 6 
#
# 1 0.014370 -0.006362 -0.004197 0.000000 0.000000 0.000000
# 2 -0.006362 0.021975 -0.006388 0.000000 0.000000 0.000000
# 3 -0.004197 -0.006388 0.012792 0.000000 0.000000 0.000000
# 4 0.000000 0.000000 0.000000 0.039549 0.000000 0.000000
# 5 0.000000 0.000000 0.000000 0.000000 0.032248 0.000000
# 6 0.000000 0.000000 0.000000 0.000000 0.000000 0.038158
#
#
# Mechanical properties :
#
#
# Convention : Reuss Voigt Hill
#
# Bulk Modulus (GPa) = 65.60169 70.52463 68.06316
# Shear Modulus (GPa) = 25.24411 26.23425 25.73918
#
# Velocity S-wave (km/s) = 3.62926 3.69975 3.66468
# Velocity P-wave (km/s) = 7.19659 7.41946 7.30887
#
# Compressibility (1/GPa) = 0.01524351
#
# Stress axis : x y z
#
# Youngs Moduli (GPa) = 69.58988 45.50593 78.17609
#
# Poissons Ratio (x) = 0.28951 0.32810
# Poissons Ratio (y) = 0.44273 0.49936
# Poissons Ratio (z) = 0.29206 0.29067
#
# Static dielectric constant tensor:
#      x y z
#    x 3.605310 0.000000 0.000000 
#    y 0.000000 3.156980 0.000000 
#    z 0.000000 0.000000 3.819270 
# 
# 
# High freq. dielectric constant tensor:
#      x y z
#    x 1.747440 0.000000 0.000000 
#    y 0.000000 1.707060 0.000000 
#    z 0.000000 0.000000 1.767560 
# 
# From -- ./inp_files/58780.got.cif
#   From: 2010.03.12/outbox.cif.g09.slc.cpg/sg70_30_cif.got.tgz:58780.got - 2010.04.16 13:46:32.
