data_PCOD8285422
_publ_section_title
;
Structure prediction by ZEFSAII (Michael W. Deem and Ramdas Pophale) SiO2 
 PCOD8285422
Probable space group: F M M M
;
_chemical_formula_sum "Si O2"
_cell_formula_units_Z 104
_cell_length_a 14.012272
_cell_length_b 33.094562
_cell_length_c 10.311590
_cell_angle_alpha 90.000000
_cell_angle_beta 90.000000
_cell_angle_gamma 90.000000
_cell_volume 4781.793677
_symmetry_space_group_name_H-M "F M M M"
_symmetry_group_IT_number 69
_symmetry_cell_setting 'orthorhombic'
loop_
_space_group_symop_operation_xyz
x,y,z
-x,-y,z
x,-y,-z
-x,y,-z
-x,-y,-z
x,y,-z
-x,y,z
x,-y,z
x,1/2+y,1/2+z
-x,1/2-y,1/2+z
x,1/2-y,1/2-z
-x,1/2+y,1/2-z
-x,1/2-y,1/2-z
x,1/2+y,1/2-z
-x,1/2+y,1/2+z
x,1/2-y,1/2+z
1/2+x,y,1/2+z
1/2-x,-y,1/2+z
1/2+x,-y,1/2-z
1/2-x,y,1/2-z
1/2-x,-y,1/2-z
1/2+x,y,1/2-z
1/2-x,y,1/2+z
1/2+x,-y,1/2+z
1/2+x,1/2+y,z
1/2-x,1/2-y,z
1/2+x,1/2-y,-z
1/2-x,1/2+y,-z
1/2-x,1/2-y,-z
1/2+x,1/2+y,-z
1/2-x,1/2+y,z
1/2+x,1/2-y,z
loop_
_atom_site_type_symbol
_atom_site_label
_atom_site_fract_x
_atom_site_fract_y
_atom_site_fract_z
Si Si1 0.808855 0.455531 0.000000
Si Si2 0.894187 0.313291 0.148659
Si Si3 0.895293 0.436473 0.500000
Si Si4 0.250000 0.750000 0.250000
Si Si5 0.107721 0.099858 0.279067
O O1 0.832880 0.430960 0.869069
O O2 0.859191 0.500000 0.000000
O O3 0.695459 0.465825 0.000000
O O4 0.818854 0.277358 0.163302
O O5 0.853647 0.354365 0.212494
O O6 0.000000 0.301999 0.205816
O O7 0.905788 0.323234 0.000000
O O8 0.886303 0.409383 0.627686
O O9 0.000000 0.458638 0.500000
O O10 0.000000 0.097567 0.331868
#
# Coordination Sequence:
#
# PCOD8285422 Si02
#       5
#    16  32  16   8  32
#     4  12  25  41  68  99 125 165 223 266 306 382
#     4  10  22  42  64  92 129 168 212 261 317 376
#     4  10  24  42  63  94 130 169 209 260 323 377
#     4  12  24  36  64 100 126 166 210 264 314 376
#     4  10  22  43  68  94 128 170 213 264 321 378
#
# _framework density 21.749161999999998
#
# number of rings (size 3 to 8) (size 9 to 14) (size 15 to 20)
#    0.000    1.538    1.538    2.308    4.308    4.000 
#    2.769    3.077    0.000    0.000    0.000    0.000 
#    0.000    0.000    0.000    0.000    0.000    0.000 
#
# Total GULP energy -322168.628914 kJ/mol
# GULP energy per Si atom -12391.101112 kJ/mol
# Density = 2.169966 g / cm^3
# Si number density = 21.749162 Si / 1000 Ang^3
#
#
#
# Elastic Constant Matrix: (Units=GPa)
#
#
# Indices 1 2 3 4 5 6 
#
# 1 133.0933 54.9072 29.9925 0.0000 0.0000 0.0000
# 2 54.9072 152.7989 51.9219 0.0000 0.0000 0.0000
# 3 29.9925 51.9219 132.1312 0.0000 0.0000 0.0000
# 4 0.0000 0.0000 0.0000 -0.5681 0.0000 0.0000
# 5 0.0000 0.0000 0.0000 0.0000 45.3376 0.0000
# 6 0.0000 0.0000 0.0000 0.0000 0.0000 18.5038
#
#
#
# Elastic Compliance Matrix: (Units=1/GPa)
#
#
# Indices 1 2 3 4 5 6 
#
# 1 0.008909 -0.002902 -0.000882 0.000000 0.000000 0.000000
# 2 -0.002902 0.008498 -0.002681 0.000000 0.000000 0.000000
# 3 -0.000882 -0.002681 0.008822 0.000000 0.000000 0.000000
# 4 0.000000 0.000000 0.000000 -1.760316 0.000000 0.000000
# 5 0.000000 0.000000 0.000000 0.000000 0.022057 0.000000
# 6 0.000000 0.000000 0.000000 0.000000 0.000000 0.054043
#
#
# Mechanical properties :
#
#
# Convention : Reuss Voigt Hill
#
# Bulk Modulus (GPa) = 75.18641 76.85182 76.01912
# Shear Modulus (GPa) = -3.04762 31.40146 14.17692
#
# Velocity S-wave (km/s) = -1.18503 3.80386 2.55588
# Velocity P-wave (km/s) = 5.72472 7.39626 6.61351
#
# Compressibility (1/GPa) = 0.01330028
#
# Stress axis : x y z
#
# Youngs Moduli (GPa) = 112.24061 117.67155 113.35452
#
# Poissons Ratio (x) = 0.34146 0.09999
# Poissons Ratio (y) = 0.32570 0.30388
# Poissons Ratio (z) = 0.09900 0.31545
#
# Static dielectric constant tensor:
#      x y z
#    x 4.447980 0.000000 0.000000 
#    y 0.000000 3.699650 0.000000 
#    z 0.000000 0.000000 3.707040 
# 
# 
# High freq. dielectric constant tensor:
#      x y z
#    x 1.875700 0.000000 0.000000 
#    y 0.000000 1.846030 0.000000 
#    z 0.000000 0.000000 1.850980 
# 
# From -- ./inp_files/7439.got.cif
#   From: 2010.03.12/outbox.cif.g09.slc.cpg/sg69_4_cif.got.tgz:7439.got - 2010.04.10 23:52:46.
