data_PCOD8285538
_publ_section_title
;
Structure prediction by ZEFSAII (Michael W. Deem and Ramdas Pophale) SiO2 
 PCOD8285538
Probable space group: F M M M
;
_chemical_formula_sum "Si O2"
_cell_formula_units_Z 144
_cell_length_a 19.638839
_cell_length_b 21.377842
_cell_length_c 18.736718
_cell_angle_alpha 90.000000
_cell_angle_beta 90.000000
_cell_angle_gamma 90.000000
_cell_volume 7866.348686
_symmetry_space_group_name_H-M "F M M M"
_symmetry_group_IT_number 69
_symmetry_cell_setting 'orthorhombic'
loop_
_space_group_symop_operation_xyz
x,y,z
-x,-y,z
x,-y,-z
-x,y,-z
-x,-y,-z
x,y,-z
-x,y,z
x,-y,z
x,1/2+y,1/2+z
-x,1/2-y,1/2+z
x,1/2-y,1/2-z
-x,1/2+y,1/2-z
-x,1/2-y,1/2-z
x,1/2+y,1/2-z
-x,1/2+y,1/2+z
x,1/2-y,1/2+z
1/2+x,y,1/2+z
1/2-x,-y,1/2+z
1/2+x,-y,1/2-z
1/2-x,y,1/2-z
1/2-x,-y,1/2-z
1/2+x,y,1/2-z
1/2-x,y,1/2+z
1/2+x,-y,1/2+z
1/2+x,1/2+y,z
1/2-x,1/2-y,z
1/2+x,1/2-y,-z
1/2-x,1/2+y,-z
1/2-x,1/2-y,-z
1/2+x,1/2+y,-z
1/2-x,1/2+y,z
1/2+x,1/2-y,z
loop_
_atom_site_type_symbol
_atom_site_label
_atom_site_fract_x
_atom_site_fract_y
_atom_site_fract_z
Si Si1 0.148637 0.710101 0.418640
Si Si2 0.178732 0.072596 0.288808
Si Si3 0.580641 0.000000 0.579429
Si Si4 0.297118 0.343529 0.418754
Si Si5 0.579296 0.615574 0.826167
O O1 0.124464 0.699855 0.500000
O O2 0.219442 0.675100 0.404874
O O3 0.155701 0.783519 0.402272
O O4 0.092832 0.681676 0.364922
O O5 0.250000 0.083651 0.250000
O O6 0.181686 0.099469 0.368517
O O7 0.120083 0.110252 0.247404
O O8 0.159242 0.000000 0.293225
O O9 0.606290 0.061051 0.621108
O O10 0.500000 0.000000 0.573816
O O11 0.612933 0.000000 0.500000
O O12 0.307576 0.365645 0.500000
O O13 0.500000 0.608684 0.808611
#
# Coordination Sequence:
#
# PCOD8285538 Si02
#       5
#    32  32  16  32  32
#     4   9  18  35  57  83 113 147 186 229 281 341
#     4  11  22  37  56  82 115 151 192 238 279 331
#     4   9  18  32  51  78 115 157 185 212 275 349
#     4   9  19  37  59  81 110 148 190 233 279 330
#     4  11  21  35  55  83 118 151 184 231 288 340
#
# _framework density 18.305824999999999
#
# number of rings (size 3 to 8) (size 9 to 14) (size 15 to 20)
#    0.000    2.111    3.333    2.000    0.000    2.667 
#    0.000    2.222    0.000    2.000    0.000    1.556 
#    0.000    0.000    0.000    0.000    0.000    0.000 
#
# Total GULP energy -446485.637623 kJ/mol
# GULP energy per Si atom -12402.378823 kJ/mol
# Density = 1.826416 g / cm^3
# Si number density = 18.305825 Si / 1000 Ang^3
#
#
#
# Elastic Constant Matrix: (Units=GPa)
#
#
# Indices 1 2 3 4 5 6 
#
# 1 64.6428 25.8137 34.5565 0.0000 0.0000 0.0000
# 2 25.8137 68.8657 47.1291 0.0000 0.0000 0.0000
# 3 34.5565 47.1291 112.5909 0.0000 0.0000 0.0000
# 4 0.0000 0.0000 0.0000 28.7109 0.0000 0.0000
# 5 0.0000 0.0000 0.0000 0.0000 22.0651 0.0000
# 6 0.0000 0.0000 0.0000 0.0000 0.0000 23.2035
#
#
#
# Elastic Compliance Matrix: (Units=1/GPa)
#
#
# Indices 1 2 3 4 5 6 
#
# 1 0.019449 -0.004492 -0.004089 0.000000 0.000000 0.000000
# 2 -0.004492 0.021388 -0.007574 0.000000 0.000000 0.000000
# 3 -0.004089 -0.007574 0.013307 0.000000 0.000000 0.000000
# 4 0.000000 0.000000 0.000000 0.034830 0.000000 0.000000
# 5 0.000000 0.000000 0.000000 0.000000 0.045321 0.000000
# 6 0.000000 0.000000 0.000000 0.000000 0.000000 0.043097
#
#
# Mechanical properties :
#
#
# Convention : Reuss Voigt Hill
#
# Bulk Modulus (GPa) = 45.79957 51.23313 48.51635
# Shear Modulus (GPa) = 23.04349 24.03589 23.53969
#
# Velocity S-wave (km/s) = 3.55182 3.62749 3.58985
# Velocity P-wave (km/s) = 6.47255 6.75226 6.61389
#
# Compressibility (1/GPa) = 0.02183427
#
# Stress axis : x y z
#
# Youngs Moduli (GPa) = 51.41559 46.75460 75.14723
#
# Poissons Ratio (x) = 0.21002 0.30729
# Poissons Ratio (y) = 0.23096 0.56918
# Poissons Ratio (z) = 0.21025 0.35413
#
# Static dielectric constant tensor:
#      x y z
#    x 3.078040 0.000000 0.000000 
#    y 0.000000 3.356240 0.000000 
#    z 0.000000 0.000000 3.365470 
# 
# 
# High freq. dielectric constant tensor:
#      x y z
#    x 1.682750 0.000000 0.000000 
#    y 0.000000 1.707350 0.000000 
#    z 0.000000 0.000000 1.710050 
# 
# From -- ./inp_files/22857.got.cif
#   From: 2010.03.12/outbox.cif.g09.slc.cpg/sg69_12_cif.got.tgz:22857.got - 2010.04.10 23:52:46.
