data_PCOD8285369
_publ_section_title
;
Structure prediction by ZEFSAII (Michael W. Deem and Ramdas Pophale) SiO2 
 PCOD8285369
Probable space group: F M M M
;
_chemical_formula_sum "Si O2"
_cell_formula_units_Z 104
_cell_length_a 9.387954
_cell_length_b 29.656448
_cell_length_c 19.501886
_cell_angle_alpha 90.000000
_cell_angle_beta 90.000000
_cell_angle_gamma 90.000000
_cell_volume 5429.585795
_symmetry_space_group_name_H-M "F M M M"
_symmetry_group_IT_number 69
_symmetry_cell_setting 'orthorhombic'
loop_
_space_group_symop_operation_xyz
x,y,z
-x,-y,z
x,-y,-z
-x,y,-z
-x,-y,-z
x,y,-z
-x,y,z
x,-y,z
x,1/2+y,1/2+z
-x,1/2-y,1/2+z
x,1/2-y,1/2-z
-x,1/2+y,1/2-z
-x,1/2-y,1/2-z
x,1/2+y,1/2-z
-x,1/2+y,1/2+z
x,1/2-y,1/2+z
1/2+x,y,1/2+z
1/2-x,-y,1/2+z
1/2+x,-y,1/2-z
1/2-x,y,1/2-z
1/2-x,-y,1/2-z
1/2+x,y,1/2-z
1/2-x,y,1/2+z
1/2+x,-y,1/2+z
1/2+x,1/2+y,z
1/2-x,1/2-y,z
1/2+x,1/2-y,-z
1/2-x,1/2+y,-z
1/2-x,1/2-y,-z
1/2+x,1/2+y,-z
1/2-x,1/2+y,z
1/2+x,1/2-y,z
loop_
_atom_site_type_symbol
_atom_site_label
_atom_site_fract_x
_atom_site_fract_y
_atom_site_fract_z
Si Si1 0.835479 0.888410 0.919828
Si Si2 0.250000 0.750000 0.750000
Si Si3 0.158080 0.789950 0.118068
Si Si4 0.164582 0.446867 0.183009
O O1 0.777908 0.838635 0.900377
O O2 0.735691 0.924429 0.882992
O O3 0.000000 0.894162 0.896484
O O4 0.819107 0.896964 0.000000
O O5 0.155534 0.782419 0.799152
O O6 0.250000 0.750000 0.082709
O O7 0.000000 0.786919 0.087619
O O8 0.178584 0.500000 0.173081
O O9 0.250000 0.430490 0.250000
O O10 0.000000 0.432078 0.189933
#
# Coordination Sequence:
#
# PCOD8285369 Si02
#       4
#    32   8  32  32
#     4  10  22  39  57  82 119 159 195 234 286 345
#     4   8  18  32  52  76 108 144 184 240 278 328
#     4   9  19  33  52  78 110 147 189 234 281 333
#     4  10  22  40  62  88 116 146 187 239 291 345
#
# _framework density 19.154316000000001
#
# number of rings (size 3 to 8) (size 9 to 14) (size 15 to 20)
#    0.923    1.538    0.000    1.385    2.154    4.923 
#    0.000    3.077    0.000    0.000    0.000    0.000 
#    0.000    0.000    0.000    0.000    0.000    0.000 
#
# Total GULP energy -322281.249896 kJ/mol
# GULP energy per Si atom -12395.432688 kJ/mol
# Density = 1.911072 g / cm^3
# Si number density = 19.154316 Si / 1000 Ang^3
#
#
#
# Elastic Constant Matrix: (Units=GPa)
#
#
# Indices 1 2 3 4 5 6 
#
# 1 112.6384 51.5652 48.0251 0.0000 0.0000 0.0000
# 2 51.5652 65.1311 42.1812 0.0000 0.0000 0.0000
# 3 48.0251 42.1812 93.9114 0.0000 0.0000 0.0000
# 4 0.0000 0.0000 0.0000 10.9570 0.0000 0.0000
# 5 0.0000 0.0000 0.0000 0.0000 27.4832 0.0000
# 6 0.0000 0.0000 0.0000 0.0000 0.0000 34.0788
#
#
#
# Elastic Compliance Matrix: (Units=1/GPa)
#
#
# Indices 1 2 3 4 5 6 
#
# 1 0.014577 -0.009467 -0.003202 0.000000 0.000000 0.000000
# 2 -0.009467 0.027800 -0.007645 0.000000 0.000000 0.000000
# 3 -0.003202 -0.007645 0.015720 0.000000 0.000000 0.000000
# 4 0.000000 0.000000 0.000000 0.091266 0.000000 0.000000
# 5 0.000000 0.000000 0.000000 0.000000 0.036386 0.000000
# 6 0.000000 0.000000 0.000000 0.000000 0.000000 0.029344
#
#
# Mechanical properties :
#
#
# Convention : Reuss Voigt Hill
#
# Bulk Modulus (GPa) = 57.24816 61.69152 59.46984
# Shear Modulus (GPa) = 19.11712 23.16442 21.14077
#
# Velocity S-wave (km/s) = 3.16263 3.48135 3.32581
# Velocity P-wave (km/s) = 6.57944 6.95969 6.77224
#
# Compressibility (1/GPa) = 0.01746781
#
# Stress axis : x y z
#
# Youngs Moduli (GPa) = 68.59959 35.97084 63.61309
#
# Poissons Ratio (x) = 0.34054 0.20372
# Poissons Ratio (y) = 0.64944 0.48635
# Poissons Ratio (z) = 0.21969 0.27501
#
# Static dielectric constant tensor:
#      x y z
#    x 3.434940 0.000000 0.000000 
#    y 0.000000 3.420990 0.000000 
#    z 0.000000 0.000000 3.317530 
# 
# 
# High freq. dielectric constant tensor:
#      x y z
#    x 1.740950 0.000000 0.000000 
#    y 0.000000 1.742960 0.000000 
#    z 0.000000 0.000000 1.739270 
# 
# From -- ./inp_files/20785.got.cif
#   From: 2010.03.12/outbox.cif.g09.slc.cpg/sg69_11_cif.got.tgz:20785.got - 2010.04.10 23:52:46.
