data_PCOD8285656
_publ_section_title
;
Structure prediction by ZEFSAII (Michael W. Deem and Ramdas Pophale) SiO2 
 PCOD8285656
Probable space group: F M M M
;
_chemical_formula_sum "Si O2"
_cell_formula_units_Z 168
_cell_length_a 21.978879
_cell_length_b 29.220293
_cell_length_c 12.151601
_cell_angle_alpha 90.000000
_cell_angle_beta 90.000000
_cell_angle_gamma 90.000000
_cell_volume 7804.114012
_symmetry_space_group_name_H-M "F M M M"
_symmetry_group_IT_number 69
_symmetry_cell_setting 'orthorhombic'
loop_
_space_group_symop_operation_xyz
x,y,z
-x,-y,z
x,-y,-z
-x,y,-z
-x,-y,-z
x,y,-z
-x,y,z
x,-y,z
x,1/2+y,1/2+z
-x,1/2-y,1/2+z
x,1/2-y,1/2-z
-x,1/2+y,1/2-z
-x,1/2-y,1/2-z
x,1/2+y,1/2-z
-x,1/2+y,1/2+z
x,1/2-y,1/2+z
1/2+x,y,1/2+z
1/2-x,-y,1/2+z
1/2+x,-y,1/2-z
1/2-x,y,1/2-z
1/2-x,-y,1/2-z
1/2+x,y,1/2-z
1/2-x,y,1/2+z
1/2+x,-y,1/2+z
1/2+x,1/2+y,z
1/2-x,1/2-y,z
1/2+x,1/2-y,-z
1/2-x,1/2+y,-z
1/2-x,1/2-y,-z
1/2+x,1/2+y,-z
1/2-x,1/2+y,z
1/2+x,1/2-y,z
loop_
_atom_site_type_symbol
_atom_site_label
_atom_site_fract_x
_atom_site_fract_y
_atom_site_fract_z
Si Si1 0.899749 0.677640 0.500000
Si Si2 0.887417 0.449796 0.121046
Si Si3 0.500000 0.603311 0.000000
Si Si4 0.804253 0.367470 0.180720
Si Si5 0.500000 0.826167 0.868791
Si Si6 0.255959 0.694339 0.000000
Si Si7 0.892254 0.797862 0.767473
Si Si8 0.000000 0.077930 0.245429
O O1 0.825673 0.676906 0.500000
O O2 0.922272 0.703039 0.610823
O O3 0.935510 0.629774 0.500000
O O4 0.856351 0.500000 0.135388
O O5 0.837168 0.409906 0.123743
O O6 0.939185 0.446577 0.212863
O O7 0.917811 0.446017 0.000000
O O8 0.500000 0.574285 0.887073
O O9 0.750000 0.389722 0.250000
O O10 0.779491 0.327331 0.102720
O O11 0.849922 0.342255 0.264148
O O12 0.559260 0.798320 0.832103
O O13 0.500000 0.871518 0.795176
O O14 0.500000 0.835650 0.000000
O O15 0.250000 0.750000 0.000000
O O16 0.856071 0.750000 0.750000
#
# Coordination Sequence:
#
# PCOD8285656 Si02
#       8
#    16  32   8  32  16  16  32  16
#     4  12  22  46  64  94 137 185 239 281 344 410
#     4  11  24  46  76 106 136 175 228 293 360 421
#     4  12  24  44  73  96 138 182 228 286 353 430
#     4  12  25  43  67 101 139 181 236 284 344 414
#     4  12  25  41  66  98 133 177 230 290 354 414
#     4  12  26  42  67 100 144 194 239 292 337 412
#     4  12  26  42  65  97 136 186 233 284 343 417
#     4  12  23  44  71 104 135 175 229 285 355 426
#
# _framework density 21.527107999999998
#
# number of rings (size 3 to 8) (size 9 to 14) (size 15 to 20)
#    0.000    0.190    6.667    2.571    2.667    1.143 
#    0.000    0.952    0.000    0.000    0.000    0.000 
#    0.000    0.000    0.000    0.000    0.000    0.000 
#
# Total GULP energy -520419.850458 kJ/mol
# GULP energy per Si atom -12390.948820 kJ/mol
# Density = 2.147811 g / cm^3
# Si number density = 21.527108 Si / 1000 Ang^3
#
#
#
# Elastic Constant Matrix: (Units=GPa)
#
#
# Indices 1 2 3 4 5 6 
#
# 1 112.1953 45.0630 36.1753 0.0000 0.0000 0.0000
# 2 45.0630 146.2399 46.3698 0.0000 0.0000 0.0000
# 3 36.1753 46.3698 170.7542 0.0000 0.0000 0.0000
# 4 0.0000 0.0000 0.0000 22.9418 0.0000 0.0000
# 5 0.0000 0.0000 0.0000 0.0000 30.3750 0.0000
# 6 0.0000 0.0000 0.0000 0.0000 0.0000 42.0970
#
#
#
# Elastic Compliance Matrix: (Units=1/GPa)
#
#
# Indices 1 2 3 4 5 6 
#
# 1 0.010500 -0.002769 -0.001473 0.000000 0.000000 0.000000
# 2 -0.002769 0.008212 -0.001644 0.000000 0.000000 0.000000
# 3 -0.001473 -0.001644 0.006615 0.000000 0.000000 0.000000
# 4 0.000000 0.000000 0.000000 0.043589 0.000000 0.000000
# 5 0.000000 0.000000 0.000000 0.000000 0.032922 0.000000
# 6 0.000000 0.000000 0.000000 0.000000 0.000000 0.023755
#
#
# Mechanical properties :
#
#
# Convention : Reuss Voigt Hill
#
# Bulk Modulus (GPa) = 73.76081 76.04508 74.90295
# Shear Modulus (GPa) = 35.24092 39.18818 37.21455
#
# Velocity S-wave (km/s) = 4.05043 4.27126 4.16231
# Velocity P-wave (km/s) = 7.49755 7.72831 7.61380
#
# Compressibility (1/GPa) = 0.01355733
#
# Stress axis : x y z
#
# Youngs Moduli (GPa) = 95.23972 121.76803 151.17855
#
# Poissons Ratio (x) = 0.33712 0.22263
# Poissons Ratio (y) = 0.26367 0.24848
# Poissons Ratio (z) = 0.14025 0.20014
#
# Static dielectric constant tensor:
#      x y z
#    x 3.889920 0.000000 0.000000 
#    y 0.000000 3.847870 0.000000 
#    z 0.000000 0.000000 4.203560 
# 
# 
# High freq. dielectric constant tensor:
#      x y z
#    x 1.836850 0.000000 0.000000 
#    y 0.000000 1.836710 0.000000 
#    z 0.000000 0.000000 1.863520 
# 
# From -- ./inp_files/10685.got.cif
#   From: 2010.03.12/outbox.cif.g09.slc.cpg/sg69_6_cif.got.tgz:10685.got - 2010.04.10 23:52:46.
