data_PCOD8285492
_publ_section_title
;
Structure prediction by ZEFSAII (Michael W. Deem and Ramdas Pophale) SiO2 
 PCOD8285492
Probable space group: F M M M
;
_chemical_formula_sum "Si O2"
_cell_formula_units_Z 144
_cell_length_a 14.260435
_cell_length_b 33.676313
_cell_length_c 17.404879
_cell_angle_alpha 90.000000
_cell_angle_beta 90.000000
_cell_angle_gamma 90.000000
_cell_volume 8358.499468
_symmetry_space_group_name_H-M "F M M M"
_symmetry_group_IT_number 69
_symmetry_cell_setting 'orthorhombic'
loop_
_space_group_symop_operation_xyz
x,y,z
-x,-y,z
x,-y,-z
-x,y,-z
-x,-y,-z
x,y,-z
-x,y,z
x,-y,z
x,1/2+y,1/2+z
-x,1/2-y,1/2+z
x,1/2-y,1/2-z
-x,1/2+y,1/2-z
-x,1/2-y,1/2-z
x,1/2+y,1/2-z
-x,1/2+y,1/2+z
x,1/2-y,1/2+z
1/2+x,y,1/2+z
1/2-x,-y,1/2+z
1/2+x,-y,1/2-z
1/2-x,y,1/2-z
1/2-x,-y,1/2-z
1/2+x,y,1/2-z
1/2-x,y,1/2+z
1/2+x,-y,1/2+z
1/2+x,1/2+y,z
1/2-x,1/2-y,z
1/2+x,1/2-y,-z
1/2-x,1/2+y,-z
1/2-x,1/2-y,-z
1/2+x,1/2+y,-z
1/2-x,1/2+y,z
1/2+x,1/2-y,z
loop_
_atom_site_type_symbol
_atom_site_label
_atom_site_fract_x
_atom_site_fract_y
_atom_site_fract_z
Si Si1 0.760744 0.845182 0.087074
Si Si2 0.107423 0.783809 0.146022
Si Si3 0.110851 0.000000 0.916254
Si Si4 0.605355 0.914653 0.592023
Si Si5 0.107559 0.694767 0.180763
O O1 0.826577 0.806210 0.086005
O O2 0.820742 0.881973 0.121169
O O3 0.670509 0.838944 0.141013
O O4 0.727449 0.853326 0.000000
O O5 0.126502 0.736951 0.139800
O O6 0.133394 0.800493 0.230178
O O7 0.000000 0.793017 0.125989
O O8 0.137727 0.041802 0.874651
O O9 0.000000 0.000000 0.927096
O O10 0.159478 0.000000 0.000000
O O11 0.604213 0.916224 0.500000
O O12 0.500000 0.903896 0.621361
O O13 0.000000 0.681952 0.170693
#
# Coordination Sequence:
#
# PCOD8285492 Si02
#       5
#    32  32  16  32  32
#     4  11  20  27  41  68  95 112 131 172 227 268
#     4   9  18  33  49  61  78 110 152 190 215 243
#     4   7  10  20  38  56  80 115 143 163 199 256
#     4   8  14  24  38  60  89 115 138 168 211 261
#     4   9  19  34  47  58  78 116 160 186 201 238
#
# _framework density 17.227972000000001
#
# number of rings (size 3 to 8) (size 9 to 14) (size 15 to 20)
#    0.000    3.000    0.000    4.667    0.000    5.333 
#    0.000    2.222    0.000    0.000    0.000    3.889 
#    0.000    8.000    0.000    0.000    0.000    0.000 
#
# Total GULP energy -446097.641145 kJ/mol
# GULP energy per Si atom -12391.601143 kJ/mol
# Density = 1.718876 g / cm^3
# Si number density = 17.227972 Si / 1000 Ang^3
#
#
#
# Elastic Constant Matrix: (Units=GPa)
#
#
# Indices 1 2 3 4 5 6 
#
# 1 83.3571 53.0290 22.4629 0.0000 0.0000 0.0000
# 2 53.0290 98.7875 16.6243 0.0000 0.0000 0.0000
# 3 22.4629 16.6243 26.3903 0.0000 0.0000 0.0000
# 4 0.0000 0.0000 0.0000 10.0208 0.0000 0.0000
# 5 0.0000 0.0000 0.0000 0.0000 25.5885 0.0000
# 6 0.0000 0.0000 0.0000 0.0000 0.0000 24.0731
#
#
#
# Elastic Compliance Matrix: (Units=1/GPa)
#
#
# Indices 1 2 3 4 5 6 
#
# 1 0.021222 -0.009342 -0.012178 0.000000 0.000000 0.000000
# 2 -0.009342 0.015436 -0.001772 0.000000 0.000000 0.000000
# 3 -0.012178 -0.001772 0.049375 0.000000 0.000000 0.000000
# 4 0.000000 0.000000 0.000000 0.099792 0.000000 0.000000
# 5 0.000000 0.000000 0.000000 0.000000 0.039080 0.000000
# 6 0.000000 0.000000 0.000000 0.000000 0.000000 0.041540
#
#
# Mechanical properties :
#
#
# Convention : Reuss Voigt Hill
#
# Bulk Modulus (GPa) = 25.35007 43.64079 34.49543
# Shear Modulus (GPa) = 15.32904 19.69774 17.51339
#
# Velocity S-wave (km/s) = 2.98615 3.38503 3.19182
# Velocity P-wave (km/s) = 5.16099 6.37685 5.80087
#
# Compressibility (1/GPa) = 0.03944762
#
# Stress axis : x y z
#
# Youngs Moduli (GPa) = 47.12166 64.78439 20.25326
#
# Poissons Ratio (x) = 0.60524 0.24665
# Poissons Ratio (y) = 0.44023 0.03588
# Poissons Ratio (z) = 0.57386 0.11477
#
# Static dielectric constant tensor:
#      x y z
#    x 3.120180 0.000000 0.000000 
#    y 0.000000 3.524790 0.000000 
#    z 0.000000 0.000000 2.770520 
# 
# 
# High freq. dielectric constant tensor:
#      x y z
#    x 1.653270 0.000000 0.000000 
#    y 0.000000 1.656880 0.000000 
#    z 0.000000 0.000000 1.618850 
# 
# From -- ./inp_files/21777.got.cif
#   From: 2010.03.12/outbox.cif.g09.slc.cpg/sg69_11_cif.got.tgz:21777.got - 2010.04.10 23:52:46.
