data_PCOD8285954
_publ_section_title
;
Structure prediction by ZEFSAII (Michael W. Deem and Ramdas Pophale) SiO2 
 PCOD8285954
Probable space group: F D D D
;
_chemical_formula_sum "Si O2"
_cell_formula_units_Z 136
_cell_length_a 25.777288
_cell_length_b 23.143203
_cell_length_c 11.561198
_cell_angle_alpha 90.000000
_cell_angle_beta 90.000000
_cell_angle_gamma 90.000000
_cell_volume 6897.052433
_symmetry_space_group_name_H-M "F D D D"
_symmetry_group_IT_number 70
_space_group.IT_coordinate_system_code '2'
_symmetry_cell_setting 'orthorhombic'
loop_
_space_group_symop_operation_xyz
x,y,z
1/4-x,1/4-y,z
x,1/4-y,1/4-z
1/4-x,y,1/4-z
-x,-y,-z
3/4+x,3/4+y,-z
-x,3/4+y,3/4+z
3/4+x,-y,3/4+z
x,1/2+y,1/2+z
1/4-x,3/4-y,1/2+z
x,3/4-y,3/4-z
1/4-x,1/2+y,3/4-z
-x,1/2-y,1/2-z
3/4+x,1/4+y,1/2-z
-x,1/4+y,1/4+z
3/4+x,1/2-y,1/4+z
1/2+x,y,1/2+z
3/4-x,1/4-y,1/2+z
1/2+x,1/4-y,3/4-z
3/4-x,y,3/4-z
1/2-x,-y,1/2-z
1/4+x,3/4+y,1/2-z
1/2-x,3/4+y,1/4+z
1/4+x,-y,1/4+z
1/2+x,1/2+y,z
3/4-x,3/4-y,z
1/2+x,3/4-y,1/4-z
3/4-x,1/2+y,1/4-z
1/2-x,1/2-y,-z
1/4+x,1/4+y,-z
1/2-x,1/4+y,3/4+z
1/4+x,1/2-y,3/4+z
loop_
_atom_site_type_symbol
_atom_site_label
_atom_site_fract_x
_atom_site_fract_y
_atom_site_fract_z
Si Si1 0.921294 0.781091 0.214084
Si Si2 0.561986 0.738487 0.368545
Si Si3 0.875000 0.875000 0.375000
Si Si4 0.530242 0.792664 0.600190
Si Si5 0.760523 0.655933 0.008728
O O1 0.873518 0.768558 0.129521
O O2 0.912052 0.836656 0.294512
O O3 0.931704 0.725428 0.295814
O O4 0.970165 0.791319 0.133457
O O5 0.537589 0.747898 0.495064
O O6 0.538273 0.680374 0.313206
O O7 0.550654 0.792777 0.285766
O O8 0.542816 0.858548 0.564558
O O9 0.739046 0.625000 0.125000
#
# Coordination Sequence:
#
# PCOD8285954 Si02
#       5
#    32  32   8  32  32
#     4  11  22  36  62  89 119 156 202 248 301 358
#     4  10  19  41  60  87 120 157 200 244 305 355
#     4  12  20  36  64  84 118 160 196 260 290 360
#     4  10  21  38  57  89 121 154 199 251 297 361
#     4   9  20  38  63  83 121 159 194 251 300 359
#
# _framework density 19.718567
#
# number of rings (size 3 to 8) (size 9 to 14) (size 15 to 20)
#    0.000    1.882    2.353    1.412    0.000    0.000 
#    0.000   25.882    0.000    0.000    0.000    0.000 
#    0.000    0.000    0.000    0.000    0.000    0.000 
#
# Total GULP energy -421638.154606 kJ/mol
# GULP energy per Si atom -12401.122194 kJ/mol
# Density = 1.967369 g / cm^3
# Si number density = 19.718567 Si / 1000 Ang^3
#
#
#
# Elastic Constant Matrix: (Units=GPa)
#
#
# Indices 1 2 3 4 5 6 
#
# 1 96.6745 21.5981 17.9851 0.0001 0.0000 0.0000
# 2 21.5981 89.9097 20.9919 0.0001 0.0000 0.0000
# 3 17.9851 20.9919 44.8617 0.0002 -0.0001 0.0000
# 4 0.0001 0.0001 0.0002 32.1553 0.0000 0.0000
# 5 0.0000 0.0000 -0.0001 0.0000 31.9303 0.0000
# 6 0.0000 0.0000 0.0000 0.0000 0.0000 17.9414
#
#
#
# Elastic Compliance Matrix: (Units=1/GPa)
#
#
# Indices 1 2 3 4 5 6 
#
# 1 0.011455 -0.001886 -0.003710 0.000000 0.000000 0.000000
# 2 -0.001886 0.012797 -0.005232 0.000000 0.000000 0.000000
# 3 -0.003710 -0.005232 0.026226 0.000000 0.000000 0.000000
# 4 0.000000 0.000000 0.000000 0.031099 0.000000 0.000000
# 5 0.000000 0.000000 0.000000 0.000000 0.031318 0.000000
# 6 0.000000 0.000000 0.000000 0.000000 0.000000 0.055737
#
#
# Mechanical properties :
#
#
# Convention : Reuss Voigt Hill
#
# Bulk Modulus (GPa) = 34.69446 39.17734 36.93590
# Shear Modulus (GPa) = 25.01300 27.79680 26.40490
#
# Velocity S-wave (km/s) = 3.56546 3.75864 3.66332
# Velocity P-wave (km/s) = 5.88074 6.22478 6.05520
#
# Compressibility (1/GPa) = 0.02882305
#
# Stress axis : x y z
#
# Youngs Moduli (GPa) = 87.29435 78.14467 38.12959
#
# Poissons Ratio (x) = 0.14735 0.14147
# Poissons Ratio (y) = 0.16460 0.19949
# Poissons Ratio (z) = 0.32388 0.40885
#
# Static dielectric constant tensor:
#      x y z
#    x 3.394860 0.000000 0.000000 
#    y 0.000000 3.894490 0.000000 
#    z 0.000000 0.000000 3.780210 
# 
# 
# High freq. dielectric constant tensor:
#      x y z
#    x 1.751280 0.000000 0.000000 
#    y 0.000000 1.779840 0.000000 
#    z 0.000000 0.000000 1.775430 
# 
# From -- ./inp_files/17653.got.cif
#   From: 2010.03.12/outbox.cif.g09.slc.cpg/sg70_9_cif.got.tgz:17653.got - 2010.04.16 13:46:32.
