data_PCOD8285693
_publ_section_title
;
Structure prediction by ZEFSAII (Michael W. Deem and Ramdas Pophale) SiO2 
 PCOD8285693
Probable space group: F M M M
;
_chemical_formula_sum "Si O2"
_cell_formula_units_Z 128
_cell_length_a 18.599065
_cell_length_b 24.227379
_cell_length_c 16.507274
_cell_angle_alpha 90.000000
_cell_angle_beta 90.000000
_cell_angle_gamma 90.000000
_cell_volume 7438.286560
_symmetry_space_group_name_H-M "F M M M"
_symmetry_group_IT_number 69
_symmetry_cell_setting 'orthorhombic'
loop_
_space_group_symop_operation_xyz
x,y,z
-x,-y,z
x,-y,-z
-x,y,-z
-x,-y,-z
x,y,-z
-x,y,z
x,-y,z
x,1/2+y,1/2+z
-x,1/2-y,1/2+z
x,1/2-y,1/2-z
-x,1/2+y,1/2-z
-x,1/2-y,1/2-z
x,1/2+y,1/2-z
-x,1/2+y,1/2+z
x,1/2-y,1/2+z
1/2+x,y,1/2+z
1/2-x,-y,1/2+z
1/2+x,-y,1/2-z
1/2-x,y,1/2-z
1/2-x,-y,1/2-z
1/2+x,y,1/2-z
1/2-x,y,1/2+z
1/2+x,-y,1/2+z
1/2+x,1/2+y,z
1/2-x,1/2-y,z
1/2+x,1/2-y,-z
1/2-x,1/2+y,-z
1/2-x,1/2-y,-z
1/2+x,1/2+y,-z
1/2-x,1/2+y,z
1/2+x,1/2-y,z
loop_
_atom_site_type_symbol
_atom_site_label
_atom_site_fract_x
_atom_site_fract_y
_atom_site_fract_z
Si Si1 0.500000 0.061408 0.904667
Si Si2 0.668411 0.247810 0.846448
Si Si3 0.585205 0.937668 0.500000
Si Si4 0.420663 0.351733 0.319777
Si Si5 0.084510 0.645971 0.636801
O O1 0.571782 0.092026 0.871689
O O2 0.500000 0.000000 0.869480
O O3 0.500000 0.062080 0.000000
O O4 0.662871 0.250000 0.750000
O O5 0.750000 0.250000 0.877792
O O6 0.632567 0.188951 0.868588
O O7 0.625246 0.297680 0.888404
O O8 0.500000 0.942274 0.500000
O O9 0.611187 0.904303 0.420075
O O10 0.618033 0.000000 0.500000
O O11 0.500000 0.323069 0.312251
O O12 0.394238 0.368083 0.229500
O O13 0.000000 0.655664 0.624411
#
# Coordination Sequence:
#
# PCOD8285693 Si02
#       5
#    16  32  16  32  32
#     4   9  18  32  49  71  95 119 156 204 241 273
#     4   9  16  28  48  71  98 125 152 192 240 285
#     4   9  18  30  45  68  96 124 156 197 235 272
#     4   8  16  29  48  72  93 122 156 193 233 282
#     4   9  16  29  46  70  97 123 153 192 231 280
#
# _framework density 17.208264
#
# number of rings (size 3 to 8) (size 9 to 14) (size 15 to 20)
#    0.750    2.500    0.000    0.750    0.000    4.000 
#    2.250    0.625    0.000    1.500    0.000    7.000 
#    0.000    0.000    0.000    0.000    0.000    0.000 
#
# Total GULP energy -396474.516458 kJ/mol
# GULP energy per Si atom -12389.828639 kJ/mol
# Density = 1.716910 g / cm^3
# Si number density = 17.208264 Si / 1000 Ang^3
#
#
#
# Elastic Constant Matrix: (Units=GPa)
#
#
# Indices 1 2 3 4 5 6 
#
# 1 62.3020 54.3268 20.8744 0.0000 0.0000 0.0000
# 2 54.3268 178.3532 59.1908 0.0000 0.0000 0.0000
# 3 20.8744 59.1908 59.5749 0.0000 0.0000 0.0000
# 4 0.0000 0.0000 0.0000 28.4829 0.0000 0.0000
# 5 0.0000 0.0000 0.0000 0.0000 7.4250 0.0000
# 6 0.0000 0.0000 0.0000 0.0000 0.0000 6.7638
#
#
#
# Elastic Compliance Matrix: (Units=1/GPa)
#
#
# Indices 1 2 3 4 5 6 
#
# 1 0.021953 -0.006168 -0.001564 0.000000 0.000000 0.000000
# 2 -0.006168 0.010098 -0.007872 0.000000 0.000000 0.000000
# 3 -0.001564 -0.007872 0.025155 0.000000 0.000000 0.000000
# 4 0.000000 0.000000 0.000000 0.035109 0.000000 0.000000
# 5 0.000000 0.000000 0.000000 0.000000 0.134680 0.000000
# 6 0.000000 0.000000 0.000000 0.000000 0.000000 0.147847
#
#
# Mechanical properties :
#
#
# Convention : Reuss Voigt Hill
#
# Bulk Modulus (GPa) = 38.46376 63.22377 50.84377
# Shear Modulus (GPa) = 12.05647 19.59021 15.82334
#
# Velocity S-wave (km/s) = 2.64980 3.37771 3.03565
# Velocity P-wave (km/s) = 5.63581 7.21332 6.47280
#
# Compressibility (1/GPa) = 0.02599850
#
# Stress axis : x y z
#
# Youngs Moduli (GPa) = 45.55127 99.02893 39.75414
#
# Poissons Ratio (x) = 0.61081 0.06218
# Poissons Ratio (y) = 0.28096 0.31294
# Poissons Ratio (z) = 0.07124 0.77953
#
# Static dielectric constant tensor:
#      x y z
#    x 2.952920 0.000000 0.000000 
#    y 0.000000 3.340200 0.000000 
#    z 0.000000 0.000000 3.015860 
# 
# 
# High freq. dielectric constant tensor:
#      x y z
#    x 1.625920 0.000000 0.000000 
#    y 0.000000 1.658740 0.000000 
#    z 0.000000 0.000000 1.650470 
# 
# From -- ./inp_files/24752.got.cif
#   From: 2010.03.12/outbox.cif.g09.slc.cpg/sg69_13_cif.got.tgz:24752.got - 2010.04.10 23:52:46.
