data_PCOD8285281
_publ_section_title
;
Structure prediction by ZEFSAII (Michael W. Deem and Ramdas Pophale) SiO2 
 PCOD8285281
Probable space group: F M M M
;
_chemical_formula_sum "Si O2"
_cell_formula_units_Z 128
_cell_length_a 16.502052
_cell_length_b 17.870515
_cell_length_c 21.901105
_cell_angle_alpha 90.000000
_cell_angle_beta 90.000000
_cell_angle_gamma 90.000000
_cell_volume 6458.639539
_symmetry_space_group_name_H-M "F M M M"
_symmetry_group_IT_number 69
_symmetry_cell_setting 'orthorhombic'
loop_
_space_group_symop_operation_xyz
x,y,z
-x,-y,z
x,-y,-z
-x,y,-z
-x,-y,-z
x,y,-z
-x,y,z
x,-y,z
x,1/2+y,1/2+z
-x,1/2-y,1/2+z
x,1/2-y,1/2-z
-x,1/2+y,1/2-z
-x,1/2-y,1/2-z
x,1/2+y,1/2-z
-x,1/2+y,1/2+z
x,1/2-y,1/2+z
1/2+x,y,1/2+z
1/2-x,-y,1/2+z
1/2+x,-y,1/2-z
1/2-x,y,1/2-z
1/2-x,-y,1/2-z
1/2+x,y,1/2-z
1/2-x,y,1/2+z
1/2+x,-y,1/2+z
1/2+x,1/2+y,z
1/2-x,1/2-y,z
1/2+x,1/2-y,-z
1/2-x,1/2+y,-z
1/2-x,1/2-y,-z
1/2+x,1/2+y,-z
1/2-x,1/2+y,z
1/2+x,1/2-y,z
loop_
_atom_site_type_symbol
_atom_site_label
_atom_site_fract_x
_atom_site_fract_y
_atom_site_fract_z
Si Si1 0.094760 0.417116 0.000000
Si Si2 0.408980 0.661225 0.256334
Si Si3 0.000000 0.083148 0.071448
Si Si4 0.334942 0.161039 0.882845
Si Si5 0.152501 0.662390 0.628411
O O1 0.117852 0.372916 0.060687
O O2 0.134710 0.500000 0.000000
O O3 0.000000 0.425404 0.000000
O O4 0.500000 0.628778 0.253373
O O5 0.411329 0.750000 0.250000
O O6 0.367416 0.630217 0.317921
O O7 0.357840 0.634158 0.198031
O O8 0.081392 0.126656 0.089015
O O9 0.000000 0.000000 0.100939
O O10 0.000000 0.076026 0.000000
O O11 0.241624 0.137021 0.892452
O O12 0.351629 0.249002 0.880932
#
# Coordination Sequence:
#
# PCOD8285281 Si02
#       5
#    16  32  16  32  32
#     4  11  26  43  58  85 121 162 205 244 298 362
#     4   9  16  32  59  93 123 153 192 253 309 348
#     4  11  26  42  59  86 126 165 196 245 311 373
#     4  10  22  36  64  92 121 158 200 255 300 348
#     4  10  21  38  62  95 121 151 207 250 300 358
#
# _framework density 19.818415000000002
#
# number of rings (size 3 to 8) (size 9 to 14) (size 15 to 20)
#    0.000    2.000    1.250    1.500    7.000    5.000 
#    0.000    1.250    0.000    3.000    0.000    0.000 
#    0.000    0.000    0.000    0.000    0.000    0.000 
#
# Total GULP energy -396652.339746 kJ/mol
# GULP energy per Si atom -12395.385617 kJ/mol
# Density = 1.977331 g / cm^3
# Si number density = 19.818415 Si / 1000 Ang^3
#
#
#
# Elastic Constant Matrix: (Units=GPa)
#
#
# Indices 1 2 3 4 5 6 
#
# 1 138.5326 45.8769 43.5432 0.0000 0.0000 0.0000
# 2 45.8769 43.7759 38.9621 0.0000 0.0000 0.0000
# 3 43.5432 38.9621 139.2550 0.0000 0.0000 0.0000
# 4 0.0000 0.0000 0.0000 -5.5362 0.0000 0.0000
# 5 0.0000 0.0000 0.0000 0.0000 34.8928 0.0000
# 6 0.0000 0.0000 0.0000 0.0000 0.0000 8.6370
#
#
#
# Elastic Compliance Matrix: (Units=1/GPa)
#
#
# Indices 1 2 3 4 5 6 
#
# 1 0.011064 -0.011340 -0.000287 0.000000 0.000000 0.000000
# 2 -0.011340 0.042041 -0.008217 0.000000 0.000000 0.000000
# 3 -0.000287 -0.008217 0.009570 0.000000 0.000000 0.000000
# 4 0.000000 0.000000 0.000000 -0.180628 0.000000 0.000000
# 5 0.000000 0.000000 0.000000 0.000000 0.028659 0.000000
# 6 0.000000 0.000000 0.000000 0.000000 0.000000 0.115781
#
#
# Mechanical properties :
#
#
# Convention : Reuss Voigt Hill
#
# Bulk Modulus (GPa) = 43.50125 64.25865 53.87995
# Shear Modulus (GPa) = 67.71829 20.47748 44.09789
#
# Velocity S-wave (km/s) = 5.85180 3.21792 4.72221
# Velocity P-wave (km/s) = 8.22530 6.80446 7.54839
#
# Compressibility (1/GPa) = 0.02298785
#
# Stress axis : x y z
#
# Youngs Moduli (GPa) = 90.38358 23.78642 104.49610
#
# Poissons Ratio (x) = 0.26973 0.02997
# Poissons Ratio (y) = 1.02492 0.85862
# Poissons Ratio (z) = 0.02592 0.19545
#
# Static dielectric constant tensor:
#      x y z
#    x 3.792980 0.000000 0.000000 
#    y 0.000000 3.384540 0.000000 
#    z 0.000000 0.000000 3.766570 
# 
# 
# High freq. dielectric constant tensor:
#      x y z
#    x 1.789080 0.000000 0.000000 
#    y 0.000000 1.734110 0.000000 
#    z 0.000000 0.000000 1.786090 
# 
# From -- ./inp_files/29652.got.cif
#   From: 2010.03.12/outbox.cif.g09.slc.cpg/sg69_15_cif.got.tgz:29652.got - 2010.04.10 23:52:46.
