data_PCOD8285565
_publ_section_title
;
Structure prediction by ZEFSAII (Michael W. Deem and Ramdas Pophale) SiO2 
 PCOD8285565
Probable space group: F M M M
;
_chemical_formula_sum "Si O2"
_cell_formula_units_Z 176
_cell_length_a 23.591237
_cell_length_b 14.275867
_cell_length_c 23.799291
_cell_angle_alpha 90.000000
_cell_angle_beta 90.000000
_cell_angle_gamma 90.000000
_cell_volume 8015.252829
_symmetry_space_group_name_H-M "F M M M"
_symmetry_group_IT_number 69
_symmetry_cell_setting 'orthorhombic'
loop_
_space_group_symop_operation_xyz
x,y,z
-x,-y,z
x,-y,-z
-x,y,-z
-x,-y,-z
x,y,-z
-x,y,z
x,-y,z
x,1/2+y,1/2+z
-x,1/2-y,1/2+z
x,1/2-y,1/2-z
-x,1/2+y,1/2-z
-x,1/2-y,1/2-z
x,1/2+y,1/2-z
-x,1/2+y,1/2+z
x,1/2-y,1/2+z
1/2+x,y,1/2+z
1/2-x,-y,1/2+z
1/2+x,-y,1/2-z
1/2-x,y,1/2-z
1/2-x,-y,1/2-z
1/2+x,y,1/2-z
1/2-x,y,1/2+z
1/2+x,-y,1/2+z
1/2+x,1/2+y,z
1/2-x,1/2-y,z
1/2+x,1/2-y,-z
1/2-x,1/2+y,-z
1/2-x,1/2-y,-z
1/2+x,1/2+y,-z
1/2-x,1/2+y,z
1/2+x,1/2-y,z
loop_
_atom_site_type_symbol
_atom_site_label
_atom_site_fract_x
_atom_site_fract_y
_atom_site_fract_z
Si Si1 0.658606 0.107490 0.111617
Si Si2 0.065576 0.756317 0.902348
Si Si3 0.812879 0.359239 0.760528
Si Si4 0.776450 0.889152 0.063886
Si Si5 0.566343 0.895937 0.500000
Si Si6 0.628734 0.102753 0.651733
O O1 0.602777 0.163193 0.091353
O O2 0.665363 0.113979 0.178279
O O3 0.714209 0.150963 0.080830
O O4 0.648806 0.000000 0.093814
O O5 0.085075 0.835294 0.947011
O O6 0.079637 0.816759 0.846331
O O7 0.000000 0.726920 0.906915
O O8 0.816134 0.250000 0.750000
O O9 0.750000 0.397642 0.750000
O O10 0.851417 0.411349 0.715202
O O11 0.821636 0.855687 0.110702
O O12 0.771938 0.000000 0.067840
O O13 0.792506 0.857208 0.000000
O O14 0.500000 0.911383 0.500000
O O15 0.596059 0.000000 0.500000
O O16 0.607229 0.000000 0.630786
#
# Coordination Sequence:
#
# PCOD8285565 Si02
#       6
#    32  32  32  32  16  32
#     4  11  23  41  66  93 129 175 215 261 323 388
#     4  11  25  43  62  92 130 168 219 269 311 373
#     4  11  21  38  64  94 130 165 216 263 324 395
#     4   9  20  37  60  95 131 161 200 255 325 396
#     4   9  20  42  69  92 121 167 218 268 318 367
#     4  11  22  38  65  95 125 164 208 262 329 390
#
# _framework density 21.958134999999999
#
# number of rings (size 3 to 8) (size 9 to 14) (size 15 to 20)
#    0.000    1.545    3.636    1.091    2.545    2.909 
#    0.000    2.727    0.000    3.818    0.000    0.000 
#    0.000    0.000    0.000    0.000    0.000    0.000 
#
# Total GULP energy -545394.517289 kJ/mol
# GULP energy per Si atom -12395.329938 kJ/mol
# Density = 2.190816 g / cm^3
# Si number density = 21.958135 Si / 1000 Ang^3
#
#
#
# Elastic Constant Matrix: (Units=GPa)
#
#
# Indices 1 2 3 4 5 6 
#
# 1 87.7843 27.3254 17.0694 0.0000 0.0000 0.0000
# 2 27.3254 86.6376 -1.0691 0.0000 0.0000 0.0000
# 3 17.0694 -1.0691 109.6510 0.0000 0.0000 0.0000
# 4 0.0000 0.0000 0.0000 23.7073 0.0000 0.0000
# 5 0.0000 0.0000 0.0000 0.0000 28.2041 0.0000
# 6 0.0000 0.0000 0.0000 0.0000 0.0000 44.7403
#
#
#
# Elastic Compliance Matrix: (Units=1/GPa)
#
#
# Indices 1 2 3 4 5 6 
#
# 1 0.013089 -0.004154 -0.002078 0.000000 0.000000 0.000000
# 2 -0.004154 0.012862 0.000772 0.000000 0.000000 0.000000
# 3 -0.002078 0.000772 0.009451 0.000000 0.000000 0.000000
# 4 0.000000 0.000000 0.000000 0.042181 0.000000 0.000000
# 5 0.000000 0.000000 0.000000 0.000000 0.035456 0.000000
# 6 0.000000 0.000000 0.000000 0.000000 0.000000 0.022351
#
#
# Mechanical properties :
#
#
# Convention : Reuss Voigt Hill
#
# Bulk Modulus (GPa) = 40.84649 41.19158 41.01903
# Shear Modulus (GPa) = 32.36880 35.38014 33.87447
#
# Velocity S-wave (km/s) = 3.84358 4.01840 3.93196
# Velocity P-wave (km/s) = 6.19192 6.35058 6.27175
#
# Compressibility (1/GPa) = 0.02448191
#
# Stress axis : x y z
#
# Youngs Moduli (GPa) = 76.40236 77.74863 105.81050
#
# Poissons Ratio (x) = 0.32295 0.21987
# Poissons Ratio (y) = 0.31736 -0.08169
# Poissons Ratio (z) = 0.15876 -0.06002
#
# Static dielectric constant tensor:
#      x y z
#    x 3.808030 0.000000 0.000000 
#    y 0.000000 4.039160 0.000000 
#    z 0.000000 0.000000 4.043440 
# 
# 
# High freq. dielectric constant tensor:
#      x y z
#    x 1.842590 0.000000 0.000000 
#    y 0.000000 1.872730 0.000000 
#    z 0.000000 0.000000 1.861520 
# 
# From -- ./inp_files/17874.got.cif
#   From: 2010.03.12/outbox.cif.g09.slc.cpg/sg69_9_cif.got.tgz:17874.got - 2010.04.10 23:52:46.
