data_PCOD8285515
_publ_section_title
;
Structure prediction by ZEFSAII (Michael W. Deem and Ramdas Pophale) SiO2 
 PCOD8285515
Probable space group: F M M M
;
_chemical_formula_sum "Si O2"
_cell_formula_units_Z 192
_cell_length_a 29.446381
_cell_length_b 18.471841
_cell_length_c 17.720163
_cell_angle_alpha 90.000000
_cell_angle_beta 90.000000
_cell_angle_gamma 90.000000
_cell_volume 9638.508199
_symmetry_space_group_name_H-M "F M M M"
_symmetry_group_IT_number 69
_symmetry_cell_setting 'orthorhombic'
loop_
_space_group_symop_operation_xyz
x,y,z
-x,-y,z
x,-y,-z
-x,y,-z
-x,-y,-z
x,y,-z
-x,y,z
x,-y,z
x,1/2+y,1/2+z
-x,1/2-y,1/2+z
x,1/2-y,1/2-z
-x,1/2+y,1/2-z
-x,1/2-y,1/2-z
x,1/2+y,1/2-z
-x,1/2+y,1/2+z
x,1/2-y,1/2+z
1/2+x,y,1/2+z
1/2-x,-y,1/2+z
1/2+x,-y,1/2-z
1/2-x,y,1/2-z
1/2-x,-y,1/2-z
1/2+x,y,1/2-z
1/2-x,y,1/2+z
1/2+x,-y,1/2+z
1/2+x,1/2+y,z
1/2-x,1/2-y,z
1/2+x,1/2-y,-z
1/2-x,1/2+y,-z
1/2-x,1/2-y,-z
1/2+x,1/2+y,-z
1/2-x,1/2+y,z
1/2+x,1/2-y,z
loop_
_atom_site_type_symbol
_atom_site_label
_atom_site_fract_x
_atom_site_fract_y
_atom_site_fract_z
Si Si1 0.500000 0.795813 0.913213
Si Si2 0.321115 0.718468 0.331451
Si Si3 0.237575 0.419760 0.836495
Si Si4 0.322473 0.859128 0.587646
Si Si5 0.590100 0.917094 0.329549
Si Si6 0.577444 0.185618 0.197435
Si Si7 0.500000 0.875861 0.585985
O O1 0.544182 0.828544 0.872506
O O2 0.500000 0.709847 0.905814
O O3 0.500000 0.821026 0.000000
O O4 0.305432 0.750000 0.250000
O O5 0.298731 0.642453 0.354724
O O6 0.306543 0.777360 0.393843
O O7 0.374746 0.709254 0.336214
O O8 0.216983 0.500000 0.852469
O O9 0.250000 0.411723 0.750000
O O10 0.282643 0.412856 0.887066
O O11 0.332433 0.869719 0.500000
O O12 0.368779 0.873702 0.632686
O O13 0.582088 0.887510 0.245472
O O14 0.544490 0.909401 0.376976
O O15 0.604645 0.000000 0.323306
O O16 0.557559 0.250000 0.250000
O O17 0.500000 0.900770 0.500000
#
# Coordination Sequence:
#
# PCOD8285515 Si02
#       7
#    16  32  32  32  32  32  16
#     4  11  22  38  67  97 127 167 213 266 315 362
#     4  11  21  40  65  90 124 165 214 267 309 370
#     4  11  23  39  63  91 124 169 216 260 318 382
#     4  12  25  41  64  95 128 166 210 264 326 382
#     4  12  24  39  62  92 128 169 206 255 320 385
#     4  11  20  40  65  91 124 163 214 259 303 371
#     4  11  22  36  56  88 127 168 207 245 310 384
#
# _framework density 19.920095
#
# number of rings (size 3 to 8) (size 9 to 14) (size 15 to 20)
#    0.000    0.667    6.667    2.500    0.000    8.000 
#    0.000    0.000    0.000    1.000    0.000    2.333 
#    0.000    0.000    0.000    0.000    0.000    0.000 
#
# Total GULP energy -595392.030741 kJ/mol
# GULP energy per Si atom -12404.000640 kJ/mol
# Density = 1.987476 g / cm^3
# Si number density = 19.920095 Si / 1000 Ang^3
#
#
#
# Elastic Constant Matrix: (Units=GPa)
#
#
# Indices 1 2 3 4 5 6 
#
# 1 90.5723 34.7856 41.1822 0.0000 0.0000 0.0000
# 2 34.7856 132.1536 39.2273 0.0000 0.0000 0.0000
# 3 41.1822 39.2273 113.5387 0.0000 0.0000 0.0000
# 4 0.0000 0.0000 0.0000 778.7194 0.0000 0.0000
# 5 0.0000 0.0000 0.0000 0.0000 327.3446 0.0000
# 6 0.0000 0.0000 0.0000 0.0000 0.0000 28.8081
#
#
#
# Elastic Compliance Matrix: (Units=1/GPa)
#
#
# Indices 1 2 3 4 5 6 
#
# 1 0.013875 -0.002405 -0.004202 0.000000 0.000000 0.000000
# 2 -0.002405 0.008849 -0.002185 0.000000 0.000000 0.000000
# 3 -0.004202 -0.002185 0.011086 0.000000 0.000000 0.000000
# 4 0.000000 0.000000 0.000000 0.001284 0.000000 0.000000
# 5 0.000000 0.000000 0.000000 0.000000 0.003055 0.000000
# 6 0.000000 0.000000 0.000000 0.000000 0.000000 0.034713
#
#
# Mechanical properties :
#
#
# Convention : Reuss Voigt Hill
#
# Bulk Modulus (GPa) = 61.62610 62.96164 62.29387
# Shear Modulus (GPa) = 52.16280 241.71238 146.93759
#
# Velocity S-wave (km/s) = 5.12278 11.02744 8.59789
# Velocity P-wave (km/s) = 8.12369 13.92174 11.39757
#
# Compressibility (1/GPa) = 0.01622689
#
# Stress axis : x y z
#
# Youngs Moduli (GPa) = 72.07168 113.01333 90.20007
#
# Poissons Ratio (x) = 0.27180 0.37900
# Poissons Ratio (y) = 0.17333 0.19707
# Poissons Ratio (z) = 0.30283 0.24691
#
# Static dielectric constant tensor:
#      x y z
#    x 3.618100 0.000000 0.000000 
#    y 0.000000 3.740520 0.000000 
#    z 0.000000 0.000000 3.567240 
# 
# 
# High freq. dielectric constant tensor:
#      x y z
#    x 1.785630 0.000000 0.000000 
#    y 0.000000 1.776200 0.000000 
#    z 0.000000 0.000000 1.760420 
# 
# From -- ./inp_files/27790.got.cif
#   From: 2010.03.12/outbox.cif.g09.slc.cpg/sg69_14_cif.got.tgz:27790.got - 2010.04.10 23:52:46.
