data_PCOD8285863
_publ_section_title
;
Structure prediction by ZEFSAII (Michael W. Deem and Ramdas Pophale) SiO2 
 PCOD8285863
Probable space group: F D D D
;
_chemical_formula_sum "Si O2"
_cell_formula_units_Z 160
_cell_length_a 11.653798
_cell_length_b 28.726352
_cell_length_c 22.198755
_cell_angle_alpha 90.000000
_cell_angle_beta 90.000000
_cell_angle_gamma 90.000000
_cell_volume 7431.501707
_symmetry_space_group_name_H-M "F D D D"
_symmetry_group_IT_number 70
_space_group.IT_coordinate_system_code '2'
_symmetry_cell_setting 'orthorhombic'
loop_
_space_group_symop_operation_xyz
x,y,z
1/4-x,1/4-y,z
x,1/4-y,1/4-z
1/4-x,y,1/4-z
-x,-y,-z
3/4+x,3/4+y,-z
-x,3/4+y,3/4+z
3/4+x,-y,3/4+z
x,1/2+y,1/2+z
1/4-x,3/4-y,1/2+z
x,3/4-y,3/4-z
1/4-x,1/2+y,3/4-z
-x,1/2-y,1/2-z
3/4+x,1/4+y,1/2-z
-x,1/4+y,1/4+z
3/4+x,1/2-y,1/4+z
1/2+x,y,1/2+z
3/4-x,1/4-y,1/2+z
1/2+x,1/4-y,3/4-z
3/4-x,y,3/4-z
1/2-x,-y,1/2-z
1/4+x,3/4+y,1/2-z
1/2-x,3/4+y,1/4+z
1/4+x,-y,1/4+z
1/2+x,1/2+y,z
3/4-x,3/4-y,z
1/2+x,3/4-y,1/4-z
3/4-x,1/2+y,1/4-z
1/2-x,1/2-y,-z
1/4+x,1/4+y,-z
1/2-x,1/4+y,3/4+z
1/4+x,1/2-y,3/4+z
loop_
_atom_site_type_symbol
_atom_site_label
_atom_site_fract_x
_atom_site_fract_y
_atom_site_fract_z
Si Si1 0.523260 0.544685 0.244025
Si Si2 0.046394 0.346064 0.744780
Si Si3 0.875000 0.979597 0.875000
Si Si4 0.313809 0.941395 0.011089
Si Si5 0.300239 0.307591 0.100474
Si Si6 0.625000 0.880467 0.125000
O O1 0.414022 0.576651 0.228397
O O2 0.594334 0.551407 0.182755
O O3 0.488222 0.491044 0.255419
O O4 0.594997 0.560032 0.302888
O O5 0.056440 0.338106 0.672378
O O6 0.024825 0.400850 0.759830
O O7 0.938462 0.316088 0.770032
O O8 0.768066 0.009197 0.849568
O O9 0.342069 0.934542 0.081538
O O10 0.211034 0.348706 0.084509
#
# Coordination Sequence:
#
# PCOD8285863 Si02
#       6
#    32  32  16  32  32  16
#     4  11  20  34  59  83 112 158 195 230 291 347
#     4  10  19  33  56  83 114 146 182 242 291 334
#     4   9  20  34  50  80 118 154 194 233 278 351
#     4   9  20  36  54  86 117 140 189 242 290 350
#     4   9  18  34  57  81 113 147 182 243 293 329
#     4   9  18  34  56  87 110 132 184 239 296 340
#
# _framework density 21.529968
#
# number of rings (size 3 to 8) (size 9 to 14) (size 15 to 20)
#    0.000    2.400    0.000    3.600    0.000    2.400 
#    0.000    0.000    0.000   19.200    0.000   16.800 
#    0.000    0.000    0.000    0.000    0.000    0.000 
#
# Total GULP energy -495574.640630 kJ/mol
# GULP energy per Si atom -12389.366016 kJ/mol
# Density = 2.148097 g / cm^3
# Si number density = 21.529968 Si / 1000 Ang^3
#
#
#
# Elastic Constant Matrix: (Units=GPa)
#
#
# Indices 1 2 3 4 5 6 
#
# 1 125.5187 41.6575 15.0103 0.0000 0.0000 0.0000
# 2 41.6575 79.5743 16.0713 0.0000 0.0000 0.0000
# 3 15.0103 16.0713 46.8527 0.0000 0.0000 0.0000
# 4 0.0000 0.0000 0.0000 18.0854 0.0000 0.0000
# 5 0.0000 0.0000 0.0000 0.0000 24.4194 0.0000
# 6 0.0000 0.0000 0.0000 0.0000 0.0000 37.3635
#
#
#
# Elastic Compliance Matrix: (Units=1/GPa)
#
#
# Indices 1 2 3 4 5 6 
#
# 1 0.009736 -0.004799 -0.001473 0.000000 0.000000 0.000000
# 2 -0.004799 0.015868 -0.003905 0.000000 0.000000 0.000000
# 3 -0.001473 -0.003905 0.023155 0.000000 0.000000 0.000000
# 4 0.000000 0.000000 0.000000 0.055293 0.000000 0.000000
# 5 0.000000 0.000000 0.000000 0.000000 0.040951 0.000000
# 6 0.000000 0.000000 0.000000 0.000000 0.000000 0.026764
#
#
# Mechanical properties :
#
#
# Convention : Reuss Voigt Hill
#
# Bulk Modulus (GPa) = 35.20670 44.15822 39.68246
# Shear Modulus (GPa) = 24.80278 27.92078 26.36178
#
# Velocity S-wave (km/s) = 3.39781 3.60506 3.50297
# Velocity P-wave (km/s) = 5.63750 6.15494 5.90189
#
# Compressibility (1/GPa) = 0.02840369
#
# Stress axis : x y z
#
# Youngs Moduli (GPa) = 102.71278 63.01955 43.18728
#
# Poissons Ratio (x) = 0.30245 0.06361
# Poissons Ratio (y) = 0.49295 0.16867
# Poissons Ratio (z) = 0.15128 0.24612
#
# Static dielectric constant tensor:
#      x y z
#    x 4.116440 0.000000 0.000000 
#    y 0.000000 3.774530 0.000000 
#    z 0.000000 0.000000 3.498680 
# 
# 
# High freq. dielectric constant tensor:
#      x y z
#    x 1.866870 0.000000 0.000000 
#    y 0.000000 1.832330 0.000000 
#    z 0.000000 0.000000 1.801890 
# 
# From -- ./inp_files/57570.got.cif
#   From: 2010.03.12/outbox.cif.g09.slc.cpg/sg70_29_cif.got.tgz:57570.got - 2010.04.16 13:46:32.
