data_PCOD8285041
_publ_section_title
;
Structure prediction by ZEFSAII (Michael W. Deem and Ramdas Pophale) SiO2 
 PCOD8285041
Probable space group: F M M M
;
_chemical_formula_sum "Si O2"
_cell_formula_units_Z 104
_cell_length_a 15.941685
_cell_length_b 17.327162
_cell_length_c 19.880434
_cell_angle_alpha 90.000000
_cell_angle_beta 90.000000
_cell_angle_gamma 90.000000
_cell_volume 5491.456153
_symmetry_space_group_name_H-M "F M M M"
_symmetry_group_IT_number 69
_symmetry_cell_setting 'orthorhombic'
loop_
_space_group_symop_operation_xyz
x,y,z
-x,-y,z
x,-y,-z
-x,y,-z
-x,-y,-z
x,y,-z
-x,y,z
x,-y,z
x,1/2+y,1/2+z
-x,1/2-y,1/2+z
x,1/2-y,1/2-z
-x,1/2+y,1/2-z
-x,1/2-y,1/2-z
x,1/2+y,1/2-z
-x,1/2+y,1/2+z
x,1/2-y,1/2+z
1/2+x,y,1/2+z
1/2-x,-y,1/2+z
1/2+x,-y,1/2-z
1/2-x,y,1/2-z
1/2-x,-y,1/2-z
1/2+x,y,1/2-z
1/2-x,y,1/2+z
1/2+x,-y,1/2+z
1/2+x,1/2+y,z
1/2-x,1/2-y,z
1/2+x,1/2-y,-z
1/2-x,1/2+y,-z
1/2-x,1/2-y,-z
1/2+x,1/2+y,-z
1/2-x,1/2+y,z
1/2+x,1/2-y,z
loop_
_atom_site_type_symbol
_atom_site_label
_atom_site_fract_x
_atom_site_fract_y
_atom_site_fract_z
Si Si1 0.500000 0.908170 0.420517
Si Si2 0.845469 0.314115 0.630239
Si Si3 0.750000 0.750000 0.250000
Si Si4 0.595018 0.000000 0.919899
Si Si5 0.170091 0.344620 0.076419
O O1 0.500000 0.885073 0.500000
O O2 0.580081 0.874614 0.380688
O O3 0.500000 0.000000 0.412686
O O4 0.808303 0.307953 0.705948
O O5 0.875625 0.227517 0.612047
O O6 0.770613 0.339509 0.580743
O O7 0.639523 0.075865 0.889376
O O8 0.500000 0.000000 0.895495
O O9 0.603843 0.000000 0.000000
O O10 0.140623 0.343159 0.000000
#
# Coordination Sequence:
#
# PCOD8285041 Si02
#       5
#    16  32   8  16  32
#     4  11  24  37  58  93 125 148 184 236 294 351
#     4  10  20  37  60  80 111 154 192 238 281 343
#     4   8  20  42  64  80 104 154 210 242 278 326
#     4   9  18  28  46  78 115 145 183 238 289 340
#     4   9  17  31  53  79 110 149 190 236 295 345
#
# _framework density 18.938510999999998
#
# number of rings (size 3 to 8) (size 9 to 14) (size 15 to 20)
#    0.000    2.769    0.000    3.692    4.308    0.615 
#    0.000    0.769    3.385    0.000    0.000    0.000 
#    0.000    0.000    0.000    0.000    0.000    0.000 
#
# Total GULP energy -322216.810296 kJ/mol
# GULP energy per Si atom -12392.954242 kJ/mol
# Density = 1.889541 g / cm^3
# Si number density = 18.938511 Si / 1000 Ang^3
#
#
#
# Elastic Constant Matrix: (Units=GPa)
#
#
# Indices 1 2 3 4 5 6 
#
# 1 93.3616 66.0207 29.1990 0.0000 0.0000 0.0000
# 2 66.0207 169.0583 36.9453 0.0000 0.0000 0.0000
# 3 29.1990 36.9453 90.3208 0.0000 0.0000 0.0000
# 4 0.0000 0.0000 0.0000 -0.5981 0.0000 0.0000
# 5 0.0000 0.0000 0.0000 0.0000 -8.7574 0.0000
# 6 0.0000 0.0000 0.0000 0.0000 0.0000 34.0520
#
#
#
# Elastic Compliance Matrix: (Units=1/GPa)
#
#
# Indices 1 2 3 4 5 6 
#
# 1 0.015402 -0.005410 -0.002766 0.000000 0.000000 0.000000
# 2 -0.005410 0.008396 -0.001685 0.000000 0.000000 0.000000
# 3 -0.002766 -0.001685 0.012655 0.000000 0.000000 0.000000
# 4 0.000000 0.000000 0.000000 -1.671913 0.000000 0.000000
# 5 0.000000 0.000000 0.000000 0.000000 -0.114189 0.000000
# 6 0.000000 0.000000 0.000000 0.000000 0.000000 0.029367
#
#
# Mechanical properties :
#
#
# Convention : Reuss Voigt Hill
#
# Bulk Modulus (GPa) = 59.77310 68.56339 64.16825
# Shear Modulus (GPa) = -2.94989 19.64434 8.34723
#
# Velocity S-wave (km/s) = -1.24940 3.22416 2.10169
# Velocity P-wave (km/s) = 5.43589 7.08110 6.31233
#
# Compressibility (1/GPa) = 0.01672993
#
# Stress axis : x y z
#
# Youngs Moduli (GPa) = 64.92645 119.10041 79.01831
#
# Poissons Ratio (x) = 0.64437 0.21857
# Poissons Ratio (y) = 0.35127 0.13318
# Poissons Ratio (z) = 0.17959 0.20073
#
# Static dielectric constant tensor:
#      x y z
#    x 3.333200 0.000000 0.000000 
#    y 0.000000 3.718150 0.000000 
#    z 0.000000 0.000000 3.226850 
# 
# 
# High freq. dielectric constant tensor:
#      x y z
#    x 1.726110 0.000000 0.000000 
#    y 0.000000 1.745130 0.000000 
#    z 0.000000 0.000000 1.705570 
# 
# From -- ./inp_files/29511.got.cif
#   From: 2010.03.12/outbox.cif.g09.slc.cpg/sg69_15_cif.got.tgz:29511.got - 2010.04.10 23:52:46.
