data_PCOD8285946
_publ_section_title
;
Structure prediction by ZEFSAII (Michael W. Deem and Ramdas Pophale) SiO2 
 PCOD8285946
Probable space group: F D D D
;
_chemical_formula_sum "Si O2"
_cell_formula_units_Z 240
_cell_length_a 17.018993
_cell_length_b 26.445067
_cell_length_c 27.553937
_cell_angle_alpha 90.000000
_cell_angle_beta 90.000000
_cell_angle_gamma 90.000000
_cell_volume 12401.156619
_symmetry_space_group_name_H-M "F D D D"
_symmetry_group_IT_number 70
_space_group.IT_coordinate_system_code '2'
_symmetry_cell_setting 'orthorhombic'
loop_
_space_group_symop_operation_xyz
x,y,z
1/4-x,1/4-y,z
x,1/4-y,1/4-z
1/4-x,y,1/4-z
-x,-y,-z
3/4+x,3/4+y,-z
-x,3/4+y,3/4+z
3/4+x,-y,3/4+z
x,1/2+y,1/2+z
1/4-x,3/4-y,1/2+z
x,3/4-y,3/4-z
1/4-x,1/2+y,3/4-z
-x,1/2-y,1/2-z
3/4+x,1/4+y,1/2-z
-x,1/4+y,1/4+z
3/4+x,1/2-y,1/4+z
1/2+x,y,1/2+z
3/4-x,1/4-y,1/2+z
1/2+x,1/4-y,3/4-z
3/4-x,y,3/4-z
1/2-x,-y,1/2-z
1/4+x,3/4+y,1/2-z
1/2-x,3/4+y,1/4+z
1/4+x,-y,1/4+z
1/2+x,1/2+y,z
3/4-x,3/4-y,z
1/2+x,3/4-y,1/4-z
3/4-x,1/2+y,1/4-z
1/2-x,1/2-y,-z
1/4+x,1/4+y,-z
1/2-x,1/4+y,3/4+z
1/4+x,1/2-y,3/4+z
loop_
_atom_site_type_symbol
_atom_site_label
_atom_site_fract_x
_atom_site_fract_y
_atom_site_fract_z
Si Si1 0.952362 0.198185 0.746076
Si Si2 0.779452 0.665414 0.269156
Si Si3 0.581710 0.031727 0.839893
Si Si4 0.236013 0.668120 0.663033
Si Si5 0.790979 0.356693 0.076794
Si Si6 0.909814 0.068574 0.609520
Si Si7 0.625000 0.247151 0.625000
Si Si8 0.745255 0.926121 0.659949
O O1 0.861216 0.196363 0.763188
O O2 0.959211 0.186611 0.689424
O O3 0.000000 0.250000 0.750000
O O4 0.993463 0.155510 0.778407
O O5 0.720580 0.704944 0.293656
O O6 0.744306 0.646971 0.217576
O O7 0.784530 0.614491 0.300718
O O8 0.550115 0.058261 0.888555
O O9 0.669516 0.050843 0.827353
O O10 0.568908 0.972005 0.848881
O O11 0.210198 0.625000 0.625000
O O12 0.318258 0.692248 0.647797
O O13 0.173079 0.712873 0.662663
O O14 0.875000 0.375000 0.058422
O O15 0.747056 0.400583 0.106765
O O16 0.927924 0.125000 0.625000
O O17 0.568279 0.279703 0.659184
#
# Coordination Sequence:
#
# PCOD8285946 Si02
#       8
#    32  32  32  32  32  32  16  32
#     4  11  21  39  64  87 120 165 207 247 310 371
#     4  10  23  41  64  91 120 162 211 252 307 373
#     4  10  19  40  63  88 121 164 202 257 311 364
#     4  10  23  42  60  82 124 167 197 242 310 374
#     4   9  19  36  64  87 119 158 198 254 305 362
#     4  10  21  42  60  82 123 166 203 248 309 368
#     4  12  21  36  62  94 122 154 203 256 300 378
#     4  10  21  38  63  92 126 154 207 266 311 358
#
# _framework density 19.353034999999998
#
# number of rings (size 3 to 8) (size 9 to 14) (size 15 to 20)
#    0.000    1.867    2.667    2.200    0.000    3.733 
#   12.000    1.333    0.000    0.000    0.000    0.000 
#    0.000    0.000    0.000    0.000    0.000    0.000 
#
# Total GULP energy -743771.806014 kJ/mol
# GULP energy per Si atom -12396.196767 kJ/mol
# Density = 1.930899 g / cm^3
# Si number density = 19.353035 Si / 1000 Ang^3
#
#
#
# Elastic Constant Matrix: (Units=GPa)
#
#
# Indices 1 2 3 4 5 6 
#
# 1 106.4932 65.8596 64.5995 0.0000 0.0000 0.0000
# 2 65.8596 118.7800 57.6830 0.0000 0.0000 0.0000
# 3 64.5995 57.6830 118.3815 0.0000 0.0000 0.0000
# 4 0.0000 0.0000 0.0000 23.2011 0.0000 0.0000
# 5 0.0000 0.0000 0.0000 0.0000 31.6796 0.0000
# 6 0.0000 0.0000 0.0000 0.0000 0.0000 39.0040
#
#
#
# Elastic Compliance Matrix: (Units=1/GPa)
#
#
# Indices 1 2 3 4 5 6 
#
# 1 0.017181 -0.006515 -0.006201 0.000000 0.000000 0.000000
# 2 -0.006515 0.013499 -0.003022 0.000000 0.000000 0.000000
# 3 -0.006201 -0.003022 0.013304 0.000000 0.000000 0.000000
# 4 0.000000 0.000000 0.000000 0.043101 0.000000 0.000000
# 5 0.000000 0.000000 0.000000 0.000000 0.031566 0.000000
# 6 0.000000 0.000000 0.000000 0.000000 0.000000 0.025638
#
#
# Mechanical properties :
#
#
# Convention : Reuss Voigt Hill
#
# Bulk Modulus (GPa) = 79.95476 79.99321 79.97398
# Shear Modulus (GPa) = 27.78780 29.14446 28.46613
#
# Velocity S-wave (km/s) = 3.79335 3.88485 3.83938
# Velocity P-wave (km/s) = 7.78393 7.84514 7.81459
#
# Compressibility (1/GPa) = 0.01250707
#
# Stress axis : x y z
#
# Youngs Moduli (GPa) = 58.20427 74.07958 75.16647
#
# Poissons Ratio (x) = 0.48262 0.46610
# Poissons Ratio (y) = 0.37919 0.22719
# Poissons Ratio (z) = 0.36092 0.22390
#
# Static dielectric constant tensor:
#      x y z
#    x 3.623350 0.000000 0.000000 
#    y 0.000000 3.537110 0.000000 
#    z 0.000000 0.000000 3.625140 
# 
# 
# High freq. dielectric constant tensor:
#      x y z
#    x 1.758350 0.000000 0.000000 
#    y 0.000000 1.753500 0.000000 
#    z 0.000000 0.000000 1.747710 
# 
# From -- ./inp_files/59824.got.cif
#   From: 2010.03.12/outbox.cif.g09.slc.cpg/sg70_30_cif.got.tgz:59824.got - 2010.04.16 13:46:32.
