data_PCOD8285834
_publ_section_title
;
Structure prediction by ZEFSAII (Michael W. Deem and Ramdas Pophale) SiO2 
 PCOD8285834
Probable space group: F D D D
;
_chemical_formula_sum "Si O2"
_cell_formula_units_Z 192
_cell_length_a 21.007095
_cell_length_b 18.671209
_cell_length_c 24.232412
_cell_angle_alpha 90.000000
_cell_angle_beta 90.000000
_cell_angle_gamma 90.000000
_cell_volume 9504.627131
_symmetry_space_group_name_H-M "F D D D"
_symmetry_group_IT_number 70
_space_group.IT_coordinate_system_code '2'
_symmetry_cell_setting 'orthorhombic'
loop_
_space_group_symop_operation_xyz
x,y,z
1/4-x,1/4-y,z
x,1/4-y,1/4-z
1/4-x,y,1/4-z
-x,-y,-z
3/4+x,3/4+y,-z
-x,3/4+y,3/4+z
3/4+x,-y,3/4+z
x,1/2+y,1/2+z
1/4-x,3/4-y,1/2+z
x,3/4-y,3/4-z
1/4-x,1/2+y,3/4-z
-x,1/2-y,1/2-z
3/4+x,1/4+y,1/2-z
-x,1/4+y,1/4+z
3/4+x,1/2-y,1/4+z
1/2+x,y,1/2+z
3/4-x,1/4-y,1/2+z
1/2+x,1/4-y,3/4-z
3/4-x,y,3/4-z
1/2-x,-y,1/2-z
1/4+x,3/4+y,1/2-z
1/2-x,3/4+y,1/4+z
1/4+x,-y,1/4+z
1/2+x,1/2+y,z
3/4-x,3/4-y,z
1/2+x,3/4-y,1/4-z
3/4-x,1/2+y,1/4-z
1/2-x,1/2-y,-z
1/4+x,1/4+y,-z
1/2-x,1/4+y,3/4+z
1/4+x,1/2-y,3/4+z
loop_
_atom_site_type_symbol
_atom_site_label
_atom_site_fract_x
_atom_site_fract_y
_atom_site_fract_z
Si Si1 0.802142 0.125000 0.125000
Si Si2 0.349269 0.276028 0.637026
Si Si3 0.875000 0.375000 0.043536
Si Si4 0.620995 0.429233 0.061688
Si Si5 0.420035 0.314354 0.747525
Si Si6 0.486700 0.171957 0.455138
Si Si7 0.499323 0.170039 0.009503
O O1 0.847514 0.192982 0.122712
O O2 0.761125 0.115136 0.069482
O O3 0.378500 0.305727 0.581486
O O4 0.395865 0.291005 0.687384
O O5 0.280640 0.312045 0.651320
O O6 0.940014 0.375559 0.009257
O O7 0.625000 0.452780 0.125000
O O8 0.583734 0.353293 0.061226
O O9 0.579723 0.493624 0.034716
O O10 0.688138 0.414728 0.030966
O O11 0.375000 0.375000 0.774168
O O12 0.487495 0.354601 0.741485
O O13 0.483591 0.245791 0.488979
#
# Coordination Sequence:
#
# PCOD8285834 Si02
#       7
#    16  32  16  32  32  32  32
#     4  10  22  45  68  94 136 175 224 278 324 394
#     4  10  20  41  72  90 131 181 219 266 331 404
#     4  12  24  41  70  96 127 178 232 274 338 390
#     4  12  24  40  67 100 136 169 221 280 336 390
#     4  10  18  41  67  91 132 175 214 259 333 403
#     4  10  21  44  65  94 132 176 215 268 337 403
#     4  11  26  45  65 100 133 172 230 278 330 397
#
# _framework density 20.200686999999999
#
# number of rings (size 3 to 8) (size 9 to 14) (size 15 to 20)
#    0.000    1.333    7.500    1.500    2.333    1.333 
#    6.000    0.000    0.000    0.000    0.000    0.000 
#    0.000    0.000    0.000    0.000    0.000    0.000 
#
# Total GULP energy -594714.454604 kJ/mol
# GULP energy per Si atom -12389.884471 kJ/mol
# Density = 2.015471 g / cm^3
# Si number density = 20.200687 Si / 1000 Ang^3
#
#
#
# Elastic Constant Matrix: (Units=GPa)
#
#
# Indices 1 2 3 4 5 6 
#
# 1 48.3072 30.9419 23.3736 0.0000 0.0000 0.0000
# 2 30.9419 109.1058 29.7898 0.0000 0.0000 0.0000
# 3 23.3736 29.7898 114.6200 0.0000 0.0000 0.0000
# 4 0.0000 0.0000 0.0000 31.9980 0.0000 0.0000
# 5 0.0000 0.0000 0.0000 0.0000 19.4311 0.0000
# 6 0.0000 0.0000 0.0000 0.0000 0.0000 18.6149
#
#
#
# Elastic Compliance Matrix: (Units=1/GPa)
#
#
# Indices 1 2 3 4 5 6 
#
# 1 0.026709 -0.006552 -0.003744 0.000000 0.000000 0.000000
# 2 -0.006552 0.011473 -0.001646 0.000000 0.000000 0.000000
# 3 -0.003744 -0.001646 0.009916 0.000000 0.000000 0.000000
# 4 0.000000 0.000000 0.000000 0.031252 0.000000 0.000000
# 5 0.000000 0.000000 0.000000 0.000000 0.051464 0.000000
# 6 0.000000 0.000000 0.000000 0.000000 0.000000 0.053720
#
#
# Mechanical properties :
#
#
# Convention : Reuss Voigt Hill
#
# Bulk Modulus (GPa) = 41.29785 48.91597 45.10691
# Shear Modulus (GPa) = 23.09585 26.53730 24.81657
#
# Velocity S-wave (km/s) = 3.38497 3.62841 3.50880
# Velocity P-wave (km/s) = 5.98043 6.46694 6.22844
#
# Compressibility (1/GPa) = 0.02421434
#
# Stress axis : x y z
#
# Youngs Moduli (GPa) = 37.44025 87.16131 100.85125
#
# Poissons Ratio (x) = 0.57112 0.37755
# Poissons Ratio (y) = 0.24533 0.16597
# Poissons Ratio (z) = 0.14016 0.14344
#
# Static dielectric constant tensor:
#      x y z
#    x 3.553530 0.000000 0.000000 
#    y 0.000000 3.571750 0.000000 
#    z 0.000000 0.000000 3.589010 
# 
# 
# High freq. dielectric constant tensor:
#      x y z
#    x 1.779960 0.000000 0.000000 
#    y 0.000000 1.802780 0.000000 
#    z 0.000000 0.000000 1.777670 
# 
# From -- ./inp_files/53029.got.cif
#   From: 2010.03.12/outbox.cif.g09.slc.cpg/sg70_27_cif.got.tgz:53029.got - 2010.04.16 13:46:32.
