data_PCOD8285662
_publ_section_title
;
Structure prediction by ZEFSAII (Michael W. Deem and Ramdas Pophale) SiO2 
 PCOD8285662
Probable space group: F M M M
;
_chemical_formula_sum "Si O2"
_cell_formula_units_Z 112
_cell_length_a 14.867107
_cell_length_b 25.533260
_cell_length_c 12.476843
_cell_angle_alpha 90.000000
_cell_angle_beta 90.000000
_cell_angle_gamma 90.000000
_cell_volume 4736.280827
_symmetry_space_group_name_H-M "F M M M"
_symmetry_group_IT_number 69
_symmetry_cell_setting 'orthorhombic'
loop_
_space_group_symop_operation_xyz
x,y,z
-x,-y,z
x,-y,-z
-x,y,-z
-x,-y,-z
x,y,-z
-x,y,z
x,-y,z
x,1/2+y,1/2+z
-x,1/2-y,1/2+z
x,1/2-y,1/2-z
-x,1/2+y,1/2-z
-x,1/2-y,1/2-z
x,1/2+y,1/2-z
-x,1/2+y,1/2+z
x,1/2-y,1/2+z
1/2+x,y,1/2+z
1/2-x,-y,1/2+z
1/2+x,-y,1/2-z
1/2-x,y,1/2-z
1/2-x,-y,1/2-z
1/2+x,y,1/2-z
1/2-x,y,1/2+z
1/2+x,-y,1/2+z
1/2+x,1/2+y,z
1/2-x,1/2-y,z
1/2+x,1/2-y,-z
1/2-x,1/2+y,-z
1/2-x,1/2-y,-z
1/2+x,1/2+y,-z
1/2-x,1/2+y,z
1/2+x,1/2-y,z
loop_
_atom_site_type_symbol
_atom_site_label
_atom_site_fract_x
_atom_site_fract_y
_atom_site_fract_z
Si Si1 0.894614 0.390234 0.000000
Si Si2 0.896915 0.000000 0.118375
Si Si3 0.149009 0.094452 0.726874
Si Si4 0.900227 0.301959 0.689332
Si Si5 0.768920 0.689762 0.500000
O O1 0.870871 0.425358 0.894696
O O2 0.826073 0.340428 0.000000
O O3 0.000000 0.373349 0.000000
O O4 0.874578 0.051077 0.186153
O O5 0.000000 0.000000 0.093031
O O6 0.848368 0.000000 0.000000
O O7 0.250000 0.110426 0.750000
O O8 0.090879 0.148019 0.732513
O O9 0.864000 0.250000 0.750000
O O10 0.829978 0.322819 0.602201
O O11 0.000000 0.289565 0.642114
O O12 0.750000 0.750000 0.500000
#
# Coordination Sequence:
#
# PCOD8285662 Si02
#       5
#    16  16  32  32  16
#     4  12  26  46  74 107 149 199 254 309 373 453
#     4  11  27  49  77 111 147 191 251 318 380 449
#     4  12  26  48  74 107 151 196 251 310 378 447
#     4  11  25  45  71 106 147 195 251 308 375 450
#     4  12  25  41  69 102 147 194 252 313 372 436
#
# _framework density 23.647245000000002
#
# number of rings (size 3 to 8) (size 9 to 14) (size 15 to 20)
#    0.000    0.429    2.857    5.143    4.000    4.000 
#    0.000    1.429    0.000    0.857    0.000    0.000 
#    0.000    0.000    0.000    0.000    0.000    0.000 
#
# Total GULP energy -347003.359978 kJ/mol
# GULP energy per Si atom -12392.977142 kJ/mol
# Density = 2.359342 g / cm^3
# Si number density = 23.647245 Si / 1000 Ang^3
#
#
#
# Elastic Constant Matrix: (Units=GPa)
#
#
# Indices 1 2 3 4 5 6 
#
# 1 154.5397 17.7030 55.3275 0.0000 0.0000 0.0000
# 2 17.7030 150.6250 69.1565 0.0000 0.0000 0.0000
# 3 55.3275 69.1565 204.9125 0.0000 0.0000 0.0000
# 4 0.0000 0.0000 0.0000 38.4609 0.0000 0.0000
# 5 0.0000 0.0000 0.0000 0.0000 36.9465 0.0000
# 6 0.0000 0.0000 0.0000 0.0000 0.0000 17.8759
#
#
#
# Elastic Compliance Matrix: (Units=1/GPa)
#
#
# Indices 1 2 3 4 5 6 
#
# 1 0.007164 0.000055 -0.001953 0.000000 0.000000 0.000000
# 2 0.000055 0.007857 -0.002666 0.000000 0.000000 0.000000
# 3 -0.001953 -0.002666 0.006307 0.000000 0.000000 0.000000
# 4 0.000000 0.000000 0.000000 0.026000 0.000000 0.000000
# 5 0.000000 0.000000 0.000000 0.000000 0.027066 0.000000
# 6 0.000000 0.000000 0.000000 0.000000 0.000000 0.055941
#
#
# Mechanical properties :
#
#
# Convention : Reuss Voigt Hill
#
# Bulk Modulus (GPa) = 81.97503 88.27236 85.12370
# Shear Modulus (GPa) = 34.83574 43.18266 39.00920
#
# Velocity S-wave (km/s) = 3.84232 4.27795 4.06597
# Velocity P-wave (km/s) = 7.37737 7.86199 7.62353
#
# Compressibility (1/GPa) = 0.01219884
#
# Stress axis : x y z
#
# Youngs Moduli (GPa) = 139.59365 127.27840 158.54831
#
# Poissons Ratio (x) = -0.00695 0.30959
# Poissons Ratio (y) = -0.00762 0.42274
# Poissons Ratio (z) = 0.27258 0.33937
#
# Static dielectric constant tensor:
#      x y z
#    x 4.538090 0.000000 0.000000 
#    y 0.000000 3.971230 0.000000 
#    z 0.000000 0.000000 4.424010 
# 
# 
# High freq. dielectric constant tensor:
#      x y z
#    x 1.952340 0.000000 0.000000 
#    y 0.000000 1.921120 0.000000 
#    z 0.000000 0.000000 1.953090 
# 
# From -- ./inp_files/7384.got.cif
#   From: 2010.03.12/outbox.cif.g09.slc.cpg/sg69_4_cif.got.tgz:7384.got - 2010.04.10 23:52:46.
