data_PCOD8285371
_publ_section_title
;
Structure prediction by ZEFSAII (Michael W. Deem and Ramdas Pophale) SiO2 
 PCOD8285371
Probable space group: F M M M
;
_chemical_formula_sum "Si O2"
_cell_formula_units_Z 208
_cell_length_a 21.635657
_cell_length_b 17.829930
_cell_length_c 26.330751
_cell_angle_alpha 90.000000
_cell_angle_beta 90.000000
_cell_angle_gamma 90.000000
_cell_volume 10157.409745
_symmetry_space_group_name_H-M "F M M M"
_symmetry_group_IT_number 69
_symmetry_cell_setting 'orthorhombic'
loop_
_space_group_symop_operation_xyz
x,y,z
-x,-y,z
x,-y,-z
-x,y,-z
-x,-y,-z
x,y,-z
-x,y,z
x,-y,z
x,1/2+y,1/2+z
-x,1/2-y,1/2+z
x,1/2-y,1/2-z
-x,1/2+y,1/2-z
-x,1/2-y,1/2-z
x,1/2+y,1/2-z
-x,1/2+y,1/2+z
x,1/2-y,1/2+z
1/2+x,y,1/2+z
1/2-x,-y,1/2+z
1/2+x,-y,1/2-z
1/2-x,y,1/2-z
1/2-x,-y,1/2-z
1/2+x,y,1/2-z
1/2-x,y,1/2+z
1/2+x,-y,1/2+z
1/2+x,1/2+y,z
1/2-x,1/2-y,z
1/2+x,1/2-y,-z
1/2-x,1/2+y,-z
1/2-x,1/2-y,-z
1/2+x,1/2+y,-z
1/2-x,1/2+y,z
1/2+x,1/2-y,z
loop_
_atom_site_type_symbol
_atom_site_label
_atom_site_fract_x
_atom_site_fract_y
_atom_site_fract_z
Si Si1 0.162138 0.680735 0.059437
Si Si2 0.876095 0.342903 0.558483
Si Si3 0.568916 0.589401 0.727180
Si Si4 0.500000 0.085208 0.439145
Si Si5 0.928603 0.916973 0.612986
Si Si6 0.730757 0.414430 0.106857
Si Si7 0.691618 0.588411 0.218969
O O1 0.150120 0.764570 0.080504
O O2 0.100159 0.634489 0.069271
O O3 0.215296 0.642759 0.092825
O O4 0.180452 0.679575 0.000000
O O5 0.889549 0.329901 0.500000
O O6 0.940407 0.370937 0.583179
O O7 0.824688 0.406879 0.566523
O O8 0.500000 0.618733 0.744210
O O9 0.567040 0.500000 0.728245
O O10 0.583124 0.615746 0.669515
O O11 0.624920 0.621256 0.762288
O O12 0.500000 0.082819 0.500000
O O13 0.500000 0.000000 0.418048
O O14 0.000000 0.920456 0.600472
O O15 0.899273 0.000000 0.609144
O O16 0.755398 0.500000 0.106924
O O17 0.701805 0.390548 0.160618
O O18 0.689535 0.500000 0.227783
O O19 0.750000 0.622205 0.250000
#
# Coordination Sequence:
#
# PCOD8285371 Si02
#       7
#    32  32  32  16  32  32  32
#     4  11  23  36  54  78 113 155 193 232 282 344
#     4  10  22  39  58  80 111 150 191 234 286 345
#     4   8  14  28  50  76 107 143 185 236 291 345
#     4   9  18  36  62  86 107 140 187 237 284 331
#     4   9  18  32  53  82 113 148 191 236 280 333
#     4  11  22  36  56  84 112 145 191 241 290 336
#     4   9  17  30  51  79 110 143 182 233 287 341
#
# _framework density 20.477661000000001
#
# number of rings (size 3 to 8) (size 9 to 14) (size 15 to 20)
#    0.000    2.385    0.000    3.692    1.077    6.769 
#    1.385    0.769    0.000    6.462    0.000    2.154 
#    0.000    0.000    0.000    0.000    0.000    0.000 
#
# Total GULP energy -644511.132788 kJ/mol
# GULP energy per Si atom -12394.444861 kJ/mol
# Density = 2.043105 g / cm^3
# Si number density = 20.477661 Si / 1000 Ang^3
#
#
#
# Elastic Constant Matrix: (Units=GPa)
#
#
# Indices 1 2 3 4 5 6 
#
# 1 141.3127 50.0976 34.7884 0.0000 0.0000 0.0000
# 2 50.0976 79.9173 29.3792 0.0000 0.0000 0.0000
# 3 34.7884 29.3792 43.9914 0.0000 0.0000 0.0000
# 4 0.0000 0.0000 0.0000 8.6182 0.0000 0.0000
# 5 0.0000 0.0000 0.0000 0.0000 39.5996 0.0000
# 6 0.0000 0.0000 0.0000 0.0000 0.0000 19.9855
#
#
#
# Elastic Compliance Matrix: (Units=1/GPa)
#
#
# Indices 1 2 3 4 5 6 
#
# 1 0.009820 -0.004375 -0.004844 0.000000 0.000000 0.000000
# 2 -0.004375 0.018534 -0.008918 0.000000 0.000000 0.000000
# 3 -0.004844 -0.008918 0.032518 0.000000 0.000000 0.000000
# 4 0.000000 0.000000 0.000000 0.116033 0.000000 0.000000
# 5 0.000000 0.000000 0.000000 0.000000 0.025253 0.000000
# 6 0.000000 0.000000 0.000000 0.000000 0.000000 0.050036
#
#
# Mechanical properties :
#
#
# Convention : Reuss Voigt Hill
#
# Bulk Modulus (GPa) = 40.65323 54.86131 47.75727
# Shear Modulus (GPa) = 16.85394 23.70443 20.27919
#
# Velocity S-wave (km/s) = 2.87198 3.40601 3.15033
# Velocity P-wave (km/s) = 5.55817 6.50514 6.05021
#
# Compressibility (1/GPa) = 0.02459829
#
# Stress axis : x y z
#
# Youngs Moduli (GPa) = 101.83295 53.95496 30.75239
#
# Poissons Ratio (x) = 0.23606 0.14896
# Poissons Ratio (y) = 0.44554 0.27424
# Poissons Ratio (z) = 0.49325 0.48116
#
# Static dielectric constant tensor:
#      x y z
#    x 4.046540 0.000000 0.000000 
#    y 0.000000 3.541050 0.000000 
#    z 0.000000 0.000000 3.501340 
# 
# 
# High freq. dielectric constant tensor:
#      x y z
#    x 1.820790 0.000000 0.000000 
#    y 0.000000 1.766330 0.000000 
#    z 0.000000 0.000000 1.778660 
# 
# From -- ./inp_files/42719.got.cif
#   From: 2010.03.12/outbox.cif.g09.slc.cpg/sg69_22_cif.got.tgz:42719.got - 2010.04.10 23:52:46.
