data_PCOD8285373
_publ_section_title
;
Structure prediction by ZEFSAII (Michael W. Deem and Ramdas Pophale) SiO2 
 PCOD8285373
Probable space group: F M M M
;
_chemical_formula_sum "Si O2"
_cell_formula_units_Z 160
_cell_length_a 20.122003
_cell_length_b 17.374490
_cell_length_c 24.237241
_cell_angle_alpha 90.000000
_cell_angle_beta 90.000000
_cell_angle_gamma 90.000000
_cell_volume 8473.570675
_symmetry_space_group_name_H-M "F M M M"
_symmetry_group_IT_number 69
_symmetry_cell_setting 'orthorhombic'
loop_
_space_group_symop_operation_xyz
x,y,z
-x,-y,z
x,-y,-z
-x,y,-z
-x,-y,-z
x,y,-z
-x,y,z
x,-y,z
x,1/2+y,1/2+z
-x,1/2-y,1/2+z
x,1/2-y,1/2-z
-x,1/2+y,1/2-z
-x,1/2-y,1/2-z
x,1/2+y,1/2-z
-x,1/2+y,1/2+z
x,1/2-y,1/2+z
1/2+x,y,1/2+z
1/2-x,-y,1/2+z
1/2+x,-y,1/2-z
1/2-x,y,1/2-z
1/2-x,-y,1/2-z
1/2+x,y,1/2-z
1/2-x,y,1/2+z
1/2+x,-y,1/2+z
1/2+x,1/2+y,z
1/2-x,1/2-y,z
1/2+x,1/2-y,-z
1/2-x,1/2+y,-z
1/2-x,1/2-y,-z
1/2+x,1/2+y,-z
1/2-x,1/2+y,z
1/2+x,1/2-y,z
loop_
_atom_site_type_symbol
_atom_site_label
_atom_site_fract_x
_atom_site_fract_y
_atom_site_fract_z
Si Si1 0.817383 0.834239 0.775320
Si Si2 0.123340 0.410238 0.000000
Si Si3 0.076411 0.411578 0.791788
Si Si4 0.576305 0.182702 0.898962
Si Si5 0.221899 0.909168 0.000000
Si Si6 0.312260 0.696013 0.902268
O O1 0.830198 0.750000 0.750000
O O2 0.750000 0.869471 0.750000
O O3 0.879220 0.888892 0.760744
O O4 0.808150 0.835597 0.840612
O O5 0.086360 0.378452 0.053191
O O6 0.200527 0.387519 0.000000
O O7 0.112830 0.500000 0.000000
O O8 0.088413 0.500000 0.808189
O O9 0.098961 0.358185 0.842502
O O10 0.000000 0.397038 0.775763
O O11 0.500000 0.208734 0.895940
O O12 0.619391 0.258168 0.910192
O O13 0.188029 0.874352 0.945207
O O14 0.209595 0.000000 0.000000
O O15 0.250000 0.750000 0.915618
#
# Coordination Sequence:
#
# PCOD8285373 Si02
#       6
#    32  16  32  32  16  32
#     4  11  21  37  60  91 121 154 204 251 297 356
#     4  11  22  36  56  84 119 158 193 237 302 368
#     4  10  22  39  58  87 127 163 195 242 306 369
#     4  11  22  36  59  90 119 156 200 247 300 359
#     4  11  26  42  63  91 121 163 209 252 309 362
#     4  12  21  41  66  86 121 160 203 258 301 352
#
# _framework density 18.882241
#
# number of rings (size 3 to 8) (size 9 to 14) (size 15 to 20)
#    0.000    1.000    6.000    1.800    0.000    4.000 
#    0.000    0.000    0.000    1.200    0.000    0.000 
#    0.000    0.000    0.000    0.000    0.000    0.000 
#
# Total GULP energy -496199.479093 kJ/mol
# GULP energy per Si atom -12404.986977 kJ/mol
# Density = 1.883926 g / cm^3
# Si number density = 18.882241 Si / 1000 Ang^3
#
#
#
# Elastic Constant Matrix: (Units=GPa)
#
#
# Indices 1 2 3 4 5 6 
#
# 1 103.0932 54.0545 37.9516 0.0000 0.0000 0.0000
# 2 54.0545 81.4570 49.4822 0.0000 0.0000 0.0000
# 3 37.9516 49.4822 134.4096 0.0000 0.0000 0.0000
# 4 0.0000 0.0000 0.0000 -3.3219 0.0000 0.0000
# 5 0.0000 0.0000 0.0000 0.0000 31.9768 0.0000
# 6 0.0000 0.0000 0.0000 0.0000 0.0000 31.8483
#
#
#
# Elastic Compliance Matrix: (Units=1/GPa)
#
#
# Indices 1 2 3 4 5 6 
#
# 1 0.014932 -0.009464 -0.000732 0.000000 0.000000 0.000000
# 2 -0.009464 0.021811 -0.005357 0.000000 0.000000 0.000000
# 3 -0.000732 -0.005357 0.009619 0.000000 0.000000 0.000000
# 4 0.000000 0.000000 0.000000 -0.301029 0.000000 0.000000
# 5 0.000000 0.000000 0.000000 0.000000 0.031273 0.000000
# 6 0.000000 0.000000 0.000000 0.000000 0.000000 0.031399
#
#
# Mechanical properties :
#
#
# Convention : Reuss Voigt Hill
#
# Bulk Modulus (GPa) = 65.55226 66.88184 66.21705
# Shear Modulus (GPa) = -32.09147 23.93205 -4.07971
#
# Velocity S-wave (km/s) = -4.12704 3.56397 -1.47149
# Velocity P-wave (km/s) = 3.47588 7.24108 5.67957
#
# Compressibility (1/GPa) = 0.01525500
#
# Stress axis : x y z
#
# Youngs Moduli (GPa) = 66.97207 45.84823 103.96163
#
# Poissons Ratio (x) = 0.43390 0.07610
# Poissons Ratio (y) = 0.63382 0.55697
# Poissons Ratio (z) = 0.04902 0.24563
#
# Static dielectric constant tensor:
#      x y z
#    x 3.546060 0.000000 0.000000 
#    y 0.000000 3.298030 0.000000 
#    z 0.000000 0.000000 3.521040 
# 
# 
# High freq. dielectric constant tensor:
#      x y z
#    x 1.739180 0.000000 0.000000 
#    y 0.000000 1.719080 0.000000 
#    z 0.000000 0.000000 1.742070 
# 
# From -- ./inp_files/30822.got.cif
#   From: 2010.03.12/outbox.cif.g09.slc.cpg/sg69_16_cif.got.tgz:30822.got - 2010.04.10 23:52:46.
