data_PCOD8285910
_publ_section_title
;
Structure prediction by ZEFSAII (Michael W. Deem and Ramdas Pophale) SiO2 
 PCOD8285910
Probable space group: F D D D
;
_chemical_formula_sum "Si O2"
_cell_formula_units_Z 184
_cell_length_a 24.430960
_cell_length_b 16.369558
_cell_length_c 23.186717
_cell_angle_alpha 90.000000
_cell_angle_beta 90.000000
_cell_angle_gamma 90.000000
_cell_volume 9272.924997
_symmetry_space_group_name_H-M "F D D D"
_symmetry_group_IT_number 70
_space_group.IT_coordinate_system_code '2'
_symmetry_cell_setting 'orthorhombic'
loop_
_space_group_symop_operation_xyz
x,y,z
1/4-x,1/4-y,z
x,1/4-y,1/4-z
1/4-x,y,1/4-z
-x,-y,-z
3/4+x,3/4+y,-z
-x,3/4+y,3/4+z
3/4+x,-y,3/4+z
x,1/2+y,1/2+z
1/4-x,3/4-y,1/2+z
x,3/4-y,3/4-z
1/4-x,1/2+y,3/4-z
-x,1/2-y,1/2-z
3/4+x,1/4+y,1/2-z
-x,1/4+y,1/4+z
3/4+x,1/2-y,1/4+z
1/2+x,y,1/2+z
3/4-x,1/4-y,1/2+z
1/2+x,1/4-y,3/4-z
3/4-x,y,3/4-z
1/2-x,-y,1/2-z
1/4+x,3/4+y,1/2-z
1/2-x,3/4+y,1/4+z
1/4+x,-y,1/4+z
1/2+x,1/2+y,z
3/4-x,3/4-y,z
1/2+x,3/4-y,1/4-z
3/4-x,1/2+y,1/4-z
1/2-x,1/2-y,-z
1/4+x,1/4+y,-z
1/2-x,1/4+y,3/4+z
1/4+x,1/2-y,3/4+z
loop_
_atom_site_type_symbol
_atom_site_label
_atom_site_fract_x
_atom_site_fract_y
_atom_site_fract_z
Si Si1 0.875000 0.875000 0.577468
Si Si2 0.433212 0.146274 0.845994
Si Si3 0.963024 0.492729 0.629329
Si Si4 0.625000 0.625000 0.625000
Si Si5 0.823405 0.623165 0.209934
Si Si6 0.040568 0.246975 0.666810
Si Si7 0.570492 0.785398 0.788867
O O1 0.922976 0.835222 0.616189
O O2 0.847927 0.804356 0.538948
O O3 0.375000 0.167109 0.875000
O O4 0.475119 0.213822 0.869382
O O5 0.432987 0.145252 0.777066
O O6 0.452210 0.055231 0.862102
O O7 0.962629 0.549730 0.686886
O O8 0.942648 0.542191 0.573827
O O9 0.586483 0.677623 0.666468
O O10 0.886464 0.644445 0.195058
O O11 0.048215 0.301273 0.724383
O O12 0.979821 0.208159 0.666256
#
# Coordination Sequence:
#
# PCOD8285910 Si02
#       7
#    16  32  32   8  32  32  32
#     4  10  19  36  64  89 123 156 212 251 312 374
#     4  12  22  44  64  96 127 170 210 267 321 377
#     4  10  23  42  63  93 124 171 212 262 317 379
#     4  12  22  36  52  88 124 158 192 254 298 390
#     4  10  22  43  66  87 128 164 215 270 316 372
#     4  11  22  36  57  90 127 158 206 245 325 380
#     4  10  20  38  60  90 119 164 200 259 312 379
#
# _framework density 19.842714000000001
#
# number of rings (size 3 to 8) (size 9 to 14) (size 15 to 20)
#    0.000    1.391    4.348    1.043    0.000    4.174 
#    3.130    1.739    0.000    0.000    0.000    0.000 
#    0.000    0.000    0.000    0.000    0.000    0.000 
#
# Total GULP energy -570361.727856 kJ/mol
# GULP energy per Si atom -12399.167997 kJ/mol
# Density = 1.979755 g / cm^3
# Si number density = 19.842714 Si / 1000 Ang^3
#
#
#
# Elastic Constant Matrix: (Units=GPa)
#
#
# Indices 1 2 3 4 5 6 
#
# 1 155.1614 42.5302 46.0506 0.0000 0.0000 0.0000
# 2 42.5302 68.9162 27.4298 0.0000 0.0000 0.0000
# 3 46.0506 27.4298 111.2031 0.0000 0.0000 0.0000
# 4 0.0000 0.0000 0.0000 23.8894 0.0000 0.0000
# 5 0.0000 0.0000 0.0000 0.0000 21.4295 0.0000
# 6 0.0000 0.0000 0.0000 0.0000 0.0000 35.1665
#
#
#
# Elastic Compliance Matrix: (Units=1/GPa)
#
#
# Indices 1 2 3 4 5 6 
#
# 1 0.008302 -0.004164 -0.002411 0.000000 0.000000 0.000000
# 2 -0.004164 0.018178 -0.002760 0.000000 0.000000 0.000000
# 3 -0.002411 -0.002760 0.010672 0.000000 0.000000 0.000000
# 4 0.000000 0.000000 0.000000 0.041860 0.000000 0.000000
# 5 0.000000 0.000000 0.000000 0.000000 0.046665 0.000000
# 6 0.000000 0.000000 0.000000 0.000000 0.000000 0.028436
#
#
# Mechanical properties :
#
#
# Convention : Reuss Voigt Hill
#
# Bulk Modulus (GPa) = 54.10304 63.03354 58.56829
# Shear Modulus (GPa) = 27.94213 30.71510 29.32861
#
# Velocity S-wave (km/s) = 3.75664 3.93864 3.84872
# Velocity P-wave (km/s) = 6.79276 7.24703 7.02357
#
# Compressibility (1/GPa) = 0.01848325
#
# Stress axis : x y z
#
# Youngs Moduli (GPa) = 120.45758 55.01070 93.70650
#
# Poissons Ratio (x) = 0.22905 0.22591
# Poissons Ratio (y) = 0.50154 0.25860
# Poissons Ratio (z) = 0.29040 0.15181
#
# Static dielectric constant tensor:
#      x y z
#    x 3.878280 0.000000 0.000000 
#    y 0.000000 3.517170 0.000000 
#    z 0.000000 0.000000 3.505520 
# 
# 
# High freq. dielectric constant tensor:
#      x y z
#    x 1.786220 0.000000 0.000000 
#    y 0.000000 1.762660 0.000000 
#    z 0.000000 0.000000 1.770660 
# 
# From -- ./inp_files/37609.got.cif
#   From: 2010.03.12/outbox.cif.g09.slc.cpg/sg70_19_cif.got.tgz:37609.got - 2010.04.16 13:46:32.
