data_PCOD8285274
_publ_section_title
;
Structure prediction by ZEFSAII (Michael W. Deem and Ramdas Pophale) SiO2 
 PCOD8285274
Probable space group: F M M M
;
_chemical_formula_sum "Si O2"
_cell_formula_units_Z 96
_cell_length_a 18.893889
_cell_length_b 29.893417
_cell_length_c 8.632930
_cell_angle_alpha 90.000000
_cell_angle_beta 90.000000
_cell_angle_gamma 90.000000
_cell_volume 4875.903922
_symmetry_space_group_name_H-M "F M M M"
_symmetry_group_IT_number 69
_symmetry_cell_setting 'orthorhombic'
loop_
_space_group_symop_operation_xyz
x,y,z
-x,-y,z
x,-y,-z
-x,y,-z
-x,-y,-z
x,y,-z
-x,y,z
x,-y,z
x,1/2+y,1/2+z
-x,1/2-y,1/2+z
x,1/2-y,1/2-z
-x,1/2+y,1/2-z
-x,1/2-y,1/2-z
x,1/2+y,1/2-z
-x,1/2+y,1/2+z
x,1/2-y,1/2+z
1/2+x,y,1/2+z
1/2-x,-y,1/2+z
1/2+x,-y,1/2-z
1/2-x,y,1/2-z
1/2-x,-y,1/2-z
1/2+x,y,1/2-z
1/2-x,y,1/2+z
1/2+x,-y,1/2+z
1/2+x,1/2+y,z
1/2-x,1/2-y,z
1/2+x,1/2-y,-z
1/2-x,1/2+y,-z
1/2-x,1/2-y,-z
1/2+x,1/2+y,-z
1/2-x,1/2+y,z
1/2+x,1/2-y,z
loop_
_atom_site_type_symbol
_atom_site_label
_atom_site_fract_x
_atom_site_fract_y
_atom_site_fract_z
Si Si1 0.325257 0.297505 0.817955
Si Si2 0.417416 0.126175 0.820213
Si Si3 0.825075 0.551956 0.319439
O O1 0.349518 0.250000 0.750000
O O2 0.250000 0.312927 0.750000
O O3 0.383873 0.333856 0.777557
O O4 0.317482 0.292754 0.000000
O O5 0.500000 0.125387 0.784333
O O6 0.386428 0.078774 0.766728
O O7 0.401126 0.133948 0.000000
O O8 0.825195 0.563753 0.500000
O O9 0.839921 0.500000 0.288228
O O10 0.750000 0.566709 0.250000
#
# Coordination Sequence:
#
# PCOD8285274 Si02
#       3
#    32  32  32
#     4  11  22  39  63  88 116 149 190 237 284 337
#     4  11  24  40  58  83 117 155 193 234 284 341
#     4  10  21  38  61  87 115 149 191 238 286 338
#
# _framework density 19.688656999999999
#
# number of rings (size 3 to 8) (size 9 to 14) (size 15 to 20)
#    0.000    1.333    0.000    7.000    0.000    6.000 
#    0.000    3.333    0.000    0.000    0.000    0.000 
#    0.000    0.000    0.000    0.000    0.000    0.000 
#
# Total GULP energy -297775.098425 kJ/mol
# GULP energy per Si atom -12407.295768 kJ/mol
# Density = 1.964385 g / cm^3
# Si number density = 19.688657 Si / 1000 Ang^3
#
#
#
# Elastic Constant Matrix: (Units=GPa)
#
#
# Indices 1 2 3 4 5 6 
#
# 1 119.6557 69.3275 65.4751 0.0002 0.0009 -0.0001
# 2 69.3275 104.7784 48.7402 0.0000 0.0000 0.0000
# 3 65.4751 48.7402 142.3270 0.0002 0.0015 -0.0002
# 4 0.0002 0.0000 0.0002 36.7207 -0.0002 -0.0001
# 5 0.0009 0.0000 0.0015 -0.0002 33.4861 0.0001
# 6 -0.0001 0.0000 -0.0002 -0.0001 0.0001 22.6782
#
#
#
# Elastic Compliance Matrix: (Units=1/GPa)
#
#
# Indices 1 2 3 4 5 6 
#
# 1 0.015490 -0.008248 -0.004301 0.000000 0.000000 0.000000
# 2 -0.008248 0.015744 -0.001597 0.000000 0.000000 0.000000
# 3 -0.004301 -0.001597 0.009552 0.000000 0.000000 0.000000
# 4 0.000000 0.000000 0.000000 0.027233 0.000000 0.000000
# 5 0.000000 0.000000 0.000000 0.000000 0.029863 0.000000
# 6 0.000000 0.000000 0.000000 0.000000 0.000000 0.044095
#
#
# Mechanical properties :
#
#
# Convention : Reuss Voigt Hill
#
# Bulk Modulus (GPa) = 80.04689 81.53855 80.79272
# Shear Modulus (GPa) = 28.66406 30.79158 29.72782
#
# Velocity S-wave (km/s) = 3.81972 3.95894 3.88995
# Velocity P-wave (km/s) = 7.75876 7.89946 7.82942
#
# Compressibility (1/GPa) = 0.01249268
#
# Stress axis : x y z
#
# Youngs Moduli (GPa) = 64.55845 63.51450 104.69254
#
# Poissons Ratio (x) = 0.52388 0.45031
# Poissons Ratio (y) = 0.53249 0.16723
# Poissons Ratio (z) = 0.27768 0.10145
#
# Static dielectric constant tensor:
#      x y z
#    x 3.722860 0.000000 0.000000 
#    y 0.000000 3.633030 0.000000 
#    z 0.000000 0.000000 3.797240 
# 
# 
# High freq. dielectric constant tensor:
#      x y z
#    x 1.762590 0.000000 0.000000 
#    y 0.000000 1.780360 0.000000 
#    z 0.000000 0.000000 1.788350 
# 
# From -- ./inp_files/2830.got.cif
#   From: 2010.03.12/outbox.cif.g09.slc.cpg/sg69_2_cif.got.tgz:2830.got - 2010.04.10 23:52:46.
