data_PCOD8285852
_publ_section_title
;
Structure prediction by ZEFSAII (Michael W. Deem and Ramdas Pophale) SiO2 
 PCOD8285852
Probable space group: F D D D
;
_chemical_formula_sum "Si O2"
_cell_formula_units_Z 176
_cell_length_a 15.834597
_cell_length_b 23.121343
_cell_length_c 24.958646
_cell_angle_alpha 90.000000
_cell_angle_beta 90.000000
_cell_angle_gamma 90.000000
_cell_volume 9137.788304
_symmetry_space_group_name_H-M "F D D D"
_symmetry_group_IT_number 70
_space_group.IT_coordinate_system_code '2'
_symmetry_cell_setting 'orthorhombic'
loop_
_space_group_symop_operation_xyz
x,y,z
1/4-x,1/4-y,z
x,1/4-y,1/4-z
1/4-x,y,1/4-z
-x,-y,-z
3/4+x,3/4+y,-z
-x,3/4+y,3/4+z
3/4+x,-y,3/4+z
x,1/2+y,1/2+z
1/4-x,3/4-y,1/2+z
x,3/4-y,3/4-z
1/4-x,1/2+y,3/4-z
-x,1/2-y,1/2-z
3/4+x,1/4+y,1/2-z
-x,1/4+y,1/4+z
3/4+x,1/2-y,1/4+z
1/2+x,y,1/2+z
3/4-x,1/4-y,1/2+z
1/2+x,1/4-y,3/4-z
3/4-x,y,3/4-z
1/2-x,-y,1/2-z
1/4+x,3/4+y,1/2-z
1/2-x,3/4+y,1/4+z
1/4+x,-y,1/4+z
1/2+x,1/2+y,z
3/4-x,3/4-y,z
1/2+x,3/4-y,1/4-z
3/4-x,1/2+y,1/4-z
1/2-x,1/2-y,-z
1/4+x,1/4+y,-z
1/2-x,1/4+y,3/4+z
1/4+x,1/2-y,3/4+z
loop_
_atom_site_type_symbol
_atom_site_label
_atom_site_fract_x
_atom_site_fract_y
_atom_site_fract_z
Si Si1 0.891336 0.002020 0.646248
Si Si2 0.639217 0.375000 0.375000
Si Si3 0.785247 0.037021 0.853902
Si Si4 0.792646 0.171254 0.844636
Si Si5 0.093843 0.215595 0.239293
Si Si6 0.500426 0.350927 0.978915
O O1 0.799952 0.988135 0.617853
O O2 0.878784 0.998322 0.709295
O O3 0.964663 0.957434 0.630238
O O4 0.918124 0.067490 0.630326
O O5 0.694636 0.369137 0.321628
O O6 0.875000 0.013554 0.875000
O O7 0.778738 0.105113 0.860720
O O8 0.786463 0.011762 0.793147
O O9 0.875000 0.195477 0.875000
O O10 0.801727 0.176789 0.779711
O O11 0.178525 0.193713 0.208019
O O12 0.041517 0.158236 0.254605
#
# Coordination Sequence:
#
# PCOD8285852 Si02
#       6
#    32  16  32  32  32  32
#     4  11  21  36  52  81 115 156 190 242 290 348
#     4  12  22  33  57  88 126 146 194 240 308 350
#     4  11  19  31  54  86 118 151 183 230 291 370
#     4  10  22  39  58  75 107 163 217 241 276 334
#     4  10  19  32  55  84 129 153 180 219 310 380
#     4  10  20  34  56  89 122 160 180 237 300 378
#
# _framework density 19.260677999999999
#
# number of rings (size 3 to 8) (size 9 to 14) (size 15 to 20)
#    0.000    1.455    3.636    3.273    0.000    0.727 
#    0.000    1.364    0.000    0.000    0.000    2.545 
#    0.000    0.000    0.000    0.000    0.000    0.000 
#
# Total GULP energy -545123.942685 kJ/mol
# GULP energy per Si atom -12389.180516 kJ/mol
# Density = 1.921684 g / cm^3
# Si number density = 19.260678 Si / 1000 Ang^3
#
#
#
# Elastic Constant Matrix: (Units=GPa)
#
#
# Indices 1 2 3 4 5 6 
#
# 1 122.9558 49.9231 34.1282 0.0000 0.0000 0.0000
# 2 49.9231 117.2877 18.5999 0.0000 0.0000 0.0000
# 3 34.1282 18.5999 58.6308 0.0000 0.0000 0.0000
# 4 0.0000 0.0000 0.0000 25.7779 0.0000 0.0000
# 5 0.0000 0.0000 0.0000 0.0000 29.6009 0.0000
# 6 0.0000 0.0000 0.0000 0.0000 0.0000 33.7045
#
#
#
# Elastic Compliance Matrix: (Units=1/GPa)
#
#
# Indices 1 2 3 4 5 6 
#
# 1 0.011190 -0.003928 -0.005267 0.000000 0.000000 0.000000
# 2 -0.003928 0.010356 -0.000999 0.000000 0.000000 0.000000
# 3 -0.005267 -0.000999 0.020439 0.000000 0.000000 0.000000
# 4 0.000000 0.000000 0.000000 0.038793 0.000000 0.000000
# 5 0.000000 0.000000 0.000000 0.000000 0.033783 0.000000
# 6 0.000000 0.000000 0.000000 0.000000 0.000000 0.029670
#
#
# Mechanical properties :
#
#
# Convention : Reuss Voigt Hill
#
# Bulk Modulus (GPa) = 46.30367 56.01963 51.16165
# Shear Modulus (GPa) = 29.10064 30.89820 29.99942
#
# Velocity S-wave (km/s) = 3.89123 4.00961 3.95086
# Velocity P-wave (km/s) = 6.65444 7.11225 6.88715
#
# Compressibility (1/GPa) = 0.02159656
#
# Stress axis : x y z
#
# Youngs Moduli (GPa) = 89.36759 96.56011 48.92614
#
# Poissons Ratio (x) = 0.37924 0.25772
# Poissons Ratio (y) = 0.35099 0.04889
# Poissons Ratio (z) = 0.47074 0.09649
#
# Static dielectric constant tensor:
#      x y z
#    x 3.769120 0.000000 0.000000 
#    y 0.000000 3.680170 0.000000 
#    z 0.000000 0.000000 3.329470 
# 
# 
# High freq. dielectric constant tensor:
#      x y z
#    x 1.735630 0.000000 0.000000 
#    y 0.000000 1.755500 0.000000 
#    z 0.000000 0.000000 1.727640 
# 
# From -- ./inp_files/51523.got.cif
#   From: 2010.03.12/outbox.cif.g09.slc.cpg/sg70_26_cif.got.tgz:51523.got - 2010.04.16 13:46:32.
