data_PCOD8285381
_publ_section_title
;
Structure prediction by ZEFSAII (Michael W. Deem and Ramdas Pophale) SiO2 
 PCOD8285381
Probable space group: F M M M
;
_chemical_formula_sum "Si O2"
_cell_formula_units_Z 208
_cell_length_a 20.545366
_cell_length_b 18.395076
_cell_length_c 27.748648
_cell_angle_alpha 90.000000
_cell_angle_beta 90.000000
_cell_angle_gamma 90.000000
_cell_volume 10487.145574
_symmetry_space_group_name_H-M "F M M M"
_symmetry_group_IT_number 69
_symmetry_cell_setting 'orthorhombic'
loop_
_space_group_symop_operation_xyz
x,y,z
-x,-y,z
x,-y,-z
-x,y,-z
-x,-y,-z
x,y,-z
-x,y,z
x,-y,z
x,1/2+y,1/2+z
-x,1/2-y,1/2+z
x,1/2-y,1/2-z
-x,1/2+y,1/2-z
-x,1/2-y,1/2-z
x,1/2+y,1/2-z
-x,1/2+y,1/2+z
x,1/2-y,1/2+z
1/2+x,y,1/2+z
1/2-x,-y,1/2+z
1/2+x,-y,1/2-z
1/2-x,y,1/2-z
1/2-x,-y,1/2-z
1/2+x,y,1/2-z
1/2-x,y,1/2+z
1/2+x,-y,1/2+z
1/2+x,1/2+y,z
1/2-x,1/2-y,z
1/2+x,1/2-y,-z
1/2-x,1/2+y,-z
1/2-x,1/2-y,-z
1/2+x,1/2+y,-z
1/2-x,1/2+y,z
1/2+x,1/2-y,z
loop_
_atom_site_type_symbol
_atom_site_label
_atom_site_fract_x
_atom_site_fract_y
_atom_site_fract_z
Si Si1 0.576473 0.174976 0.610533
Si Si2 0.764824 0.916790 0.364609
Si Si3 0.427789 0.670813 0.733065
Si Si4 0.500000 0.913514 0.057226
Si Si5 0.165293 0.917240 0.053795
Si Si6 0.641415 0.915438 0.693265
Si Si7 0.398004 0.836254 0.124936
O O1 0.500000 0.185094 0.607481
O O2 0.601857 0.131112 0.564169
O O3 0.595729 0.131729 0.658487
O O4 0.609695 0.253692 0.607960
O O5 0.724433 0.895353 0.411946
O O6 0.717936 0.902877 0.318318
O O7 0.826657 0.865934 0.364230
O O8 0.788322 0.000000 0.366057
O O9 0.500000 0.657145 0.754681
O O10 0.402808 0.750000 0.750000
O O11 0.376320 0.611077 0.752902
O O12 0.434995 0.663009 0.675776
O O13 0.435991 0.881991 0.083938
O O14 0.500000 0.000000 0.063118
O O15 0.500000 0.892484 0.000000
O O16 0.144417 0.000000 0.063459
O O17 0.190028 0.904317 0.000000
O O18 0.624029 0.000000 0.686946
#
# Coordination Sequence:
#
# PCOD8285381 Si02
#       7
#    32  32  32  16  32  32  32
#     4  11  21  37  59  89 129 164 199 255 319 379
#     4   9  21  41  63  89 126 165 211 265 316 375
#     4  11  22  40  63  91 131 170 211 260 313 373
#     4  11  26  46  65  92 127 167 224 281 326 374
#     4   9  20  39  62  89 120 159 209 261 317 387
#     4  10  22  39  61  93 128 168 208 250 311 382
#     4  12  23  42  66  92 124 169 213 264 325 381
#
# _framework density 19.833805999999999
#
# number of rings (size 3 to 8) (size 9 to 14) (size 15 to 20)
#    0.000    1.615    3.077    2.308    0.000    8.000 
#    0.000    5.385    0.000    0.000    0.000    0.000 
#    0.000    0.000    0.000    0.000    0.000    0.000 
#
# Total GULP energy -644758.225808 kJ/mol
# GULP energy per Si atom -12399.196650 kJ/mol
# Density = 1.978866 g / cm^3
# Si number density = 19.833806 Si / 1000 Ang^3
#
#
#
# Elastic Constant Matrix: (Units=GPa)
#
#
# Indices 1 2 3 4 5 6 
#
# 1 114.1197 62.2739 26.1619 0.0000 0.0000 0.0000
# 2 62.2739 124.0165 39.7317 0.0000 0.0000 0.0000
# 3 26.1619 39.7317 103.3938 0.0000 0.0000 0.0000
# 4 0.0000 0.0000 0.0000 24.6420 0.0000 0.0000
# 5 0.0000 0.0000 0.0000 0.0000 20.4707 0.0000
# 6 0.0000 0.0000 0.0000 0.0000 0.0000 35.4548
#
#
#
# Elastic Compliance Matrix: (Units=1/GPa)
#
#
# Indices 1 2 3 4 5 6 
#
# 1 0.012132 -0.005826 -0.000831 0.000000 0.000000 0.000000
# 2 -0.005826 0.011993 -0.003135 0.000000 0.000000 0.000000
# 3 -0.000831 -0.003135 0.011087 0.000000 0.000000 0.000000
# 4 0.000000 0.000000 0.000000 0.040581 0.000000 0.000000
# 5 0.000000 0.000000 0.000000 0.000000 0.048850 0.000000
# 6 0.000000 0.000000 0.000000 0.000000 0.000000 0.028205
#
#
# Mechanical properties :
#
#
# Convention : Reuss Voigt Hill
#
# Bulk Modulus (GPa) = 63.98374 66.42945 65.20660
# Shear Modulus (GPa) = 28.14665 30.33768 29.24217
#
# Velocity S-wave (km/s) = 3.77121 3.91525 3.84390
# Velocity P-wave (km/s) = 7.16189 7.34878 7.25594
#
# Compressibility (1/GPa) = 0.01562897
#
# Stress axis : x y z
#
# Youngs Moduli (GPa) = 82.42387 83.38127 90.19921
#
# Poissons Ratio (x) = 0.48577 0.07497
# Poissons Ratio (y) = 0.48020 0.28273
# Poissons Ratio (z) = 0.06850 0.26136
#
# Static dielectric constant tensor:
#      x y z
#    x 3.483780 0.000000 0.000000 
#    y 0.000000 3.723240 0.000000 
#    z 0.000000 0.000000 3.873270 
# 
# 
# High freq. dielectric constant tensor:
#      x y z
#    x 1.767920 0.000000 0.000000 
#    y 0.000000 1.780550 0.000000 
#    z 0.000000 0.000000 1.772810 
# 
# From -- ./inp_files/42728.got.cif
#   From: 2010.03.12/outbox.cif.g09.slc.cpg/sg69_22_cif.got.tgz:42728.got - 2010.04.10 23:52:46.
