data_PCOD8285510
_publ_section_title
;
Structure prediction by ZEFSAII (Michael W. Deem and Ramdas Pophale) SiO2 
 PCOD8285510
Probable space group: F M M M
;
_chemical_formula_sum "Si O2"
_cell_formula_units_Z 192
_cell_length_a 18.352734
_cell_length_b 29.451434
_cell_length_c 17.911998
_cell_angle_alpha 90.000000
_cell_angle_beta 90.000000
_cell_angle_gamma 90.000000
_cell_volume 9681.691672
_symmetry_space_group_name_H-M "F M M M"
_symmetry_group_IT_number 69
_symmetry_cell_setting 'orthorhombic'
loop_
_space_group_symop_operation_xyz
x,y,z
-x,-y,z
x,-y,-z
-x,y,-z
-x,-y,-z
x,y,-z
-x,y,z
x,-y,z
x,1/2+y,1/2+z
-x,1/2-y,1/2+z
x,1/2-y,1/2-z
-x,1/2+y,1/2-z
-x,1/2-y,1/2-z
x,1/2+y,1/2-z
-x,1/2+y,1/2+z
x,1/2-y,1/2+z
1/2+x,y,1/2+z
1/2-x,-y,1/2+z
1/2+x,-y,1/2-z
1/2-x,y,1/2-z
1/2-x,-y,1/2-z
1/2+x,y,1/2-z
1/2-x,y,1/2+z
1/2+x,-y,1/2+z
1/2+x,1/2+y,z
1/2-x,1/2-y,z
1/2+x,1/2-y,-z
1/2-x,1/2+y,-z
1/2-x,1/2-y,-z
1/2+x,1/2+y,-z
1/2-x,1/2+y,z
1/2+x,1/2-y,z
loop_
_atom_site_type_symbol
_atom_site_label
_atom_site_fract_x
_atom_site_fract_y
_atom_site_fract_z
Si Si1 0.413233 0.676577 0.110811
Si Si2 0.159156 0.879108 0.641580
Si Si3 0.165341 0.950070 0.233583
Si Si4 0.817658 0.096296 0.917086
Si Si5 0.663719 0.199077 0.244308
Si Si6 0.914252 0.746339 0.000000
Si Si7 0.915341 0.145033 0.500000
O O1 0.500000 0.670141 0.112445
O O2 0.376315 0.635592 0.066132
O O3 0.377611 0.671944 0.191635
O O4 0.391001 0.724677 0.073068
O O5 0.133699 0.913893 0.706750
O O6 0.242445 0.884248 0.616141
O O7 0.144647 0.827282 0.668517
O O8 0.107690 0.885145 0.570609
O O9 0.250000 0.952525 0.250000
O O10 0.150761 0.937569 0.146422
O O11 0.130310 0.000000 0.247133
O O12 0.804991 0.073516 0.000000
O O13 0.633290 0.250000 0.250000
O O14 0.750000 0.197233 0.250000
O O15 0.878349 0.695900 0.000000
O O16 0.000000 0.740820 0.000000
O O17 0.000000 0.151529 0.500000
#
# Coordination Sequence:
#
# PCOD8285510 Si02
#       7
#    32  32  32  32  32  16  16
#     4  11  21  35  55  81 113 157 200 240 291 346
#     4  11  20  39  59  85 121 157 196 246 293 351
#     4   9  19  37  63  90 117 149 191 247 303 355
#     4  11  20  36  61  87 118 150 194 242 300 356
#     4  11  21  34  55  84 117 154 197 247 292 347
#     4   9  20  37  53  80 123 156 198 249 287 340
#     4  11  24  39  58  87 120 164 207 243 288 345
#
# _framework density 19.831244000000002
#
# number of rings (size 3 to 8) (size 9 to 14) (size 15 to 20)
#    0.000    1.500    5.000    1.500    0.000    1.333 
#    0.000    1.250    0.000    2.500    0.000    1.167 
#    0.000    0.000    0.000    0.000    0.000    0.000 
#
# Total GULP energy -594726.046231 kJ/mol
# GULP energy per Si atom -12390.125963 kJ/mol
# Density = 1.978611 g / cm^3
# Si number density = 19.831244 Si / 1000 Ang^3
#
#
#
# Elastic Constant Matrix: (Units=GPa)
#
#
# Indices 1 2 3 4 5 6 
#
# 1 51.0872 19.8861 24.7227 0.0000 0.0000 0.0000
# 2 19.8861 116.0432 58.5693 0.0000 0.0000 0.0000
# 3 24.7227 58.5693 163.5198 0.0000 0.0000 0.0000
# 4 0.0000 0.0000 0.0000 14.3981 0.0000 0.0000
# 5 0.0000 0.0000 0.0000 0.0000 24.0398 0.0000
# 6 0.0000 0.0000 0.0000 0.0000 0.0000 11.1673
#
#
#
# Elastic Compliance Matrix: (Units=1/GPa)
#
#
# Indices 1 2 3 4 5 6 
#
# 1 0.021706 -0.002519 -0.002380 0.000000 0.000000 0.000000
# 2 -0.002519 0.010811 -0.003492 0.000000 0.000000 0.000000
# 3 -0.002380 -0.003492 0.007726 0.000000 0.000000 0.000000
# 4 0.000000 0.000000 0.000000 0.069454 0.000000 0.000000
# 5 0.000000 0.000000 0.000000 0.000000 0.041598 0.000000
# 6 0.000000 0.000000 0.000000 0.000000 0.000000 0.089547
#
#
# Mechanical properties :
#
#
# Convention : Reuss Voigt Hill
#
# Bulk Modulus (GPa) = 42.61906 59.66739 51.14323
# Shear Modulus (GPa) = 18.83644 25.08585 21.96115
#
# Velocity S-wave (km/s) = 3.08529 3.56049 3.33137
# Velocity P-wave (km/s) = 5.85060 6.85972 6.37516
#
# Compressibility (1/GPa) = 0.02346368
#
# Stress axis : x y z
#
# Youngs Moduli (GPa) = 46.06939 92.49502 129.43537
#
# Poissons Ratio (x) = 0.23297 0.30801
# Poissons Ratio (y) = 0.11604 0.45194
# Poissons Ratio (z) = 0.10963 0.32296
#
# Static dielectric constant tensor:
#      x y z
#    x 3.190460 0.000000 0.000000 
#    y 0.000000 3.994310 0.000000 
#    z 0.000000 0.000000 3.761270 
# 
# 
# High freq. dielectric constant tensor:
#      x y z
#    x 1.735110 0.000000 0.000000 
#    y 0.000000 1.759170 0.000000 
#    z 0.000000 0.000000 1.793530 
# 
# From -- ./inp_files/23720.got.cif
#   From: 2010.03.12/outbox.cif.g09.slc.cpg/sg69_12_cif.got.tgz:23720.got - 2010.04.10 23:52:46.
