data_PCOD8285533
_publ_section_title
;
Structure prediction by ZEFSAII (Michael W. Deem and Ramdas Pophale) SiO2 
 PCOD8285533
Probable space group: F M M M
;
_chemical_formula_sum "Si O2"
_cell_formula_units_Z 176
_cell_length_a 16.299468
_cell_length_b 23.024361
_cell_length_c 23.991154
_cell_angle_alpha 90.000000
_cell_angle_beta 90.000000
_cell_angle_gamma 90.000000
_cell_volume 9003.516279
_symmetry_space_group_name_H-M "F M M M"
_symmetry_group_IT_number 69
_symmetry_cell_setting 'orthorhombic'
loop_
_space_group_symop_operation_xyz
x,y,z
-x,-y,z
x,-y,-z
-x,y,-z
-x,-y,-z
x,y,-z
-x,y,z
x,-y,z
x,1/2+y,1/2+z
-x,1/2-y,1/2+z
x,1/2-y,1/2-z
-x,1/2+y,1/2-z
-x,1/2-y,1/2-z
x,1/2+y,1/2-z
-x,1/2+y,1/2+z
x,1/2-y,1/2+z
1/2+x,y,1/2+z
1/2-x,-y,1/2+z
1/2+x,-y,1/2-z
1/2-x,y,1/2-z
1/2-x,-y,1/2-z
1/2+x,y,1/2-z
1/2-x,y,1/2+z
1/2+x,-y,1/2+z
1/2+x,1/2+y,z
1/2-x,1/2-y,z
1/2+x,1/2-y,-z
1/2-x,1/2+y,-z
1/2-x,1/2-y,-z
1/2+x,1/2+y,-z
1/2-x,1/2+y,z
1/2+x,1/2-y,z
loop_
_atom_site_type_symbol
_atom_site_label
_atom_site_fract_x
_atom_site_fract_y
_atom_site_fract_z
Si Si1 0.653206 0.564140 0.243112
Si Si2 0.408533 0.563747 0.065521
Si Si3 0.408158 0.747143 0.813593
Si Si4 0.124882 0.627364 0.852390
Si Si5 0.500000 0.930761 0.933963
Si Si6 0.681765 0.358265 0.857203
O O1 0.617994 0.500000 0.230608
O O2 0.750000 0.561426 0.250000
O O3 0.608437 0.587800 0.298242
O O4 0.635594 0.606494 0.191779
O O5 0.500000 0.572772 0.089162
O O6 0.375347 0.500000 0.084576
O O7 0.350675 0.615563 0.085397
O O8 0.409867 0.566991 0.000000
O O9 0.500000 0.720365 0.814322
O O10 0.374977 0.750000 0.750000
O O11 0.413278 0.809808 0.842009
O O12 0.344837 0.708463 0.849422
O O13 0.081309 0.597036 0.905424
O O14 0.221378 0.635035 0.860659
O O15 0.500000 0.000000 0.925041
O O16 0.500000 0.915707 0.000000
#
# Coordination Sequence:
#
# PCOD8285533 Si02
#       6
#    32  32  32  32  16  32
#     4   9  18  32  53  85 123 154 187 244 307 359
#     4   9  19  37  58  83 121 159 192 241 299 360
#     4  11  22  38  61  90 128 168 204 244 308 381
#     4  11  22  40  61  88 122 158 204 262 310 365
#     4  11  26  48  69  88 120 170 219 266 320 371
#     4  11  21  34  62  93 121 158 205 249 308 375
#
# _framework density 19.547919
#
# number of rings (size 3 to 8) (size 9 to 14) (size 15 to 20)
#    0.000    1.727    2.727    2.727    0.000    3.636 
#    1.636    2.727    0.000    2.182    0.000    0.000 
#    0.000    0.000    0.000    0.000    0.000    0.000 
#
# Total GULP energy -545529.153130 kJ/mol
# GULP energy per Si atom -12398.389844 kJ/mol
# Density = 1.950343 g / cm^3
# Si number density = 19.547919 Si / 1000 Ang^3
#
#
#
# Elastic Constant Matrix: (Units=GPa)
#
#
# Indices 1 2 3 4 5 6 
#
# 1 97.1376 37.8884 40.9549 0.0000 0.0000 0.0000
# 2 37.8884 124.7066 43.9296 0.0000 0.0000 0.0000
# 3 40.9549 43.9296 85.1885 0.0000 0.0000 0.0000
# 4 0.0000 0.0000 0.0000 31.5446 0.0000 0.0000
# 5 0.0000 0.0000 0.0000 0.0000 30.5781 0.0000
# 6 0.0000 0.0000 0.0000 0.0000 0.0000 49.2185
#
#
#
# Elastic Compliance Matrix: (Units=1/GPa)
#
#
# Indices 1 2 3 4 5 6 
#
# 1 0.013388 -0.002200 -0.005302 0.000000 0.000000 0.000000
# 2 -0.002200 0.010160 -0.004182 0.000000 0.000000 0.000000
# 3 -0.005302 -0.004182 0.016444 0.000000 0.000000 0.000000
# 4 0.000000 0.000000 0.000000 0.031701 0.000000 0.000000
# 5 0.000000 0.000000 0.000000 0.000000 0.032703 0.000000
# 6 0.000000 0.000000 0.000000 0.000000 0.000000 0.020318
#
#
# Mechanical properties :
#
#
# Convention : Reuss Voigt Hill
#
# Bulk Modulus (GPa) = 60.14983 61.39760 60.77371
# Shear Modulus (GPa) = 32.54712 34.55224 33.54968
#
# Velocity S-wave (km/s) = 4.08486 4.20880 4.14729
# Velocity P-wave (km/s) = 7.28597 7.42265 7.35462
#
# Compressibility (1/GPa) = 0.01662515
#
# Stress axis : x y z
#
# Youngs Moduli (GPa) = 74.69293 98.42238 60.81206
#
# Poissons Ratio (x) = 0.21652 0.32243
# Poissons Ratio (y) = 0.16432 0.25430
# Poissons Ratio (z) = 0.39602 0.41158
#
# Static dielectric constant tensor:
#      x y z
#    x 3.509080 0.000000 0.000000 
#    y 0.000000 3.696800 0.000000 
#    z 0.000000 0.000000 3.410600 
# 
# 
# High freq. dielectric constant tensor:
#      x y z
#    x 1.759050 0.000000 0.000000 
#    y 0.000000 1.770420 0.000000 
#    z 0.000000 0.000000 1.743270 
# 
# From -- ./inp_files/41093.got.cif
#   From: 2010.03.12/outbox.cif.g09.slc.cpg/sg69_21_cif.got.tgz:41093.got - 2010.04.10 23:52:46.
