data_PCOD8285333
_publ_section_title
;
Structure prediction by ZEFSAII (Michael W. Deem and Ramdas Pophale) SiO2 
 PCOD8285333
Probable space group: F M M M
;
_chemical_formula_sum "Si O2"
_cell_formula_units_Z 136
_cell_length_a 11.498710
_cell_length_b 21.458796
_cell_length_c 26.778038
_cell_angle_alpha 90.000000
_cell_angle_beta 90.000000
_cell_angle_gamma 90.000000
_cell_volume 6607.439964
_symmetry_space_group_name_H-M "F M M M"
_symmetry_group_IT_number 69
_symmetry_cell_setting 'orthorhombic'
loop_
_space_group_symop_operation_xyz
x,y,z
-x,-y,z
x,-y,-z
-x,y,-z
-x,-y,-z
x,y,-z
-x,y,z
x,-y,z
x,1/2+y,1/2+z
-x,1/2-y,1/2+z
x,1/2-y,1/2-z
-x,1/2+y,1/2-z
-x,1/2-y,1/2-z
x,1/2+y,1/2-z
-x,1/2+y,1/2+z
x,1/2-y,1/2+z
1/2+x,y,1/2+z
1/2-x,-y,1/2+z
1/2+x,-y,1/2-z
1/2-x,y,1/2-z
1/2-x,-y,1/2-z
1/2+x,y,1/2-z
1/2-x,y,1/2+z
1/2+x,-y,1/2+z
1/2+x,1/2+y,z
1/2-x,1/2-y,z
1/2+x,1/2-y,-z
1/2-x,1/2+y,-z
1/2-x,1/2-y,-z
1/2+x,1/2+y,-z
1/2-x,1/2+y,z
1/2+x,1/2-y,z
loop_
_atom_site_type_symbol
_atom_site_label
_atom_site_fract_x
_atom_site_fract_y
_atom_site_fract_z
Si Si1 0.237771 0.680007 0.557015
Si Si2 0.239856 0.500000 0.309933
Si Si3 0.627332 0.179283 0.766735
Si Si4 0.000000 0.887391 0.056354
Si Si5 0.500000 0.500000 0.865820
Si Si6 0.128458 0.111901 0.361724
O O1 0.280003 0.677837 0.500000
O O2 0.250000 0.750000 0.578207
O O3 0.106689 0.658658 0.564032
O O4 0.317100 0.630756 0.585867
O O5 0.250000 0.500000 0.250000
O O6 0.300358 0.439784 0.332488
O O7 0.107498 0.500000 0.328141
O O8 0.500000 0.151509 0.746732
O O9 0.633509 0.250000 0.750000
O O10 0.750000 0.145759 0.750000
O O11 0.624830 0.173299 0.826550
O O12 0.000000 0.940607 0.097852
O O13 0.000000 0.916372 0.000000
O O14 0.000000 0.085889 0.372533
#
# Coordination Sequence:
#
# PCOD8285333 Si02
#       6
#    32  16  32  16   8  32
#     4  10  23  42  66  99 137 176 217 270 341 411
#     4  12  27  47  68  94 133 177 226 275 334 399
#     4   9  19  37  57  87 122 161 209 266 325 384
#     4  10  21  44  72 103 136 170 227 294 345 408
#     4  12  23  46  76 102 126 182 233 284 352 400
#     4  11  24  43  65  92 130 171 219 274 332 397
#
# _framework density 20.582858000000002
#
# number of rings (size 3 to 8) (size 9 to 14) (size 15 to 20)
#    0.000    1.647    2.353    1.235    6.588    0.471 
#    4.235    0.588    0.000    1.412    0.000    0.000 
#    0.000    0.000    0.000    0.000    0.000    0.000 
#
# Total GULP energy -421216.318616 kJ/mol
# GULP energy per Si atom -12388.715253 kJ/mol
# Density = 2.053601 g / cm^3
# Si number density = 20.582858 Si / 1000 Ang^3
#
#
#
# Elastic Constant Matrix: (Units=GPa)
#
#
# Indices 1 2 3 4 5 6 
#
# 1 213.4483 41.8527 72.0858 0.0000 0.0000 0.0000
# 2 41.8527 107.9599 66.1801 0.0000 0.0000 0.0000
# 3 72.0858 66.1801 119.4318 0.0000 0.0000 0.0000
# 4 0.0000 0.0000 0.0000 13.5099 0.0000 0.0000
# 5 0.0000 0.0000 0.0000 0.0000 34.9590 0.0000
# 6 0.0000 0.0000 0.0000 0.0000 0.0000 -6.5398
#
#
#
# Elastic Compliance Matrix: (Units=1/GPa)
#
#
# Indices 1 2 3 4 5 6 
#
# 1 0.005886 -0.000158 -0.003465 0.000000 0.000000 0.000000
# 2 -0.000158 0.014032 -0.007680 0.000000 0.000000 0.000000
# 3 -0.003465 -0.007680 0.014720 0.000000 0.000000 0.000000
# 4 0.000000 0.000000 0.000000 0.074020 0.000000 0.000000
# 5 0.000000 0.000000 0.000000 0.000000 0.028605 0.000000
# 6 0.000000 0.000000 0.000000 0.000000 0.000000 -0.152910
#
#
# Mechanical properties :
#
#
# Convention : Reuss Voigt Hill
#
# Bulk Modulus (GPa) = 83.11219 89.00858 86.06039
# Shear Modulus (GPa) = 455.78853 25.76725 240.77789
#
# Velocity S-wave (km/s) = 14.89703 3.54203 10.82745
# Velocity P-wave (km/s) = 18.34019 7.75022 14.07885
#
# Compressibility (1/GPa) = 0.01203193
#
# Stress axis : x y z
#
# Youngs Moduli (GPa) = 169.88816 71.26642 67.93254
#
# Poissons Ratio (x) = 0.01123 0.23542
# Poissons Ratio (y) = 0.02677 0.52174
# Poissons Ratio (z) = 0.58874 0.54735
#
# Static dielectric constant tensor:
#      x y z
#    x 4.321910 0.000000 0.000000 
#    y 0.000000 3.618220 0.000000 
#    z 0.000000 0.000000 3.761240 
# 
# 
# High freq. dielectric constant tensor:
#      x y z
#    x 1.832430 0.000000 0.000000 
#    y 0.000000 1.792750 0.000000 
#    z 0.000000 0.000000 1.801030 
# 
# From -- ./inp_files/10203.got.cif
#   From: 2010.03.12/outbox.cif.g09.slc.cpg/sg69_6_cif.got.tgz:10203.got - 2010.04.10 23:52:46.
