data_PCOD8285174
_publ_section_title
;
Structure prediction by ZEFSAII (Michael W. Deem and Ramdas Pophale) SiO2 
 PCOD8285174
Probable space group: F M M M
;
_chemical_formula_sum "Si O2"
_cell_formula_units_Z 192
_cell_length_a 27.744145
_cell_length_b 29.554126
_cell_length_c 14.352113
_cell_angle_alpha 90.000000
_cell_angle_beta 90.000000
_cell_angle_gamma 90.000000
_cell_volume 11768.071847
_symmetry_space_group_name_H-M "F M M M"
_symmetry_group_IT_number 69
_symmetry_cell_setting 'orthorhombic'
loop_
_space_group_symop_operation_xyz
x,y,z
-x,-y,z
x,-y,-z
-x,y,-z
-x,-y,-z
x,y,-z
-x,y,z
x,-y,z
x,1/2+y,1/2+z
-x,1/2-y,1/2+z
x,1/2-y,1/2-z
-x,1/2+y,1/2-z
-x,1/2-y,1/2-z
x,1/2+y,1/2-z
-x,1/2+y,1/2+z
x,1/2-y,1/2+z
1/2+x,y,1/2+z
1/2-x,-y,1/2+z
1/2+x,-y,1/2-z
1/2-x,y,1/2-z
1/2-x,-y,1/2-z
1/2+x,y,1/2-z
1/2-x,y,1/2+z
1/2+x,-y,1/2+z
1/2+x,1/2+y,z
1/2-x,1/2-y,z
1/2+x,1/2-y,-z
1/2-x,1/2+y,-z
1/2-x,1/2-y,-z
1/2+x,1/2+y,-z
1/2-x,1/2+y,z
1/2+x,1/2-y,z
loop_
_atom_site_type_symbol
_atom_site_label
_atom_site_fract_x
_atom_site_fract_y
_atom_site_fract_z
Si Si1 0.823571 0.278801 0.000000
Si Si2 0.800250 0.855080 0.195107
Si Si3 0.556065 0.364794 0.391076
Si Si4 0.306752 0.451366 0.760296
Si Si5 0.618317 0.050159 0.105843
Si Si6 0.624515 0.205357 0.192411
Si Si7 0.225516 0.316520 0.500000
O O1 0.855455 0.280854 0.907975
O O2 0.793098 0.233846 0.000000
O O3 0.783899 0.319032 0.000000
O O4 0.750000 0.854165 0.250000
O O5 0.821278 0.906203 0.183933
O O6 0.836203 0.822226 0.249276
O O7 0.794981 0.840391 0.090120
O O8 0.565744 0.354208 0.500000
O O9 0.500000 0.368178 0.368874
O O10 0.579606 0.412630 0.361431
O O11 0.577677 0.325337 0.326140
O O12 0.323612 0.500000 0.805452
O O13 0.250000 0.452947 0.750000
O O14 0.331415 0.445676 0.659768
O O15 0.595277 0.000000 0.119356
O O16 0.632977 0.059117 0.000000
O O17 0.609338 0.250000 0.250000
#
# Coordination Sequence:
#
# PCOD8285174 Si02
#       7
#    16  32  32  32  32  32  16
#     4  11  22  34  51  76 108 141 176 216 259 308
#     4  11  21  34  52  78 105 142 176 212 258 306
#     4  10  21  36  54  77 105 137 178 225 272 323
#     4   9  18  33  49  71 106 140 172 206 244 308
#     4   9  17  31  54  80 107 141 175 212 263 314
#     4  12  22  35  55  76 106 140 178 217 264 316
#     4  11  22  34  51  78 110 138 177 221 256 304
#
# _framework density 16.315332000000001
#
# number of rings (size 3 to 8) (size 9 to 14) (size 15 to 20)
#    0.000    1.667    5.833    0.000    0.000    1.000 
#    6.000    2.083    0.000    0.000    0.000    0.000 
#    0.000    0.000    0.000    3.667    0.000    0.000 
#
# Total GULP energy -594815.550091 kJ/mol
# GULP energy per Si atom -12391.990627 kJ/mol
# Density = 1.627820 g / cm^3
# Si number density = 16.315332 Si / 1000 Ang^3
#
#
#
# Elastic Constant Matrix: (Units=GPa)
#
#
# Indices 1 2 3 4 5 6 
#
# 1 95.3518 53.9168 44.6568 0.0000 0.0000 0.0000
# 2 53.9168 139.6397 52.4314 0.0000 0.0000 0.0000
# 3 44.6568 52.4314 97.9922 0.0000 0.0000 0.0000
# 4 0.0000 0.0000 0.0000 31.4162 0.0000 0.0000
# 5 0.0000 0.0000 0.0000 0.0000 22.0989 0.0000
# 6 0.0000 0.0000 0.0000 0.0000 0.0000 3.5571
#
#
#
# Elastic Compliance Matrix: (Units=1/GPa)
#
#
# Indices 1 2 3 4 5 6 
#
# 1 0.014943 -0.004020 -0.004658 0.000000 0.000000 0.000000
# 2 -0.004020 0.010043 -0.003542 0.000000 0.000000 0.000000
# 3 -0.004658 -0.003542 0.014223 0.000000 0.000000 0.000000
# 4 0.000000 0.000000 0.000000 0.031831 0.000000 0.000000
# 5 0.000000 0.000000 0.000000 0.000000 0.045251 0.000000
# 6 0.000000 0.000000 0.000000 0.000000 0.000000 0.281126
#
#
# Mechanical properties :
#
#
# Convention : Reuss Voigt Hill
#
# Bulk Modulus (GPa) = 67.71478 70.55485 69.13482
# Shear Modulus (GPa) = 11.71564 23.54637 17.63100
#
# Velocity S-wave (km/s) = 2.68260 3.80308 3.29088
# Velocity P-wave (km/s) = 7.15465 7.91346 7.54360
#
# Compressibility (1/GPa) = 0.01476782
#
# Stress axis : x y z
#
# Youngs Moduli (GPa) = 66.92309 99.56774 70.30967
#
# Poissons Ratio (x) = 0.40030 0.32753
# Poissons Ratio (y) = 0.26906 0.24901
# Poissons Ratio (z) = 0.31176 0.35263
#
# Static dielectric constant tensor:
#      x y z
#    x 2.925060 0.000000 0.000000 
#    y 0.000000 3.656810 0.000000 
#    z 0.000000 0.000000 2.999120 
# 
# 
# High freq. dielectric constant tensor:
#      x y z
#    x 1.606140 0.000000 0.000000 
#    y 0.000000 1.652500 0.000000 
#    z 0.000000 0.000000 1.610230 
# 
# From -- ./inp_files/12533.got.cif
#   From: 2010.03.12/outbox.cif.g09.slc.cpg/sg69_7_cif.got.tgz:12533.got - 2010.04.10 23:52:46.
