data_PCOD8285099
_publ_section_title
;
Structure prediction by ZEFSAII (Michael W. Deem and Ramdas Pophale) SiO2 
 PCOD8285099
Probable space group: F M M M
;
_chemical_formula_sum "Si O2"
_cell_formula_units_Z 192
_cell_length_a 15.041035
_cell_length_b 27.049023
_cell_length_c 23.072772
_cell_angle_alpha 90.000000
_cell_angle_beta 90.000000
_cell_angle_gamma 90.000000
_cell_volume 9387.048884
_symmetry_space_group_name_H-M "F M M M"
_symmetry_group_IT_number 69
_symmetry_cell_setting 'orthorhombic'
loop_
_space_group_symop_operation_xyz
x,y,z
-x,-y,z
x,-y,-z
-x,y,-z
-x,-y,-z
x,y,-z
-x,y,z
x,-y,z
x,1/2+y,1/2+z
-x,1/2-y,1/2+z
x,1/2-y,1/2-z
-x,1/2+y,1/2-z
-x,1/2-y,1/2-z
x,1/2+y,1/2-z
-x,1/2+y,1/2+z
x,1/2-y,1/2+z
1/2+x,y,1/2+z
1/2-x,-y,1/2+z
1/2+x,-y,1/2-z
1/2-x,y,1/2-z
1/2-x,-y,1/2-z
1/2+x,y,1/2-z
1/2-x,y,1/2+z
1/2+x,-y,1/2+z
1/2+x,1/2+y,z
1/2-x,1/2-y,z
1/2+x,1/2-y,-z
1/2-x,1/2+y,-z
1/2-x,1/2-y,-z
1/2+x,1/2+y,-z
1/2-x,1/2+y,z
1/2+x,1/2-y,z
loop_
_atom_site_type_symbol
_atom_site_label
_atom_site_fract_x
_atom_site_fract_y
_atom_site_fract_z
Si Si1 0.599010 0.874264 0.500000
Si Si2 0.603085 0.883056 0.626162
Si Si3 0.759985 0.191485 0.373576
Si Si4 0.605745 0.444616 0.436217
Si Si5 0.900308 0.376133 0.834185
Si Si6 0.756483 0.307105 0.000000
Si Si7 0.352115 0.444057 0.233784
O O1 0.500000 0.853639 0.500000
O O2 0.616907 0.904142 0.560088
O O3 0.655428 0.824780 0.500000
O O4 0.500000 0.868035 0.636811
O O5 0.664572 0.834669 0.637119
O O6 0.632298 0.927393 0.667905
O O7 0.750000 0.250000 0.363474
O O8 0.833704 0.170531 0.328547
O O9 0.800103 0.177769 0.438218
O O10 0.637622 0.425523 0.500000
O O11 0.500000 0.445515 0.433809
O O12 0.642339 0.500000 0.425814
O O13 0.642226 0.409878 0.385407
O O14 0.906317 0.407595 0.775493
O O15 0.000000 0.357747 0.848799
O O16 0.750000 0.250000 0.000000
O O17 0.387548 0.500000 0.241016
O O18 0.250000 0.440313 0.250000
#
# Coordination Sequence:
#
# PCOD8285099 Si02
#       7
#    16  32  32  32  32  16  32
#     4   8  16  32  59  88 112 144 192 248 299 350
#     4  10  20  39  65  89 116 156 201 248 305 355
#     4  10  21  38  58  86 122 156 200 252 297 350
#     4   8  15  29  50  78 113 151 188 230 282 339
#     4  11  22  36  57  85 119 157 197 240 293 353
#     4   8  16  32  54  79 113 154 190 238 299 346
#     4  11  23  41  64  89 120 156 197 242 295 362
#
# _framework density 20.453711999999999
#
# number of rings (size 3 to 8) (size 9 to 14) (size 15 to 20)
#    0.000    2.333    1.667    1.500    1.167    2.667 
#    0.000    4.583    0.000    3.500    0.000    0.000 
#    0.000    0.000    0.000    0.000    0.000    0.000 
#
# Total GULP energy -594722.136670 kJ/mol
# GULP energy per Si atom -12390.044514 kJ/mol
# Density = 2.040716 g / cm^3
# Si number density = 20.453712 Si / 1000 Ang^3
#
#
#
# Elastic Constant Matrix: (Units=GPa)
#
#
# Indices 1 2 3 4 5 6 
#
# 1 86.9323 43.2326 36.9102 0.0000 0.0000 0.0000
# 2 43.2326 104.0308 58.8622 0.0000 0.0000 0.0000
# 3 36.9102 58.8622 121.9325 0.0000 0.0000 0.0000
# 4 0.0000 0.0000 0.0000 27.5817 0.0000 0.0000
# 5 0.0000 0.0000 0.0000 0.0000 26.2982 0.0000
# 6 0.0000 0.0000 0.0000 0.0000 0.0000 14.7282
#
#
#
# Elastic Compliance Matrix: (Units=1/GPa)
#
#
# Indices 1 2 3 4 5 6 
#
# 1 0.014877 -0.005000 -0.002090 0.000000 0.000000 0.000000
# 2 -0.005000 0.014905 -0.005682 0.000000 0.000000 0.000000
# 3 -0.002090 -0.005682 0.011577 0.000000 0.000000 0.000000
# 4 0.000000 0.000000 0.000000 0.036256 0.000000 0.000000
# 5 0.000000 0.000000 0.000000 0.000000 0.038025 0.000000
# 6 0.000000 0.000000 0.000000 0.000000 0.000000 0.067897
#
#
# Mechanical properties :
#
#
# Convention : Reuss Voigt Hill
#
# Bulk Modulus (GPa) = 63.22802 65.65618 64.44210
# Shear Modulus (GPa) = 23.32604 25.31433 24.32018
#
# Velocity S-wave (km/s) = 3.38069 3.52183 3.45198
# Velocity P-wave (km/s) = 6.79843 6.97906 6.88933
#
# Compressibility (1/GPa) = 0.01581577
#
# Stress axis : x y z
#
# Youngs Moduli (GPa) = 67.21743 67.08986 86.38040
#
# Poissons Ratio (x) = 0.33546 0.18050
# Poissons Ratio (y) = 0.33610 0.49080
# Poissons Ratio (z) = 0.14046 0.38120
#
# Static dielectric constant tensor:
#      x y z
#    x 3.479130 0.000000 0.000000 
#    y 0.000000 3.479680 0.000000 
#    z 0.000000 0.000000 4.848030 
# 
# 
# High freq. dielectric constant tensor:
#      x y z
#    x 1.789420 0.000000 0.000000 
#    y 0.000000 1.772580 0.000000 
#    z 0.000000 0.000000 1.811470 
# 
# From -- ./inp_files/36073.got.cif
#   From: 2010.03.12/outbox.cif.g09.slc.cpg/sg69_19_cif.got.tgz:36073.got - 2010.04.10 23:52:46.
