data_PCOD8285593
_publ_section_title
;
Structure prediction by ZEFSAII (Michael W. Deem and Ramdas Pophale) SiO2 
 PCOD8285593
Probable space group: F M M M
;
_chemical_formula_sum "Si O2"
_cell_formula_units_Z 176
_cell_length_a 23.976270
_cell_length_b 14.851143
_cell_length_c 23.391120
_cell_angle_alpha 90.000000
_cell_angle_beta 90.000000
_cell_angle_gamma 90.000000
_cell_volume 8328.993390
_symmetry_space_group_name_H-M "F M M M"
_symmetry_group_IT_number 69
_symmetry_cell_setting 'orthorhombic'
loop_
_space_group_symop_operation_xyz
x,y,z
-x,-y,z
x,-y,-z
-x,y,-z
-x,-y,-z
x,y,-z
-x,y,z
x,-y,z
x,1/2+y,1/2+z
-x,1/2-y,1/2+z
x,1/2-y,1/2-z
-x,1/2+y,1/2-z
-x,1/2-y,1/2-z
x,1/2+y,1/2-z
-x,1/2+y,1/2+z
x,1/2-y,1/2+z
1/2+x,y,1/2+z
1/2-x,-y,1/2+z
1/2+x,-y,1/2-z
1/2-x,y,1/2-z
1/2-x,-y,1/2-z
1/2+x,y,1/2-z
1/2-x,y,1/2+z
1/2+x,-y,1/2+z
1/2+x,1/2+y,z
1/2-x,1/2-y,z
1/2+x,1/2-y,-z
1/2-x,1/2+y,-z
1/2-x,1/2-y,-z
1/2+x,1/2+y,-z
1/2-x,1/2+y,z
1/2+x,1/2-y,z
loop_
_atom_site_type_symbol
_atom_site_label
_atom_site_fract_x
_atom_site_fract_y
_atom_site_fract_z
Si Si1 0.101870 0.352222 0.234231
Si Si2 0.250000 0.750000 0.395775
Si Si3 0.371954 0.239259 0.435561
Si Si4 0.779109 0.101697 0.693654
Si Si5 0.936445 0.398921 0.643328
Si Si6 0.938032 0.896357 0.381816
O O1 0.114410 0.250000 0.250000
O O2 0.155295 0.396570 0.204467
O O3 0.082755 0.403481 0.290862
O O4 0.056451 0.361960 0.184040
O O5 0.304892 0.763732 0.433989
O O6 0.241104 0.838688 0.358540
O O7 0.391180 0.217990 0.500000
O O8 0.396938 0.164978 0.393237
O O9 0.394038 0.337555 0.417612
O O10 0.750000 0.140441 0.750000
O O11 0.759561 0.000000 0.680580
O O12 0.932178 0.500000 0.618739
O O13 0.000000 0.363127 0.639643
O O14 0.000000 0.885641 0.408205
O O15 0.918275 0.000000 0.385106
#
# Coordination Sequence:
#
# PCOD8285593 Si02
#       6
#    32  16  32  32  32  32
#     4  12  21  37  65 103 139 171 210 262 330 407
#     4  12  24  44  66  92 128 173 227 276 332 386
#     4  12  27  46  68  93 127 176 235 286 330 381
#     4  11  22  36  61  96 136 176 213 261 325 398
#     4  11  24  42  67 100 137 175 216 266 329 401
#     4  11  24  43  69 101 135 171 215 271 337 405
#
# _framework density 21.131005999999999
#
# number of rings (size 3 to 8) (size 9 to 14) (size 15 to 20)
#    0.000    0.545    3.636    5.455    0.000    6.545 
#    0.000    1.818    0.000    3.273    0.000    0.000 
#    0.000    0.000    0.000    0.000    0.000    0.000 
#
# Total GULP energy -545714.272461 kJ/mol
# GULP energy per Si atom -12402.597101 kJ/mol
# Density = 2.108291 g / cm^3
# Si number density = 21.131006 Si / 1000 Ang^3
#
#
#
# Elastic Constant Matrix: (Units=GPa)
#
#
# Indices 1 2 3 4 5 6 
#
# 1 122.5643 36.0400 32.2962 0.0000 0.0000 0.0000
# 2 36.0400 97.5913 26.6700 0.0000 0.0000 0.0000
# 3 32.2962 26.6700 103.4139 0.0000 0.0000 0.0000
# 4 0.0000 0.0000 0.0000 6.5919 0.0000 0.0000
# 5 0.0000 0.0000 0.0000 0.0000 18.5135 0.0000
# 6 0.0000 0.0000 0.0000 0.0000 0.0000 24.6863
#
#
#
# Elastic Compliance Matrix: (Units=1/GPa)
#
#
# Indices 1 2 3 4 5 6 
#
# 1 0.009614 -0.002937 -0.002245 0.000000 0.000000 0.000000
# 2 -0.002937 0.011921 -0.002157 0.000000 0.000000 0.000000
# 3 -0.002245 -0.002157 0.010927 0.000000 0.000000 0.000000
# 4 0.000000 0.000000 0.000000 0.151702 0.000000 0.000000
# 5 0.000000 0.000000 0.000000 0.000000 0.054015 0.000000
# 6 0.000000 0.000000 0.000000 0.000000 0.000000 0.040508
#
#
# Mechanical properties :
#
#
# Convention : Reuss Voigt Hill
#
# Bulk Modulus (GPa) = 56.22998 57.06465 56.64731
# Shear Modulus (GPa) = 16.70601 25.19590 20.95096
#
# Velocity S-wave (km/s) = 2.81480 3.45681 3.15219
# Velocity P-wave (km/s) = 6.10181 6.55717 6.33358
#
# Compressibility (1/GPa) = 0.01778411
#
# Stress axis : x y z
#
# Youngs Moduli (GPa) = 104.01309 83.88611 91.51359
#
# Poissons Ratio (x) = 0.24637 0.20546
# Poissons Ratio (y) = 0.30548 0.19741
# Poissons Ratio (z) = 0.23352 0.18095
#
# Static dielectric constant tensor:
#      x y z
#    x 3.921570 0.000000 0.000000 
#    y 0.000000 4.026840 0.000000 
#    z 0.000000 0.000000 3.665430 
# 
# 
# High freq. dielectric constant tensor:
#      x y z
#    x 1.839890 0.000000 0.000000 
#    y 0.000000 1.840310 0.000000 
#    z 0.000000 0.000000 1.807940 
# 
# From -- ./inp_files/37842.got.cif
#   From: 2010.03.12/outbox.cif.g09.slc.cpg/sg69_19_cif.got.tgz:37842.got - 2010.04.10 23:52:46.
