data_PCOD8285686
_publ_section_title
;
Structure prediction by ZEFSAII (Michael W. Deem and Ramdas Pophale) SiO2 
 PCOD8285686
Probable space group: F M M M
;
_chemical_formula_sum "Si O2"
_cell_formula_units_Z 144
_cell_length_a 32.150914
_cell_length_b 27.106652
_cell_length_c 9.664668
_cell_angle_alpha 90.000000
_cell_angle_beta 90.000000
_cell_angle_gamma 90.000000
_cell_volume 8422.793315
_symmetry_space_group_name_H-M "F M M M"
_symmetry_group_IT_number 69
_symmetry_cell_setting 'orthorhombic'
loop_
_space_group_symop_operation_xyz
x,y,z
-x,-y,z
x,-y,-z
-x,y,-z
-x,-y,-z
x,y,-z
-x,y,z
x,-y,z
x,1/2+y,1/2+z
-x,1/2-y,1/2+z
x,1/2-y,1/2-z
-x,1/2+y,1/2-z
-x,1/2-y,1/2-z
x,1/2+y,1/2-z
-x,1/2+y,1/2+z
x,1/2-y,1/2+z
1/2+x,y,1/2+z
1/2-x,-y,1/2+z
1/2+x,-y,1/2-z
1/2-x,y,1/2-z
1/2-x,-y,1/2-z
1/2+x,y,1/2-z
1/2-x,y,1/2+z
1/2+x,-y,1/2+z
1/2+x,1/2+y,z
1/2-x,1/2-y,z
1/2+x,1/2-y,-z
1/2-x,1/2+y,-z
1/2-x,1/2-y,-z
1/2+x,1/2+y,-z
1/2-x,1/2+y,z
1/2+x,1/2-y,z
loop_
_atom_site_type_symbol
_atom_site_label
_atom_site_fract_x
_atom_site_fract_y
_atom_site_fract_z
Si Si1 0.125157 0.797157 0.339877
Si Si2 0.415646 0.397057 0.335950
Si Si3 0.500000 0.556251 0.665193
Si Si4 0.211505 0.650851 0.160540
Si Si5 0.832917 0.945686 0.664603
O O1 0.119164 0.783661 0.500000
O O2 0.113742 0.750000 0.250000
O O3 0.093362 0.840421 0.294577
O O4 0.172385 0.813931 0.311932
O O5 0.416165 0.401657 0.500000
O O6 0.459497 0.415648 0.274580
O O7 0.378608 0.431612 0.277410
O O8 0.500000 0.500000 0.718227
O O9 0.500000 0.557539 0.500000
O O10 0.250000 0.670749 0.250000
O O11 0.200536 0.595216 0.211592
O O12 0.224152 0.651568 0.000000
O O13 0.835095 0.945014 0.500000
O O14 0.820263 0.000000 0.720555
#
# Coordination Sequence:
#
# PCOD8285686 Si02
#       5
#    32  32  16  32  32
#     4   9  18  32  47  62  84 115 146 177 216 257
#     4   8  14  24  38  60  89 115 141 175 212 250
#     4   9  14  20  37  66  95 119 141 169 208 251
#     4   9  18  30  43  62  86 110 140 179 218 255
#     4   8  13  23  39  57  81 114 144 169 206 257
#
# _framework density 17.096465999999999
#
# number of rings (size 3 to 8) (size 9 to 14) (size 15 to 20)
#    0.000    3.444    0.000    3.333    0.000    4.444 
#    0.000    2.778    0.000    0.000    0.000    0.000 
#    0.000    3.556    0.000    0.000    0.000    0.444 
#
# Total GULP energy -446152.201060 kJ/mol
# GULP energy per Si atom -12393.116696 kJ/mol
# Density = 1.705755 g / cm^3
# Si number density = 17.096466 Si / 1000 Ang^3
#
#
#
# Elastic Constant Matrix: (Units=GPa)
#
#
# Indices 1 2 3 4 5 6 
#
# 1 97.5953 34.2653 24.9327 0.0086 -0.0008 -0.0075
# 2 34.2653 110.9889 28.7333 0.0264 -0.0067 -0.0178
# 3 24.9327 28.7333 25.1279 0.0598 -0.0162 -0.0303
# 4 0.0086 0.0264 0.0598 20.7858 -0.0086 -0.0148
# 5 -0.0008 -0.0067 -0.0162 -0.0086 11.7417 0.0033
# 6 -0.0075 -0.0178 -0.0303 -0.0148 0.0033 16.2222
#
#
#
# Elastic Compliance Matrix: (Units=1/GPa)
#
#
# Indices 1 2 3 4 5 6 
#
# 1 0.013806 -0.001017 -0.012536 0.000032 -0.000017 -0.000018
# 2 -0.001017 0.012874 -0.013712 0.000024 -0.000012 -0.000012
# 3 -0.012536 -0.013712 0.067915 -0.000173 0.000085 0.000106
# 4 0.000032 0.000024 -0.000173 0.048110 0.000035 0.000044
# 5 -0.000017 -0.000012 0.000085 0.000035 0.085167 -0.000017
# 6 -0.000018 -0.000012 0.000106 0.000044 -0.000017 0.061644
#
#
# Mechanical properties :
#
#
# Convention : Reuss Voigt Hill
#
# Bulk Modulus (GPa) = 24.95944 45.50827 35.23386
# Shear Modulus (GPa) = 13.98992 19.46867 16.72930
#
# Velocity S-wave (km/s) = 2.86369 3.37820 3.13153
# Velocity P-wave (km/s) = 5.05620 6.47245 5.80766
#
# Compressibility (1/GPa) = 0.04006499
#
# Stress axis : x y z
#
# Youngs Moduli (GPa) = 72.43225 77.67820 14.72431
#
# Poissons Ratio (x) = 0.07899 0.18458
# Poissons Ratio (y) = 0.07366 0.20190
# Poissons Ratio (z) = 0.90801 1.06511
#
# Static dielectric constant tensor:
#      x y z
#    x 3.317350 0.000010 0.000010 
#    y 0.000010 3.346320 -0.000020 
#    z 0.000010 -0.000020 2.569960 
# 
# 
# High freq. dielectric constant tensor:
#      x y z
#    x 1.656350 0.000000 0.000000 
#    y 0.000000 1.667300 0.000000 
#    z 0.000000 0.000000 1.592660 
# 
# From -- ./inp_files/5557.got.cif
#   From: 2010.03.12/outbox.cif.g09.slc.cpg/sg69_3_cif.got.tgz:5557.got - 2010.04.10 23:52:46.
