data_PCOD8285293
_publ_section_title
;
Structure prediction by ZEFSAII (Michael W. Deem and Ramdas Pophale) SiO2 
 PCOD8285293
Probable space group: F M M M
;
_chemical_formula_sum "Si O2"
_cell_formula_units_Z 208
_cell_length_a 31.097081
_cell_length_b 17.545597
_cell_length_c 20.485923
_cell_angle_alpha 90.000000
_cell_angle_beta 90.000000
_cell_angle_gamma 90.000000
_cell_volume 11177.464799
_symmetry_space_group_name_H-M "F M M M"
_symmetry_group_IT_number 69
_symmetry_cell_setting 'orthorhombic'
loop_
_space_group_symop_operation_xyz
x,y,z
-x,-y,z
x,-y,-z
-x,y,-z
-x,-y,-z
x,y,-z
-x,y,z
x,-y,z
x,1/2+y,1/2+z
-x,1/2-y,1/2+z
x,1/2-y,1/2-z
-x,1/2+y,1/2-z
-x,1/2-y,1/2-z
x,1/2+y,1/2-z
-x,1/2+y,1/2+z
x,1/2-y,1/2+z
1/2+x,y,1/2+z
1/2-x,-y,1/2+z
1/2+x,-y,1/2-z
1/2-x,y,1/2-z
1/2-x,-y,1/2-z
1/2+x,y,1/2-z
1/2-x,y,1/2+z
1/2+x,-y,1/2+z
1/2+x,1/2+y,z
1/2-x,1/2-y,z
1/2+x,1/2-y,-z
1/2-x,1/2+y,-z
1/2-x,1/2-y,-z
1/2+x,1/2+y,-z
1/2-x,1/2+y,z
1/2+x,1/2-y,z
loop_
_atom_site_type_symbol
_atom_site_label
_atom_site_fract_x
_atom_site_fract_y
_atom_site_fract_z
Si Si1 0.834255 0.089990 0.341183
Si Si2 0.748313 0.662820 0.172796
Si Si3 0.085331 0.088074 0.424399
Si Si4 0.164721 0.087944 0.193692
Si Si5 0.000000 0.195354 0.813183
Si Si6 0.950612 0.911400 0.000000
Si Si7 0.571937 0.589727 0.859649
Si Si8 0.000000 0.181688 0.423594
O O1 0.787944 0.122141 0.364531
O O2 0.873999 0.121537 0.384147
O O3 0.841096 0.118832 0.267287
O O4 0.832806 0.000000 0.347897
O O5 0.750000 0.647971 0.250000
O O6 0.750000 0.750000 0.152978
O O7 0.702029 0.629410 0.151895
O O8 0.096784 0.097831 0.500000
O O9 0.042165 0.132849 0.405770
O O10 0.077031 0.000000 0.406422
O O11 0.120668 0.104336 0.158012
O O12 0.177253 0.000000 0.196152
O O13 0.000000 0.250000 0.750000
O O14 0.041446 0.139607 0.812536
O O15 0.000000 0.243520 0.879617
O O16 0.931073 0.877897 0.933488
O O17 0.000000 0.891109 0.000000
O O18 0.941061 0.000000 0.000000
O O19 0.558965 0.500000 0.853839
O O20 0.000000 0.205044 0.500000
#
# Coordination Sequence:
#
# PCOD8285293 Si02
#       8
#    32  32  32  32  16  16  32  16
#     4   9  17  30  53  77 101 133 174 219 267 321
#     4   9  17  30  49  75 104 138 170 209 265 330
#     4   9  18  35  57  78 101 139 188 229 264 315
#     4   9  18  32  52  79 105 133 173 224 271 320
#     4  12  27  38  52  85 120 147 179 231 283 335
#     4   9  16  32  62  84  97 134 190 236 265 319
#     4  10  21  39  61  81 108 145 190 232 275 328
#     4  10  23  39  55  77 112 150 185 226 275 332
#
# _framework density 18.608871000000001
#
# number of rings (size 3 to 8) (size 9 to 14) (size 15 to 20)
#    0.000    2.538    0.769    0.923    3.231    4.000 
#    2.769    0.769    1.692    0.462    0.000    0.000 
#    0.000    0.000    0.000    0.000    0.000    0.000 
#
# Total GULP energy -644601.662112 kJ/mol
# GULP energy per Si atom -12396.185810 kJ/mol
# Density = 1.856652 g / cm^3
# Si number density = 18.608871 Si / 1000 Ang^3
#
#
#
# Elastic Constant Matrix: (Units=GPa)
#
#
# Indices 1 2 3 4 5 6 
#
# 1 179.0900 64.2268 60.9483 0.0000 0.0000 0.0000
# 2 64.2268 65.7991 33.6742 0.0000 0.0000 0.0000
# 3 60.9483 33.6742 70.2152 0.0000 0.0000 0.0000
# 4 0.0000 0.0000 0.0000 18.6087 0.0000 0.0000
# 5 0.0000 0.0000 0.0000 0.0000 28.0825 0.0000
# 6 0.0000 0.0000 0.0000 0.0000 0.0000 20.2794
#
#
#
# Elastic Compliance Matrix: (Units=1/GPa)
#
#
# Indices 1 2 3 4 5 6 
#
# 1 0.009851 -0.006943 -0.005221 0.000000 0.000000 0.000000
# 2 -0.006943 0.025036 -0.005980 0.000000 0.000000 0.000000
# 3 -0.005221 -0.005980 0.021641 0.000000 0.000000 0.000000
# 4 0.000000 0.000000 0.000000 0.053738 0.000000 0.000000
# 5 0.000000 0.000000 0.000000 0.000000 0.035609 0.000000
# 6 0.000000 0.000000 0.000000 0.000000 0.000000 0.049311
#
#
# Mechanical properties :
#
#
# Convention : Reuss Voigt Hill
#
# Bulk Modulus (GPa) = 49.40687 70.31144 59.85915
# Shear Modulus (GPa) = 20.98902 23.81113 22.40007
#
# Velocity S-wave (km/s) = 3.36207 3.58097 3.47325
# Velocity P-wave (km/s) = 6.45594 7.41375 6.95136
#
# Compressibility (1/GPa) = 0.02024010
#
# Stress axis : x y z
#
# Youngs Moduli (GPa) = 101.51693 39.94328 46.20820
#
# Poissons Ratio (x) = 0.27734 0.24123
# Poissons Ratio (y) = 0.70488 0.27631
# Poissons Ratio (z) = 0.52997 0.23884
#
# Static dielectric constant tensor:
#      x y z
#    x 3.640750 0.000000 0.000000 
#    y 0.000000 3.312420 0.000000 
#    z 0.000000 0.000000 3.298420 
# 
# 
# High freq. dielectric constant tensor:
#      x y z
#    x 1.735650 0.000000 0.000000 
#    y 0.000000 1.714500 0.000000 
#    z 0.000000 0.000000 1.693070 
# 
# From -- ./inp_files/34039.got.cif
#   From: 2010.03.12/outbox.cif.g09.slc.cpg/sg69_18_cif.got.tgz:34039.got - 2010.04.10 23:52:46.
