data_PCOD8285518
_publ_section_title
;
Structure prediction by ZEFSAII (Michael W. Deem and Ramdas Pophale) SiO2 
 PCOD8285518
Probable space group: F M M M
;
_chemical_formula_sum "Si O2"
_cell_formula_units_Z 160
_cell_length_a 18.957202
_cell_length_b 20.557331
_cell_length_c 26.300917
_cell_angle_alpha 90.000000
_cell_angle_beta 90.000000
_cell_angle_gamma 90.000000
_cell_volume 10249.716592
_symmetry_space_group_name_H-M "F M M M"
_symmetry_group_IT_number 69
_symmetry_cell_setting 'orthorhombic'
loop_
_space_group_symop_operation_xyz
x,y,z
-x,-y,z
x,-y,-z
-x,y,-z
-x,-y,-z
x,y,-z
-x,y,z
x,-y,z
x,1/2+y,1/2+z
-x,1/2-y,1/2+z
x,1/2-y,1/2-z
-x,1/2+y,1/2-z
-x,1/2-y,1/2-z
x,1/2+y,1/2-z
-x,1/2+y,1/2+z
x,1/2-y,1/2+z
1/2+x,y,1/2+z
1/2-x,-y,1/2+z
1/2+x,-y,1/2-z
1/2-x,y,1/2-z
1/2-x,-y,1/2-z
1/2+x,y,1/2-z
1/2-x,y,1/2+z
1/2+x,-y,1/2+z
1/2+x,1/2+y,z
1/2-x,1/2-y,z
1/2+x,1/2-y,-z
1/2-x,1/2+y,-z
1/2-x,1/2-y,-z
1/2+x,1/2+y,-z
1/2-x,1/2+y,z
1/2+x,1/2-y,z
loop_
_atom_site_type_symbol
_atom_site_label
_atom_site_fract_x
_atom_site_fract_y
_atom_site_fract_z
Si Si1 0.333504 0.750000 0.307483
Si Si2 0.171374 0.115402 0.148418
Si Si3 0.250000 0.422317 0.942514
Si Si4 0.671374 0.615402 0.351582
Si Si5 0.079932 0.000000 0.190028
Si Si6 0.579932 0.000000 0.809973
O O1 0.364300 0.750000 0.250000
O O2 0.250000 0.750000 0.305979
O O3 0.359731 0.813593 0.338080
O O4 0.359731 0.686407 0.338080
O O5 0.180530 0.105104 0.087204
O O6 0.250000 0.105775 0.173313
O O7 0.117509 0.063980 0.170123
O O8 0.250000 0.500000 0.940646
O O9 0.180531 0.394895 0.912796
O O10 0.250001 0.395995 0.000000
O O11 0.617509 0.563980 0.329878
O O12 0.082828 0.000000 0.250000
O O13 0.000000 0.000000 0.169842
O O14 0.500000 0.000000 0.830158
#
# Coordination Sequence:
#
# PCOD8285518 Si02
#       6
#    32  32  32  32  16  16
#     4   9  16  26  45  71 101 120 154 196 227 279
#     4   9  17  32  48  72  89 129 156 192 236 278
#     4   9  16  29  50  73  95 119 155 203 244 269
#     4   9  17  32  48  72  89 129 156 192 236 278
#     4  11  21  31  45  68  98 126 159 197 231 277
#     4  11  21  31  45  68  98 126 159 197 231 277
#
# _framework density 15.610188000000001
#
# number of rings (size 3 to 8) (size 9 to 14) (size 15 to 20)
#    1.200    1.400    2.000    1.800    0.000    3.200 
#    0.000    3.000    0.000    6.000    0.000    0.000 
#    0.000    3.200    0.000    0.000    0.000    0.000 
#
# Total GULP energy -495539.984523 kJ/mol
# GULP energy per Si atom -12388.499613 kJ/mol
# Density = 1.557466 g / cm^3
# Si number density = 15.610188 Si / 1000 Ang^3
#
#
#
# Elastic Constant Matrix: (Units=GPa)
#
#
# Indices 1 2 3 4 5 6 
#
# 1 70.3107 48.8313 28.5563 0.0000 0.0000 0.0000
# 2 48.8313 154.4365 66.3850 0.0000 0.0000 0.0000
# 3 28.5563 66.3850 114.3427 0.0000 0.0000 0.0000
# 4 0.0000 0.0000 0.0000 -11.6543 0.0000 0.0000
# 5 0.0000 0.0000 0.0000 0.0000 12.2450 0.0000
# 6 0.0000 0.0000 0.0000 0.0000 0.0000 -0.0077
#
#
#
# Elastic Compliance Matrix: (Units=1/GPa)
#
#
# Indices 1 2 3 4 5 6 
#
# 1 0.018449 -0.005134 -0.001627 0.000000 0.000000 0.000000
# 2 -0.005134 0.010057 -0.004557 0.000000 0.000000 0.000000
# 3 -0.001627 -0.004557 0.011798 0.000000 0.000000 0.000000
# 4 0.000000 0.000000 0.000000 -0.085805 0.000000 0.000000
# 5 0.000000 0.000000 0.000000 0.000000 0.081666 0.000000
# 6 0.000000 0.000000 0.000000 0.000000 0.000000**********
#
#
# Mechanical properties :
#
#
# Convention : Reuss Voigt Hill
#
# Bulk Modulus (GPa) = 56.59836 69.62613 63.11224
# Shear Modulus (GPa) = -0.03839 13.13775 6.54968
#
# Velocity S-wave (km/s) = -0.15698 2.90421 2.05058
# Velocity P-wave (km/s) = 6.02521 7.47969 6.79150
#
# Compressibility (1/GPa) = 0.01766836
#
# Stress axis : x y z
#
# Youngs Moduli (GPa) = 54.20365 99.43043 84.76359
#
# Poissons Ratio (x) = 0.51049 0.13789
# Poissons Ratio (y) = 0.27829 0.38625
# Poissons Ratio (z) = 0.08818 0.45309
#
# Static dielectric constant tensor:
#      x y z
#    x 2.676010 0.000000 0.000000 
#    y 0.000000 3.453230 0.000000 
#    z 0.000000 0.000000 2.994800 
# 
# 
# High freq. dielectric constant tensor:
#      x y z
#    x 1.552650 0.000000 0.000000 
#    y 0.000000 1.612140 0.000000 
#    z 0.000000 0.000000 1.585980 
# 
# From -- ./inp_files/41795.got.cif
#   From: 2010.03.12/outbox.cif.g09.slc.cpg/sg69_21_cif.got.tgz:41795.got - 2010.04.10 23:52:46.
