data_PCOD8285744
_publ_section_title
;
Structure prediction by ZEFSAII (Michael W. Deem and Ramdas Pophale) SiO2 
 PCOD8285744
Probable space group: F D D D
;
_chemical_formula_sum "Si O2"
_cell_formula_units_Z 216
_cell_length_a 28.017360
_cell_length_b 19.876776
_cell_length_c 22.042253
_cell_angle_alpha 90.000000
_cell_angle_beta 90.000000
_cell_angle_gamma 90.000000
_cell_volume 12275.215830
_symmetry_space_group_name_H-M "F D D D"
_symmetry_group_IT_number 70
_space_group.IT_coordinate_system_code '2'
_symmetry_cell_setting 'orthorhombic'
loop_
_space_group_symop_operation_xyz
x,y,z
1/4-x,1/4-y,z
x,1/4-y,1/4-z
1/4-x,y,1/4-z
-x,-y,-z
3/4+x,3/4+y,-z
-x,3/4+y,3/4+z
3/4+x,-y,3/4+z
x,1/2+y,1/2+z
1/4-x,3/4-y,1/2+z
x,3/4-y,3/4-z
1/4-x,1/2+y,3/4-z
-x,1/2-y,1/2-z
3/4+x,1/4+y,1/2-z
-x,1/4+y,1/4+z
3/4+x,1/2-y,1/4+z
1/2+x,y,1/2+z
3/4-x,1/4-y,1/2+z
1/2+x,1/4-y,3/4-z
3/4-x,y,3/4-z
1/2-x,-y,1/2-z
1/4+x,3/4+y,1/2-z
1/2-x,3/4+y,1/4+z
1/4+x,-y,1/4+z
1/2+x,1/2+y,z
3/4-x,3/4-y,z
1/2+x,3/4-y,1/4-z
3/4-x,1/2+y,1/4-z
1/2-x,1/2-y,-z
1/4+x,1/4+y,-z
1/2-x,1/4+y,3/4+z
1/4+x,1/2-y,3/4+z
loop_
_atom_site_type_symbol
_atom_site_label
_atom_site_fract_x
_atom_site_fract_y
_atom_site_fract_z
Si Si1 0.321883 0.378866 0.597490
Si Si2 0.759783 0.257616 0.070003
Si Si3 0.075217 0.439993 0.150731
Si Si4 0.005019 0.625000 0.125000
Si Si5 0.169178 0.673682 0.217122
Si Si6 0.216538 0.072441 0.175341
Si Si7 0.625000 0.125000 0.625000
Si Si8 0.994121 0.671627 0.809207
O O1 0.375000 0.375000 0.624168
O O2 0.305036 0.305084 0.577855
O O3 0.320593 0.427071 0.538768
O O4 0.288822 0.405708 0.649620
O O5 0.710546 0.284657 0.098623
O O6 0.776167 0.188618 0.103531
O O7 0.750000 0.250000 0.000000
O O8 0.125000 0.411607 0.125000
O O9 0.090023 0.500527 0.195459
O O10 0.050086 0.379126 0.185847
O O11 0.035605 0.607160 0.183875
O O12 0.125000 0.625000 0.201708
O O13 0.239277 0.125000 0.125000
O O14 0.158825 0.080178 0.169485
O O15 0.237447 0.088446 0.241143
O O16 0.228065 0.994188 0.166110
#
# Coordination Sequence:
#
# PCOD8285744 Si02
#       8
#    32  32  32  16  32  32   8  32
#     4  10  22  34  57  81 118 158 187 236 299 357
#     4  10  19  36  52  82 115 150 190 235 277 342
#     4  10  22  33  57  88 117 154 197 243 290 357
#     4  10  17  30  56  65 116 146 195 228 267 314
#     4  10  18  30  51  83 110 160 190 226 276 347
#     4   9  21  40  66  88 110 153 201 256 315 380
#     4   8  20  36  72  90 104 160 204 242 316 392
#     4  10  22  40  60  89 121 148 201 262 308 364
#
# _framework density 17.596432
#
# number of rings (size 3 to 8) (size 9 to 14) (size 15 to 20)
#    0.444    1.778    1.481    2.000    6.222    0.000 
#    0.000    0.000    8.148    0.000    0.000    0.000 
#    0.000    0.000    0.000    0.000    0.000    0.000 
#
# Total GULP energy -669171.523020 kJ/mol
# GULP energy per Si atom -12392.065241 kJ/mol
# Density = 1.755638 g / cm^3
# Si number density = 17.596432 Si / 1000 Ang^3
#
#
#
# Elastic Constant Matrix: (Units=GPa)
#
#
# Indices 1 2 3 4 5 6 
#
# 1 109.0494 62.5434 38.6386 0.0000 0.0000 0.0000
# 2 62.5434 136.0636 63.1353 0.0000 0.0000 0.0000
# 3 38.6386 63.1353 87.9371 0.0000 0.0000 0.0000
# 4 0.0000 0.0000 0.0000 30.7092 0.0000 0.0000
# 5 0.0000 0.0000 0.0000 0.0000 21.3551 0.0000
# 6 0.0000 0.0000 0.0000 0.0000 0.0000 16.3471
#
#
#
# Elastic Compliance Matrix: (Units=1/GPa)
#
#
# Indices 1 2 3 4 5 6 
#
# 1 0.012703 -0.004872 -0.002083 0.000000 0.000000 0.000000
# 2 -0.004872 0.012890 -0.007114 0.000000 0.000000 0.000000
# 3 -0.002083 -0.007114 0.017394 0.000000 0.000000 0.000000
# 4 0.000000 0.000000 0.000000 0.032564 0.000000 0.000000
# 5 0.000000 0.000000 0.000000 0.000000 0.046827 0.000000
# 6 0.000000 0.000000 0.000000 0.000000 0.000000 0.061173
#
#
# Mechanical properties :
#
#
# Convention : Reuss Voigt Hill
#
# Bulk Modulus (GPa) = 67.34627 73.52053 70.43340
# Shear Modulus (GPa) = 23.07989 24.93113 24.00551
#
# Velocity S-wave (km/s) = 3.62556 3.76816 3.69755
# Velocity P-wave (km/s) = 7.47543 7.79771 7.63827
#
# Compressibility (1/GPa) = 0.01484863
#
# Stress axis : x y z
#
# Youngs Moduli (GPa) = 78.72319 77.57989 57.48950
#
# Poissons Ratio (x) = 0.37799 0.11977
# Poissons Ratio (y) = 0.38356 0.40896
# Poissons Ratio (z) = 0.16401 0.55188
#
# Static dielectric constant tensor:
#      x y z
#    x 3.152860 0.000000 0.000000 
#    y 0.000000 3.364830 0.000000 
#    z 0.000000 0.000000 3.391990 
# 
# 
# High freq. dielectric constant tensor:
#      x y z
#    x 1.670340 0.000000 0.000000 
#    y 0.000000 1.683420 0.000000 
#    z 0.000000 0.000000 1.683960 
# 
# From -- ./inp_files/47105.got.cif
#   From: 2010.03.12/outbox.cif.g09.slc.cpg/sg70_24_cif.got.tgz:47105.got - 2010.04.16 13:46:32.
