data_PCOD8285412
_publ_section_title
;
Structure prediction by ZEFSAII (Michael W. Deem and Ramdas Pophale) SiO2 
 PCOD8285412
Probable space group: F M M M
;
_chemical_formula_sum "Si O2"
_cell_formula_units_Z 176
_cell_length_a 13.759234
_cell_length_b 26.967663
_cell_length_c 23.433495
_cell_angle_alpha 90.000000
_cell_angle_beta 90.000000
_cell_angle_gamma 90.000000
_cell_volume 8695.101091
_symmetry_space_group_name_H-M "F M M M"
_symmetry_group_IT_number 69
_symmetry_cell_setting 'orthorhombic'
loop_
_space_group_symop_operation_xyz
x,y,z
-x,-y,z
x,-y,-z
-x,y,-z
-x,-y,-z
x,y,-z
-x,y,z
x,-y,z
x,1/2+y,1/2+z
-x,1/2-y,1/2+z
x,1/2-y,1/2-z
-x,1/2+y,1/2-z
-x,1/2-y,1/2-z
x,1/2+y,1/2-z
-x,1/2+y,1/2+z
x,1/2-y,1/2+z
1/2+x,y,1/2+z
1/2-x,-y,1/2+z
1/2+x,-y,1/2-z
1/2-x,y,1/2-z
1/2-x,-y,1/2-z
1/2+x,y,1/2-z
1/2-x,y,1/2+z
1/2+x,-y,1/2+z
1/2+x,1/2+y,z
1/2-x,1/2-y,z
1/2+x,1/2-y,-z
1/2-x,1/2+y,-z
1/2-x,1/2-y,-z
1/2+x,1/2+y,-z
1/2-x,1/2+y,z
1/2+x,1/2-y,z
loop_
_atom_site_type_symbol
_atom_site_label
_atom_site_fract_x
_atom_site_fract_y
_atom_site_fract_z
Si Si1 0.774131 0.802211 0.594475
Si Si2 0.750000 0.120049 0.250000
Si Si3 0.113285 0.297586 0.210619
Si Si4 0.767468 0.557866 0.636806
Si Si5 0.390841 0.892869 0.063420
Si Si6 0.612247 0.125975 0.567113
O O1 0.750000 0.750000 0.563009
O O2 0.822048 0.789093 0.654768
O O3 0.847634 0.837152 0.559755
O O4 0.672092 0.831426 0.600206
O O5 0.846182 0.153428 0.258392
O O6 0.773195 0.085547 0.196572
O O7 0.128382 0.250000 0.250000
O O8 0.000000 0.305613 0.195533
O O9 0.773781 0.500000 0.648128
O O10 0.666382 0.571850 0.606416
O O11 0.856225 0.573756 0.595173
O O12 0.500000 0.889695 0.086585
O O13 0.386942 0.915785 0.000000
O O14 0.638055 0.125276 0.500000
O O15 0.500000 0.136451 0.577833
#
# Coordination Sequence:
#
# PCOD8285412 Si02
#       6
#    32  16  32  32  32  32
#     4  11  21  38  62  92 128 164 208 256 313 371
#     4  12  22  42  64  92 130 172 208 254 314 380
#     4  11  24  40  63  95 128 168 213 255 306 372
#     4  11  24  41  65  93 125 163 213 269 322 381
#     4  10  22  41  65  94 127 165 210 261 320 381
#     4  10  23  43  66  93 127 168 215 266 319 378
#
# _framework density 20.241282000000002
#
# number of rings (size 3 to 8) (size 9 to 14) (size 15 to 20)
#    0.000    1.273    3.636    4.364    0.000    5.818 
#    0.000    3.636    0.000    3.818    0.000    0.000 
#    0.000    0.000    0.000    0.000    0.000    0.000 
#
# Total GULP energy -545508.207632 kJ/mol
# GULP energy per Si atom -12397.913810 kJ/mol
# Density = 2.019521 g / cm^3
# Si number density = 20.241282 Si / 1000 Ang^3
#
#
#
# Elastic Constant Matrix: (Units=GPa)
#
#
# Indices 1 2 3 4 5 6 
#
# 1 146.8390 38.2112 50.8743 0.0000 0.0000 0.0000
# 2 38.2112 135.7324 37.9585 0.0000 0.0000 0.0000
# 3 50.8743 37.9585 104.7274 0.0000 0.0000 0.0000
# 4 0.0000 0.0000 0.0000 13.4018 0.0000 0.0000
# 5 0.0000 0.0000 0.0000 0.0000 8.4582 0.0000
# 6 0.0000 0.0000 0.0000 0.0000 0.0000 11.7399
#
#
#
# Elastic Compliance Matrix: (Units=1/GPa)
#
#
# Indices 1 2 3 4 5 6 
#
# 1 0.008409 -0.001363 -0.003591 0.000000 0.000000 0.000000
# 2 -0.001363 0.008419 -0.002389 0.000000 0.000000 0.000000
# 3 -0.003591 -0.002389 0.012159 0.000000 0.000000 0.000000
# 4 0.000000 0.000000 0.000000 0.074617 0.000000 0.000000
# 5 0.000000 0.000000 0.000000 0.000000 0.118228 0.000000
# 6 0.000000 0.000000 0.000000 0.000000 0.000000 0.085180
#
#
# Mechanical properties :
#
#
# Convention : Reuss Voigt Hill
#
# Bulk Modulus (GPa) = 69.92707 71.26520 70.59614
# Shear Modulus (GPa) = 15.31556 24.07031 19.69293
#
# Velocity S-wave (km/s) = 2.75371 3.45217 3.12253
# Velocity P-wave (km/s) = 6.68822 7.15362 6.92483
#
# Compressibility (1/GPa) = 0.01430061
#
# Stress axis : x y z
#
# Youngs Moduli (GPa) = 118.92039 118.77330 82.24350
#
# Poissons Ratio (x) = 0.16190 0.29532
# Poissons Ratio (y) = 0.16210 0.19652
# Poissons Ratio (z) = 0.42703 0.28380
#
# Static dielectric constant tensor:
#      x y z
#    x 3.853640 0.000000 0.000000 
#    y 0.000000 3.630970 0.000000 
#    z 0.000000 0.000000 3.756580 
# 
# 
# High freq. dielectric constant tensor:
#      x y z
#    x 1.797890 0.000000 0.000000 
#    y 0.000000 1.781580 0.000000 
#    z 0.000000 0.000000 1.799330 
# 
# From -- ./inp_files/36025.got.cif
#   From: 2010.03.12/outbox.cif.g09.slc.cpg/sg69_19_cif.got.tgz:36025.got - 2010.04.10 23:52:46.
