data_PCOD8285839
_publ_section_title
;
Structure prediction by ZEFSAII (Michael W. Deem and Ramdas Pophale) SiO2 
 PCOD8285839
Probable space group: F D D D
;
_chemical_formula_sum "Si O2"
_cell_formula_units_Z 144
_cell_length_a 11.207644
_cell_length_b 29.547426
_cell_length_c 20.903573
_cell_angle_alpha 90.000000
_cell_angle_beta 90.000000
_cell_angle_gamma 90.000000
_cell_volume 6922.365187
_symmetry_space_group_name_H-M "F D D D"
_symmetry_group_IT_number 70
_space_group.IT_coordinate_system_code '2'
_symmetry_cell_setting 'orthorhombic'
loop_
_space_group_symop_operation_xyz
x,y,z
1/4-x,1/4-y,z
x,1/4-y,1/4-z
1/4-x,y,1/4-z
-x,-y,-z
3/4+x,3/4+y,-z
-x,3/4+y,3/4+z
3/4+x,-y,3/4+z
x,1/2+y,1/2+z
1/4-x,3/4-y,1/2+z
x,3/4-y,3/4-z
1/4-x,1/2+y,3/4-z
-x,1/2-y,1/2-z
3/4+x,1/4+y,1/2-z
-x,1/4+y,1/4+z
3/4+x,1/2-y,1/4+z
1/2+x,y,1/2+z
3/4-x,1/4-y,1/2+z
1/2+x,1/4-y,3/4-z
3/4-x,y,3/4-z
1/2-x,-y,1/2-z
1/4+x,3/4+y,1/2-z
1/2-x,3/4+y,1/4+z
1/4+x,-y,1/4+z
1/2+x,1/2+y,z
3/4-x,3/4-y,z
1/2+x,3/4-y,1/4-z
3/4-x,1/2+y,1/4-z
1/2-x,1/2-y,-z
1/4+x,1/4+y,-z
1/2-x,1/4+y,3/4+z
1/4+x,1/2-y,3/4+z
loop_
_atom_site_type_symbol
_atom_site_label
_atom_site_fract_x
_atom_site_fract_y
_atom_site_fract_z
Si Si1 0.375000 0.108435 0.875000
Si Si2 0.526489 0.087910 0.295208
Si Si3 0.671839 0.875000 0.875000
Si Si4 0.148724 0.696319 0.836027
Si Si5 0.625000 0.125000 0.728979
Si Si6 0.498710 0.705398 0.588207
O O1 0.400192 0.137689 0.939494
O O2 0.264197 0.077581 0.887554
O O3 0.625000 0.125000 0.280101
O O4 0.548845 0.059436 0.359854
O O5 0.523733 0.056005 0.234853
O O6 0.755309 0.870890 0.813044
O O7 0.584238 0.831606 0.877178
O O8 0.110548 0.671004 0.770697
O O9 0.173435 0.749069 0.830368
O O10 0.625000 0.711141 0.625000
#
# Coordination Sequence:
#
# PCOD8285839 Si02
#       6
#    16  32  16  32  16  32
#     4  10  18  44  66  93 126 173 226 278 330 400
#     4  10  22  41  66  94 130 176 224 271 336 403
#     4  11  27  46  70  98 145 185 210 286 356 407
#     4  11  23  41  69 100 128 179 229 281 329 403
#     4  11  24  50  68  98 141 184 226 270 345 416
#     4  12  26  43  68 105 138 175 227 290 345 399
#
# _framework density 20.802137999999999
#
# number of rings (size 3 to 8) (size 9 to 14) (size 15 to 20)
#    0.000    1.111    4.444    3.000    3.111    3.556 
#    0.000    0.000    0.000    0.000    0.000    0.000 
#    0.000    0.000    0.000    0.000    0.000    0.000 
#
# Total GULP energy -446185.021718 kJ/mol
# GULP energy per Si atom -12394.028381 kJ/mol
# Density = 2.075479 g / cm^3
# Si number density = 20.802138 Si / 1000 Ang^3
#
#
#
# Elastic Constant Matrix: (Units=GPa)
#
#
# Indices 1 2 3 4 5 6 
#
# 1 66.5736 36.9164 26.9753 0.0000 0.0000 0.0000
# 2 36.9164 165.1574 57.4569 0.0000 0.0000 0.0000
# 3 26.9753 57.4569 134.3162 0.0000 0.0000 0.0000
# 4 0.0000 0.0000 0.0000 32.5924 0.0000 0.0000
# 5 0.0000 0.0000 0.0000 0.0000 30.8222 0.0000
# 6 0.0000 0.0000 0.0000 0.0000 0.0000 15.8196
#
#
#
# Elastic Compliance Matrix: (Units=1/GPa)
#
#
# Indices 1 2 3 4 5 6 
#
# 1 0.017676 -0.003191 -0.002185 0.000000 0.000000 0.000000
# 2 -0.003191 0.007689 -0.002649 0.000000 0.000000 0.000000
# 3 -0.002185 -0.002649 0.009017 0.000000 0.000000 0.000000
# 4 0.000000 0.000000 0.000000 0.030682 0.000000 0.000000
# 5 0.000000 0.000000 0.000000 0.000000 0.032444 0.000000
# 6 0.000000 0.000000 0.000000 0.000000 0.000000 0.063213
#
#
# Mechanical properties :
#
#
# Convention : Reuss Voigt Hill
#
# Bulk Modulus (GPa) = 54.54498 67.63826 61.09162
# Shear Modulus (GPa) = 27.34023 32.16006 29.75014
#
# Velocity S-wave (km/s) = 3.62926 3.93618 3.78583
# Velocity P-wave (km/s) = 6.62116 7.29683 6.96719
#
# Compressibility (1/GPa) = 0.01833349
#
# Stress axis : x y z
#
# Youngs Moduli (GPa) = 56.57502 130.04842 110.90287
#
# Poissons Ratio (x) = 0.41496 0.24232
# Poissons Ratio (y) = 0.18052 0.29373
# Poissons Ratio (z) = 0.12361 0.34444
#
# Static dielectric constant tensor:
#      x y z
#    x 2.353400 0.000000 0.000000 
#    y 0.000000 3.926890 0.000000 
#    z 0.000000 0.000000 3.900240 
# 
# 
# High freq. dielectric constant tensor:
#      x y z
#    x 1.830690 0.000000 0.000000 
#    y 0.000000 1.810650 0.000000 
#    z 0.000000 0.000000 1.826070 
# 
# From -- ./inp_files/50194.got.cif
#   From: 2010.03.12/outbox.cif.g09.slc.cpg/sg70_26_cif.got.tgz:50194.got - 2010.04.16 13:46:32.
