data_PCOD8285667
_publ_section_title
;
Structure prediction by ZEFSAII (Michael W. Deem and Ramdas Pophale) SiO2 
 PCOD8285667
Probable space group: F M M M
;
_chemical_formula_sum "Si O2"
_cell_formula_units_Z 144
_cell_length_a 15.501929
_cell_length_b 14.370580
_cell_length_c 34.746152
_cell_angle_alpha 90.000000
_cell_angle_beta 90.000000
_cell_angle_gamma 90.000000
_cell_volume 7740.459726
_symmetry_space_group_name_H-M "F M M M"
_symmetry_group_IT_number 69
_symmetry_cell_setting 'orthorhombic'
loop_
_space_group_symop_operation_xyz
x,y,z
-x,-y,z
x,-y,-z
-x,y,-z
-x,-y,-z
x,y,-z
-x,y,z
x,-y,z
x,1/2+y,1/2+z
-x,1/2-y,1/2+z
x,1/2-y,1/2-z
-x,1/2+y,1/2-z
-x,1/2-y,1/2-z
x,1/2+y,1/2-z
-x,1/2+y,1/2+z
x,1/2-y,1/2+z
1/2+x,y,1/2+z
1/2-x,-y,1/2+z
1/2+x,-y,1/2-z
1/2-x,y,1/2-z
1/2-x,-y,1/2-z
1/2+x,y,1/2-z
1/2-x,y,1/2+z
1/2+x,-y,1/2+z
1/2+x,1/2+y,z
1/2-x,1/2-y,z
1/2+x,1/2-y,-z
1/2-x,1/2+y,-z
1/2-x,1/2-y,-z
1/2+x,1/2+y,-z
1/2-x,1/2+y,z
1/2+x,1/2-y,z
loop_
_atom_site_type_symbol
_atom_site_label
_atom_site_fract_x
_atom_site_fract_y
_atom_site_fract_z
Si Si1 0.901490 0.000000 0.193436
Si Si2 0.900174 0.350955 0.756935
Si Si3 0.773620 0.648006 0.563762
Si Si4 0.737100 0.500000 0.872722
Si Si5 0.104230 0.500000 0.818782
Si Si6 0.857708 0.100931 0.500000
Si Si7 0.905610 0.807488 0.000000
O O1 0.884085 0.908890 0.218559
O O2 0.832418 0.000000 0.160397
O O3 0.000000 0.000000 0.177724
O O4 0.854887 0.250000 0.750000
O O5 0.867386 0.408521 0.794243
O O6 0.000000 0.334912 0.764698
O O7 0.750000 0.750000 0.577938
O O8 0.784626 0.590030 0.602223
O O9 0.699932 0.601781 0.538107
O O10 0.859813 0.654637 0.538205
O O11 0.836532 0.500000 0.857216
O O12 0.000000 0.500000 0.828005
O O13 0.914689 0.194318 0.500000
O O14 0.907711 0.000000 0.500000
O O15 0.000000 0.850955 0.000000
#
# Coordination Sequence:
#
# PCOD8285667 Si02
#       7
#    16  32  32  16  16  16  16
#     4   9  20  34  49  77 106 134 178 222 262 322
#     4   8  15  33  57  75 100 137 175 226 280 317
#     4   9  20  36  54  75 108 147 178 214 268 327
#     4  12  22  34  53  77 112 150 180 213 274 327
#     4   9  20  36  53  78 106 134 182 233 270 325
#     4   9  15  34  61  76  98 140 182 222 266 311
#     4   9  19  35  57  86 108 133 184 234 264 314
#
# _framework density 18.603546000000001
#
# number of rings (size 3 to 8) (size 9 to 14) (size 15 to 20)
#    0.000    2.889    1.111    2.667    0.000    4.667 
#    0.000    6.111    0.000    0.000    0.000    0.000 
#    0.000    0.000    0.000    0.000    0.000    0.000 
#
# Total GULP energy -445995.485316 kJ/mol
# GULP energy per Si atom -12388.763481 kJ/mol
# Density = 1.856120 g / cm^3
# Si number density = 18.603546 Si / 1000 Ang^3
#
#
#
# Elastic Constant Matrix: (Units=GPa)
#
#
# Indices 1 2 3 4 5 6 
#
# 1 95.7825 28.0734 49.9465 0.0000 0.0000 0.0000
# 2 28.0734 144.0746 49.4274 0.0000 0.0000 0.0000
# 3 49.9465 49.4274 82.4141 0.0000 0.0000 0.0000
# 4 0.0000 0.0000 0.0000 -67.4405 0.0000 0.0000
# 5 0.0000 0.0000 0.0000 0.0000 15.8109 0.0000
# 6 0.0000 0.0000 0.0000 0.0000 0.0000 7.6311
#
#
#
# Elastic Compliance Matrix: (Units=1/GPa)
#
#
# Indices 1 2 3 4 5 6 
#
# 1 0.015271 0.000251 -0.009406 0.000000 0.000000 0.000000
# 2 0.000251 0.008743 -0.005396 0.000000 0.000000 0.000000
# 3 -0.009406 -0.005396 0.021070 0.000000 0.000000 0.000000
# 4 0.000000 0.000000 0.000000 -0.014828 0.000000 0.000000
# 5 0.000000 0.000000 0.000000 0.000000 0.063247 0.000000
# 6 0.000000 0.000000 0.000000 0.000000 0.000000 0.131042
#
#
# Mechanical properties :
#
#
# Convention : Reuss Voigt Hill
#
# Bulk Modulus (GPa) = 62.56306 64.12952 63.34629
# Shear Modulus (GPa) = 19.30687 4.18858 11.74773
#
# Velocity S-wave (km/s) = 3.22499 1.50213 2.51565
# Velocity P-wave (km/s) = 6.89711 6.12821 6.52400
#
# Compressibility (1/GPa) = 0.01598387
#
# Stress axis : x y z
#
# Youngs Moduli (GPa) = 65.48183 114.37680 47.46037
#
# Poissons Ratio (x) = -0.02872 0.44640
# Poissons Ratio (y) = -0.01644 0.25609
# Poissons Ratio (z) = 0.61591 0.61715
#
# Static dielectric constant tensor:
#      x y z
#    x 3.152420 0.000000 0.000000 
#    y 0.000000 1.626580 0.000000 
#    z 0.000000 0.000000 3.234070 
# 
# 
# High freq. dielectric constant tensor:
#      x y z
#    x 1.699400 0.000000 0.000000 
#    y 0.000000 1.738690 0.000000 
#    z 0.000000 0.000000 1.706750 
# 
# From -- ./inp_files/46243.got.cif
#   From: 2010.03.12/outbox.cif.g09.slc.cpg/sg69_24_cif.got.tgz:46243.got - 2010.04.10 23:52:46.
