data_PCOD8285243
_publ_section_title
;
Structure prediction by ZEFSAII (Michael W. Deem and Ramdas Pophale) SiO2 
 PCOD8285243
Probable space group: F M M M
;
_chemical_formula_sum "Si O2"
_cell_formula_units_Z 144
_cell_length_a 16.311229
_cell_length_b 27.433678
_cell_length_c 17.833261
_cell_angle_alpha 90.000000
_cell_angle_beta 90.000000
_cell_angle_gamma 90.000000
_cell_volume 7979.974207
_symmetry_space_group_name_H-M "F M M M"
_symmetry_group_IT_number 69
_symmetry_cell_setting 'orthorhombic'
loop_
_space_group_symop_operation_xyz
x,y,z
-x,-y,z
x,-y,-z
-x,y,-z
-x,-y,-z
x,y,-z
-x,y,z
x,-y,z
x,1/2+y,1/2+z
-x,1/2-y,1/2+z
x,1/2-y,1/2-z
-x,1/2+y,1/2-z
-x,1/2-y,1/2-z
x,1/2+y,1/2-z
-x,1/2+y,1/2+z
x,1/2-y,1/2+z
1/2+x,y,1/2+z
1/2-x,-y,1/2+z
1/2+x,-y,1/2-z
1/2-x,y,1/2-z
1/2-x,-y,1/2-z
1/2+x,y,1/2-z
1/2-x,y,1/2+z
1/2+x,-y,1/2+z
1/2+x,1/2+y,z
1/2-x,1/2-y,z
1/2+x,1/2-y,-z
1/2-x,1/2+y,-z
1/2-x,1/2-y,-z
1/2+x,1/2+y,-z
1/2-x,1/2+y,z
1/2+x,1/2-y,z
loop_
_atom_site_type_symbol
_atom_site_label
_atom_site_fract_x
_atom_site_fract_y
_atom_site_fract_z
Si Si1 0.592169 0.853057 0.412430
Si Si2 0.244247 0.694134 0.338133
Si Si3 0.000000 0.444030 0.089237
Si Si4 0.321405 0.447176 0.087944
Si Si5 0.836384 0.390069 0.089061
O O1 0.610659 0.844050 0.500000
O O2 0.500000 0.838054 0.391094
O O3 0.654224 0.821617 0.364213
O O4 0.604730 0.910321 0.392984
O O5 0.250000 0.687036 0.250000
O O6 0.250000 0.750000 0.362769
O O7 0.318125 0.663259 0.376058
O O8 0.921023 0.413842 0.118243
O O9 0.000000 0.500000 0.119970
O O10 0.000000 0.446247 0.000000
O O11 0.338226 0.500000 0.125609
O O12 0.235620 0.425609 0.117772
O O13 0.312859 0.454088 0.000000
O O14 0.837088 0.383904 0.000000
#
# Coordination Sequence:
#
# PCOD8285243 Si02
#       5
#    32  32  16  32  32
#     4   9  18  33  53  78 104 131 166 213 264 306
#     4  10  21  38  54  73  97 137 181 215 263 316
#     4   9  16  28  50  81 112 136 167 212 256 306
#     4   8  13  23  44  73 102 131 162 199 247 302
#     4   9  17  30  50  77 105 134 171 214 260 304
#
# _framework density 18.045172000000001
#
# number of rings (size 3 to 8) (size 9 to 14) (size 15 to 20)
#    0.000    3.000    0.000    2.667    0.000    4.889 
#    4.000    3.333    0.000   16.667    0.000    0.000 
#    0.000    0.000    0.000    0.000    0.000    0.000 
#
# Total GULP energy -446160.128124 kJ/mol
# GULP energy per Si atom -12393.336892 kJ/mol
# Density = 1.800410 g / cm^3
# Si number density = 18.045172 Si / 1000 Ang^3
#
#
#
# Elastic Constant Matrix: (Units=GPa)
#
#
# Indices 1 2 3 4 5 6 
#
# 1 132.5458 65.8739 36.2369 0.0000 0.0000 0.0000
# 2 65.8739 158.3807 42.9153 0.0000 0.0000 0.0000
# 3 36.2369 42.9153 39.2180 0.0000 0.0000 0.0000
# 4 0.0000 0.0000 0.0000 114.1067 0.0000 0.0000
# 5 0.0000 0.0000 0.0000 0.0000 12.9539 0.0000
# 6 0.0000 0.0000 0.0000 0.0000 0.0000 76.5028
#
#
#
# Elastic Compliance Matrix: (Units=1/GPa)
#
#
# Indices 1 2 3 4 5 6 
#
# 1 0.010765 -0.002533 -0.007175 0.000000 0.000000 0.000000
# 2 -0.002533 0.009571 -0.008133 0.000000 0.000000 0.000000
# 3 -0.007175 -0.008133 0.041027 0.000000 0.000000 0.000000
# 4 0.000000 0.000000 0.000000 0.008764 0.000000 0.000000
# 5 0.000000 0.000000 0.000000 0.000000 0.077197 0.000000
# 6 0.000000 0.000000 0.000000 0.000000 0.000000 0.013071
#
#
# Mechanical properties :
#
#
# Convention : Reuss Voigt Hill
#
# Bulk Modulus (GPa) = 38.93768 68.91075 53.92422
# Shear Modulus (GPa) = 24.43345 53.05392 38.74368
#
# Velocity S-wave (km/s) = 3.68369 5.42812 4.63864
# Velocity P-wave (km/s) = 6.30218 8.80663 7.65749
#
# Compressibility (1/GPa) = 0.02568206
#
# Stress axis : x y z
#
# Youngs Moduli (GPa) = 92.89282 104.47921 24.37406
#
# Poissons Ratio (x) = 0.26469 0.17487
# Poissons Ratio (y) = 0.23533 0.19823
# Poissons Ratio (z) = 0.66647 0.84971
#
# Static dielectric constant tensor:
#      x y z
#    x 3.388760 0.000000 0.000000 
#    y 0.000000 3.607230 0.000000 
#    z 0.000000 0.000000 2.933850 
# 
# 
# High freq. dielectric constant tensor:
#      x y z
#    x 1.698120 0.000000 0.000000 
#    y 0.000000 1.705640 0.000000 
#    z 0.000000 0.000000 1.655160 
# 
# From -- ./inp_files/15546.got.cif
#   From: 2010.03.12/outbox.cif.g09.slc.cpg/sg69_8_cif.got.tgz:15546.got - 2010.04.10 23:52:46.
