data_PCOD8285646
_publ_section_title
;
Structure prediction by ZEFSAII (Michael W. Deem and Ramdas Pophale) SiO2 
 PCOD8285646
Probable space group: F M M M
;
_chemical_formula_sum "Si O2"
_cell_formula_units_Z 192
_cell_length_a 23.563915
_cell_length_b 14.470775
_cell_length_c 24.677375
_cell_angle_alpha 90.000000
_cell_angle_beta 90.000000
_cell_angle_gamma 90.000000
_cell_volume 8414.691512
_symmetry_space_group_name_H-M "F M M M"
_symmetry_group_IT_number 69
_symmetry_cell_setting 'orthorhombic'
loop_
_space_group_symop_operation_xyz
x,y,z
-x,-y,z
x,-y,-z
-x,y,-z
-x,-y,-z
x,y,-z
-x,y,z
x,-y,z
x,1/2+y,1/2+z
-x,1/2-y,1/2+z
x,1/2-y,1/2-z
-x,1/2+y,1/2-z
-x,1/2-y,1/2-z
x,1/2+y,1/2-z
-x,1/2+y,1/2+z
x,1/2-y,1/2+z
1/2+x,y,1/2+z
1/2-x,-y,1/2+z
1/2+x,-y,1/2-z
1/2-x,y,1/2-z
1/2-x,-y,1/2-z
1/2+x,y,1/2-z
1/2-x,y,1/2+z
1/2+x,-y,1/2+z
1/2+x,1/2+y,z
1/2-x,1/2-y,z
1/2+x,1/2-y,-z
1/2-x,1/2+y,-z
1/2-x,1/2-y,-z
1/2+x,1/2+y,-z
1/2-x,1/2+y,z
1/2+x,1/2-y,z
loop_
_atom_site_type_symbol
_atom_site_label
_atom_site_fract_x
_atom_site_fract_y
_atom_site_fract_z
Si Si1 0.122214 0.898013 0.935679
Si Si2 0.436706 0.788656 0.310247
Si Si3 0.713037 0.109411 0.829095
Si Si4 0.000000 0.392333 0.558687
Si Si5 0.170486 0.392435 0.284041
Si Si6 0.129921 0.293791 0.900950
Si Si7 0.932952 0.390447 0.000000
O O1 0.059273 0.869857 0.910839
O O2 0.156657 0.807553 0.918004
O O3 0.143183 0.000000 0.913445
O O4 0.117785 0.906645 0.000000
O O5 0.500000 0.824026 0.326835
O O6 0.439504 0.750000 0.250000
O O7 0.389730 0.870410 0.311606
O O8 0.415149 0.709914 0.351495
O O9 0.778609 0.142501 0.823356
O O10 0.678410 0.149085 0.776576
O O11 0.685602 0.150068 0.883429
O O12 0.708839 0.000000 0.833469
O O13 0.000000 0.500000 0.546991
O O14 0.000000 0.340566 0.500000
O O15 0.177476 0.500000 0.276628
O O16 0.097193 0.345583 0.948428
O O17 0.922538 0.500000 0.000000
O O18 0.000000 0.367873 0.000000
#
# Coordination Sequence:
#
# PCOD8285646 Si02
#       7
#    32  32  32  16  32  32  16
#     4   9  18  32  52  83 126 173 222 274 334 407
#     4  11  24  40  59  96 141 179 222 279 355 435
#     4   9  19  38  68  99 128 175 237 296 348 404
#     4   7  12  24  44  70 103 158 222 274 317 376
#     4   9  19  41  67  95 132 175 230 291 353 421
#     4  12  22  38  66  98 136 185 231 298 350 405
#     4  11  26  44  63  96 143 197 253 293 342 431
#
# _framework density 22.817236000000001
#
# number of rings (size 3 to 8) (size 9 to 14) (size 15 to 20)
#    0.000    2.167    2.500    3.000    2.333    1.667 
#    0.000    0.000    0.000    2.000    0.000    3.500 
#    0.000    0.000    0.000    0.000    0.000    0.000 
#
# Total GULP energy -594701.980604 kJ/mol
# GULP energy per Si atom -12389.624596 kJ/mol
# Density = 2.276530 g / cm^3
# Si number density = 22.817236 Si / 1000 Ang^3
#
#
#
# Elastic Constant Matrix: (Units=GPa)
#
#
# Indices 1 2 3 4 5 6 
#
# 1 145.3257 50.1574 50.6270 0.0000 0.0000 0.0000
# 2 50.1574 105.0561 45.6127 0.0000 0.0000 0.0000
# 3 50.6270 45.6127 97.3952 0.0000 0.0000 0.0000
# 4 0.0000 0.0000 0.0000 33.3966 0.0000 0.0000
# 5 0.0000 0.0000 0.0000 0.0000 44.1556 0.0000
# 6 0.0000 0.0000 0.0000 0.0000 0.0000 24.6168
#
#
#
# Elastic Compliance Matrix: (Units=1/GPa)
#
#
# Indices 1 2 3 4 5 6 
#
# 1 0.009037 -0.002856 -0.003360 0.000000 0.000000 0.000000
# 2 -0.002856 0.012851 -0.004534 0.000000 0.000000 0.000000
# 3 -0.003360 -0.004534 0.014137 0.000000 0.000000 0.000000
# 4 0.000000 0.000000 0.000000 0.029943 0.000000 0.000000
# 5 0.000000 0.000000 0.000000 0.000000 0.022647 0.000000
# 6 0.000000 0.000000 0.000000 0.000000 0.000000 0.040623
#
#
# Mechanical properties :
#
#
# Convention : Reuss Voigt Hill
#
# Bulk Modulus (GPa) = 68.84357 71.17459 70.00908
# Shear Modulus (GPa) = 32.13779 33.85914 32.99846
#
# Velocity S-wave (km/s) = 3.75705 3.85636 3.80703
# Velocity P-wave (km/s) = 7.00413 7.14771 7.07628
#
# Compressibility (1/GPa) = 0.01452568
#
# Stress axis : x y z
#
# Youngs Moduli (GPa) = 110.65188 77.81708 70.73411
#
# Poissons Ratio (x) = 0.22223 0.23769
# Poissons Ratio (y) = 0.31600 0.32070
# Poissons Ratio (z) = 0.37182 0.35281
#
# Static dielectric constant tensor:
#      x y z
#    x 4.440420 0.000000 0.000000 
#    y 0.000000 4.051140 0.000000 
#    z 0.000000 0.000000 4.406460 
# 
# 
# High freq. dielectric constant tensor:
#      x y z
#    x 1.887230 0.000000 0.000000 
#    y 0.000000 1.896450 0.000000 
#    z 0.000000 0.000000 1.914470 
# 
# From -- ./inp_files/43208.got.cif
#   From: 2010.03.12/outbox.cif.g09.slc.cpg/sg69_22_cif.got.tgz:43208.got - 2010.04.10 23:52:46.
