data_PCOD8285169
_publ_section_title
;
Structure prediction by ZEFSAII (Michael W. Deem and Ramdas Pophale) SiO2 
 PCOD8285169
Probable space group: F M M M
;
_chemical_formula_sum "Si O2"
_cell_formula_units_Z 144
_cell_length_a 29.244640
_cell_length_b 30.290200
_cell_length_c 8.819673
_cell_angle_alpha 90.000000
_cell_angle_beta 90.000000
_cell_angle_gamma 90.000000
_cell_volume 7812.695607
_symmetry_space_group_name_H-M "F M M M"
_symmetry_group_IT_number 69
_symmetry_cell_setting 'orthorhombic'
loop_
_space_group_symop_operation_xyz
x,y,z
-x,-y,z
x,-y,-z
-x,y,-z
-x,-y,-z
x,y,-z
-x,y,z
x,-y,z
x,1/2+y,1/2+z
-x,1/2-y,1/2+z
x,1/2-y,1/2-z
-x,1/2+y,1/2-z
-x,1/2-y,1/2-z
x,1/2+y,1/2-z
-x,1/2+y,1/2+z
x,1/2-y,1/2+z
1/2+x,y,1/2+z
1/2-x,-y,1/2+z
1/2+x,-y,1/2-z
1/2-x,y,1/2-z
1/2-x,-y,1/2-z
1/2+x,y,1/2-z
1/2-x,y,1/2+z
1/2+x,-y,1/2+z
1/2+x,1/2+y,z
1/2-x,1/2-y,z
1/2+x,1/2-y,-z
1/2-x,1/2+y,-z
1/2-x,1/2-y,-z
1/2+x,1/2+y,-z
1/2-x,1/2+y,z
1/2+x,1/2-y,z
loop_
_atom_site_type_symbol
_atom_site_label
_atom_site_fract_x
_atom_site_fract_y
_atom_site_fract_z
Si Si1 0.448337 0.095488 0.818777
Si Si2 0.360772 0.377527 0.822084
Si Si3 0.946554 0.500000 0.163200
Si Si4 0.702137 0.050785 0.177563
Si Si5 0.798281 0.204179 0.178898
O O1 0.500000 0.108926 0.771644
O O2 0.412504 0.128468 0.740231
O O3 0.435306 0.046229 0.753210
O O4 0.443528 0.096254 0.000000
O O5 0.338199 0.419665 0.743102
O O6 0.334619 0.333031 0.777449
O O7 0.360874 0.385404 0.000000
O O8 0.000000 0.500000 0.129671
O O9 0.920756 0.500000 0.000000
O O10 0.750000 0.065612 0.250000
O O11 0.690835 0.000000 0.217668
O O12 0.706250 0.058605 0.000000
O O13 0.815810 0.250000 0.250000
O O14 0.750000 0.190130 0.250000
O O15 0.792357 0.209788 0.000000
#
# Coordination Sequence:
#
# PCOD8285169 Si02
#       5
#    32  32  16  32  32
#     4   9  18  33  53  76 104 141 184 228 270 314
#     4  11  23  35  52  80 111 142 176 218 268 322
#     4   7  12  26  47  69  94 127 172 221 261 299
#     4  10  21  36  53  74 104 143 183 220 259 309
#     4  10  21  37  58  83 109 137 171 215 267 320
#
# _framework density 18.431539000000001
#
# number of rings (size 3 to 8) (size 9 to 14) (size 15 to 20)
#    0.000    2.333    0.000    4.667    1.556    7.111 
#    0.000    0.000    0.000    2.667    0.000    0.000 
#    0.000    0.000    0.000    0.000    0.000    0.000 
#
# Total GULP energy -446258.580672 kJ/mol
# GULP energy per Si atom -12396.071685 kJ/mol
# Density = 1.838959 g / cm^3
# Si number density = 18.431539 Si / 1000 Ang^3
#
#
#
# Elastic Constant Matrix: (Units=GPa)
#
#
# Indices 1 2 3 4 5 6 
#
# 1 134.0871 74.9461 51.1243 -0.0002 -0.0002 -0.0170
# 2 74.9461 95.8653 48.1789 -0.0044 -0.0096 -0.0126
# 3 51.1243 48.1789 74.5000 -0.0189 -0.0122 -0.0576
# 4 -0.0002 -0.0044 -0.0189 22.3875 -0.0024 -0.0206
# 5 -0.0002 -0.0096 -0.0122 -0.0024 31.9361 0.0272
# 6 -0.0170 -0.0126 -0.0576 -0.0206 0.0272 24.1460
#
#
#
# Elastic Compliance Matrix: (Units=1/GPa)
#
#
# Indices 1 2 3 4 5 6 
#
# 1 0.013910 -0.009003 -0.003723 -0.000005 -0.000004 -0.000004
# 2 -0.009003 0.021282 -0.007584 -0.000002 0.000003 -0.000013
# 3 -0.003723 -0.007584 0.020882 0.000016 0.000006 0.000043
# 4 -0.000005 -0.000002 0.000016 0.044668 0.000003 0.000038
# 5 -0.000004 0.000003 0.000006 0.000003 0.031313 -0.000035
# 6 -0.000004 -0.000013 0.000043 0.000038 -0.000035 0.041415
#
#
# Mechanical properties :
#
#
# Convention : Reuss Voigt Hill
#
# Bulk Modulus (GPa) = 64.71424 72.55012 68.63218
# Shear Modulus (GPa) = 22.80598 24.37411 23.59005
#
# Velocity S-wave (km/s) = 3.52139 3.64045 3.58141
# Velocity P-wave (km/s) = 7.19169 7.55764 7.37693
#
# Compressibility (1/GPa) = 0.01545255
#
# Stress axis : x y z
#
# Youngs Moduli (GPa) = 71.89314 46.98876 47.88735
#
# Poissons Ratio (x) = 0.42306 0.17827
# Poissons Ratio (y) = 0.64728 0.36320
# Poissons Ratio (z) = 0.26764 0.35638
#
# Static dielectric constant tensor:
#      x y z
#    x 3.453130 0.000020 0.000050 
#    y 0.000020 3.435500 -0.000080 
#    z 0.000050 -0.000080 3.295900 
# 
# 
# High freq. dielectric constant tensor:
#      x y z
#    x 1.715810 0.000000 0.000000 
#    y 0.000000 1.697830 -0.000010 
#    z 0.000000 -0.000010 1.708570 
# 
# From -- ./inp_files/5590.got.cif
#   From: 2010.03.12/outbox.cif.g09.slc.cpg/sg69_3_cif.got.tgz:5590.got - 2010.04.10 23:52:46.
