data_PCOD8285318
_publ_section_title
;
Structure prediction by ZEFSAII (Michael W. Deem and Ramdas Pophale) SiO2 
 PCOD8285318
Probable space group: F M M M
;
_chemical_formula_sum "Si O2"
_cell_formula_units_Z 160
_cell_length_a 17.048277
_cell_length_b 24.102462
_cell_length_c 20.316162
_cell_angle_alpha 90.000000
_cell_angle_beta 90.000000
_cell_angle_gamma 90.000000
_cell_volume 8348.021660
_symmetry_space_group_name_H-M "F M M M"
_symmetry_group_IT_number 69
_symmetry_cell_setting 'orthorhombic'
loop_
_space_group_symop_operation_xyz
x,y,z
-x,-y,z
x,-y,-z
-x,y,-z
-x,-y,-z
x,y,-z
-x,y,z
x,-y,z
x,1/2+y,1/2+z
-x,1/2-y,1/2+z
x,1/2-y,1/2-z
-x,1/2+y,1/2-z
-x,1/2-y,1/2-z
x,1/2+y,1/2-z
-x,1/2+y,1/2+z
x,1/2-y,1/2+z
1/2+x,y,1/2+z
1/2-x,-y,1/2+z
1/2+x,-y,1/2-z
1/2-x,y,1/2-z
1/2-x,-y,1/2-z
1/2+x,y,1/2-z
1/2-x,y,1/2+z
1/2+x,-y,1/2+z
1/2+x,1/2+y,z
1/2-x,1/2-y,z
1/2+x,1/2-y,-z
1/2-x,1/2+y,-z
1/2-x,1/2-y,-z
1/2+x,1/2+y,-z
1/2-x,1/2+y,z
1/2+x,1/2-y,z
loop_
_atom_site_type_symbol
_atom_site_label
_atom_site_fract_x
_atom_site_fract_y
_atom_site_fract_z
Si Si1 0.910054 0.288105 0.311251
Si Si2 0.908697 0.500000 0.733914
Si Si3 0.696483 0.899831 0.925709
Si Si4 0.189096 0.101338 0.190831
Si Si5 0.907835 0.500000 0.113085
Si Si6 0.335017 0.225644 0.924468
O O1 0.885277 0.250000 0.250000
O O2 0.853645 0.340331 0.311987
O O3 0.899790 0.254199 0.378793
O O4 0.000000 0.307373 0.305006
O O5 0.875011 0.445656 0.700142
O O6 0.886880 0.500000 0.810378
O O7 0.000000 0.500000 0.721458
O O8 0.768228 0.912618 0.877525
O O9 0.660944 0.839685 0.909240
O O10 0.627954 0.944928 0.919103
O O11 0.729833 0.900600 0.000000
O O12 0.250000 0.101086 0.250000
O O13 0.000000 0.500000 0.099081
O O14 0.250000 0.250000 0.906342
O O15 0.356253 0.238775 0.000000
#
# Coordination Sequence:
#
# PCOD8285318 Si02
#       6
#    32  16  32  32  16  32
#     4  11  25  39  59  93 127 159 202 255 307 362
#     4  11  24  40  61  89 123 159 201 252 305 364
#     4  11  23  39  64  94 122 158 207 258 301 361
#     4  12  22  40  65  88 118 163 205 250 306 365
#     4  11  24  42  62  90 129 166 201 253 316 372
#     4  10  21  40  63  90 124 163 205 249 300 364
#
# _framework density 19.166218000000001
#
# number of rings (size 3 to 8) (size 9 to 14) (size 15 to 20)
#    0.000    1.000    4.000    3.000    0.000    2.000 
#    0.000    2.000    0.000    2.400    0.000    0.000 
#    0.000    0.000    0.000    0.000    0.000    0.000 
#
# Total GULP energy -496240.157014 kJ/mol
# GULP energy per Si atom -12406.003925 kJ/mol
# Density = 1.912259 g / cm^3
# Si number density = 19.166218 Si / 1000 Ang^3
#
#
#
# Elastic Constant Matrix: (Units=GPa)
#
#
# Indices 1 2 3 4 5 6 
#
# 1 74.0460 46.9153 45.7363 0.0000 0.0000 0.0000
# 2 46.9153 135.5440 42.5337 0.0000 0.0000 0.0000
# 3 45.7363 42.5337 117.9671 0.0000 0.0000 0.0000
# 4 0.0000 0.0000 0.0000 32.5328 0.0000 0.0000
# 5 0.0000 0.0000 0.0000 0.0000 53.9074 0.0000
# 6 0.0000 0.0000 0.0000 0.0000 0.0000 51.5998
#
#
#
# Elastic Compliance Matrix: (Units=1/GPa)
#
#
# Indices 1 2 3 4 5 6 
#
# 1 0.020571 -0.005206 -0.006098 0.000000 0.000000 0.000000
# 2 -0.005206 0.009637 -0.001456 0.000000 0.000000 0.000000
# 3 -0.006098 -0.001456 0.011366 0.000000 0.000000 0.000000
# 4 0.000000 0.000000 0.000000 0.030738 0.000000 0.000000
# 5 0.000000 0.000000 0.000000 0.000000 0.018550 0.000000
# 6 0.000000 0.000000 0.000000 0.000000 0.000000 0.019380
#
#
# Mechanical properties :
#
#
# Convention : Reuss Voigt Hill
#
# Bulk Modulus (GPa) = 62.29620 66.43642 64.36631
# Shear Modulus (GPa) = 35.43246 40.43279 37.93263
#
# Velocity S-wave (km/s) = 4.30431 4.59801 4.45358
# Velocity P-wave (km/s) = 7.56812 7.93268 7.75254
#
# Compressibility (1/GPa) = 0.01605234
#
# Stress axis : x y z
#
# Youngs Moduli (GPa) = 48.61328 103.77051 87.98046
#
# Poissons Ratio (x) = 0.54027 0.53651
# Poissons Ratio (y) = 0.25310 0.12810
# Poissons Ratio (z) = 0.29645 0.15109
#
# Static dielectric constant tensor:
#      x y z
#    x 3.374840 0.000000 0.000000 
#    y 0.000000 3.706300 0.000000 
#    z 0.000000 0.000000 3.682040 
# 
# 
# High freq. dielectric constant tensor:
#      x y z
#    x 1.737120 0.000000 0.000000 
#    y 0.000000 1.762920 0.000000 
#    z 0.000000 0.000000 1.757390 
# 
# From -- ./inp_files/30811.got.cif
#   From: 2010.03.12/outbox.cif.g09.slc.cpg/sg69_16_cif.got.tgz:30811.got - 2010.04.10 23:52:46.
