data_PCOD8285740
_publ_section_title
;
Structure prediction by ZEFSAII (Michael W. Deem and Ramdas Pophale) SiO2 
 PCOD8285740
Probable space group: F D D D
;
_chemical_formula_sum "Si O2"
_cell_formula_units_Z 152
_cell_length_a 20.805760
_cell_length_b 15.237668
_cell_length_c 29.341866
_cell_angle_alpha 90.000000
_cell_angle_beta 90.000000
_cell_angle_gamma 90.000000
_cell_volume 9302.288848
_symmetry_space_group_name_H-M "F D D D"
_symmetry_group_IT_number 70
_space_group.IT_coordinate_system_code '2'
_symmetry_cell_setting 'orthorhombic'
loop_
_space_group_symop_operation_xyz
x,y,z
1/4-x,1/4-y,z
x,1/4-y,1/4-z
1/4-x,y,1/4-z
-x,-y,-z
3/4+x,3/4+y,-z
-x,3/4+y,3/4+z
3/4+x,-y,3/4+z
x,1/2+y,1/2+z
1/4-x,3/4-y,1/2+z
x,3/4-y,3/4-z
1/4-x,1/2+y,3/4-z
-x,1/2-y,1/2-z
3/4+x,1/4+y,1/2-z
-x,1/4+y,1/4+z
3/4+x,1/2-y,1/4+z
1/2+x,y,1/2+z
3/4-x,1/4-y,1/2+z
1/2+x,1/4-y,3/4-z
3/4-x,y,3/4-z
1/2-x,-y,1/2-z
1/4+x,3/4+y,1/2-z
1/2-x,3/4+y,1/4+z
1/4+x,-y,1/4+z
1/2+x,1/2+y,z
3/4-x,3/4-y,z
1/2+x,3/4-y,1/4-z
3/4-x,1/2+y,1/4-z
1/2-x,1/2-y,-z
1/4+x,1/4+y,-z
1/2-x,1/4+y,3/4+z
1/4+x,1/2-y,3/4+z
loop_
_atom_site_type_symbol
_atom_site_label
_atom_site_fract_x
_atom_site_fract_y
_atom_site_fract_z
Si Si1 0.067556 0.377477 0.323411
Si Si2 0.125000 0.625000 0.468266
Si Si3 0.998987 0.806972 0.677705
Si Si4 0.621959 0.310079 0.738335
Si Si5 0.034308 0.484883 0.668231
Si Si6 0.875000 0.375000 0.375000
O O1 0.096205 0.375000 0.375000
O O2 0.018849 0.295755 0.316721
O O3 0.123411 0.367758 0.285055
O O4 0.031529 0.469681 0.314614
O O5 0.061726 0.619897 0.436588
O O6 0.127419 0.541868 0.500551
O O7 0.055661 0.830998 0.712423
O O8 0.022148 0.824773 0.626188
O O9 0.684025 0.329065 0.706396
O O10 0.082536 0.564047 0.657166
#
# Coordination Sequence:
#
# PCOD8285740 Si02
#       6
#    32  16  32  32  32   8
#     4   9  17  26  36  53  82 107 132 159 194 234
#     4  10  19  24  35  56  84 108 133 162 192 233
#     4  10  17  26  36  55  80 108 134 160 193 238
#     4  11  17  25  39  58  77 107 138 165 189 238
#     4  11  17  26  40  58  82 112 136 162 196 236
#     4  12  14  24  40  56  84 112 136 152 196 234
#
# _framework density 16.340064999999999
#
# number of rings (size 3 to 8) (size 9 to 14) (size 15 to 20)
#    0.000    1.684    5.263    5.684    0.000    0.000 
#    0.000    0.000    0.000    0.000    0.000   13.263 
#    0.000    0.000    0.000    0.000    0.000    0.000 
#
# Total GULP energy -470963.144560 kJ/mol
# GULP energy per Si atom -12393.766962 kJ/mol
# Density = 1.630287 g / cm^3
# Si number density = 16.340065 Si / 1000 Ang^3
#
#
#
# Elastic Constant Matrix: (Units=GPa)
#
#
# Indices 1 2 3 4 5 6 
#
# 1 73.8905 22.5704 58.5630 0.0000 0.0000 0.0000
# 2 22.5704 21.0639 22.1340 0.0000 0.0000 0.0000
# 3 58.5630 22.1340 136.4191 0.0000 0.0000 0.0000
# 4 0.0000 0.0000 0.0000 18.0156 0.0000 0.0000
# 5 0.0000 0.0000 0.0000 0.0000 29.8899 0.0000
# 6 0.0000 0.0000 0.0000 0.0000 0.0000 19.0167
#
#
#
# Elastic Compliance Matrix: (Units=1/GPa)
#
#
# Indices 1 2 3 4 5 6 
#
# 1 0.025657 -0.019190 -0.007901 0.000000 0.000000 0.000000
# 2 -0.019190 0.071585 -0.003377 0.000000 0.000000 0.000000
# 3 -0.007901 -0.003377 0.011270 0.000000 0.000000 0.000000
# 4 0.000000 0.000000 0.000000 0.055508 0.000000 0.000000
# 5 0.000000 0.000000 0.000000 0.000000 0.033456 0.000000
# 6 0.000000 0.000000 0.000000 0.000000 0.000000 0.052585
#
#
# Mechanical properties :
#
#
# Convention : Reuss Voigt Hill
#
# Bulk Modulus (GPa) = 21.01837 48.65648 34.83743
# Shear Modulus (GPa) = 15.29730 21.92484 18.61107
#
# Velocity S-wave (km/s) = 3.06303 3.66701 3.37854
# Velocity P-wave (km/s) = 5.03990 6.91168 6.04863
#
# Compressibility (1/GPa) = 0.04757742
#
# Stress axis : x y z
#
# Youngs Moduli (GPa) = 38.97560 13.96937 88.73224
#
# Poissons Ratio (x) = 0.26807 0.70104
# Poissons Ratio (y) = 0.74794 0.29962
# Poissons Ratio (z) = 0.30793 0.04717
#
# Static dielectric constant tensor:
#      x y z
#    x 3.153550 0.000000 0.000000 
#    y 0.000000 2.612830 0.000000 
#    z 0.000000 0.000000 3.552210 
# 
# 
# High freq. dielectric constant tensor:
#      x y z
#    x 1.603050 0.000000 0.000000 
#    y 0.000000 1.554980 0.000000 
#    z 0.000000 0.000000 1.650160 
# 
# From -- ./inp_files/27658.got.cif
#   From: 2010.03.12/outbox.cif.g09.slc.cpg/sg70_14_cif.got.tgz:27658.got - 2010.04.16 13:46:32.
