data_PCOD8285128
_publ_section_title
;
Structure prediction by ZEFSAII (Michael W. Deem and Ramdas Pophale) SiO2 
 PCOD8285128
Probable space group: F M M M
;
_chemical_formula_sum "Si O2"
_cell_formula_units_Z 144
_cell_length_a 30.347297
_cell_length_b 8.992523
_cell_length_c 27.080328
_cell_angle_alpha 90.000000
_cell_angle_beta 90.000000
_cell_angle_gamma 90.000000
_cell_volume 7390.188101
_symmetry_space_group_name_H-M "F M M M"
_symmetry_group_IT_number 69
_symmetry_cell_setting 'orthorhombic'
loop_
_space_group_symop_operation_xyz
x,y,z
-x,-y,z
x,-y,-z
-x,y,-z
-x,-y,-z
x,y,-z
-x,y,z
x,-y,z
x,1/2+y,1/2+z
-x,1/2-y,1/2+z
x,1/2-y,1/2-z
-x,1/2+y,1/2-z
-x,1/2-y,1/2-z
x,1/2+y,1/2-z
-x,1/2+y,1/2+z
x,1/2-y,1/2+z
1/2+x,y,1/2+z
1/2-x,-y,1/2+z
1/2+x,-y,1/2-z
1/2-x,y,1/2-z
1/2-x,-y,1/2-z
1/2+x,y,1/2-z
1/2-x,y,1/2+z
1/2+x,-y,1/2+z
1/2+x,1/2+y,z
1/2-x,1/2-y,z
1/2+x,1/2-y,-z
1/2-x,1/2+y,-z
1/2-x,1/2-y,-z
1/2+x,1/2+y,-z
1/2-x,1/2+y,z
1/2+x,1/2-y,z
loop_
_atom_site_type_symbol
_atom_site_label
_atom_site_fract_x
_atom_site_fract_y
_atom_site_fract_z
Si Si1 0.137857 0.750000 0.750000
Si Si2 0.000000 0.825951 0.303371
Si Si3 0.336421 0.675294 0.095117
Si Si4 0.790244 0.835793 0.319228
Si Si5 0.298648 0.322015 0.500000
Si Si6 0.417834 0.164421 0.339157
O O1 0.169026 0.857905 0.718080
O O2 0.108021 0.845033 0.787140
O O3 0.000000 0.750000 0.250000
O O4 0.042664 0.781822 0.335427
O O5 0.000000 0.000000 0.294340
O O6 0.330104 0.500000 0.085631
O O7 0.301130 0.730625 0.134648
O O8 0.327763 0.768218 0.045991
O O9 0.385533 0.710413 0.115903
O O10 0.750000 0.750000 0.292519
O O11 0.776378 0.000000 0.337239
O O12 0.293923 0.500000 0.500000
O O13 0.250000 0.250000 0.500000
O O14 0.437223 0.000000 0.348843
#
# Coordination Sequence:
#
# PCOD8285128 Si02
#       6
#    16  16  32  32  16  32
#     4  10  21  33  54  76 108 148 192 235 281 338
#     4  12  24  36  58  87 120 157 196 240 287 343
#     4  10  22  40  61  85 114 148 189 241 295 348
#     4  11  22  35  51  75 108 149 194 237 284 340
#     4  12  24  40  64  91 120 155 196 244 293 346
#     4  10  21  38  59  84 115 150 190 237 291 346
#
# _framework density 19.485295000000001
#
# number of rings (size 3 to 8) (size 9 to 14) (size 15 to 20)
#    0.000    1.333    1.111    5.000    0.000    8.000 
#    0.000    0.000    0.000    0.667    0.000    4.667 
#    0.000    0.000    0.000    0.000    0.000    0.000 
#
# Total GULP energy -446292.751947 kJ/mol
# GULP energy per Si atom -12397.020887 kJ/mol
# Density = 1.944095 g / cm^3
# Si number density = 19.485295 Si / 1000 Ang^3
#
#
#
# Elastic Constant Matrix: (Units=GPa)
#
#
# Indices 1 2 3 4 5 6 
#
# 1 119.2543 65.1828 47.7894 0.0000 0.0000 -0.0001
# 2 65.1828 161.2259 43.4298 0.0000 0.0000 -0.0001
# 3 47.7894 43.4298 110.8730 0.0000 0.0000 0.0000
# 4 0.0000 0.0000 0.0000 18.8800 0.0000 0.0000
# 5 0.0000 0.0000 0.0000 0.0000 20.0544 0.0000
# 6 -0.0001 -0.0001 0.0000 0.0000 0.0000 31.1555
#
#
#
# Elastic Compliance Matrix: (Units=1/GPa)
#
#
# Indices 1 2 3 4 5 6 
#
# 1 0.011949 -0.003850 -0.003643 0.000000 0.000000 0.000000
# 2 -0.003850 0.008175 -0.001543 0.000000 0.000000 0.000000
# 3 -0.003643 -0.001543 0.011194 0.000000 0.000000 0.000000
# 4 0.000000 0.000000 0.000000 0.052966 0.000000 0.000000
# 5 0.000000 0.000000 0.000000 0.000000 0.049864 0.000000
# 6 0.000000 0.000000 0.000000 0.000000 0.000000 0.032097
#
#
# Mechanical properties :
#
#
# Convention : Reuss Voigt Hill
#
# Bulk Modulus (GPa) = 75.48584 78.23969 76.86276
# Shear Modulus (GPa) = 26.49277 29.68141 28.08709
#
# Velocity S-wave (km/s) = 3.69131 3.90715 3.80076
# Velocity P-wave (km/s) = 7.54929 7.78426 7.66768
#
# Compressibility (1/GPa) = 0.01324752
#
# Stress axis : x y z
#
# Youngs Moduli (GPa) = 83.68604 122.33161 89.33681
#
# Poissons Ratio (x) = 0.47096 0.32541
# Poissons Ratio (y) = 0.32218 0.13781
# Poissons Ratio (z) = 0.30483 0.18871
#
# Static dielectric constant tensor:
#      x y z
#    x 3.627710 0.000000 0.000000 
#    y 0.000000 3.502580 0.000000 
#    z 0.000000 0.000000 3.470150 
# 
# 
# High freq. dielectric constant tensor:
#      x y z
#    x 1.757080 0.000000 0.000000 
#    y 0.000000 1.768040 0.000000 
#    z 0.000000 0.000000 1.737560 
# 
# From -- ./inp_files/47440.got.cif
#   From: 2010.03.12/outbox.cif.g09.slc.cpg/sg69_24_cif.got.tgz:47440.got - 2010.04.10 23:52:46.
