data_PCOD8285598
_publ_section_title
;
Structure prediction by ZEFSAII (Michael W. Deem and Ramdas Pophale) SiO2 
 PCOD8285598
Probable space group: F M M M
;
_chemical_formula_sum "Si O2"
_cell_formula_units_Z 176
_cell_length_a 24.416283
_cell_length_b 16.096362
_cell_length_c 22.817986
_cell_angle_alpha 90.000000
_cell_angle_beta 90.000000
_cell_angle_gamma 90.000000
_cell_volume 8967.772659
_symmetry_space_group_name_H-M "F M M M"
_symmetry_group_IT_number 69
_symmetry_cell_setting 'orthorhombic'
loop_
_space_group_symop_operation_xyz
x,y,z
-x,-y,z
x,-y,-z
-x,y,-z
-x,-y,-z
x,y,-z
-x,y,z
x,-y,z
x,1/2+y,1/2+z
-x,1/2-y,1/2+z
x,1/2-y,1/2-z
-x,1/2+y,1/2-z
-x,1/2-y,1/2-z
x,1/2+y,1/2-z
-x,1/2+y,1/2+z
x,1/2-y,1/2+z
1/2+x,y,1/2+z
1/2-x,-y,1/2+z
1/2+x,-y,1/2-z
1/2-x,y,1/2-z
1/2-x,-y,1/2-z
1/2+x,y,1/2-z
1/2-x,y,1/2+z
1/2+x,-y,1/2+z
1/2+x,1/2+y,z
1/2-x,1/2-y,z
1/2+x,1/2-y,-z
1/2-x,1/2+y,-z
1/2-x,1/2-y,-z
1/2+x,1/2+y,-z
1/2-x,1/2+y,z
1/2+x,1/2-y,z
loop_
_atom_site_type_symbol
_atom_site_label
_atom_site_fract_x
_atom_site_fract_y
_atom_site_fract_z
Si Si1 0.150678 0.681468 0.861285
Si Si2 0.564623 0.500000 0.069613
Si Si3 0.687248 0.906739 0.751906
Si Si4 0.258458 0.594743 0.432982
Si Si5 0.854150 0.625546 0.624584
Si Si6 0.439198 0.598036 0.435320
O O1 0.155168 0.658373 0.792848
O O2 0.207419 0.657146 0.892573
O O3 0.136532 0.776803 0.870877
O O4 0.100493 0.630443 0.886107
O O5 0.500000 0.500000 0.083771
O O6 0.591497 0.418073 0.099020
O O7 0.575104 0.500000 0.000000
O O8 0.750000 0.876544 0.750000
O O9 0.660108 0.909256 0.688368
O O10 0.684618 0.000000 0.778578
O O11 0.269366 0.619015 0.500000
O O12 0.277093 0.500000 0.420917
O O13 0.194593 0.604406 0.419804
O O14 0.419143 0.626751 0.500000
O O15 0.500000 0.633155 0.423440
O O16 0.440083 0.500000 0.432325
#
# Coordination Sequence:
#
# PCOD8285598 Si02
#       6
#    32  16  32  32  32  32
#     4  12  24  35  62  98 127 161 209 261 325 384
#     4  11  26  50  75  92 120 178 231 268 320 377
#     4  11  22  40  65  91 128 174 213 250 317 395
#     4  11  22  37  58  88 131 171 206 255 320 387
#     4  12  24  42  62  92 128 162 213 273 317 372
#     4   9  19  38  61  86 123 164 201 250 313 383
#
# _framework density 19.625831999999999
#
# number of rings (size 3 to 8) (size 9 to 14) (size 15 to 20)
#    0.000    1.000    3.636    4.364    0.000    6.545 
#    0.000    2.727    0.000    2.182    0.000    0.000 
#    0.000    0.000    0.000    0.000    0.000    0.000 
#
# Total GULP energy -545736.438532 kJ/mol
# GULP energy per Si atom -12403.100876 kJ/mol
# Density = 1.958116 g / cm^3
# Si number density = 19.625832 Si / 1000 Ang^3
#
#
#
# Elastic Constant Matrix: (Units=GPa)
#
#
# Indices 1 2 3 4 5 6 
#
# 1 119.9889 42.2812 52.1728 0.0000 0.0000 0.0000
# 2 42.2812 82.0080 27.9595 0.0000 0.0000 0.0000
# 3 52.1728 27.9595 100.1699 0.0000 0.0000 0.0000
# 4 0.0000 0.0000 0.0000 13.4773 0.0000 0.0000
# 5 0.0000 0.0000 0.0000 0.0000 15.3565 0.0000
# 6 0.0000 0.0000 0.0000 0.0000 0.0000 -26.2184
#
#
#
# Elastic Compliance Matrix: (Units=1/GPa)
#
#
# Indices 1 2 3 4 5 6 
#
# 1 0.012127 -0.004530 -0.005052 0.000000 0.000000 0.000000
# 2 -0.004530 0.015169 -0.001874 0.000000 0.000000 0.000000
# 3 -0.005052 -0.001874 0.013137 0.000000 0.000000 0.000000
# 4 0.000000 0.000000 0.000000 0.074199 0.000000 0.000000
# 5 0.000000 0.000000 0.000000 0.000000 0.065119 0.000000
# 6 0.000000 0.000000 0.000000 0.000000 0.000000 -0.038141
#
#
# Mechanical properties :
#
#
# Convention : Reuss Voigt Hill
#
# Bulk Modulus (GPa) = 57.07625 60.77710 58.92668
# Shear Modulus (GPa) = 29.34914 12.50661 20.92787
#
# Velocity S-wave (km/s) = 3.87128 2.52712 3.26903
# Velocity P-wave (km/s) = 7.00912 6.28890 6.65875
#
# Compressibility (1/GPa) = 0.01752042
#
# Stress axis : x y z
#
# Youngs Moduli (GPa) = 82.46077 65.92586 76.11823
#
# Poissons Ratio (x) = 0.29864 0.38454
# Poissons Ratio (y) = 0.37355 0.14268
# Poissons Ratio (z) = 0.41658 0.12357
#
# Static dielectric constant tensor:
#      x y z
#    x 3.550840 0.000000 0.000000 
#    y 0.000000 3.637430 0.000000 
#    z 0.000000 0.000000 3.698250 
# 
# 
# High freq. dielectric constant tensor:
#      x y z
#    x 1.751790 0.000000 0.000000 
#    y 0.000000 1.767390 0.000000 
#    z 0.000000 0.000000 1.773970 
# 
# From -- ./inp_files/17901.got.cif
#   From: 2010.03.12/outbox.cif.g09.slc.cpg/sg69_9_cif.got.tgz:17901.got - 2010.04.10 23:52:46.
