data_PCOD8285474
_publ_section_title
;
Structure prediction by ZEFSAII (Michael W. Deem and Ramdas Pophale) SiO2 
 PCOD8285474
Probable space group: F M M M
;
_chemical_formula_sum "Si O2"
_cell_formula_units_Z 208
_cell_length_a 21.302243
_cell_length_b 17.349836
_cell_length_c 27.776056
_cell_angle_alpha 90.000000
_cell_angle_beta 90.000000
_cell_angle_gamma 90.000000
_cell_volume 10265.764272
_symmetry_space_group_name_H-M "F M M M"
_symmetry_group_IT_number 69
_symmetry_cell_setting 'orthorhombic'
loop_
_space_group_symop_operation_xyz
x,y,z
-x,-y,z
x,-y,-z
-x,y,-z
-x,-y,-z
x,y,-z
-x,y,z
x,-y,z
x,1/2+y,1/2+z
-x,1/2-y,1/2+z
x,1/2-y,1/2-z
-x,1/2+y,1/2-z
-x,1/2-y,1/2-z
x,1/2+y,1/2-z
-x,1/2+y,1/2+z
x,1/2-y,1/2+z
1/2+x,y,1/2+z
1/2-x,-y,1/2+z
1/2+x,-y,1/2-z
1/2-x,y,1/2-z
1/2-x,-y,1/2-z
1/2+x,y,1/2-z
1/2-x,y,1/2+z
1/2+x,-y,1/2+z
1/2+x,1/2+y,z
1/2-x,1/2-y,z
1/2+x,1/2-y,-z
1/2-x,1/2+y,-z
1/2-x,1/2-y,-z
1/2+x,1/2+y,-z
1/2-x,1/2+y,z
1/2+x,1/2-y,z
loop_
_atom_site_type_symbol
_atom_site_label
_atom_site_fract_x
_atom_site_fract_y
_atom_site_fract_z
Si Si1 0.070376 0.338932 0.091366
Si Si2 0.928923 0.840491 0.798018
Si Si3 0.102241 0.670621 0.805264
Si Si4 0.839844 0.587918 0.369708
Si Si5 0.321117 0.278108 0.943133
Si Si6 0.739658 0.336396 0.693516
Si Si7 0.074310 0.500000 0.052865
O O1 0.058543 0.340517 0.148614
O O2 0.123746 0.279319 0.074462
O O3 0.097826 0.422525 0.078148
O O4 0.000000 0.322423 0.068899
O O5 0.888075 0.762640 0.797956
O O6 0.925835 0.870906 0.742562
O O7 0.902963 0.898569 0.838229
O O8 0.000000 0.821281 0.811880
O O9 0.169666 0.635438 0.817648
O O10 0.839094 0.500000 0.387630
O O11 0.834708 0.641156 0.416798
O O12 0.783149 0.603066 0.333366
O O13 0.250000 0.250000 0.930673
O O14 0.328059 0.290778 0.000000
O O15 0.750000 0.340203 0.750000
O O16 0.750000 0.250000 0.673316
O O17 0.000000 0.500000 0.051584
O O18 0.103940 0.500000 0.000000
#
# Coordination Sequence:
#
# PCOD8285474 Si02
#       7
#    32  32  32  32  32  32  16
#     4  11  21  39  68  99 131 168 209 260 324 393
#     4  11  21  37  59  90 128 171 214 256 307 366
#     4  11  19  35  63  93 125 163 213 263 311 373
#     4  12  25  41  62  91 129 171 214 264 314 375
#     4  11  25  47  71  95 123 163 218 275 329 388
#     4  11  18  37  63  88 120 164 213 257 311 378
#     4   9  20  38  60  94 133 162 199 257 327 396
#
# _framework density 20.261520999999998
#
# number of rings (size 3 to 8) (size 9 to 14) (size 15 to 20)
#    0.000    1.000    4.615    4.615    0.000    1.846 
#    6.923    0.000    0.000    0.000    0.000    2.154 
#    0.000    0.000    0.000    0.000    0.000    0.000 
#
# Total GULP energy -644512.610255 kJ/mol
# GULP energy per Si atom -12394.473274 kJ/mol
# Density = 2.021540 g / cm^3
# Si number density = 20.261521 Si / 1000 Ang^3
#
#
#
# Elastic Constant Matrix: (Units=GPa)
#
#
# Indices 1 2 3 4 5 6 
#
# 1 124.9275 34.7521 29.9157 0.0000 0.0000 0.0000
# 2 34.7521 133.1366 61.1352 0.0000 0.0000 0.0000
# 3 29.9157 61.1352 138.7418 0.0000 0.0000 0.0000
# 4 0.0000 0.0000 0.0000 114.3597 0.0000 0.0000
# 5 0.0000 0.0000 0.0000 0.0000 35.3496 0.0000
# 6 0.0000 0.0000 0.0000 0.0000 0.0000 15.9190
#
#
#
# Elastic Compliance Matrix: (Units=1/GPa)
#
#
# Indices 1 2 3 4 5 6 
#
# 1 0.008765 -0.001780 -0.001105 0.000000 0.000000 0.000000
# 2 -0.001780 0.009778 -0.003925 0.000000 0.000000 0.000000
# 3 -0.001105 -0.003925 0.009175 0.000000 0.000000 0.000000
# 4 0.000000 0.000000 0.000000 0.008744 0.000000 0.000000
# 5 0.000000 0.000000 0.000000 0.000000 0.028289 0.000000
# 6 0.000000 0.000000 0.000000 0.000000 0.000000 0.062818
#
#
# Mechanical properties :
#
#
# Convention : Reuss Voigt Hill
#
# Bulk Modulus (GPa) = 70.93570 72.04577 71.49074
# Shear Modulus (GPa) = 34.27270 51.19253 42.73261
#
# Velocity S-wave (km/s) = 4.11727 5.03197 4.59742
# Velocity P-wave (km/s) = 7.59530 8.33043 7.97134
#
# Compressibility (1/GPa) = 0.01409727
#
# Stress axis : x y z
#
# Youngs Moduli (GPa) = 114.09588 102.27094 108.98749
#
# Poissons Ratio (x) = 0.18206 0.12048
# Poissons Ratio (y) = 0.20311 0.42774
# Poissons Ratio (z) = 0.12612 0.40138
#
# Static dielectric constant tensor:
#      x y z
#    x 3.660960 0.000000 0.000000 
#    y 0.000000 3.712280 0.000000 
#    z 0.000000 0.000000 3.930010 
# 
# 
# High freq. dielectric constant tensor:
#      x y z
#    x 1.801210 0.000000 0.000000 
#    y 0.000000 1.755280 0.000000 
#    z 0.000000 0.000000 1.798080 
# 
# From -- ./inp_files/42724.got.cif
#   From: 2010.03.12/outbox.cif.g09.slc.cpg/sg69_22_cif.got.tgz:42724.got - 2010.04.10 23:52:46.
