data_PCOD8285825
_publ_section_title
;
Structure prediction by ZEFSAII (Michael W. Deem and Ramdas Pophale) SiO2 
 PCOD8285825
Probable space group: F D D D
;
_chemical_formula_sum "Si O2"
_cell_formula_units_Z 160
_cell_length_a 27.463735
_cell_length_b 24.777009
_cell_length_c 12.608773
_cell_angle_alpha 90.000000
_cell_angle_beta 90.000000
_cell_angle_gamma 90.000000
_cell_volume 8579.881793
_symmetry_space_group_name_H-M "F D D D"
_symmetry_group_IT_number 70
_space_group.IT_coordinate_system_code '2'
_symmetry_cell_setting 'orthorhombic'
loop_
_space_group_symop_operation_xyz
x,y,z
1/4-x,1/4-y,z
x,1/4-y,1/4-z
1/4-x,y,1/4-z
-x,-y,-z
3/4+x,3/4+y,-z
-x,3/4+y,3/4+z
3/4+x,-y,3/4+z
x,1/2+y,1/2+z
1/4-x,3/4-y,1/2+z
x,3/4-y,3/4-z
1/4-x,1/2+y,3/4-z
-x,1/2-y,1/2-z
3/4+x,1/4+y,1/2-z
-x,1/4+y,1/4+z
3/4+x,1/2-y,1/4+z
1/2+x,y,1/2+z
3/4-x,1/4-y,1/2+z
1/2+x,1/4-y,3/4-z
3/4-x,y,3/4-z
1/2-x,-y,1/2-z
1/4+x,3/4+y,1/2-z
1/2-x,3/4+y,1/4+z
1/4+x,-y,1/4+z
1/2+x,1/2+y,z
3/4-x,3/4-y,z
1/2+x,3/4-y,1/4-z
3/4-x,1/2+y,1/4-z
1/2-x,1/2-y,-z
1/4+x,1/4+y,-z
1/2-x,1/4+y,3/4+z
1/4+x,1/2-y,3/4+z
loop_
_atom_site_type_symbol
_atom_site_label
_atom_site_fract_x
_atom_site_fract_y
_atom_site_fract_z
Si Si1 0.682456 0.124752 0.915112
Si Si2 0.182028 0.371464 0.613481
Si Si3 0.742471 0.163770 0.724475
Si Si4 0.504604 0.440825 0.457169
Si Si5 0.244823 0.461027 0.538756
O O1 0.625000 0.125000 0.926799
O O2 0.697930 0.153225 0.805062
O O3 0.703861 0.063614 0.918503
O O4 0.705726 0.158012 0.012785
O O5 0.125000 0.369131 0.625000
O O6 0.205918 0.346157 0.718840
O O7 0.198553 0.337297 0.510767
O O8 0.200439 0.433114 0.602475
O O9 0.735878 0.125000 0.625000
O O10 0.741990 0.225833 0.687601
O O11 0.500000 0.500000 0.500000
O O12 0.511800 0.443358 0.332562
#
# Coordination Sequence:
#
# PCOD8285825 Si02
#       5
#    32  32  32  32  32
#     4  10  22  37  59  93 114 150 205 238 291 352
#     4  10  22  37  59  92 116 151 203 239 294 355
#     4  10  22  42  59  82 123 162 193 240 290 346
#     4  10  18  38  61  82 120 151 185 246 301 339
#     4  10  20  41  61  83 122 157 184 249 299 343
#
# _framework density 18.648275999999999
#
# number of rings (size 3 to 8) (size 9 to 14) (size 15 to 20)
#    0.000    2.400    4.000    2.400    0.000    8.400 
#    7.200    0.000    0.000    0.000    0.000    0.000 
#    0.000    0.000    0.000    0.000    0.000    0.000 
#
# Total GULP energy -495851.873586 kJ/mol
# GULP energy per Si atom -12396.296840 kJ/mol
# Density = 1.860583 g / cm^3
# Si number density = 18.648276 Si / 1000 Ang^3
#
#
#
# Elastic Constant Matrix: (Units=GPa)
#
#
# Indices 1 2 3 4 5 6 
#
# 1 175.5541 52.0224 22.6902 0.0000 0.0000 0.0000
# 2 52.0224 175.0397 36.5312 0.0000 0.0000 0.0000
# 3 22.6902 36.5312 44.6825 0.0003 -0.0002 -0.0001
# 4 0.0000 0.0000 0.0003 37.7339 -0.0001 0.0000
# 5 0.0000 0.0000 -0.0002 -0.0001 12.2095 0.0000
# 6 0.0000 0.0000 -0.0001 0.0000 0.0000 9.3998
#
#
#
# Elastic Compliance Matrix: (Units=1/GPa)
#
#
# Indices 1 2 3 4 5 6 
#
# 1 0.006397 -0.001475 -0.002043 0.000000 0.000000 0.000000
# 2 -0.001475 0.007228 -0.005161 0.000000 0.000000 0.000000
# 3 -0.002043 -0.005161 0.027637 0.000000 0.000000 0.000000
# 4 0.000000 0.000000 0.000000 0.026501 0.000000 0.000000
# 5 0.000000 0.000000 0.000000 0.000000 0.081903 0.000000
# 6 0.000000 0.000000 0.000000 0.000000 0.000000 0.106385
#
#
# Mechanical properties :
#
#
# Convention : Reuss Voigt Hill
#
# Bulk Modulus (GPa) = 41.83121 68.64043 55.23582
# Shear Modulus (GPa) = 17.76971 30.80415 24.28693
#
# Velocity S-wave (km/s) = 3.09024 4.06870 3.61275
# Velocity P-wave (km/s) = 5.93406 7.67856 6.86198
#
# Compressibility (1/GPa) = 0.02390560
#
# Stress axis : x y z
#
# Youngs Moduli (GPa) = 156.31449 138.34272 36.18370
#
# Poissons Ratio (x) = 0.20406 0.07391
# Poissons Ratio (y) = 0.23056 0.18674
# Poissons Ratio (z) = 0.31931 0.71395
#
# Static dielectric constant tensor:
#      x y z
#    x 3.201200 0.000000 0.000000 
#    y 0.000000 3.947170 0.000000 
#    z 0.000000 0.000000 5.407940 
# 
# 
# High freq. dielectric constant tensor:
#      x y z
#    x 1.699600 0.000000 0.000000 
#    y 0.000000 1.739260 0.000000 
#    z 0.000000 0.000000 1.727470 
# 
# From -- ./inp_files/22369.got.cif
#   From: 2010.03.12/outbox.cif.g09.slc.cpg/sg70_12_cif.got.tgz:22369.got - 2010.04.16 13:46:32.
