data_PCOD8285437
_publ_section_title
;
Structure prediction by ZEFSAII (Michael W. Deem and Ramdas Pophale) SiO2 
 PCOD8285437
Probable space group: F M M M
;
_chemical_formula_sum "Si O2"
_cell_formula_units_Z 112
_cell_length_a 8.704569
_cell_length_b 29.146051
_cell_length_c 20.699943
_cell_angle_alpha 90.000000
_cell_angle_beta 90.000000
_cell_angle_gamma 90.000000
_cell_volume 5251.654447
_symmetry_space_group_name_H-M "F M M M"
_symmetry_group_IT_number 69
_symmetry_cell_setting 'orthorhombic'
loop_
_space_group_symop_operation_xyz
x,y,z
-x,-y,z
x,-y,-z
-x,y,-z
-x,-y,-z
x,y,-z
-x,y,z
x,-y,z
x,1/2+y,1/2+z
-x,1/2-y,1/2+z
x,1/2-y,1/2-z
-x,1/2+y,1/2-z
-x,1/2-y,1/2-z
x,1/2+y,1/2-z
-x,1/2+y,1/2+z
x,1/2-y,1/2+z
1/2+x,y,1/2+z
1/2-x,-y,1/2+z
1/2+x,-y,1/2-z
1/2-x,y,1/2-z
1/2-x,-y,1/2-z
1/2+x,y,1/2-z
1/2-x,y,1/2+z
1/2+x,-y,1/2+z
1/2+x,1/2+y,z
1/2-x,1/2-y,z
1/2+x,1/2-y,-z
1/2-x,1/2+y,-z
1/2-x,1/2-y,-z
1/2+x,1/2+y,-z
1/2-x,1/2+y,z
1/2+x,1/2-y,z
loop_
_atom_site_type_symbol
_atom_site_label
_atom_site_fract_x
_atom_site_fract_y
_atom_site_fract_z
Si Si1 0.819735 0.299068 0.926152
Si Si2 0.316194 0.052108 0.139598
Si Si3 0.180779 0.140562 0.815140
Si Si4 0.665121 0.946413 0.000000
O O1 0.750000 0.250000 0.908641
O O2 0.748647 0.336526 0.878995
O O3 0.000000 0.296463 0.914853
O O4 0.779492 0.312945 0.000000
O O5 0.500000 0.058607 0.141979
O O6 0.230397 0.087001 0.186911
O O7 0.271687 0.000000 0.158793
O O8 0.250326 0.064970 0.067433
O O9 0.250000 0.163483 0.750000
O O10 0.000000 0.146214 0.814246
O O11 0.500000 0.920435 0.000000
O O12 0.630342 0.000000 0.000000
#
# Coordination Sequence:
#
# PCOD8285437 Si02
#       4
#    32  32  32  16
#     4  10  22  43  71 100 129 161 200 249 308 372
#     4   9  18  35  59  87 121 163 210 258 311 369
#     4  12  26  42  61  89 127 168 214 260 310 369
#     4   7  12  26  51  81 110 145 192 243 297 357
#
# _framework density 21.326613999999999
#
# number of rings (size 3 to 8) (size 9 to 14) (size 15 to 20)
#    0.000    2.143    0.000    5.143    2.000    3.429 
#    0.000    2.857    0.000    2.571    0.000    0.000 
#    0.000    0.000    0.000    0.000    0.000    0.000 
#
# Total GULP energy -347022.334045 kJ/mol
# GULP energy per Si atom -12393.654787 kJ/mol
# Density = 2.127807 g / cm^3
# Si number density = 21.326614 Si / 1000 Ang^3
#
#
#
# Elastic Constant Matrix: (Units=GPa)
#
#
# Indices 1 2 3 4 5 6 
#
# 1 112.1355 50.0317 49.3653 0.0000 0.0000 0.0000
# 2 50.0317 98.6634 53.4999 0.0000 0.0000 0.0000
# 3 49.3653 53.4999 110.2414 0.0000 0.0000 0.0000
# 4 0.0000 0.0000 0.0000 22.3457 0.0000 0.0000
# 5 0.0000 0.0000 0.0000 0.0000 9.6692 0.0000
# 6 0.0000 0.0000 0.0000 0.0000 0.0000 34.8942
#
#
#
# Elastic Compliance Matrix: (Units=1/GPa)
#
#
# Indices 1 2 3 4 5 6 
#
# 1 0.012395 -0.004446 -0.003393 0.000000 0.000000 0.000000
# 2 -0.004446 0.015350 -0.005458 0.000000 0.000000 0.000000
# 3 -0.003393 -0.005458 0.013239 0.000000 0.000000 0.000000
# 4 0.000000 0.000000 0.000000 0.044751 0.000000 0.000000
# 5 0.000000 0.000000 0.000000 0.000000 0.103421 0.000000
# 6 0.000000 0.000000 0.000000 0.000000 0.000000 0.028658
#
#
# Mechanical properties :
#
#
# Convention : Reuss Voigt Hill
#
# Bulk Modulus (GPa) = 69.49296 69.64822 69.57059
# Shear Modulus (GPa) = 20.06383 24.59139 22.32761
#
# Velocity S-wave (km/s) = 3.07056 3.39939 3.23915
# Velocity P-wave (km/s) = 6.72510 6.93806 6.83241
#
# Compressibility (1/GPa) = 0.01438995
#
# Stress axis : x y z
#
# Youngs Moduli (GPa) = 80.67798 65.14811 75.53279
#
# Poissons Ratio (x) = 0.28962 0.25628
# Poissons Ratio (y) = 0.35866 0.41229
# Poissons Ratio (z) = 0.27373 0.35561
#
# Static dielectric constant tensor:
#      x y z
#    x 3.560680 0.000000 0.000000 
#    y 0.000000 3.725290 0.000000 
#    z 0.000000 0.000000 4.233640 
# 
# 
# High freq. dielectric constant tensor:
#      x y z
#    x 1.811370 0.000000 0.000000 
#    y 0.000000 1.829490 0.000000 
#    z 0.000000 0.000000 1.851660 
# 
# From -- ./inp_files/34496.got.cif
#   From: 2010.03.12/outbox.cif.g09.slc.cpg/sg69_18_cif.got.tgz:34496.got - 2010.04.10 23:52:46.
