data_PCOD8285339
_publ_section_title
;
Structure prediction by ZEFSAII (Michael W. Deem and Ramdas Pophale) SiO2 
 PCOD8285339
Probable space group: F M M M
;
_chemical_formula_sum "Si O2"
_cell_formula_units_Z 160
_cell_length_a 21.933574
_cell_length_b 21.924533
_cell_length_c 17.526658
_cell_angle_alpha 90.000000
_cell_angle_beta 90.000000
_cell_angle_gamma 90.000000
_cell_volume 8428.278311
_symmetry_space_group_name_H-M "F M M M"
_symmetry_group_IT_number 69
_symmetry_cell_setting 'orthorhombic'
loop_
_space_group_symop_operation_xyz
x,y,z
-x,-y,z
x,-y,-z
-x,y,-z
-x,-y,-z
x,y,-z
-x,y,z
x,-y,z
x,1/2+y,1/2+z
-x,1/2-y,1/2+z
x,1/2-y,1/2-z
-x,1/2+y,1/2-z
-x,1/2-y,1/2-z
x,1/2+y,1/2-z
-x,1/2+y,1/2+z
x,1/2-y,1/2+z
1/2+x,y,1/2+z
1/2-x,-y,1/2+z
1/2+x,-y,1/2-z
1/2-x,y,1/2-z
1/2-x,-y,1/2-z
1/2+x,y,1/2-z
1/2-x,y,1/2+z
1/2+x,-y,1/2+z
1/2+x,1/2+y,z
1/2-x,1/2-y,z
1/2+x,1/2-y,-z
1/2-x,1/2+y,-z
1/2-x,1/2-y,-z
1/2+x,1/2+y,-z
1/2-x,1/2+y,z
1/2+x,1/2-y,z
loop_
_atom_site_type_symbol
_atom_site_label
_atom_site_fract_x
_atom_site_fract_y
_atom_site_fract_z
Si Si1 0.753986 0.866689 0.416023
Si Si2 0.146808 0.500000 0.737391
Si Si3 0.878979 0.183204 0.912755
Si Si4 0.346852 0.706621 0.318333
Si Si5 0.264137 0.000000 0.868676
Si Si6 0.430451 0.379534 0.224887
O O1 0.772055 0.840937 0.500000
O O2 0.684100 0.852072 0.398785
O O3 0.792286 0.835652 0.348584
O O4 0.763505 0.939267 0.419324
O O5 0.204678 0.500000 0.683128
O O6 0.172304 0.500000 0.822942
O O7 0.105341 0.557846 0.722240
O O8 0.871601 0.253741 0.888927
O O9 0.928674 0.151059 0.858936
O O10 0.901127 0.179610 0.000000
O O11 0.322317 0.750000 0.250000
O O12 0.401639 0.665169 0.287757
O O13 0.500000 0.391557 0.248101
#
# Coordination Sequence:
#
# PCOD8285339 Si02
#       6
#    32  16  32  32  16  32
#     4  11  21  37  59  89 123 151 183 236 302 354
#     4  11  21  38  62  87 115 145 191 240 301 335
#     4  10  22  38  58  86 120 152 187 234 289 350
#     4  10  22  36  59  87 117 152 193 238 285 342
#     4  11  21  36  64  90 112 150 185 241 299 350
#     4  11  23  40  60  83 113 155 198 239 280 332
#
# _framework density 18.983711
#
# number of rings (size 3 to 8) (size 9 to 14) (size 15 to 20)
#    0.000    1.400    4.000    1.800    0.000   11.200 
#    0.000    0.500    0.000    3.000    0.000    1.400 
#    0.000    0.000    0.000    0.000    0.000    0.000 
#
# Total GULP energy -496041.755438 kJ/mol
# GULP energy per Si atom -12401.043886 kJ/mol
# Density = 1.894050 g / cm^3
# Si number density = 18.983711 Si / 1000 Ang^3
#
#
#
# Elastic Constant Matrix: (Units=GPa)
#
#
# Indices 1 2 3 4 5 6 
#
# 1 70.8359 19.2368 23.5157 0.0000 0.0000 0.0000
# 2 19.2368 113.6651 19.8143 0.0000 0.0000 0.0000
# 3 23.5157 19.8143 77.2156 0.0000 0.0000 0.0000
# 4 0.0000 0.0000 0.0000 -5.3079 0.0000 0.0000
# 5 0.0000 0.0000 0.0000 0.0000 16.6947 0.0000
# 6 0.0000 0.0000 0.0000 0.0000 0.0000 15.2905
#
#
#
# Elastic Compliance Matrix: (Units=1/GPa)
#
#
# Indices 1 2 3 4 5 6 
#
# 1 0.016111 -0.001959 -0.004404 0.000000 0.000000 0.000000
# 2 -0.001959 0.009448 -0.001828 0.000000 0.000000 0.000000
# 3 -0.004404 -0.001828 0.014761 0.000000 0.000000 0.000000
# 4 0.000000 0.000000 0.000000 -0.188398 0.000000 0.000000
# 5 0.000000 0.000000 0.000000 0.000000 0.059899 0.000000
# 6 0.000000 0.000000 0.000000 0.000000 0.000000 0.065400
#
#
# Mechanical properties :
#
#
# Convention : Reuss Voigt Hill
#
# Bulk Modulus (GPa) = 41.77344 42.98334 42.37839
# Shear Modulus (GPa) = 3159.68619 18.61212 1589.14915
#
# Velocity S-wave (km/s) = 40.84156 3.13457 28.96428
# Velocity P-wave (km/s) = 47.39300 5.98265 33.77787
#
# Compressibility (1/GPa) = 0.02393866
#
# Stress axis : x y z
#
# Youngs Moduli (GPa) = 62.06895 105.84316 67.74614
#
# Poissons Ratio (x) = 0.20734 0.29835
# Poissons Ratio (y) = 0.12159 0.12383
# Poissons Ratio (z) = 0.27334 0.19346
#
# Static dielectric constant tensor:
#      x y z
#    x 3.210140 0.000000 0.000000 
#    y 0.000000 3.688980 0.000000 
#    z 0.000000 0.000000 3.551240 
# 
# 
# High freq. dielectric constant tensor:
#      x y z
#    x 1.715710 0.000000 0.000000 
#    y 0.000000 1.753570 0.000000 
#    z 0.000000 0.000000 1.739990 
# 
# From -- ./inp_files/24611.got.cif
#   From: 2010.03.12/outbox.cif.g09.slc.cpg/sg69_13_cif.got.tgz:24611.got - 2010.04.10 23:52:46.
