data_PCOD8285902
_publ_section_title
;
Structure prediction by ZEFSAII (Michael W. Deem and Ramdas Pophale) SiO2 
 PCOD8285902
Probable space group: F D D D
;
_chemical_formula_sum "Si O2"
_cell_formula_units_Z 224
_cell_length_a 26.434336
_cell_length_b 16.853241
_cell_length_c 19.825137
_cell_angle_alpha 90.000000
_cell_angle_beta 90.000000
_cell_angle_gamma 90.000000
_cell_volume 8832.182499
_symmetry_space_group_name_H-M "F D D D"
_symmetry_group_IT_number 70
_space_group.IT_coordinate_system_code '2'
_symmetry_cell_setting 'orthorhombic'
loop_
_space_group_symop_operation_xyz
x,y,z
1/4-x,1/4-y,z
x,1/4-y,1/4-z
1/4-x,y,1/4-z
-x,-y,-z
3/4+x,3/4+y,-z
-x,3/4+y,3/4+z
3/4+x,-y,3/4+z
x,1/2+y,1/2+z
1/4-x,3/4-y,1/2+z
x,3/4-y,3/4-z
1/4-x,1/2+y,3/4-z
-x,1/2-y,1/2-z
3/4+x,1/4+y,1/2-z
-x,1/4+y,1/4+z
3/4+x,1/2-y,1/4+z
1/2+x,y,1/2+z
3/4-x,1/4-y,1/2+z
1/2+x,1/4-y,3/4-z
3/4-x,y,3/4-z
1/2-x,-y,1/2-z
1/4+x,3/4+y,1/2-z
1/2-x,3/4+y,1/4+z
1/4+x,-y,1/4+z
1/2+x,1/2+y,z
3/4-x,3/4-y,z
1/2+x,3/4-y,1/4-z
3/4-x,1/2+y,1/4-z
1/2-x,1/2-y,-z
1/4+x,1/4+y,-z
1/2-x,1/4+y,3/4+z
1/4+x,1/2-y,3/4+z
loop_
_atom_site_type_symbol
_atom_site_label
_atom_site_fract_x
_atom_site_fract_y
_atom_site_fract_z
Si Si1 0.978426 0.419761 0.225099
Si Si2 0.767479 0.776059 0.385539
Si Si3 0.916018 0.584235 0.460147
Si Si4 0.375000 0.875000 0.065969
Si Si5 0.266551 0.393900 0.236316
Si Si6 0.172700 0.024085 0.329939
Si Si7 0.625000 0.461226 0.625000
Si Si8 0.522980 0.997836 0.647497
O O1 0.936307 0.362580 0.194830
O O2 0.982510 0.498905 0.177523
O O3 0.032250 0.377743 0.227969
O O4 0.960610 0.431948 0.302414
O O5 0.759041 0.716771 0.448414
O O6 0.757224 0.858846 0.429821
O O7 0.826628 0.767232 0.368276
O O8 0.896323 0.530772 0.522832
O O9 0.874365 0.650393 0.439963
O O10 0.928754 0.527142 0.396459
O O11 0.327303 0.854605 0.019857
O O12 0.365338 0.956722 0.109094
O O13 0.244518 0.317285 0.201358
O O14 0.224494 0.979475 0.351802
#
# Coordination Sequence:
#
# PCOD8285902 Si02
#       8
#    32  32  32  16  32  32  16  32
#     4  10  19  36  60  86 115 153 196 239 293 351
#     4  10  20  39  63  86 117 155 199 252 309 363
#     4  10  21  37  56  85 120 156 196 239 291 350
#     4  10  20  38  58  90 116 160 194 250 304 362
#     4  10  20  39  63  86 117 155 199 252 309 363
#     4  10  21  37  56  85 120 156 196 239 291 350
#     4  10  20  38  58  90 116 160 194 250 304 362
#     4  10  19  36  60  86 115 153 196 239 293 351
#
# _framework density 25.361794
#
# number of rings (size 3 to 8) (size 9 to 14) (size 15 to 20)
#    0.000    2.000    5.714    1.714    0.000    8.571 
#    0.000    0.000    0.000    0.000    0.000    0.000 
#    0.000    0.000    0.000    0.000    0.000    0.000 
#
# Total GULP energy -693811.297462 kJ/mol
# GULP energy per Si atom -12389.487455 kJ/mol
# Density = 2.530407 g / cm^3
# Si number density = 25.361794 Si / 1000 Ang^3
#
#
#
# Elastic Constant Matrix: (Units=GPa)
#
#
# Indices 1 2 3 4 5 6 
#
# 1 32.1689 -12.8235 -15.5033 0.0000 0.0000 0.0000
# 2 -12.8235 51.0770 10.1535 0.0000 0.0000 0.0000
# 3 -15.5033 10.1535 132.0185 0.0000 0.0000 0.0000
# 4 0.0000 0.0000 0.0000 12.4659 0.0000 0.0000
# 5 0.0000 0.0000 0.0000 0.0000 11.1604 0.0000
# 6 0.0000 0.0000 0.0000 0.0000 0.0000 8.1894
#
#
#
# Elastic Compliance Matrix: (Units=1/GPa)
#
#
# Indices 1 2 3 4 5 6 
#
# 1 0.036155 0.008361 0.003603 0.000000 0.000000 0.000000
# 2 0.008361 0.021816 -0.000696 0.000000 0.000000 0.000000
# 3 0.003603 -0.000696 0.008051 0.000000 0.000000 0.000000
# 4 0.000000 0.000000 0.000000 0.080219 0.000000 0.000000
# 5 0.000000 0.000000 0.000000 0.000000 0.089603 0.000000
# 6 0.000000 0.000000 0.000000 0.000000 0.000000 0.122110
#
#
# Mechanical properties :
#
#
# Convention : Reuss Voigt Hill
#
# Bulk Modulus (GPa) = 11.29206 19.87975 15.58591
# Shear Modulus (GPa) = 13.70100 21.92565 17.81332
#
# Velocity S-wave (km/s) = 2.32679 2.94345 2.65310
# Velocity P-wave (km/s) = 3.41770 4.40538 3.94259
#
# Compressibility (1/GPa) = 0.08855777
#
# Stress axis : x y z
#
# Youngs Moduli (GPa) = 27.65859 45.83837 124.20344
#
# Poissons Ratio (x) = -0.38326 -0.44747
# Poissons Ratio (y) = -0.23125 0.08644
# Poissons Ratio (z) = -0.09965 0.03190
#
# Static dielectric constant tensor:
#      x y z
#    x 4.252400 0.000000 0.000000 
#    y 0.000000 5.544840 0.000000 
#    z 0.000000 0.000000 5.114280 
# 
# 
# High freq. dielectric constant tensor:
#      x y z
#    x 1.978880 0.000000 0.000000 
#    y 0.000000 2.010250 0.000000 
#    z 0.000000 0.000000 2.036850 
# 
# From -- ./inp_files/47759.got.cif
#   From: 2010.03.12/outbox.cif.g09.slc.cpg/sg70_24_cif.got.tgz:47759.got - 2010.04.16 13:46:32.
