data_PCOD8285787
_publ_section_title
;
Structure prediction by ZEFSAII (Michael W. Deem and Ramdas Pophale) SiO2 
 PCOD8285787
Probable space group: F D D D
;
_chemical_formula_sum "Si O2"
_cell_formula_units_Z 216
_cell_length_a 29.976459
_cell_length_b 20.278801
_cell_length_c 19.296490
_cell_angle_alpha 90.000000
_cell_angle_beta 90.000000
_cell_angle_gamma 90.000000
_cell_volume 11730.078600
_symmetry_space_group_name_H-M "F D D D"
_symmetry_group_IT_number 70
_space_group.IT_coordinate_system_code '2'
_symmetry_cell_setting 'orthorhombic'
loop_
_space_group_symop_operation_xyz
x,y,z
1/4-x,1/4-y,z
x,1/4-y,1/4-z
1/4-x,y,1/4-z
-x,-y,-z
3/4+x,3/4+y,-z
-x,3/4+y,3/4+z
3/4+x,-y,3/4+z
x,1/2+y,1/2+z
1/4-x,3/4-y,1/2+z
x,3/4-y,3/4-z
1/4-x,1/2+y,3/4-z
-x,1/2-y,1/2-z
3/4+x,1/4+y,1/2-z
-x,1/4+y,1/4+z
3/4+x,1/2-y,1/4+z
1/2+x,y,1/2+z
3/4-x,1/4-y,1/2+z
1/2+x,1/4-y,3/4-z
3/4-x,y,3/4-z
1/2-x,-y,1/2-z
1/4+x,3/4+y,1/2-z
1/2-x,3/4+y,1/4+z
1/4+x,-y,1/4+z
1/2+x,1/2+y,z
3/4-x,3/4-y,z
1/2+x,3/4-y,1/4-z
3/4-x,1/2+y,1/4-z
1/2-x,1/2-y,-z
1/4+x,1/4+y,-z
1/2-x,1/4+y,3/4+z
1/4+x,1/2-y,3/4+z
loop_
_atom_site_type_symbol
_atom_site_label
_atom_site_fract_x
_atom_site_fract_y
_atom_site_fract_z
Si Si1 0.247259 0.738841 0.418684
Si Si2 0.582000 0.803093 0.085651
Si Si3 0.332024 0.330799 0.761946
Si Si4 0.467665 0.081249 0.972995
Si Si5 0.957957 0.892458 0.623270
Si Si6 0.125000 0.625000 0.125000
Si Si7 0.734491 0.125000 0.625000
Si Si8 0.809753 0.437473 0.767541
O O1 0.250000 0.750000 0.500000
O O2 0.295249 0.714714 0.392589
O O3 0.210339 0.685114 0.395276
O O4 0.235234 0.809309 0.382739
O O5 0.625000 0.832613 0.125000
O O6 0.596827 0.737713 0.045350
O O7 0.564482 0.855272 0.028180
O O8 0.375000 0.375000 0.752179
O O9 0.310505 0.315682 0.687255
O O10 0.296333 0.370427 0.807318
O O11 0.492903 0.079308 0.897584
O O12 0.438304 0.016786 0.986976
O O13 0.507763 0.085533 0.030820
O O14 0.925659 0.903849 0.556016
O O15 0.156924 0.580796 0.171675
#
# Coordination Sequence:
#
# PCOD8285787 Si02
#       8
#    32  32  32  32  32   8  16  32
#     4  10  18  34  53  83 122 158 198 245 294 365
#     4  10  21  34  57  90 115 157 209 238 302 364
#     4  11  20  31  53  83 120 156 191 246 286 359
#     4   8  19  42  60  81 120 151 200 251 309 381
#     4   9  19  35  57  79 113 159 195 244 307 357
#     4  12  24  36  68  92 118 146 212 268 300 380
#     4  10  19  32  52  80 113 152 203 226 284 356
#     4   9  21  41  59  91 112 151 204 257 311 369
#
# _framework density 18.414199
#
# number of rings (size 3 to 8) (size 9 to 14) (size 15 to 20)
#    0.889    1.481    1.481    2.000    2.074    1.185 
#    0.000    0.000    0.000    0.000    0.000    0.000 
#    0.000    0.000    0.000    0.000    0.000    0.000 
#
# Total GULP energy -669011.556061 kJ/mol
# GULP energy per Si atom -12389.102890 kJ/mol
# Density = 1.837229 g / cm^3
# Si number density = 18.414199 Si / 1000 Ang^3
#
#
#
# Elastic Constant Matrix: (Units=GPa)
#
#
# Indices 1 2 3 4 5 6 
#
# 1 62.4423 39.4276 31.6051 0.0000 0.0000 0.0000
# 2 39.4276 108.7935 40.8722 0.0000 0.0000 0.0000
# 3 31.6051 40.8722 110.8820 0.0000 0.0000 0.0000
# 4 0.0000 0.0000 0.0000 24.5078 0.0000 0.0000
# 5 0.0000 0.0000 0.0000 0.0000 25.1284 0.0000
# 6 0.0000 0.0000 0.0000 0.0000 0.0000 29.5435
#
#
#
# Elastic Compliance Matrix: (Units=1/GPa)
#
#
# Indices 1 2 3 4 5 6 
#
# 1 0.022123 -0.006557 -0.003889 0.000000 0.000000 0.000000
# 2 -0.006557 0.012612 -0.002780 0.000000 0.000000 0.000000
# 3 -0.003889 -0.002780 0.011152 0.000000 0.000000 0.000000
# 4 0.000000 0.000000 0.000000 0.040803 0.000000 0.000000
# 5 0.000000 0.000000 0.000000 0.000000 0.039796 0.000000
# 6 0.000000 0.000000 0.000000 0.000000 0.000000 0.033848
#
#
# Mechanical properties :
#
#
# Convention : Reuss Voigt Hill
#
# Bulk Modulus (GPa) = 51.45126 56.21417 53.83271
# Shear Modulus (GPa) = 25.87121 27.18347 26.52734
#
# Velocity S-wave (km/s) = 3.75235 3.84633 3.79963
# Velocity P-wave (km/s) = 6.83924 7.09363 6.96760
#
# Compressibility (1/GPa) = 0.01943587
#
# Stress axis : x y z
#
# Youngs Moduli (GPa) = 45.20140 79.28735 89.67073
#
# Poissons Ratio (x) = 0.51985 0.34873
# Poissons Ratio (y) = 0.29637 0.24930
# Poissons Ratio (z) = 0.17579 0.22043
#
# Static dielectric constant tensor:
#      x y z
#    x 3.164580 0.000000 0.000000 
#    y 0.000000 3.478290 0.000000 
#    z 0.000000 0.000000 3.339470 
# 
# 
# High freq. dielectric constant tensor:
#      x y z
#    x 1.687900 0.000000 0.000000 
#    y 0.000000 1.715620 0.000000 
#    z 0.000000 0.000000 1.704620 
# 
# From -- ./inp_files/47789.got.cif
#   From: 2010.03.12/outbox.cif.g09.slc.cpg/sg70_24_cif.got.tgz:47789.got - 2010.04.16 13:46:32.
