data_PCOD8285513
_publ_section_title
;
Structure prediction by ZEFSAII (Michael W. Deem and Ramdas Pophale) SiO2 
 PCOD8285513
Probable space group: F M M M
;
_chemical_formula_sum "Si O2"
_cell_formula_units_Z 112
_cell_length_a 9.628513
_cell_length_b 22.126257
_cell_length_c 27.175488
_cell_angle_alpha 90.000000
_cell_angle_beta 90.000000
_cell_angle_gamma 90.000000
_cell_volume 5789.546217
_symmetry_space_group_name_H-M "F M M M"
_symmetry_group_IT_number 69
_symmetry_cell_setting 'orthorhombic'
loop_
_space_group_symop_operation_xyz
x,y,z
-x,-y,z
x,-y,-z
-x,y,-z
-x,-y,-z
x,y,-z
-x,y,z
x,-y,z
x,1/2+y,1/2+z
-x,1/2-y,1/2+z
x,1/2-y,1/2-z
-x,1/2+y,1/2-z
-x,1/2-y,1/2-z
x,1/2+y,1/2-z
-x,1/2+y,1/2+z
x,1/2-y,1/2+z
1/2+x,y,1/2+z
1/2-x,-y,1/2+z
1/2+x,-y,1/2-z
1/2-x,y,1/2-z
1/2-x,-y,1/2-z
1/2+x,y,1/2-z
1/2-x,y,1/2+z
1/2+x,-y,1/2+z
1/2+x,1/2+y,z
1/2-x,1/2-y,z
1/2+x,1/2-y,-z
1/2-x,1/2+y,-z
1/2-x,1/2-y,-z
1/2+x,1/2+y,-z
1/2-x,1/2+y,z
1/2+x,1/2-y,z
loop_
_atom_site_type_symbol
_atom_site_label
_atom_site_fract_x
_atom_site_fract_y
_atom_site_fract_z
Si Si1 0.776074 0.876287 0.394675
Si Si2 0.669514 0.810168 0.200003
Si Si3 0.000000 0.199430 0.445566
Si Si4 0.000000 0.341883 0.443940
Si Si5 0.657171 0.500000 0.445659
O O1 0.800196 0.866324 0.336451
O O2 0.863198 0.823508 0.419733
O O3 0.621981 0.867946 0.411945
O O4 0.816156 0.942884 0.411160
O O5 0.500000 0.800311 0.206328
O O6 0.750000 0.827530 0.250000
O O7 0.750000 0.750000 0.179932
O O8 0.000000 0.270596 0.445126
O O9 0.000000 0.172419 0.500000
O O10 0.000000 0.366943 0.500000
O O11 0.500000 0.500000 0.460737
O O12 0.735465 0.500000 0.500000
#
# Coordination Sequence:
#
# PCOD8285513 Si02
#       5
#    32  32  16  16  16
#     4  12  24  39  63  91 127 169 214 261 318 374
#     4  11  23  40  66  97 128 164 211 266 329 390
#     4  11  20  37  60  90 123 161 205 254 322 388
#     4  11  24  37  58  92 131 163 203 268 328 388
#     4  11  22  41  66  89 123 174 224 261 301 376
#
# _framework density 19.345212
#
# number of rings (size 3 to 8) (size 9 to 14) (size 15 to 20)
#    0.000    0.714    2.857    6.857    4.000    2.857 
#    0.000    2.143    0.000    0.000    0.000    0.000 
#    0.000    0.000    0.000    0.000    0.000    0.000 
#
# Total GULP energy -346904.268240 kJ/mol
# GULP energy per Si atom -12389.438151 kJ/mol
# Density = 1.930118 g / cm^3
# Si number density = 19.345212 Si / 1000 Ang^3
#
#
#
# Elastic Constant Matrix: (Units=GPa)
#
#
# Indices 1 2 3 4 5 6 
#
# 1 156.3058 28.8410 46.7294 0.0000 0.0000 0.0000
# 2 28.8410 96.2354 64.5583 0.0000 0.0000 0.0000
# 3 46.7294 64.5583 142.3083 0.0000 0.0000 0.0000
# 4 0.0000 0.0000 0.0000 37.5942 0.0000 0.0000
# 5 0.0000 0.0000 0.0000 0.0000 38.0990 0.0000
# 6 0.0000 0.0000 0.0000 0.0000 0.0000 26.2465
#
#
#
# Elastic Compliance Matrix: (Units=1/GPa)
#
#
# Indices 1 2 3 4 5 6 
#
# 1 0.007138 -0.000815 -0.001974 0.000000 0.000000 0.000000
# 2 -0.000815 0.015030 -0.006551 0.000000 0.000000 0.000000
# 3 -0.001974 -0.006551 0.010647 0.000000 0.000000 0.000000
# 4 0.000000 0.000000 0.000000 0.026600 0.000000 0.000000
# 5 0.000000 0.000000 0.000000 0.000000 0.026247 0.000000
# 6 0.000000 0.000000 0.000000 0.000000 0.000000 0.038100
#
#
# Mechanical properties :
#
#
# Convention : Reuss Voigt Hill
#
# Bulk Modulus (GPa) = 70.74436 75.01186 72.87811
# Shear Modulus (GPa) = 33.97790 37.36933 35.67362
#
# Velocity S-wave (km/s) = 4.19549 4.39989 4.29890
# Velocity P-wave (km/s) = 7.75360 8.04187 7.89905
#
# Compressibility (1/GPa) = 0.01413540
#
# Stress axis : x y z
#
# Youngs Moduli (GPa) = 140.08909 66.53416 93.92273
#
# Poissons Ratio (x) = 0.05421 0.18543
# Poissons Ratio (y) = 0.11415 0.61526
# Poissons Ratio (z) = 0.27658 0.43585
#
# Static dielectric constant tensor:
#      x y z
#    x 3.758050 0.000000 0.000000 
#    y 0.000000 3.382450 0.000000 
#    z 0.000000 0.000000 3.842030 
# 
# 
# High freq. dielectric constant tensor:
#      x y z
#    x 1.769750 0.000000 0.000000 
#    y 0.000000 1.734880 0.000000 
#    z 0.000000 0.000000 1.763790 
# 
# From -- ./inp_files/4494.got.cif
#   From: 2010.03.12/outbox.cif.g09.slc.cpg/sg69_3_cif.got.tgz:4494.got - 2010.04.10 23:52:46.
