data_PCOD8285278
_publ_section_title
;
Structure prediction by ZEFSAII (Michael W. Deem and Ramdas Pophale) SiO2 
 PCOD8285278
Probable space group: F M M M
;
_chemical_formula_sum "Si O2"
_cell_formula_units_Z 208
_cell_length_a 20.180028
_cell_length_b 18.538982
_cell_length_c 27.659137
_cell_angle_alpha 90.000000
_cell_angle_beta 90.000000
_cell_angle_gamma 90.000000
_cell_volume 10347.758221
_symmetry_space_group_name_H-M "F M M M"
_symmetry_group_IT_number 69
_symmetry_cell_setting 'orthorhombic'
loop_
_space_group_symop_operation_xyz
x,y,z
-x,-y,z
x,-y,-z
-x,y,-z
-x,-y,-z
x,y,-z
-x,y,z
x,-y,z
x,1/2+y,1/2+z
-x,1/2-y,1/2+z
x,1/2-y,1/2-z
-x,1/2+y,1/2-z
-x,1/2-y,1/2-z
x,1/2+y,1/2-z
-x,1/2+y,1/2+z
x,1/2-y,1/2+z
1/2+x,y,1/2+z
1/2-x,-y,1/2+z
1/2+x,-y,1/2-z
1/2-x,y,1/2-z
1/2-x,-y,1/2-z
1/2+x,y,1/2-z
1/2-x,y,1/2+z
1/2+x,-y,1/2+z
1/2+x,1/2+y,z
1/2-x,1/2-y,z
1/2+x,1/2-y,-z
1/2-x,1/2+y,-z
1/2-x,1/2-y,-z
1/2+x,1/2+y,-z
1/2-x,1/2+y,z
1/2+x,1/2-y,z
loop_
_atom_site_type_symbol
_atom_site_label
_atom_site_fract_x
_atom_site_fract_y
_atom_site_fract_z
Si Si1 0.404106 0.844405 0.866091
Si Si2 0.267365 0.582043 0.372443
Si Si3 0.424694 0.313290 0.100922
Si Si4 0.500000 0.914232 0.942420
Si Si5 0.634718 0.417624 0.822097
Si Si6 0.790604 0.818011 0.054514
Si Si7 0.926730 0.668820 0.241677
O O1 0.327519 0.864403 0.863145
O O2 0.416758 0.759997 0.869749
O O3 0.436705 0.885166 0.912287
O O4 0.432745 0.861121 0.813154
O O5 0.292241 0.500000 0.378622
O O6 0.213786 0.589512 0.329681
O O7 0.230680 0.607404 0.420965
O O8 0.500000 0.321419 0.080530
O O9 0.408359 0.377786 0.137195
O O10 0.370417 0.309485 0.058030
O O11 0.500000 0.000000 0.940856
O O12 0.500000 0.889379 0.000000
O O13 0.611770 0.500000 0.823968
O O14 0.621414 0.385543 0.769442
O O15 0.750000 0.750000 0.077402
O O16 0.768294 0.825505 0.000000
O O17 0.898872 0.750000 0.250000
O O18 0.000000 0.665473 0.264956
#
# Coordination Sequence:
#
# PCOD8285278 Si02
#       7
#    32  32  32  16  32  32  32
#     4  12  22  41  66  93 127 173 217 267 326 388
#     4  10  23  42  63  89 127 169 215 268 325 387
#     4  11  21  38  63  92 130 166 209 264 323 387
#     4  11  26  44  61  92 135 175 220 273 334 394
#     4  10  23  41  63  93 128 171 213 259 321 384
#     4  10  21  38  62  90 119 160 215 266 319 386
#     4  11  22  39  64  94 131 169 214 266 319 384
#
# _framework density 20.100971999999999
#
# number of rings (size 3 to 8) (size 9 to 14) (size 15 to 20)
#    0.000    1.308    4.615    0.923    0.000    4.923 
#    0.000    2.308    0.000    0.000    0.000    4.308 
#    0.000    0.000    0.000    0.000    0.000    0.000 
#
# Total GULP energy -644516.449842 kJ/mol
# GULP energy per Si atom -12394.547112 kJ/mol
# Density = 2.005522 g / cm^3
# Si number density = 20.100972 Si / 1000 Ang^3
#
#
#
# Elastic Constant Matrix: (Units=GPa)
#
#
# Indices 1 2 3 4 5 6 
#
# 1 130.6360 48.5358 27.1810 0.0000 0.0000 0.0000
# 2 48.5358 116.3881 45.1032 0.0000 0.0000 0.0000
# 3 27.1810 45.1032 112.9291 0.0000 0.0000 0.0000
# 4 0.0000 0.0000 0.0000 23.8335 0.0000 0.0000
# 5 0.0000 0.0000 0.0000 0.0000 516.5737 0.0000
# 6 0.0000 0.0000 0.0000 0.0000 0.0000 21.0631
#
#
#
# Elastic Compliance Matrix: (Units=1/GPa)
#
#
# Indices 1 2 3 4 5 6 
#
# 1 0.009119 -0.003493 -0.000800 0.000000 0.000000 0.000000
# 2 -0.003493 0.011503 -0.003754 0.000000 0.000000 0.000000
# 3 -0.000800 -0.003754 0.010547 0.000000 0.000000 0.000000
# 4 0.000000 0.000000 0.000000 0.041958 0.000000 0.000000
# 5 0.000000 0.000000 0.000000 0.000000 0.001936 0.000000
# 6 0.000000 0.000000 0.000000 0.000000 0.000000 0.047476
#
#
# Mechanical properties :
#
#
# Convention : Reuss Voigt Hill
#
# Bulk Modulus (GPa) = 66.32883 66.84366 66.58625
# Shear Modulus (GPa) = 34.80516 128.23626 81.52071
#
# Velocity S-wave (km/s) = 4.16566 7.99591 6.37524
# Velocity P-wave (km/s) = 7.49710 10.88909 9.34823
#
# Compressibility (1/GPa) = 0.01507640
#
# Stress axis : x y z
#
# Youngs Moduli (GPa) = 109.66146 86.93304 94.81557
#
# Poissons Ratio (x) = 0.30364 0.07584
# Poissons Ratio (y) = 0.38303 0.35590
# Poissons Ratio (z) = 0.08771 0.32631
#
# Static dielectric constant tensor:
#      x y z
#    x 3.859690 0.000000 0.000000 
#    y 0.000000 3.705560 0.000000 
#    z 0.000000 0.000000 3.530770 
# 
# 
# High freq. dielectric constant tensor:
#      x y z
#    x 1.792450 0.000000 0.000000 
#    y 0.000000 1.786530 0.000000 
#    z 0.000000 0.000000 1.772910 
# 
# From -- ./inp_files/42734.got.cif
#   From: 2010.03.12/outbox.cif.g09.slc.cpg/sg69_22_cif.got.tgz:42734.got - 2010.04.10 23:52:46.
