data_PCOD8285075
_publ_section_title
;
Structure prediction by ZEFSAII (Michael W. Deem and Ramdas Pophale) SiO2 
 PCOD8285075
Probable space group: F M M M
;
_chemical_formula_sum "Si O2"
_cell_formula_units_Z 176
_cell_length_a 17.368652
_cell_length_b 27.982782
_cell_length_c 17.175032
_cell_angle_alpha 90.000000
_cell_angle_beta 90.000000
_cell_angle_gamma 90.000000
_cell_volume 8347.464057
_symmetry_space_group_name_H-M "F M M M"
_symmetry_group_IT_number 69
_symmetry_cell_setting 'orthorhombic'
loop_
_space_group_symop_operation_xyz
x,y,z
-x,-y,z
x,-y,-z
-x,y,-z
-x,-y,-z
x,y,-z
-x,y,z
x,-y,z
x,1/2+y,1/2+z
-x,1/2-y,1/2+z
x,1/2-y,1/2-z
-x,1/2+y,1/2-z
-x,1/2-y,1/2-z
x,1/2+y,1/2-z
-x,1/2+y,1/2+z
x,1/2-y,1/2+z
1/2+x,y,1/2+z
1/2-x,-y,1/2+z
1/2+x,-y,1/2-z
1/2-x,y,1/2-z
1/2-x,-y,1/2-z
1/2+x,y,1/2-z
1/2-x,y,1/2+z
1/2+x,-y,1/2+z
1/2+x,1/2+y,z
1/2-x,1/2-y,z
1/2+x,1/2-y,-z
1/2-x,1/2+y,-z
1/2-x,1/2-y,-z
1/2+x,1/2+y,-z
1/2-x,1/2+y,z
1/2+x,1/2-y,z
loop_
_atom_site_type_symbol
_atom_site_label
_atom_site_fract_x
_atom_site_fract_y
_atom_site_fract_z
Si Si1 0.000000 0.623592 0.407002
Si Si2 0.719880 0.849661 0.169038
Si Si3 0.590407 0.206658 0.091830
Si Si4 0.417159 0.055456 0.000000
Si Si5 0.147584 0.055704 0.665063
Si Si6 0.863517 0.810364 0.090030
Si Si7 0.500000 0.055116 0.731337
O O1 0.926179 0.652934 0.377379
O O2 0.000000 0.576186 0.355423
O O3 0.000000 0.611702 0.500000
O O4 0.750000 0.826888 0.250000
O O5 0.634919 0.832496 0.143709
O O6 0.717232 0.907449 0.181785
O O7 0.779225 0.831853 0.103799
O O8 0.500000 0.203093 0.110063
O O9 0.623500 0.257275 0.123367
O O10 0.606463 0.198546 0.000000
O O11 0.370627 0.069054 0.076158
O O12 0.500000 0.082502 0.000000
O O13 0.434968 0.000000 0.000000
O O14 0.075377 0.068852 0.719297
O O15 0.173086 0.000000 0.674863
O O16 0.879965 0.805389 0.000000
O O17 0.500000 0.000000 0.714985
#
# Coordination Sequence:
#
# PCOD8285075 Si02
#       7
#    16  32  32  16  32  32  16
#     4  10  20  39  68  90 117 167 225 270 311 376
#     4  12  26  40  59  96 134 168 215 260 317 380
#     4  10  22  43  70  97 125 166 214 264 327 395
#     4   9  16  32  60  94 123 155 207 263 322 387
#     4  10  22  39  62  90 129 174 210 261 327 390
#     4  10  21  42  66  89 123 167 210 259 321 382
#     4  10  20  38  61  89 126 168 211 260 325 384
#
# _framework density 21.084247999999999
#
# number of rings (size 3 to 8) (size 9 to 14) (size 15 to 20)
#    0.000    1.727    1.818    2.182    3.818    3.455 
#    1.636    1.818    0.000    1.091    0.000    0.000 
#    0.000    0.000    0.000    0.000    0.000    0.000 
#
# Total GULP energy -545395.244381 kJ/mol
# GULP energy per Si atom -12395.346463 kJ/mol
# Density = 2.103626 g / cm^3
# Si number density = 21.084248 Si / 1000 Ang^3
#
#
#
# Elastic Constant Matrix: (Units=GPa)
#
#
# Indices 1 2 3 4 5 6 
#
# 1 112.5817 55.3078 24.3007 0.0000 0.0000 0.0000
# 2 55.3078 106.1895 41.5952 0.0000 0.0000 0.0000
# 3 24.3007 41.5952 89.1799 0.0000 0.0000 0.0000
# 4 0.0000 0.0000 0.0000 25.8805 0.0000 0.0000
# 5 0.0000 0.0000 0.0000 0.0000 26.3407 0.0000
# 6 0.0000 0.0000 0.0000 0.0000 0.0000 36.4382
#
#
#
# Elastic Compliance Matrix: (Units=1/GPa)
#
#
# Indices 1 2 3 4 5 6 
#
# 1 0.011950 -0.006055 -0.000432 0.000000 0.000000 0.000000
# 2 -0.006055 0.014590 -0.005155 0.000000 0.000000 0.000000
# 3 -0.000432 -0.005155 0.013736 0.000000 0.000000 0.000000
# 4 0.000000 0.000000 0.000000 0.038639 0.000000 0.000000
# 5 0.000000 0.000000 0.000000 0.000000 0.037964 0.000000
# 6 0.000000 0.000000 0.000000 0.000000 0.000000 0.027444
#
#
# Mechanical properties :
#
#
# Convention : Reuss Voigt Hill
#
# Bulk Modulus (GPa) = 58.85362 61.15094 60.00228
# Shear Modulus (GPa) = 28.85649 30.18171 29.51910
#
# Velocity S-wave (km/s) = 3.70351 3.78760 3.74579
# Velocity P-wave (km/s) = 6.80163 6.94219 6.87227
#
# Compressibility (1/GPa) = 0.01699131
#
# Stress axis : x y z
#
# Youngs Moduli (GPa) = 83.67986 68.53970 72.80381
#
# Poissons Ratio (x) = 0.41500 0.03147
# Poissons Ratio (y) = 0.50667 0.37532
# Poissons Ratio (z) = 0.03617 0.35333
#
# Static dielectric constant tensor:
#      x y z
#    x 3.779120 0.000000 0.000000 
#    y 0.000000 3.884930 0.000000 
#    z 0.000000 0.000000 2.619630 
# 
# 
# High freq. dielectric constant tensor:
#      x y z
#    x 1.821390 0.000000 0.000000 
#    y 0.000000 1.831780 0.000000 
#    z 0.000000 0.000000 1.821760 
# 
# From -- ./inp_files/23298.got.cif
#   From: 2010.03.12/outbox.cif.g09.slc.cpg/sg69_12_cif.got.tgz:23298.got - 2010.04.10 23:52:46.
