data_PCOD8285050
_publ_section_title
;
Structure prediction by ZEFSAII (Michael W. Deem and Ramdas Pophale) SiO2 
 PCOD8285050
Probable space group: F M M M
;
_chemical_formula_sum "Si O2"
_cell_formula_units_Z 160
_cell_length_a 18.727036
_cell_length_b 30.801787
_cell_length_c 12.925848
_cell_angle_alpha 90.000000
_cell_angle_beta 90.000000
_cell_angle_gamma 90.000000
_cell_volume 7455.967448
_symmetry_space_group_name_H-M "F M M M"
_symmetry_group_IT_number 69
_symmetry_cell_setting 'orthorhombic'
loop_
_space_group_symop_operation_xyz
x,y,z
-x,-y,z
x,-y,-z
-x,y,-z
-x,-y,-z
x,y,-z
-x,y,z
x,-y,z
x,1/2+y,1/2+z
-x,1/2-y,1/2+z
x,1/2-y,1/2-z
-x,1/2+y,1/2-z
-x,1/2-y,1/2-z
x,1/2+y,1/2-z
-x,1/2+y,1/2+z
x,1/2-y,1/2+z
1/2+x,y,1/2+z
1/2-x,-y,1/2+z
1/2+x,-y,1/2-z
1/2-x,y,1/2-z
1/2-x,-y,1/2-z
1/2+x,y,1/2-z
1/2-x,y,1/2+z
1/2+x,-y,1/2+z
1/2+x,1/2+y,z
1/2-x,1/2-y,z
1/2+x,1/2-y,-z
1/2-x,1/2+y,-z
1/2-x,1/2-y,-z
1/2+x,1/2+y,-z
1/2-x,1/2+y,z
1/2+x,1/2-y,z
loop_
_atom_site_type_symbol
_atom_site_label
_atom_site_fract_x
_atom_site_fract_y
_atom_site_fract_z
Si Si1 0.787906 0.685951 0.876762
Si Si2 0.500000 0.685057 0.123217
Si Si3 0.708780 0.088379 0.882977
Si Si4 0.649500 0.549842 0.188832
Si Si5 0.500000 0.413062 0.122419
Si Si6 0.143557 0.727352 0.623557
O O1 0.808015 0.637291 0.843416
O O2 0.845093 0.722537 0.838237
O O3 0.708671 0.697530 0.833116
O O4 0.783764 0.688484 0.000000
O O5 0.500000 0.635929 0.164686
O O6 0.569303 0.709489 0.167756
O O7 0.500000 0.685297 0.000000
O O8 0.663721 0.055961 0.811289
O O9 0.793737 0.078959 0.874692
O O10 0.683222 0.081497 0.000000
O O11 0.661703 0.500000 0.158561
O O12 0.569294 0.562640 0.163717
O O13 0.500000 0.414603 0.000000
O O14 0.143729 0.725641 0.500000
#
# Coordination Sequence:
#
# PCOD8285050 Si02
#       6
#    32  16  32  32  16  32
#     4   8  14  26  47  74 105 146 186 224 274 327
#     4   9  16  27  49  80 109 143 181 222 275 331
#     4  10  20  37  61  86 115 152 194 238 285 340
#     4  11  24  39  59  88 117 148 190 243 299 350
#     4  11  23  40  63  88 117 151 187 233 293 354
#     4   8  13  23  43  75 110 141 183 226 267 328
#
# _framework density 21.459322
#
# number of rings (size 3 to 8) (size 9 to 14) (size 15 to 20)
#    0.000    2.600    0.000    4.500    0.000    6.400 
#    0.000    1.500    0.000   25.200    0.000    0.000 
#    0.000    0.000    0.000    0.000    0.000    0.000 
#
# Total GULP energy -496010.078224 kJ/mol
# GULP energy per Si atom -12400.251956 kJ/mol
# Density = 2.141048 g / cm^3
# Si number density = 21.459322 Si / 1000 Ang^3
#
#
#
# Elastic Constant Matrix: (Units=GPa)
#
#
# Indices 1 2 3 4 5 6 
#
# 1 127.7679 55.6362 14.4091 0.0000 0.0000 0.0000
# 2 55.6362 147.8314 12.1937 0.0000 0.0000 0.0000
# 3 14.4091 12.1937 52.6654 0.0000 0.0000 0.0000
# 4 0.0000 0.0000 0.0000 26.9286 0.0000 0.0000
# 5 0.0000 0.0000 0.0000 0.0000 20.4333 0.0000
# 6 0.0000 0.0000 0.0000 0.0000 0.0000 38.0210
#
#
#
# Elastic Compliance Matrix: (Units=1/GPa)
#
#
# Indices 1 2 3 4 5 6 
#
# 1 0.009527 -0.003436 -0.001811 0.000000 0.000000 0.000000
# 2 -0.003436 0.008135 -0.000943 0.000000 0.000000 0.000000
# 3 -0.001811 -0.000943 0.019702 0.000000 0.000000 0.000000
# 4 0.000000 0.000000 0.000000 0.037135 0.000000 0.000000
# 5 0.000000 0.000000 0.000000 0.000000 0.048940 0.000000
# 6 0.000000 0.000000 0.000000 0.000000 0.000000 0.026301
#
#
# Mechanical properties :
#
#
# Convention : Reuss Voigt Hill
#
# Bulk Modulus (GPa) = 40.02715 54.74917 47.38816
# Shear Modulus (GPa) = 29.33416 33.47830 31.40623
#
# Velocity S-wave (km/s) = 3.70126 3.95407 3.82975
# Velocity P-wave (km/s) = 6.07938 6.81283 6.45653
#
# Compressibility (1/GPa) = 0.02498304
#
# Stress axis : x y z
#
# Youngs Moduli (GPa) = 104.96263 122.91836 50.75692
#
# Poissons Ratio (x) = 0.42237 0.09192
# Poissons Ratio (y) = 0.36067 0.04789
# Poissons Ratio (z) = 0.19009 0.11597
#
# Static dielectric constant tensor:
#      x y z
#    x 3.843820 0.000000 0.000000 
#    y 0.000000 4.123610 0.000000 
#    z 0.000000 0.000000 3.828960 
# 
# 
# High freq. dielectric constant tensor:
#      x y z
#    x 1.821160 0.000000 0.000000 
#    y 0.000000 1.849550 0.000000 
#    z 0.000000 0.000000 1.853610 
# 
# From -- ./inp_files/15697.got.cif
#   From: 2010.03.12/outbox.cif.g09.slc.cpg/sg69_8_cif.got.tgz:15697.got - 2010.04.10 23:52:46.
