data_PCOD8285933
_publ_section_title
;
Structure prediction by ZEFSAII (Michael W. Deem and Ramdas Pophale) SiO2 
 PCOD8285933
Probable space group: F D D D
;
_chemical_formula_sum "Si O2"
_cell_formula_units_Z 120
_cell_length_a 10.365206
_cell_length_b 16.604878
_cell_length_c 29.753707
_cell_angle_alpha 90.000000
_cell_angle_beta 90.000000
_cell_angle_gamma 90.000000
_cell_volume 5120.999210
_symmetry_space_group_name_H-M "F D D D"
_symmetry_group_IT_number 70
_space_group.IT_coordinate_system_code '2'
_symmetry_cell_setting 'orthorhombic'
loop_
_space_group_symop_operation_xyz
x,y,z
1/4-x,1/4-y,z
x,1/4-y,1/4-z
1/4-x,y,1/4-z
-x,-y,-z
3/4+x,3/4+y,-z
-x,3/4+y,3/4+z
3/4+x,-y,3/4+z
x,1/2+y,1/2+z
1/4-x,3/4-y,1/2+z
x,3/4-y,3/4-z
1/4-x,1/2+y,3/4-z
-x,1/2-y,1/2-z
3/4+x,1/4+y,1/2-z
-x,1/4+y,1/4+z
3/4+x,1/2-y,1/4+z
1/2+x,y,1/2+z
3/4-x,1/4-y,1/2+z
1/2+x,1/4-y,3/4-z
3/4-x,y,3/4-z
1/2-x,-y,1/2-z
1/4+x,3/4+y,1/2-z
1/2-x,3/4+y,1/4+z
1/4+x,-y,1/4+z
1/2+x,1/2+y,z
3/4-x,3/4-y,z
1/2+x,3/4-y,1/4-z
3/4-x,1/2+y,1/4-z
1/2-x,1/2-y,-z
1/4+x,1/4+y,-z
1/2-x,1/4+y,3/4+z
1/4+x,1/2-y,3/4+z
loop_
_atom_site_type_symbol
_atom_site_label
_atom_site_fract_x
_atom_site_fract_y
_atom_site_fract_z
Si Si1 0.716918 0.300103 0.298339
Si Si2 0.975757 0.514226 0.908773
Si Si3 0.875000 0.875000 0.657693
Si Si4 0.600707 0.401722 0.032961
Si Si5 0.125000 0.125000 0.125000
O O1 0.565760 0.290431 0.310225
O O2 0.713317 0.375858 0.264618
O O3 0.790810 0.221556 0.277438
O O4 0.788270 0.318380 0.344375
O O5 0.875000 0.468024 0.875000
O O6 0.907703 0.572638 0.944105
O O7 0.062971 0.561084 0.874350
O O8 0.772286 0.927119 0.686968
#
# Coordination Sequence:
#
# PCOD8285933 Si02
#       5
#    32  32  16  32   8
#     4  12  25  46  66 104 140 182 239 292 358 418
#     4  10  21  40  70 101 135 185 227 288 346 425
#     4  10  19  38  66  97 134 183 236 280 353 422
#     4  11  24  41  71 101 141 182 231 297 352 421
#     4  12  30  44  74  92 140 184 230 298 326 436
#
# _framework density 23.432926999999999
#
# number of rings (size 3 to 8) (size 9 to 14) (size 15 to 20)
#    0.000    1.067    2.667    3.200    1.867    8.533 
#    0.000    3.333    0.000    0.000    0.000    0.000 
#    0.000    0.000    0.000    0.000    0.000    0.000 
#
# Total GULP energy -371719.020614 kJ/mol
# GULP energy per Si atom -12390.634020 kJ/mol
# Density = 2.337959 g / cm^3
# Si number density = 23.432927 Si / 1000 Ang^3
#
#
#
# Elastic Constant Matrix: (Units=GPa)
#
#
# Indices 1 2 3 4 5 6 
#
# 1 79.7260 -10.8161 21.3688 0.0000 0.0000 0.0000
# 2 -10.8161 28.4908 16.4102 0.0000 0.0000 0.0000
# 3 21.3688 16.4102 122.6339 0.0000 0.0000 0.0000
# 4 0.0000 0.0000 0.0000 19.9754 0.0000 0.0000
# 5 0.0000 0.0000 0.0000 0.0000 42.9881 0.0000
# 6 0.0000 0.0000 0.0000 0.0000 0.0000 19.5715
#
#
#
# Elastic Compliance Matrix: (Units=1/GPa)
#
#
# Indices 1 2 3 4 5 6 
#
# 1 0.014516 0.007549 -0.003540 0.000000 0.000000 0.000000
# 2 0.007549 0.041957 -0.006930 0.000000 0.000000 0.000000
# 3 -0.003540 -0.006930 0.009698 0.000000 0.000000 0.000000
# 4 0.000000 0.000000 0.000000 0.050062 0.000000 0.000000
# 5 0.000000 0.000000 0.000000 0.000000 0.023262 0.000000
# 6 0.000000 0.000000 0.000000 0.000000 0.000000 0.051095
#
#
# Mechanical properties :
#
#
# Convention : Reuss Voigt Hill
#
# Bulk Modulus (GPa) = 16.57526 31.64184 24.10855
# Shear Modulus (GPa) = 23.09044 30.09950 26.59497
#
# Velocity S-wave (km/s) = 3.14249 3.58787 3.37254
# Velocity P-wave (km/s) = 4.50065 5.54042 5.04738
#
# Compressibility (1/GPa) = 0.06033086
#
# Stress axis : x y z
#
# Youngs Moduli (GPa) = 68.89002 23.83417 103.10929
#
# Poissons Ratio (x) = -0.17994 0.36497
# Poissons Ratio (y) = -0.52008 0.71454
# Poissons Ratio (z) = 0.24384 0.16517
#
# Static dielectric constant tensor:
#      x y z
#    x 5.147200 0.000000 0.000000 
#    y 0.000000 3.599130 0.000000 
#    z 0.000000 0.000000 4.557580 
# 
# 
# High freq. dielectric constant tensor:
#      x y z
#    x 1.955090 0.000000 0.000000 
#    y 0.000000 1.885830 0.000000 
#    z 0.000000 0.000000 1.947810 
# 
# From -- ./inp_files/16332.got.cif
#   From: 2010.03.12/outbox.cif.g09.slc.cpg/sg70_9_cif.got.tgz:16332.got - 2010.04.16 13:46:32.
