data_PCOD8285238
_publ_section_title
;
Structure prediction by ZEFSAII (Michael W. Deem and Ramdas Pophale) SiO2 
 PCOD8285238
Probable space group: F M M M
;
_chemical_formula_sum "Si O2"
_cell_formula_units_Z 176
_cell_length_a 17.318385
_cell_length_b 25.527161
_cell_length_c 19.845369
_cell_angle_alpha 90.000000
_cell_angle_beta 90.000000
_cell_angle_gamma 90.000000
_cell_volume 8773.423348
_symmetry_space_group_name_H-M "F M M M"
_symmetry_group_IT_number 69
_symmetry_cell_setting 'orthorhombic'
loop_
_space_group_symop_operation_xyz
x,y,z
-x,-y,z
x,-y,-z
-x,y,-z
-x,-y,-z
x,y,-z
-x,y,z
x,-y,z
x,1/2+y,1/2+z
-x,1/2-y,1/2+z
x,1/2-y,1/2-z
-x,1/2+y,1/2-z
-x,1/2-y,1/2-z
x,1/2+y,1/2-z
-x,1/2+y,1/2+z
x,1/2-y,1/2+z
1/2+x,y,1/2+z
1/2-x,-y,1/2+z
1/2+x,-y,1/2-z
1/2-x,y,1/2-z
1/2-x,-y,1/2-z
1/2+x,y,1/2-z
1/2-x,y,1/2+z
1/2+x,-y,1/2+z
1/2+x,1/2+y,z
1/2-x,1/2-y,z
1/2+x,1/2-y,-z
1/2-x,1/2+y,-z
1/2-x,1/2-y,-z
1/2+x,1/2+y,-z
1/2-x,1/2+y,z
1/2+x,1/2-y,z
loop_
_atom_site_type_symbol
_atom_site_label
_atom_site_fract_x
_atom_site_fract_y
_atom_site_fract_z
Si Si1 0.000000 0.938196 0.077986
Si Si2 0.275152 0.439480 0.672845
Si Si3 0.586550 0.307288 0.756838
Si Si4 0.140268 0.625573 0.375086
Si Si5 0.587297 0.873971 0.127245
Si Si6 0.838360 0.195865 0.000000
Si Si7 0.155697 0.185129 0.500000
O O1 0.073818 0.917426 0.118080
O O2 0.000000 0.000000 0.083785
O O3 0.000000 0.920151 0.000000
O O4 0.266587 0.500000 0.653502
O O5 0.250000 0.429950 0.750000
O O6 0.221009 0.405373 0.623428
O O7 0.362933 0.422441 0.656633
O O8 0.500000 0.303046 0.787309
O O9 0.624888 0.250000 0.750000
O O10 0.637264 0.343803 0.804649
O O11 0.584624 0.329265 0.682412
O O12 0.130052 0.667315 0.434112
O O13 0.500000 0.893815 0.110943
O O14 0.626153 0.847347 0.063236
O O15 0.873729 0.254606 0.000000
O O16 0.746934 0.191067 0.000000
#
# Coordination Sequence:
#
# PCOD8285238 Si02
#       7
#    16  32  32  32  32  16  16
#     4  11  24  40  61  92 128 167 208 255 317 387
#     4  11  24  43  67  94 126 166 214 274 336 384
#     4  10  21  37  61  92 126 162 206 258 318 385
#     4  12  21  42  62  94 128 165 211 263 321 388
#     4  11  23  43  65  93 127 168 217 270 320 386
#     4  11  24  37  67  94 129 169 214 253 320 390
#     4  11  23  44  61  94 130 170 212 262 318 385
#
# _framework density 20.060585
#
# number of rings (size 3 to 8) (size 9 to 14) (size 15 to 20)
#    0.000    1.000    5.455    1.909    0.000    0.364 
#    3.273    2.273    0.000    1.091    0.000    0.000 
#    0.000    0.000    0.000    0.000    0.000    0.000 
#
# Total GULP energy -545666.914793 kJ/mol
# GULP energy per Si atom -12401.520791 kJ/mol
# Density = 2.001493 g / cm^3
# Si number density = 20.060585 Si / 1000 Ang^3
#
#
#
# Elastic Constant Matrix: (Units=GPa)
#
#
# Indices 1 2 3 4 5 6 
#
# 1 104.5441 42.2366 23.1008 0.0000 0.0000 0.0000
# 2 42.2366 124.2961 42.0461 0.0000 0.0000 0.0000
# 3 23.1008 42.0461 98.0344 0.0000 0.0000 0.0000
# 4 0.0000 0.0000 0.0000 47.1245 0.0000 0.0000
# 5 0.0000 0.0000 0.0000 0.0000 65.9192 0.0000
# 6 0.0000 0.0000 0.0000 0.0000 0.0000 15.4093
#
#
#
# Elastic Compliance Matrix: (Units=1/GPa)
#
#
# Indices 1 2 3 4 5 6 
#
# 1 0.011203 -0.003408 -0.001178 0.000000 0.000000 0.000000
# 2 -0.003408 0.010448 -0.003678 0.000000 0.000000 0.000000
# 3 -0.001178 -0.003678 0.012055 0.000000 0.000000 0.000000
# 4 0.000000 0.000000 0.000000 0.021220 0.000000 0.000000
# 5 0.000000 0.000000 0.000000 0.000000 0.015170 0.000000
# 6 0.000000 0.000000 0.000000 0.000000 0.000000 0.064896
#
#
# Mechanical properties :
#
#
# Convention : Reuss Voigt Hill
#
# Bulk Modulus (GPa) = 58.21536 60.18241 59.19888
# Shear Modulus (GPa) = 31.79739 40.32334 36.06037
#
# Velocity S-wave (km/s) = 3.98561 4.48825 4.24438
# Velocity P-wave (km/s) = 7.08963 7.54484 7.32078
#
# Compressibility (1/GPa) = 0.01717760
#
# Stress axis : x y z
#
# Youngs Moduli (GPa) = 89.26507 95.71650 82.95006
#
# Poissons Ratio (x) = 0.32622 0.09772
# Poissons Ratio (y) = 0.30423 0.30507
# Poissons Ratio (z) = 0.10516 0.35202
#
# Static dielectric constant tensor:
#      x y z
#    x 3.760010 0.000000 0.000000 
#    y 0.000000 3.689910 0.000000 
#    z 0.000000 0.000000 3.758540 
# 
# 
# High freq. dielectric constant tensor:
#      x y z
#    x 1.784250 0.000000 0.000000 
#    y 0.000000 1.787310 0.000000 
#    z 0.000000 0.000000 1.785520 
# 
# From -- ./inp_files/23321.got.cif
#   From: 2010.03.12/outbox.cif.g09.slc.cpg/sg69_12_cif.got.tgz:23321.got - 2010.04.10 23:52:46.
