data_PCOD8285889
_publ_section_title
;
Structure prediction by ZEFSAII (Michael W. Deem and Ramdas Pophale) SiO2 
 PCOD8285889
Probable space group: F D D D
;
_chemical_formula_sum "Si O2"
_cell_formula_units_Z 240
_cell_length_a 31.510035
_cell_length_b 15.672960
_cell_length_c 25.064965
_cell_angle_alpha 90.000000
_cell_angle_beta 90.000000
_cell_angle_gamma 90.000000
_cell_volume 12378.471278
_symmetry_space_group_name_H-M "F D D D"
_symmetry_group_IT_number 70
_space_group.IT_coordinate_system_code '2'
_symmetry_cell_setting 'orthorhombic'
loop_
_space_group_symop_operation_xyz
x,y,z
1/4-x,1/4-y,z
x,1/4-y,1/4-z
1/4-x,y,1/4-z
-x,-y,-z
3/4+x,3/4+y,-z
-x,3/4+y,3/4+z
3/4+x,-y,3/4+z
x,1/2+y,1/2+z
1/4-x,3/4-y,1/2+z
x,3/4-y,3/4-z
1/4-x,1/2+y,3/4-z
-x,1/2-y,1/2-z
3/4+x,1/4+y,1/2-z
-x,1/4+y,1/4+z
3/4+x,1/2-y,1/4+z
1/2+x,y,1/2+z
3/4-x,1/4-y,1/2+z
1/2+x,1/4-y,3/4-z
3/4-x,y,3/4-z
1/2-x,-y,1/2-z
1/4+x,3/4+y,1/2-z
1/2-x,3/4+y,1/4+z
1/4+x,-y,1/4+z
1/2+x,1/2+y,z
3/4-x,3/4-y,z
1/2+x,3/4-y,1/4-z
3/4-x,1/2+y,1/4-z
1/2-x,1/2-y,-z
1/4+x,1/4+y,-z
1/2-x,1/4+y,3/4+z
1/4+x,1/2-y,3/4+z
loop_
_atom_site_type_symbol
_atom_site_label
_atom_site_fract_x
_atom_site_fract_y
_atom_site_fract_z
Si Si1 0.684849 0.129658 0.324357
Si Si2 0.618841 0.764206 0.793649
Si Si3 0.052565 0.469807 0.549433
Si Si4 0.508504 0.635419 0.016786
Si Si5 0.391974 0.070026 0.267728
Si Si6 0.772404 0.046029 0.917991
Si Si7 0.186425 0.531010 0.430764
Si Si8 0.071691 0.875000 0.375000
O O1 0.663803 0.220560 0.308941
O O2 0.735536 0.135734 0.318681
O O3 0.671959 0.097863 0.384644
O O4 0.666503 0.059713 0.282711
O O5 0.620260 0.831508 0.745214
O O6 0.604531 0.817201 0.843864
O O7 0.042662 0.566799 0.535479
O O8 0.103323 0.463516 0.553824
O O9 0.030471 0.448549 0.605207
O O10 0.035693 0.408742 0.501168
O O11 0.504212 0.703168 0.064839
O O12 0.525949 0.679723 0.964124
O O13 0.435318 0.070704 0.300820
O O14 0.397159 0.004121 0.217625
O O15 0.207061 0.442230 0.407605
#
# Coordination Sequence:
#
# PCOD8285889 Si02
#       8
#    32  32  32  32  32  32  32  16
#     4  10  19  35  58  84 119 146 196 250 300 346
#     4   9  19  34  54  87 110 146 190 248 297 352
#     4  11  22  39  56  86 119 159 199 243 295 365
#     4  10  22  37  57  84 121 154 198 243 296 352
#     4  10  22  37  58  82 117 158 201 240 300 361
#     4  11  22  38  58  85 117 162 195 246 290 365
#     4   9  18  35  53  83 114 148 190 245 294 346
#     4   8  16  30  52  80 110 141 187 234 296 346
#
# _framework density 19.388500000000001
#
# number of rings (size 3 to 8) (size 9 to 14) (size 15 to 20)
#    0.000    2.133    1.333    1.600    0.000    8.000 
#    2.400    2.667    0.000    0.000    0.000    3.733 
#    0.000    0.000    0.000    0.000    0.000    0.000 
#
# Total GULP energy -743288.411172 kJ/mol
# GULP energy per Si atom -12388.140186 kJ/mol
# Density = 1.934437 g / cm^3
# Si number density = 19.388500 Si / 1000 Ang^3
#
#
#
# Elastic Constant Matrix: (Units=GPa)
#
#
# Indices 1 2 3 4 5 6 
#
# 1 125.4918 41.2917 31.6053 0.0000 0.0000 0.0000
# 2 41.2917 89.6633 28.3379 0.0000 0.0000 0.0000
# 3 31.6053 28.3379 62.2320 0.0000 0.0000 0.0000
# 4 0.0000 0.0000 0.0000 7.2983 0.0000 0.0000
# 5 0.0000 0.0000 0.0000 0.0000 20.2245 0.0000
# 6 0.0000 0.0000 0.0000 0.0000 0.0000 21.5399
#
#
#
# Elastic Compliance Matrix: (Units=1/GPa)
#
#
# Indices 1 2 3 4 5 6 
#
# 1 0.009999 -0.003504 -0.003482 0.000000 0.000000 0.000000
# 2 -0.003504 0.014256 -0.004712 0.000000 0.000000 0.000000
# 3 -0.003482 -0.004712 0.019983 0.000000 0.000000 0.000000
# 4 0.000000 0.000000 0.000000 0.137018 0.000000 0.000000
# 5 0.000000 0.000000 0.000000 0.000000 0.049445 0.000000
# 6 0.000000 0.000000 0.000000 0.000000 0.000000 0.046425
#
#
# Mechanical properties :
#
#
# Convention : Reuss Voigt Hill
#
# Bulk Modulus (GPa) = 47.98260 53.31744 50.65002
# Shear Modulus (GPa) = 16.26176 21.55601 18.90888
#
# Velocity S-wave (km/s) = 2.89923 3.33797 3.12631
# Velocity P-wave (km/s) = 6.00076 6.51270 6.26196
#
# Compressibility (1/GPa) = 0.02084089
#
# Stress axis : x y z
#
# Youngs Moduli (GPa) = 100.01368 70.14752 50.04229
#
# Poissons Ratio (x) = 0.24579 0.17427
# Poissons Ratio (y) = 0.35044 0.23580
# Poissons Ratio (z) = 0.34829 0.33053
#
# Static dielectric constant tensor:
#      x y z
#    x 3.287460 0.000000 0.000000 
#    y 0.000000 4.040640 0.000000 
#    z 0.000000 0.000000 3.594710 
# 
# 
# High freq. dielectric constant tensor:
#      x y z
#    x 1.739180 0.000000 0.000000 
#    y 0.000000 1.769690 0.000000 
#    z 0.000000 0.000000 1.738190 
# 
# From -- ./inp_files/69101.got.cif
#   From: 2010.03.12/outbox.cif.g09.slc.cpg/sg70_35_cif.got.tgz:69101.got - 2010.04.16 13:46:32.
