data_PCOD8285038
_publ_section_title
;
Structure prediction by ZEFSAII (Michael W. Deem and Ramdas Pophale) SiO2 
 PCOD8285038
Probable space group: F M M M
;
_chemical_formula_sum "Si O2"
_cell_formula_units_Z 176
_cell_length_a 23.506333
_cell_length_b 24.167620
_cell_length_c 15.235199
_cell_angle_alpha 90.000000
_cell_angle_beta 90.000000
_cell_angle_gamma 90.000000
_cell_volume 8654.996552
_symmetry_space_group_name_H-M "F M M M"
_symmetry_group_IT_number 69
_symmetry_cell_setting 'orthorhombic'
loop_
_space_group_symop_operation_xyz
x,y,z
-x,-y,z
x,-y,-z
-x,y,-z
-x,-y,-z
x,y,-z
-x,y,z
x,-y,z
x,1/2+y,1/2+z
-x,1/2-y,1/2+z
x,1/2-y,1/2-z
-x,1/2+y,1/2-z
-x,1/2-y,1/2-z
x,1/2+y,1/2-z
-x,1/2+y,1/2+z
x,1/2-y,1/2+z
1/2+x,y,1/2+z
1/2-x,-y,1/2+z
1/2+x,-y,1/2-z
1/2-x,y,1/2-z
1/2-x,-y,1/2-z
1/2+x,y,1/2-z
1/2-x,y,1/2+z
1/2+x,-y,1/2+z
1/2+x,1/2+y,z
1/2-x,1/2-y,z
1/2+x,1/2-y,-z
1/2-x,1/2+y,-z
1/2-x,1/2-y,-z
1/2+x,1/2+y,-z
1/2-x,1/2+y,z
1/2+x,1/2-y,z
loop_
_atom_site_type_symbol
_atom_site_label
_atom_site_fract_x
_atom_site_fract_y
_atom_site_fract_z
Si Si1 0.672020 0.235235 0.903330
Si Si2 0.933097 0.500000 0.900437
Si Si3 0.933855 0.916888 0.251625
Si Si4 0.653493 0.561600 0.901480
Si Si5 0.562135 0.798741 0.818207
Si Si6 0.229878 0.838503 0.155138
O O1 0.608449 0.213069 0.892001
O O2 0.715089 0.183524 0.896982
O O3 0.686103 0.286186 0.837362
O O4 0.677094 0.261015 0.000000
O O5 0.914300 0.446983 0.842113
O O6 0.000000 0.500000 0.913612
O O7 0.905749 0.500000 0.000000
O O8 0.897847 0.935117 0.167601
O O9 0.921212 0.852693 0.263613
O O10 0.000000 0.930158 0.232019
O O11 0.680773 0.500000 0.892626
O O12 0.702171 0.607634 0.888249
O O13 0.628739 0.569740 0.000000
O O14 0.500000 0.806348 0.863451
O O15 0.559895 0.750000 0.750000
O O16 0.250000 0.857394 0.250000
#
# Coordination Sequence:
#
# PCOD8285038 Si02
#       6
#    32  16  32  32  32  32
#     4  11  21  36  61  88 117 152 198 249 297 360
#     4   9  18  34  57  83 112 155 213 264 299 347
#     4  10  20  37  59  85 122 167 212 252 301 370
#     4  11  23  38  59  89 124 157 197 256 318 370
#     4  10  21  37  58  87 123 158 193 241 301 363
#     4  11  22  39  61  84 113 156 206 249 295 361
#
# _framework density 20.335075
#
# number of rings (size 3 to 8) (size 9 to 14) (size 15 to 20)
#    0.000    1.545    0.909    6.545    0.000    1.818 
#    0.000    2.727    0.000    5.455    0.000    0.000 
#    0.000    0.000    0.000    0.000    0.000    0.000 
#
# Total GULP energy -545376.995856 kJ/mol
# GULP energy per Si atom -12394.931724 kJ/mol
# Density = 2.028879 g / cm^3
# Si number density = 20.335075 Si / 1000 Ang^3
#
#
#
# Elastic Constant Matrix: (Units=GPa)
#
#
# Indices 1 2 3 4 5 6 
#
# 1 106.2543 46.4999 45.0209 0.0000 0.0000 0.0000
# 2 46.4999 151.6361 52.6961 0.0000 0.0000 0.0000
# 3 45.0209 52.6961 137.9434 0.0000 0.0000 0.0000
# 4 0.0000 0.0000 0.0000 23.8658 0.0000 0.0000
# 5 0.0000 0.0000 0.0000 0.0000 19.8111 0.0000
# 6 0.0000 0.0000 0.0000 0.0000 0.0000 33.5820
#
#
#
# Elastic Compliance Matrix: (Units=1/GPa)
#
#
# Indices 1 2 3 4 5 6 
#
# 1 0.011760 -0.002620 -0.002837 0.000000 0.000000 0.000000
# 2 -0.002620 0.008188 -0.002273 0.000000 0.000000 0.000000
# 3 -0.002837 -0.002273 0.009044 0.000000 0.000000 0.000000
# 4 0.000000 0.000000 0.000000 0.041901 0.000000 0.000000
# 5 0.000000 0.000000 0.000000 0.000000 0.050477 0.000000
# 6 0.000000 0.000000 0.000000 0.000000 0.000000 0.029778
#
#
# Mechanical properties :
#
#
# Convention : Reuss Voigt Hill
#
# Bulk Modulus (GPa) = 73.90281 76.02975 74.96628
# Shear Modulus (GPa) = 29.21947 32.22622 30.72285
#
# Velocity S-wave (km/s) = 3.79476 3.98522 3.89116
# Velocity P-wave (km/s) = 7.45799 7.65805 7.55868
#
# Compressibility (1/GPa) = 0.01353129
#
# Stress axis : x y z
#
# Youngs Moduli (GPa) = 85.03192 122.12845 110.57600
#
# Poissons Ratio (x) = 0.32002 0.31373
# Poissons Ratio (y) = 0.22281 0.25131
# Poissons Ratio (z) = 0.24125 0.27757
#
# Static dielectric constant tensor:
#      x y z
#    x 3.840690 0.000000 0.000000 
#    y 0.000000 3.829000 0.000000 
#    z 0.000000 0.000000 4.591920 
# 
# 
# High freq. dielectric constant tensor:
#      x y z
#    x 1.781620 0.000000 0.000000 
#    y 0.000000 1.805090 0.000000 
#    z 0.000000 0.000000 1.791750 
# 
# From -- ./inp_files/17895.got.cif
#   From: 2010.03.12/outbox.cif.g09.slc.cpg/sg69_9_cif.got.tgz:17895.got - 2010.04.10 23:52:46.
