data_PCOD8285150
_publ_section_title
;
Structure prediction by ZEFSAII (Michael W. Deem and Ramdas Pophale) SiO2 
 PCOD8285150
Probable space group: F M M M
;
_chemical_formula_sum "Si O2"
_cell_formula_units_Z 192
_cell_length_a 15.467009
_cell_length_b 26.823442
_cell_length_c 23.973883
_cell_angle_alpha 90.000000
_cell_angle_beta 90.000000
_cell_angle_gamma 90.000000
_cell_volume 9946.246672
_symmetry_space_group_name_H-M "F M M M"
_symmetry_group_IT_number 69
_symmetry_cell_setting 'orthorhombic'
loop_
_space_group_symop_operation_xyz
x,y,z
-x,-y,z
x,-y,-z
-x,y,-z
-x,-y,-z
x,y,-z
-x,y,z
x,-y,z
x,1/2+y,1/2+z
-x,1/2-y,1/2+z
x,1/2-y,1/2-z
-x,1/2+y,1/2-z
-x,1/2-y,1/2-z
x,1/2+y,1/2-z
-x,1/2+y,1/2+z
x,1/2-y,1/2+z
1/2+x,y,1/2+z
1/2-x,-y,1/2+z
1/2+x,-y,1/2-z
1/2-x,y,1/2-z
1/2-x,-y,1/2-z
1/2+x,y,1/2-z
1/2-x,y,1/2+z
1/2+x,-y,1/2+z
1/2+x,1/2+y,z
1/2-x,1/2-y,z
1/2+x,1/2-y,-z
1/2-x,1/2+y,-z
1/2-x,1/2-y,-z
1/2+x,1/2+y,-z
1/2-x,1/2+y,z
1/2+x,1/2-y,z
loop_
_atom_site_type_symbol
_atom_site_label
_atom_site_fract_x
_atom_site_fract_y
_atom_site_fract_z
Si Si1 0.781043 0.942172 0.500000
Si Si2 0.800165 0.704517 0.908552
Si Si3 0.901715 0.898725 0.309322
Si Si4 0.900930 0.715960 0.800642
Si Si5 0.598241 0.057382 0.307425
Si Si6 0.740225 0.899243 0.614054
Si Si7 0.900819 0.349930 0.000000
O O1 0.727322 0.930166 0.556544
O O2 0.862286 0.905303 0.500000
O O3 0.809105 0.000000 0.500000
O O4 0.750000 0.750000 0.938669
O O5 0.842700 0.728581 0.853820
O O6 0.733000 0.659844 0.896681
O O7 0.875665 0.681903 0.946168
O O8 0.890660 0.842482 0.286577
O O9 0.880914 0.934755 0.257715
O O10 0.834366 0.911442 0.358662
O O11 0.000000 0.907132 0.331753
O O12 0.866288 0.750000 0.750000
O O13 0.000000 0.729849 0.813736
O O14 0.500000 0.074453 0.320101
O O15 0.662288 0.089071 0.344954
O O16 0.612154 0.000000 0.322005
O O17 0.000000 0.359418 0.000000
#
# Coordination Sequence:
#
# PCOD8285150 Si02
#       7
#    16  32  32  32  32  32  16
#     4  10  22  38  59  87 112 142 185 231 282 348
#     4  10  21  35  55  81 109 145 189 228 272 336
#     4   9  19  35  55  82 115 148 186 230 281 342
#     4   9  18  32  51  78 112 145 179 223 275 327
#     4  10  21  37  57  81 110 149 194 237 284 339
#     4  10  21  37  58  82 116 151 183 236 290 335
#     4  10  21  40  60  78 109 147 185 234 286 335
#
# _framework density 19.303764000000001
#
# number of rings (size 3 to 8) (size 9 to 14) (size 15 to 20)
#    0.000    2.333    0.000    1.750    2.333    6.500 
#    0.000    1.250    0.000    1.500    0.000    0.000 
#    0.000    0.000    0.000    0.000    0.000    0.000 
#
# Total GULP energy -595138.434511 kJ/mol
# GULP energy per Si atom -12398.717386 kJ/mol
# Density = 1.925983 g / cm^3
# Si number density = 19.303764 Si / 1000 Ang^3
#
#
#
# Elastic Constant Matrix: (Units=GPa)
#
#
# Indices 1 2 3 4 5 6 
#
# 1 66.0061 29.6474 28.7115 0.0000 0.0000 0.0000
# 2 29.6474 83.2054 31.3044 0.0000 0.0000 0.0000
# 3 28.7115 31.3044 93.6793 0.0000 0.0000 0.0000
# 4 0.0000 0.0000 0.0000 97.1367 0.0000 0.0000
# 5 0.0000 0.0000 0.0000 0.0000 26.0769 0.0000
# 6 0.0000 0.0000 0.0000 0.0000 0.0000 18.9757
#
#
#
# Elastic Compliance Matrix: (Units=1/GPa)
#
#
# Indices 1 2 3 4 5 6 
#
# 1 0.019350 -0.005334 -0.004148 0.000000 0.000000 0.000000
# 2 -0.005334 0.015217 -0.003450 0.000000 0.000000 0.000000
# 3 -0.004148 -0.003450 0.013099 0.000000 0.000000 0.000000
# 4 0.000000 0.000000 0.000000 0.010295 0.000000 0.000000
# 5 0.000000 0.000000 0.000000 0.000000 0.038348 0.000000
# 6 0.000000 0.000000 0.000000 0.000000 0.000000 0.052699
#
#
# Mechanical properties :
#
#
# Convention : Reuss Voigt Hill
#
# Bulk Modulus (GPa) = 45.86837 46.91304 46.39070
# Shear Modulus (GPa) = 27.45132 38.65302 33.05217
#
# Velocity S-wave (km/s) = 3.77513 4.47962 4.14238
# Velocity P-wave (km/s) = 6.54332 7.14922 6.85297
#
# Compressibility (1/GPa) = 0.02180152
#
# Stress axis : x y z
#
# Youngs Moduli (GPa) = 51.67851 65.71513 76.34166
#
# Poissons Ratio (x) = 0.35054 0.31668
# Poissons Ratio (y) = 0.27566 0.26339
# Poissons Ratio (z) = 0.21437 0.22673
#
# Static dielectric constant tensor:
#      x y z
#    x 3.392650 0.000000 0.000000 
#    y 0.000000 3.542000 0.000000 
#    z 0.000000 0.000000 3.606060 
# 
# 
# High freq. dielectric constant tensor:
#      x y z
#    x 1.738310 0.000000 0.000000 
#    y 0.000000 1.753820 0.000000 
#    z 0.000000 0.000000 1.752500 
# 
# From -- ./inp_files/36097.got.cif
#   From: 2010.03.12/outbox.cif.g09.slc.cpg/sg69_19_cif.got.tgz:36097.got - 2010.04.10 23:52:46.
