data_PCOD8285130
_publ_section_title
;
Structure prediction by ZEFSAII (Michael W. Deem and Ramdas Pophale) SiO2 
 PCOD8285130
Probable space group: F M M M
;
_chemical_formula_sum "Si O2"
_cell_formula_units_Z 144
_cell_length_a 25.191627
_cell_length_b 33.330676
_cell_length_c 8.968804
_cell_angle_alpha 90.000000
_cell_angle_beta 90.000000
_cell_angle_gamma 90.000000
_cell_volume 7530.691772
_symmetry_space_group_name_H-M "F M M M"
_symmetry_group_IT_number 69
_symmetry_cell_setting 'orthorhombic'
loop_
_space_group_symop_operation_xyz
x,y,z
-x,-y,z
x,-y,-z
-x,y,-z
-x,-y,-z
x,y,-z
-x,y,z
x,-y,z
x,1/2+y,1/2+z
-x,1/2-y,1/2+z
x,1/2-y,1/2-z
-x,1/2+y,1/2-z
-x,1/2-y,1/2-z
x,1/2+y,1/2-z
-x,1/2+y,1/2+z
x,1/2-y,1/2+z
1/2+x,y,1/2+z
1/2-x,-y,1/2+z
1/2+x,-y,1/2-z
1/2-x,y,1/2-z
1/2-x,-y,1/2-z
1/2+x,y,1/2-z
1/2-x,y,1/2+z
1/2+x,-y,1/2+z
1/2+x,1/2+y,z
1/2-x,1/2-y,z
1/2+x,1/2-y,-z
1/2-x,1/2+y,-z
1/2-x,1/2-y,-z
1/2+x,1/2+y,-z
1/2-x,1/2+y,z
1/2+x,1/2-y,z
loop_
_atom_site_type_symbol
_atom_site_label
_atom_site_fract_x
_atom_site_fract_y
_atom_site_fract_z
Si Si1 0.500000 0.293024 0.323909
Si Si2 0.441210 0.436891 0.168608
Si Si3 0.802436 0.877044 0.175536
Si Si4 0.915307 0.346260 0.670059
Si Si5 0.839008 0.955356 0.671439
O O1 0.500000 0.288715 0.500000
O O2 0.500000 0.250000 0.250000
O O3 0.446181 0.315556 0.275299
O O4 0.500000 0.453624 0.201747
O O5 0.442705 0.389119 0.186645
O O6 0.400941 0.456948 0.283504
O O7 0.423429 0.447767 0.000000
O O8 0.750000 0.857793 0.250000
O O9 0.853498 0.850257 0.220171
O O10 0.808164 0.923079 0.229100
O O11 0.795214 0.878210 0.000000
O O12 0.919197 0.330799 0.500000
O O13 0.834468 0.942169 0.500000
O O14 0.815040 0.000000 0.695952
#
# Coordination Sequence:
#
# PCOD8285130 Si02
#       5
#    16  32  32  32  32
#     4  12  24  36  58  90 121 152 179 212 260 313
#     4   9  17  31  51  72  99 139 181 223 274 330
#     4  10  21  37  59  82 106 142 185 231 278 326
#     4   9  18  36  57  80 113 145 178 221 267 320
#     4  10  21  34  47  69 103 140 182 234 284 329
#
# _framework density 19.121749000000001
#
# number of rings (size 3 to 8) (size 9 to 14) (size 15 to 20)
#    0.000    2.222    1.111    3.667    0.000    7.556 
#    0.000    2.222    0.000    0.667    0.000    4.667 
#    0.000    0.000    0.000    0.000    0.000    0.000 
#
# Total GULP energy -446326.288736 kJ/mol
# GULP energy per Si atom -12397.952465 kJ/mol
# Density = 1.907823 g / cm^3
# Si number density = 19.121749 Si / 1000 Ang^3
#
#
#
# Elastic Constant Matrix: (Units=GPa)
#
#
# Indices 1 2 3 4 5 6 
#
# 1 130.0571 35.8423 54.3450 -0.0087 0.0359 0.0106
# 2 35.8423 76.3165 44.0811 -0.0072 0.0085 0.0049
# 3 54.3450 44.0811 107.4603 -0.0218 0.0770 0.0222
# 4 -0.0087 -0.0072 -0.0218 27.1857 0.0137 0.0056
# 5 0.0359 0.0085 0.0770 0.0137 36.9419 -0.0142
# 6 0.0106 0.0049 0.0222 0.0056 -0.0142 3.5038
#
#
#
# Elastic Compliance Matrix: (Units=1/GPa)
#
#
# Indices 1 2 3 4 5 6 
#
# 1 0.010058 -0.002340 -0.004127 -0.000001 -0.000001 -0.000001
# 2 -0.002340 0.017717 -0.006084 -0.000001 0.000011 0.000021
# 3 -0.004127 -0.006084 0.013888 0.000008 -0.000024 -0.000067
# 4 -0.000001 -0.000001 0.000008 0.036784 -0.000014 -0.000058
# 5 -0.000001 0.000011 -0.000024 -0.000014 0.027070 0.000110
# 6 -0.000001 0.000021 -0.000067 -0.000058 0.000110 0.285407
#
#
# Mechanical properties :
#
#
# Convention : Reuss Voigt Hill
#
# Bulk Modulus (GPa) = 60.38128 64.70786 62.54457
# Shear Modulus (GPa) = 11.86109 25.49731 18.67920
#
# Velocity S-wave (km/s) = 2.49327 3.65556 3.12886
# Velocity P-wave (km/s) = 6.31936 7.19242 6.76998
#
# Compressibility (1/GPa) = 0.01656142
#
# Stress axis : x y z
#
# Youngs Moduli (GPa) = 99.42110 56.44419 72.00236
#
# Poissons Ratio (x) = 0.13210 0.29713
# Poissons Ratio (y) = 0.23267 0.43806
# Poissons Ratio (z) = 0.41028 0.34341
#
# Static dielectric constant tensor:
#      x y z
#    x 3.703040 0.000000 0.000030 
#    y 0.000000 3.193340 -0.000010 
#    z 0.000030 -0.000010 3.471400 
# 
# 
# High freq. dielectric constant tensor:
#      x y z
#    x 1.752380 0.000000 0.000000 
#    y 0.000000 1.706780 0.000000 
#    z 0.000000 0.000000 1.743100 
# 
# From -- ./inp_files/5611.got.cif
#   From: 2010.03.12/outbox.cif.g09.slc.cpg/sg69_3_cif.got.tgz:5611.got - 2010.04.10 23:52:46.
