data_PCOD8285201
_publ_section_title
;
Structure prediction by ZEFSAII (Michael W. Deem and Ramdas Pophale) SiO2 
 PCOD8285201
Probable space group: F M M M
;
_chemical_formula_sum "Si O2"
_cell_formula_units_Z 168
_cell_length_a 29.799830
_cell_length_b 21.772723
_cell_length_c 14.203174
_cell_angle_alpha 90.000000
_cell_angle_beta 90.000000
_cell_angle_gamma 90.000000
_cell_volume 9215.352271
_symmetry_space_group_name_H-M "F M M M"
_symmetry_group_IT_number 69
_symmetry_cell_setting 'orthorhombic'
loop_
_space_group_symop_operation_xyz
x,y,z
-x,-y,z
x,-y,-z
-x,y,-z
-x,-y,-z
x,y,-z
-x,y,z
x,-y,z
x,1/2+y,1/2+z
-x,1/2-y,1/2+z
x,1/2-y,1/2-z
-x,1/2+y,1/2-z
-x,1/2-y,1/2-z
x,1/2+y,1/2-z
-x,1/2+y,1/2+z
x,1/2-y,1/2+z
1/2+x,y,1/2+z
1/2-x,-y,1/2+z
1/2+x,-y,1/2-z
1/2-x,y,1/2-z
1/2-x,-y,1/2-z
1/2+x,y,1/2-z
1/2-x,y,1/2+z
1/2+x,-y,1/2+z
1/2+x,1/2+y,z
1/2-x,1/2-y,z
1/2+x,1/2-y,-z
1/2-x,1/2+y,-z
1/2-x,1/2-y,-z
1/2+x,1/2+y,-z
1/2-x,1/2+y,z
1/2+x,1/2-y,z
loop_
_atom_site_type_symbol
_atom_site_label
_atom_site_fract_x
_atom_site_fract_y
_atom_site_fract_z
Si Si1 0.217885 0.152590 0.387877
Si Si2 0.549335 0.426934 0.278390
Si Si3 0.250000 0.250000 0.250000
Si Si4 0.799494 0.932263 0.888363
Si Si5 0.897991 0.927096 0.103051
Si Si6 0.365887 0.930881 0.110480
O O1 0.217862 0.169005 0.500000
O O2 0.217625 0.212160 0.321123
O O3 0.262054 0.115501 0.355855
O O4 0.175107 0.112039 0.359186
O O5 0.500000 0.399423 0.302297
O O6 0.546862 0.500000 0.281821
O O7 0.563736 0.404024 0.174288
O O8 0.587047 0.403681 0.351200
O O9 0.848802 0.908357 0.856363
O O10 0.788951 0.000000 0.846368
O O11 0.799587 0.937395 0.000000
O O12 0.898588 0.000000 0.094198
O O13 0.907138 0.897724 0.000000
O O14 0.357284 0.000000 0.150061
O O15 0.370250 0.933116 0.000000
#
# Coordination Sequence:
#
# PCOD8285201 Si02
#       6
#    32  32   8  32  32  32
#     4  10  21  37  53  72 102 132 166 207 245 295
#     4   9  17  27  41  67 103 135 163 198 241 296
#     4  12  26  36  50  74  98 140 174 202 244 294
#     4   8  14  27  49  74  99 128 161 200 246 293
#     4   8  14  24  39  63  97 133 164 193 232 287
#     4   9  18  33  53  75 100 132 168 206 250 296
#
# _framework density 18.230447000000002
#
# number of rings (size 3 to 8) (size 9 to 14) (size 15 to 20)
#    0.000    3.048    0.000    2.000    2.667    3.048 
#    0.000    4.762    0.000    0.000    0.000    0.667 
#    0.000    0.000    0.000    0.000    0.000    0.000 
#
# Total GULP energy -520436.423567 kJ/mol
# GULP energy per Si atom -12391.343418 kJ/mol
# Density = 1.818895 g / cm^3
# Si number density = 18.230447 Si / 1000 Ang^3
#
#
#
# Elastic Constant Matrix: (Units=GPa)
#
#
# Indices 1 2 3 4 5 6 
#
# 1 143.1677 39.1864 34.3486 0.0000 0.0000 0.0000
# 2 39.1864 53.5770 33.2361 0.0000 0.0000 0.0000
# 3 34.3486 33.2361 37.1570 0.0000 0.0000 0.0000
# 4 0.0000 0.0000 0.0000 22.1789 0.0000 0.0000
# 5 0.0000 0.0000 0.0000 0.0000 30.4967 0.0000
# 6 0.0000 0.0000 0.0000 0.0000 0.0000 2.8360
#
#
#
# Elastic Compliance Matrix: (Units=1/GPa)
#
#
# Indices 1 2 3 4 5 6 
#
# 1 0.009224 -0.003273 -0.005599 0.000000 0.000000 0.000000
# 2 -0.003273 0.043093 -0.035520 0.000000 0.000000 0.000000
# 3 -0.005599 -0.035520 0.063861 0.000000 0.000000 0.000000
# 4 0.000000 0.000000 0.000000 0.045088 0.000000 0.000000
# 5 0.000000 0.000000 0.000000 0.000000 0.032790 0.000000
# 6 0.000000 0.000000 0.000000 0.000000 0.000000 0.352611
#
#
# Mechanical properties :
#
#
# Convention : Reuss Voigt Hill
#
# Bulk Modulus (GPa) = 36.50547 49.71600 43.11074
# Shear Modulus (GPa) = 7.75695 19.57769 13.66732
#
# Velocity S-wave (km/s) = 2.06499 3.28060 2.74103
# Velocity P-wave (km/s) = 5.07479 6.45599 5.80660
#
# Compressibility (1/GPa) = 0.02739316
#
# Stress axis : x y z
#
# Youngs Moduli (GPa) = 108.41239 23.20544 15.65907
#
# Poissons Ratio (x) = 0.07595 0.08768
# Poissons Ratio (y) = 0.35485 0.55621
# Poissons Ratio (z) = 0.60702 0.82426
#
# Static dielectric constant tensor:
#      x y z
#    x 3.714330 0.000000 0.000000 
#    y 0.000000 2.998590 0.000000 
#    z 0.000000 0.000000 3.512700 
# 
# 
# High freq. dielectric constant tensor:
#      x y z
#    x 1.705420 0.000000 0.000000 
#    y 0.000000 1.631480 0.000000 
#    z 0.000000 0.000000 1.721060 
# 
# From -- ./inp_files/19716.got.cif
#   From: 2010.03.12/outbox.cif.g09.slc.cpg/sg69_10_cif.got.tgz:19716.got - 2010.04.10 23:52:46.
