data_PCOD8285845
_publ_section_title
;
Structure prediction by ZEFSAII (Michael W. Deem and Ramdas Pophale) SiO2 
 PCOD8285845
Probable space group: F D D D
;
_chemical_formula_sum "Si O2"
_cell_formula_units_Z 192
_cell_length_a 20.830924
_cell_length_b 19.587653
_cell_length_c 23.231741
_cell_angle_alpha 90.000000
_cell_angle_beta 90.000000
_cell_angle_gamma 90.000000
_cell_volume 9479.221980
_symmetry_space_group_name_H-M "F D D D"
_symmetry_group_IT_number 70
_space_group.IT_coordinate_system_code '2'
_symmetry_cell_setting 'orthorhombic'
loop_
_space_group_symop_operation_xyz
x,y,z
1/4-x,1/4-y,z
x,1/4-y,1/4-z
1/4-x,y,1/4-z
-x,-y,-z
3/4+x,3/4+y,-z
-x,3/4+y,3/4+z
3/4+x,-y,3/4+z
x,1/2+y,1/2+z
1/4-x,3/4-y,1/2+z
x,3/4-y,3/4-z
1/4-x,1/2+y,3/4-z
-x,1/2-y,1/2-z
3/4+x,1/4+y,1/2-z
-x,1/4+y,1/4+z
3/4+x,1/2-y,1/4+z
1/2+x,y,1/2+z
3/4-x,1/4-y,1/2+z
1/2+x,1/4-y,3/4-z
3/4-x,y,3/4-z
1/2-x,-y,1/2-z
1/4+x,3/4+y,1/2-z
1/2-x,3/4+y,1/4+z
1/4+x,-y,1/4+z
1/2+x,1/2+y,z
3/4-x,3/4-y,z
1/2+x,3/4-y,1/4-z
3/4-x,1/2+y,1/4-z
1/2-x,1/2-y,-z
1/4+x,1/4+y,-z
1/2-x,1/4+y,3/4+z
1/4+x,1/2-y,3/4+z
loop_
_atom_site_type_symbol
_atom_site_label
_atom_site_fract_x
_atom_site_fract_y
_atom_site_fract_z
Si Si1 0.875000 0.375000 0.496081
Si Si2 0.121806 0.703986 0.941102
Si Si3 0.740555 0.706506 0.890131
Si Si4 0.420725 0.690025 0.974246
Si Si5 0.125000 0.349604 0.125000
Si Si6 0.493968 0.653137 0.188047
Si Si7 0.702165 0.193518 0.831144
O O1 0.817060 0.357983 0.454498
O O2 0.856421 0.442590 0.535385
O O3 0.125000 0.625000 0.960217
O O4 0.177973 0.720164 0.893542
O O5 0.051969 0.721484 0.915991
O O6 0.126138 0.753301 0.996505
O O7 0.813982 0.699873 0.869375
O O8 0.731354 0.765645 0.937224
O O9 0.718624 0.637073 0.919596
O O10 0.376359 0.649721 0.929763
O O11 0.481666 0.728071 0.941673
O O12 0.444790 0.633949 0.019539
O O13 0.480744 0.625000 0.125000
#
# Coordination Sequence:
#
# PCOD8285845 Si02
#       7
#    16  32  32  32  16  32  32
#     4  10  19  30  52  84 122 159 184 230 288 364
#     4  10  19  40  66  82 115 166 208 252 309 370
#     4  10  20  38  55  84 119 158 198 234 304 375
#     4  10  22  41  59  89 122 158 203 261 302 362
#     4  10  24  38  58  88 126 162 200 252 314 364
#     4  11  22  34  54  89 125 152 194 239 292 359
#     4   9  19  38  58  84 115 163 201 238 305 368
#
# _framework density 20.254826999999999
#
# number of rings (size 3 to 8) (size 9 to 14) (size 15 to 20)
#    0.000    2.000    4.167    0.250    2.333    6.000 
#    3.000    7.917    0.000    0.000    0.000    0.000 
#    0.000    0.000    0.000    0.000    0.000    0.000 
#
# Total GULP energy -594868.370960 kJ/mol
# GULP energy per Si atom -12393.091062 kJ/mol
# Density = 2.020873 g / cm^3
# Si number density = 20.254827 Si / 1000 Ang^3
#
#
#
# Elastic Constant Matrix: (Units=GPa)
#
#
# Indices 1 2 3 4 5 6 
#
# 1 74.8653 34.9950 33.0768 0.0000 0.0000 0.0000
# 2 34.9950 88.2463 48.2769 0.0000 0.0000 0.0000
# 3 33.0768 48.2769 111.5710 0.0000 0.0000 0.0000
# 4 0.0000 0.0000 0.0000 24.7610 0.0000 0.0000
# 5 0.0000 0.0000 0.0000 0.0000 37.8416 0.0000
# 6 0.0000 0.0000 0.0000 0.0000 0.0000 21.1933
#
#
#
# Elastic Compliance Matrix: (Units=1/GPa)
#
#
# Indices 1 2 3 4 5 6 
#
# 1 0.017033 -0.005230 -0.002787 0.000000 0.000000 0.000000
# 2 -0.005230 0.016452 -0.005568 0.000000 0.000000 0.000000
# 3 -0.002787 -0.005568 0.012198 0.000000 0.000000 0.000000
# 4 0.000000 0.000000 0.000000 0.040386 0.000000 0.000000
# 5 0.000000 0.000000 0.000000 0.000000 0.026426 0.000000
# 6 0.000000 0.000000 0.000000 0.000000 0.000000 0.047185
#
#
# Mechanical properties :
#
#
# Convention : Reuss Voigt Hill
#
# Bulk Modulus (GPa) = 54.01424 56.37553 55.19489
# Shear Modulus (GPa) = 25.90369 27.31477 26.60923
#
# Velocity S-wave (km/s) = 3.58004 3.67625 3.62846
# Velocity P-wave (km/s) = 6.61922 6.77594 6.69804
#
# Compressibility (1/GPa) = 0.01851364
#
# Stress axis : x y z
#
# Youngs Moduli (GPa) = 58.70835 60.78170 81.97750
#
# Poissons Ratio (x) = 0.31791 0.22844
# Poissons Ratio (y) = 0.30706 0.45648
# Poissons Ratio (z) = 0.16360 0.33845
#
# Static dielectric constant tensor:
#      x y z
#    x 3.843830 0.000000 0.000000 
#    y 0.000000 3.520340 0.000000 
#    z 0.000000 0.000000 3.799130 
# 
# 
# High freq. dielectric constant tensor:
#      x y z
#    x 1.790480 0.000000 0.000000 
#    y 0.000000 1.760510 0.000000 
#    z 0.000000 0.000000 1.793610 
# 
# From -- ./inp_files/53018.got.cif
#   From: 2010.03.12/outbox.cif.g09.slc.cpg/sg70_27_cif.got.tgz:53018.got - 2010.04.16 13:46:32.
