data_PCOD8285458
_publ_section_title
;
Structure prediction by ZEFSAII (Michael W. Deem and Ramdas Pophale) SiO2 
 PCOD8285458
Probable space group: F M M M
;
_chemical_formula_sum "Si O2"
_cell_formula_units_Z 104
_cell_length_a 9.806736
_cell_length_b 36.164327
_cell_length_c 14.378246
_cell_angle_alpha 90.000000
_cell_angle_beta 90.000000
_cell_angle_gamma 90.000000
_cell_volume 5099.302565
_symmetry_space_group_name_H-M "F M M M"
_symmetry_group_IT_number 69
_symmetry_cell_setting 'orthorhombic'
loop_
_space_group_symop_operation_xyz
x,y,z
-x,-y,z
x,-y,-z
-x,y,-z
-x,-y,-z
x,y,-z
-x,y,z
x,-y,z
x,1/2+y,1/2+z
-x,1/2-y,1/2+z
x,1/2-y,1/2-z
-x,1/2+y,1/2-z
-x,1/2-y,1/2-z
x,1/2+y,1/2-z
-x,1/2+y,1/2+z
x,1/2-y,1/2+z
1/2+x,y,1/2+z
1/2-x,-y,1/2+z
1/2+x,-y,1/2-z
1/2-x,y,1/2-z
1/2-x,-y,1/2-z
1/2+x,y,1/2-z
1/2-x,y,1/2+z
1/2+x,-y,1/2+z
1/2+x,1/2+y,z
1/2-x,1/2-y,z
1/2+x,1/2-y,-z
1/2-x,1/2+y,-z
1/2-x,1/2-y,-z
1/2+x,1/2+y,-z
1/2-x,1/2+y,z
1/2+x,1/2-y,z
loop_
_atom_site_type_symbol
_atom_site_label
_atom_site_fract_x
_atom_site_fract_y
_atom_site_fract_z
Si Si1 0.000000 0.543949 0.846682
Si Si2 0.295002 0.457514 0.500000
Si Si3 0.342970 0.215783 0.108271
Si Si4 0.750000 0.155457 0.750000
Si Si5 0.500000 0.605481 0.802316
Si Si6 0.000000 0.926463 0.000000
O O1 0.867046 0.557422 0.905788
O O2 0.000000 0.565935 0.749956
O O3 0.000000 0.500000 0.823445
O O4 0.332312 0.500000 0.500000
O O5 0.134318 0.451686 0.500000
O O6 0.500000 0.225582 0.130752
O O7 0.250000 0.250000 0.140519
O O8 0.294974 0.179838 0.162651
O O9 0.321883 0.207092 0.000000
O O10 0.629536 0.129177 0.721617
O O11 0.500000 0.599629 0.911767
#
# Coordination Sequence:
#
# PCOD8285458 Si02
#       6
#    16  16  32  16  16   8
#     4   9  20  44  69  90 122 173 225 261 315 396
#     4   9  19  39  69  95 119 157 209 273 330 382
#     4  10  23  44  70  99 129 169 212 258 313 378
#     4  12  25  44  63  94 134 174 216 254 323 382
#     4  12  27  42  61  94 128 178 215 267 323 382
#     4  12  25  40  56  92 134 160 208 274 326 372
#
# _framework density 20.394945
#
# number of rings (size 3 to 8) (size 9 to 14) (size 15 to 20)
#    0.000    1.538    1.538    3.462    4.308    2.462 
#    5.538    3.846    0.000    0.000    0.000    0.000 
#    0.000    0.000    0.000    0.000    0.000    0.000 
#
# Total GULP energy -322437.627033 kJ/mol
# GULP energy per Si atom -12401.447194 kJ/mol
# Density = 2.034852 g / cm^3
# Si number density = 20.394945 Si / 1000 Ang^3
#
#
#
# Elastic Constant Matrix: (Units=GPa)
#
#
# Indices 1 2 3 4 5 6 
#
# 1 173.9474 58.9109 57.9137 0.0000 0.0000 0.0000
# 2 58.9109 112.0523 74.4916 0.0000 0.0000 0.0000
# 3 57.9137 74.4916 127.9357 0.0000 0.0000 0.0000
# 4 0.0000 0.0000 0.0000 57.3227 0.0000 0.0000
# 5 0.0000 0.0000 0.0000 0.0000 26.4792 0.0000
# 6 0.0000 0.0000 0.0000 0.0000 0.0000 39.5151
#
#
#
# Elastic Compliance Matrix: (Units=1/GPa)
#
#
# Indices 1 2 3 4 5 6 
#
# 1 0.007221 -0.002648 -0.001727 0.000000 0.000000 0.000000
# 2 -0.002648 0.015532 -0.007845 0.000000 0.000000 0.000000
# 3 -0.001727 -0.007845 0.013166 0.000000 0.000000 0.000000
# 4 0.000000 0.000000 0.000000 0.017445 0.000000 0.000000
# 5 0.000000 0.000000 0.000000 0.000000 0.037765 0.000000
# 6 0.000000 0.000000 0.000000 0.000000 0.000000 0.025307
#
#
# Mechanical properties :
#
#
# Convention : Reuss Voigt Hill
#
# Bulk Modulus (GPa) = 87.11684 88.50754 87.81219
# Shear Modulus (GPa) = 34.55399 39.50469 37.02934
#
# Velocity S-wave (km/s) = 4.12058 4.40589 4.26562
# Velocity P-wave (km/s) = 8.08991 8.32908 8.21036
#
# Compressibility (1/GPa) = 0.01147884
#
# Stress axis : x y z
#
# Youngs Moduli (GPa) = 138.49189 64.38366 75.95519
#
# Poissons Ratio (x) = 0.17051 0.13114
# Poissons Ratio (y) = 0.36678 0.59585
# Poissons Ratio (z) = 0.23912 0.50507
#
# Static dielectric constant tensor:
#      x y z
#    x 3.760300 0.000000 0.000000 
#    y 0.000000 3.580490 0.000000 
#    z 0.000000 0.000000 3.827670 
# 
# 
# High freq. dielectric constant tensor:
#      x y z
#    x 1.817680 0.000000 0.000000 
#    y 0.000000 1.790820 0.000000 
#    z 0.000000 0.000000 1.808420 
# 
# From -- ./inp_files/13387.got.cif
#   From: 2010.03.12/outbox.cif.g09.slc.cpg/sg69_7_cif.got.tgz:13387.got - 2010.04.10 23:52:46.
