data_PCOD8285303
_publ_section_title
;
Structure prediction by ZEFSAII (Michael W. Deem and Ramdas Pophale) SiO2 
 PCOD8285303
Probable space group: F M M M
;
_chemical_formula_sum "Si O2"
_cell_formula_units_Z 104
_cell_length_a 13.864912
_cell_length_b 14.539277
_cell_length_c 24.305444
_cell_angle_alpha 90.000000
_cell_angle_beta 90.000000
_cell_angle_gamma 90.000000
_cell_volume 4899.632279
_symmetry_space_group_name_H-M "F M M M"
_symmetry_group_IT_number 69
_symmetry_cell_setting 'orthorhombic'
loop_
_space_group_symop_operation_xyz
x,y,z
-x,-y,z
x,-y,-z
-x,y,-z
-x,-y,-z
x,y,-z
-x,y,z
x,-y,z
x,1/2+y,1/2+z
-x,1/2-y,1/2+z
x,1/2-y,1/2-z
-x,1/2+y,1/2-z
-x,1/2-y,1/2-z
x,1/2+y,1/2-z
-x,1/2+y,1/2+z
x,1/2-y,1/2+z
1/2+x,y,1/2+z
1/2-x,-y,1/2+z
1/2+x,-y,1/2-z
1/2-x,y,1/2-z
1/2-x,-y,1/2-z
1/2+x,y,1/2-z
1/2-x,y,1/2+z
1/2+x,-y,1/2+z
1/2+x,1/2+y,z
1/2-x,1/2-y,z
1/2+x,1/2-y,-z
1/2-x,1/2+y,-z
1/2-x,1/2-y,-z
1/2+x,1/2+y,-z
1/2-x,1/2+y,z
1/2+x,1/2-y,z
loop_
_atom_site_type_symbol
_atom_site_label
_atom_site_fract_x
_atom_site_fract_y
_atom_site_fract_z
Si Si1 0.106137 0.397578 0.390102
Si Si2 0.108097 0.210920 0.662979
Si Si3 0.250000 0.750000 0.250000
Si Si4 0.693996 0.394564 0.438594
O O1 0.117217 0.500000 0.364021
O O2 0.114767 0.321812 0.342065
O O3 0.190460 0.381131 0.434428
O O4 0.000000 0.387789 0.418460
O O5 0.181899 0.184616 0.711867
O O6 0.137499 0.166682 0.605124
O O7 0.000000 0.179313 0.678564
O O8 0.663406 0.363949 0.500000
O O9 0.664964 0.500000 0.427997
#
# Coordination Sequence:
#
# PCOD8285303 Si02
#       4
#    32  32   8  32
#     4   9  18  35  59  88 122 160 202 245 294 354
#     4  11  23  40  63  90 122 160 203 251 304 358
#     4  12  22  44  64  90 120 162 206 254 294 362
#     4  10  21  39  63  91 125 162 201 249 305 365
#
# _framework density 21.226082000000002
#
# number of rings (size 3 to 8) (size 9 to 14) (size 15 to 20)
#    0.000    1.846    3.077    0.462    0.000    4.308 
#    0.000   10.769    0.000    3.692    0.000    0.000 
#    0.000    0.000    0.000    0.000    0.000    0.000 
#
# Total GULP energy -322198.364974 kJ/mol
# GULP energy per Si atom -12392.244807 kJ/mol
# Density = 2.117777 g / cm^3
# Si number density = 21.226082 Si / 1000 Ang^3
#
#
#
# Elastic Constant Matrix: (Units=GPa)
#
#
# Indices 1 2 3 4 5 6 
#
# 1 166.5804 36.5002 74.7958 0.0000 0.0000 0.0000
# 2 36.5002 79.1364 40.7593 0.0000 0.0000 0.0000
# 3 74.7958 40.7593 135.5241 0.0000 0.0000 0.0000
# 4 0.0000 0.0000 0.0000 14.1092 0.0000 0.0000
# 5 0.0000 0.0000 0.0000 0.0000 20.5696 0.0000
# 6 0.0000 0.0000 0.0000 0.0000 0.0000 25.8414
#
#
#
# Elastic Compliance Matrix: (Units=1/GPa)
#
#
# Indices 1 2 3 4 5 6 
#
# 1 0.008172 -0.001711 -0.003995 0.000000 0.000000 0.000000
# 2 -0.001711 0.015311 -0.003660 0.000000 0.000000 0.000000
# 3 -0.003995 -0.003660 0.010685 0.000000 0.000000 0.000000
# 4 0.000000 0.000000 0.000000 0.070876 0.000000 0.000000
# 5 0.000000 0.000000 0.000000 0.000000 0.048615 0.000000
# 6 0.000000 0.000000 0.000000 0.000000 0.000000 0.038698
#
#
# Mechanical properties :
#
#
# Convention : Reuss Voigt Hill
#
# Bulk Modulus (GPa) = 64.79420 76.15016 70.47218
# Shear Modulus (GPa) = 23.12296 27.38309 25.25303
#
# Velocity S-wave (km/s) = 3.30413 3.59565 3.45297
# Velocity P-wave (km/s) = 6.71926 7.29328 7.01214
#
# Compressibility (1/GPa) = 0.01543348
#
# Stress axis : x y z
#
# Youngs Moduli (GPa) = 122.36776 65.31249 93.59155
#
# Poissons Ratio (x) = 0.11177 0.37394
# Poissons Ratio (y) = 0.20941 0.34258
# Poissons Ratio (z) = 0.48892 0.23907
#
# Static dielectric constant tensor:
#      x y z
#    x 4.145830 0.000000 0.000000 
#    y 0.000000 3.889610 0.000000 
#    z 0.000000 0.000000 3.489190 
# 
# 
# High freq. dielectric constant tensor:
#      x y z
#    x 1.852490 0.000000 0.000000 
#    y 0.000000 1.819010 0.000000 
#    z 0.000000 0.000000 1.798420 
# 
# From -- ./inp_files/14086.got.cif
#   From: 2010.03.12/outbox.cif.g09.slc.cpg/sg69_8_cif.got.tgz:14086.got - 2010.04.10 23:52:46.
