data_PCOD8285730
_publ_section_title
;
Structure prediction by ZEFSAII (Michael W. Deem and Ramdas Pophale) SiO2 
 PCOD8285730
Probable space group: F D D D
;
_chemical_formula_sum "Si O2"
_cell_formula_units_Z 208
_cell_length_a 15.148736
_cell_length_b 20.742056
_cell_length_c 31.753309
_cell_angle_alpha 90.000000
_cell_angle_beta 90.000000
_cell_angle_gamma 90.000000
_cell_volume 9977.395532
_symmetry_space_group_name_H-M "F D D D"
_symmetry_group_IT_number 70
_space_group.IT_coordinate_system_code '2'
_symmetry_cell_setting 'orthorhombic'
loop_
_space_group_symop_operation_xyz
x,y,z
1/4-x,1/4-y,z
x,1/4-y,1/4-z
1/4-x,y,1/4-z
-x,-y,-z
3/4+x,3/4+y,-z
-x,3/4+y,3/4+z
3/4+x,-y,3/4+z
x,1/2+y,1/2+z
1/4-x,3/4-y,1/2+z
x,3/4-y,3/4-z
1/4-x,1/2+y,3/4-z
-x,1/2-y,1/2-z
3/4+x,1/4+y,1/2-z
-x,1/4+y,1/4+z
3/4+x,1/2-y,1/4+z
1/2+x,y,1/2+z
3/4-x,1/4-y,1/2+z
1/2+x,1/4-y,3/4-z
3/4-x,y,3/4-z
1/2-x,-y,1/2-z
1/4+x,3/4+y,1/2-z
1/2-x,3/4+y,1/4+z
1/4+x,-y,1/4+z
1/2+x,1/2+y,z
3/4-x,3/4-y,z
1/2+x,3/4-y,1/4-z
3/4-x,1/2+y,1/4-z
1/2-x,1/2-y,-z
1/4+x,1/4+y,-z
1/2-x,1/4+y,3/4+z
1/4+x,1/2-y,3/4+z
loop_
_atom_site_type_symbol
_atom_site_label
_atom_site_fract_x
_atom_site_fract_y
_atom_site_fract_z
Si Si1 0.196024 0.709150 0.908432
Si Si2 0.478573 0.626291 0.297541
Si Si3 0.486749 0.435001 0.185838
Si Si4 0.880368 0.468488 0.185640
Si Si5 0.915557 0.659082 0.016567
Si Si6 0.375000 0.085474 0.375000
Si Si7 0.972369 0.343334 0.832863
O O1 0.234531 0.641717 0.924499
O O2 0.106525 0.722053 0.935480
O O3 0.156298 0.703615 0.862016
O O4 0.270622 0.765287 0.912496
O O5 0.533574 0.692434 0.303080
O O6 0.543997 0.567686 0.287769
O O7 0.416989 0.627422 0.256679
O O8 0.423157 0.617692 0.340907
O O9 0.523497 0.445350 0.232573
O O10 0.556397 0.461053 0.150588
O O11 0.881274 0.542894 0.197490
O O12 0.972528 0.605935 0.040814
O O13 0.014504 0.375000 0.875000
O O14 0.875000 0.375000 0.827614
#
# Coordination Sequence:
#
# PCOD8285730 Si02
#       7
#    32  32  32  32  32  16  32
#     4  11  21  42  66  85 130 174 223 266 321 402
#     4  10  21  37  64  93 124 161 210 265 332 380
#     4  10  22  37  63  98 119 165 220 281 324 370
#     4  11  20  41  65  91 125 168 212 262 327 393
#     4  11  25  39  60  95 128 162 212 271 333 389
#     4  10  16  34  58  96 122 148 212 268 316 380
#     4  11  26  44  60  89 130 182 216 258 333 411
#
# _framework density 20.847123
#
# number of rings (size 3 to 8) (size 9 to 14) (size 15 to 20)
#    0.000    1.385    4.615    1.385    4.308    4.308 
#    0.000    0.000    0.000    0.000    0.000    0.000 
#    0.000    0.000    0.000    0.000    0.000    0.000 
#
# Total GULP energy -644350.701841 kJ/mol
# GULP energy per Si atom -12391.359651 kJ/mol
# Density = 2.079967 g / cm^3
# Si number density = 20.847123 Si / 1000 Ang^3
#
#
#
# Elastic Constant Matrix: (Units=GPa)
#
#
# Indices 1 2 3 4 5 6 
#
# 1 119.0979 21.8726 29.4838 0.0000 0.0000 0.0000
# 2 21.8726 68.3992 5.5098 0.0000 0.0000 0.0000
# 3 29.4838 5.5098 76.5616 0.0000 0.0000 0.0000
# 4 0.0000 0.0000 0.0000 22.3013 0.0000 0.0000
# 5 0.0000 0.0000 0.0000 0.0000 29.9960 0.0000
# 6 0.0000 0.0000 0.0000 0.0000 0.0000 28.8575
#
#
#
# Elastic Compliance Matrix: (Units=1/GPa)
#
#
# Indices 1 2 3 4 5 6 
#
# 1 0.009803 -0.002847 -0.003570 0.000000 0.000000 0.000000
# 2 -0.002847 0.015532 -0.000021 0.000000 0.000000 0.000000
# 3 -0.003570 -0.000021 0.014438 0.000000 0.000000 0.000000
# 4 0.000000 0.000000 0.000000 0.044840 0.000000 0.000000
# 5 0.000000 0.000000 0.000000 0.000000 0.033338 0.000000
# 6 0.000000 0.000000 0.000000 0.000000 0.000000 0.034653
#
#
# Mechanical properties :
#
#
# Convention : Reuss Voigt Hill
#
# Bulk Modulus (GPa) = 37.18087 41.97680 39.57884
# Shear Modulus (GPa) = 28.66192 30.04379 29.35286
#
# Velocity S-wave (km/s) = 3.71194 3.80036 3.75641
# Velocity P-wave (km/s) = 6.02038 6.27983 6.15148
#
# Compressibility (1/GPa) = 0.02689555
#
# Stress axis : x y z
#
# Youngs Moduli (GPa) = 102.00724 64.38214 69.26247
#
# Poissons Ratio (x) = 0.18331 0.24729
# Poissons Ratio (y) = 0.29044 0.00148
# Poissons Ratio (z) = 0.36420 0.00137
#
# Static dielectric constant tensor:
#      x y z
#    x 4.122320 0.000000 0.000000 
#    y 0.000000 3.327030 0.000000 
#    z 0.000000 0.000000 3.820150 
# 
# 
# High freq. dielectric constant tensor:
#      x y z
#    x 1.832180 0.000000 0.000000 
#    y 0.000000 1.772750 0.000000 
#    z 0.000000 0.000000 1.823160 
# 
# From -- ./inp_files/66862.got.cif
#   From: 2010.03.12/outbox.cif.g09.slc.cpg/sg70_34_cif.got.tgz:66862.got - 2010.04.16 13:46:32.
