data_PCOD8285080
_publ_section_title
;
Structure prediction by ZEFSAII (Michael W. Deem and Ramdas Pophale) SiO2 
 PCOD8285080
Probable space group: F M M M
;
_chemical_formula_sum "Si O2"
_cell_formula_units_Z 208
_cell_length_a 18.599598
_cell_length_b 17.531971
_cell_length_c 32.032623
_cell_angle_alpha 90.000000
_cell_angle_beta 90.000000
_cell_angle_gamma 90.000000
_cell_volume 10445.441564
_symmetry_space_group_name_H-M "F M M M"
_symmetry_group_IT_number 69
_symmetry_cell_setting 'orthorhombic'
loop_
_space_group_symop_operation_xyz
x,y,z
-x,-y,z
x,-y,-z
-x,y,-z
-x,-y,-z
x,y,-z
-x,y,z
x,-y,z
x,1/2+y,1/2+z
-x,1/2-y,1/2+z
x,1/2-y,1/2-z
-x,1/2+y,1/2-z
-x,1/2-y,1/2-z
x,1/2+y,1/2-z
-x,1/2+y,1/2+z
x,1/2-y,1/2+z
1/2+x,y,1/2+z
1/2-x,-y,1/2+z
1/2+x,-y,1/2-z
1/2-x,y,1/2-z
1/2-x,-y,1/2-z
1/2+x,y,1/2-z
1/2-x,y,1/2+z
1/2+x,-y,1/2+z
1/2+x,1/2+y,z
1/2-x,1/2-y,z
1/2+x,1/2-y,-z
1/2-x,1/2+y,-z
1/2-x,1/2-y,-z
1/2+x,1/2+y,-z
1/2-x,1/2+y,z
1/2+x,1/2-y,z
loop_
_atom_site_type_symbol
_atom_site_label
_atom_site_fract_x
_atom_site_fract_y
_atom_site_fract_z
Si Si1 0.915455 0.414324 0.197737
Si Si2 0.686110 0.809069 0.645894
Si Si3 0.147996 0.585778 0.046423
Si Si4 0.917542 0.090975 0.000000
Si Si5 0.324240 0.587896 0.226141
Si Si6 0.192655 0.413369 0.568586
Si Si7 0.914834 0.816995 0.380037
O O1 0.887439 0.500000 0.190654
O O2 0.884876 0.383865 0.241434
O O3 0.886050 0.367365 0.158570
O O4 0.000000 0.409137 0.200499
O O5 0.750000 0.750000 0.654525
O O6 0.668642 0.855898 0.687355
O O7 0.708488 0.867730 0.610465
O O8 0.615198 0.767102 0.628544
O O9 0.126500 0.500000 0.061259
O O10 0.233970 0.592495 0.042601
O O11 0.114380 0.647932 0.077121
O O12 0.117112 0.601253 0.000000
O O13 0.873899 0.119780 0.959015
O O14 0.000000 0.122305 0.000000
O O15 0.917031 0.000000 0.000000
O O16 0.335875 0.500000 0.211820
O O17 0.250000 0.597732 0.250000
O O18 0.174823 0.500000 0.581104
O O19 0.000000 0.813185 0.382297
#
# Coordination Sequence:
#
# PCOD8285080 Si02
#       7
#    32  32  32  16  32  32  32
#     4   9  19  38  62  85 114 156 200 246 302 361
#     4  12  24  39  58  86 123 164 199 244 307 371
#     4  10  20  38  66  93 119 158 206 256 305 364
#     4   9  18  36  63  92 119 151 201 258 301 345
#     4  10  22  39  61  90 119 152 204 261 306 356
#     4  10  20  38  63  88 116 155 205 250 298 362
#     4  11  24  40  58  88 127 163 203 250 306 371
#
# _framework density 19.912991999999999
#
# number of rings (size 3 to 8) (size 9 to 14) (size 15 to 20)
#    0.000    1.769    2.308    1.846    0.000    4.615 
#    1.385    3.462    0.000    4.615    0.000    0.000 
#    0.000    0.000    0.000    0.000    0.000    0.000 
#
# Total GULP energy -644767.665510 kJ/mol
# GULP energy per Si atom -12399.378183 kJ/mol
# Density = 1.986767 g / cm^3
# Si number density = 19.912992 Si / 1000 Ang^3
#
#
#
# Elastic Constant Matrix: (Units=GPa)
#
#
# Indices 1 2 3 4 5 6 
#
# 1 63.5756 32.4519 29.7460 0.0000 0.0000 0.0000
# 2 32.4519 86.8627 66.1582 0.0000 0.0000 0.0000
# 3 29.7460 66.1582 138.2564 0.0000 0.0000 0.0000
# 4 0.0000 0.0000 0.0000 24.0069 0.0000 0.0000
# 5 0.0000 0.0000 0.0000 0.0000 34.0493 0.0000
# 6 0.0000 0.0000 0.0000 0.0000 0.0000 23.7585
#
#
#
# Elastic Compliance Matrix: (Units=1/GPa)
#
#
# Indices 1 2 3 4 5 6 
#
# 1 0.019545 -0.006450 -0.001119 0.000000 0.000000 0.000000
# 2 -0.006450 0.020243 -0.008299 0.000000 0.000000 0.000000
# 3 -0.001119 -0.008299 0.011445 0.000000 0.000000 0.000000
# 4 0.000000 0.000000 0.000000 0.041655 0.000000 0.000000
# 5 0.000000 0.000000 0.000000 0.000000 0.029369 0.000000
# 6 0.000000 0.000000 0.000000 0.000000 0.000000 0.042090
#
#
# Mechanical properties :
#
#
# Convention : Reuss Voigt Hill
#
# Bulk Modulus (GPa) = 51.28828 60.60079 55.94454
# Shear Modulus (GPa) = 24.68146 27.05217 25.86681
#
# Velocity S-wave (km/s) = 3.52442 3.68981 3.60806
# Velocity P-wave (km/s) = 6.50955 6.97508 6.74633
#
# Compressibility (1/GPa) = 0.01949763
#
# Stress axis : x y z
#
# Youngs Moduli (GPa) = 51.16369 49.40007 87.37605
#
# Poissons Ratio (x) = 0.31863 0.09775
# Poissons Ratio (y) = 0.33001 0.72512
# Poissons Ratio (z) = 0.05724 0.40996
#
# Static dielectric constant tensor:
#      x y z
#    x 3.667900 0.000000 0.000000 
#    y 0.000000 3.656930 0.000000 
#    z 0.000000 0.000000 3.856800 
# 
# 
# High freq. dielectric constant tensor:
#      x y z
#    x 1.774590 0.000000 0.000000 
#    y 0.000000 1.766110 0.000000 
#    z 0.000000 0.000000 1.785940 
# 
# From -- ./inp_files/42712.got.cif
#   From: 2010.03.12/outbox.cif.g09.slc.cpg/sg69_22_cif.got.tgz:42712.got - 2010.04.10 23:52:46.
