data_PCOD8285526
_publ_section_title
;
Structure prediction by ZEFSAII (Michael W. Deem and Ramdas Pophale) SiO2 
 PCOD8285526
Probable space group: F M M M
;
_chemical_formula_sum "Si O2"
_cell_formula_units_Z 192
_cell_length_a 19.839864
_cell_length_b 16.861224
_cell_length_c 29.246400
_cell_angle_alpha 90.000000
_cell_angle_beta 90.000000
_cell_angle_gamma 90.000000
_cell_volume 9783.634150
_symmetry_space_group_name_H-M "F M M M"
_symmetry_group_IT_number 69
_symmetry_cell_setting 'orthorhombic'
loop_
_space_group_symop_operation_xyz
x,y,z
-x,-y,z
x,-y,-z
-x,y,-z
-x,-y,-z
x,y,-z
-x,y,z
x,-y,z
x,1/2+y,1/2+z
-x,1/2-y,1/2+z
x,1/2-y,1/2-z
-x,1/2+y,1/2-z
-x,1/2-y,1/2-z
x,1/2+y,1/2-z
-x,1/2+y,1/2+z
x,1/2-y,1/2+z
1/2+x,y,1/2+z
1/2-x,-y,1/2+z
1/2+x,-y,1/2-z
1/2-x,y,1/2-z
1/2-x,-y,1/2-z
1/2+x,y,1/2-z
1/2-x,y,1/2+z
1/2+x,-y,1/2+z
1/2+x,1/2+y,z
1/2-x,1/2-y,z
1/2+x,1/2-y,-z
1/2-x,1/2+y,-z
1/2-x,1/2-y,-z
1/2+x,1/2+y,-z
1/2-x,1/2+y,z
1/2+x,1/2-y,z
loop_
_atom_site_type_symbol
_atom_site_label
_atom_site_fract_x
_atom_site_fract_y
_atom_site_fract_z
Si Si1 0.920011 0.755918 0.550842
Si Si2 0.423909 0.085829 0.574268
Si Si3 0.115781 0.359401 0.670428
Si Si4 0.000000 0.412765 0.166142
Si Si5 0.630958 0.182855 0.141772
Si Si6 0.500000 0.586917 0.772623
Si Si7 0.742798 0.909752 0.198067
O O1 0.909976 0.791830 0.500000
O O2 0.893828 0.663832 0.549465
O O3 0.872156 0.804077 0.586364
O O4 0.000000 0.759541 0.565109
O O5 0.500000 0.076762 0.557813
O O6 0.423240 0.103086 0.628074
O O7 0.387792 0.000000 0.563109
O O8 0.131077 0.267170 0.665870
O O9 0.067535 0.366405 0.714083
O O10 0.183631 0.408820 0.676454
O O11 0.065433 0.366572 0.151731
O O12 0.000000 0.500000 0.142970
O O13 0.000000 0.422489 0.219441
O O14 0.695622 0.138452 0.162741
O O15 0.500000 0.500000 0.795804
O O16 0.750000 0.874587 0.250000
O O17 0.715583 0.000000 0.200669
#
# Coordination Sequence:
#
# PCOD8285526 Si02
#       7
#    32  32  32  16  32  16  32
#     4   9  18  34  57  85 116 150 193 245 298 350
#     4   9  16  28  50  81 115 149 186 230 286 350
#     4  11  21  34  55  82 114 149 190 235 286 347
#     4  11  23  37  54  78 110 151 194 236 287 340
#     4  11  22  38  58  83 114 153 194 242 295 346
#     4  11  21  33  53  81 114 150 187 234 287 344
#     4  11  24  40  57  80 113 155 199 241 292 355
#
# _framework density 19.624610000000001
#
# number of rings (size 3 to 8) (size 9 to 14) (size 15 to 20)
#    0.000    1.667    1.667    4.000    0.000    7.000 
#    0.000    1.667    0.000   10.500    0.000    0.000 
#    0.000    0.000    0.000    0.000    0.000    0.000 
#
# Total GULP energy -594724.575652 kJ/mol
# GULP energy per Si atom -12390.095326 kJ/mol
# Density = 1.957994 g / cm^3
# Si number density = 19.624610 Si / 1000 Ang^3
#
#
#
# Elastic Constant Matrix: (Units=GPa)
#
#
# Indices 1 2 3 4 5 6 
#
# 1 91.3027 31.1843 37.2161 0.0000 0.0000 0.0000
# 2 31.1843 74.2675 48.6747 0.0000 0.0000 0.0000
# 3 37.2161 48.6747 111.1761 0.0000 0.0000 0.0000
# 4 0.0000 0.0000 0.0000 8.2809 0.0000 0.0000
# 5 0.0000 0.0000 0.0000 0.0000 20.0343 0.0000
# 6 0.0000 0.0000 0.0000 0.0000 0.0000 32.2252
#
#
#
# Elastic Compliance Matrix: (Units=1/GPa)
#
#
# Indices 1 2 3 4 5 6 
#
# 1 0.013394 -0.003766 -0.002835 0.000000 0.000000 0.000000
# 2 -0.003766 0.019942 -0.007470 0.000000 0.000000 0.000000
# 3 -0.002835 -0.007470 0.013214 0.000000 0.000000 0.000000
# 4 0.000000 0.000000 0.000000 0.120760 0.000000 0.000000
# 5 0.000000 0.000000 0.000000 0.000000 0.049914 0.000000
# 6 0.000000 0.000000 0.000000 0.000000 0.000000 0.031032
#
#
# Mechanical properties :
#
#
# Convention : Reuss Voigt Hill
#
# Bulk Modulus (GPa) = 54.32355 56.76628 55.54491
# Shear Modulus (GPa) = 17.69688 22.75282 20.22485
#
# Velocity S-wave (km/s) = 3.00621 3.40869 3.21376
# Velocity P-wave (km/s) = 6.30802 6.66942 6.49123
#
# Compressibility (1/GPa) = 0.01840822
#
# Stress axis : x y z
#
# Youngs Moduli (GPa) = 74.65771 50.14471 75.67557
#
# Poissons Ratio (x) = 0.18886 0.21453
# Poissons Ratio (y) = 0.28118 0.56532
# Poissons Ratio (z) = 0.21164 0.37460
#
# Static dielectric constant tensor:
#      x y z
#    x 3.269550 0.000000 0.000000 
#    y 0.000000 5.336750 0.000000 
#    z 0.000000 0.000000 3.617040 
# 
# 
# High freq. dielectric constant tensor:
#      x y z
#    x 1.736500 0.000000 0.000000 
#    y 0.000000 1.772870 0.000000 
#    z 0.000000 0.000000 1.759090 
# 
# From -- ./inp_files/46447.got.cif
#   From: 2010.03.12/outbox.cif.g09.slc.cpg/sg69_24_cif.got.tgz:46447.got - 2010.04.10 23:52:46.
