data_PCOD8285204
_publ_section_title
;
Structure prediction by ZEFSAII (Michael W. Deem and Ramdas Pophale) SiO2 
 PCOD8285204
Probable space group: F M M M
;
_chemical_formula_sum "Si O2"
_cell_formula_units_Z 144
_cell_length_a 12.518786
_cell_length_b 31.054658
_cell_length_c 18.878288
_cell_angle_alpha 90.000000
_cell_angle_beta 90.000000
_cell_angle_gamma 90.000000
_cell_volume 7339.248176
_symmetry_space_group_name_H-M "F M M M"
_symmetry_group_IT_number 69
_symmetry_cell_setting 'orthorhombic'
loop_
_space_group_symop_operation_xyz
x,y,z
-x,-y,z
x,-y,-z
-x,y,-z
-x,-y,-z
x,y,-z
-x,y,z
x,-y,z
x,1/2+y,1/2+z
-x,1/2-y,1/2+z
x,1/2-y,1/2-z
-x,1/2+y,1/2-z
-x,1/2-y,1/2-z
x,1/2+y,1/2-z
-x,1/2+y,1/2+z
x,1/2-y,1/2+z
1/2+x,y,1/2+z
1/2-x,-y,1/2+z
1/2+x,-y,1/2-z
1/2-x,y,1/2-z
1/2-x,-y,1/2-z
1/2+x,y,1/2-z
1/2-x,y,1/2+z
1/2+x,-y,1/2+z
1/2+x,1/2+y,z
1/2-x,1/2-y,z
1/2+x,1/2-y,-z
1/2-x,1/2+y,-z
1/2-x,1/2-y,-z
1/2+x,1/2+y,-z
1/2-x,1/2+y,z
1/2+x,1/2-y,z
loop_
_atom_site_type_symbol
_atom_site_label
_atom_site_fract_x
_atom_site_fract_y
_atom_site_fract_z
Si Si1 0.373330 0.228098 0.144347
Si Si2 0.750000 0.391576 0.250000
Si Si3 0.127156 0.313646 0.000000
Si Si4 0.874702 0.684561 0.290897
Si Si5 0.372843 0.589454 0.500000
Si Si6 0.873396 0.048766 0.355194
O O1 0.500000 0.233614 0.142394
O O2 0.329511 0.210354 0.069919
O O3 0.326550 0.276779 0.159100
O O4 0.347014 0.195787 0.208905
O O5 0.819902 0.361672 0.303770
O O6 0.828847 0.421158 0.205853
O O7 0.172650 0.362068 0.000000
O O8 0.000000 0.314702 0.000000
O O9 0.000000 0.680408 0.304458
O O10 0.500000 0.590137 0.500000
O O11 0.329955 0.564518 0.431149
O O12 0.000000 0.052229 0.352391
O O13 0.834463 0.000000 0.342971
#
# Coordination Sequence:
#
# PCOD8285204 Si02
#       6
#    32  16  16  32  16  32
#     4   8  15  28  45  66  96 133 171 208 246 288
#     4  12  21  31  52  78 104 132 172 215 255 304
#     4   9  14  23  45  73  95 122 165 210 246 287
#     4   9  18  32  47  66  97 137 173 204 244 295
#     4   9  17  32  56  80 102 131 166 209 264 317
#     4  10  21  37  56  79 105 131 163 210 269 324
#
# _framework density 19.620536999999999
#
# number of rings (size 3 to 8) (size 9 to 14) (size 15 to 20)
#    0.000    2.667    0.000    4.000    0.000    6.667 
#    0.000    1.111    0.000    2.667    0.000    2.333 
#    0.000    8.889    0.000    0.000    0.000    0.000 
#
# Total GULP energy -446372.518429 kJ/mol
# GULP energy per Si atom -12399.236623 kJ/mol
# Density = 1.957588 g / cm^3
# Si number density = 19.620537 Si / 1000 Ang^3
#
#
#
# Elastic Constant Matrix: (Units=GPa)
#
#
# Indices 1 2 3 4 5 6 
#
# 1 26.7524 40.5734 13.6927 0.0000 0.0000 0.0000
# 2 40.5734 174.3938 63.7465 0.0000 0.0000 0.0000
# 3 13.6927 63.7465 95.6020 0.0000 0.0000 0.0000
# 4 0.0000 0.0000 0.0000 34.7761 0.0000 0.0000
# 5 0.0000 0.0000 0.0000 0.0000 13.1520 0.0000
# 6 0.0000 0.0000 0.0000 0.0000 0.0000 31.7864
#
#
#
# Elastic Compliance Matrix: (Units=1/GPa)
#
#
# Indices 1 2 3 4 5 6 
#
# 1 0.057820 -0.013785 0.000910 0.000000 0.000000 0.000000
# 2 -0.013785 0.010869 -0.005273 0.000000 0.000000 0.000000
# 3 0.000910 -0.005273 0.013845 0.000000 0.000000 0.000000
# 4 0.000000 0.000000 0.000000 0.028755 0.000000 0.000000
# 5 0.000000 0.000000 0.000000 0.000000 0.076034 0.000000
# 6 0.000000 0.000000 0.000000 0.000000 0.000000 0.031460
#
#
# Mechanical properties :
#
#
# Convention : Reuss Voigt Hill
#
# Bulk Modulus (GPa) = 21.62644 59.19704 40.41174
# Shear Modulus (GPa) = 18.48486 27.85860 23.17173
#
# Velocity S-wave (km/s) = 3.07272 3.77220 3.44029
# Velocity P-wave (km/s) = 4.86160 7.01492 6.03508
#
# Compressibility (1/GPa) = 0.04623969
#
# Stress axis : x y z
#
# Youngs Moduli (GPa) = 17.29496 92.00818 72.22580
#
# Poissons Ratio (x) = 1.26832 -0.06574
# Poissons Ratio (y) = 0.23841 0.38083
# Poissons Ratio (z) = -0.01574 0.48513
#
# Static dielectric constant tensor:
#      x y z
#    x 3.553260 0.000000 0.000000 
#    y 0.000000 3.761380 0.000000 
#    z 0.000000 0.000000 3.666810 
# 
# 
# High freq. dielectric constant tensor:
#      x y z
#    x 1.761740 0.000000 0.000000 
#    y 0.000000 1.768910 0.000000 
#    z 0.000000 0.000000 1.749220 
# 
# From -- ./inp_files/19490.got.cif
#   From: 2010.03.12/outbox.cif.g09.slc.cpg/sg69_10_cif.got.tgz:19490.got - 2010.04.10 23:52:46.
