data_PCOD8285409
_publ_section_title
;
Structure prediction by ZEFSAII (Michael W. Deem and Ramdas Pophale) SiO2 
 PCOD8285409
Probable space group: F M M M
;
_chemical_formula_sum "Si O2"
_cell_formula_units_Z 144
_cell_length_a 25.082921
_cell_length_b 18.789590
_cell_length_c 14.847897
_cell_angle_alpha 90.000000
_cell_angle_beta 90.000000
_cell_angle_gamma 90.000000
_cell_volume 6997.781214
_symmetry_space_group_name_H-M "F M M M"
_symmetry_group_IT_number 69
_symmetry_cell_setting 'orthorhombic'
loop_
_space_group_symop_operation_xyz
x,y,z
-x,-y,z
x,-y,-z
-x,y,-z
-x,-y,-z
x,y,-z
-x,y,z
x,-y,z
x,1/2+y,1/2+z
-x,1/2-y,1/2+z
x,1/2-y,1/2-z
-x,1/2+y,1/2-z
-x,1/2-y,1/2-z
x,1/2+y,1/2-z
-x,1/2+y,1/2+z
x,1/2-y,1/2+z
1/2+x,y,1/2+z
1/2-x,-y,1/2+z
1/2+x,-y,1/2-z
1/2-x,y,1/2-z
1/2-x,-y,1/2-z
1/2+x,y,1/2-z
1/2-x,y,1/2+z
1/2+x,-y,1/2+z
1/2+x,1/2+y,z
1/2-x,1/2-y,z
1/2+x,1/2-y,-z
1/2-x,1/2+y,-z
1/2-x,1/2-y,-z
1/2+x,1/2+y,-z
1/2-x,1/2+y,z
1/2+x,1/2-y,z
loop_
_atom_site_type_symbol
_atom_site_label
_atom_site_fract_x
_atom_site_fract_y
_atom_site_fract_z
Si Si1 0.500000 0.920284 0.393137
Si Si2 0.610142 0.646113 0.100392
Si Si3 0.559441 0.721905 0.649585
Si Si4 0.809619 0.418556 0.260533
Si Si5 0.888293 0.079840 0.396247
O O1 0.500000 0.917104 0.500000
O O2 0.554421 0.883951 0.357465
O O3 0.500000 0.000000 0.355720
O O4 0.602108 0.731593 0.092892
O O5 0.658807 0.626965 0.165270
O O6 0.621588 0.615731 0.000000
O O7 0.500000 0.736692 0.613230
O O8 0.566108 0.750000 0.750000
O O9 0.569550 0.637882 0.638662
O O10 0.809093 0.500000 0.294402
O O11 0.750000 0.388222 0.250000
O O12 0.834955 0.411571 0.161921
O O13 0.873204 0.093229 0.500000
O O14 0.912385 0.000000 0.383310
#
# Coordination Sequence:
#
# PCOD8285409 Si02
#       5
#    16  32  32  32  32
#     4   9  18  32  53  86 126 160 193 240 301 374
#     4  11  21  36  60  93 127 163 205 254 319 386
#     4  11  22  39  63  92 127 168 207 254 318 386
#     4  10  22  41  63  89 125 167 213 264 314 369
#     4  10  22  41  64  89 121 165 217 265 308 366
#
# _framework density 20.577950999999999
#
# number of rings (size 3 to 8) (size 9 to 14) (size 15 to 20)
#    0.000    1.667    3.333    1.333    0.000    4.000 
#    0.000    5.556    0.000    2.667    0.000    0.000 
#    0.000    0.000    0.000    0.000    0.000    0.000 
#
# Total GULP energy -446294.862018 kJ/mol
# GULP energy per Si atom -12397.079500 kJ/mol
# Density = 2.053111 g / cm^3
# Si number density = 20.577951 Si / 1000 Ang^3
#
#
#
# Elastic Constant Matrix: (Units=GPa)
#
#
# Indices 1 2 3 4 5 6 
#
# 1 143.8046 59.6185 57.3747 0.0000 0.0000 0.0000
# 2 59.6185 131.7112 47.7719 0.0000 0.0000 0.0000
# 3 57.3747 47.7719 118.2771 0.0000 0.0000 0.0000
# 4 0.0000 0.0000 0.0000 29.2632 0.0000 0.0000
# 5 0.0000 0.0000 0.0000 0.0000 17.5149 0.0000
# 6 0.0000 0.0000 0.0000 0.0000 0.0000 26.1085
#
#
#
# Elastic Compliance Matrix: (Units=1/GPa)
#
#
# Indices 1 2 3 4 5 6 
#
# 1 0.009601 -0.003113 -0.003400 0.000000 0.000000 0.000000
# 2 -0.003113 0.009905 -0.002491 0.000000 0.000000 0.000000
# 3 -0.003400 -0.002491 0.011110 0.000000 0.000000 0.000000
# 4 0.000000 0.000000 0.000000 0.034173 0.000000 0.000000
# 5 0.000000 0.000000 0.000000 0.000000 0.057094 0.000000
# 6 0.000000 0.000000 0.000000 0.000000 0.000000 0.038302
#
#
# Mechanical properties :
#
#
# Convention : Reuss Voigt Hill
#
# Bulk Modulus (GPa) = 79.30858 80.36923 79.83891
# Shear Modulus (GPa) = 27.41328 29.84585 28.62956
#
# Velocity S-wave (km/s) = 3.65385 3.81252 3.73402
# Velocity P-wave (km/s) = 7.51166 7.64991 7.58110
#
# Compressibility (1/GPa) = 0.01260898
#
# Stress axis : x y z
#
# Youngs Moduli (GPa) = 104.15750 100.96322 90.00897
#
# Poissons Ratio (x) = 0.31425 0.30604
# Poissons Ratio (y) = 0.32420 0.22417
# Poissons Ratio (z) = 0.35414 0.25146
#
# Static dielectric constant tensor:
#      x y z
#    x 3.535400 0.000000 0.000000 
#    y 0.000000 3.982390 0.000000 
#    z 0.000000 0.000000 3.679120 
# 
# 
# High freq. dielectric constant tensor:
#      x y z
#    x 1.776440 0.000000 0.000000 
#    y 0.000000 1.812490 0.000000 
#    z 0.000000 0.000000 1.808410 
# 
# From -- ./inp_files/25724.got.cif
#   From: 2010.03.12/outbox.cif.g09.slc.cpg/sg69_13_cif.got.tgz:25724.got - 2010.04.10 23:52:46.
