data_PCOD8285107
_publ_section_title
;
Structure prediction by ZEFSAII (Michael W. Deem and Ramdas Pophale) SiO2 
 PCOD8285107
Probable space group: F M M M
;
_chemical_formula_sum "Si O2"
_cell_formula_units_Z 88
_cell_length_a 28.206123
_cell_length_b 9.639502
_cell_length_c 15.376552
_cell_angle_alpha 90.000000
_cell_angle_beta 90.000000
_cell_angle_gamma 90.000000
_cell_volume 4180.776531
_symmetry_space_group_name_H-M "F M M M"
_symmetry_group_IT_number 69
_symmetry_cell_setting 'orthorhombic'
loop_
_space_group_symop_operation_xyz
x,y,z
-x,-y,z
x,-y,-z
-x,y,-z
-x,-y,-z
x,y,-z
-x,y,z
x,-y,z
x,1/2+y,1/2+z
-x,1/2-y,1/2+z
x,1/2-y,1/2-z
-x,1/2+y,1/2-z
-x,1/2-y,1/2-z
x,1/2+y,1/2-z
-x,1/2+y,1/2+z
x,1/2-y,1/2+z
1/2+x,y,1/2+z
1/2-x,-y,1/2+z
1/2+x,-y,1/2-z
1/2-x,y,1/2-z
1/2-x,-y,1/2-z
1/2+x,y,1/2-z
1/2-x,y,1/2+z
1/2+x,-y,1/2+z
1/2+x,1/2+y,z
1/2-x,1/2-y,z
1/2+x,1/2-y,-z
1/2-x,1/2+y,-z
1/2-x,1/2-y,-z
1/2+x,1/2+y,-z
1/2-x,1/2+y,z
1/2+x,1/2-y,z
loop_
_atom_site_type_symbol
_atom_site_label
_atom_site_fract_x
_atom_site_fract_y
_atom_site_fract_z
Si Si1 0.856093 0.000000 0.000000
Si Si2 0.250000 0.750000 0.250000
Si Si3 0.110299 0.703288 0.000000
Si Si4 0.304569 0.000000 0.000000
Si Si5 0.722589 0.000000 0.361023
Si Si6 0.946453 0.344961 0.173496
O O1 0.824218 0.000000 0.084220
O O2 0.889692 0.868180 0.000000
O O3 0.281573 0.856605 0.306766
O O4 0.083664 0.654669 0.914150
O O5 0.163189 0.638076 0.000000
O O6 0.271654 0.000000 0.085295
O O7 0.946384 0.500000 0.210998
O O8 0.924236 0.250000 0.250000
O O9 0.000000 0.295112 0.151847
#
# Coordination Sequence:
#
# PCOD8285107 Si02
#       6
#     8   8  16   8  16  32
#     4  11  26  42  59  88 134 164 209 254 316 363
#     4  10  20  40  68  90 108 156 222 246 316 364
#     4  12  23  42  62  99 123 175 205 266 307 376
#     4  11  22  42  65  84 126 162 211 250 320 371
#     4  10  22  44  62  88 122 168 202 258 308 384
#     4  10  22  43  67  93 127 166 209 257 316 378
#
# _framework density 21.048721
#
# number of rings (size 3 to 8) (size 9 to 14) (size 15 to 20)
#    0.000    1.455    1.818    2.727    2.545    4.364 
#   19.636    0.909    0.000    0.000    0.000    0.000 
#    0.000    0.000    0.000    0.000    0.000    0.000 
#
# Total GULP energy -272763.769097 kJ/mol
# GULP energy per Si atom -12398.353141 kJ/mol
# Density = 2.100081 g / cm^3
# Si number density = 21.048721 Si / 1000 Ang^3
#
#
#
# Elastic Constant Matrix: (Units=GPa)
#
#
# Indices 1 2 3 4 5 6 
#
# 1 63.3704 20.5487 33.1344 0.0000 0.0000 0.0000
# 2 20.5487 165.8698 45.7149 0.0000 0.0000 0.0000
# 3 33.1344 45.7149 134.9689 0.0000 0.0000 0.0000
# 4 0.0000 0.0000 0.0000 41.5896 0.0000 0.0000
# 5 0.0000 0.0000 0.0000 0.0000 -11.5254 0.0000
# 6 0.0000 0.0000 0.0000 0.0000 0.0000 25.1300
#
#
#
# Elastic Compliance Matrix: (Units=1/GPa)
#
#
# Indices 1 2 3 4 5 6 
#
# 1 0.018296 -0.001135 -0.004107 0.000000 0.000000 0.000000
# 2 -0.001135 0.006720 -0.001998 0.000000 0.000000 0.000000
# 3 -0.004107 -0.001998 0.009094 0.000000 0.000000 0.000000
# 4 0.000000 0.000000 0.000000 0.024044 0.000000 0.000000
# 5 0.000000 0.000000 0.000000 0.000000 -0.086765 0.000000
# 6 0.000000 0.000000 0.000000 0.000000 0.000000 0.039793
#
#
# Mechanical properties :
#
#
# Convention : Reuss Voigt Hill
#
# Bulk Modulus (GPa) = 50.94012 62.55613 56.74813
# Shear Modulus (GPa) = 155.25726 28.69290 91.97508
#
# Velocity S-wave (km/s) = 8.59773 3.69611 6.61749
# Velocity P-wave (km/s) = 11.08219 6.92815 9.24160
#
# Compressibility (1/GPa) = 0.01963089
#
# Stress axis : x y z
#
# Youngs Moduli (GPa) = 54.65772 148.81126 109.96243
#
# Poissons Ratio (x) = 0.16884 0.45164
# Poissons Ratio (y) = 0.06201 0.21966
# Poissons Ratio (z) = 0.22449 0.29726
#
# Static dielectric constant tensor:
#      x y z
#    x 3.560570 0.000000 0.000000 
#    y 0.000000 4.130650 0.000000 
#    z 0.000000 0.000000 3.935120 
# 
# 
# High freq. dielectric constant tensor:
#      x y z
#    x 1.806230 0.000000 0.000000 
#    y 0.000000 1.846170 0.000000 
#    z 0.000000 0.000000 1.834200 
# 
# From -- ./inp_files/18426.got.cif
#   From: 2010.03.12/outbox.cif.g09.slc.cpg/sg69_10_cif.got.tgz:18426.got - 2010.04.10 23:52:46.
