data_PCOD8285732
_publ_section_title
;
Structure prediction by ZEFSAII (Michael W. Deem and Ramdas Pophale) SiO2 
 PCOD8285732
Probable space group: F D D D
;
_chemical_formula_sum "Si O2"
_cell_formula_units_Z 176
_cell_length_a 21.180562
_cell_length_b 14.757378
_cell_length_c 28.554984
_cell_angle_alpha 90.000000
_cell_angle_beta 90.000000
_cell_angle_gamma 90.000000
_cell_volume 8925.418776
_symmetry_space_group_name_H-M "F D D D"
_symmetry_group_IT_number 70
_space_group.IT_coordinate_system_code '2'
_symmetry_cell_setting 'orthorhombic'
loop_
_space_group_symop_operation_xyz
x,y,z
1/4-x,1/4-y,z
x,1/4-y,1/4-z
1/4-x,y,1/4-z
-x,-y,-z
3/4+x,3/4+y,-z
-x,3/4+y,3/4+z
3/4+x,-y,3/4+z
x,1/2+y,1/2+z
1/4-x,3/4-y,1/2+z
x,3/4-y,3/4-z
1/4-x,1/2+y,3/4-z
-x,1/2-y,1/2-z
3/4+x,1/4+y,1/2-z
-x,1/4+y,1/4+z
3/4+x,1/2-y,1/4+z
1/2+x,y,1/2+z
3/4-x,1/4-y,1/2+z
1/2+x,1/4-y,3/4-z
3/4-x,y,3/4-z
1/2-x,-y,1/2-z
1/4+x,3/4+y,1/2-z
1/2-x,3/4+y,1/4+z
1/4+x,-y,1/4+z
1/2+x,1/2+y,z
3/4-x,3/4-y,z
1/2+x,3/4-y,1/4-z
3/4-x,1/2+y,1/4-z
1/2-x,1/2-y,-z
1/4+x,1/4+y,-z
1/2-x,1/4+y,3/4+z
1/4+x,1/2-y,3/4+z
loop_
_atom_site_type_symbol
_atom_site_label
_atom_site_fract_x
_atom_site_fract_y
_atom_site_fract_z
Si Si1 0.375000 0.375000 0.528446
Si Si2 0.853844 0.639164 0.824299
Si Si3 0.762408 0.766161 0.554252
Si Si4 0.170041 0.037918 0.996144
Si Si5 0.848967 0.133240 0.176979
Si Si6 0.564529 0.294858 0.004757
O O1 0.423510 0.426895 0.562048
O O2 0.418538 0.311689 0.495128
O O3 0.875000 0.675064 0.875000
O O4 0.795025 0.569120 0.828418
O O5 0.839928 0.724237 0.791185
O O6 0.912835 0.584942 0.803803
O O7 0.750000 0.750000 0.500000
O O8 0.780140 0.667350 0.575092
O O9 0.125000 0.125000 0.998202
O O10 0.241717 0.070420 0.999810
O O11 0.160493 0.985188 0.946755
O O12 0.878103 0.125000 0.125000
O O13 0.898671 0.086851 0.211136
#
# Coordination Sequence:
#
# PCOD8285732 Si02
#       6
#    16  32  32  32  32  32
#     4  10  16  34  69  84 116 174 204 248 337 392
#     4  11  24  40  63 101 130 169 225 275 328 398
#     4  11  18  39  63  88 131 164 211 274 331 392
#     4  11  24  46  65  91 137 182 217 270 332 402
#     4  10  23  41  64  98 127 166 223 279 327 399
#     4  10  21  41  64  92 130 171 214 271 336 387
#
# _framework density 19.718962999999999
#
# number of rings (size 3 to 8) (size 9 to 14) (size 15 to 20)
#    0.000    1.455    7.273    0.000    2.545    3.273 
#   13.091    0.455    0.000    0.000    0.000    0.000 
#    0.000    0.000    0.000    0.000    0.000    0.000 
#
# Total GULP energy -545279.524614 kJ/mol
# GULP energy per Si atom -12392.716468 kJ/mol
# Density = 1.967408 g / cm^3
# Si number density = 19.718963 Si / 1000 Ang^3
#
#
#
# Elastic Constant Matrix: (Units=GPa)
#
#
# Indices 1 2 3 4 5 6 
#
# 1 141.6814 56.3594 26.7843 0.0000 0.0000 0.0000
# 2 56.3594 104.4670 25.2461 0.0000 0.0000 0.0000
# 3 26.7843 25.2461 116.4756 0.0000 0.0000 0.0000
# 4 0.0000 0.0000 0.0000 16.0679 0.0000 0.0000
# 5 0.0000 0.0000 0.0000 0.0000 18.1593 0.0000
# 6 0.0000 0.0000 0.0000 0.0000 0.0000 35.6167
#
#
#
# Elastic Compliance Matrix: (Units=1/GPa)
#
#
# Indices 1 2 3 4 5 6 
#
# 1 0.009115 -0.004655 -0.001087 0.000000 0.000000 0.000000
# 2 -0.004655 0.012479 -0.001634 0.000000 0.000000 0.000000
# 3 -0.001087 -0.001634 0.009190 0.000000 0.000000 0.000000
# 4 0.000000 0.000000 0.000000 0.062236 0.000000 0.000000
# 5 0.000000 0.000000 0.000000 0.000000 0.055068 0.000000
# 6 0.000000 0.000000 0.000000 0.000000 0.000000 0.028077
#
#
# Mechanical properties :
#
#
# Convention : Reuss Voigt Hill
#
# Bulk Modulus (GPa) = 62.37967 64.37819 63.37893
# Shear Modulus (GPa) = 25.47628 30.91772 28.19700
#
# Velocity S-wave (km/s) = 3.59830 3.96399 3.78556
# Velocity P-wave (km/s) = 6.99762 7.32596 7.16367
#
# Compressibility (1/GPa) = 0.01603086
#
# Stress axis : x y z
#
# Youngs Moduli (GPa) = 109.70577 80.13677 108.81716
#
# Poissons Ratio (x) = 0.37303 0.11830
# Poissons Ratio (y) = 0.51067 0.17784
# Poissons Ratio (z) = 0.11927 0.13097
#
# Static dielectric constant tensor:
#      x y z
#    x 3.866270 0.000000 0.000000 
#    y 0.000000 3.821440 0.000000 
#    z 0.000000 0.000000 3.467680 
# 
# 
# High freq. dielectric constant tensor:
#      x y z
#    x 1.773830 0.000000 0.000000 
#    y 0.000000 1.771130 0.000000 
#    z 0.000000 0.000000 1.748140 
# 
# From -- ./inp_files/51339.got.cif
#   From: 2010.03.12/outbox.cif.g09.slc.cpg/sg70_26_cif.got.tgz:51339.got - 2010.04.16 13:46:32.
