data_PCOD8285716
_publ_section_title
;
Structure prediction by ZEFSAII (Michael W. Deem and Ramdas Pophale) SiO2 
 PCOD8285716
Probable space group: F M M M
;
_chemical_formula_sum "Si O2"
_cell_formula_units_Z 36
_cell_length_a 30.000000
_cell_length_b 30.000000
_cell_length_c 9.000000
_cell_angle_alpha 90.000000
_cell_angle_beta 90.000000
_cell_angle_gamma 90.000000
_cell_volume 8100.000000
_symmetry_space_group_name_H-M "F M M M"
_symmetry_group_IT_number 69
_symmetry_cell_setting 'orthorhombic'
loop_
_space_group_symop_operation_xyz
x,y,z
-x,-y,z
x,-y,-z
-x,y,-z
-x,-y,-z
x,y,-z
-x,y,z
x,-y,z
x,1/2+y,1/2+z
-x,1/2-y,1/2+z
x,1/2-y,1/2-z
-x,1/2+y,1/2-z
-x,1/2-y,1/2-z
x,1/2+y,1/2-z
-x,1/2+y,1/2+z
x,1/2-y,1/2+z
1/2+x,y,1/2+z
1/2-x,-y,1/2+z
1/2+x,-y,1/2-z
1/2-x,y,1/2-z
1/2-x,-y,1/2-z
1/2+x,y,1/2-z
1/2-x,y,1/2+z
1/2+x,-y,1/2+z
1/2+x,1/2+y,z
1/2-x,1/2-y,z
1/2+x,1/2-y,-z
1/2-x,1/2+y,-z
1/2-x,1/2-y,-z
1/2+x,1/2+y,-z
1/2-x,1/2+y,z
1/2+x,1/2-y,z
loop_
_atom_site_type_symbol
_atom_site_label
_atom_site_fract_x
_atom_site_fract_y
_atom_site_fract_z
Si Si1 0.000000 0.447991 0.666376
Si Si2 0.124917 0.860041 0.181205
Si Si3 0.408192 0.552428 0.677350
Si Si4 0.447949 0.797478 0.824663
Si Si5 0.298548 0.701928 0.682758
O O1 0.043097 0.434445 0.761573
O O2 0.000000 0.500000 0.641588
O O3 0.000000 0.425653 0.500000
O O4 0.124632 0.911800 0.240872
O O5 0.080473 0.835192 0.239919
O O6 0.167421 0.835305 0.255084
O O7 0.127286 0.859385 0.000000
O O8 0.406868 0.559705 0.500000
O O9 0.396174 0.500000 0.714438
O O10 0.500000 0.809306 0.803141
O O11 0.436738 0.750000 0.750000
O O12 0.435414 0.795778 0.000000
O O13 0.298018 0.702912 0.500000
O O14 0.313278 0.750000 0.750000
O O15 0.250000 0.689980 0.750000
#
# Coordination Sequence:
#
# PCOD8285716 Si02
#       5
#    16  32  32  32  32
#     4   9  17  31  51  75 104 141 186 235 285 335
#     4  12  24  37  57  84 115 151 193 236 285 342
#     4  10  21  37  56  79 110 149 193 242 292 340
#     4  10  21  37  55  77 110 150 191 234 282 337
#     4  11  22  40  64  91 121 150 187 232 287 343
#
# _framework density 4.4444439999999998
#
# number of rings (size 3 to 8) (size 9 to 14) (size 15 to 20)
#    0.000    1.444    0.000    7.000    1.556    4.000 
#    0.000    0.000    0.000    0.667    0.000    0.000 
#    0.000    0.000    0.000    0.000    0.000    0.000 
#
# Total GULP energy -446183.769003 kJ/mol
# GULP energy per Si atom -12393.993583 kJ/mol
# Density = 0.443433 g / cm^3
# Si number density = 4.444444 Si / 1000 Ang^3
#
#
#
# Elastic Constant Matrix: (Units=GPa)
#
#
# Indices 1 2 3 4 5 6 
#
# 1 99.9298 58.5473 47.6230 -0.0028 -0.0078 -0.0072
# 2 58.5473 140.4096 60.5153 -0.0159 0.0033 0.0034
# 3 47.6230 60.5153 199.7121 -0.0337 0.0095 0.0133
# 4 -0.0028 -0.0159 -0.0337 42.7710 0.0078 0.0096
# 5 -0.0078 0.0033 0.0095 0.0078 37.8420 0.0058
# 6 -0.0072 0.0034 0.0133 0.0096 0.0058 35.3411
#
#
#
# Elastic Compliance Matrix: (Units=1/GPa)
#
#
# Indices 1 2 3 4 5 6 
#
# 1 0.013768 -0.004976 -0.001775 -0.000002 0.000004 0.000004
# 2 -0.004976 0.009990 -0.001841 0.000002 -0.000001 -0.000001
# 3 -0.001775 -0.001841 0.005988 0.000004 -0.000002 -0.000002
# 4 -0.000002 0.000002 0.000004 0.023380 -0.000005 -0.000006
# 5 0.000004 -0.000001 -0.000002 -0.000005 0.026426 -0.000004
# 6 0.000004 -0.000001 -0.000002 -0.000006 -0.000004 0.028296
#
#
# Mechanical properties :
#
#
# Convention : Reuss Voigt Hill
#
# Bulk Modulus (GPa) = 79.59878 85.93586 82.76732
# Shear Modulus (GPa) = 38.69368 41.41521 40.05445
#
# Velocity S-wave (km/s) = 4.67038 4.83183 4.75179
# Velocity P-wave (km/s) = 8.59970 8.92035 8.76149
#
# Compressibility (1/GPa) = 0.01256301
#
# Stress axis : x y z
#
# Youngs Moduli (GPa) = 72.62992 100.09882 166.99229
#
# Poissons Ratio (x) = 0.49808 0.29648
# Poissons Ratio (y) = 0.36140 0.30737
# Poissons Ratio (z) = 0.12895 0.18424
#
# Static dielectric constant tensor:
#      x y z
#    x 3.399990 0.000070 0.000100 
#    y 0.000070 3.635560 -0.000110 
#    z 0.000100 -0.000110 3.938180 
# 
# 
# High freq. dielectric constant tensor:
#      x y z
#    x 1.683570 0.000000 0.000000 
#    y 0.000000 1.707890 -0.000010 
#    z 0.000000 -0.000010 1.737730 
# 
# From -- ./inp_files/5624.got.cif
#   From: 2010.03.12/outbox.ucp.g09.slc.cvg/sg69_3_cif.got.tgz:5624.got - 2010.05.04 19:54:48.
