data_PCOD8285177
_publ_section_title
;
Structure prediction by ZEFSAII (Michael W. Deem and Ramdas Pophale) SiO2 
 PCOD8285177
Probable space group: F M M M
;
_chemical_formula_sum "Si O2"
_cell_formula_units_Z 192
_cell_length_a 25.840056
_cell_length_b 16.072513
_cell_length_c 25.151360
_cell_angle_alpha 90.000000
_cell_angle_beta 90.000000
_cell_angle_gamma 90.000000
_cell_volume 10445.727923
_symmetry_space_group_name_H-M "F M M M"
_symmetry_group_IT_number 69
_symmetry_cell_setting 'orthorhombic'
loop_
_space_group_symop_operation_xyz
x,y,z
-x,-y,z
x,-y,-z
-x,y,-z
-x,-y,-z
x,y,-z
-x,y,z
x,-y,z
x,1/2+y,1/2+z
-x,1/2-y,1/2+z
x,1/2-y,1/2-z
-x,1/2+y,1/2-z
-x,1/2-y,1/2-z
x,1/2+y,1/2-z
-x,1/2+y,1/2+z
x,1/2-y,1/2+z
1/2+x,y,1/2+z
1/2-x,-y,1/2+z
1/2+x,-y,1/2-z
1/2-x,y,1/2-z
1/2-x,-y,1/2-z
1/2+x,y,1/2-z
1/2-x,y,1/2+z
1/2+x,-y,1/2+z
1/2+x,1/2+y,z
1/2-x,1/2-y,z
1/2+x,1/2-y,-z
1/2-x,1/2+y,-z
1/2-x,1/2-y,-z
1/2+x,1/2+y,-z
1/2-x,1/2+y,z
1/2+x,1/2-y,z
loop_
_atom_site_type_symbol
_atom_site_label
_atom_site_fract_x
_atom_site_fract_y
_atom_site_fract_z
Si Si1 0.059332 0.500000 0.217041
Si Si2 0.194888 0.788968 0.940207
Si Si3 0.186622 0.403384 0.344885
Si Si4 0.645360 0.379133 0.440611
Si Si5 0.121815 0.842546 0.251117
Si Si6 0.195902 0.909050 0.666949
Si Si7 0.939302 0.500000 0.092163
O O1 0.080056 0.585095 0.242410
O O2 0.070736 0.500000 0.154654
O O3 0.000000 0.500000 0.230733
O O4 0.250000 0.750000 0.921573
O O5 0.178835 0.865117 0.903177
O O6 0.148502 0.720929 0.936556
O O7 0.200523 0.823227 0.000000
O O8 0.172389 0.500000 0.347999
O O9 0.150080 0.356024 0.304367
O O10 0.244537 0.388118 0.324278
O O11 0.663902 0.406174 0.500000
O O12 0.684119 0.414444 0.396090
O O13 0.587671 0.416341 0.431158
O O14 0.096507 0.750000 0.250000
O O15 0.161654 0.842991 0.301002
O O16 0.183342 0.000000 0.691986
O O17 0.000000 0.500000 0.077041
#
# Coordination Sequence:
#
# PCOD8285177 Si02
#       7
#    16  32  32  32  32  32  16
#     4  11  24  45  62  84 119 148 189 251 312 362
#     4  10  21  36  54  82 123 160 193 237 287 347
#     4  11  23  35  57  84 117 159 203 236 281 346
#     4  11  20  33  56  82 116 159 195 233 289 349
#     4  12  23  38  62  85 114 154 194 243 298 357
#     4  11  20  35  52  82 122 154 192 235 285 348
#     4  11  23  40  62  84 115 156 197 250 304 360
#
# _framework density 18.38072
#
# number of rings (size 3 to 8) (size 9 to 14) (size 15 to 20)
#    0.000    1.000    5.833    1.750    0.000    3.333 
#    0.000    1.667    0.000    0.000    0.000    0.000 
#    0.000    0.667    0.000    0.000    0.000    0.000 
#
# Total GULP energy -595026.584203 kJ/mol
# GULP energy per Si atom -12396.387171 kJ/mol
# Density = 1.833888 g / cm^3
# Si number density = 18.380720 Si / 1000 Ang^3
#
#
#
# Elastic Constant Matrix: (Units=GPa)
#
#
# Indices 1 2 3 4 5 6 
#
# 1 74.1503 47.0746 29.2255 0.0000 0.0000 0.0000
# 2 47.0746 128.6790 44.0191 0.0000 0.0000 0.0000
# 3 29.2255 44.0191 104.3511 0.0000 0.0000 0.0000
# 4 0.0000 0.0000 0.0000 31.2665 0.0000 0.0000
# 5 0.0000 0.0000 0.0000 0.0000 20.2427 0.0000
# 6 0.0000 0.0000 0.0000 0.0000 0.0000 15.2598
#
#
#
# Elastic Compliance Matrix: (Units=1/GPa)
#
#
# Indices 1 2 3 4 5 6 
#
# 1 0.018182 -0.005737 -0.002672 0.000000 0.000000 0.000000
# 2 -0.005737 0.010892 -0.002988 0.000000 0.000000 0.000000
# 3 -0.002672 -0.002988 0.011592 0.000000 0.000000 0.000000
# 4 0.000000 0.000000 0.000000 0.031983 0.000000 0.000000
# 5 0.000000 0.000000 0.000000 0.000000 0.049400 0.000000
# 6 0.000000 0.000000 0.000000 0.000000 0.000000 0.065532
#
#
# Mechanical properties :
#
#
# Convention : Reuss Voigt Hill
#
# Bulk Modulus (GPa) = 55.95549 60.86876 58.41212
# Shear Modulus (GPa) = 23.11257 25.81121 24.46189
#
# Velocity S-wave (km/s) = 3.54988 3.75140 3.65203
# Velocity P-wave (km/s) = 6.87828 7.20774 7.04494
#
# Compressibility (1/GPa) = 0.01787135
#
# Stress axis : x y z
#
# Youngs Moduli (GPa) = 55.00067 91.80812 86.26825
#
# Poissons Ratio (x) = 0.52674 0.23050
# Poissons Ratio (y) = 0.31556 0.25776
# Poissons Ratio (z) = 0.14696 0.27431
#
# Static dielectric constant tensor:
#      x y z
#    x 3.163370 0.000000 0.000000 
#    y 0.000000 3.505210 0.000000 
#    z 0.000000 0.000000 3.516990 
# 
# 
# High freq. dielectric constant tensor:
#      x y z
#    x 1.672990 0.000000 0.000000 
#    y 0.000000 1.715980 0.000000 
#    z 0.000000 0.000000 1.727370 
# 
# From -- ./inp_files/38393.got.cif
#   From: 2010.03.12/outbox.cif.g09.slc.cpg/sg69_20_cif.got.tgz:38393.got - 2010.04.10 23:52:46.
