data_PCOD8285543
_publ_section_title
;
Structure prediction by ZEFSAII (Michael W. Deem and Ramdas Pophale) SiO2 
 PCOD8285543
Probable space group: F M M M
;
_chemical_formula_sum "Si O2"
_cell_formula_units_Z 128
_cell_length_a 8.656650
_cell_length_b 25.365023
_cell_length_c 34.211206
_cell_angle_alpha 90.000000
_cell_angle_beta 90.000000
_cell_angle_gamma 90.000000
_cell_volume 7511.964091
_symmetry_space_group_name_H-M "F M M M"
_symmetry_group_IT_number 69
_symmetry_cell_setting 'orthorhombic'
loop_
_space_group_symop_operation_xyz
x,y,z
-x,-y,z
x,-y,-z
-x,y,-z
-x,-y,-z
x,y,-z
-x,y,z
x,-y,z
x,1/2+y,1/2+z
-x,1/2-y,1/2+z
x,1/2-y,1/2-z
-x,1/2+y,1/2-z
-x,1/2-y,1/2-z
x,1/2+y,1/2-z
-x,1/2+y,1/2+z
x,1/2-y,1/2+z
1/2+x,y,1/2+z
1/2-x,-y,1/2+z
1/2+x,-y,1/2-z
1/2-x,y,1/2-z
1/2-x,-y,1/2-z
1/2+x,y,1/2-z
1/2-x,y,1/2+z
1/2+x,-y,1/2+z
1/2+x,1/2+y,z
1/2-x,1/2-y,z
1/2+x,1/2-y,-z
1/2-x,1/2+y,-z
1/2-x,1/2-y,-z
1/2+x,1/2+y,-z
1/2-x,1/2+y,z
1/2+x,1/2-y,z
loop_
_atom_site_type_symbol
_atom_site_label
_atom_site_fract_x
_atom_site_fract_y
_atom_site_fract_z
Si Si1 0.316128 0.807035 0.291515
Si Si2 0.683748 0.500000 0.206897
Si Si3 0.823988 0.062326 0.000000
Si Si4 0.680745 0.440830 0.578548
Si Si5 0.817144 0.900704 0.661870
O O1 0.500000 0.804937 0.289352
O O2 0.250000 0.826661 0.250000
O O3 0.250000 0.750000 0.302236
O O4 0.259658 0.846463 0.324837
O O5 0.500000 0.500000 0.208108
O O6 0.750000 0.500000 0.250000
O O7 0.743479 0.448525 0.185240
O O8 0.750299 0.086082 0.039559
O O9 0.000000 0.078729 0.000000
O O10 0.794701 0.000000 0.000000
O O11 0.500000 0.443964 0.572676
O O12 0.747697 0.500000 0.584782
O O13 0.724153 0.406105 0.616135
O O14 0.000000 0.900412 0.669243
#
# Coordination Sequence:
#
# PCOD8285543 Si02
#       5
#    32  16  16  32  32
#     4  11  22  38  57  78 101 133 173 219 264 306
#     4  12  24  36  50  71 102 139 174 210 253 310
#     4   9  17  27  43  69 100 133 168 209 249 292
#     4   9  17  31  49  70  99 137 172 205 248 303
#     4  11  21  36  54  76 104 136 173 214 258 307
#
# _framework density 17.039486
#
# number of rings (size 3 to 8) (size 9 to 14) (size 15 to 20)
#    0.000    1.625    1.250    6.000    0.000    3.500 
#    0.000    0.000    0.000    0.000    0.000    0.875 
#    0.000    0.000    0.000    0.000    0.000    0.000 
#
# Total GULP energy -396835.458755 kJ/mol
# GULP energy per Si atom -12401.108086 kJ/mol
# Density = 1.700070 g / cm^3
# Si number density = 17.039486 Si / 1000 Ang^3
#
#
#
# Elastic Constant Matrix: (Units=GPa)
#
#
# Indices 1 2 3 4 5 6 
#
# 1 119.4993 43.7549 74.3538 0.0000 0.0000 0.0000
# 2 43.7549 80.1294 66.0429 0.0000 0.0000 0.0000
# 3 74.3538 66.0429 163.4501 0.0000 0.0000 0.0000
# 4 0.0000 0.0000 0.0000 95.2114 0.0000 0.0000
# 5 0.0000 0.0000 0.0000 0.0000 27.0689 0.0000
# 6 0.0000 0.0000 0.0000 0.0000 0.0000 25.9208
#
#
#
# Elastic Compliance Matrix: (Units=1/GPa)
#
#
# Indices 1 2 3 4 5 6 
#
# 1 0.012172 -0.003123 -0.004275 0.000000 0.000000 0.000000
# 2 -0.003123 0.019512 -0.006463 0.000000 0.000000 0.000000
# 3 -0.004275 -0.006463 0.010674 0.000000 0.000000 0.000000
# 4 0.000000 0.000000 0.000000 0.010503 0.000000 0.000000
# 5 0.000000 0.000000 0.000000 0.000000 0.036943 0.000000
# 6 0.000000 0.000000 0.000000 0.000000 0.000000 0.038579
#
#
# Mechanical properties :
#
#
# Convention : Reuss Voigt Hill
#
# Bulk Modulus (GPa) = 68.32670 81.26467 74.79569
# Shear Modulus (GPa) = 31.05890 41.56871 36.31381
#
# Velocity S-wave (km/s) = 4.27401 4.94454 4.62145
# Velocity P-wave (km/s) = 8.03382 8.96624 8.51281
#
# Compressibility (1/GPa) = 0.01463557
#
# Stress axis : x y z
#
# Youngs Moduli (GPa) = 82.15767 51.24994 93.68168
#
# Poissons Ratio (x) = 0.16004 0.40050
# Poissons Ratio (y) = 0.25656 0.60551
# Poissons Ratio (z) = 0.35124 0.33125
#
# Static dielectric constant tensor:
#      x y z
#    x 3.310340 0.000000 0.000000 
#    y 0.000000 2.965180 0.000000 
#    z 0.000000 0.000000 3.410530 
# 
# 
# High freq. dielectric constant tensor:
#      x y z
#    x 1.673730 0.000000 0.000000 
#    y 0.000000 1.621340 0.000000 
#    z 0.000000 0.000000 1.666720 
# 
# From -- ./inp_files/5379.got.cif
#   From: 2010.03.12/outbox.cif.g09.slc.cpg/sg69_3_cif.got.tgz:5379.got - 2010.04.10 23:52:46.
