data_PCOD8285494
_publ_section_title
;
Structure prediction by ZEFSAII (Michael W. Deem and Ramdas Pophale) SiO2 
 PCOD8285494
Probable space group: F M M M
;
_chemical_formula_sum "Si O2"
_cell_formula_units_Z 128
_cell_length_a 10.303405
_cell_length_b 32.823101
_cell_length_c 25.710909
_cell_angle_alpha 90.000000
_cell_angle_beta 90.000000
_cell_angle_gamma 90.000000
_cell_volume 8695.164678
_symmetry_space_group_name_H-M "F M M M"
_symmetry_group_IT_number 69
_symmetry_cell_setting 'orthorhombic'
loop_
_space_group_symop_operation_xyz
x,y,z
-x,-y,z
x,-y,-z
-x,y,-z
-x,-y,-z
x,y,-z
-x,y,z
x,-y,z
x,1/2+y,1/2+z
-x,1/2-y,1/2+z
x,1/2-y,1/2-z
-x,1/2+y,1/2-z
-x,1/2-y,1/2-z
x,1/2+y,1/2-z
-x,1/2+y,1/2+z
x,1/2-y,1/2+z
1/2+x,y,1/2+z
1/2-x,-y,1/2+z
1/2+x,-y,1/2-z
1/2-x,y,1/2-z
1/2-x,-y,1/2-z
1/2+x,y,1/2-z
1/2-x,y,1/2+z
1/2+x,-y,1/2+z
1/2+x,1/2+y,z
1/2-x,1/2-y,z
1/2+x,1/2-y,-z
1/2-x,1/2+y,-z
1/2-x,1/2-y,-z
1/2+x,1/2+y,-z
1/2-x,1/2+y,z
1/2+x,1/2-y,z
loop_
_atom_site_type_symbol
_atom_site_label
_atom_site_fract_x
_atom_site_fract_y
_atom_site_fract_z
Si Si1 0.147782 0.136392 0.557050
Si Si2 0.500000 0.452271 0.303694
Si Si3 0.147230 0.785777 0.500000
Si Si4 0.738059 0.427362 0.630047
Si Si5 0.847297 0.500000 0.939433
Si Si6 0.500000 0.452513 0.181456
O O1 0.176790 0.116549 0.500000
O O2 0.167849 0.185502 0.551315
O O3 0.236353 0.116899 0.601998
O O4 0.000000 0.126364 0.572448
O O5 0.500000 0.500000 0.318190
O O6 0.371896 0.431230 0.326188
O O7 0.500000 0.445332 0.242576
O O8 0.250000 0.750000 0.500000
O O9 0.000000 0.768241 0.500000
O O10 0.717941 0.460443 0.585238
O O11 0.875410 0.431228 0.657305
O O12 0.000000 0.500000 0.927686
O O13 0.816182 0.500000 0.000000
O O14 0.500000 0.500000 0.167581
#
# Coordination Sequence:
#
# PCOD8285494 Si02
#       6
#    32  16  16  32  16  16
#     4   8  16  30  51  73  96 128 158 196 222 282
#     4  11  20  34  52  66  82 131 183 211 245 282
#     4   8  16  32  52  77 104 127 151 186 229 284
#     4  12  18  34  48  68  93 128 165 206 252 276
#     4  11  20  29  48  70  85 124 175 203 220 290
#     4  11  24  34  44  64 100 127 169 221 255 290
#
# _framework density 14.720826000000001
#
# number of rings (size 3 to 8) (size 9 to 14) (size 15 to 20)
#    0.750    1.125    5.000    1.500    0.000    4.000 
#    2.250    3.125    0.000    0.000    0.000    0.000 
#    0.000    6.000    0.000    0.000    0.000    0.000 
#
# Total GULP energy -396576.380491 kJ/mol
# GULP energy per Si atom -12393.011890 kJ/mol
# Density = 1.468732 g / cm^3
# Si number density = 14.720826 Si / 1000 Ang^3
#
#
#
# Elastic Constant Matrix: (Units=GPa)
#
#
# Indices 1 2 3 4 5 6 
#
# 1 117.2777 46.1792 51.8758 0.0000 0.0000 0.0000
# 2 46.1792 74.4901 39.1816 0.0000 0.0000 0.0000
# 3 51.8758 39.1816 81.4726 0.0000 0.0000 0.0000
# 4 0.0000 0.0000 0.0000 11.1224 0.0000 0.0000
# 5 0.0000 0.0000 0.0000 0.0000 17.9907 0.0000
# 6 0.0000 0.0000 0.0000 0.0000 0.0000 14.4060
#
#
#
# Elastic Compliance Matrix: (Units=1/GPa)
#
#
# Indices 1 2 3 4 5 6 
#
# 1 0.013133 -0.005011 -0.005952 0.000000 0.000000 0.000000
# 2 -0.005011 0.019882 -0.006371 0.000000 0.000000 0.000000
# 3 -0.005952 -0.006371 0.019128 0.000000 0.000000 0.000000
# 4 0.000000 0.000000 0.000000 0.089909 0.000000 0.000000
# 5 0.000000 0.000000 0.000000 0.000000 0.055584 0.000000
# 6 0.000000 0.000000 0.000000 0.000000 0.000000 0.069415
#
#
# Mechanical properties :
#
#
# Convention : Reuss Voigt Hill
#
# Bulk Modulus (GPa) = 57.22578 60.85709 59.04143
# Shear Modulus (GPa) = 16.25782 17.77073 17.01428
#
# Velocity S-wave (km/s) = 3.32687 3.47822 3.40339
# Velocity P-wave (km/s) = 7.32911 7.58691 7.45913
#
# Compressibility (1/GPa) = 0.01747464
#
# Stress axis : x y z
#
# Youngs Moduli (GPa) = 76.14652 50.29647 52.27910
#
# Poissons Ratio (x) = 0.25201 0.31118
# Poissons Ratio (y) = 0.38153 0.33309
# Poissons Ratio (z) = 0.45324 0.32046
#
# Static dielectric constant tensor:
#      x y z
#    x 2.746740 0.000000 0.000000 
#    y 0.000000 2.542280 0.000000 
#    z 0.000000 0.000000 2.829400 
# 
# 
# High freq. dielectric constant tensor:
#      x y z
#    x 1.558300 0.000000 0.000000 
#    y 0.000000 1.531840 0.000000 
#    z 0.000000 0.000000 1.560030 
# 
# From -- ./inp_files/44486.got.cif
#   From: 2010.03.12/outbox.cif.g09.slc.cpg/sg69_23_cif.got.tgz:44486.got - 2010.04.10 23:52:46.
