data_PCOD8285992
_publ_section_title
;
Structure prediction by ZEFSAII (Michael W. Deem and Ramdas Pophale) SiO2 
 PCOD8285992
Probable space group: F D D D
;
_chemical_formula_sum "Si O2"
_cell_formula_units_Z 208
_cell_length_a 36.143122
_cell_length_b 13.856786
_cell_length_c 21.369656
_cell_angle_alpha 90.000000
_cell_angle_beta 90.000000
_cell_angle_gamma 90.000000
_cell_volume 10702.511538
_symmetry_space_group_name_H-M "F D D D"
_symmetry_group_IT_number 70
_space_group.IT_coordinate_system_code '2'
_symmetry_cell_setting 'orthorhombic'
loop_
_space_group_symop_operation_xyz
x,y,z
1/4-x,1/4-y,z
x,1/4-y,1/4-z
1/4-x,y,1/4-z
-x,-y,-z
3/4+x,3/4+y,-z
-x,3/4+y,3/4+z
3/4+x,-y,3/4+z
x,1/2+y,1/2+z
1/4-x,3/4-y,1/2+z
x,3/4-y,3/4-z
1/4-x,1/2+y,3/4-z
-x,1/2-y,1/2-z
3/4+x,1/4+y,1/2-z
-x,1/4+y,1/4+z
3/4+x,1/2-y,1/4+z
1/2+x,y,1/2+z
3/4-x,1/4-y,1/2+z
1/2+x,1/4-y,3/4-z
3/4-x,y,3/4-z
1/2-x,-y,1/2-z
1/4+x,3/4+y,1/2-z
1/2-x,3/4+y,1/4+z
1/4+x,-y,1/4+z
1/2+x,1/2+y,z
3/4-x,3/4-y,z
1/2+x,3/4-y,1/4-z
3/4-x,1/2+y,1/4-z
1/2-x,1/2-y,-z
1/4+x,1/4+y,-z
1/2-x,1/4+y,3/4+z
1/4+x,1/2-y,3/4+z
loop_
_atom_site_type_symbol
_atom_site_label
_atom_site_fract_x
_atom_site_fract_y
_atom_site_fract_z
Si Si1 0.200756 0.089261 0.349318
Si Si2 0.786215 0.060457 0.067345
Si Si3 0.642996 0.803697 0.248958
Si Si4 0.625000 0.625000 0.323839
Si Si5 0.941881 0.566582 0.495485
Si Si6 0.757671 0.507781 0.038839
Si Si7 0.065373 0.021312 0.138424
O O1 0.212837 0.197943 0.335824
O O2 0.157139 0.081644 0.367326
O O3 0.206382 0.021150 0.288596
O O4 0.221266 0.051809 0.409362
O O5 0.773540 0.125000 0.125000
O O6 0.824936 0.106370 0.040154
O O7 0.753873 0.067375 0.015515
O O8 0.644703 0.697052 0.276479
O O9 0.601530 0.845872 0.256685
O O10 0.655435 0.795837 0.176310
O O11 0.966902 0.658035 0.510981
O O12 0.946954 0.536432 0.423443
O O13 0.720130 0.548769 0.069277
O O14 0.084363 0.125000 0.125000
#
# Coordination Sequence:
#
# PCOD8285992 Si02
#       7
#    32  32  32  16  32  32  32
#     4  10  20  35  55  80 111 143 179 227 282 333
#     4  10  22  39  57  79 109 145 191 234 274 329
#     4   9  19  33  53  82 111 146 185 228 277 333
#     4   8  16  32  53  80 111 142 180 224 274 338
#     4  11  21  34  56  86 118 146 184 229 281 348
#     4  11  23  36  55  83 112 149 186 227 282 337
#     4  11  20  32  53  81 118 153 181 222 285 343
#
# _framework density 19.434691999999998
#
# number of rings (size 3 to 8) (size 9 to 14) (size 15 to 20)
#    0.000    1.846    0.000    6.462    0.000    6.769 
#    0.000    0.000    0.000    1.846    0.000    0.000 
#    0.000    0.000    0.000    0.000    0.000    0.000 
#
# Total GULP energy -644328.809495 kJ/mol
# GULP energy per Si atom -12390.938644 kJ/mol
# Density = 1.939046 g / cm^3
# Si number density = 19.434692 Si / 1000 Ang^3
#
#
#
# Elastic Constant Matrix: (Units=GPa)
#
#
# Indices 1 2 3 4 5 6 
#
# 1 104.5843 36.8046 57.3189 0.0000 0.0000 0.0000
# 2 36.8046 40.9465 43.4770 0.0000 0.0000 0.0000
# 3 57.3189 43.4770 132.7713 0.0000 0.0000 0.0000
# 4 0.0000 0.0000 0.0000 29.3644 0.0000 0.0000
# 5 0.0000 0.0000 0.0000 0.0000 29.0319 0.0000
# 6 0.0000 0.0000 0.0000 0.0000 0.0000 14.9106
#
#
#
# Elastic Compliance Matrix: (Units=1/GPa)
#
#
# Indices 1 2 3 4 5 6 
#
# 1 0.014780 -0.009980 -0.003113 0.000000 0.000000 0.000000
# 2 -0.009980 0.044178 -0.010158 0.000000 0.000000 0.000000
# 3 -0.003113 -0.010158 0.012202 0.000000 0.000000 0.000000
# 4 0.000000 0.000000 0.000000 0.034055 0.000000 0.000000
# 5 0.000000 0.000000 0.000000 0.000000 0.034445 0.000000
# 6 0.000000 0.000000 0.000000 0.000000 0.000000 0.067066
#
#
# Mechanical properties :
#
#
# Convention : Reuss Voigt Hill
#
# Bulk Modulus (GPa) = 40.55337 61.50035 51.02686
# Shear Modulus (GPa) = 19.12442 24.04150 21.58296
#
# Velocity S-wave (km/s) = 3.14034 3.52097 3.33609
# Velocity P-wave (km/s) = 5.83616 6.94572 6.41497
#
# Compressibility (1/GPa) = 0.02465886
#
# Stress axis : x y z
#
# Youngs Moduli (GPa) = 67.66126 22.63560 81.95453
#
# Poissons Ratio (x) = 0.22589 0.25509
# Poissons Ratio (y) = 0.67523 0.83251
# Poissons Ratio (z) = 0.21060 0.22994
#
# Static dielectric constant tensor:
#      x y z
#    x 3.978980 0.000000 0.000000 
#    y 0.000000 3.105250 0.000000 
#    z 0.000000 0.000000 3.726680 
# 
# 
# High freq. dielectric constant tensor:
#      x y z
#    x 1.777240 0.000000 0.000000 
#    y 0.000000 1.707850 0.000000 
#    z 0.000000 0.000000 1.761250 
# 
# From -- ./inp_files/47724.got.cif
#   From: 2010.03.12/outbox.cif.g09.slc.cpg/sg70_24_cif.got.tgz:47724.got - 2010.04.16 13:46:32.
