data_PCOD8285249
_publ_section_title
;
Structure prediction by ZEFSAII (Michael W. Deem and Ramdas Pophale) SiO2 
 PCOD8285249
Probable space group: F M M M
;
_chemical_formula_sum "Si O2"
_cell_formula_units_Z 176
_cell_length_a 13.620960
_cell_length_b 23.327165
_cell_length_c 27.463008
_cell_angle_alpha 90.000000
_cell_angle_beta 90.000000
_cell_angle_gamma 90.000000
_cell_volume 8726.051710
_symmetry_space_group_name_H-M "F M M M"
_symmetry_group_IT_number 69
_symmetry_cell_setting 'orthorhombic'
loop_
_space_group_symop_operation_xyz
x,y,z
-x,-y,z
x,-y,-z
-x,y,-z
-x,-y,-z
x,y,-z
-x,y,z
x,-y,z
x,1/2+y,1/2+z
-x,1/2-y,1/2+z
x,1/2-y,1/2-z
-x,1/2+y,1/2-z
-x,1/2-y,1/2-z
x,1/2+y,1/2-z
-x,1/2+y,1/2+z
x,1/2-y,1/2+z
1/2+x,y,1/2+z
1/2-x,-y,1/2+z
1/2+x,-y,1/2-z
1/2-x,y,1/2-z
1/2-x,-y,1/2-z
1/2+x,y,1/2-z
1/2-x,y,1/2+z
1/2+x,-y,1/2+z
1/2+x,1/2+y,z
1/2-x,1/2-y,z
1/2+x,1/2-y,-z
1/2-x,1/2+y,-z
1/2-x,1/2-y,-z
1/2+x,1/2+y,-z
1/2-x,1/2+y,z
1/2+x,1/2-y,z
loop_
_atom_site_type_symbol
_atom_site_label
_atom_site_fract_x
_atom_site_fract_y
_atom_site_fract_z
Si Si1 0.720835 0.932356 0.095009
Si Si2 0.385704 0.361230 0.055921
Si Si3 0.884194 0.773339 0.134942
Si Si4 0.881174 0.849873 0.334249
Si Si5 0.608253 0.568071 0.500000
Si Si6 0.106984 0.314870 0.267299
O O1 0.832044 0.912429 0.084852
O O2 0.670989 0.904436 0.142071
O O3 0.718713 0.000000 0.102463
O O4 0.660855 0.910015 0.048340
O O5 0.500000 0.375719 0.059362
O O6 0.360002 0.301185 0.082761
O O7 0.351372 0.356211 0.000000
O O8 0.844823 0.707934 0.137005
O O9 0.838641 0.812580 0.179658
O O10 0.000000 0.771181 0.145141
O O11 0.841939 0.848363 0.277836
O O12 0.000000 0.855537 0.336462
O O13 0.605954 0.500000 0.500000
O O14 0.500000 0.594764 0.500000
O O15 0.095482 0.250000 0.250000
O O16 0.000000 0.343249 0.274286
#
# Coordination Sequence:
#
# PCOD8285249 Si02
#       6
#    32  32  32  32  16  32
#     4  11  22  36  53  78 108 142 188 230 265 319
#     4  10  21  38  58  77 101 136 183 242 294 328
#     4   8  15  31  55  83 112 141 178 224 275 330
#     4   9  17  31  54  85 117 147 177 212 266 336
#     4   9  18  34  53  72 101 139 176 214 256 309
#     4   7  11  24  50  80 109 141 175 211 253 315
#
# _framework density 20.169488999999999
#
# number of rings (size 3 to 8) (size 9 to 14) (size 15 to 20)
#    0.000    3.000    0.909    2.727    0.000    2.182 
#    1.636    2.727    0.000    5.455    0.000    5.091 
#    0.000    0.000    0.000    0.000    0.000    0.000 
#
# Total GULP energy -545127.095227 kJ/mol
# GULP energy per Si atom -12389.252164 kJ/mol
# Density = 2.012358 g / cm^3
# Si number density = 20.169489 Si / 1000 Ang^3
#
#
#
# Elastic Constant Matrix: (Units=GPa)
#
#
# Indices 1 2 3 4 5 6 
#
# 1 46.0786 30.2636 34.4799 0.0000 0.0000 0.0000
# 2 30.2636 99.1088 61.4941 0.0000 0.0000 0.0000
# 3 34.4799 61.4941 130.6556 0.0000 0.0000 0.0000
# 4 0.0000 0.0000 0.0000 32.2706 0.0000 0.0000
# 5 0.0000 0.0000 0.0000 0.0000 19.1718 0.0000
# 6 0.0000 0.0000 0.0000 0.0000 0.0000 22.4833
#
#
#
# Elastic Compliance Matrix: (Units=1/GPa)
#
#
# Indices 1 2 3 4 5 6 
#
# 1 0.029264 -0.005854 -0.004968 0.000000 0.000000 0.000000
# 2 -0.005854 0.015423 -0.005714 0.000000 0.000000 0.000000
# 3 -0.004968 -0.005714 0.011654 0.000000 0.000000 0.000000
# 4 0.000000 0.000000 0.000000 0.030988 0.000000 0.000000
# 5 0.000000 0.000000 0.000000 0.000000 0.052160 0.000000
# 6 0.000000 0.000000 0.000000 0.000000 0.000000 0.044477
#
#
# Mechanical properties :
#
#
# Convention : Reuss Voigt Hill
#
# Bulk Modulus (GPa) = 42.97395 58.70203 50.83799
# Shear Modulus (GPa) = 22.24266 24.75884 23.50075
#
# Velocity S-wave (km/s) = 3.32443 3.50743 3.41715
# Velocity P-wave (km/s) = 6.00736 6.75058 6.38978
#
# Compressibility (1/GPa) = 0.02326991
#
# Stress axis : x y z
#
# Youngs Moduli (GPa) = 34.17193 64.83905 85.80711
#
# Poissons Ratio (x) = 0.37955 0.42626
# Poissons Ratio (y) = 0.20003 0.49031
# Poissons Ratio (z) = 0.16975 0.37050
#
# Static dielectric constant tensor:
#      x y z
#    x 3.653750 0.000000 0.000000 
#    y 0.000000 3.195430 0.000000 
#    z 0.000000 0.000000 4.057090 
# 
# 
# High freq. dielectric constant tensor:
#      x y z
#    x 1.795910 0.000000 0.000000 
#    y 0.000000 1.733060 0.000000 
#    z 0.000000 0.000000 1.798490 
# 
# From -- ./inp_files/41132.got.cif
#   From: 2010.03.12/outbox.cif.g09.slc.cpg/sg69_21_cif.got.tgz:41132.got - 2010.04.10 23:52:46.
