data_PCOD8285906
_publ_section_title
;
Structure prediction by ZEFSAII (Michael W. Deem and Ramdas Pophale) SiO2 
 PCOD8285906
Probable space group: F D D D
;
_chemical_formula_sum "Si O2"
_cell_formula_units_Z 216
_cell_length_a 14.699464
_cell_length_b 24.457608
_cell_length_c 31.821464
_cell_angle_alpha 90.000000
_cell_angle_beta 90.000000
_cell_angle_gamma 90.000000
_cell_volume 11440.253163
_symmetry_space_group_name_H-M "F D D D"
_symmetry_group_IT_number 70
_space_group.IT_coordinate_system_code '2'
_symmetry_cell_setting 'orthorhombic'
loop_
_space_group_symop_operation_xyz
x,y,z
1/4-x,1/4-y,z
x,1/4-y,1/4-z
1/4-x,y,1/4-z
-x,-y,-z
3/4+x,3/4+y,-z
-x,3/4+y,3/4+z
3/4+x,-y,3/4+z
x,1/2+y,1/2+z
1/4-x,3/4-y,1/2+z
x,3/4-y,3/4-z
1/4-x,1/2+y,3/4-z
-x,1/2-y,1/2-z
3/4+x,1/4+y,1/2-z
-x,1/4+y,1/4+z
3/4+x,1/2-y,1/4+z
1/2+x,y,1/2+z
3/4-x,1/4-y,1/2+z
1/2+x,1/4-y,3/4-z
3/4-x,y,3/4-z
1/2-x,-y,1/2-z
1/4+x,3/4+y,1/2-z
1/2-x,3/4+y,1/4+z
1/4+x,-y,1/4+z
1/2+x,1/2+y,z
3/4-x,3/4-y,z
1/2+x,3/4-y,1/4-z
3/4-x,1/2+y,1/4-z
1/2-x,1/2-y,-z
1/4+x,1/4+y,-z
1/2-x,1/4+y,3/4+z
1/4+x,1/2-y,3/4+z
loop_
_atom_site_type_symbol
_atom_site_label
_atom_site_fract_x
_atom_site_fract_y
_atom_site_fract_z
Si Si1 0.125000 0.625000 0.403700
Si Si2 0.603228 0.716273 0.280724
Si Si3 0.408771 0.119887 0.075989
Si Si4 0.987307 0.321586 0.301093
Si Si5 0.723501 0.309629 0.117967
Si Si6 0.773179 0.982303 0.295668
Si Si7 0.625000 0.125000 0.625000
Si Si8 0.019431 0.224485 0.558732
O O1 0.095532 0.574357 0.431025
O O2 0.208130 0.609152 0.374094
O O3 0.580059 0.680409 0.239116
O O4 0.533052 0.762036 0.297187
O O5 0.704779 0.742480 0.275492
O O6 0.382280 0.125000 0.125000
O O7 0.316818 0.132131 0.048826
O O8 0.452088 0.062097 0.063511
O O9 0.484406 0.164028 0.065750
O O10 0.932281 0.333964 0.344407
O O11 0.625000 0.336069 0.125000
O O12 0.737166 0.288004 0.071352
O O13 0.735261 0.257268 0.147912
O O14 0.878048 0.964069 0.294259
O O15 0.750000 0.000000 0.250000
#
# Coordination Sequence:
#
# PCOD8285906 Si02
#       8
#    16  32  32  32  32  32   8  32
#     4  10  19  36  62  77 110 160 195 236 300 349
#     4   9  20  40  60  84 117 157 205 246 291 365
#     4  11  20  37  64  88 118 157 197 249 300 365
#     4  10  22  37  59  91 121 154 203 249 302 358
#     4   9  19  36  57  81 110 149 198 236 286 366
#     4  11  23  36  57  91 123 147 191 254 306 351
#     4  12  22  36  60  92 122 156 200 260 312 348
#     4   9  19  38  62  84 109 159 202 237 298 363
#
# _framework density 18.880701999999999
#
# number of rings (size 3 to 8) (size 9 to 14) (size 15 to 20)
#    0.000    2.074    2.222    0.889    0.000    5.333 
#    4.000    0.000    0.000    0.000    0.000    0.000 
#    0.000    0.000    0.000    0.000    0.000    0.000 
#
# Total GULP energy -669019.116096 kJ/mol
# GULP energy per Si atom -12389.242891 kJ/mol
# Density = 1.883773 g / cm^3
# Si number density = 18.880702 Si / 1000 Ang^3
#
#
#
# Elastic Constant Matrix: (Units=GPa)
#
#
# Indices 1 2 3 4 5 6 
#
# 1 118.9048 45.8268 54.1055 0.0000 0.0000 0.0000
# 2 45.8268 71.2139 32.8816 0.0000 0.0000 0.0000
# 3 54.1055 32.8816 107.7127 0.0000 0.0000 0.0000
# 4 0.0000 0.0000 0.0000 33.6322 0.0000 0.0000
# 5 0.0000 0.0000 0.0000 0.0000 28.0860 0.0000
# 6 0.0000 0.0000 0.0000 0.0000 0.0000 132.3219
#
#
#
# Elastic Compliance Matrix: (Units=1/GPa)
#
#
# Indices 1 2 3 4 5 6 
#
# 1 0.012873 -0.006167 -0.004583 0.000000 0.000000 0.000000
# 2 -0.006167 0.019301 -0.002794 0.000000 0.000000 0.000000
# 3 -0.004583 -0.002794 0.012439 0.000000 0.000000 0.000000
# 4 0.000000 0.000000 0.000000 0.029733 0.000000 0.000000
# 5 0.000000 0.000000 0.000000 0.000000 0.035605 0.000000
# 6 0.000000 0.000000 0.000000 0.000000 0.000000 0.007557
#
#
# Mechanical properties :
#
#
# Convention : Reuss Voigt Hill
#
# Bulk Modulus (GPa) = 57.06716 62.60656 59.83686
# Shear Modulus (GPa) = 33.23598 49.80918 41.52258
#
# Velocity S-wave (km/s) = 4.20016 5.14182 4.69466
# Velocity P-wave (km/s) = 7.33570 8.27539 7.81967
#
# Compressibility (1/GPa) = 0.01752321
#
# Stress axis : x y z
#
# Youngs Moduli (GPa) = 77.68430 51.81055 80.39098
#
# Poissons Ratio (x) = 0.31953 0.36846
# Poissons Ratio (y) = 0.47911 0.22462
# Poissons Ratio (z) = 0.35606 0.14476
#
# Static dielectric constant tensor:
#      x y z
#    x 3.760430 0.000000 0.000000 
#    y 0.000000 3.475810 0.000000 
#    z 0.000000 0.000000 3.385210 
# 
# 
# High freq. dielectric constant tensor:
#      x y z
#    x 1.749700 0.000000 0.000000 
#    y 0.000000 1.729520 0.000000 
#    z 0.000000 0.000000 1.722490 
# 
# From -- ./inp_files/51634.got.cif
#   From: 2010.03.12/outbox.cif.g09.slc.cpg/sg70_26_cif.got.tgz:51634.got - 2010.04.16 13:46:32.
