data_PCOD8285377
_publ_section_title
;
Structure prediction by ZEFSAII (Michael W. Deem and Ramdas Pophale) SiO2 
 PCOD8285377
Probable space group: F M M M
;
_chemical_formula_sum "Si O2"
_cell_formula_units_Z 176
_cell_length_a 26.758018
_cell_length_b 27.248598
_cell_length_c 13.259506
_cell_angle_alpha 90.000000
_cell_angle_beta 90.000000
_cell_angle_gamma 90.000000
_cell_volume 9667.750804
_symmetry_space_group_name_H-M "F M M M"
_symmetry_group_IT_number 69
_symmetry_cell_setting 'orthorhombic'
loop_
_space_group_symop_operation_xyz
x,y,z
-x,-y,z
x,-y,-z
-x,y,-z
-x,-y,-z
x,y,-z
-x,y,z
x,-y,z
x,1/2+y,1/2+z
-x,1/2-y,1/2+z
x,1/2-y,1/2-z
-x,1/2+y,1/2-z
-x,1/2-y,1/2-z
x,1/2+y,1/2-z
-x,1/2+y,1/2+z
x,1/2-y,1/2+z
1/2+x,y,1/2+z
1/2-x,-y,1/2+z
1/2+x,-y,1/2-z
1/2-x,y,1/2-z
1/2-x,-y,1/2-z
1/2+x,y,1/2-z
1/2-x,y,1/2+z
1/2+x,-y,1/2+z
1/2+x,1/2+y,z
1/2-x,1/2-y,z
1/2+x,1/2-y,-z
1/2-x,1/2+y,-z
1/2-x,1/2-y,-z
1/2+x,1/2+y,-z
1/2-x,1/2+y,z
1/2+x,1/2-y,z
loop_
_atom_site_type_symbol
_atom_site_label
_atom_site_fract_x
_atom_site_fract_y
_atom_site_fract_z
Si Si1 0.556657 0.558285 0.000000
Si Si2 0.304575 0.869427 0.294480
Si Si3 0.441012 0.614198 0.383944
Si Si4 0.774171 0.329456 0.500000
Si Si5 0.108604 0.557825 0.708321
Si Si6 0.620917 0.203217 0.808922
Si Si7 0.320620 0.224723 0.000000
O O1 0.583240 0.576983 0.103442
O O2 0.556260 0.500000 0.000000
O O3 0.500000 0.578758 0.000000
O O4 0.250000 0.877345 0.250000
O O5 0.296711 0.860217 0.410567
O O6 0.336794 0.918558 0.279933
O O7 0.333412 0.822921 0.248764
O O8 0.421068 0.606643 0.500000
O O9 0.500000 0.614778 0.385642
O O10 0.423309 0.571174 0.308368
O O11 0.422712 0.665471 0.336905
O O12 0.713439 0.325157 0.500000
O O13 0.788561 0.273257 0.500000
O O14 0.115205 0.500000 0.705094
O O15 0.598068 0.250000 0.750000
O O16 0.643339 0.227046 0.906736
#
# Coordination Sequence:
#
# PCOD8285377 Si02
#       7
#    16  32  32  16  32  32  16
#     4   9  17  34  62  88 109 136 178 240 304 355
#     4  11  22  35  54  81 115 155 196 240 284 337
#     4  10  22  39  61  87 116 152 192 240 297 354
#     4  11  21  32  55  84 115 149 194 236 279 334
#     4  10  22  39  60  85 116 152 196 246 300 356
#     4  11  21  36  57  83 117 151 190 232 282 340
#     4  11  20  32  55  82 114 148 188 228 276 333
#
# _framework density 18.204855999999999
#
# number of rings (size 3 to 8) (size 9 to 14) (size 15 to 20)
#    0.000    1.545    4.545    1.091    0.000    2.545 
#    0.000    0.909    0.000    0.000    0.000    0.000 
#    0.000    0.000    0.000    0.000    0.000    0.000 
#
# Total GULP energy -545381.037575 kJ/mol
# GULP energy per Si atom -12395.023581 kJ/mol
# Density = 1.816342 g / cm^3
# Si number density = 18.204856 Si / 1000 Ang^3
#
#
#
# Elastic Constant Matrix: (Units=GPa)
#
#
# Indices 1 2 3 4 5 6 
#
# 1 84.4032 31.7558 39.8294 0.0000 0.0000 0.0000
# 2 31.7558 83.5588 41.1555 0.0000 0.0000 0.0000
# 3 39.8294 41.1555 148.1505 -0.0001 0.0001 0.0000
# 4 0.0000 0.0000 -0.0001 29.6174 0.0000 0.0000
# 5 0.0000 0.0000 0.0001 0.0000 22.9131 0.0000
# 6 0.0000 0.0000 0.0000 0.0000 0.0000 17.9235
#
#
#
# Elastic Compliance Matrix: (Units=1/GPa)
#
#
# Indices 1 2 3 4 5 6 
#
# 1 0.014758 -0.004234 -0.002792 0.000000 0.000000 0.000000
# 2 -0.004234 0.015079 -0.003051 0.000000 0.000000 0.000000
# 3 -0.002792 -0.003051 0.008348 0.000000 0.000000 0.000000
# 4 0.000000 0.000000 0.000000 0.033764 0.000000 0.000000
# 5 0.000000 0.000000 0.000000 0.000000 0.043643 0.000000
# 6 0.000000 0.000000 0.000000 0.000000 0.000000 0.055793
#
#
# Mechanical properties :
#
#
# Convention : Reuss Voigt Hill
#
# Bulk Modulus (GPa) = 55.45336 60.17710 57.81523
# Shear Modulus (GPa) = 25.31032 27.64893 26.47963
#
# Velocity S-wave (km/s) = 3.73273 3.90136 3.81798
# Velocity P-wave (km/s) = 7.00746 7.30900 7.15982
#
# Compressibility (1/GPa) = 0.01803317
#
# Stress axis : x y z
#
# Youngs Moduli (GPa) = 67.75943 66.31656 119.79141
#
# Poissons Ratio (x) = 0.28077 0.33440
# Poissons Ratio (y) = 0.28688 0.36545
# Poissons Ratio (z) = 0.18915 0.20231
#
# Static dielectric constant tensor:
#      x y z
#    x 3.340090 0.000000 0.000000 
#    y 0.000000 3.169720 0.000000 
#    z 0.000000 0.000000 3.497420 
# 
# 
# High freq. dielectric constant tensor:
#      x y z
#    x 1.703450 0.000000 0.000000 
#    y 0.000000 1.688220 0.000000 
#    z 0.000000 0.000000 1.728310 
# 
# From -- ./inp_files/11573.got.cif
#   From: 2010.03.12/outbox.cif.g09.slc.cpg/sg69_6_cif.got.tgz:11573.got - 2010.04.10 23:52:46.
