data_PCOD8285567
_publ_section_title
;
Structure prediction by ZEFSAII (Michael W. Deem and Ramdas Pophale) SiO2 
 PCOD8285567
Probable space group: F M M M
;
_chemical_formula_sum "Si O2"
_cell_formula_units_Z 176
_cell_length_a 27.020173
_cell_length_b 20.184496
_cell_length_c 16.287836
_cell_angle_alpha 90.000000
_cell_angle_beta 90.000000
_cell_angle_gamma 90.000000
_cell_volume 8883.199647
_symmetry_space_group_name_H-M "F M M M"
_symmetry_group_IT_number 69
_symmetry_cell_setting 'orthorhombic'
loop_
_space_group_symop_operation_xyz
x,y,z
-x,-y,z
x,-y,-z
-x,y,-z
-x,-y,-z
x,y,-z
-x,y,z
x,-y,z
x,1/2+y,1/2+z
-x,1/2-y,1/2+z
x,1/2-y,1/2-z
-x,1/2+y,1/2-z
-x,1/2-y,1/2-z
x,1/2+y,1/2-z
-x,1/2+y,1/2+z
x,1/2-y,1/2+z
1/2+x,y,1/2+z
1/2-x,-y,1/2+z
1/2+x,-y,1/2-z
1/2-x,y,1/2-z
1/2-x,-y,1/2-z
1/2+x,y,1/2-z
1/2-x,y,1/2+z
1/2+x,-y,1/2+z
1/2+x,1/2+y,z
1/2-x,1/2-y,z
1/2+x,1/2-y,-z
1/2-x,1/2+y,-z
1/2-x,1/2-y,-z
1/2+x,1/2+y,-z
1/2-x,1/2+y,z
1/2+x,1/2-y,z
loop_
_atom_site_type_symbol
_atom_site_label
_atom_site_fract_x
_atom_site_fract_y
_atom_site_fract_z
Si Si1 0.860072 0.371120 0.821015
Si Si2 0.692983 0.255883 0.407574
Si Si3 0.184839 0.500000 0.903752
Si Si4 0.945811 0.426405 0.095054
Si Si5 0.558568 0.078995 0.500000
Si Si6 0.137024 0.123254 0.131793
Si Si7 0.801801 0.000000 0.092211
O O1 0.829970 0.305808 0.842365
O O2 0.831110 0.435403 0.853195
O O3 0.912699 0.369223 0.866555
O O4 0.875610 0.367805 0.726624
O O5 0.689132 0.284871 0.500000
O O6 0.750000 0.250000 0.381872
O O7 0.664238 0.186732 0.405571
O O8 0.243482 0.500000 0.902826
O O9 0.166071 0.500000 0.000000
O O10 0.922398 0.500000 0.111031
O O11 0.000000 0.423579 0.135619
O O12 0.950574 0.412324 0.000000
O O13 0.500000 0.100527 0.500000
O O14 0.586922 0.107013 0.580776
O O15 0.562259 0.000000 0.500000
O O16 0.176928 0.064976 0.134106
O O17 0.821893 0.000000 0.000000
#
# Coordination Sequence:
#
# PCOD8285567 Si02
#       7
#    32  32  16  32  16  32  16
#     4  12  24  36  61  97 130 162 212 264 317 382
#     4  11  24  43  66  91 129 178 217 256 318 394
#     4  11  23  37  58  92 133 172 203 253 307 381
#     4   9  18  35  59  85 120 163 200 246 307 371
#     4  11  24  46  75  98 122 167 224 273 333 387
#     4  12  23  42  64  92 127 163 211 275 324 371
#     4  11  21  39  63  84 122 169 216 253 308 377
#
# _framework density 19.812681999999999
#
# number of rings (size 3 to 8) (size 9 to 14) (size 15 to 20)
#    0.000    1.000    3.636    4.364    0.000    8.000 
#    0.000    2.727    0.000    2.182    0.000    0.000 
#    0.000    0.000    0.000    0.000    0.000    0.000 
#
# Total GULP energy -545493.966074 kJ/mol
# GULP energy per Si atom -12397.590138 kJ/mol
# Density = 1.976759 g / cm^3
# Si number density = 19.812682 Si / 1000 Ang^3
#
#
#
# Elastic Constant Matrix: (Units=GPa)
#
#
# Indices 1 2 3 4 5 6 
#
# 1 131.6767 50.7771 61.4257 0.0000 0.0000 0.0000
# 2 50.7771 105.8282 37.7139 0.0000 0.0000 0.0000
# 3 61.4257 37.7139 113.6441 0.0000 0.0000 0.0000
# 4 0.0000 0.0000 0.0000 36.7855 0.0000 0.0000
# 5 0.0000 0.0000 0.0000 0.0000 -9.0108 0.0000
# 6 0.0000 0.0000 0.0000 0.0000 0.0000 33.7445
#
#
#
# Elastic Compliance Matrix: (Units=1/GPa)
#
#
# Indices 1 2 3 4 5 6 
#
# 1 0.011290 -0.003677 -0.004882 0.000000 0.000000 0.000000
# 2 -0.003677 0.011914 -0.001966 0.000000 0.000000 0.000000
# 3 -0.004882 -0.001966 0.012091 0.000000 0.000000 0.000000
# 4 0.000000 0.000000 0.000000 0.027185 0.000000 0.000000
# 5 0.000000 0.000000 0.000000 0.000000 -0.110979 0.000000
# 6 0.000000 0.000000 0.000000 0.000000 0.000000 0.029634
#
#
# Mechanical properties :
#
#
# Convention : Reuss Voigt Hill
#
# Bulk Modulus (GPa) = 70.20534 72.33137 71.26836
# Shear Modulus (GPa) = 721.09077 25.71934 373.40506
#
# Velocity S-wave (km/s) = 19.09828 3.60686 13.74325
# Velocity P-wave (km/s) = 22.84376 7.34389 16.96717
#
# Compressibility (1/GPa) = 0.01424393
#
# Stress axis : x y z
#
# Youngs Moduli (GPa) = 88.57654 83.93250 82.70848
#
# Poissons Ratio (x) = 0.30863 0.40377
# Poissons Ratio (y) = 0.32571 0.16264
# Poissons Ratio (z) = 0.43242 0.16504
#
# Static dielectric constant tensor:
#      x y z
#    x 3.841580 0.000000 0.000000 
#    y 0.000000 3.539290 0.000000 
#    z 0.000000 0.000000 3.647940 
# 
# 
# High freq. dielectric constant tensor:
#      x y z
#    x 1.783860 0.000000 0.000000 
#    y 0.000000 1.764300 0.000000 
#    z 0.000000 0.000000 1.775950 
# 
# From -- ./inp_files/26796.got.cif
#   From: 2010.03.12/outbox.cif.g09.slc.cpg/sg69_14_cif.got.tgz:26796.got - 2010.04.10 23:52:46.
