data_PCOD8285588
_publ_section_title
;
Structure prediction by ZEFSAII (Michael W. Deem and Ramdas Pophale) SiO2 
 PCOD8285588
Probable space group: F M M M
;
_chemical_formula_sum "Si O2"
_cell_formula_units_Z 160
_cell_length_a 14.946737
_cell_length_b 21.639615
_cell_length_c 24.818054
_cell_angle_alpha 90.000000
_cell_angle_beta 90.000000
_cell_angle_gamma 90.000000
_cell_volume 8027.191943
_symmetry_space_group_name_H-M "F M M M"
_symmetry_group_IT_number 69
_symmetry_cell_setting 'orthorhombic'
loop_
_space_group_symop_operation_xyz
x,y,z
-x,-y,z
x,-y,-z
-x,y,-z
-x,-y,-z
x,y,-z
-x,y,z
x,-y,z
x,1/2+y,1/2+z
-x,1/2-y,1/2+z
x,1/2-y,1/2-z
-x,1/2+y,1/2-z
-x,1/2-y,1/2-z
x,1/2+y,1/2-z
-x,1/2+y,1/2+z
x,1/2-y,1/2+z
1/2+x,y,1/2+z
1/2-x,-y,1/2+z
1/2+x,-y,1/2-z
1/2-x,y,1/2-z
1/2-x,-y,1/2-z
1/2+x,y,1/2-z
1/2-x,y,1/2+z
1/2+x,-y,1/2+z
1/2+x,1/2+y,z
1/2-x,1/2-y,z
1/2+x,1/2-y,-z
1/2-x,1/2+y,-z
1/2-x,1/2-y,-z
1/2+x,1/2+y,-z
1/2-x,1/2+y,z
1/2+x,1/2-y,z
loop_
_atom_site_type_symbol
_atom_site_label
_atom_site_fract_x
_atom_site_fract_y
_atom_site_fract_z
Si Si1 0.603628 0.927348 0.500000
Si Si2 0.650585 0.619791 0.619269
Si Si3 0.355962 0.242822 0.939548
Si Si4 0.500000 0.926126 0.195585
Si Si5 0.648855 0.367135 0.890277
Si Si6 0.399843 0.000000 0.937120
Si Si7 0.000000 0.572663 0.319805
O O1 0.500000 0.906961 0.500000
O O2 0.653266 0.901852 0.447461
O O3 0.613517 0.000000 0.500000
O O4 0.611936 0.678655 0.586855
O O5 0.589058 0.604555 0.670618
O O6 0.752460 0.634135 0.636448
O O7 0.652640 0.560714 0.580531
O O8 0.250000 0.250000 0.943264
O O9 0.390563 0.298676 0.901797
O O10 0.396564 0.247135 0.000000
O O11 0.500000 0.907786 0.257886
O O12 0.500000 0.000000 0.188177
O O13 0.587912 0.401164 0.847487
O O14 0.500000 0.000000 0.911223
O O15 0.407333 0.000000 0.000000
O O16 0.000000 0.500000 0.328163
#
# Coordination Sequence:
#
# PCOD8285588 Si02
#       7
#    16  32  32  16  32  16  16
#     4  11  22  36  57  87 133 162 195 249 311 365
#     4  11  22  39  64  89 125 160 209 249 310 362
#     4   9  19  37  59  91 131 167 195 238 300 377
#     4  11  24  47  63  85 122 162 210 274 310 352
#     4  11  23  39  62  94 125 162 204 248 304 381
#     4  11  22  36  56  90 128 160 202 255 304 372
#     4  11  26  44  64  88 121 159 215 266 312 359
#
# _framework density 19.932251000000001
#
# number of rings (size 3 to 8) (size 9 to 14) (size 15 to 20)
#    0.000    1.400    4.000    1.200    5.600    1.600 
#    0.000    5.000    0.000    3.600    0.000    0.000 
#    0.000    0.000    0.000    0.000    0.000    0.000 
#
# Total GULP energy -496028.346142 kJ/mol
# GULP energy per Si atom -12400.708654 kJ/mol
# Density = 1.988688 g / cm^3
# Si number density = 19.932251 Si / 1000 Ang^3
#
#
#
# Elastic Constant Matrix: (Units=GPa)
#
#
# Indices 1 2 3 4 5 6 
#
# 1 94.2353 36.8649 53.6285 0.0000 0.0000 0.0000
# 2 36.8649 155.7513 63.5245 0.0000 0.0000 0.0000
# 3 53.6285 63.5245 150.3112 0.0000 0.0000 0.0000
# 4 0.0000 0.0000 0.0000 31.6896 0.0000 0.0000
# 5 0.0000 0.0000 0.0000 0.0000 62.7686 0.0000
# 6 0.0000 0.0000 0.0000 0.0000 0.0000 31.2362
#
#
#
# Elastic Compliance Matrix: (Units=1/GPa)
#
#
# Indices 1 2 3 4 5 6 
#
# 1 0.013599 -0.001498 -0.004219 0.000000 0.000000 0.000000
# 2 -0.001498 0.007923 -0.002814 0.000000 0.000000 0.000000
# 3 -0.004219 -0.002814 0.009347 0.000000 0.000000 0.000000
# 4 0.000000 0.000000 0.000000 0.031556 0.000000 0.000000
# 5 0.000000 0.000000 0.000000 0.000000 0.015932 0.000000
# 6 0.000000 0.000000 0.000000 0.000000 0.000000 0.032014
#
#
# Mechanical properties :
#
#
# Convention : Reuss Voigt Hill
#
# Bulk Modulus (GPa) = 72.42467 78.70374 75.56421
# Shear Modulus (GPa) = 37.86914 41.55754 39.71334
#
# Velocity S-wave (km/s) = 4.36350 4.57107 4.46849
# Velocity P-wave (km/s) = 7.86137 8.21163 8.03841
#
# Compressibility (1/GPa) = 0.01380745
#
# Stress axis : x y z
#
# Youngs Moduli (GPa) = 73.53715 126.21953 106.98420
#
# Poissons Ratio (x) = 0.18908 0.45133
# Poissons Ratio (y) = 0.11016 0.30103
# Poissons Ratio (z) = 0.31023 0.35516
#
# Static dielectric constant tensor:
#      x y z
#    x 3.638110 0.000000 0.000000 
#    y 0.000000 3.973350 0.000000 
#    z 0.000000 0.000000 3.485010 
# 
# 
# High freq. dielectric constant tensor:
#      x y z
#    x 1.778570 0.000000 0.000000 
#    y 0.000000 1.793930 0.000000 
#    z 0.000000 0.000000 1.757260 
# 
# From -- ./inp_files/41966.got.cif
#   From: 2010.03.12/outbox.cif.g09.slc.cpg/sg69_21_cif.got.tgz:41966.got - 2010.04.10 23:52:46.
