data_PCOD8285441
_publ_section_title
;
Structure prediction by ZEFSAII (Michael W. Deem and Ramdas Pophale) SiO2 
 PCOD8285441
Probable space group: F M M M
;
_chemical_formula_sum "Si O2"
_cell_formula_units_Z 160
_cell_length_a 14.313098
_cell_length_b 27.725626
_cell_length_c 19.049331
_cell_angle_alpha 90.000000
_cell_angle_beta 90.000000
_cell_angle_gamma 90.000000
_cell_volume 7559.528933
_symmetry_space_group_name_H-M "F M M M"
_symmetry_group_IT_number 69
_symmetry_cell_setting 'orthorhombic'
loop_
_space_group_symop_operation_xyz
x,y,z
-x,-y,z
x,-y,-z
-x,y,-z
-x,-y,-z
x,y,-z
-x,y,z
x,-y,z
x,1/2+y,1/2+z
-x,1/2-y,1/2+z
x,1/2-y,1/2-z
-x,1/2+y,1/2-z
-x,1/2-y,1/2-z
x,1/2+y,1/2-z
-x,1/2+y,1/2+z
x,1/2-y,1/2+z
1/2+x,y,1/2+z
1/2-x,-y,1/2+z
1/2+x,-y,1/2-z
1/2-x,y,1/2-z
1/2-x,-y,1/2-z
1/2+x,y,1/2-z
1/2-x,y,1/2+z
1/2+x,-y,1/2+z
1/2+x,1/2+y,z
1/2-x,1/2-y,z
1/2+x,1/2-y,-z
1/2-x,1/2+y,-z
1/2-x,1/2-y,-z
1/2+x,1/2+y,-z
1/2-x,1/2+y,z
1/2+x,1/2-y,z
loop_
_atom_site_type_symbol
_atom_site_label
_atom_site_fract_x
_atom_site_fract_y
_atom_site_fract_z
Si Si1 0.111324 0.500000 0.583974
Si Si2 0.685560 0.416728 0.815711
Si Si3 0.677655 0.382918 0.575278
Si Si4 0.000000 0.442938 0.116816
Si Si5 0.348127 0.227920 0.923559
Si Si6 0.500000 0.116192 0.753003
Si Si7 0.000000 0.779324 0.681300
O O1 0.138112 0.500000 0.500000
O O2 0.155114 0.544081 0.626905
O O3 0.000000 0.500000 0.591974
O O4 0.750000 0.436181 0.750000
O O5 0.751645 0.381651 0.859810
O O6 0.594807 0.386178 0.792377
O O7 0.725798 0.395735 0.500000
O O8 0.592932 0.420379 0.583902
O O9 0.640754 0.329192 0.571287
O O10 0.000000 0.432166 0.199967
O O11 0.000000 0.500000 0.103974
O O12 0.250000 0.250000 0.901931
O O13 0.413984 0.242612 0.860917
O O14 0.377209 0.249373 0.000000
O O15 0.500000 0.163158 0.803287
O O16 0.000000 0.750000 0.750000
#
# Coordination Sequence:
#
# PCOD8285441 Si02
#       7
#    16  32  32  16  32  16  16
#     4  11  25  44  64  91 129 179 227 273 327 396
#     4  12  24  42  68  92 133 170 224 278 338 404
#     4  11  24  44  69 100 137 176 226 287 342 404
#     4  12  25  43  71 101 143 182 231 287 342 412
#     4  10  22  44  71  98 134 180 223 271 342 421
#     4  12  26  46  64 101 136 178 229 281 344 415
#     4  12  25  42  69 101 138 174 219 286 351 402
#
# _framework density 21.16534
#
# number of rings (size 3 to 8) (size 9 to 14) (size 15 to 20)
#    0.000    0.700    5.000    1.500    5.600    2.800 
#    0.000    0.000    0.000    0.000    0.000    0.000 
#    0.000    0.000    0.000    0.000    0.000    0.000 
#
# Total GULP energy -495527.938799 kJ/mol
# GULP energy per Si atom -12388.198470 kJ/mol
# Density = 2.111717 g / cm^3
# Si number density = 21.165340 Si / 1000 Ang^3
#
#
#
# Elastic Constant Matrix: (Units=GPa)
#
#
# Indices 1 2 3 4 5 6 
#
# 1 141.9194 38.4773 91.1330 0.0000 0.0000 0.0000
# 2 38.4773 72.5221 28.3427 0.0000 0.0000 0.0000
# 3 91.1330 28.3427 187.8389 0.0000 0.0000 0.0000
# 4 0.0000 0.0000 0.0000 23.5079 0.0000 0.0000
# 5 0.0000 0.0000 0.0000 0.0000 21.5701 0.0000
# 6 0.0000 0.0000 0.0000 0.0000 0.0000 28.4117
#
#
#
# Elastic Compliance Matrix: (Units=1/GPa)
#
#
# Indices 1 2 3 4 5 6 
#
# 1 0.011268 -0.004083 -0.004851 0.000000 0.000000 0.000000
# 2 -0.004083 0.016132 -0.000453 0.000000 0.000000 0.000000
# 3 -0.004851 -0.000453 0.007746 0.000000 0.000000 0.000000
# 4 0.000000 0.000000 0.000000 0.042539 0.000000 0.000000
# 5 0.000000 0.000000 0.000000 0.000000 0.046360 0.000000
# 6 0.000000 0.000000 0.000000 0.000000 0.000000 0.035197
#
#
# Mechanical properties :
#
#
# Convention : Reuss Voigt Hill
#
# Bulk Modulus (GPa) = 61.07962 79.79847 70.43905
# Shear Modulus (GPa) = 27.25196 30.98644 29.11920
#
# Velocity S-wave (km/s) = 3.59217 3.83040 3.71320
# Velocity P-wave (km/s) = 6.79161 7.57277 7.19280
#
# Compressibility (1/GPa) = 0.01637207
#
# Stress axis : x y z
#
# Youngs Moduli (GPa) = 88.74606 61.98799 129.10540
#
# Poissons Ratio (x) = 0.25307 0.62628
# Poissons Ratio (y) = 0.36231 0.05854
# Poissons Ratio (z) = 0.43050 0.02811
#
# Static dielectric constant tensor:
#      x y z
#    x 3.896270 0.000000 0.000000 
#    y 0.000000 0.658330 0.000000 
#    z 0.000000 0.000000 4.433650 
# 
# 
# High freq. dielectric constant tensor:
#      x y z
#    x 1.835520 0.000000 0.000000 
#    y 0.000000 1.810050 0.000000 
#    z 0.000000 0.000000 1.859990 
# 
# From -- ./inp_files/21915.got.cif
#   From: 2010.03.12/outbox.cif.g09.slc.cpg/sg69_11_cif.got.tgz:21915.got - 2010.04.10 23:52:46.
