data_PCOD8285770
_publ_section_title
;
Structure prediction by ZEFSAII (Michael W. Deem and Ramdas Pophale) SiO2 
 PCOD8285770
Probable space group: F D D D
;
_chemical_formula_sum "Si O2"
_cell_formula_units_Z 232
_cell_length_a 27.276867
_cell_length_b 26.565886
_cell_length_c 17.554022
_cell_angle_alpha 90.000000
_cell_angle_beta 90.000000
_cell_angle_gamma 90.000000
_cell_volume 12720.243621
_symmetry_space_group_name_H-M "F D D D"
_symmetry_group_IT_number 70
_space_group.IT_coordinate_system_code '2'
_symmetry_cell_setting 'orthorhombic'
loop_
_space_group_symop_operation_xyz
x,y,z
1/4-x,1/4-y,z
x,1/4-y,1/4-z
1/4-x,y,1/4-z
-x,-y,-z
3/4+x,3/4+y,-z
-x,3/4+y,3/4+z
3/4+x,-y,3/4+z
x,1/2+y,1/2+z
1/4-x,3/4-y,1/2+z
x,3/4-y,3/4-z
1/4-x,1/2+y,3/4-z
-x,1/2-y,1/2-z
3/4+x,1/4+y,1/2-z
-x,1/4+y,1/4+z
3/4+x,1/2-y,1/4+z
1/2+x,y,1/2+z
3/4-x,1/4-y,1/2+z
1/2+x,1/4-y,3/4-z
3/4-x,y,3/4-z
1/2-x,-y,1/2-z
1/4+x,3/4+y,1/2-z
1/2-x,3/4+y,1/4+z
1/4+x,-y,1/4+z
1/2+x,1/2+y,z
3/4-x,3/4-y,z
1/2+x,3/4-y,1/4-z
3/4-x,1/2+y,1/4-z
1/2-x,1/2-y,-z
1/4+x,1/4+y,-z
1/2-x,1/4+y,3/4+z
1/4+x,1/2-y,3/4+z
loop_
_atom_site_type_symbol
_atom_site_label
_atom_site_fract_x
_atom_site_fract_y
_atom_site_fract_z
Si Si1 0.568255 0.009713 0.923550
Si Si2 0.496618 0.929947 0.963760
Si Si3 0.072698 0.690385 0.485434
Si Si4 0.933036 0.761619 0.582262
Si Si5 0.492721 0.315684 0.873942
Si Si6 0.815382 0.324372 0.521922
Si Si7 0.625000 0.125000 0.125000
Si Si8 0.788452 0.927383 0.445644
O O1 0.559956 0.020602 0.833170
O O2 0.626085 0.009857 0.938996
O O3 0.550168 0.956209 0.959563
O O4 0.538414 0.053181 0.967411
O O5 0.474494 0.951797 0.885097
O O6 0.498875 0.869133 0.964974
O O7 0.044046 0.705921 0.561761
O O8 0.130215 0.690797 0.504757
O O9 0.057652 0.633592 0.464363
O O10 0.946171 0.801525 0.646619
O O11 0.963366 0.779586 0.508624
O O12 0.953674 0.707973 0.610748
O O13 0.498746 0.375000 0.875000
O O14 0.471313 0.301402 0.791177
O O15 0.593202 0.093674 0.185327
#
# Coordination Sequence:
#
# PCOD8285770 Si02
#       8
#    32  32  32  32  32  32   8  32
#     4  10  19  32  49  76 101 132 162 208 249 302
#     4   9  19  33  49  71 105 129 164 203 254 292
#     4   9  17  31  53  74  97 124 164 205 255 297
#     4  11  20  31  51  74  99 130 172 202 249 302
#     4  10  20  34  48  70 100 131 162 205 256 299
#     4   9  18  31  51  76  96 122 161 218 251 284
#     4   8  16  28  48  76 104 120 158 216 256 276
#     4  10  18  31  50  74  96 134 164 208 245 298
#
# _framework density 18.238644000000001
#
# number of rings (size 3 to 8) (size 9 to 14) (size 15 to 20)
#    0.000    2.483    0.000    4.138    0.000    3.862 
#    2.483    0.000    0.000    0.000    0.000    0.000 
#    0.000    0.000    0.000    0.000    0.000    0.000 
#
# Total GULP energy -718678.391953 kJ/mol
# GULP energy per Si atom -12391.006758 kJ/mol
# Density = 1.819713 g / cm^3
# Si number density = 18.238644 Si / 1000 Ang^3
#
#
#
# Elastic Constant Matrix: (Units=GPa)
#
#
# Indices 1 2 3 4 5 6 
#
# 1 55.4989 22.1911 29.3178 0.0000 0.0000 0.0000
# 2 22.1911 39.9938 12.7747 0.0000 0.0000 0.0000
# 3 29.3178 12.7747 83.7060 0.0000 0.0000 0.0000
# 4 0.0000 0.0000 0.0000 22.5336 0.0000 0.0000
# 5 0.0000 0.0000 0.0000 0.0000 25.2174 0.0000
# 6 0.0000 0.0000 0.0000 0.0000 0.0000 18.1000
#
#
#
# Elastic Compliance Matrix: (Units=1/GPa)
#
#
# Indices 1 2 3 4 5 6 
#
# 1 0.027042 -0.012593 -0.007549 0.000000 0.000000 0.000000
# 2 -0.012593 0.032150 -0.000496 0.000000 0.000000 0.000000
# 3 -0.007549 -0.000496 0.014666 0.000000 0.000000 0.000000
# 4 0.000000 0.000000 0.000000 0.044378 0.000000 0.000000
# 5 0.000000 0.000000 0.000000 0.000000 0.039655 0.000000
# 6 0.000000 0.000000 0.000000 0.000000 0.000000 0.055249
#
#
# Mechanical properties :
#
#
# Convention : Reuss Voigt Hill
#
# Bulk Modulus (GPa) = 30.69250 34.19621 32.44436
# Shear Modulus (GPa) = 18.84824 20.83120 19.83972
#
# Velocity S-wave (km/s) = 3.21818 3.38323 3.30174
# Velocity P-wave (km/s) = 5.53838 5.83538 5.68882
#
# Compressibility (1/GPa) = 0.03258125
#
# Stress axis : x y z
#
# Youngs Moduli (GPa) = 36.97989 31.10454 68.18298
#
# Poissons Ratio (x) = 0.39170 0.51474
# Poissons Ratio (y) = 0.46569 0.03380
# Poissons Ratio (z) = 0.27918 0.01542
#
# Static dielectric constant tensor:
#      x y z
#    x 3.338380 0.000000 0.000000 
#    y 0.000000 3.243200 0.000000 
#    z 0.000000 0.000000 3.483320 
# 
# 
# High freq. dielectric constant tensor:
#      x y z
#    x 1.692100 0.000000 0.000000 
#    y 0.000000 1.687810 0.000000 
#    z 0.000000 0.000000 1.719470 
# 
# From -- ./inp_files/37843.got.cif
#   From: 2010.03.12/outbox.cif.g09.slc.cpg/sg70_19_cif.got.tgz:37843.got - 2010.04.16 13:46:32.
