data_PCOD8285100
_publ_section_title
;
Structure prediction by ZEFSAII (Michael W. Deem and Ramdas Pophale) SiO2 
 PCOD8285100
Probable space group: F M M M
;
_chemical_formula_sum "Si O2"
_cell_formula_units_Z 144
_cell_length_a 17.112239
_cell_length_b 22.960973
_cell_length_c 17.639507
_cell_angle_alpha 90.000000
_cell_angle_beta 90.000000
_cell_angle_gamma 90.000000
_cell_volume 6930.803214
_symmetry_space_group_name_H-M "F M M M"
_symmetry_group_IT_number 69
_symmetry_cell_setting 'orthorhombic'
loop_
_space_group_symop_operation_xyz
x,y,z
-x,-y,z
x,-y,-z
-x,y,-z
-x,-y,-z
x,y,-z
-x,y,z
x,-y,z
x,1/2+y,1/2+z
-x,1/2-y,1/2+z
x,1/2-y,1/2-z
-x,1/2+y,1/2-z
-x,1/2-y,1/2-z
x,1/2+y,1/2-z
-x,1/2+y,1/2+z
x,1/2-y,1/2+z
1/2+x,y,1/2+z
1/2-x,-y,1/2+z
1/2+x,-y,1/2-z
1/2-x,y,1/2-z
1/2-x,-y,1/2-z
1/2+x,y,1/2-z
1/2-x,y,1/2+z
1/2+x,-y,1/2+z
1/2+x,1/2+y,z
1/2-x,1/2-y,z
1/2+x,1/2-y,-z
1/2-x,1/2+y,-z
1/2-x,1/2-y,-z
1/2+x,1/2+y,-z
1/2-x,1/2+y,z
1/2+x,1/2-y,z
loop_
_atom_site_type_symbol
_atom_site_label
_atom_site_fract_x
_atom_site_fract_y
_atom_site_fract_z
Si Si1 0.840134 0.068190 0.815637
Si Si2 0.168843 0.109656 0.347192
Si Si3 0.587392 0.067890 0.000000
Si Si4 0.910030 0.843213 0.082162
Si Si5 0.088415 0.269540 0.835523
O O1 0.864295 0.076994 0.727702
O O2 0.761613 0.101233 0.841954
O O3 0.904996 0.098769 0.866852
O O4 0.833164 0.000000 0.833412
O O5 0.134699 0.084193 0.424573
O O6 0.147623 0.177347 0.345650
O O7 0.500000 0.096515 0.000000
O O8 0.576931 0.000000 0.000000
O O9 0.874170 0.784584 0.118455
O O10 0.000000 0.829515 0.072297
O O11 0.870570 0.854193 0.000000
O O12 0.084972 0.250000 0.750000
O O13 0.000000 0.286870 0.861840
#
# Coordination Sequence:
#
# PCOD8285100 Si02
#       5
#    32  32  16  32  32
#     4  11  24  43  65  89 126 174 216 261 316 377
#     4  11  23  41  63  93 127 168 212 257 321 386
#     4  11  24  40  62  95 131 169 216 269 321 383
#     4  10  23  42  64  94 126 161 211 265 317 376
#     4  10  20  39  65  91 124 164 207 261 320 375
#
# _framework density 20.776813000000001
#
# number of rings (size 3 to 8) (size 9 to 14) (size 15 to 20)
#    0.000    1.444    2.222    3.333    3.111    2.667 
#    0.000    2.222    0.000    0.000    0.000    0.000 
#    0.000    0.000    0.000    0.000    0.000    0.000 
#
# Total GULP energy -446207.194963 kJ/mol
# GULP energy per Si atom -12394.644305 kJ/mol
# Density = 2.072952 g / cm^3
# Si number density = 20.776813 Si / 1000 Ang^3
#
#
#
# Elastic Constant Matrix: (Units=GPa)
#
#
# Indices 1 2 3 4 5 6 
#
# 1 50.8162 41.4517 46.7526 0.0000 0.0000 0.0000
# 2 41.4517 163.3516 53.9743 0.0000 0.0000 0.0000
# 3 46.7526 53.9743 154.6620 0.0000 0.0000 0.0000
# 4 0.0000 0.0000 0.0000 18.6542 0.0000 0.0000
# 5 0.0000 0.0000 0.0000 0.0000 28.3393 0.0000
# 6 0.0000 0.0000 0.0000 0.0000 0.0000 37.4034
#
#
#
# Elastic Compliance Matrix: (Units=1/GPa)
#
#
# Indices 1 2 3 4 5 6 
#
# 1 0.030949 -0.005383 -0.007477 0.000000 0.000000 0.000000
# 2 -0.005383 0.007856 -0.001114 0.000000 0.000000 0.000000
# 3 -0.007477 -0.001114 0.009115 0.000000 0.000000 0.000000
# 4 0.000000 0.000000 0.000000 0.053607 0.000000 0.000000
# 5 0.000000 0.000000 0.000000 0.000000 0.035287 0.000000
# 6 0.000000 0.000000 0.000000 0.000000 0.000000 0.026736
#
#
# Mechanical properties :
#
#
# Convention : Reuss Voigt Hill
#
# Bulk Modulus (GPa) = 50.07266 72.57633 61.32450
# Shear Modulus (GPa) = 25.23286 31.98947 28.61116
#
# Velocity S-wave (km/s) = 3.48871 3.92812 3.71492
# Velocity P-wave (km/s) = 6.35458 7.45525 6.92681
#
# Compressibility (1/GPa) = 0.01997098
#
# Stress axis : x y z
#
# Youngs Moduli (GPa) = 32.31151 127.29208 109.71179
#
# Poissons Ratio (x) = 0.68521 0.82030
# Poissons Ratio (y) = 0.17393 0.12226
# Poissons Ratio (z) = 0.24159 0.14185
#
# Static dielectric constant tensor:
#      x y z
#    x 3.645540 0.000000 0.000000 
#    y 0.000000 8.965680 0.000000 
#    z 0.000000 0.000000 4.206000 
# 
# 
# High freq. dielectric constant tensor:
#      x y z
#    x 1.795240 0.000000 0.000000 
#    y 0.000000 1.819260 0.000000 
#    z 0.000000 0.000000 1.827750 
# 
# From -- ./inp_files/22837.got.cif
#   From: 2010.03.12/outbox.cif.g09.slc.cpg/sg69_12_cif.got.tgz:22837.got - 2010.04.10 23:52:46.
