data_PCOD8285782
_publ_section_title
;
Structure prediction by ZEFSAII (Michael W. Deem and Ramdas Pophale) SiO2 
 PCOD8285782
Probable space group: F D D D
;
_chemical_formula_sum "Si O2"
_cell_formula_units_Z 176
_cell_length_a 12.477730
_cell_length_b 33.946744
_cell_length_c 22.104782
_cell_angle_alpha 90.000000
_cell_angle_beta 90.000000
_cell_angle_gamma 90.000000
_cell_volume 9363.106114
_symmetry_space_group_name_H-M "F D D D"
_symmetry_group_IT_number 70
_space_group.IT_coordinate_system_code '2'
_symmetry_cell_setting 'orthorhombic'
loop_
_space_group_symop_operation_xyz
x,y,z
1/4-x,1/4-y,z
x,1/4-y,1/4-z
1/4-x,y,1/4-z
-x,-y,-z
3/4+x,3/4+y,-z
-x,3/4+y,3/4+z
3/4+x,-y,3/4+z
x,1/2+y,1/2+z
1/4-x,3/4-y,1/2+z
x,3/4-y,3/4-z
1/4-x,1/2+y,3/4-z
-x,1/2-y,1/2-z
3/4+x,1/4+y,1/2-z
-x,1/4+y,1/4+z
3/4+x,1/2-y,1/4+z
1/2+x,y,1/2+z
3/4-x,1/4-y,1/2+z
1/2+x,1/4-y,3/4-z
3/4-x,y,3/4-z
1/2-x,-y,1/2-z
1/4+x,3/4+y,1/2-z
1/2-x,3/4+y,1/4+z
1/4+x,-y,1/4+z
1/2+x,1/2+y,z
3/4-x,3/4-y,z
1/2+x,3/4-y,1/4-z
3/4-x,1/2+y,1/4-z
1/2-x,1/2-y,-z
1/4+x,1/4+y,-z
1/2-x,1/4+y,3/4+z
1/4+x,1/2-y,3/4+z
loop_
_atom_site_type_symbol
_atom_site_label
_atom_site_fract_x
_atom_site_fract_y
_atom_site_fract_z
Si Si1 0.627210 0.446367 0.294528
Si Si2 0.638350 0.671422 0.054743
Si Si3 0.755711 0.377744 0.802908
Si Si4 0.625000 0.754856 0.625000
Si Si5 0.685356 0.289778 0.929046
Si Si6 0.507301 0.480040 0.738635
O O1 0.750472 0.438306 0.277881
O O2 0.561352 0.407894 0.274610
O O3 0.623748 0.453295 0.365900
O O4 0.576149 0.483549 0.259150
O O5 0.625000 0.625000 0.045985
O O6 0.625000 0.682833 0.125000
O O7 0.546112 0.690964 0.014786
O O8 0.758748 0.375000 0.875000
O O9 0.700553 0.419030 0.785008
O O10 0.875000 0.375000 0.775904
O O11 0.553524 0.727596 0.668633
O O12 0.702848 0.779262 0.669745
O O13 0.611628 0.260984 0.969647
#
# Coordination Sequence:
#
# PCOD8285782 Si02
#       6
#    32  32  32  16  32  32
#     4  10  20  33  54  88 117 146 186 234 299 347
#     4  11  22  37  61  88 112 148 192 248 303 343
#     4   9  16  28  50  81 114 142 180 237 289 337
#     4  10  22  34  55  84 114 160 192 226 290 348
#     4  10  18  33  54  81 115 150 189 239 285 342
#     4  11  21  36  56  79 119 150 191 237 288 355
#
# _framework density 18.797180999999998
#
# number of rings (size 3 to 8) (size 9 to 14) (size 15 to 20)
#    0.000    1.818    1.818    5.455    5.091    0.000 
#    0.000    0.000    0.000    9.818    2.364    0.000 
#    0.000    0.000    0.000    0.000    0.000    0.000 
#
# Total GULP energy -545462.761236 kJ/mol
# GULP energy per Si atom -12396.880937 kJ/mol
# Density = 1.875440 g / cm^3
# Si number density = 18.797181 Si / 1000 Ang^3
#
#
#
# Elastic Constant Matrix: (Units=GPa)
#
#
# Indices 1 2 3 4 5 6 
#
# 1 130.4574 49.9895 38.7062 0.0000 0.0000 0.0000
# 2 49.9895 103.2513 49.1183 0.0000 0.0000 0.0000
# 3 38.7062 49.1183 59.7898 0.0000 0.0000 0.0000
# 4 0.0000 0.0000 0.0000 22.2208 0.0000 0.0000
# 5 0.0000 0.0000 0.0000 0.0000 32.5672 0.0000
# 6 0.0000 0.0000 0.0000 0.0000 0.0000 30.2672
#
#
#
# Elastic Compliance Matrix: (Units=1/GPa)
#
#
# Indices 1 2 3 4 5 6 
#
# 1 0.009986 -0.002888 -0.004092 0.000000 0.000000 0.000000
# 2 -0.002888 0.016734 -0.011877 0.000000 0.000000 0.000000
# 3 -0.004092 -0.011877 0.029132 0.000000 0.000000 0.000000
# 4 0.000000 0.000000 0.000000 0.045003 0.000000 0.000000
# 5 0.000000 0.000000 0.000000 0.000000 0.030706 0.000000
# 6 0.000000 0.000000 0.000000 0.000000 0.000000 0.033039
#
#
# Mechanical properties :
#
#
# Convention : Reuss Voigt Hill
#
# Bulk Modulus (GPa) = 55.13731 63.23627 59.18679
# Shear Modulus (GPa) = 23.99698 27.39002 25.69350
#
# Velocity S-wave (km/s) = 3.57687 3.82138 3.70115
# Velocity P-wave (km/s) = 6.81580 7.29281 7.05833
#
# Compressibility (1/GPa) = 0.01813654
#
# Stress axis : x y z
#
# Youngs Moduli (GPa) = 100.13880 59.75998 34.32686
#
# Poissons Ratio (x) = 0.17260 0.14047
# Poissons Ratio (y) = 0.28922 0.40771
# Poissons Ratio (z) = 0.40977 0.70978
#
# Static dielectric constant tensor:
#      x y z
#    x 3.709540 0.000000 0.000000 
#    y 0.000000 3.445050 0.000000 
#    z 0.000000 0.000000 3.089520 
# 
# 
# High freq. dielectric constant tensor:
#      x y z
#    x 1.756760 0.000000 0.000000 
#    y 0.000000 1.720210 0.000000 
#    z 0.000000 0.000000 1.681500 
# 
# From -- ./inp_files/57616.got.cif
#   From: 2010.03.12/outbox.cif.g09.slc.cpg/sg70_29_cif.got.tgz:57616.got - 2010.04.16 13:46:32.
