data_PCOD8285228
_publ_section_title
;
Structure prediction by ZEFSAII (Michael W. Deem and Ramdas Pophale) SiO2 
 PCOD8285228
Probable space group: F M M M
;
_chemical_formula_sum "Si O2"
_cell_formula_units_Z 176
_cell_length_a 28.076221
_cell_length_b 30.855582
_cell_length_c 10.003199
_cell_angle_alpha 90.000000
_cell_angle_beta 90.000000
_cell_angle_gamma 90.000000
_cell_volume 8665.852713
_symmetry_space_group_name_H-M "F M M M"
_symmetry_group_IT_number 69
_symmetry_cell_setting 'orthorhombic'
loop_
_space_group_symop_operation_xyz
x,y,z
-x,-y,z
x,-y,-z
-x,y,-z
-x,-y,-z
x,y,-z
-x,y,z
x,-y,z
x,1/2+y,1/2+z
-x,1/2-y,1/2+z
x,1/2-y,1/2-z
-x,1/2+y,1/2-z
-x,1/2-y,1/2-z
x,1/2+y,1/2-z
-x,1/2+y,1/2+z
x,1/2-y,1/2+z
1/2+x,y,1/2+z
1/2-x,-y,1/2+z
1/2+x,-y,1/2-z
1/2-x,y,1/2-z
1/2-x,-y,1/2-z
1/2+x,y,1/2-z
1/2-x,y,1/2+z
1/2+x,-y,1/2+z
1/2+x,1/2+y,z
1/2-x,1/2-y,z
1/2+x,1/2-y,-z
1/2-x,1/2+y,-z
1/2-x,1/2-y,-z
1/2+x,1/2+y,-z
1/2-x,1/2+y,z
1/2+x,1/2-y,z
loop_
_atom_site_type_symbol
_atom_site_label
_atom_site_fract_x
_atom_site_fract_y
_atom_site_fract_z
Si Si1 0.395982 0.049301 0.730611
Si Si2 0.053754 0.550910 0.000000
Si Si3 0.793745 0.923423 0.156539
Si Si4 0.551557 0.370905 0.148882
Si Si5 0.107054 0.211237 0.155761
Si Si6 0.209739 0.322616 0.649831
O O1 0.339265 0.051175 0.713839
O O2 0.420900 0.083440 0.633215
O O3 0.412698 0.000000 0.700443
O O4 0.414597 0.065714 0.874617
O O5 0.048177 0.500000 0.000000
O O6 0.000000 0.571237 0.000000
O O7 0.750000 0.938583 0.250000
O O8 0.803365 0.872648 0.175146
O O9 0.784539 0.935189 0.000000
O O10 0.500000 0.376445 0.221697
O O11 0.582420 0.332389 0.214523
O O12 0.542436 0.354805 0.000000
O O13 0.088918 0.250000 0.250000
O O14 0.163420 0.206029 0.173563
O O15 0.094976 0.220726 0.000000
O O16 0.229603 0.316809 0.500000
O O17 0.250000 0.305795 0.750000
#
# Coordination Sequence:
#
# PCOD8285228 Si02
#       6
#    32  16  32  32  32  32
#     4  11  22  38  62  89 123 162 207 256 308 368
#     4   9  20  38  58  84 122 164 203 252 313 369
#     4  10  21  37  59  89 124 165 210 255 307 368
#     4  10  21  39  62  86 117 155 195 249 313 365
#     4  10  21  39  60  86 120 155 193 242 299 359
#     4   9  18  35  57  82 118 155 193 243 298 356
#
# _framework density 20.3096
#
# number of rings (size 3 to 8) (size 9 to 14) (size 15 to 20)
#    0.000    2.091    1.818    1.091    1.273    4.364 
#    1.636    2.727    0.000    0.000    0.000    0.000 
#    0.000    0.000    0.000    0.000    0.000    0.000 
#
# Total GULP energy -545341.371338 kJ/mol
# GULP energy per Si atom -12394.122076 kJ/mol
# Density = 2.026337 g / cm^3
# Si number density = 20.309600 Si / 1000 Ang^3
#
#
#
# Elastic Constant Matrix: (Units=GPa)
#
#
# Indices 1 2 3 4 5 6 
#
# 1 127.7365 45.7411 57.3033 -0.0184 -0.0347 -0.0150
# 2 45.7411 111.5767 31.5516 -0.0029 -0.0147 -0.0041
# 3 57.3033 31.5516 97.3374 -0.0429 -0.0145 -0.0167
# 4 -0.0184 -0.0029 -0.0429 23.1820 -0.0070 -0.0013
# 5 -0.0347 -0.0147 -0.0145 -0.0070 24.5574 0.0560
# 6 -0.0150 -0.0041 -0.0167 -0.0013 0.0560 17.4965
#
#
#
# Elastic Compliance Matrix: (Units=1/GPa)
#
#
# Indices 1 2 3 4 5 6 
#
# 1 0.011531 -0.003091 -0.005787 -0.000002 0.000011 0.000004
# 2 -0.003091 0.010695 -0.001647 -0.000004 0.000001 -0.000002
# 3 -0.005787 -0.001647 0.014214 0.000022 -0.000001 0.000008
# 4 -0.000002 -0.000004 0.000022 0.043137 0.000012 0.000003
# 5 0.000011 0.000001 -0.000001 0.000012 0.040721 -0.000130
# 6 0.000004 -0.000002 0.000008 0.000003 -0.000130 0.057155
#
#
# Mechanical properties :
#
#
# Convention : Reuss Voigt Hill
#
# Bulk Modulus (GPa) = 64.97209 67.31584 66.14396
# Shear Modulus (GPa) = 24.55385 26.51749 25.53567
#
# Velocity S-wave (km/s) = 3.48081 3.61732 3.54972
# Velocity P-wave (km/s) = 6.94370 7.11782 7.03130
#
# Compressibility (1/GPa) = 0.01539122
#
# Stress axis : x y z
#
# Youngs Moduli (GPa) = 86.71968 93.49830 70.35236
#
# Poissons Ratio (x) = 0.28900 0.40711
# Poissons Ratio (y) = 0.26805 0.11588
# Poissons Ratio (z) = 0.50182 0.15401
#
# Static dielectric constant tensor:
#      x y z
#    x 3.823410 0.000010 0.000040 
#    y 0.000010 3.469250 -0.000040 
#    z 0.000040 -0.000040 3.690190 
# 
# 
# High freq. dielectric constant tensor:
#      x y z
#    x 1.797000 0.000000 0.000000 
#    y 0.000000 1.783620 0.000000 
#    z 0.000000 0.000000 1.780840 
# 
# From -- ./inp_files/10628.got.cif
#   From: 2010.03.12/outbox.cif.g09.slc.cpg/sg69_6_cif.got.tgz:10628.got - 2010.04.10 23:52:46.
