data_PCOD8285878
_publ_section_title
;
Structure prediction by ZEFSAII (Michael W. Deem and Ramdas Pophale) SiO2 
 PCOD8285878
Probable space group: F D D D
;
_chemical_formula_sum "Si O2"
_cell_formula_units_Z 192
_cell_length_a 12.963746
_cell_length_b 27.983396
_cell_length_c 24.328261
_cell_angle_alpha 90.000000
_cell_angle_beta 90.000000
_cell_angle_gamma 90.000000
_cell_volume 8825.554435
_symmetry_space_group_name_H-M "F D D D"
_symmetry_group_IT_number 70
_space_group.IT_coordinate_system_code '2'
_symmetry_cell_setting 'orthorhombic'
loop_
_space_group_symop_operation_xyz
x,y,z
1/4-x,1/4-y,z
x,1/4-y,1/4-z
1/4-x,y,1/4-z
-x,-y,-z
3/4+x,3/4+y,-z
-x,3/4+y,3/4+z
3/4+x,-y,3/4+z
x,1/2+y,1/2+z
1/4-x,3/4-y,1/2+z
x,3/4-y,3/4-z
1/4-x,1/2+y,3/4-z
-x,1/2-y,1/2-z
3/4+x,1/4+y,1/2-z
-x,1/4+y,1/4+z
3/4+x,1/2-y,1/4+z
1/2+x,y,1/2+z
3/4-x,1/4-y,1/2+z
1/2+x,1/4-y,3/4-z
3/4-x,y,3/4-z
1/2-x,-y,1/2-z
1/4+x,3/4+y,1/2-z
1/2-x,3/4+y,1/4+z
1/4+x,-y,1/4+z
1/2+x,1/2+y,z
3/4-x,3/4-y,z
1/2+x,3/4-y,1/4-z
3/4-x,1/2+y,1/4-z
1/2-x,1/2-y,-z
1/4+x,1/4+y,-z
1/2-x,1/4+y,3/4+z
1/4+x,1/2-y,3/4+z
loop_
_atom_site_type_symbol
_atom_site_label
_atom_site_fract_x
_atom_site_fract_y
_atom_site_fract_z
Si Si1 0.875000 0.967271 0.375000
Si Si2 0.625000 0.185125 0.625000
Si Si3 0.111701 0.312040 0.246009
Si Si4 0.169943 0.000484 0.824568
Si Si5 0.408380 0.928267 0.757771
Si Si6 0.322318 0.601210 0.571612
Si Si7 0.026691 0.741195 0.827901
O O1 0.837210 0.934959 0.426242
O O2 0.781817 0.000317 0.353055
O O3 0.549442 0.154650 0.585131
O O4 0.694847 0.216695 0.585870
O O5 0.231068 0.313427 0.229334
O O6 0.080532 0.362705 0.271429
O O7 0.104289 0.264732 0.284086
O O8 0.035747 0.304978 0.193811
O O9 0.170994 0.033997 0.770330
O O10 0.088286 0.023044 0.867545
O O11 0.133104 0.947264 0.807589
O O12 0.375000 0.875000 0.743925
O O13 0.377473 0.625000 0.625000
#
# Coordination Sequence:
#
# PCOD8285878 Si02
#       7
#    16  16  32  32  32  32  32
#     4  12  23  46  70 101 126 174 237 290 329 414
#     4  10  19  34  58  93 130 172 219 286 333 384
#     4  11  21  37  65  99 132 178 221 270 342 404
#     4  11  24  45  70  99 136 178 224 290 344 403
#     4  12  26  46  71  97 135 182 227 285 347 412
#     4  11  19  35  61  99 133 172 225 284 332 396
#     4  10  21  39  65  96 140 173 220 274 345 414
#
# _framework density 21.755006999999999
#
# number of rings (size 3 to 8) (size 9 to 14) (size 15 to 20)
#    0.000    1.000    5.000    4.000    0.000    0.000 
#    0.000    3.333    3.667    1.000    0.000    0.000 
#    0.000    0.000    0.000    0.000    0.000    0.000 
#
# Total GULP energy -595139.183422 kJ/mol
# GULP energy per Si atom -12398.732988 kJ/mol
# Density = 2.170549 g / cm^3
# Si number density = 21.755007 Si / 1000 Ang^3
#
#
#
# Elastic Constant Matrix: (Units=GPa)
#
#
# Indices 1 2 3 4 5 6 
#
# 1 130.1618 54.5664 27.5247 0.0000 0.0000 0.0000
# 2 54.5664 125.6363 47.9522 0.0000 0.0000 0.0000
# 3 27.5247 47.9522 71.3809 0.0000 0.0000 0.0000
# 4 0.0000 0.0000 0.0000 66.4276 0.0000 0.0000
# 5 0.0000 0.0000 0.0000 0.0000 23.9154 0.0000
# 6 0.0000 0.0000 0.0000 0.0000 0.0000 21.2091
#
#
#
# Elastic Compliance Matrix: (Units=1/GPa)
#
#
# Indices 1 2 3 4 5 6 
#
# 1 0.009468 -0.003656 -0.001195 0.000000 0.000000 0.000000
# 2 -0.003656 0.012116 -0.006729 0.000000 0.000000 0.000000
# 3 -0.001195 -0.006729 0.018991 0.000000 0.000000 0.000000
# 4 0.000000 0.000000 0.000000 0.015054 0.000000 0.000000
# 5 0.000000 0.000000 0.000000 0.000000 0.041814 0.000000
# 6 0.000000 0.000000 0.000000 0.000000 0.000000 0.047149
#
#
# Mechanical properties :
#
#
# Convention : Reuss Voigt Hill
#
# Bulk Modulus (GPa) = 57.42489 65.25172 61.33830
# Shear Modulus (GPa) = 28.80890 35.45282 32.13086
#
# Velocity S-wave (km/s) = 3.64296 4.04126 3.84727
# Velocity P-wave (km/s) = 6.64442 7.19963 6.92759
#
# Compressibility (1/GPa) = 0.01741405
#
# Stress axis : x y z
#
# Youngs Moduli (GPa) = 105.61726 82.53651 52.65741
#
# Poissons Ratio (x) = 0.30177 0.06291
# Poissons Ratio (y) = 0.38616 0.35435
# Poissons Ratio (z) = 0.12619 0.55542
#
# Static dielectric constant tensor:
#      x y z
#    x 8.730030 0.000000 0.000000 
#    y 0.000000 3.743130 0.000000 
#    z 0.000000 0.000000 3.903240 
# 
# 
# High freq. dielectric constant tensor:
#      x y z
#    x 1.872500 0.000000 0.000000 
#    y 0.000000 1.837450 0.000000 
#    z 0.000000 0.000000 1.841080 
# 
# From -- ./inp_files/57817.got.cif
#   From: 2010.03.12/outbox.cif.g09.slc.cpg/sg70_29_cif.got.tgz:57817.got - 2010.04.16 13:46:32.
