data_PCOD8285398
_publ_section_title
;
Structure prediction by ZEFSAII (Michael W. Deem and Ramdas Pophale) SiO2 
 PCOD8285398
Probable space group: F M M M
;
_chemical_formula_sum "Si O2"
_cell_formula_units_Z 192
_cell_length_a 29.326021
_cell_length_b 17.924752
_cell_length_c 18.382176
_cell_angle_alpha 90.000000
_cell_angle_beta 90.000000
_cell_angle_gamma 90.000000
_cell_volume 9662.805032
_symmetry_space_group_name_H-M "F M M M"
_symmetry_group_IT_number 69
_symmetry_cell_setting 'orthorhombic'
loop_
_space_group_symop_operation_xyz
x,y,z
-x,-y,z
x,-y,-z
-x,y,-z
-x,-y,-z
x,y,-z
-x,y,z
x,-y,z
x,1/2+y,1/2+z
-x,1/2-y,1/2+z
x,1/2-y,1/2-z
-x,1/2+y,1/2-z
-x,1/2-y,1/2-z
x,1/2+y,1/2-z
-x,1/2+y,1/2+z
x,1/2-y,1/2+z
1/2+x,y,1/2+z
1/2-x,-y,1/2+z
1/2+x,-y,1/2-z
1/2-x,y,1/2-z
1/2-x,-y,1/2-z
1/2+x,y,1/2-z
1/2-x,y,1/2+z
1/2+x,-y,1/2+z
1/2+x,1/2+y,z
1/2-x,1/2-y,z
1/2+x,1/2-y,-z
1/2-x,1/2+y,-z
1/2-x,1/2-y,-z
1/2+x,1/2+y,-z
1/2-x,1/2+y,z
1/2+x,1/2-y,z
loop_
_atom_site_type_symbol
_atom_site_label
_atom_site_fract_x
_atom_site_fract_y
_atom_site_fract_z
Si Si1 0.000000 0.643377 0.412658
Si Si2 0.574060 0.584037 0.347012
Si Si3 0.759903 0.834293 0.077980
Si Si4 0.418536 0.915111 0.318812
Si Si5 0.329684 0.830101 0.291261
Si Si6 0.679391 0.585985 0.347875
Si Si7 0.500000 0.686242 0.414819
O O1 0.044380 0.603454 0.379903
O O2 0.000000 0.729087 0.385999
O O3 0.000000 0.634537 0.500000
O O4 0.563497 0.500000 0.374672
O O5 0.560754 0.589732 0.262169
O O6 0.626495 0.604640 0.363487
O O7 0.545061 0.644235 0.389595
O O8 0.750000 0.750000 0.063441
O O9 0.796424 0.838036 0.141277
O O10 0.711885 0.872433 0.096396
O O11 0.777394 0.868181 0.000000
O O12 0.378568 0.853843 0.323209
O O13 0.400448 0.000000 0.331729
O O14 0.331116 0.750000 0.250000
O O15 0.310261 0.889641 0.234388
O O16 0.690108 0.500000 0.355395
O O17 0.500000 0.688071 0.500000
#
# Coordination Sequence:
#
# PCOD8285398 Si02
#       7
#    16  32  32  32  32  32  16
#     4  11  26  41  60  92 129 169 208 251 310 373
#     4   9  20  39  62  91 123 159 206 261 314 365
#     4  11  24  40  59  89 128 166 205 252 311 376
#     4  10  23  42  65  92 121 158 208 259 305 360
#     4  11  22  39  67  96 121 161 206 263 315 372
#     4  10  22  40  64  92 125 164 211 263 313 371
#     4  11  24  37  56  90 128 164 206 253 305 372
#
# _framework density 19.870006
#
# number of rings (size 3 to 8) (size 9 to 14) (size 15 to 20)
#    0.000    1.667    1.667    3.000    4.667    7.000 
#    0.000    5.000    0.000    0.000    0.000    0.000 
#    0.000    0.000    0.000    0.000    0.000    0.000 
#
# Total GULP energy -594970.976974 kJ/mol
# GULP energy per Si atom -12395.228687 kJ/mol
# Density = 1.982478 g / cm^3
# Si number density = 19.870006 Si / 1000 Ang^3
#
#
#
# Elastic Constant Matrix: (Units=GPa)
#
#
# Indices 1 2 3 4 5 6 
#
# 1 104.4677 60.9718 62.8348 0.0000 0.0000 0.0000
# 2 60.9718 106.6575 43.9512 0.0000 0.0000 0.0000
# 3 62.8348 43.9512 92.5324 0.0000 0.0000 0.0000
# 4 0.0000 0.0000 0.0000 30.2538 0.0000 0.0000
# 5 0.0000 0.0000 0.0000 0.0000 -33.1343 0.0000
# 6 0.0000 0.0000 0.0000 0.0000 0.0000 42.6111
#
#
#
# Elastic Compliance Matrix: (Units=1/GPa)
#
#
# Indices 1 2 3 4 5 6 
#
# 1 0.019800 -0.007185 -0.010033 0.000000 0.000000 0.000000
# 2 -0.007185 0.014265 -0.001897 0.000000 0.000000 0.000000
# 3 -0.010033 -0.001897 0.018521 0.000000 0.000000 0.000000
# 4 0.000000 0.000000 0.000000 0.033054 0.000000 0.000000
# 5 0.000000 0.000000 0.000000 0.000000 -0.030180 0.000000
# 6 0.000000 0.000000 0.000000 0.000000 0.000000 0.023468
#
#
# Mechanical properties :
#
#
# Convention : Reuss Voigt Hill
#
# Bulk Modulus (GPa) = 69.65135 71.01925 70.33530
# Shear Modulus (GPa) = 41.00347 17.00609 29.00478
#
# Velocity S-wave (km/s) = 4.54760 2.92869 3.82478
# Velocity P-wave (km/s) = 7.91857 6.87429 7.41484
#
# Compressibility (1/GPa) = 0.01435722
#
# Stress axis : x y z
#
# Youngs Moduli (GPa) = 50.50481 70.10403 53.99341
#
# Poissons Ratio (x) = 0.50367 0.54171
# Poissons Ratio (y) = 0.36286 0.10241
# Poissons Ratio (z) = 0.50671 0.13296
#
# Static dielectric constant tensor:
#      x y z
#    x 3.579520 0.000000 0.000000 
#    y 0.000000 3.861730 0.000000 
#    z 0.000000 0.000000 4.157690 
# 
# 
# High freq. dielectric constant tensor:
#      x y z
#    x 1.774780 0.000000 0.000000 
#    y 0.000000 1.786730 0.000000 
#    z 0.000000 0.000000 1.774480 
# 
# From -- ./inp_files/27803.got.cif
#   From: 2010.03.12/outbox.cif.g09.slc.cpg/sg69_14_cif.got.tgz:27803.got - 2010.04.10 23:52:46.
