data_PCOD8285134
_publ_section_title
;
Structure prediction by ZEFSAII (Michael W. Deem and Ramdas Pophale) SiO2 
 PCOD8285134
Probable space group: F M M M
;
_chemical_formula_sum "Si O2"
_cell_formula_units_Z 144
_cell_length_a 18.387009
_cell_length_b 20.006968
_cell_length_c 21.841604
_cell_angle_alpha 90.000000
_cell_angle_beta 90.000000
_cell_angle_gamma 90.000000
_cell_volume 8034.833748
_symmetry_space_group_name_H-M "F M M M"
_symmetry_group_IT_number 69
_symmetry_cell_setting 'orthorhombic'
loop_
_space_group_symop_operation_xyz
x,y,z
-x,-y,z
x,-y,-z
-x,y,-z
-x,-y,-z
x,y,-z
-x,y,z
x,-y,z
x,1/2+y,1/2+z
-x,1/2-y,1/2+z
x,1/2-y,1/2-z
-x,1/2+y,1/2-z
-x,1/2-y,1/2-z
x,1/2+y,1/2-z
-x,1/2+y,1/2+z
x,1/2-y,1/2+z
1/2+x,y,1/2+z
1/2-x,-y,1/2+z
1/2+x,-y,1/2-z
1/2-x,y,1/2-z
1/2-x,-y,1/2-z
1/2+x,y,1/2-z
1/2-x,y,1/2+z
1/2+x,-y,1/2+z
1/2+x,1/2+y,z
1/2-x,1/2-y,z
1/2+x,1/2-y,-z
1/2-x,1/2+y,-z
1/2-x,1/2-y,-z
1/2+x,1/2+y,-z
1/2-x,1/2+y,z
1/2+x,1/2-y,z
loop_
_atom_site_type_symbol
_atom_site_label
_atom_site_fract_x
_atom_site_fract_y
_atom_site_fract_z
Si Si1 0.288413 0.320850 0.070801
Si Si2 0.916803 0.149935 0.715856
Si Si3 0.078642 0.000000 0.429630
Si Si4 0.581878 0.210697 0.346234
Si Si5 0.811263 0.926064 0.638266
O O1 0.250000 0.250000 0.077228
O O2 0.368948 0.313077 0.097510
O O3 0.248262 0.375877 0.112093
O O4 0.292090 0.344121 0.000000
O O5 0.900484 0.168867 0.785546
O O6 0.906512 0.211819 0.669687
O O7 0.852789 0.097985 0.699582
O O8 0.000000 0.122534 0.710036
O O9 0.123662 0.066443 0.411455
O O10 0.064771 0.000000 0.500000
O O11 0.000000 0.000000 0.396239
O O12 0.500000 0.197643 0.368012
O O13 0.776367 0.000000 0.650966
#
# Coordination Sequence:
#
# PCOD8285134 Si02
#       5
#    32  32  16  32  32
#     4  11  22  37  55  80 114 151 192 236 277 326
#     4   9  17  34  57  83 114 145 182 227 282 339
#     4   9  18  32  52  79 113 153 184 213 273 345
#     4   9  19  36  58  81 108 148 189 230 278 329
#     4  10  21  34  55  83 113 149 181 226 284 337
#
# _framework density 17.921963000000002
#
# number of rings (size 3 to 8) (size 9 to 14) (size 15 to 20)
#    0.667    1.667    2.222    2.667    0.000    1.333 
#    0.000    2.222    0.000    2.000    0.000    1.556 
#    0.000    0.000    0.000    0.000    0.000    0.000 
#
# Total GULP energy -446065.427327 kJ/mol
# GULP energy per Si atom -12390.706315 kJ/mol
# Density = 1.788117 g / cm^3
# Si number density = 17.921963 Si / 1000 Ang^3
#
#
#
# Elastic Constant Matrix: (Units=GPa)
#
#
# Indices 1 2 3 4 5 6 
#
# 1 95.4078 33.7008 39.6870 0.0000 0.0000 0.0000
# 2 33.7008 84.3853 28.3500 0.0000 0.0000 0.0000
# 3 39.6870 28.3500 60.2766 0.0000 0.0000 0.0000
# 4 0.0000 0.0000 0.0000 23.2255 0.0000 0.0000
# 5 0.0000 0.0000 0.0000 0.0000 18.2697 0.0000
# 6 0.0000 0.0000 0.0000 0.0000 0.0000 54.7076
#
#
#
# Elastic Compliance Matrix: (Units=1/GPa)
#
#
# Indices 1 2 3 4 5 6 
#
# 1 0.015130 -0.003201 -0.008456 0.000000 0.000000 0.000000
# 2 -0.003201 0.014752 -0.004830 0.000000 0.000000 0.000000
# 3 -0.008456 -0.004830 0.024429 0.000000 0.000000 0.000000
# 4 0.000000 0.000000 0.000000 0.043056 0.000000 0.000000
# 5 0.000000 0.000000 0.000000 0.000000 0.054736 0.000000
# 6 0.000000 0.000000 0.000000 0.000000 0.000000 0.018279
#
#
# Mechanical properties :
#
#
# Convention : Reuss Voigt Hill
#
# Bulk Modulus (GPa) = 46.86995 49.28281 48.07638
# Shear Modulus (GPa) = 23.75653 28.46268 26.10960
#
# Velocity S-wave (km/s) = 3.64477 3.98948 3.82101
# Velocity P-wave (km/s) = 6.62732 6.98423 6.80812
#
# Compressibility (1/GPa) = 0.02133563
#
# Stress axis : x y z
#
# Youngs Moduli (GPa) = 66.09586 67.78852 40.93415
#
# Poissons Ratio (x) = 0.21702 0.34613
# Poissons Ratio (y) = 0.21160 0.19773
# Poissons Ratio (z) = 0.55889 0.32744
#
# Static dielectric constant tensor:
#      x y z
#    x 3.283240 0.000000 0.000000 
#    y 0.000000 3.727230 0.000000 
#    z 0.000000 0.000000 3.134990 
# 
# 
# High freq. dielectric constant tensor:
#      x y z
#    x 1.694690 0.000000 0.000000 
#    y 0.000000 1.677260 0.000000 
#    z 0.000000 0.000000 1.683730 
# 
# From -- ./inp_files/30731.got.cif
#   From: 2010.03.12/outbox.cif.g09.slc.cpg/sg69_16_cif.got.tgz:30731.got - 2010.04.10 23:52:46.
