data_PCOD8285618
_publ_section_title
;
Structure prediction by ZEFSAII (Michael W. Deem and Ramdas Pophale) SiO2 
 PCOD8285618
Probable space group: F M M M
;
_chemical_formula_sum "Si O2"
_cell_formula_units_Z 104
_cell_length_a 14.374019
_cell_length_b 30.462842
_cell_length_c 12.027849
_cell_angle_alpha 90.000000
_cell_angle_beta 90.000000
_cell_angle_gamma 90.000000
_cell_volume 5266.675975
_symmetry_space_group_name_H-M "F M M M"
_symmetry_group_IT_number 69
_symmetry_cell_setting 'orthorhombic'
loop_
_space_group_symop_operation_xyz
x,y,z
-x,-y,z
x,-y,-z
-x,y,-z
-x,-y,-z
x,y,-z
-x,y,z
x,-y,z
x,1/2+y,1/2+z
-x,1/2-y,1/2+z
x,1/2-y,1/2-z
-x,1/2+y,1/2-z
-x,1/2-y,1/2-z
x,1/2+y,1/2-z
-x,1/2+y,1/2+z
x,1/2-y,1/2+z
1/2+x,y,1/2+z
1/2-x,-y,1/2+z
1/2+x,-y,1/2-z
1/2-x,y,1/2-z
1/2-x,-y,1/2-z
1/2+x,y,1/2-z
1/2-x,y,1/2+z
1/2+x,-y,1/2+z
1/2+x,1/2+y,z
1/2-x,1/2-y,z
1/2+x,1/2-y,-z
1/2-x,1/2+y,-z
1/2-x,1/2-y,-z
1/2+x,1/2+y,-z
1/2-x,1/2+y,z
1/2+x,1/2-y,z
loop_
_atom_site_type_symbol
_atom_site_label
_atom_site_fract_x
_atom_site_fract_y
_atom_site_fract_z
Si Si1 0.000000 0.551895 0.369186
Si Si2 0.353772 0.901393 0.782020
Si Si3 0.250000 0.750000 0.750000
Si Si4 0.105256 0.051584 0.500000
Si Si5 0.102817 0.690132 0.872111
O O1 0.908279 0.573018 0.314891
O O2 0.000000 0.500000 0.345317
O O3 0.000000 0.562178 0.500000
O O4 0.250000 0.890012 0.750000
O O5 0.345056 0.931476 0.890280
O O6 0.403314 0.855366 0.805654
O O7 0.183692 0.721207 0.827429
O O8 0.000000 0.069209 0.500000
O O9 0.110343 0.000000 0.500000
O O10 0.000000 0.712332 0.860790
O O11 0.126161 0.679753 0.000000
#
# Coordination Sequence:
#
# PCOD8285618 Si02
#       5
#    16  32   8  16  32
#     4  11  26  45  63  94 139 179 217 270 333 388
#     4  12  24  42  67  96 131 173 222 271 326 389
#     4  12  24  44  68 100 130 168 212 268 340 408
#     4  11  22  40  68  96 125 171 227 276 322 385
#     4  11  23  43  69  97 129 167 214 270 331 390
#
# _framework density 19.746798999999999
#
# number of rings (size 3 to 8) (size 9 to 14) (size 15 to 20)
#    0.000    0.615    6.154    1.846    2.154    2.462 
#    0.000    0.000    0.000    0.000    0.000    0.000 
#    0.000    0.000    0.000    0.000    0.000    0.000 
#
# Total GULP energy -322451.701232 kJ/mol
# GULP energy per Si atom -12401.988509 kJ/mol
# Density = 1.970185 g / cm^3
# Si number density = 19.746799 Si / 1000 Ang^3
#
#
#
# Elastic Constant Matrix: (Units=GPa)
#
#
# Indices 1 2 3 4 5 6 
#
# 1 135.0781 47.1778 55.5977 0.0000 0.0000 0.0000
# 2 47.1778 104.5242 56.2666 0.0000 0.0000 0.0000
# 3 55.5977 56.2666 139.4444 0.0000 0.0000 0.0000
# 4 0.0000 0.0000 0.0000 36.5045 0.0000 0.0000
# 5 0.0000 0.0000 0.0000 0.0000 27.2824 0.0000
# 6 0.0000 0.0000 0.0000 0.0000 0.0000 38.0690
#
#
#
# Elastic Compliance Matrix: (Units=1/GPa)
#
#
# Indices 1 2 3 4 5 6 
#
# 1 0.009485 -0.002868 -0.002624 0.000000 0.000000 0.000000
# 2 -0.002868 0.013089 -0.004138 0.000000 0.000000 0.000000
# 3 -0.002624 -0.004138 0.009887 0.000000 0.000000 0.000000
# 4 0.000000 0.000000 0.000000 0.027394 0.000000 0.000000
# 5 0.000000 0.000000 0.000000 0.000000 0.036654 0.000000
# 6 0.000000 0.000000 0.000000 0.000000 0.000000 0.026268
#
#
# Mechanical properties :
#
#
# Convention : Reuss Voigt Hill
#
# Bulk Modulus (GPa) = 75.75580 77.45900 76.60740
# Shear Modulus (GPa) = 34.14385 35.03815 34.59100
#
# Velocity S-wave (km/s) = 4.16274 4.21690 4.18990
# Velocity P-wave (km/s) = 7.84547 7.93857 7.89216
#
# Compressibility (1/GPa) = 0.01320031
#
# Stress axis : x y z
#
# Youngs Moduli (GPa) = 105.42789 76.39787 101.13919
#
# Poissons Ratio (x) = 0.21914 0.26543
# Poissons Ratio (y) = 0.30242 0.41851
# Poissons Ratio (z) = 0.27668 0.31613
#
# Static dielectric constant tensor:
#      x y z
#    x 3.712940 0.000000 0.000000 
#    y 0.000000 3.591440 0.000000 
#    z 0.000000 0.000000 3.567400 
# 
# 
# High freq. dielectric constant tensor:
#      x y z
#    x 1.781760 0.000000 0.000000 
#    y 0.000000 1.773820 0.000000 
#    z 0.000000 0.000000 1.777430 
# 
# From -- ./inp_files/7443.got.cif
#   From: 2010.03.12/outbox.cif.g09.slc.cpg/sg69_4_cif.got.tgz:7443.got - 2010.04.10 23:52:46.
