data_PCOD8285188
_publ_section_title
;
Structure prediction by ZEFSAII (Michael W. Deem and Ramdas Pophale) SiO2 
 PCOD8285188
Probable space group: F M M M
;
_chemical_formula_sum "Si O2"
_cell_formula_units_Z 224
_cell_length_a 33.598215
_cell_length_b 20.277257
_cell_length_c 17.722360
_cell_angle_alpha 90.000000
_cell_angle_beta 90.000000
_cell_angle_gamma 90.000000
_cell_volume 12073.883046
_symmetry_space_group_name_H-M "F M M M"
_symmetry_group_IT_number 69
_symmetry_cell_setting 'orthorhombic'
loop_
_space_group_symop_operation_xyz
x,y,z
-x,-y,z
x,-y,-z
-x,y,-z
-x,-y,-z
x,y,-z
-x,y,z
x,-y,z
x,1/2+y,1/2+z
-x,1/2-y,1/2+z
x,1/2-y,1/2-z
-x,1/2+y,1/2-z
-x,1/2-y,1/2-z
x,1/2+y,1/2-z
-x,1/2+y,1/2+z
x,1/2-y,1/2+z
1/2+x,y,1/2+z
1/2-x,-y,1/2+z
1/2+x,-y,1/2-z
1/2-x,y,1/2-z
1/2-x,-y,1/2-z
1/2+x,y,1/2-z
1/2-x,y,1/2+z
1/2+x,-y,1/2+z
1/2+x,1/2+y,z
1/2-x,1/2-y,z
1/2+x,1/2-y,-z
1/2-x,1/2+y,-z
1/2-x,1/2-y,-z
1/2+x,1/2+y,-z
1/2-x,1/2+y,z
1/2+x,1/2-y,z
loop_
_atom_site_type_symbol
_atom_site_label
_atom_site_fract_x
_atom_site_fract_y
_atom_site_fract_z
Si Si1 0.146040 0.072177 0.290591
Si Si2 0.233231 0.423945 0.167903
Si Si3 0.920799 0.746256 0.085265
Si Si4 0.222457 0.688006 0.587408
Si Si5 0.586903 0.903492 0.081778
Si Si6 0.500000 0.783107 0.170738
Si Si7 0.855888 0.194058 0.187060
Si Si8 0.500000 0.426601 0.634352
O O1 0.186371 0.092882 0.333684
O O2 0.110548 0.062932 0.350527
O O3 0.135553 0.123827 0.225703
O O4 0.152343 0.000000 0.252527
O O5 0.241867 0.500000 0.147733
O O6 0.250000 0.405428 0.250000
O O7 0.254148 0.379310 0.105064
O O8 0.902433 0.673467 0.086313
O O9 0.892949 0.794826 0.132277
O O10 0.963340 0.742966 0.123338
O O11 0.924693 0.773131 0.000000
O O12 0.209804 0.687928 0.500000
O O13 0.250000 0.750000 0.607039
O O14 0.183799 0.692918 0.638581
O O15 0.539838 0.919494 0.084694
O O16 0.601340 0.930067 0.000000
O O17 0.500000 0.750000 0.250000
O O18 0.500000 0.862256 0.188600
O O19 0.852697 0.250000 0.250000
O O20 0.500000 0.500000 0.673657
#
# Coordination Sequence:
#
# PCOD8285188 Si02
#       8
#    32  32  32  32  32  16  32  16
#     4  11  23  37  58  87 116 152 198 242 288 347
#     4  10  21  40  61  82 112 153 195 237 291 352
#     4  10  21  37  59  85 117 154 193 238 288 344
#     4  11  25  39  58  89 117 145 191 244 295 352
#     4  10  21  37  57  85 122 157 189 233 290 352
#     4  10  21  37  60  86 119 153 197 239 290 355
#     4  12  22  38  61  84 114 156 195 240 289 343
#     4  10  21  36  57  85 117 156 196 236 287 348
#
# _framework density 18.552441000000002
#
# number of rings (size 3 to 8) (size 9 to 14) (size 15 to 20)
#    0.000    1.429    2.857    2.571    2.000    4.000 
#    0.000    1.429    0.000    1.286    0.000    0.000 
#    0.000    1.714    0.000    0.000    0.000    0.000 
#
# Total GULP energy -694292.016921 kJ/mol
# GULP energy per Si atom -12398.071731 kJ/mol
# Density = 1.851022 g / cm^3
# Si number density = 18.552441 Si / 1000 Ang^3
#
#
#
# Elastic Constant Matrix: (Units=GPa)
#
#
# Indices 1 2 3 4 5 6 
#
# 1 119.8616 44.9362 60.7877 0.0000 0.0000 0.0000
# 2 44.9362 118.4396 67.6362 0.0000 0.0000 0.0000
# 3 60.7877 67.6362 124.6596 0.0000 0.0000 0.0000
# 4 0.0000 0.0000 0.0000 -16.5876 0.0000 0.0000
# 5 0.0000 0.0000 0.0000 0.0000 29.0906 0.0000
# 6 0.0000 0.0000 0.0000 0.0000 0.0000 25.6637
#
#
#
# Elastic Compliance Matrix: (Units=1/GPa)
#
#
# Indices 1 2 3 4 5 6 
#
# 1 0.011303 -0.001653 -0.004615 0.000000 0.000000 0.000000
# 2 -0.001653 0.012475 -0.005963 0.000000 0.000000 0.000000
# 3 -0.004615 -0.005963 0.013507 0.000000 0.000000 0.000000
# 4 0.000000 0.000000 0.000000 -0.060286 0.000000 0.000000
# 5 0.000000 0.000000 0.000000 0.000000 0.034375 0.000000
# 6 0.000000 0.000000 0.000000 0.000000 0.000000 0.038966
#
#
# Mechanical properties :
#
#
# Convention : Reuss Voigt Hill
#
# Bulk Modulus (GPa) = 77.97460 78.85345 78.41402
# Shear Modulus (GPa) = 63.23006 20.27340 41.75173
#
# Velocity S-wave (km/s) = 5.84430 3.30928 4.74906
# Velocity P-wave (km/s) = 9.36278 7.56287 8.51054
#
# Compressibility (1/GPa) = 0.01282469
#
# Stress axis : x y z
#
# Youngs Moduli (GPa) = 88.47138 80.15831 74.03416
#
# Poissons Ratio (x) = 0.13251 0.34165
# Poissons Ratio (y) = 0.14625 0.44144
# Poissons Ratio (z) = 0.40828 0.47795
#
# Static dielectric constant tensor:
#      x y z
#    x 3.515570 0.000000 0.000000 
#    y 0.000000 3.590690 0.000000 
#    z 0.000000 0.000000 3.363330 
# 
# 
# High freq. dielectric constant tensor:
#      x y z
#    x 1.731060 0.000000 0.000000 
#    y 0.000000 1.723460 0.000000 
#    z 0.000000 0.000000 1.707490 
# 
# From -- ./inp_files/27997.got.cif
#   From: 2010.03.12/outbox.cif.g09.slc.cpg/sg69_14_cif.got.tgz:27997.got - 2010.04.10 23:52:46.
