data_PCOD8285690
_publ_section_title
;
Structure prediction by ZEFSAII (Michael W. Deem and Ramdas Pophale) SiO2 
 PCOD8285690
Probable space group: F M M M
;
_chemical_formula_sum "Si O2"
_cell_formula_units_Z 112
_cell_length_a 36.629114
_cell_length_b 9.239720
_cell_length_c 19.332252
_cell_angle_alpha 90.000000
_cell_angle_beta 90.000000
_cell_angle_gamma 90.000000
_cell_volume 6542.860670
_symmetry_space_group_name_H-M "F M M M"
_symmetry_group_IT_number 69
_symmetry_cell_setting 'orthorhombic'
loop_
_space_group_symop_operation_xyz
x,y,z
-x,-y,z
x,-y,-z
-x,y,-z
-x,-y,-z
x,y,-z
-x,y,z
x,-y,z
x,1/2+y,1/2+z
-x,1/2-y,1/2+z
x,1/2-y,1/2-z
-x,1/2+y,1/2-z
-x,1/2-y,1/2-z
x,1/2+y,1/2-z
-x,1/2+y,1/2+z
x,1/2-y,1/2+z
1/2+x,y,1/2+z
1/2-x,-y,1/2+z
1/2+x,-y,1/2-z
1/2-x,y,1/2-z
1/2-x,-y,1/2-z
1/2+x,y,1/2-z
1/2-x,y,1/2+z
1/2+x,-y,1/2+z
1/2+x,1/2+y,z
1/2-x,1/2-y,z
1/2+x,1/2-y,-z
1/2-x,1/2+y,-z
1/2-x,1/2-y,-z
1/2+x,1/2+y,-z
1/2-x,1/2+y,z
1/2+x,1/2-y,z
loop_
_atom_site_type_symbol
_atom_site_label
_atom_site_fract_x
_atom_site_fract_y
_atom_site_fract_z
Si Si1 0.643802 0.669252 0.079753
Si Si2 0.421046 0.169330 0.677542
Si Si3 0.784824 0.836361 0.417652
Si Si4 0.500000 0.165813 0.319862
O O1 0.651892 0.500000 0.089775
O O2 0.608896 0.723117 0.122934
O O3 0.678639 0.756689 0.107978
O O4 0.635769 0.705674 0.000000
O O5 0.415741 0.250000 0.750000
O O6 0.461288 0.201828 0.642567
O O7 0.416214 0.000000 0.692342
O O8 0.783351 0.836228 0.500000
O O9 0.750000 0.750000 0.387704
O O10 0.784275 0.000000 0.388825
O O11 0.500000 0.250000 0.250000
O O12 0.500000 0.000000 0.298693
#
# Coordination Sequence:
#
# PCOD8285690 Si02
#       4
#    32  32  32  16
#     4   9  17  29  44  64  91 119 146 179 220 263
#     4   9  17  29  46  66  88 116 149 184 220 259
#     4   9  16  26  42  64  88 115 147 181 216 256
#     4   8  14  26  43  63  85 111 147 184 216 254
#
# _framework density 17.117894
#
# number of rings (size 3 to 8) (size 9 to 14) (size 15 to 20)
#    0.000    3.143    0.000    0.857    0.000    4.571 
#    0.000    0.714    0.000    5.143    0.000    6.000 
#    0.000   16.000    0.000    0.000    0.000    0.000 
#
# Total GULP energy -346918.989191 kJ/mol
# GULP energy per Si atom -12389.963900 kJ/mol
# Density = 1.707893 g / cm^3
# Si number density = 17.117894 Si / 1000 Ang^3
#
#
#
# Elastic Constant Matrix: (Units=GPa)
#
#
# Indices 1 2 3 4 5 6 
#
# 1 208.8112 70.6524 58.0621 0.0000 0.0000 0.0000
# 2 70.6524 69.3719 25.1747 0.0000 0.0000 0.0000
# 3 58.0621 25.1747 43.2005 0.0000 0.0000 0.0000
# 4 0.0000 0.0000 0.0000 15.8666 0.0000 0.0000
# 5 0.0000 0.0000 0.0000 0.0000 17.3649 0.0000
# 6 0.0000 0.0000 0.0000 0.0000 0.0000 27.3282
#
#
#
# Elastic Compliance Matrix: (Units=1/GPa)
#
#
# Indices 1 2 3 4 5 6 
#
# 1 0.009434 -0.006350 -0.008980 0.000000 0.000000 0.000000
# 2 -0.006350 0.022555 -0.004609 0.000000 0.000000 0.000000
# 3 -0.008980 -0.004609 0.037903 0.000000 0.000000 0.000000
# 4 0.000000 0.000000 0.000000 0.063025 0.000000 0.000000
# 5 0.000000 0.000000 0.000000 0.000000 0.057588 0.000000
# 6 0.000000 0.000000 0.000000 0.000000 0.000000 0.036592
#
#
# Mechanical properties :
#
#
# Convention : Reuss Voigt Hill
#
# Bulk Modulus (GPa) = 33.31750 69.90690 51.61220
# Shear Modulus (GPa) = 18.05188 23.27824 20.66506
#
# Velocity S-wave (km/s) = 3.25093 3.69165 3.47828
# Velocity P-wave (km/s) = 5.79631 7.68754 6.80791
#
# Compressibility (1/GPa) = 0.03001426
#
# Stress axis : x y z
#
# Youngs Moduli (GPa) = 105.99485 44.33634 26.38337
#
# Poissons Ratio (x) = 0.28153 0.23691
# Poissons Ratio (y) = 0.67306 0.12161
# Poissons Ratio (z) = 0.95180 0.20436
#
# Static dielectric constant tensor:
#      x y z
#    x 3.864720 0.000000 0.000000 
#    y 0.000000 3.231450 0.000000 
#    z 0.000000 0.000000 2.655970 
# 
# 
# High freq. dielectric constant tensor:
#      x y z
#    x 1.686230 0.000000 0.000000 
#    y 0.000000 1.663300 0.000000 
#    z 0.000000 0.000000 1.597900 
# 
# From -- ./inp_files/3714.got.cif
#   From: 2010.03.12/outbox.cif.g09.slc.cpg/sg69_2_cif.got.tgz:3714.got - 2010.04.10 23:52:46.
