data_PCOD8285455
_publ_section_title
;
Structure prediction by ZEFSAII (Michael W. Deem and Ramdas Pophale) SiO2 
 PCOD8285455
Probable space group: F M M M
;
_chemical_formula_sum "Si O2"
_cell_formula_units_Z 136
_cell_length_a 21.652291
_cell_length_b 17.395265
_cell_length_c 17.381059
_cell_angle_alpha 90.000000
_cell_angle_beta 90.000000
_cell_angle_gamma 90.000000
_cell_volume 6546.529635
_symmetry_space_group_name_H-M "F M M M"
_symmetry_group_IT_number 69
_symmetry_cell_setting 'orthorhombic'
loop_
_space_group_symop_operation_xyz
x,y,z
-x,-y,z
x,-y,-z
-x,y,-z
-x,-y,-z
x,y,-z
-x,y,z
x,-y,z
x,1/2+y,1/2+z
-x,1/2-y,1/2+z
x,1/2-y,1/2-z
-x,1/2+y,1/2-z
-x,1/2-y,1/2-z
x,1/2+y,1/2-z
-x,1/2+y,1/2+z
x,1/2-y,1/2+z
1/2+x,y,1/2+z
1/2-x,-y,1/2+z
1/2+x,-y,1/2-z
1/2-x,y,1/2-z
1/2-x,-y,1/2-z
1/2+x,y,1/2-z
1/2-x,y,1/2+z
1/2+x,-y,1/2+z
1/2+x,1/2+y,z
1/2-x,1/2-y,z
1/2+x,1/2-y,-z
1/2-x,1/2+y,-z
1/2-x,1/2-y,-z
1/2+x,1/2+y,-z
1/2-x,1/2+y,z
1/2+x,1/2-y,z
loop_
_atom_site_type_symbol
_atom_site_label
_atom_site_fract_x
_atom_site_fract_y
_atom_site_fract_z
Si Si1 0.845057 0.088945 0.375746
Si Si2 0.366968 0.911337 0.297998
Si Si3 0.500000 0.086645 0.644743
Si Si4 0.776715 0.667997 0.412494
Si Si5 0.431535 0.841417 0.000000
Si Si6 0.500000 0.194854 0.500000
O O1 0.846714 0.113926 0.286927
O O2 0.777015 0.104753 0.407680
O O3 0.895344 0.136428 0.423123
O O4 0.861185 0.000000 0.386367
O O5 0.440298 0.898818 0.302716
O O6 0.333434 0.856687 0.359095
O O7 0.348696 0.000000 0.314274
O O8 0.500000 0.143036 0.574116
O O9 0.500000 0.000000 0.611996
O O10 0.801093 0.673291 0.500000
O O11 0.750000 0.750000 0.384898
O O12 0.438871 0.748771 0.000000
O O13 0.500000 0.880369 0.000000
#
# Coordination Sequence:
#
# PCOD8285455 Si02
#       6
#    32  32  16  32  16   8
#     4  11  23  43  66  93 129 169 220 267 324 392
#     4  10  24  42  66  97 130 169 218 270 320 386
#     4  10  23  43  68  95 130 177 213 264 324 381
#     4  11  25  41  65  94 132 169 217 268 326 387
#     4  10  25  41  64  96 127 169 211 271 328 376
#     4  10  25  42  63  94 140 162 218 264 311 390
#
# _framework density 20.774365
#
# number of rings (size 3 to 8) (size 9 to 14) (size 15 to 20)
#    0.353    1.176    1.176    1.941    6.588    6.118 
#    0.000    1.176    0.000    0.000    0.000    0.000 
#    0.000    0.000    0.000    0.000    0.000    0.000 
#
# Total GULP energy -421721.500208 kJ/mol
# GULP energy per Si atom -12403.573536 kJ/mol
# Density = 2.072708 g / cm^3
# Si number density = 20.774365 Si / 1000 Ang^3
#
#
#
# Elastic Constant Matrix: (Units=GPa)
#
#
# Indices 1 2 3 4 5 6 
#
# 1 117.5394 32.4623 40.3069 0.0000 0.0000 0.0000
# 2 32.4623 91.2602 53.8289 0.0000 0.0000 0.0000
# 3 40.3069 53.8289 120.2705 0.0000 0.0000 0.0000
# 4 0.0000 0.0000 0.0000 31.4336 0.0000 0.0000
# 5 0.0000 0.0000 0.0000 0.0000 29.9417 0.0000
# 6 0.0000 0.0000 0.0000 0.0000 0.0000 39.5612
#
#
#
# Elastic Compliance Matrix: (Units=1/GPa)
#
#
# Indices 1 2 3 4 5 6 
#
# 1 0.009907 -0.002127 -0.002368 0.000000 0.000000 0.000000
# 2 -0.002127 0.015345 -0.006155 0.000000 0.000000 0.000000
# 3 -0.002368 -0.006155 0.011863 0.000000 0.000000 0.000000
# 4 0.000000 0.000000 0.000000 0.031813 0.000000 0.000000
# 5 0.000000 0.000000 0.000000 0.000000 0.033398 0.000000
# 6 0.000000 0.000000 0.000000 0.000000 0.000000 0.025277
#
#
# Mechanical properties :
#
#
# Convention : Reuss Voigt Hill
#
# Bulk Modulus (GPa) = 63.23353 64.69626 63.96489
# Shear Modulus (GPa) = 32.43046 33.68543 33.05794
#
# Velocity S-wave (km/s) = 3.95534 4.03114 3.99342
# Velocity P-wave (km/s) = 7.16686 7.27164 7.21944
#
# Compressibility (1/GPa) = 0.01581439
#
# Stress axis : x y z
#
# Youngs Moduli (GPa) = 100.93437 65.16883 84.29596
#
# Poissons Ratio (x) = 0.13863 0.19963
# Poissons Ratio (y) = 0.21472 0.51883
# Poissons Ratio (z) = 0.23904 0.40110
#
# Static dielectric constant tensor:
#      x y z
#    x 3.807130 0.000000 0.000000 
#    y 0.000000 3.757930 0.000000 
#    z 0.000000 0.000000 3.809720 
# 
# 
# High freq. dielectric constant tensor:
#      x y z
#    x 1.820100 0.000000 0.000000 
#    y 0.000000 1.815250 0.000000 
#    z 0.000000 0.000000 1.817980 
# 
# From -- ./inp_files/24220.got.cif
#   From: 2010.03.12/outbox.cif.g09.slc.cpg/sg69_13_cif.got.tgz:24220.got - 2010.04.10 23:52:46.
