data_PCOD8285887
_publ_section_title
;
Structure prediction by ZEFSAII (Michael W. Deem and Ramdas Pophale) SiO2 
 PCOD8285887
Probable space group: F D D D
;
_chemical_formula_sum "Si O2"
_cell_formula_units_Z 208
_cell_length_a 16.257149
_cell_length_b 30.118167
_cell_length_c 21.118010
_cell_angle_alpha 90.000000
_cell_angle_beta 90.000000
_cell_angle_gamma 90.000000
_cell_volume 10340.127988
_symmetry_space_group_name_H-M "F D D D"
_symmetry_group_IT_number 70
_space_group.IT_coordinate_system_code '2'
_symmetry_cell_setting 'orthorhombic'
loop_
_space_group_symop_operation_xyz
x,y,z
1/4-x,1/4-y,z
x,1/4-y,1/4-z
1/4-x,y,1/4-z
-x,-y,-z
3/4+x,3/4+y,-z
-x,3/4+y,3/4+z
3/4+x,-y,3/4+z
x,1/2+y,1/2+z
1/4-x,3/4-y,1/2+z
x,3/4-y,3/4-z
1/4-x,1/2+y,3/4-z
-x,1/2-y,1/2-z
3/4+x,1/4+y,1/2-z
-x,1/4+y,1/4+z
3/4+x,1/2-y,1/4+z
1/2+x,y,1/2+z
3/4-x,1/4-y,1/2+z
1/2+x,1/4-y,3/4-z
3/4-x,y,3/4-z
1/2-x,-y,1/2-z
1/4+x,3/4+y,1/2-z
1/2-x,3/4+y,1/4+z
1/4+x,-y,1/4+z
1/2+x,1/2+y,z
3/4-x,3/4-y,z
1/2+x,3/4-y,1/4-z
3/4-x,1/2+y,1/4-z
1/2-x,1/2-y,-z
1/4+x,1/4+y,-z
1/2-x,1/4+y,3/4+z
1/4+x,1/2-y,3/4+z
loop_
_atom_site_type_symbol
_atom_site_label
_atom_site_fract_x
_atom_site_fract_y
_atom_site_fract_z
Si Si1 0.539600 0.033294 0.807544
Si Si2 0.951112 0.454594 0.497835
Si Si3 0.514102 0.219689 0.954363
Si Si4 0.706378 0.870745 0.706388
Si Si5 0.451718 0.970511 0.050572
Si Si6 0.125000 0.236540 0.125000
Si Si7 0.981656 0.127596 0.808784
O O1 0.636653 0.045762 0.806253
O O2 0.492383 0.073453 0.772023
O O3 0.509277 0.024194 0.879138
O O4 0.523534 0.989016 0.768489
O O5 0.901604 0.453929 0.431588
O O6 0.000000 0.500000 0.500000
O O7 0.008875 0.411559 0.502173
O O8 0.607342 0.236625 0.945522
O O9 0.452323 0.232082 0.896059
O O10 0.520644 0.167439 0.966814
O O11 0.732554 0.876600 0.634167
O O12 0.609884 0.867992 0.717888
O O13 0.463454 0.918525 0.033291
O O14 0.500000 0.000000 0.000000
#
# Coordination Sequence:
#
# PCOD8285887 Si02
#       7
#    32  32  32  32  32  16  32
#     4  10  22  37  57  84 114 150 190 237 292 349
#     4  11  20  34  58  87 121 157 194 240 295 356
#     4  11  21  38  59  85 118 149 188 237 289 348
#     4  10  19  35  57  82 114 149 190 237 285 344
#     4  11  23  39  60  84 112 149 193 242 293 344
#     4  10  22  36  57  92 124 156 196 242 297 360
#     4  10  20  35  59  86 108 144 195 239 284 347
#
# _framework density 20.115805000000002
#
# number of rings (size 3 to 8) (size 9 to 14) (size 15 to 20)
#    0.000    1.538    0.000    7.385    0.000    4.308 
#    0.000    6.923    0.000    7.385    0.000    0.000 
#    0.000    0.000    0.000    0.000    0.000    0.000 
#
# Total GULP energy -644784.506574 kJ/mol
# GULP energy per Si atom -12399.702049 kJ/mol
# Density = 2.007002 g / cm^3
# Si number density = 20.115805 Si / 1000 Ang^3
#
#
#
# Elastic Constant Matrix: (Units=GPa)
#
#
# Indices 1 2 3 4 5 6 
#
# 1 120.2757 28.2943 29.4758 0.0000 0.0000 0.0000
# 2 28.2943 94.5596 41.2063 0.0000 0.0000 0.0000
# 3 29.4758 41.2063 76.7710 0.0000 0.0000 0.0000
# 4 0.0000 0.0000 0.0000 29.7722 0.0000 0.0000
# 5 0.0000 0.0000 0.0000 0.0000 28.9382 0.0000
# 6 0.0000 0.0000 0.0000 0.0000 0.0000 40.0132
#
#
#
# Elastic Compliance Matrix: (Units=1/GPa)
#
#
# Indices 1 2 3 4 5 6 
#
# 1 0.009362 -0.001612 -0.002729 0.000000 0.000000 0.000000
# 2 -0.001612 0.014082 -0.006939 0.000000 0.000000 0.000000
# 3 -0.002729 -0.006939 0.017798 0.000000 0.000000 0.000000
# 4 0.000000 0.000000 0.000000 0.033588 0.000000 0.000000
# 5 0.000000 0.000000 0.000000 0.000000 0.034556 0.000000
# 6 0.000000 0.000000 0.000000 0.000000 0.000000 0.024992
#
#
# Mechanical properties :
#
#
# Convention : Reuss Voigt Hill
#
# Bulk Modulus (GPa) = 53.53070 54.39548 53.96309
# Shear Modulus (GPa) = 30.64344 32.58672 31.61508
#
# Velocity S-wave (km/s) = 3.90725 4.02923 3.96871
# Velocity P-wave (km/s) = 6.85744 6.98185 6.91992
#
# Compressibility (1/GPa) = 0.01868087
#
# Stress axis : x y z
#
# Youngs Moduli (GPa) = 106.81090 71.01450 56.18517
#
# Poissons Ratio (x) = 0.11448 0.15335
# Poissons Ratio (y) = 0.17218 0.38989
# Poissons Ratio (z) = 0.29153 0.49279
#
# Static dielectric constant tensor:
#      x y z
#    x 3.847380 0.000000 0.000000 
#    y 0.000000 3.744230 0.000000 
#    z 0.000000 0.000000 3.507900 
# 
# 
# High freq. dielectric constant tensor:
#      x y z
#    x 1.799390 0.000000 0.000000 
#    y 0.000000 1.787400 0.000000 
#    z 0.000000 0.000000 1.759810 
# 
# From -- ./inp_files/43963.got.cif
#   From: 2010.03.12/outbox.cif.g09.slc.cpg/sg70_22_cif.got.tgz:43963.got - 2010.04.16 13:46:32.
