data_PCOD8285113
_publ_section_title
;
Structure prediction by ZEFSAII (Michael W. Deem and Ramdas Pophale) SiO2 
 PCOD8285113
Probable space group: F M M M
;
_chemical_formula_sum "Si O2"
_cell_formula_units_Z 192
_cell_length_a 30.288825
_cell_length_b 17.552217
_cell_length_c 17.462756
_cell_angle_alpha 90.000000
_cell_angle_beta 90.000000
_cell_angle_gamma 90.000000
_cell_volume 9283.830257
_symmetry_space_group_name_H-M "F M M M"
_symmetry_group_IT_number 69
_symmetry_cell_setting 'orthorhombic'
loop_
_space_group_symop_operation_xyz
x,y,z
-x,-y,z
x,-y,-z
-x,y,-z
-x,-y,-z
x,y,-z
-x,y,z
x,-y,z
x,1/2+y,1/2+z
-x,1/2-y,1/2+z
x,1/2-y,1/2-z
-x,1/2+y,1/2-z
-x,1/2-y,1/2-z
x,1/2+y,1/2-z
-x,1/2+y,1/2+z
x,1/2-y,1/2+z
1/2+x,y,1/2+z
1/2-x,-y,1/2+z
1/2+x,-y,1/2-z
1/2-x,y,1/2-z
1/2-x,-y,1/2-z
1/2+x,y,1/2-z
1/2-x,y,1/2+z
1/2+x,-y,1/2+z
1/2+x,1/2+y,z
1/2-x,1/2-y,z
1/2+x,1/2-y,-z
1/2-x,1/2+y,-z
1/2-x,1/2-y,-z
1/2+x,1/2+y,-z
1/2-x,1/2+y,z
1/2+x,1/2-y,z
loop_
_atom_site_type_symbol
_atom_site_label
_atom_site_fract_x
_atom_site_fract_y
_atom_site_fract_z
Si Si1 0.500000 0.332792 0.587025
Si Si2 0.903627 0.166151 0.791356
Si Si3 0.163294 0.909418 0.908833
Si Si4 0.749980 0.336561 0.659973
Si Si5 0.084149 0.086223 0.644403
Si Si6 0.326306 0.414969 0.584866
Si Si7 0.500000 0.804052 0.322937
O O1 0.500000 0.360238 0.500000
O O2 0.457324 0.360877 0.631260
O O3 0.500000 0.242127 0.596653
O O4 0.896472 0.250000 0.750000
O O5 0.870371 0.145937 0.861417
O O6 0.895138 0.102072 0.727664
O O7 0.953812 0.150405 0.821346
O O8 0.212517 0.886286 0.881951
O O9 0.155848 0.000000 0.892676
O O10 0.157939 0.893191 0.000000
O O11 0.750000 0.345802 0.750000
O O12 0.750000 0.250000 0.632522
O O13 0.701167 0.362010 0.639225
O O14 0.122067 0.107965 0.583644
O O15 0.068098 0.000000 0.635988
O O16 0.306928 0.409166 0.500000
O O17 0.322733 0.500000 0.617934
O O18 0.500000 0.750000 0.250000
#
# Coordination Sequence:
#
# PCOD8285113 Si02
#       7
#    16  32  32  32  32  32  16
#     4  12  23  37  60  92 130 166 201 258 330 387
#     4  11  22  42  70  93 127 169 220 271 316 390
#     4  11  26  46  68  99 136 174 218 276 340 396
#     4  11  25  41  64  94 127 167 219 273 324 387
#     4  11  22  38  62  92 125 165 208 255 318 389
#     4  10  22  40  60  85 121 163 205 254 314 383
#     4  10  20  42  62  90 127 165 217 269 317 375
#
# _framework density 20.681118999999999
#
# number of rings (size 3 to 8) (size 9 to 14) (size 15 to 20)
#    0.000    1.167    3.333    3.250    4.667    7.333 
#    0.000    1.250    0.000    1.000    0.000    0.000 
#    0.000    0.000    0.000    0.000    0.000    0.000 
#
# Total GULP energy -594825.494485 kJ/mol
# GULP energy per Si atom -12392.197802 kJ/mol
# Density = 2.063405 g / cm^3
# Si number density = 20.681119 Si / 1000 Ang^3
#
#
#
# Elastic Constant Matrix: (Units=GPa)
#
#
# Indices 1 2 3 4 5 6 
#
# 1 93.9003 55.0082 37.2067 0.0000 0.0000 0.0000
# 2 55.0082 83.9200 37.9896 0.0000 0.0000 0.0000
# 3 37.2067 37.9896 87.6084 0.0000 0.0000 0.0000
# 4 0.0000 0.0000 0.0000 29.9028 0.0000 0.0000
# 5 0.0000 0.0000 0.0000 0.0000 30.6582 0.0000
# 6 0.0000 0.0000 0.0000 0.0000 0.0000 30.8767
#
#
#
# Elastic Compliance Matrix: (Units=1/GPa)
#
#
# Indices 1 2 3 4 5 6 
#
# 1 0.017956 -0.010349 -0.003138 0.000000 0.000000 0.000000
# 2 -0.010349 0.020791 -0.004621 0.000000 0.000000 0.000000
# 3 -0.003138 -0.004621 0.014751 0.000000 0.000000 0.000000
# 4 0.000000 0.000000 0.000000 0.033442 0.000000 0.000000
# 5 0.000000 0.000000 0.000000 0.000000 0.032618 0.000000
# 6 0.000000 0.000000 0.000000 0.000000 0.000000 0.032387
#
#
# Mechanical properties :
#
#
# Convention : Reuss Voigt Hill
#
# Bulk Modulus (GPa) = 57.86201 58.42642 58.14421
# Shear Modulus (GPa) = 25.78381 27.30249 26.54315
#
# Velocity S-wave (km/s) = 3.53474 3.63735 3.58641
# Velocity P-wave (km/s) = 6.68566 6.77885 6.73242
#
# Compressibility (1/GPa) = 0.01728250
#
# Stress axis : x y z
#
# Youngs Moduli (GPa) = 55.69287 48.09671 67.79328
#
# Poissons Ratio (x) = 0.49776 0.21273
# Poissons Ratio (y) = 0.57637 0.31324
# Poissons Ratio (z) = 0.17476 0.22224
#
# Static dielectric constant tensor:
#      x y z
#    x 3.982210 0.000000 0.000000 
#    y 0.000000 3.756150 0.000000 
#    z 0.000000 0.000000 3.928750 
# 
# 
# High freq. dielectric constant tensor:
#      x y z
#    x 1.825080 0.000000 0.000000 
#    y 0.000000 1.800110 0.000000 
#    z 0.000000 0.000000 1.811830 
# 
# From -- ./inp_files/27764.got.cif
#   From: 2010.03.12/outbox.cif.g09.slc.cpg/sg69_14_cif.got.tgz:27764.got - 2010.04.10 23:52:46.
