data_PCOD8285833
_publ_section_title
;
Structure prediction by ZEFSAII (Michael W. Deem and Ramdas Pophale) SiO2 
 PCOD8285833
Probable space group: F D D D
;
_chemical_formula_sum "Si O2"
_cell_formula_units_Z 128
_cell_length_a 9.323633
_cell_length_b 22.387017
_cell_length_c 22.501287
_cell_angle_alpha 90.000000
_cell_angle_beta 90.000000
_cell_angle_gamma 90.000000
_cell_volume 4696.656069
_symmetry_space_group_name_H-M "F D D D"
_symmetry_group_IT_number 70
_space_group.IT_coordinate_system_code '2'
_symmetry_cell_setting 'orthorhombic'
loop_
_space_group_symop_operation_xyz
x,y,z
1/4-x,1/4-y,z
x,1/4-y,1/4-z
1/4-x,y,1/4-z
-x,-y,-z
3/4+x,3/4+y,-z
-x,3/4+y,3/4+z
3/4+x,-y,3/4+z
x,1/2+y,1/2+z
1/4-x,3/4-y,1/2+z
x,3/4-y,3/4-z
1/4-x,1/2+y,3/4-z
-x,1/2-y,1/2-z
3/4+x,1/4+y,1/2-z
-x,1/4+y,1/4+z
3/4+x,1/2-y,1/4+z
1/2+x,y,1/2+z
3/4-x,1/4-y,1/2+z
1/2+x,1/4-y,3/4-z
3/4-x,y,3/4-z
1/2-x,-y,1/2-z
1/4+x,3/4+y,1/2-z
1/2-x,3/4+y,1/4+z
1/4+x,-y,1/4+z
1/2+x,1/2+y,z
3/4-x,3/4-y,z
1/2+x,3/4-y,1/4-z
3/4-x,1/2+y,1/4-z
1/2-x,1/2-y,-z
1/4+x,1/4+y,-z
1/2-x,1/4+y,3/4+z
1/4+x,1/2-y,3/4+z
loop_
_atom_site_type_symbol
_atom_site_label
_atom_site_fract_x
_atom_site_fract_y
_atom_site_fract_z
Si Si1 0.375000 0.875000 0.233258
Si Si2 0.625000 0.948742 0.625000
Si Si3 0.624580 0.849916 0.938357
Si Si4 0.438751 0.978297 0.146271
Si Si5 0.776687 0.649573 0.450772
O O1 0.478498 0.836979 0.276509
O O2 0.463697 0.924367 0.193973
O O3 0.770972 0.987178 0.626681
O O4 0.636220 0.904095 0.681818
O O5 0.663570 0.875000 0.875000
O O6 0.525130 0.790830 0.928670
O O7 0.537327 0.900769 0.977324
O O8 0.537586 0.962774 0.086511
O O9 0.625000 0.625000 0.427172
#
# Coordination Sequence:
#
# PCOD8285833 Si02
#       5
#    16  16  32  32  32
#     4  12  23  44  70 108 141 192 250 312 372 436
#     4  10  18  40  71 104 137 182 254 292 370 446
#     4  12  28  43  67 111 150 189 250 308 374 450
#     4  11  23  43  77 103 144 200 242 321 368 445
#     4  10  21  43  70  98 138 195 245 288 371 452
#
# _framework density 27.253433999999999
#
# number of rings (size 3 to 8) (size 9 to 14) (size 15 to 20)
#    0.000    1.000    6.250    1.125    3.500    3.500 
#    0.000    5.000    0.000    1.500    0.000    0.000 
#    0.000    0.000    0.000    0.000    0.000    0.000 
#
# Total GULP energy -396474.916673 kJ/mol
# GULP energy per Si atom -12389.841146 kJ/mol
# Density = 2.719140 g / cm^3
# Si number density = 27.253434 Si / 1000 Ang^3
#
#
#
# Elastic Constant Matrix: (Units=GPa)
#
#
# Indices 1 2 3 4 5 6 
#
# 1 41.5069 30.2930 45.3397 0.0000 0.0000 0.0000
# 2 30.2930 125.6866 78.0272 0.0000 0.0000 0.0000
# 3 45.3397 78.0272 213.5814 0.0000 0.0000 0.0000
# 4 0.0000 0.0000 0.0000 30.9542 0.0000 0.0000
# 5 0.0000 0.0000 0.0000 0.0000 50.1774 0.0000
# 6 0.0000 0.0000 0.0000 0.0000 0.0000 28.9134
#
#
#
# Elastic Compliance Matrix: (Units=1/GPa)
#
#
# Indices 1 2 3 4 5 6 
#
# 1 0.033397 -0.004718 -0.005366 0.000000 0.000000 0.000000
# 2 -0.004718 0.010957 -0.003001 0.000000 0.000000 0.000000
# 3 -0.005366 -0.003001 0.006918 0.000000 0.000000 0.000000
# 4 0.000000 0.000000 0.000000 0.032306 0.000000 0.000000
# 5 0.000000 0.000000 0.000000 0.000000 0.019929 0.000000
# 6 0.000000 0.000000 0.000000 0.000000 0.000000 0.034586
#
#
# Mechanical properties :
#
#
# Convention : Reuss Voigt Hill
#
# Bulk Modulus (GPa) = 39.83929 76.45498 58.14714
# Shear Modulus (GPa) = 28.96362 37.14999 33.05681
#
# Velocity S-wave (km/s) = 3.26352 3.69607 3.48651
# Velocity P-wave (km/s) = 5.37127 6.80652 6.13104
#
# Compressibility (1/GPa) = 0.02510085
#
# Stress axis : x y z
#
# Youngs Moduli (GPa) = 29.94251 91.26903 144.55916
#
# Poissons Ratio (x) = 0.43062 0.77571
# Poissons Ratio (y) = 0.14127 0.43385
# Poissons Ratio (z) = 0.16067 0.27391
#
# Static dielectric constant tensor:
#      x y z
#    x 5.317620 0.000000 0.000000 
#    y 0.000000 4.429870 0.000000 
#    z 0.000000 0.000000 4.950440 
# 
# 
# High freq. dielectric constant tensor:
#      x y z
#    x 2.134840 0.000000 0.000000 
#    y 0.000000 2.051330 0.000000 
#    z 0.000000 0.000000 2.101650 
# 
# From -- ./inp_files/49957.got.cif
#   From: 2010.03.12/outbox.cif.g09.slc.cpg/sg70_25_cif.got.tgz:49957.got - 2010.04.16 13:46:32.
