data_PCOD8285964
_publ_section_title
;
Structure prediction by ZEFSAII (Michael W. Deem and Ramdas Pophale) SiO2 
 PCOD8285964
Probable space group: F D D D
;
_chemical_formula_sum "Si O2"
_cell_formula_units_Z 208
_cell_length_a 21.680050
_cell_length_b 24.163267
_cell_length_c 18.823645
_cell_angle_alpha 90.000000
_cell_angle_beta 90.000000
_cell_angle_gamma 90.000000
_cell_volume 9860.970420
_symmetry_space_group_name_H-M "F D D D"
_symmetry_group_IT_number 70
_space_group.IT_coordinate_system_code '2'
_symmetry_cell_setting 'orthorhombic'
loop_
_space_group_symop_operation_xyz
x,y,z
1/4-x,1/4-y,z
x,1/4-y,1/4-z
1/4-x,y,1/4-z
-x,-y,-z
3/4+x,3/4+y,-z
-x,3/4+y,3/4+z
3/4+x,-y,3/4+z
x,1/2+y,1/2+z
1/4-x,3/4-y,1/2+z
x,3/4-y,3/4-z
1/4-x,1/2+y,3/4-z
-x,1/2-y,1/2-z
3/4+x,1/4+y,1/2-z
-x,1/4+y,1/4+z
3/4+x,1/2-y,1/4+z
1/2+x,y,1/2+z
3/4-x,1/4-y,1/2+z
1/2+x,1/4-y,3/4-z
3/4-x,y,3/4-z
1/2-x,-y,1/2-z
1/4+x,3/4+y,1/2-z
1/2-x,3/4+y,1/4+z
1/4+x,-y,1/4+z
1/2+x,1/2+y,z
3/4-x,3/4-y,z
1/2+x,3/4-y,1/4-z
3/4-x,1/2+y,1/4-z
1/2-x,1/2-y,-z
1/4+x,1/4+y,-z
1/2-x,1/4+y,3/4+z
1/4+x,1/2-y,3/4+z
loop_
_atom_site_type_symbol
_atom_site_label
_atom_site_fract_x
_atom_site_fract_y
_atom_site_fract_z
Si Si1 0.623071 0.534441 0.044291
Si Si2 0.416900 0.323082 0.269434
Si Si3 0.780072 0.375524 0.256098
Si Si4 0.125000 0.260189 0.625000
Si Si5 0.751349 0.125000 0.125000
Si Si6 0.661205 0.793307 0.320911
Si Si7 0.931105 0.125000 0.125000
Si Si8 0.759796 0.942100 0.127362
O O1 0.625000 0.515350 0.125000
O O2 0.560479 0.563853 0.016115
O O3 0.677580 0.578042 0.038129
O O4 0.632002 0.476512 0.003098
O O5 0.375000 0.375000 0.249193
O O6 0.374012 0.273207 0.298868
O O7 0.458810 0.329552 0.339053
O O8 0.465205 0.315321 0.206529
O O9 0.718067 0.372677 0.301564
O O10 0.769613 0.362232 0.172513
O O11 0.186935 0.296808 0.624047
O O12 0.790763 0.155738 0.186754
O O13 0.608579 0.817937 0.373126
O O14 0.696543 0.741145 0.351719
#
# Coordination Sequence:
#
# PCOD8285964 Si02
#       8
#    32  32  32  16  16  32  16  32
#     4  10  19  42  67  91 132 175 223 270 333 408
#     4  12  23  42  67  95 130 179 220 274 335 406
#     4  10  21  41  63  95 127 178 217 272 339 391
#     4  12  23  44  68  94 128 182 222 271 338 394
#     4  11  21  46  59  93 130 177 217 268 344 393
#     4  10  24  39  66  93 131 169 222 274 330 403
#     4  11  22  41  65  92 134 176 207 286 338 397
#     4  11  26  40  67 100 130 169 229 276 320 407
#
# _framework density 21.093257999999999
#
# number of rings (size 3 to 8) (size 9 to 14) (size 15 to 20)
#    0.000    1.231    4.615    0.923    6.462    1.846 
#    2.769    0.000    0.000    0.000    0.000    0.000 
#    0.000    0.000    0.000    0.000    0.000    0.000 
#
# Total GULP energy -644250.660684 kJ/mol
# GULP energy per Si atom -12389.435782 kJ/mol
# Density = 2.104525 g / cm^3
# Si number density = 21.093258 Si / 1000 Ang^3
#
#
#
# Elastic Constant Matrix: (Units=GPa)
#
#
# Indices 1 2 3 4 5 6 
#
# 1 131.4973 42.1689 55.2751 0.0000 0.0000 0.0000
# 2 42.1689 81.4455 44.9742 0.0000 0.0000 0.0000
# 3 55.2751 44.9742 141.4148 0.0000 0.0000 0.0000
# 4 0.0000 0.0000 0.0000 27.7683 0.0000 0.0000
# 5 0.0000 0.0000 0.0000 0.0000 52.2869 0.0000
# 6 0.0000 0.0000 0.0000 0.0000 0.0000 10.3442
#
#
#
# Elastic Compliance Matrix: (Units=1/GPa)
#
#
# Indices 1 2 3 4 5 6 
#
# 1 0.009912 -0.003630 -0.002720 0.000000 0.000000 0.000000
# 2 -0.003630 0.016223 -0.003741 0.000000 0.000000 0.000000
# 3 -0.002720 -0.003741 0.009324 0.000000 0.000000 0.000000
# 4 0.000000 0.000000 0.000000 0.036012 0.000000 0.000000
# 5 0.000000 0.000000 0.000000 0.000000 0.019125 0.000000
# 6 0.000000 0.000000 0.000000 0.000000 0.000000 0.096672
#
#
# Mechanical properties :
#
#
# Convention : Reuss Voigt Hill
#
# Bulk Modulus (GPa) = 65.45222 71.02155 68.23689
# Shear Modulus (GPa) = 23.52461 32.20918 27.86690
#
# Velocity S-wave (km/s) = 3.34318 3.91191 3.63868
# Velocity P-wave (km/s) = 6.78231 7.35849 7.07627
#
# Compressibility (1/GPa) = 0.01527832
#
# Stress axis : x y z
#
# Youngs Moduli (GPa) = 100.88619 61.64008 107.24862
#
# Poissons Ratio (x) = 0.22376 0.29170
# Poissons Ratio (y) = 0.36623 0.40117
# Poissons Ratio (z) = 0.27440 0.23057
#
# Static dielectric constant tensor:
#      x y z
#    x 4.050330 0.000000 0.000000 
#    y 0.000000 3.801570 0.000000 
#    z 0.000000 0.000000 3.923520 
# 
# 
# High freq. dielectric constant tensor:
#      x y z
#    x 1.842580 0.000000 0.000000 
#    y 0.000000 1.814570 0.000000 
#    z 0.000000 0.000000 1.818070 
# 
# From -- ./inp_files/36753.got.cif
#   From: 2010.03.12/outbox.cif.g09.slc.cpg/sg70_19_cif.got.tgz:36753.got - 2010.04.16 13:46:32.
