data_PCOD8285298
_publ_section_title
;
Structure prediction by ZEFSAII (Michael W. Deem and Ramdas Pophale) SiO2 
 PCOD8285298
Probable space group: F M M M
;
_chemical_formula_sum "Si O2"
_cell_formula_units_Z 240
_cell_length_a 27.193323
_cell_length_b 20.727003
_cell_length_c 21.049447
_cell_angle_alpha 90.000000
_cell_angle_beta 90.000000
_cell_angle_gamma 90.000000
_cell_volume 11864.227949
_symmetry_space_group_name_H-M "F M M M"
_symmetry_group_IT_number 69
_symmetry_cell_setting 'orthorhombic'
loop_
_space_group_symop_operation_xyz
x,y,z
-x,-y,z
x,-y,-z
-x,y,-z
-x,-y,-z
x,y,-z
-x,y,z
x,-y,z
x,1/2+y,1/2+z
-x,1/2-y,1/2+z
x,1/2-y,1/2-z
-x,1/2+y,1/2-z
-x,1/2-y,1/2-z
x,1/2+y,1/2-z
-x,1/2+y,1/2+z
x,1/2-y,1/2+z
1/2+x,y,1/2+z
1/2-x,-y,1/2+z
1/2+x,-y,1/2-z
1/2-x,y,1/2-z
1/2-x,-y,1/2-z
1/2+x,y,1/2-z
1/2-x,y,1/2+z
1/2+x,-y,1/2+z
1/2+x,1/2+y,z
1/2-x,1/2-y,z
1/2+x,1/2-y,-z
1/2-x,1/2+y,-z
1/2-x,1/2-y,-z
1/2+x,1/2+y,-z
1/2-x,1/2+y,z
1/2+x,1/2-y,z
loop_
_atom_site_type_symbol
_atom_site_label
_atom_site_fract_x
_atom_site_fract_y
_atom_site_fract_z
Si Si1 0.558396 0.355644 0.626097
Si Si2 0.617407 0.746960 0.929513
Si Si3 0.786488 0.190266 0.601316
Si Si4 0.782364 0.928725 0.929449
Si Si5 0.697021 0.824500 0.762759
Si Si6 0.558459 0.571670 0.500000
Si Si7 0.866132 0.377627 0.653486
Si Si8 0.556400 0.425628 0.754805
O O1 0.500000 0.350821 0.625017
O O2 0.581224 0.284751 0.618053
O O3 0.577979 0.394796 0.564344
O O4 0.575851 0.386267 0.693001
O O5 0.669970 0.782286 0.942217
O O6 0.623742 0.678078 0.896922
O O7 0.594074 0.738318 0.000000
O O8 0.750000 0.250000 0.617044
O O9 0.757312 0.129114 0.573919
O O10 0.815119 0.165077 0.663560
O O11 0.826920 0.924613 0.879453
O O12 0.757874 0.000000 0.919013
O O13 0.805156 0.924774 0.000000
O O14 0.700231 0.750000 0.750000
O O15 0.750000 0.857641 0.750000
O O16 0.655551 0.854158 0.719765
O O17 0.580196 0.500000 0.500000
O O18 0.500000 0.570998 0.500000
O O19 0.915557 0.412095 0.678403
O O20 0.500000 0.407530 0.768403
O O21 0.562441 0.500000 0.736206
#
# Coordination Sequence:
#
# PCOD8285298 Si02
#       8
#    32  32  32  32  32  16  32  32
#     4  10  21  39  62  89 124 161 199 254 313 373
#     4  12  24  37  60  94 128 165 211 257 311 376
#     4  12  21  38  63  88 120 164 209 253 309 371
#     4  11  24  42  62  88 124 166 213 263 313 370
#     4  11  17  34  57  88 121 154 192 247 299 359
#     4   9  16  32  60  86 113 158 203 235 288 371
#     4  12  23  38  64  90 122 165 210 255 315 371
#     4  10  23  43  65  90 121 160 209 260 316 383
#
# _framework density 20.228877000000001
#
# number of rings (size 3 to 8) (size 9 to 14) (size 15 to 20)
#    0.000    1.000    6.000    2.400    0.000    2.667 
#    0.000    6.000    0.000    1.200    0.000    4.667 
#    0.000    0.000    0.000    0.000    0.000    0.000 
#
# Total GULP energy -743576.291113 kJ/mol
# GULP energy per Si atom -12392.938185 kJ/mol
# Density = 2.018284 g / cm^3
# Si number density = 20.228877 Si / 1000 Ang^3
#
#
#
# Elastic Constant Matrix: (Units=GPa)
#
#
# Indices 1 2 3 4 5 6 
#
# 1 43.7630 17.5199 24.9862 0.0000 0.0000 0.0000
# 2 17.5199 96.4238 29.4455 0.0000 0.0000 0.0000
# 3 24.9862 29.4455 117.3532 0.0000 0.0000 0.0000
# 4 0.0000 0.0000 0.0000 20.6112 0.0000 0.0000
# 5 0.0000 0.0000 0.0000 0.0000 26.6499 0.0000
# 6 0.0000 0.0000 0.0000 0.0000 0.0000 29.6086
#
#
#
# Elastic Compliance Matrix: (Units=1/GPa)
#
#
# Indices 1 2 3 4 5 6 
#
# 1 0.027011 -0.003413 -0.004895 0.000000 0.000000 0.000000
# 2 -0.003413 0.011663 -0.002200 0.000000 0.000000 0.000000
# 3 -0.004895 -0.002200 0.010115 0.000000 0.000000 0.000000
# 4 0.000000 0.000000 0.000000 0.048517 0.000000 0.000000
# 5 0.000000 0.000000 0.000000 0.000000 0.037524 0.000000
# 6 0.000000 0.000000 0.000000 0.000000 0.000000 0.033774
#
#
# Mechanical properties :
#
#
# Convention : Reuss Voigt Hill
#
# Bulk Modulus (GPa) = 36.00426 44.60478 40.30452
# Shear Modulus (GPa) = 25.14113 27.74652 26.44383
#
# Velocity S-wave (km/s) = 3.52921 3.70757 3.61949
# Velocity P-wave (km/s) = 5.86892 6.35815 6.11842
#
# Compressibility (1/GPa) = 0.02777449
#
# Stress axis : x y z
#
# Youngs Moduli (GPa) = 37.02150 85.74307 98.85961
#
# Poissons Ratio (x) = 0.29265 0.48389
# Poissons Ratio (y) = 0.12636 0.21745
# Poissons Ratio (z) = 0.18121 0.18860
#
# Static dielectric constant tensor:
#      x y z
#    x 3.770460 0.000000 0.000000 
#    y 0.000000 3.617710 0.000000 
#    z 0.000000 0.000000 3.783170 
# 
# 
# High freq. dielectric constant tensor:
#      x y z
#    x 1.773280 0.000000 0.000000 
#    y 0.000000 1.778990 0.000000 
#    z 0.000000 0.000000 1.806090 
# 
# From -- ./inp_files/33573.got.cif
#   From: 2010.03.12/outbox.cif.g09.slc.cpg/sg69_17_cif.got.tgz:33573.got - 2010.04.10 23:52:46.
