data_PCOD8285012
_publ_section_title
;
Structure prediction by ZEFSAII (Michael W. Deem and Ramdas Pophale) SiO2 
 PCOD8285012
Probable space group: F M M M
;
_chemical_formula_sum "Si O2"
_cell_formula_units_Z 160
_cell_length_a 20.505601
_cell_length_b 15.870619
_cell_length_c 22.704285
_cell_angle_alpha 90.000000
_cell_angle_beta 90.000000
_cell_angle_gamma 90.000000
_cell_volume 7388.804881
_symmetry_space_group_name_H-M "F M M M"
_symmetry_group_IT_number 69
_symmetry_cell_setting 'orthorhombic'
loop_
_space_group_symop_operation_xyz
x,y,z
-x,-y,z
x,-y,-z
-x,y,-z
-x,-y,-z
x,y,-z
-x,y,z
x,-y,z
x,1/2+y,1/2+z
-x,1/2-y,1/2+z
x,1/2-y,1/2-z
-x,1/2+y,1/2-z
-x,1/2-y,1/2-z
x,1/2+y,1/2-z
-x,1/2+y,1/2+z
x,1/2-y,1/2+z
1/2+x,y,1/2+z
1/2-x,-y,1/2+z
1/2+x,-y,1/2-z
1/2-x,y,1/2-z
1/2-x,-y,1/2-z
1/2+x,y,1/2-z
1/2-x,y,1/2+z
1/2+x,-y,1/2+z
1/2+x,1/2+y,z
1/2-x,1/2-y,z
1/2+x,1/2-y,-z
1/2-x,1/2+y,-z
1/2-x,1/2-y,-z
1/2+x,1/2+y,-z
1/2-x,1/2+y,z
1/2+x,1/2-y,z
loop_
_atom_site_type_symbol
_atom_site_label
_atom_site_fract_x
_atom_site_fract_y
_atom_site_fract_z
Si Si1 0.926695 0.638337 0.431684
Si Si2 0.070085 0.904397 0.500000
Si Si3 0.924931 0.596249 0.219532
Si Si4 0.166549 0.905307 0.828783
Si Si5 0.750000 0.250000 0.141629
Si Si6 0.618179 0.312097 0.604427
O O1 0.907170 0.623835 0.500000
O O2 0.872454 0.594074 0.390734
O O3 0.928551 0.737109 0.416368
O O4 0.000000 0.602639 0.420292
O O5 0.111129 0.886904 0.558447
O O6 0.000000 0.856130 0.500000
O O7 0.053374 0.000000 0.500000
O O8 0.915575 0.500000 0.198473
O O9 0.885395 0.615397 0.278406
O O10 0.899454 0.659039 0.169807
O O11 0.000000 0.615831 0.233253
O O12 0.222039 0.832153 0.822513
O O13 0.196917 0.000000 0.820924
O O14 0.692747 0.216898 0.100441
#
# Coordination Sequence:
#
# PCOD8285012 Si02
#       6
#    32  16  32  32  16  32
#     4  10  20  36  61  91 123 162 209 263 322 383
#     4  11  22  37  62  94 125 160 208 268 335 389
#     4  10  21  38  64  98 132 165 210 270 331 388
#     4  10  23  43  64  91 128 169 212 266 322 378
#     4  10  26  44  64  90 128 171 227 258 310 382
#     4  11  22  39  61  88 128 170 214 263 316 378
#
# _framework density 21.654381000000001
#
# number of rings (size 3 to 8) (size 9 to 14) (size 15 to 20)
#    0.000    1.700    1.000    3.000    0.000   10.000 
#    1.800    8.000    0.000    0.000    0.000    0.000 
#    0.000    0.000    0.000    0.000    0.000    0.000 
#
# Total GULP energy -495790.742755 kJ/mol
# GULP energy per Si atom -12394.768569 kJ/mol
# Density = 2.160509 g / cm^3
# Si number density = 21.654381 Si / 1000 Ang^3
#
#
#
# Elastic Constant Matrix: (Units=GPa)
#
#
# Indices 1 2 3 4 5 6 
#
# 1 119.4268 54.2429 39.3826 0.0000 0.0000 0.0000
# 2 54.2429 115.9404 42.2161 0.0000 0.0000 0.0000
# 3 39.3826 42.2161 131.2158 0.0000 0.0000 0.0000
# 4 0.0000 0.0000 0.0000 24.1858 0.0000 0.0000
# 5 0.0000 0.0000 0.0000 0.0000 169.3269 0.0000
# 6 0.0000 0.0000 0.0000 0.0000 0.0000 33.4725
#
#
#
# Elastic Compliance Matrix: (Units=1/GPa)
#
#
# Indices 1 2 3 4 5 6 
#
# 1 0.011023 -0.004477 -0.001868 0.000000 0.000000 0.000000
# 2 -0.004477 0.011588 -0.002385 0.000000 0.000000 0.000000
# 3 -0.001868 -0.002385 0.008949 0.000000 0.000000 0.000000
# 4 0.000000 0.000000 0.000000 0.041347 0.000000 0.000000
# 5 0.000000 0.000000 0.000000 0.000000 0.005906 0.000000
# 6 0.000000 0.000000 0.000000 0.000000 0.000000 0.029875
#
#
# Mechanical properties :
#
#
# Convention : Reuss Voigt Hill
#
# Bulk Modulus (GPa) = 70.91809 70.91847 70.91828
# Shear Modulus (GPa) = 38.21293 60.77979 49.49636
#
# Velocity S-wave (km/s) = 4.20536 5.30368 4.78613
# Velocity P-wave (km/s) = 7.51007 8.38610 7.96015
#
# Compressibility (1/GPa) = 0.01410077
#
# Stress axis : x y z
#
# Youngs Moduli (GPa) = 90.72226 86.29727 111.74624
#
# Poissons Ratio (x) = 0.38634 0.20874
# Poissons Ratio (y) = 0.40615 0.26646
# Poissons Ratio (z) = 0.16947 0.20578
#
# Static dielectric constant tensor:
#      x y z
#    x 3.873890 0.000000 0.000000 
#    y 0.000000 4.056190 0.000000 
#    z 0.000000 0.000000 3.844280 
# 
# 
# High freq. dielectric constant tensor:
#      x y z
#    x 1.847320 0.000000 0.000000 
#    y 0.000000 1.859490 0.000000 
#    z 0.000000 0.000000 1.848160 
# 
# From -- ./inp_files/31755.got.cif
#   From: 2010.03.12/outbox.cif.g09.slc.cpg/sg69_16_cif.got.tgz:31755.got - 2010.04.10 23:52:46.
