data_PCOD8285880
_publ_section_title
;
Structure prediction by ZEFSAII (Michael W. Deem and Ramdas Pophale) SiO2 
 PCOD8285880
Probable space group: F D D D
;
_chemical_formula_sum "Si O2"
_cell_formula_units_Z 232
_cell_length_a 20.182986
_cell_length_b 30.252482
_cell_length_c 18.837047
_cell_angle_alpha 90.000000
_cell_angle_beta 90.000000
_cell_angle_gamma 90.000000
_cell_volume 11501.626267
_symmetry_space_group_name_H-M "F D D D"
_symmetry_group_IT_number 70
_space_group.IT_coordinate_system_code '2'
_symmetry_cell_setting 'orthorhombic'
loop_
_space_group_symop_operation_xyz
x,y,z
1/4-x,1/4-y,z
x,1/4-y,1/4-z
1/4-x,y,1/4-z
-x,-y,-z
3/4+x,3/4+y,-z
-x,3/4+y,3/4+z
3/4+x,-y,3/4+z
x,1/2+y,1/2+z
1/4-x,3/4-y,1/2+z
x,3/4-y,3/4-z
1/4-x,1/2+y,3/4-z
-x,1/2-y,1/2-z
3/4+x,1/4+y,1/2-z
-x,1/4+y,1/4+z
3/4+x,1/2-y,1/4+z
1/2+x,y,1/2+z
3/4-x,1/4-y,1/2+z
1/2+x,1/4-y,3/4-z
3/4-x,y,3/4-z
1/2-x,-y,1/2-z
1/4+x,3/4+y,1/2-z
1/2-x,3/4+y,1/4+z
1/4+x,-y,1/4+z
1/2+x,1/2+y,z
3/4-x,3/4-y,z
1/2+x,3/4-y,1/4-z
3/4-x,1/2+y,1/4-z
1/2-x,1/2-y,-z
1/4+x,1/4+y,-z
1/2-x,1/4+y,3/4+z
1/4+x,1/2-y,3/4+z
loop_
_atom_site_type_symbol
_atom_site_label
_atom_site_fract_x
_atom_site_fract_y
_atom_site_fract_z
Si Si1 0.191775 0.923359 0.451261
Si Si2 0.232716 0.655266 0.230497
Si Si3 0.676451 0.747002 0.972180
Si Si4 0.120457 0.912183 0.952290
Si Si5 0.417769 0.418394 0.742585
Si Si6 0.182562 0.160869 0.416905
Si Si7 0.625000 0.625000 0.625000
Si Si8 0.583926 0.518926 0.806661
O O1 0.167817 0.918402 0.371054
O O2 0.159518 0.881217 0.492793
O O3 0.271591 0.921277 0.452538
O O4 0.166217 0.970825 0.481833
O O5 0.301417 0.656508 0.188324
O O6 0.237239 0.611590 0.281955
O O7 0.172032 0.654560 0.174774
O O8 0.224136 0.700320 0.275034
O O9 0.641836 0.793000 0.995685
O O10 0.632382 0.708601 0.007033
O O11 0.681431 0.737994 0.888877
O O12 0.750000 0.750000 0.000000
O O13 0.375000 0.375000 0.755979
O O14 0.453274 0.419474 0.664567
O O15 0.125000 0.125000 0.415129
O O16 0.155236 0.206550 0.451580
#
# Coordination Sequence:
#
# PCOD8285880 Si02
#       8
#    32  32  32  32  32  32   8  32
#     4  10  20  37  54  80 115 164 189 238 310 358
#     4  11  20  38  62  90 112 162 205 258 317 365
#     4  10  20  37  61  91 116 158 201 248 310 371
#     4  10  22  37  54  78 125 157 197 249 299 365
#     4  10  19  34  60  84 117 153 195 251 303 372
#     4   8  16  34  57  84 109 142 194 248 306 360
#     4  12  20  32  68  92 116 152 226 254 304 404
#     4   9  18  36  59  81 119 148 198 254 303 364
#
# _framework density 20.171061000000002
#
# number of rings (size 3 to 8) (size 9 to 14) (size 15 to 20)
#    0.000    2.207    2.069    3.310    0.000    0.000 
#    0.000   15.862    9.103    0.000    0.000    0.000 
#    0.000    0.000    0.000    0.000    0.000    0.000 
#
# Total GULP energy -718626.014865 kJ/mol
# GULP energy per Si atom -12390.103705 kJ/mol
# Density = 2.012515 g / cm^3
# Si number density = 20.171061 Si / 1000 Ang^3
#
#
#
# Elastic Constant Matrix: (Units=GPa)
#
#
# Indices 1 2 3 4 5 6 
#
# 1 153.4025 73.7253 42.3213 0.0000 0.0000 0.0000
# 2 73.7253 203.7967 25.1695 0.0000 0.0000 0.0000
# 3 42.3213 25.1695 48.8066 0.0000 0.0000 0.0000
# 4 0.0000 0.0000 0.0000 7.3208 0.0000 0.0000
# 5 0.0000 0.0000 0.0000 0.0000 27.9351 0.0000
# 6 0.0000 0.0000 0.0000 0.0000 0.0000 29.3831
#
#
#
# Elastic Compliance Matrix: (Units=1/GPa)
#
#
# Indices 1 2 3 4 5 6 
#
# 1 0.009748 -0.002651 -0.007085 0.000000 0.000000 0.000000
# 2 -0.002651 0.005962 -0.000775 0.000000 0.000000 0.000000
# 3 -0.007085 -0.000775 0.027033 0.000000 0.000000 0.000000
# 4 0.000000 0.000000 0.000000 0.136597 0.000000 0.000000
# 5 0.000000 0.000000 0.000000 0.000000 0.035797 0.000000
# 6 0.000000 0.000000 0.000000 0.000000 0.000000 0.034033
#
#
# Mechanical properties :
#
#
# Convention : Reuss Voigt Hill
#
# Bulk Modulus (GPa) = 46.04430 76.49312 61.26871
# Shear Modulus (GPa) = 18.02237 30.58046 24.30141
#
# Velocity S-wave (km/s) = 2.99235 3.89788 3.47474
# Velocity P-wave (km/s) = 5.90045 7.63299 6.82194
#
# Compressibility (1/GPa) = 0.02171821
#
# Stress axis : x y z
#
# Youngs Moduli (GPa) = 102.58841 167.73605 36.99228
#
# Poissons Ratio (x) = 0.44471 0.26210
# Poissons Ratio (y) = 0.27199 0.02869
# Poissons Ratio (z) = 0.72686 0.13008
#
# Static dielectric constant tensor:
#      x y z
#    x 3.492340 0.000000 0.000000 
#    y 0.000000 5.465290 0.000000 
#    z 0.000000 0.000000 3.624240 
# 
# 
# High freq. dielectric constant tensor:
#      x y z
#    x 1.772120 0.000000 0.000000 
#    y 0.000000 1.811230 0.000000 
#    z 0.000000 0.000000 1.753770 
# 
# From -- ./inp_files/52450.got.cif
#   From: 2010.03.12/outbox.cif.g09.slc.cpg/sg70_27_cif.got.tgz:52450.got - 2010.04.16 13:46:32.
