data_PCOD8285895
_publ_section_title
;
Structure prediction by ZEFSAII (Michael W. Deem and Ramdas Pophale) SiO2 
 PCOD8285895
Probable space group: F D D D
;
_chemical_formula_sum "Si O2"
_cell_formula_units_Z 112
_cell_length_a 33.209770
_cell_length_b 10.515393
_cell_length_c 13.881274
_cell_angle_alpha 90.000000
_cell_angle_beta 90.000000
_cell_angle_gamma 90.000000
_cell_volume 4847.532206
_symmetry_space_group_name_H-M "F D D D"
_symmetry_group_IT_number 70
_space_group.IT_coordinate_system_code '2'
_symmetry_cell_setting 'orthorhombic'
loop_
_space_group_symop_operation_xyz
x,y,z
1/4-x,1/4-y,z
x,1/4-y,1/4-z
1/4-x,y,1/4-z
-x,-y,-z
3/4+x,3/4+y,-z
-x,3/4+y,3/4+z
3/4+x,-y,3/4+z
x,1/2+y,1/2+z
1/4-x,3/4-y,1/2+z
x,3/4-y,3/4-z
1/4-x,1/2+y,3/4-z
-x,1/2-y,1/2-z
3/4+x,1/4+y,1/2-z
-x,1/4+y,1/4+z
3/4+x,1/2-y,1/4+z
1/2+x,y,1/2+z
3/4-x,1/4-y,1/2+z
1/2+x,1/4-y,3/4-z
3/4-x,y,3/4-z
1/2-x,-y,1/2-z
1/4+x,3/4+y,1/2-z
1/2-x,3/4+y,1/4+z
1/4+x,-y,1/4+z
1/2+x,1/2+y,z
3/4-x,3/4-y,z
1/2+x,3/4-y,1/4-z
3/4-x,1/2+y,1/4-z
1/2-x,1/2-y,-z
1/4+x,1/4+y,-z
1/2-x,1/4+y,3/4+z
1/4+x,1/2-y,3/4+z
loop_
_atom_site_type_symbol
_atom_site_label
_atom_site_fract_x
_atom_site_fract_y
_atom_site_fract_z
Si Si1 0.148708 0.250615 0.323865
Si Si2 0.625000 0.407422 0.125000
Si Si3 0.198503 0.498403 0.060395
Si Si4 0.020387 0.078502 0.413859
O O1 0.125000 0.125000 0.358551
O O2 0.129247 0.375000 0.375000
O O3 0.147056 0.259295 0.207016
O O4 0.195069 0.248034 0.357258
O O5 0.594049 0.320110 0.066167
O O6 0.197308 0.625000 0.125000
O O7 0.233409 0.398622 0.090971
O O8 0.209361 0.541242 0.951617
O O9 0.000000 0.000000 0.500000
#
# Coordination Sequence:
#
# PCOD8285895 Si02
#       4
#    32  16  32  32
#     4  12  25  44  68 100 139 184 233 288 348 413
#     4  12  24  40  64 100 141 184 227 286 351 420
#     4  10  19  35  61  96 132 177 228 279 334 404
#     4  10  20  37  64  97 133 178 231 286 338 405
#
# _framework density 23.104538000000002
#
# number of rings (size 3 to 8) (size 9 to 14) (size 15 to 20)
#    0.000    1.143    0.000   10.286    0.000    0.000 
#    0.000    1.429    0.000    3.429    0.000    0.000 
#    0.000    0.000    0.000    0.000    0.000    0.000 
#
# Total GULP energy -346992.412163 kJ/mol
# GULP energy per Si atom -12392.586149 kJ/mol
# Density = 2.305195 g / cm^3
# Si number density = 23.104538 Si / 1000 Ang^3
#
#
#
# Elastic Constant Matrix: (Units=GPa)
#
#
# Indices 1 2 3 4 5 6 
#
# 1 160.2399 53.5293 54.9962 0.0000 0.0000 0.0000
# 2 53.5293 89.5399 36.9680 0.0000 0.0000 0.0000
# 3 54.9962 36.9680 127.3943 0.0000 0.0000 0.0000
# 4 0.0000 0.0000 0.0000 23.1028 0.0000 0.0000
# 5 0.0000 0.0000 0.0000 0.0000 42.7478 0.0000
# 6 0.0000 0.0000 0.0000 0.0000 0.0000 14.1566
#
#
#
# Elastic Compliance Matrix: (Units=1/GPa)
#
#
# Indices 1 2 3 4 5 6 
#
# 1 0.008433 -0.004020 -0.002474 0.000000 0.000000 0.000000
# 2 -0.004020 0.014605 -0.002503 0.000000 0.000000 0.000000
# 3 -0.002474 -0.002503 0.009644 0.000000 0.000000 0.000000
# 4 0.000000 0.000000 0.000000 0.043285 0.000000 0.000000
# 5 0.000000 0.000000 0.000000 0.000000 0.023393 0.000000
# 6 0.000000 0.000000 0.000000 0.000000 0.000000 0.070638
#
#
# Mechanical properties :
#
#
# Convention : Reuss Voigt Hill
#
# Bulk Modulus (GPa) = 68.08135 74.24011 71.16073
# Shear Modulus (GPa) = 25.92205 31.44681 28.68443
#
# Velocity S-wave (km/s) = 3.35318 3.69327 3.52732
# Velocity P-wave (km/s) = 6.67251 7.09852 6.88881
#
# Compressibility (1/GPa) = 0.01468831
#
# Stress axis : x y z
#
# Youngs Moduli (GPa) = 118.58816 68.47139 103.69306
#
# Poissons Ratio (x) = 0.27524 0.25652
# Poissons Ratio (y) = 0.47670 0.25951
# Poissons Ratio (z) = 0.29337 0.17136
#
# Static dielectric constant tensor:
#      x y z
#    x 4.347720 0.000000 0.000000 
#    y 0.000000 4.064330 0.000000 
#    z 0.000000 0.000000 4.645770 
# 
# 
# High freq. dielectric constant tensor:
#      x y z
#    x 1.925700 0.000000 0.000000 
#    y 0.000000 1.881930 0.000000 
#    z 0.000000 0.000000 1.909200 
# 
# From -- ./inp_files/14983.got.cif
#   From: 2010.03.12/outbox.cif.g09.slc.cpg/sg70_8_cif.got.tgz:14983.got - 2010.04.16 13:46:32.
