data_PCOD8285167
_publ_section_title
;
Structure prediction by ZEFSAII (Michael W. Deem and Ramdas Pophale) SiO2 
 PCOD8285167
Probable space group: F M M M
;
_chemical_formula_sum "Si O2"
_cell_formula_units_Z 160
_cell_length_a 8.821034
_cell_length_b 28.880963
_cell_length_c 32.217174
_cell_angle_alpha 90.000000
_cell_angle_beta 90.000000
_cell_angle_gamma 90.000000
_cell_volume 8207.645849
_symmetry_space_group_name_H-M "F M M M"
_symmetry_group_IT_number 69
_symmetry_cell_setting 'orthorhombic'
loop_
_space_group_symop_operation_xyz
x,y,z
-x,-y,z
x,-y,-z
-x,y,-z
-x,-y,-z
x,y,-z
-x,y,z
x,-y,z
x,1/2+y,1/2+z
-x,1/2-y,1/2+z
x,1/2-y,1/2-z
-x,1/2+y,1/2-z
-x,1/2-y,1/2-z
x,1/2+y,1/2-z
-x,1/2+y,1/2+z
x,1/2-y,1/2+z
1/2+x,y,1/2+z
1/2-x,-y,1/2+z
1/2+x,-y,1/2-z
1/2-x,y,1/2-z
1/2-x,-y,1/2-z
1/2+x,y,1/2-z
1/2-x,y,1/2+z
1/2+x,-y,1/2+z
1/2+x,1/2+y,z
1/2-x,1/2-y,z
1/2+x,1/2-y,-z
1/2-x,1/2+y,-z
1/2-x,1/2-y,-z
1/2+x,1/2+y,-z
1/2-x,1/2+y,z
1/2+x,1/2-y,z
loop_
_atom_site_type_symbol
_atom_site_label
_atom_site_fract_x
_atom_site_fract_y
_atom_site_fract_z
Si Si1 0.177426 0.629780 0.634630
Si Si2 0.673532 0.053440 0.914398
Si Si3 0.169904 0.294285 0.088215
Si Si4 0.180731 0.700969 0.705684
Si Si5 0.835675 0.677187 0.000000
Si Si6 0.322897 0.915839 0.500000
O O1 0.256838 0.580582 0.625630
O O2 0.228498 0.660801 0.595987
O O3 0.228883 0.658275 0.675713
O O4 0.000000 0.621214 0.634833
O O5 0.500000 0.069079 0.919582
O O6 0.755154 0.061955 0.958232
O O7 0.688259 0.000000 0.902395
O O8 0.250000 0.250000 0.109118
O O9 0.000000 0.299011 0.106525
O O10 0.171058 0.288488 0.038919
O O11 0.250000 0.687946 0.750000
O O12 0.250000 0.750000 0.690053
O O13 0.000000 0.706055 0.708335
O O14 0.704649 0.639023 0.000000
O O15 0.000000 0.651075 0.000000
O O16 0.500000 0.926136 0.500000
#
# Coordination Sequence:
#
# PCOD8285167 Si02
#       6
#    32  32  32  32  16  16
#     4  11  23  38  58  86 116 147 188 237 288 341
#     4  11  24  41  61  84 113 151 194 241 294 349
#     4  11  22  35  53  76 109 151 192 234 280 334
#     4  10  21  37  60  90 122 155 190 229 276 334
#     4  10  21  36  52  73 106 149 192 232 280 333
#     4  12  23  36  59  84 111 148 194 246 296 343
#
# _framework density 19.494019000000002
#
# number of rings (size 3 to 8) (size 9 to 14) (size 15 to 20)
#    0.000    1.200    2.000    5.100    0.000    8.400 
#    0.000    0.000    0.000    0.600    0.000    0.000 
#    0.000    0.000    0.000    0.000    0.000    0.000 
#
# Total GULP energy -495812.109073 kJ/mol
# GULP energy per Si atom -12395.302727 kJ/mol
# Density = 1.944965 g / cm^3
# Si number density = 19.494019 Si / 1000 Ang^3
#
#
#
# Elastic Constant Matrix: (Units=GPa)
#
#
# Indices 1 2 3 4 5 6 
#
# 1 122.3646 55.8614 54.9966 0.0000 0.0000 0.0000
# 2 55.8614 108.2753 43.3266 0.0000 0.0000 0.0000
# 3 54.9966 43.3266 108.4133 0.0000 0.0000 0.0000
# 4 0.0000 0.0000 0.0000 20.4978 0.0000 0.0000
# 5 0.0000 0.0000 0.0000 0.0000 27.7921 0.0000
# 6 0.0000 0.0000 0.0000 0.0000 0.0000 32.4424
#
#
#
# Elastic Compliance Matrix: (Units=1/GPa)
#
#
# Indices 1 2 3 4 5 6 
#
# 1 0.012218 -0.004551 -0.004379 0.000000 0.000000 0.000000
# 2 -0.004551 0.012689 -0.002762 0.000000 0.000000 0.000000
# 3 -0.004379 -0.002762 0.012549 0.000000 0.000000 0.000000
# 4 0.000000 0.000000 0.000000 0.048786 0.000000 0.000000
# 5 0.000000 0.000000 0.000000 0.000000 0.035981 0.000000
# 6 0.000000 0.000000 0.000000 0.000000 0.000000 0.030824
#
#
# Mechanical properties :
#
#
# Convention : Reuss Voigt Hill
#
# Bulk Modulus (GPa) = 71.06755 71.93583 71.50169
# Shear Modulus (GPa) = 27.60541 28.47106 28.03823
#
# Velocity S-wave (km/s) = 3.76719 3.82580 3.79661
# Velocity P-wave (km/s) = 7.44698 7.51646 7.48180
#
# Compressibility (1/GPa) = 0.01407112
#
# Stress axis : x y z
#
# Youngs Moduli (GPa) = 81.84449 78.80744 79.68467
#
# Poissons Ratio (x) = 0.35867 0.34896
# Poissons Ratio (y) = 0.37250 0.22012
# Poissons Ratio (z) = 0.35842 0.21769
#
# Static dielectric constant tensor:
#      x y z
#    x 3.837440 0.000000 0.000000 
#    y 0.000000 3.532670 0.000000 
#    z 0.000000 0.000000 3.519420 
# 
# 
# High freq. dielectric constant tensor:
#      x y z
#    x 1.775040 0.000000 0.000000 
#    y 0.000000 1.748850 0.000000 
#    z 0.000000 0.000000 1.746120 
# 
# From -- ./inp_files/44585.got.cif
#   From: 2010.03.12/outbox.cif.g09.slc.cpg/sg69_23_cif.got.tgz:44585.got - 2010.04.10 23:52:46.
