data_PCOD8285292
_publ_section_title
;
Structure prediction by ZEFSAII (Michael W. Deem and Ramdas Pophale) SiO2 
 PCOD8285292
Probable space group: F M M M
;
_chemical_formula_sum "Si O2"
_cell_formula_units_Z 176
_cell_length_a 26.631417
_cell_length_b 17.094595
_cell_length_c 18.748934
_cell_angle_alpha 90.000000
_cell_angle_beta 90.000000
_cell_angle_gamma 90.000000
_cell_volume 8535.513848
_symmetry_space_group_name_H-M "F M M M"
_symmetry_group_IT_number 69
_symmetry_cell_setting 'orthorhombic'
loop_
_space_group_symop_operation_xyz
x,y,z
-x,-y,z
x,-y,-z
-x,y,-z
-x,-y,-z
x,y,-z
-x,y,z
x,-y,z
x,1/2+y,1/2+z
-x,1/2-y,1/2+z
x,1/2-y,1/2-z
-x,1/2+y,1/2-z
-x,1/2-y,1/2-z
x,1/2+y,1/2-z
-x,1/2+y,1/2+z
x,1/2-y,1/2+z
1/2+x,y,1/2+z
1/2-x,-y,1/2+z
1/2+x,-y,1/2-z
1/2-x,y,1/2-z
1/2-x,-y,1/2-z
1/2+x,y,1/2-z
1/2-x,y,1/2+z
1/2+x,-y,1/2+z
1/2+x,1/2+y,z
1/2-x,1/2-y,z
1/2+x,1/2-y,-z
1/2-x,1/2+y,-z
1/2-x,1/2-y,-z
1/2+x,1/2+y,-z
1/2-x,1/2+y,z
1/2+x,1/2-y,z
loop_
_atom_site_type_symbol
_atom_site_label
_atom_site_fract_x
_atom_site_fract_y
_atom_site_fract_z
Si Si1 0.783091 0.910414 0.815127
Si Si2 0.058168 0.000000 0.084443
Si Si3 0.558987 0.089493 0.192764
Si Si4 0.221904 0.325706 0.082064
Si Si5 0.893179 0.356999 0.335130
Si Si6 0.105733 0.801553 0.583958
O O1 0.750000 0.877134 0.750000
O O2 0.746693 0.902370 0.883182
O O3 0.833310 0.860586 0.826573
O O4 0.798490 0.000000 0.802712
O O5 0.085765 0.074987 0.115252
O O6 0.000000 0.000000 0.108453
O O7 0.063746 0.000000 0.000000
O O8 0.500000 0.091576 0.202737
O O9 0.583367 0.139487 0.256444
O O10 0.573400 0.127760 0.117002
O O11 0.578759 0.000000 0.194993
O O12 0.250000 0.250000 0.114789
O O13 0.163304 0.322517 0.097453
O O14 0.234606 0.332252 0.000000
O O15 0.908682 0.277455 0.374695
O O16 0.093360 0.792948 0.500000
#
# Coordination Sequence:
#
# PCOD8285292 Si02
#       6
#    32  16  32  32  32  32
#     4  11  23  38  60  95 131 168 214 262 310 378
#     4  11  24  40  63  96 133 171 212 267 335 400
#     4  11  25  46  70  94 128 174 222 272 330 393
#     4  10  21  39  60  87 126 168 205 248 306 373
#     4  12  22  42  68  97 131 173 217 272 330 395
#     4  11  25  43  67 100 134 169 219 274 327 389
#
# _framework density 20.619731000000002
#
# number of rings (size 3 to 8) (size 9 to 14) (size 15 to 20)
#    0.000    1.000    3.636    2.727    0.000    6.545 
#    0.000    2.727    0.000    0.000    0.000    0.000 
#    0.000    0.000    0.000    0.000    0.000    0.000 
#
# Total GULP energy -545756.061697 kJ/mol
# GULP energy per Si atom -12403.546857 kJ/mol
# Density = 2.057280 g / cm^3
# Si number density = 20.619731 Si / 1000 Ang^3
#
#
#
# Elastic Constant Matrix: (Units=GPa)
#
#
# Indices 1 2 3 4 5 6 
#
# 1 84.5024 40.2177 54.2176 0.0000 0.0000 0.0000
# 2 40.2177 86.0260 61.4529 0.0000 0.0000 0.0000
# 3 54.2176 61.4529 111.8801 0.0000 0.0000 0.0000
# 4 0.0000 0.0000 0.0000 504.1217 0.0000 0.0000
# 5 0.0000 0.0000 0.0000 0.0000 33.8306 0.0000
# 6 0.0000 0.0000 0.0000 0.0000 0.0000 29.3356
#
#
#
# Elastic Compliance Matrix: (Units=1/GPa)
#
#
# Indices 1 2 3 4 5 6 
#
# 1 0.017811 -0.003556 -0.006678 0.000000 0.000000 0.000000
# 2 -0.003556 0.019841 -0.009175 0.000000 0.000000 0.000000
# 3 -0.006678 -0.009175 0.017214 0.000000 0.000000 0.000000
# 4 0.000000 0.000000 0.000000 0.001984 0.000000 0.000000
# 5 0.000000 0.000000 0.000000 0.000000 0.029559 0.000000
# 6 0.000000 0.000000 0.000000 0.000000 0.000000 0.034088
#
#
# Mechanical properties :
#
#
# Convention : Reuss Voigt Hill
#
# Bulk Modulus (GPa) = 62.31377 66.02054 64.16716
# Shear Modulus (GPa) = 30.36476 121.89226 76.12851
#
# Velocity S-wave (km/s) = 3.84162 7.69693 6.08279
# Velocity P-wave (km/s) = 7.06848 10.53935 8.97333
#
# Compressibility (1/GPa) = 0.01604782
#
# Stress axis : x y z
#
# Youngs Moduli (GPa) = 56.14423 50.40055 58.09307
#
# Poissons Ratio (x) = 0.17925 0.38794
# Poissons Ratio (y) = 0.19967 0.53299
# Poissons Ratio (z) = 0.37493 0.46241
#
# Static dielectric constant tensor:
#      x y z
#    x 3.763030 0.000000 0.000000 
#    y 0.000000 3.767450 0.000000 
#    z 0.000000 0.000000 3.818750 
# 
# 
# High freq. dielectric constant tensor:
#      x y z
#    x 1.815530 0.000000 0.000000 
#    y 0.000000 1.805310 0.000000 
#    z 0.000000 0.000000 1.816800 
# 
# From -- ./inp_files/26758.got.cif
#   From: 2010.03.12/outbox.cif.g09.slc.cpg/sg69_14_cif.got.tgz:26758.got - 2010.04.10 23:52:46.
