data_PCOD8285742
_publ_section_title
;
Structure prediction by ZEFSAII (Michael W. Deem and Ramdas Pophale) SiO2 
 PCOD8285742
Probable space group: F D D D
;
_chemical_formula_sum "Si O2"
_cell_formula_units_Z 192
_cell_length_a 31.004378
_cell_length_b 27.211720
_cell_length_c 13.047102
_cell_angle_alpha 90.000000
_cell_angle_beta 90.000000
_cell_angle_gamma 90.000000
_cell_volume 11007.611019
_symmetry_space_group_name_H-M "F D D D"
_symmetry_group_IT_number 70
_space_group.IT_coordinate_system_code '2'
_symmetry_cell_setting 'orthorhombic'
loop_
_space_group_symop_operation_xyz
x,y,z
1/4-x,1/4-y,z
x,1/4-y,1/4-z
1/4-x,y,1/4-z
-x,-y,-z
3/4+x,3/4+y,-z
-x,3/4+y,3/4+z
3/4+x,-y,3/4+z
x,1/2+y,1/2+z
1/4-x,3/4-y,1/2+z
x,3/4-y,3/4-z
1/4-x,1/2+y,3/4-z
-x,1/2-y,1/2-z
3/4+x,1/4+y,1/2-z
-x,1/4+y,1/4+z
3/4+x,1/2-y,1/4+z
1/2+x,y,1/2+z
3/4-x,1/4-y,1/2+z
1/2+x,1/4-y,3/4-z
3/4-x,y,3/4-z
1/2-x,-y,1/2-z
1/4+x,3/4+y,1/2-z
1/2-x,3/4+y,1/4+z
1/4+x,-y,1/4+z
1/2+x,1/2+y,z
3/4-x,3/4-y,z
1/2+x,3/4-y,1/4-z
3/4-x,1/2+y,1/4-z
1/2-x,1/2-y,-z
1/4+x,1/4+y,-z
1/2-x,1/4+y,3/4+z
1/4+x,1/2-y,3/4+z
loop_
_atom_site_type_symbol
_atom_site_label
_atom_site_fract_x
_atom_site_fract_y
_atom_site_fract_z
Si Si1 0.233310 0.090457 0.766099
Si Si2 0.984323 0.062506 0.699793
Si Si3 0.858431 0.193678 0.690288
Si Si4 0.219792 0.966820 0.568790
Si Si5 0.861068 0.092715 0.988017
Si Si6 0.592758 0.221937 0.208715
O O1 0.232703 0.149484 0.754744
O O2 0.262345 0.068033 0.673549
O O3 0.253340 0.075965 0.875451
O O4 0.183942 0.071469 0.762788
O O5 0.936734 0.074167 0.738354
O O6 0.997812 0.007241 0.730172
O O7 0.809186 0.192887 0.729811
O O8 0.856777 0.183007 0.569092
O O9 0.886051 0.151678 0.749422
O O10 0.880615 0.246484 0.708424
O O11 0.189885 0.991763 0.653005
O O12 0.875000 0.076386 0.875000
O O13 0.625000 0.198384 0.125000
#
# Coordination Sequence:
#
# PCOD8285742 Si02
#       6
#    32  32  32  32  32  32
#     4  10  17  28  46  69  97 131 161 194 245 303
#     4  10  19  30  46  71  99 129 164 200 246 308
#     4  10  19  31  47  71  96 123 160 202 247 299
#     4  10  18  30  47  68  98 129 158 200 249 295
#     4  11  20  32  50  70  93 124 162 205 247 296
#     4   9  16  27  44  66  95 125 154 191 237 293
#
# _framework density 17.442477
#
# number of rings (size 3 to 8) (size 9 to 14) (size 15 to 20)
#    0.000    2.000    0.000    9.500    0.000    0.000 
#    0.000   15.000    0.000    0.000    0.000    0.000 
#    0.000    5.333    0.000    0.000    0.000    0.000 
#
# Total GULP energy -595104.950879 kJ/mol
# GULP energy per Si atom -12398.019810 kJ/mol
# Density = 1.740278 g / cm^3
# Si number density = 17.442477 Si / 1000 Ang^3
#
#
#
# Elastic Constant Matrix: (Units=GPa)
#
#
# Indices 1 2 3 4 5 6 
#
# 1 95.1823 43.5816 50.5535 0.0004 -0.0001 0.0001
# 2 43.5816 78.0008 44.9550 0.0003 -0.0002 0.0000
# 3 50.5535 44.9550 103.1621 0.0028 -0.0012 -0.0001
# 4 0.0004 0.0003 0.0028 17.3491 -0.0007 -0.0001
# 5 -0.0001 -0.0002 -0.0012 -0.0007 22.4242 0.0000
# 6 0.0001 0.0000 -0.0001 -0.0001 0.0000 26.2543
#
#
#
# Elastic Compliance Matrix: (Units=1/GPa)
#
#
# Indices 1 2 3 4 5 6 
#
# 1 0.016011 -0.005908 -0.005272 0.000001 0.000000 0.000000
# 2 -0.005908 0.019300 -0.005515 0.000001 0.000000 0.000000
# 3 -0.005272 -0.005515 0.014680 -0.000002 0.000001 0.000000
# 4 0.000001 0.000001 -0.000002 0.057640 0.000002 0.000000
# 5 0.000000 0.000000 0.000001 0.000002 0.044595 0.000000
# 6 0.000000 0.000000 0.000000 0.000000 0.000000 0.038089
#
#
# Mechanical properties :
#
#
# Convention : Reuss Voigt Hill
#
# Bulk Modulus (GPa) = 60.23422 61.61395 60.92408
# Shear Modulus (GPa) = 21.81141 22.35586 22.08364
#
# Velocity S-wave (km/s) = 3.54004 3.58395 3.56207
# Velocity P-wave (km/s) = 7.16361 7.24756 7.20570
#
# Compressibility (1/GPa) = 0.01660186
#
# Stress axis : x y z
#
# Youngs Moduli (GPa) = 62.45700 51.81383 68.11876
#
# Poissons Ratio (x) = 0.30610 0.35910
# Poissons Ratio (y) = 0.36897 0.37570
# Poissons Ratio (z) = 0.32925 0.28577
#
# Static dielectric constant tensor:
#      x y z
#    x 3.383930 0.000000 0.000000 
#    y 0.000000 3.341440 0.000000 
#    z 0.000000 0.000000 3.085990 
# 
# 
# High freq. dielectric constant tensor:
#      x y z
#    x 1.670590 0.000000 0.000000 
#    y 0.000000 1.659340 0.000000 
#    z 0.000000 0.000000 1.636790 
# 
# From -- ./inp_files/31291.got.cif
#   From: 2010.03.12/outbox.cif.g09.slc.cpg/sg70_16_cif.got.tgz:31291.got - 2010.04.16 13:46:32.
