data_PCOD8285638
_publ_section_title
;
Structure prediction by ZEFSAII (Michael W. Deem and Ramdas Pophale) SiO2 
 PCOD8285638
Probable space group: F M M M
;
_chemical_formula_sum "Si O2"
_cell_formula_units_Z 80
_cell_length_a 9.924190
_cell_length_b 16.637732
_cell_length_c 22.345968
_cell_angle_alpha 90.000000
_cell_angle_beta 90.000000
_cell_angle_gamma 90.000000
_cell_volume 3689.677155
_symmetry_space_group_name_H-M "F M M M"
_symmetry_group_IT_number 69
_symmetry_cell_setting 'orthorhombic'
loop_
_space_group_symop_operation_xyz
x,y,z
-x,-y,z
x,-y,-z
-x,y,-z
-x,-y,-z
x,y,-z
-x,y,z
x,-y,z
x,1/2+y,1/2+z
-x,1/2-y,1/2+z
x,1/2-y,1/2-z
-x,1/2+y,1/2-z
-x,1/2-y,1/2-z
x,1/2+y,1/2-z
-x,1/2+y,1/2+z
x,1/2-y,1/2+z
1/2+x,y,1/2+z
1/2-x,-y,1/2+z
1/2+x,-y,1/2-z
1/2-x,y,1/2-z
1/2-x,-y,1/2-z
1/2+x,y,1/2-z
1/2-x,y,1/2+z
1/2+x,-y,1/2+z
1/2+x,1/2+y,z
1/2-x,1/2-y,z
1/2+x,1/2-y,-z
1/2-x,1/2+y,-z
1/2-x,1/2-y,-z
1/2+x,1/2+y,-z
1/2-x,1/2+y,z
1/2+x,1/2-y,z
loop_
_atom_site_type_symbol
_atom_site_label
_atom_site_fract_x
_atom_site_fract_y
_atom_site_fract_z
Si Si1 0.742547 0.908548 0.618749
Si Si2 0.500000 0.327372 0.669119
Si Si3 0.846915 0.325752 0.500000
Si Si4 0.500000 0.640535 0.194990
O O1 0.868819 0.852075 0.632376
O O2 0.675640 0.881233 0.557292
O O3 0.633434 0.902873 0.671520
O O4 0.792508 0.000000 0.613229
O O5 0.500000 0.368907 0.733732
O O6 0.500000 0.232129 0.673928
O O7 0.750000 0.250000 0.500000
O O8 0.000000 0.293776 0.500000
#
# Coordination Sequence:
#
# PCOD8285638 Si02
#       4
#    32  16  16  16
#     4  12  26  43  69 102 138 176 221 281 341 396
#     4  11  25  44  67 102 137 181 227 279 326 399
#     4  12  27  47  74 100 132 178 228 276 334 408
#     4  11  23  44  71  96 137 183 233 271 328 397
#
# _framework density 21.682113000000001
#
# number of rings (size 3 to 8) (size 9 to 14) (size 15 to 20)
#    0.000    0.400    2.000    6.600    2.800    8.800 
#    0.000    2.000    0.000    0.000    0.000    0.000 
#    0.000    0.000    0.000    0.000    0.000    0.000 
#
# Total GULP energy -248206.339364 kJ/mol
# GULP energy per Si atom -12410.316968 kJ/mol
# Density = 2.163276 g / cm^3
# Si number density = 21.682113 Si / 1000 Ang^3
#
#
#
# Elastic Constant Matrix: (Units=GPa)
#
#
# Indices 1 2 3 4 5 6 
#
# 1 147.9157 12.4817 31.9658 0.0000 0.0000 0.0000
# 2 12.4817 90.6599 18.7797 0.0000 0.0000 0.0000
# 3 31.9658 18.7797 107.6191 0.0000 0.0000 0.0000
# 4 0.0000 0.0000 0.0000 20.5016 0.0000 0.0000
# 5 0.0000 0.0000 0.0000 0.0000 41.2148 0.0000
# 6 0.0000 0.0000 0.0000 0.0000 0.0000 22.6160
#
#
#
# Elastic Compliance Matrix: (Units=1/GPa)
#
#
# Indices 1 2 3 4 5 6 
#
# 1 0.007253 -0.000573 -0.002054 0.000000 0.000000 0.000000
# 2 -0.000573 0.011489 -0.001835 0.000000 0.000000 0.000000
# 3 -0.002054 -0.001835 0.010222 0.000000 0.000000 0.000000
# 4 0.000000 0.000000 0.000000 0.048777 0.000000 0.000000
# 5 0.000000 0.000000 0.000000 0.000000 0.024263 0.000000
# 6 0.000000 0.000000 0.000000 0.000000 0.000000 0.044217
#
#
# Mechanical properties :
#
#
# Convention : Reuss Voigt Hill
#
# Bulk Modulus (GPa) = 49.89912 52.51657 51.20784
# Shear Modulus (GPa) = 30.89759 35.73098 33.31429
#
# Velocity S-wave (km/s) = 3.77905 4.06390 3.92406
# Velocity P-wave (km/s) = 6.48888 6.80397 6.64829
#
# Compressibility (1/GPa) = 0.02004043
#
# Stress axis : x y z
#
# Youngs Moduli (GPa) = 137.87555 87.03848 97.82465
#
# Poissons Ratio (x) = 0.04987 0.20096
# Poissons Ratio (y) = 0.07900 0.17948
# Poissons Ratio (z) = 0.28324 0.15969
#
# Static dielectric constant tensor:
#      x y z
#    x 4.139090 0.000000 0.000000 
#    y 0.000000 3.858060 0.000000 
#    z 0.000000 0.000000 4.154040 
# 
# 
# High freq. dielectric constant tensor:
#      x y z
#    x 1.864500 0.000000 0.000000 
#    y 0.000000 1.859410 0.000000 
#    z 0.000000 0.000000 1.867030 
# 
# From -- ./inp_files/7845.got.cif
#   From: 2010.03.12/outbox.cif.g09.slc.cpg/sg69_4_cif.got.tgz:7845.got - 2010.04.10 23:52:46.
