data_PCOD8285210
_publ_section_title
;
Structure prediction by ZEFSAII (Michael W. Deem and Ramdas Pophale) SiO2 
 PCOD8285210
Probable space group: F M M M
;
_chemical_formula_sum "Si O2"
_cell_formula_units_Z 176
_cell_length_a 17.374102
_cell_length_b 22.970912
_cell_length_c 23.388156
_cell_angle_alpha 90.000000
_cell_angle_beta 90.000000
_cell_angle_gamma 90.000000
_cell_volume 9334.188926
_symmetry_space_group_name_H-M "F M M M"
_symmetry_group_IT_number 69
_symmetry_cell_setting 'orthorhombic'
loop_
_space_group_symop_operation_xyz
x,y,z
-x,-y,z
x,-y,-z
-x,y,-z
-x,-y,-z
x,y,-z
-x,y,z
x,-y,z
x,1/2+y,1/2+z
-x,1/2-y,1/2+z
x,1/2-y,1/2-z
-x,1/2+y,1/2-z
-x,1/2-y,1/2-z
x,1/2+y,1/2-z
-x,1/2+y,1/2+z
x,1/2-y,1/2+z
1/2+x,y,1/2+z
1/2-x,-y,1/2+z
1/2+x,-y,1/2-z
1/2-x,y,1/2-z
1/2-x,-y,1/2-z
1/2+x,y,1/2-z
1/2-x,y,1/2+z
1/2+x,-y,1/2+z
1/2+x,1/2+y,z
1/2-x,1/2-y,z
1/2+x,1/2-y,-z
1/2-x,1/2+y,-z
1/2-x,1/2-y,-z
1/2+x,1/2+y,-z
1/2-x,1/2+y,z
1/2+x,1/2-y,z
loop_
_atom_site_type_symbol
_atom_site_label
_atom_site_fract_x
_atom_site_fract_y
_atom_site_fract_z
Si Si1 0.141765 0.633013 0.114072
Si Si2 0.000000 0.936025 0.433886
Si Si3 0.841149 0.249584 0.936725
Si Si4 0.188045 0.376698 0.433052
Si Si5 0.416741 0.932567 0.654207
Si Si6 0.409358 0.432616 0.719426
O O1 0.076469 0.598371 0.081292
O O2 0.126182 0.703005 0.108512
O O3 0.222867 0.621724 0.083757
O O4 0.140823 0.610501 0.179266
O O5 0.000000 0.946623 0.500000
O O6 0.000000 0.000000 0.403411
O O7 0.750000 0.250000 0.941605
O O8 0.858031 0.183214 0.917886
O O9 0.875664 0.263254 0.000000
O O10 0.180896 0.391432 0.500000
O O11 0.145428 0.424425 0.395224
O O12 0.500000 0.905495 0.636847
O O13 0.391027 0.909042 0.716696
O O14 0.428443 0.000000 0.664439
O O15 0.500000 0.425689 0.704650
O O16 0.383737 0.500000 0.710598
#
# Coordination Sequence:
#
# PCOD8285210 Si02
#       6
#    32  16  32  32  32  32
#     4  11  19  33  56  80 111 149 182 216 268 328
#     4  11  22  32  46  78 121 154 180 216 265 330
#     4   8  16  33  53  73 104 145 184 222 263 313
#     4  10  21  37  57  81 109 143 185 232 277 326
#     4   9  20  39  59  77 103 141 184 234 285 327
#     4   9  18  35  56  78 109 148 184 218 266 330
#
# _framework density 18.855414
#
# number of rings (size 3 to 8) (size 9 to 14) (size 15 to 20)
#    0.000    2.455    0.909    4.364    0.000    2.909 
#    1.636    3.636    0.000    5.455    0.000    0.000 
#    0.000    0.000    0.000    0.000    0.000    0.000 
#
# Total GULP energy -545152.174783 kJ/mol
# GULP energy per Si atom -12389.822154 kJ/mol
# Density = 1.881250 g / cm^3
# Si number density = 18.855414 Si / 1000 Ang^3
#
#
#
# Elastic Constant Matrix: (Units=GPa)
#
#
# Indices 1 2 3 4 5 6 
#
# 1 73.9393 41.5722 53.2738 0.0000 0.0000 0.0000
# 2 41.5722 73.1375 45.6122 0.0000 0.0000 0.0000
# 3 53.2738 45.6122 128.0765 0.0000 0.0000 0.0000
# 4 0.0000 0.0000 0.0000 -64.1677 0.0000 0.0000
# 5 0.0000 0.0000 0.0000 0.0000 29.8274 0.0000
# 6 0.0000 0.0000 0.0000 0.0000 0.0000 35.6784
#
#
#
# Elastic Compliance Matrix: (Units=1/GPa)
#
#
# Indices 1 2 3 4 5 6 
#
# 1 0.023363 -0.009280 -0.006413 0.000000 0.000000 0.000000
# 2 -0.009280 0.021263 -0.003712 0.000000 0.000000 0.000000
# 3 -0.006413 -0.003712 0.011797 0.000000 0.000000 0.000000
# 4 0.000000 0.000000 0.000000 -0.015584 0.000000 0.000000
# 5 0.000000 0.000000 0.000000 0.000000 0.033526 0.000000
# 6 0.000000 0.000000 0.000000 0.000000 0.000000 0.028028
#
#
# Mechanical properties :
#
#
# Convention : Reuss Voigt Hill
#
# Bulk Modulus (GPa) = 56.77822 61.78551 59.28187
# Shear Modulus (GPa) = 33.99613 9.24730 21.62171
#
# Velocity S-wave (km/s) = 4.25077 2.21697 3.38999
# Velocity P-wave (km/s) = 7.36681 6.27634 6.84333
#
# Compressibility (1/GPa) = 0.01761239
#
# Stress axis : x y z
#
# Youngs Moduli (GPa) = 42.80268 47.02978 84.76490
#
# Poissons Ratio (x) = 0.43646 0.54359
# Poissons Ratio (y) = 0.39723 0.31467
# Poissons Ratio (z) = 0.27449 0.17459
#
# Static dielectric constant tensor:
#      x y z
#    x 3.224160 0.000000 0.000000 
#    y 0.000000 3.794790 0.000000 
#    z 0.000000 0.000000 3.527430 
# 
# 
# High freq. dielectric constant tensor:
#      x y z
#    x 1.715240 0.000000 0.000000 
#    y 0.000000 1.723060 0.000000 
#    z 0.000000 0.000000 1.733340 
# 
# From -- ./inp_files/35931.got.cif
#   From: 2010.03.12/outbox.cif.g09.slc.cpg/sg69_18_cif.got.tgz:35931.got - 2010.04.10 23:52:46.
