data_PCOD8285861
_publ_section_title
;
Structure prediction by ZEFSAII (Michael W. Deem and Ramdas Pophale) SiO2 
 PCOD8285861
Probable space group: F D D D
;
_chemical_formula_sum "Si O2"
_cell_formula_units_Z 184
_cell_length_a 23.625203
_cell_length_b 23.618081
_cell_length_c 18.666200
_cell_angle_alpha 90.000000
_cell_angle_beta 90.000000
_cell_angle_gamma 90.000000
_cell_volume 10415.402826
_symmetry_space_group_name_H-M "F D D D"
_symmetry_group_IT_number 70
_space_group.IT_coordinate_system_code '2'
_symmetry_cell_setting 'orthorhombic'
loop_
_space_group_symop_operation_xyz
x,y,z
1/4-x,1/4-y,z
x,1/4-y,1/4-z
1/4-x,y,1/4-z
-x,-y,-z
3/4+x,3/4+y,-z
-x,3/4+y,3/4+z
3/4+x,-y,3/4+z
x,1/2+y,1/2+z
1/4-x,3/4-y,1/2+z
x,3/4-y,3/4-z
1/4-x,1/2+y,3/4-z
-x,1/2-y,1/2-z
3/4+x,1/4+y,1/2-z
-x,1/4+y,1/4+z
3/4+x,1/2-y,1/4+z
1/2+x,y,1/2+z
3/4-x,1/4-y,1/2+z
1/2+x,1/4-y,3/4-z
3/4-x,y,3/4-z
1/2-x,-y,1/2-z
1/4+x,3/4+y,1/2-z
1/2-x,3/4+y,1/4+z
1/4+x,-y,1/4+z
1/2+x,1/2+y,z
3/4-x,3/4-y,z
1/2+x,3/4-y,1/4-z
3/4-x,1/2+y,1/4-z
1/2-x,1/2-y,-z
1/4+x,1/4+y,-z
1/2-x,1/4+y,3/4+z
1/4+x,1/2-y,3/4+z
loop_
_atom_site_type_symbol
_atom_site_label
_atom_site_fract_x
_atom_site_fract_y
_atom_site_fract_z
Si Si1 0.049863 0.425386 0.739267
Si Si2 0.668829 0.672150 0.773420
Si Si3 0.139354 0.375000 0.375000
Si Si4 0.946163 0.306602 0.484206
Si Si5 0.577864 0.301885 0.989202
Si Si6 0.875000 0.615910 0.875000
Si Si7 0.625000 0.125000 0.625000
Si Si8 0.125000 0.125000 0.906714
O O1 0.073260 0.402435 0.813499
O O2 0.065873 0.490670 0.738454
O O3 0.076974 0.401915 0.665801
O O4 0.983918 0.408831 0.743771
O O5 0.625000 0.625000 0.738059
O O6 0.654845 0.736218 0.750750
O O7 0.661206 0.668923 0.859040
O O8 0.103588 0.326922 0.415951
O O9 0.916133 0.333076 0.416156
O O10 0.920719 0.338726 0.551576
O O11 0.012502 0.315381 0.480056
O O12 0.596605 0.328899 0.063551
#
# Coordination Sequence:
#
# PCOD8285861 Si02
#       8
#    32  32  16  32  32  16   8  16
#     4  10  20  37  55  80 109 144 180 225 272 321
#     4   9  20  37  54  78 106 140 181 228 270 318
#     4  10  21  36  55  79 108 143 182 222 272 324
#     4  10  19  33  55  80 111 143 173 221 266 327
#     4  10  20  37  55  80 109 144 180 225 272 321
#     4  10  21  36  55  79 108 143 182 222 272 324
#     4  10  20  32  52  88 112 142 180 206 268 338
#     4   9  18  33  54  81 108 139 180 218 272 319
#
# _framework density 17.666143999999999
#
# number of rings (size 3 to 8) (size 9 to 14) (size 15 to 20)
#    0.522    1.739    0.000    3.130    0.000    0.000 
#    6.261    1.739    0.000   16.696    0.000    0.000 
#    0.000    0.000    0.000    0.000    0.000    0.000 
#
# Total GULP energy -569875.884880 kJ/mol
# GULP energy per Si atom -12388.606193 kJ/mol
# Density = 1.762594 g / cm^3
# Si number density = 17.666144 Si / 1000 Ang^3
#
#
#
# Elastic Constant Matrix: (Units=GPa)
#
#
# Indices 1 2 3 4 5 6 
#
# 1 83.4130 50.4173 20.9111 0.0000 0.0000 0.0000
# 2 50.4173 75.0624 13.5662 0.0000 0.0000 0.0000
# 3 20.9111 13.5662 85.1024 0.0000 0.0000 0.0000
# 4 0.0000 0.0000 0.0000 26.6646 0.0000 0.0000
# 5 0.0000 0.0000 0.0000 0.0000 30.1345 0.0000
# 6 0.0000 0.0000 0.0000 0.0000 0.0000 34.0570
#
#
#
# Elastic Compliance Matrix: (Units=1/GPa)
#
#
# Indices 1 2 3 4 5 6 
#
# 1 0.020892 -0.013494 -0.002983 0.000000 0.000000 0.000000
# 2 -0.013494 0.022433 -0.000260 0.000000 0.000000 0.000000
# 3 -0.002983 -0.000260 0.012525 0.000000 0.000000 0.000000
# 4 0.000000 0.000000 0.000000 0.037503 0.000000 0.000000
# 5 0.000000 0.000000 0.000000 0.000000 0.033185 0.000000
# 6 0.000000 0.000000 0.000000 0.000000 0.000000 0.029363
#
#
# Mechanical properties :
#
#
# Convention : Reuss Voigt Hill
#
# Bulk Modulus (GPa) = 44.68957 45.92968 45.30962
# Shear Modulus (GPa) = 25.40238 28.75009 27.07623
#
# Velocity S-wave (km/s) = 3.79610 4.03850 3.91917
# Velocity P-wave (km/s) = 6.67574 6.91383 6.79583
#
# Compressibility (1/GPa) = 0.02237659
#
# Stress axis : x y z
#
# Youngs Moduli (GPa) = 47.86464 44.57788 79.84090
#
# Poissons Ratio (x) = 0.60152 0.23813
# Poissons Ratio (y) = 0.64587 0.02079
# Poissons Ratio (z) = 0.14276 0.01161
#
# Static dielectric constant tensor:
#      x y z
#    x 3.556640 0.000000 0.000000 
#    y 0.000000 3.511010 0.000000 
#    z 0.000000 0.000000 3.270120 
# 
# 
# High freq. dielectric constant tensor:
#      x y z
#    x 1.693210 0.000000 0.000000 
#    y 0.000000 1.692740 0.000000 
#    z 0.000000 0.000000 1.687600 
# 
# From -- ./inp_files/37631.got.cif
#   From: 2010.03.12/outbox.cif.g09.slc.cpg/sg70_19_cif.got.tgz:37631.got - 2010.04.16 13:46:32.
