data_PCOD8285828
_publ_section_title
;
Structure prediction by ZEFSAII (Michael W. Deem and Ramdas Pophale) SiO2 
 PCOD8285828
Probable space group: F D D D
;
_chemical_formula_sum "Si O2"
_cell_formula_units_Z 216
_cell_length_a 13.785130
_cell_length_b 29.895740
_cell_length_c 23.816415
_cell_angle_alpha 90.000000
_cell_angle_beta 90.000000
_cell_angle_gamma 90.000000
_cell_volume 9815.141459
_symmetry_space_group_name_H-M "F D D D"
_symmetry_group_IT_number 70
_space_group.IT_coordinate_system_code '2'
_symmetry_cell_setting 'orthorhombic'
loop_
_space_group_symop_operation_xyz
x,y,z
1/4-x,1/4-y,z
x,1/4-y,1/4-z
1/4-x,y,1/4-z
-x,-y,-z
3/4+x,3/4+y,-z
-x,3/4+y,3/4+z
3/4+x,-y,3/4+z
x,1/2+y,1/2+z
1/4-x,3/4-y,1/2+z
x,3/4-y,3/4-z
1/4-x,1/2+y,3/4-z
-x,1/2-y,1/2-z
3/4+x,1/4+y,1/2-z
-x,1/4+y,1/4+z
3/4+x,1/2-y,1/4+z
1/2+x,y,1/2+z
3/4-x,1/4-y,1/2+z
1/2+x,1/4-y,3/4-z
3/4-x,y,3/4-z
1/2-x,-y,1/2-z
1/4+x,3/4+y,1/2-z
1/2-x,3/4+y,1/4+z
1/4+x,-y,1/4+z
1/2+x,1/2+y,z
3/4-x,3/4-y,z
1/2+x,3/4-y,1/4-z
3/4-x,1/2+y,1/4-z
1/2-x,1/2-y,-z
1/4+x,1/4+y,-z
1/2-x,1/4+y,3/4+z
1/4+x,1/2-y,3/4+z
loop_
_atom_site_type_symbol
_atom_site_label
_atom_site_fract_x
_atom_site_fract_y
_atom_site_fract_z
Si Si1 0.855419 0.116134 0.740648
Si Si2 0.341359 0.481036 0.603981
Si Si3 0.517260 0.690728 0.041536
Si Si4 0.726179 0.036665 0.106577
Si Si5 0.807102 0.125000 0.125000
Si Si6 0.806101 0.334422 0.741476
Si Si7 0.875000 0.375000 0.375000
Si Si8 0.455244 0.293485 0.723684
O O1 0.821532 0.167968 0.743322
O O2 0.878480 0.105703 0.675391
O O3 0.764135 0.086796 0.758152
O O4 0.951846 0.105924 0.777304
O O5 0.270978 0.516851 0.575448
O O6 0.440782 0.501543 0.627578
O O7 0.358753 0.441142 0.559524
O O8 0.287359 0.459308 0.656764
O O9 0.557490 0.655704 0.086582
O O10 0.595577 0.704192 0.995365
O O11 0.625000 0.014547 0.125000
O O12 0.741768 0.082373 0.143151
O O13 0.718439 0.048865 0.040594
O O14 0.875000 0.375000 0.761870
O O15 0.500000 0.250000 0.750000
#
# Coordination Sequence:
#
# PCOD8285828 Si02
#       8
#    32  32  32  32  16  32   8  32
#     4  11  22  41  69  97 135 185 232 290 353 426
#     4  12  27  46  69 104 150 184 239 304 365 443
#     4  12  24  41  70 108 141 186 249 296 366 434
#     4  11  22  42  74 105 136 183 240 297 359 421
#     4  10  18  38  66 102 138 172 229 297 342 414
#     4  11  27  49  71 103 145 196 240 297 375 437
#     4  12  22  36  70 112 138 188 230 316 352 420
#     4  12  25  43  65 103 147 189 234 298 368 436
#
# _framework density 22.006815
#
# number of rings (size 3 to 8) (size 9 to 14) (size 15 to 20)
#    0.000    0.593    2.963    6.889    2.074    3.556 
#    2.667    0.000    0.000    0.000    0.000    0.000 
#    0.000    0.000    0.000    0.000    0.000    0.000 
#
# Total GULP energy -669476.483834 kJ/mol
# GULP energy per Si atom -12397.712664 kJ/mol
# Density = 2.195673 g / cm^3
# Si number density = 22.006815 Si / 1000 Ang^3
#
#
#
# Elastic Constant Matrix: (Units=GPa)
#
#
# Indices 1 2 3 4 5 6 
#
# 1 120.7705 32.4959 44.5368 0.0000 0.0000 0.0000
# 2 32.4959 78.4762 55.9086 0.0000 0.0000 0.0000
# 3 44.5368 55.9086 126.0171 0.0000 0.0000 0.0000
# 4 0.0000 0.0000 0.0000 25.3412 0.0000 0.0000
# 5 0.0000 0.0000 0.0000 0.0000 17.5822 0.0000
# 6 0.0000 0.0000 0.0000 0.0000 0.0000 42.5786
#
#
#
# Elastic Compliance Matrix: (Units=1/GPa)
#
#
# Indices 1 2 3 4 5 6 
#
# 1 0.009803 -0.002326 -0.002433 0.000000 0.000000 0.000000
# 2 -0.002326 0.019184 -0.007689 0.000000 0.000000 0.000000
# 3 -0.002433 -0.007689 0.012206 0.000000 0.000000 0.000000
# 4 0.000000 0.000000 0.000000 0.039461 0.000000 0.000000
# 5 0.000000 0.000000 0.000000 0.000000 0.056876 0.000000
# 6 0.000000 0.000000 0.000000 0.000000 0.000000 0.023486
#
#
# Mechanical properties :
#
#
# Convention : Reuss Voigt Hill
#
# Bulk Modulus (GPa) = 61.35791 65.68293 63.52042
# Shear Modulus (GPa) = 26.13089 29.92191 28.02640
#
# Velocity S-wave (km/s) = 3.44961 3.69136 3.57253
# Velocity P-wave (km/s) = 6.61878 6.93395 6.77820
#
# Compressibility (1/GPa) = 0.01629782
#
# Stress axis : x y z
#
# Youngs Moduli (GPa) = 102.00788 52.12732 81.92442
#
# Poissons Ratio (x) = 0.12127 0.19928
# Poissons Ratio (y) = 0.23731 0.62991
# Poissons Ratio (z) = 0.24813 0.40080
#
# Static dielectric constant tensor:
#      x y z
#    x 3.287980 0.000000 0.000000 
#    y 0.000000 3.933290 0.000000 
#    z 0.000000 0.000000 3.871030 
# 
# 
# High freq. dielectric constant tensor:
#      x y z
#    x 1.879970 0.000000 0.000000 
#    y 0.000000 1.864760 0.000000 
#    z 0.000000 0.000000 1.851270 
# 
# From -- ./inp_files/51607.got.cif
#   From: 2010.03.12/outbox.cif.g09.slc.cpg/sg70_26_cif.got.tgz:51607.got - 2010.04.16 13:46:32.
