data_PCOD8285156
_publ_section_title
;
Structure prediction by ZEFSAII (Michael W. Deem and Ramdas Pophale) SiO2 
 PCOD8285156
Probable space group: F M M M
;
_chemical_formula_sum "Si O2"
_cell_formula_units_Z 160
_cell_length_a 25.842170
_cell_length_b 23.308052
_cell_length_c 14.685196
_cell_angle_alpha 90.000000
_cell_angle_beta 90.000000
_cell_angle_gamma 90.000000
_cell_volume 8845.343537
_symmetry_space_group_name_H-M "F M M M"
_symmetry_group_IT_number 69
_symmetry_cell_setting 'orthorhombic'
loop_
_space_group_symop_operation_xyz
x,y,z
-x,-y,z
x,-y,-z
-x,y,-z
-x,-y,-z
x,y,-z
-x,y,z
x,-y,z
x,1/2+y,1/2+z
-x,1/2-y,1/2+z
x,1/2-y,1/2-z
-x,1/2+y,1/2-z
-x,1/2-y,1/2-z
x,1/2+y,1/2-z
-x,1/2+y,1/2+z
x,1/2-y,1/2+z
1/2+x,y,1/2+z
1/2-x,-y,1/2+z
1/2+x,-y,1/2-z
1/2-x,y,1/2-z
1/2-x,-y,1/2-z
1/2+x,y,1/2-z
1/2-x,y,1/2+z
1/2+x,-y,1/2+z
1/2+x,1/2+y,z
1/2-x,1/2-y,z
1/2+x,1/2-y,-z
1/2-x,1/2+y,-z
1/2-x,1/2-y,-z
1/2+x,1/2+y,-z
1/2-x,1/2+y,z
1/2+x,1/2-y,z
loop_
_atom_site_type_symbol
_atom_site_label
_atom_site_fract_x
_atom_site_fract_y
_atom_site_fract_z
Si Si1 0.374491 0.771017 0.500000
Si Si2 0.058736 0.500000 0.107677
Si Si3 0.377424 0.609465 0.662844
Si Si4 0.299109 0.376510 0.000000
Si Si5 0.301812 0.567380 0.195045
Si Si6 0.057669 0.223441 0.652074
Si Si7 0.685098 0.653948 0.500000
O O1 0.346483 0.832112 0.500000
O O2 0.410424 0.766702 0.411324
O O3 0.334049 0.719075 0.500000
O O4 0.087911 0.445176 0.144682
O O5 0.000000 0.500000 0.144616
O O6 0.059487 0.500000 0.000000
O O7 0.349080 0.602430 0.759720
O O8 0.415584 0.662536 0.660233
O O9 0.333445 0.617682 0.586859
O O10 0.300014 0.416430 0.910975
O O11 0.246586 0.340350 0.000000
O O12 0.312375 0.500000 0.204132
O O13 0.250000 0.584237 0.250000
O O14 0.054665 0.250000 0.750000
O O15 0.000000 0.214901 0.611705
#
# Coordination Sequence:
#
# PCOD8285156 Si02
#       7
#    16  16  32  16  32  32  16
#     4  10  22  37  58  83 117 148 187 246 294 343
#     4  11  22  34  57  91 119 151 189 234 296 354
#     4  11  20  38  57  85 120 154 185 242 293 348
#     4  12  22  39  57  84 114 157 202 237 288 351
#     4  11  23  37  58  84 116 158 200 238 287 345
#     4  10  21  38  60  85 111 148 195 239 291 347
#     4  10  21  35  57  82 117 151 193 237 289 352
#
# _framework density 18.088612999999999
#
# number of rings (size 3 to 8) (size 9 to 14) (size 15 to 20)
#    0.000    1.300    4.000    2.700    0.000    0.000 
#    1.800    0.000    0.000    0.000    0.000    0.700 
#    0.000    0.000    0.000    0.000    0.000    0.000 
#
# Total GULP energy -496049.690337 kJ/mol
# GULP energy per Si atom -12401.242258 kJ/mol
# Density = 1.804744 g / cm^3
# Si number density = 18.088613 Si / 1000 Ang^3
#
#
#
# Elastic Constant Matrix: (Units=GPa)
#
#
# Indices 1 2 3 4 5 6 
#
# 1 121.1619 44.0004 42.3284 0.0000 0.0000 0.0000
# 2 44.0004 77.1037 26.8453 0.0000 0.0000 0.0000
# 3 42.3284 26.8453 112.3402 0.0000 0.0000 0.0000
# 4 0.0000 0.0000 0.0000 28.9553 0.0000 0.0000
# 5 0.0000 0.0000 0.0000 0.0000 29.6128 0.0000
# 6 0.0000 0.0000 0.0000 0.0000 0.0000 26.6709
#
#
#
# Elastic Compliance Matrix: (Units=1/GPa)
#
#
# Indices 1 2 3 4 5 6 
#
# 1 0.011240 -0.005388 -0.002947 0.000000 0.000000 0.000000
# 2 -0.005388 0.016729 -0.001968 0.000000 0.000000 0.000000
# 3 -0.002947 -0.001968 0.010482 0.000000 0.000000 0.000000
# 4 0.000000 0.000000 0.000000 0.034536 0.000000 0.000000
# 5 0.000000 0.000000 0.000000 0.000000 0.033769 0.000000
# 6 0.000000 0.000000 0.000000 0.000000 0.000000 0.037494
#
#
# Mechanical properties :
#
#
# Convention : Reuss Voigt Hill
#
# Bulk Modulus (GPa) = 56.03700 59.66156 57.84928
# Shear Modulus (GPa) = 29.27313 30.20991 29.74152
#
# Velocity S-wave (km/s) = 4.02720 4.09113 4.05929
# Velocity P-wave (km/s) = 7.25747 7.44117 7.34989
#
# Compressibility (1/GPa) = 0.01784535
#
# Stress axis : x y z
#
# Youngs Moduli (GPa) = 88.96980 59.77532 95.39896
#
# Poissons Ratio (x) = 0.32206 0.28119
# Poissons Ratio (y) = 0.47936 0.18771
# Poissons Ratio (z) = 0.26224 0.11761
#
# Static dielectric constant tensor:
#      x y z
#    x 3.597750 0.000000 0.000000 
#    y 0.000000 2.931680 0.000000 
#    z 0.000000 0.000000 3.285430 
# 
# 
# High freq. dielectric constant tensor:
#      x y z
#    x 1.712780 0.000000 0.000000 
#    y 0.000000 1.699840 0.000000 
#    z 0.000000 0.000000 1.706800 
# 
# From -- ./inp_files/17833.got.cif
#   From: 2010.03.12/outbox.cif.g09.slc.cpg/sg69_9_cif.got.tgz:17833.got - 2010.04.10 23:52:46.
