data_PCOD8285337
_publ_section_title
;
Structure prediction by ZEFSAII (Michael W. Deem and Ramdas Pophale) SiO2 
 PCOD8285337
Probable space group: F M M M
;
_chemical_formula_sum "Si O2"
_cell_formula_units_Z 112
_cell_length_a 31.006891
_cell_length_b 18.136380
_cell_length_c 10.286562
_cell_angle_alpha 90.000000
_cell_angle_beta 90.000000
_cell_angle_gamma 90.000000
_cell_volume 5784.676509
_symmetry_space_group_name_H-M "F M M M"
_symmetry_group_IT_number 69
_symmetry_cell_setting 'orthorhombic'
loop_
_space_group_symop_operation_xyz
x,y,z
-x,-y,z
x,-y,-z
-x,y,-z
-x,-y,-z
x,y,-z
-x,y,z
x,-y,z
x,1/2+y,1/2+z
-x,1/2-y,1/2+z
x,1/2-y,1/2-z
-x,1/2+y,1/2-z
-x,1/2-y,1/2-z
x,1/2+y,1/2-z
-x,1/2+y,1/2+z
x,1/2-y,1/2+z
1/2+x,y,1/2+z
1/2-x,-y,1/2+z
1/2+x,-y,1/2-z
1/2-x,y,1/2-z
1/2-x,-y,1/2-z
1/2+x,y,1/2-z
1/2-x,y,1/2+z
1/2+x,-y,1/2+z
1/2+x,1/2+y,z
1/2-x,1/2-y,z
1/2+x,1/2-y,-z
1/2-x,1/2+y,-z
1/2-x,1/2-y,-z
1/2+x,1/2+y,-z
1/2-x,1/2+y,z
1/2+x,1/2-y,z
loop_
_atom_site_type_symbol
_atom_site_label
_atom_site_fract_x
_atom_site_fract_y
_atom_site_fract_z
Si Si1 0.214544 0.085774 0.648241
Si Si2 0.547375 0.663189 0.260347
Si Si3 0.134452 0.186050 0.356078
Si Si4 0.050492 0.081870 0.000000
O O1 0.230035 0.101165 0.500000
O O2 0.250000 0.115946 0.750000
O O3 0.169823 0.125524 0.679853
O O4 0.206204 0.000000 0.671651
O O5 0.500000 0.630505 0.303111
O O6 0.541388 0.750000 0.250000
O O7 0.586875 0.647320 0.358570
O O8 0.563999 0.628733 0.125254
O O9 0.143317 0.218413 0.500000
O O10 0.136294 0.250000 0.250000
O O11 0.000000 0.071368 0.000000
O O12 0.072193 0.000000 0.000000
#
# Coordination Sequence:
#
# PCOD8285337 Si02
#       4
#    32  32  32  16
#     4   9  19  38  60  81 107 141 182 229 283 343
#     4   9  19  33  54  80 113 153 196 235 280 338
#     4  10  22  36  55  82 116 150 186 235 283 333
#     4   9  18  34  54  80 113 148 191 247 296 335
#
# _framework density 19.361497
#
# number of rings (size 3 to 8) (size 9 to 14) (size 15 to 20)
#    0.000    2.714    0.000    0.000    8.000    3.429 
#    0.000    2.857    0.000    0.000    0.000    8.000 
#    0.000    0.000    0.000    0.000    0.000    0.000 
#
# Total GULP energy -346886.080146 kJ/mol
# GULP energy per Si atom -12388.788577 kJ/mol
# Density = 1.931743 g / cm^3
# Si number density = 19.361497 Si / 1000 Ang^3
#
#
#
# Elastic Constant Matrix: (Units=GPa)
#
#
# Indices 1 2 3 4 5 6 
#
# 1 161.0011 32.6537 60.9904 0.0000 0.0000 0.0000
# 2 32.6537 71.9880 49.7799 0.0000 0.0000 0.0000
# 3 60.9904 49.7799 109.6080 0.0000 0.0000 0.0000
# 4 0.0000 0.0000 0.0000 28.5710 0.0000 0.0000
# 5 0.0000 0.0000 0.0000 0.0000 28.5574 0.0000
# 6 0.0000 0.0000 0.0000 0.0000 0.0000 32.1798
#
#
#
# Elastic Compliance Matrix: (Units=1/GPa)
#
#
# Indices 1 2 3 4 5 6 
#
# 1 0.007901 -0.000793 -0.004036 0.000000 0.000000 0.000000
# 2 -0.000793 0.020331 -0.008792 0.000000 0.000000 0.000000
# 3 -0.004036 -0.008792 0.015363 0.000000 0.000000 0.000000
# 4 0.000000 0.000000 0.000000 0.035001 0.000000 0.000000
# 5 0.000000 0.000000 0.000000 0.000000 0.035017 0.000000
# 6 0.000000 0.000000 0.000000 0.000000 0.000000 0.031075
#
#
# Mechanical properties :
#
#
# Convention : Reuss Voigt Hill
#
# Bulk Modulus (GPa) = 61.15698 69.93834 65.54766
# Shear Modulus (GPa) = 28.18793 31.13985 29.66389
#
# Velocity S-wave (km/s) = 3.81973 4.01476 3.91846
# Velocity P-wave (km/s) = 7.14908 7.59552 7.37568
#
# Compressibility (1/GPa) = 0.01635136
#
# Stress axis : x y z
#
# Youngs Moduli (GPa) = 126.56654 49.18662 65.09302
#
# Poissons Ratio (x) = 0.03899 0.26274
# Poissons Ratio (y) = 0.10033 0.57232
# Poissons Ratio (z) = 0.51088 0.43247
#
# Static dielectric constant tensor:
#      x y z
#    x 3.959620 0.000000 0.000000 
#    y 0.000000 3.419530 0.000000 
#    z 0.000000 0.000000 5.677780 
# 
# 
# High freq. dielectric constant tensor:
#      x y z
#    x 1.756440 0.000000 0.000000 
#    y 0.000000 1.731110 0.000000 
#    z 0.000000 0.000000 1.751620 
# 
# From -- ./inp_files/10986.got.cif
#   From: 2010.03.12/outbox.cif.g09.slc.cpg/sg69_6_cif.got.tgz:10986.got - 2010.04.10 23:52:46.
