data_PCOD8285252
_publ_section_title
;
Structure prediction by ZEFSAII (Michael W. Deem and Ramdas Pophale) SiO2 
 PCOD8285252
Probable space group: F M M M
;
_chemical_formula_sum "Si O2"
_cell_formula_units_Z 192
_cell_length_a 17.124350
_cell_length_b 22.202841
_cell_length_c 26.762311
_cell_angle_alpha 90.000000
_cell_angle_beta 90.000000
_cell_angle_gamma 90.000000
_cell_volume 10175.277398
_symmetry_space_group_name_H-M "F M M M"
_symmetry_group_IT_number 69
_symmetry_cell_setting 'orthorhombic'
loop_
_space_group_symop_operation_xyz
x,y,z
-x,-y,z
x,-y,-z
-x,y,-z
-x,-y,-z
x,y,-z
-x,y,z
x,-y,z
x,1/2+y,1/2+z
-x,1/2-y,1/2+z
x,1/2-y,1/2-z
-x,1/2+y,1/2-z
-x,1/2-y,1/2-z
x,1/2+y,1/2-z
-x,1/2+y,1/2+z
x,1/2-y,1/2+z
1/2+x,y,1/2+z
1/2-x,-y,1/2+z
1/2+x,-y,1/2-z
1/2-x,y,1/2-z
1/2-x,-y,1/2-z
1/2+x,y,1/2-z
1/2-x,y,1/2+z
1/2+x,-y,1/2+z
1/2+x,1/2+y,z
1/2-x,1/2-y,z
1/2+x,1/2-y,-z
1/2-x,1/2+y,-z
1/2-x,1/2-y,-z
1/2+x,1/2+y,-z
1/2-x,1/2+y,z
1/2+x,1/2-y,z
loop_
_atom_site_type_symbol
_atom_site_label
_atom_site_fract_x
_atom_site_fract_y
_atom_site_fract_z
Si Si1 0.414456 0.683493 0.771564
Si Si2 0.837808 0.231989 0.137701
Si Si3 0.091502 0.144487 0.666056
Si Si4 0.655705 0.635411 0.059585
Si Si5 0.311506 0.428648 0.407577
Si Si6 0.000000 0.433132 0.441022
Si Si7 0.913157 0.928538 0.500000
O O1 0.500000 0.661951 0.789384
O O2 0.419925 0.750000 0.750000
O O3 0.358236 0.682187 0.819648
O O4 0.385854 0.642805 0.724988
O O5 0.750000 0.250000 0.148161
O O6 0.893061 0.290317 0.140864
O O7 0.847108 0.202336 0.082993
O O8 0.147580 0.093940 0.642863
O O9 0.000000 0.129152 0.658189
O O10 0.726795 0.599379 0.084220
O O11 0.577067 0.601831 0.076249
O O12 0.665059 0.640293 0.000000
O O13 0.302424 0.500000 0.406299
O O14 0.367490 0.405522 0.451696
O O15 0.000000 0.500000 0.417148
O O16 0.000000 0.438725 0.500000
O O17 0.000000 0.900494 0.500000
O O18 0.917674 0.000000 0.500000
#
# Coordination Sequence:
#
# PCOD8285252 Si02
#       7
#    32  32  32  32  32  16  16
#     4   8  17  34  58  82 110 146 191 239 282 339
#     4  11  21  36  58  87 116 155 195 242 291 352
#     4  10  21  38  58  89 121 151 194 239 291 354
#     4  11  23  39  58  86 121 156 195 246 301 350
#     4  11  21  37  60  85 117 155 196 242 289 344
#     4   9  20  38  62  84 105 148 205 247 286 344
#     4   9  18  32  54  80 107 147 197 235 269 331
#
# _framework density 18.869264000000001
#
# number of rings (size 3 to 8) (size 9 to 14) (size 15 to 20)
#    0.000    2.000    2.500    2.500    2.333    5.000 
#    1.500    0.000    0.000    3.000    0.000    0.000 
#    0.000    0.000    0.000    0.000    0.000    0.000 
#
# Total GULP energy -595062.133156 kJ/mol
# GULP energy per Si atom -12397.127774 kJ/mol
# Density = 1.882632 g / cm^3
# Si number density = 18.869264 Si / 1000 Ang^3
#
#
#
# Elastic Constant Matrix: (Units=GPa)
#
#
# Indices 1 2 3 4 5 6 
#
# 1 129.7446 21.1169 37.1461 0.0000 0.0000 0.0000
# 2 21.1169 49.0678 22.9930 0.0000 0.0000 0.0000
# 3 37.1461 22.9930 79.2950 0.0000 0.0000 0.0000
# 4 0.0000 0.0000 0.0000 28.9714 0.0000 0.0000
# 5 0.0000 0.0000 0.0000 0.0000 24.4606 0.0000
# 6 0.0000 0.0000 0.0000 0.0000 0.0000 12.9451
#
#
#
# Elastic Compliance Matrix: (Units=1/GPa)
#
#
# Indices 1 2 3 4 5 6 
#
# 1 0.009106 -0.002222 -0.003621 0.000000 0.000000 0.000000
# 2 -0.002222 0.024127 -0.005955 0.000000 0.000000 0.000000
# 3 -0.003621 -0.005955 0.016034 0.000000 0.000000 0.000000
# 4 0.000000 0.000000 0.000000 0.034517 0.000000 0.000000
# 5 0.000000 0.000000 0.000000 0.000000 0.040882 0.000000
# 6 0.000000 0.000000 0.000000 0.000000 0.000000 0.077249
#
#
# Mechanical properties :
#
#
# Convention : Reuss Voigt Hill
#
# Bulk Modulus (GPa) = 38.95569 46.73549 42.84559
# Shear Modulus (GPa) = 21.36127 25.06553 23.21340
#
# Velocity S-wave (km/s) = 3.36827 3.64865 3.51126
# Velocity P-wave (km/s) = 5.98472 6.52472 6.26055
#
# Compressibility (1/GPa) = 0.02567019
#
# Stress axis : x y z
#
# Youngs Moduli (GPa) = 109.81899 41.44782 62.36587
#
# Poissons Ratio (x) = 0.09209 0.22585
# Poissons Ratio (y) = 0.24400 0.37140
# Poissons Ratio (z) = 0.39770 0.24683
#
# Static dielectric constant tensor:
#      x y z
#    x 3.651430 0.000000 0.000000 
#    y 0.000000 3.227790 0.000000 
#    z 0.000000 0.000000 3.650860 
# 
# 
# High freq. dielectric constant tensor:
#      x y z
#    x 1.749620 0.000000 0.000000 
#    y 0.000000 1.700470 0.000000 
#    z 0.000000 0.000000 1.729360 
# 
# From -- ./inp_files/41175.got.cif
#   From: 2010.03.12/outbox.cif.g09.slc.cpg/sg69_21_cif.got.tgz:41175.got - 2010.04.10 23:52:46.
