data_PCOD8285413
_publ_section_title
;
Structure prediction by ZEFSAII (Michael W. Deem and Ramdas Pophale) SiO2 
 PCOD8285413
Probable space group: F M M M
;
_chemical_formula_sum "Si O2"
_cell_formula_units_Z 160
_cell_length_a 15.941690
_cell_length_b 17.027915
_cell_length_c 28.358823
_cell_angle_alpha 90.000000
_cell_angle_beta 90.000000
_cell_angle_gamma 90.000000
_cell_volume 7698.108630
_symmetry_space_group_name_H-M "F M M M"
_symmetry_group_IT_number 69
_symmetry_cell_setting 'orthorhombic'
loop_
_space_group_symop_operation_xyz
x,y,z
-x,-y,z
x,-y,-z
-x,y,-z
-x,-y,-z
x,y,-z
-x,y,z
x,-y,z
x,1/2+y,1/2+z
-x,1/2-y,1/2+z
x,1/2-y,1/2-z
-x,1/2+y,1/2-z
-x,1/2-y,1/2-z
x,1/2+y,1/2-z
-x,1/2+y,1/2+z
x,1/2-y,1/2+z
1/2+x,y,1/2+z
1/2-x,-y,1/2+z
1/2+x,-y,1/2-z
1/2-x,y,1/2-z
1/2-x,-y,1/2-z
1/2+x,y,1/2-z
1/2-x,y,1/2+z
1/2+x,-y,1/2+z
1/2+x,1/2+y,z
1/2-x,1/2-y,z
1/2+x,1/2-y,-z
1/2-x,1/2+y,-z
1/2-x,1/2-y,-z
1/2+x,1/2+y,-z
1/2-x,1/2+y,z
1/2+x,1/2-y,z
loop_
_atom_site_type_symbol
_atom_site_label
_atom_site_fract_x
_atom_site_fract_y
_atom_site_fract_z
Si Si1 0.096816 0.338116 0.706917
Si Si2 0.355950 0.664958 0.689333
Si Si3 0.295033 0.911103 0.638567
Si Si4 0.171809 0.307427 0.446199
Si Si5 0.000000 0.280658 0.054916
Si Si6 0.500000 0.909921 0.132053
O O1 0.148751 0.352067 0.754863
O O2 0.117537 0.255106 0.681887
O O3 0.119411 0.405677 0.669218
O O4 0.000000 0.341390 0.720824
O O5 0.266516 0.648513 0.665803
O O6 0.419445 0.606994 0.663609
O O7 0.312581 0.884099 0.585332
O O8 0.261350 0.000000 0.637290
O O9 0.167383 0.336398 0.500000
O O10 0.250000 0.250000 0.438402
O O11 0.083887 0.267271 0.431608
O O12 0.000000 0.360835 0.083885
O O13 0.000000 0.303279 0.000000
O O14 0.500000 0.000000 0.116370
#
# Coordination Sequence:
#
# PCOD8285413 Si02
#       6
#    32  32  32  32  16  16
#     4  11  22  42  66  89 121 171 224 261 299 365
#     4  11  22  42  62  90 122 167 220 261 306 365
#     4  12  26  39  60  95 132 166 203 259 326 379
#     4  10  22  43  69  93 121 165 216 267 317 379
#     4  10  22  41  66  92 121 163 218 268 315 379
#     4  12  22  34  61  91 128 166 200 261 329 379
#
# _framework density 20.784327000000001
#
# number of rings (size 3 to 8) (size 9 to 14) (size 15 to 20)
#    0.000    1.000    2.000    6.000    1.400    5.000 
#    0.000    0.000    0.000    7.800    0.000    0.000 
#    0.000    0.000    0.000    0.000    0.000    0.000 
#
# Total GULP energy -496107.022696 kJ/mol
# GULP energy per Si atom -12402.675567 kJ/mol
# Density = 2.073702 g / cm^3
# Si number density = 20.784327 Si / 1000 Ang^3
#
#
#
# Elastic Constant Matrix: (Units=GPa)
#
#
# Indices 1 2 3 4 5 6 
#
# 1 113.9843 37.3108 36.6798 0.0000 0.0000 0.0000
# 2 37.3108 84.9636 55.0166 0.0000 0.0000 0.0000
# 3 36.6798 55.0166 119.2858 0.0000 0.0000 0.0000
# 4 0.0000 0.0000 0.0000 20.2082 0.0000 0.0000
# 5 0.0000 0.0000 0.0000 0.0000 -35.3199 0.0000
# 6 0.0000 0.0000 0.0000 0.0000 0.0000 19.5996
#
#
#
# Elastic Compliance Matrix: (Units=1/GPa)
#
#
# Indices 1 2 3 4 5 6 
#
# 1 0.010446 -0.003575 -0.001563 0.000000 0.000000 0.000000
# 2 -0.003575 0.018005 -0.007205 0.000000 0.000000 0.000000
# 3 -0.001563 -0.007205 0.012187 0.000000 0.000000 0.000000
# 4 0.000000 0.000000 0.000000 0.049485 0.000000 0.000000
# 5 0.000000 0.000000 0.000000 0.000000 -0.028313 0.000000
# 6 0.000000 0.000000 0.000000 0.000000 0.000000 0.051022
#
#
# Mechanical properties :
#
#
# Convention : Reuss Voigt Hill
#
# Bulk Modulus (GPa) = 62.68888 64.02756 63.35822
# Shear Modulus (GPa) = 35.00506 13.51267 24.25886
#
# Velocity S-wave (km/s) = 4.10836 2.55255 3.42009
# Velocity P-wave (km/s) = 7.26167 6.28967 6.79308
#
# Compressibility (1/GPa) = 0.01595179
#
# Stress axis : x y z
#
# Youngs Moduli (GPa) = 95.72605 55.53968 82.05486
#
# Poissons Ratio (x) = 0.19856 0.12828
# Poissons Ratio (y) = 0.34223 0.59120
# Poissons Ratio (z) = 0.14965 0.40016
#
# Static dielectric constant tensor:
#      x y z
#    x 4.243070 0.000000 0.000000 
#    y 0.000000 3.436900 0.000000 
#    z 0.000000 0.000000 3.843950 
# 
# 
# High freq. dielectric constant tensor:
#      x y z
#    x 1.828410 0.000000 0.000000 
#    y 0.000000 1.786960 0.000000 
#    z 0.000000 0.000000 1.828100 
# 
# From -- ./inp_files/46270.got.cif
#   From: 2010.03.12/outbox.cif.g09.slc.cpg/sg69_24_cif.got.tgz:46270.got - 2010.04.10 23:52:46.
