data_PCOD8285317
_publ_section_title
;
Structure prediction by ZEFSAII (Michael W. Deem and Ramdas Pophale) SiO2 
 PCOD8285317
Probable space group: F M M M
;
_chemical_formula_sum "Si O2"
_cell_formula_units_Z 144
_cell_length_a 28.921257
_cell_length_b 19.074920
_cell_length_c 13.430742
_cell_angle_alpha 90.000000
_cell_angle_beta 90.000000
_cell_angle_gamma 90.000000
_cell_volume 7409.346351
_symmetry_space_group_name_H-M "F M M M"
_symmetry_group_IT_number 69
_symmetry_cell_setting 'orthorhombic'
loop_
_space_group_symop_operation_xyz
x,y,z
-x,-y,z
x,-y,-z
-x,y,-z
-x,-y,-z
x,y,-z
-x,y,z
x,-y,z
x,1/2+y,1/2+z
-x,1/2-y,1/2+z
x,1/2-y,1/2-z
-x,1/2+y,1/2-z
-x,1/2-y,1/2-z
x,1/2+y,1/2-z
-x,1/2+y,1/2+z
x,1/2-y,1/2+z
1/2+x,y,1/2+z
1/2-x,-y,1/2+z
1/2+x,-y,1/2-z
1/2-x,y,1/2-z
1/2-x,-y,1/2-z
1/2+x,y,1/2-z
1/2-x,y,1/2+z
1/2+x,-y,1/2+z
1/2+x,1/2+y,z
1/2-x,1/2-y,z
1/2+x,1/2-y,-z
1/2-x,1/2+y,-z
1/2-x,1/2-y,-z
1/2+x,1/2+y,-z
1/2-x,1/2+y,z
1/2+x,1/2-y,z
loop_
_atom_site_type_symbol
_atom_site_label
_atom_site_fract_x
_atom_site_fract_y
_atom_site_fract_z
Si Si1 0.597071 0.250000 0.250000
Si Si2 0.112233 0.000000 0.616845
Si Si3 0.323762 0.782096 0.382989
Si Si4 0.732931 0.847746 0.110165
Si Si5 0.946643 0.135713 0.613509
Si Si6 0.287689 0.000000 0.835965
O O1 0.628742 0.203723 0.324929
O O2 0.564610 0.199212 0.186706
O O3 0.082778 0.068059 0.643795
O O4 0.126917 0.000000 0.500000
O O5 0.157648 0.000000 0.688606
O O6 0.333586 0.793154 0.500000
O O7 0.308838 0.701979 0.352421
O O8 0.283046 0.833637 0.337895
O O9 0.720682 0.929018 0.103596
O O10 0.742359 0.819054 0.000000
O O11 0.935204 0.158367 0.500000
O O12 0.000000 0.115106 0.624592
O O13 0.250000 0.000000 0.750000
#
# Coordination Sequence:
#
# PCOD8285317 Si02
#       6
#    16  16  32  32  32  16
#     4  12  21  31  58  84 120 140 181 234 291 340
#     4  10  21  40  62  81 110 152 190 234 289 344
#     4   9  20  35  53  75 106 152 194 223 266 330
#     4   9  19  36  50  68 106 153 192 228 267 314
#     4  10  22  40  62  88 114 144 187 241 298 347
#     4  12  24  29  49  82 115 136 182 231 275 321
#
# _framework density 19.434912000000001
#
# number of rings (size 3 to 8) (size 9 to 14) (size 15 to 20)
#    0.000    2.000    0.000    5.000    6.222    5.778 
#    0.000    0.000    0.000    0.000    0.000    2.333 
#    0.000    8.889    0.000    0.000    0.000    0.000 
#
# Total GULP energy -446093.824122 kJ/mol
# GULP energy per Si atom -12391.495115 kJ/mol
# Density = 1.939068 g / cm^3
# Si number density = 19.434912 Si / 1000 Ang^3
#
#
#
# Elastic Constant Matrix: (Units=GPa)
#
#
# Indices 1 2 3 4 5 6 
#
# 1 120.9072 44.5808 43.7418 0.0000 0.0000 0.0000
# 2 44.5808 135.0793 21.1109 0.0000 0.0000 0.0000
# 3 43.7418 21.1109 52.4118 0.0000 0.0000 0.0000
# 4 0.0000 0.0000 0.0000 10.0209 0.0000 0.0000
# 5 0.0000 0.0000 0.0000 0.0000 32.4057 0.0000
# 6 0.0000 0.0000 0.0000 0.0000 0.0000 32.0877
#
#
#
# Elastic Compliance Matrix: (Units=1/GPa)
#
#
# Indices 1 2 3 4 5 6 
#
# 1 0.012713 -0.002708 -0.009519 0.000000 0.000000 0.000000
# 2 -0.002708 0.008477 -0.001154 0.000000 0.000000 0.000000
# 3 -0.009519 -0.001154 0.027489 0.000000 0.000000 0.000000
# 4 0.000000 0.000000 0.000000 0.099792 0.000000 0.000000
# 5 0.000000 0.000000 0.000000 0.000000 0.030859 0.000000
# 6 0.000000 0.000000 0.000000 0.000000 0.000000 0.031165
#
#
# Mechanical properties :
#
#
# Convention : Reuss Voigt Hill
#
# Bulk Modulus (GPa) = 45.62876 58.58503 52.10690
# Shear Modulus (GPa) = 20.44452 28.16719 24.30585
#
# Velocity S-wave (km/s) = 3.24689 3.81111 3.54026
# Velocity P-wave (km/s) = 6.13067 7.04100 6.60155
#
# Compressibility (1/GPa) = 0.02191600
#
# Stress axis : x y z
#
# Youngs Moduli (GPa) = 78.65791 117.96299 36.37758
#
# Poissons Ratio (x) = 0.31945 0.34630
# Poissons Ratio (y) = 0.21301 0.04200
# Poissons Ratio (z) = 0.74878 0.13618
#
# Static dielectric constant tensor:
#      x y z
#    x 3.564670 0.000000 0.000000 
#    y 0.000000 3.522390 0.000000 
#    z 0.000000 0.000000 3.473950 
# 
# 
# High freq. dielectric constant tensor:
#      x y z
#    x 1.756580 0.000000 0.000000 
#    y 0.000000 1.746910 0.000000 
#    z 0.000000 0.000000 1.752940 
# 
# From -- ./inp_files/19491.got.cif
#   From: 2010.03.12/outbox.cif.g09.slc.cpg/sg69_10_cif.got.tgz:19491.got - 2010.04.10 23:52:46.
