data_PCOD8285965
_publ_section_title
;
Structure prediction by ZEFSAII (Michael W. Deem and Ramdas Pophale) SiO2 
 PCOD8285965
Probable space group: F D D D
;
_chemical_formula_sum "Si O2"
_cell_formula_units_Z 192
_cell_length_a 28.298570
_cell_length_b 20.297040
_cell_length_c 19.545349
_cell_angle_alpha 90.000000
_cell_angle_beta 90.000000
_cell_angle_gamma 90.000000
_cell_volume 11226.402973
_symmetry_space_group_name_H-M "F D D D"
_symmetry_group_IT_number 70
_space_group.IT_coordinate_system_code '2'
_symmetry_cell_setting 'orthorhombic'
loop_
_space_group_symop_operation_xyz
x,y,z
1/4-x,1/4-y,z
x,1/4-y,1/4-z
1/4-x,y,1/4-z
-x,-y,-z
3/4+x,3/4+y,-z
-x,3/4+y,3/4+z
3/4+x,-y,3/4+z
x,1/2+y,1/2+z
1/4-x,3/4-y,1/2+z
x,3/4-y,3/4-z
1/4-x,1/2+y,3/4-z
-x,1/2-y,1/2-z
3/4+x,1/4+y,1/2-z
-x,1/4+y,1/4+z
3/4+x,1/2-y,1/4+z
1/2+x,y,1/2+z
3/4-x,1/4-y,1/2+z
1/2+x,1/4-y,3/4-z
3/4-x,y,3/4-z
1/2-x,-y,1/2-z
1/4+x,3/4+y,1/2-z
1/2-x,3/4+y,1/4+z
1/4+x,-y,1/4+z
1/2+x,1/2+y,z
3/4-x,3/4-y,z
1/2+x,3/4-y,1/4-z
3/4-x,1/2+y,1/4-z
1/2-x,1/2-y,-z
1/4+x,1/4+y,-z
1/2-x,1/4+y,3/4+z
1/4+x,1/2-y,3/4+z
loop_
_atom_site_type_symbol
_atom_site_label
_atom_site_fract_x
_atom_site_fract_y
_atom_site_fract_z
Si Si1 0.086700 0.811474 0.923027
Si Si2 0.112420 0.728317 0.548037
Si Si3 0.519369 0.191456 0.583256
Si Si4 0.392808 0.122040 0.446969
Si Si5 0.907752 0.934531 0.085702
Si Si6 0.511747 0.951409 0.562260
O O1 0.090241 0.875000 0.875000
O O2 0.105592 0.747825 0.882510
O O3 0.032655 0.798656 0.946712
O O4 0.116575 0.824957 0.992461
O O5 0.125000 0.704624 0.625000
O O6 0.061196 0.696282 0.526886
O O7 0.111305 0.807278 0.541343
O O8 0.149391 0.699753 0.494131
O O9 0.521448 0.125000 0.625000
O O10 0.534606 0.252836 0.630504
O O11 0.375000 0.153593 0.375000
O O12 0.448903 0.103797 0.453274
O O13 0.875000 0.875000 0.112434
O O14 0.963538 0.917325 0.089716
O O15 0.500000 0.000000 0.500000
#
# Coordination Sequence:
#
# PCOD8285965 Si02
#       6
#    32  32  32  32  32  32
#     4  10  20  38  53  74 109 149 181 216 269 323
#     4  11  20  30  45  81 116 143 176 209 258 321
#     4  10  20  29  47  75 112 147 169 207 263 328
#     4  11  20  35  54  76 106 146 189 218 256 322
#     4  11  24  33  52  79 113 146 178 222 269 321
#     4  11  18  33  47  76 111 138 173 214 262 331
#
# _framework density 17.102539
#
# number of rings (size 3 to 8) (size 9 to 14) (size 15 to 20)
#    0.000    1.333    6.667    2.000    7.000    0.000 
#    0.000    0.000    0.000    1.500    0.000    0.000 
#    0.000    0.000    0.000    0.000    0.000    0.000 
#
# Total GULP energy -594777.306231 kJ/mol
# GULP energy per Si atom -12391.193880 kJ/mol
# Density = 1.706361 g / cm^3
# Si number density = 17.102539 Si / 1000 Ang^3
#
#
#
# Elastic Constant Matrix: (Units=GPa)
#
#
# Indices 1 2 3 4 5 6 
#
# 1 76.3126 32.3025 27.0664 0.0000 0.0000 0.0000
# 2 32.3025 76.3602 32.4099 0.0000 0.0000 0.0000
# 3 27.0664 32.4099 88.0809 0.0000 0.0000 0.0000
# 4 0.0000 0.0000 0.0000 24.4239 0.0000 0.0000
# 5 0.0000 0.0000 0.0000 0.0000 20.2558 0.0000
# 6 0.0000 0.0000 0.0000 0.0000 0.0000 105.4974
#
#
#
# Elastic Compliance Matrix: (Units=1/GPa)
#
#
# Indices 1 2 3 4 5 6 
#
# 1 0.016598 -0.005756 -0.002983 0.000000 0.000000 0.000000
# 2 -0.005756 0.017515 -0.004676 0.000000 0.000000 0.000000
# 3 -0.002983 -0.004676 0.013990 0.000000 0.000000 0.000000
# 4 0.000000 0.000000 0.000000 0.040944 0.000000 0.000000
# 5 0.000000 0.000000 0.000000 0.000000 0.049369 0.000000
# 6 0.000000 0.000000 0.000000 0.000000 0.000000 0.009479
#
#
# Mechanical properties :
#
#
# Convention : Reuss Voigt Hill
#
# Bulk Modulus (GPa) = 47.00358 47.14571 47.07464
# Shear Modulus (GPa) = 27.50038 39.96706 33.73372
#
# Velocity S-wave (km/s) = 4.01430 4.83940 4.44603
# Velocity P-wave (km/s) = 7.00209 7.67155 7.34445
#
# Compressibility (1/GPa) = 0.02127498
#
# Stress axis : x y z
#
# Youngs Moduli (GPa) = 60.24765 57.09280 71.47751
#
# Poissons Ratio (x) = 0.32860 0.21319
# Poissons Ratio (y) = 0.34676 0.33425
# Poissons Ratio (z) = 0.17970 0.26698
#
# Static dielectric constant tensor:
#      x y z
#    x 3.372620 0.000000 0.000000 
#    y 0.000000 3.102250 0.000000 
#    z 0.000000 0.000000 3.224580 
# 
# 
# High freq. dielectric constant tensor:
#      x y z
#    x 1.662490 0.000000 0.000000 
#    y 0.000000 1.634350 0.000000 
#    z 0.000000 0.000000 1.633800 
# 
# From -- ./inp_files/44962.got.cif
#   From: 2010.03.12/outbox.cif.g09.slc.cpg/sg70_23_cif.got.tgz:44962.got - 2010.04.16 13:46:32.
