data_PCOD8285669
_publ_section_title
;
Structure prediction by ZEFSAII (Michael W. Deem and Ramdas Pophale) SiO2 
 PCOD8285669
Probable space group: F M M M
;
_chemical_formula_sum "Si O2"
_cell_formula_units_Z 144
_cell_length_a 17.651063
_cell_length_b 14.295313
_cell_length_c 33.783521
_cell_angle_alpha 90.000000
_cell_angle_beta 90.000000
_cell_angle_gamma 90.000000
_cell_volume 8524.510394
_symmetry_space_group_name_H-M "F M M M"
_symmetry_group_IT_number 69
_symmetry_cell_setting 'orthorhombic'
loop_
_space_group_symop_operation_xyz
x,y,z
-x,-y,z
x,-y,-z
-x,y,-z
-x,-y,-z
x,y,-z
-x,y,z
x,-y,z
x,1/2+y,1/2+z
-x,1/2-y,1/2+z
x,1/2-y,1/2-z
-x,1/2+y,1/2-z
-x,1/2-y,1/2-z
x,1/2+y,1/2-z
-x,1/2+y,1/2+z
x,1/2-y,1/2+z
1/2+x,y,1/2+z
1/2-x,-y,1/2+z
1/2+x,-y,1/2-z
1/2-x,y,1/2-z
1/2-x,-y,1/2-z
1/2+x,y,1/2-z
1/2-x,y,1/2+z
1/2+x,-y,1/2+z
1/2+x,1/2+y,z
1/2-x,1/2-y,z
1/2+x,1/2-y,-z
1/2-x,1/2+y,-z
1/2-x,1/2-y,-z
1/2+x,1/2+y,-z
1/2-x,1/2+y,z
1/2+x,1/2-y,z
loop_
_atom_site_type_symbol
_atom_site_label
_atom_site_fract_x
_atom_site_fract_y
_atom_site_fract_z
Si Si1 0.411292 0.102915 0.809995
Si Si2 0.837385 0.273435 0.654413
Si Si3 0.590314 0.108010 0.414135
Si Si4 0.586339 0.389715 0.779573
Si Si5 0.917793 0.610071 0.500000
O O1 0.500000 0.096066 0.815683
O O2 0.378871 0.174146 0.841946
O O3 0.392948 0.137378 0.765407
O O4 0.375424 0.000000 0.817170
O O5 0.750000 0.250000 0.651187
O O6 0.865855 0.324923 0.615397
O O7 0.854646 0.337670 0.692314
O O8 0.500000 0.123459 0.411171
O O9 0.622075 0.136218 0.458221
O O10 0.609461 0.000000 0.404204
O O11 0.500000 0.358200 0.789720
O O12 0.594061 0.500000 0.786114
O O13 0.930503 0.500000 0.500000
O O14 0.000000 0.659097 0.500000
#
# Coordination Sequence:
#
# PCOD8285669 Si02
#       5
#    32  32  32  32  16
#     4   9  19  35  51  65  86 123 168 206 236 269
#     4  12  23  30  42  70 102 130 155 185 229 285
#     4   9  17  32  55  78  97 118 149 192 238 280
#     4   9  18  34  54  70  85 114 161 212 252 279
#     4   7  12  26  51  80  99 111 139 189 242 281
#
# _framework density 16.892465999999999
#
# number of rings (size 3 to 8) (size 9 to 14) (size 15 to 20)
#    0.000    2.556    0.000    6.000    0.000    7.111 
#    0.000    2.778    0.000    0.000    0.000    0.778 
#    0.000    4.444    0.000    0.000    0.000    0.667 
#
# Total GULP energy -446134.588670 kJ/mol
# GULP energy per Si atom -12392.627463 kJ/mol
# Density = 1.685402 g / cm^3
# Si number density = 16.892466 Si / 1000 Ang^3
#
#
#
# Elastic Constant Matrix: (Units=GPa)
#
#
# Indices 1 2 3 4 5 6 
#
# 1 63.6939 44.8999 59.3897 0.0000 0.0000 0.0000
# 2 44.8999 84.3627 74.9779 0.0000 0.0000 0.0000
# 3 59.3897 74.9779 129.7853 0.0000 0.0000 0.0000
# 4 0.0000 0.0000 0.0000 29.3719 0.0000 0.0000
# 5 0.0000 0.0000 0.0000 0.0000 2.7650 0.0000
# 6 0.0000 0.0000 0.0000 0.0000 0.0000 1.2289
#
#
#
# Elastic Compliance Matrix: (Units=1/GPa)
#
#
# Indices 1 2 3 4 5 6 
#
# 1 0.029599 -0.007636 -0.009133 0.000000 0.000000 0.000000
# 2 -0.007636 0.026332 -0.011718 0.000000 0.000000 0.000000
# 3 -0.009133 -0.011718 0.018654 0.000000 0.000000 0.000000
# 4 0.000000 0.000000 0.000000 0.034046 0.000000 0.000000
# 5 0.000000 0.000000 0.000000 0.000000 0.361669 0.000000
# 6 0.000000 0.000000 0.000000 0.000000 0.000000 0.813763
#
#
# Mechanical properties :
#
#
# Convention : Reuss Voigt Hill
#
# Bulk Modulus (GPa) = 56.78406 70.70854 63.74630
# Shear Modulus (GPa) = 3.71221 13.24478 8.47849
#
# Velocity S-wave (km/s) = 1.48402 2.80315 2.24276
# Velocity P-wave (km/s) = 6.05181 7.24057 6.67271
#
# Compressibility (1/GPa) = 0.01761058
#
# Stress axis : x y z
#
# Youngs Moduli (GPa) = 33.78503 37.97635 53.60860
#
# Poissons Ratio (x) = 0.29000 0.48960
# Poissons Ratio (y) = 0.25800 0.62818
# Poissons Ratio (z) = 0.30855 0.44500
#
# Static dielectric constant tensor:
#      x y z
#    x 2.850260 0.000000 0.000000 
#    y 0.000000 2.413370 0.000000 
#    z 0.000000 0.000000 3.397650 
# 
# 
# High freq. dielectric constant tensor:
#      x y z
#    x 1.618730 0.000000 0.000000 
#    y 0.000000 1.650510 0.000000 
#    z 0.000000 0.000000 1.645010 
# 
# From -- ./inp_files/19451.got.cif
#   From: 2010.03.12/outbox.cif.g09.slc.cpg/sg69_10_cif.got.tgz:19451.got - 2010.04.10 23:52:46.
