data_PCOD8285330
_publ_section_title
;
Structure prediction by ZEFSAII (Michael W. Deem and Ramdas Pophale) SiO2 
 PCOD8285330
Probable space group: F M M M
;
_chemical_formula_sum "Si O2"
_cell_formula_units_Z 128
_cell_length_a 22.197070
_cell_length_b 29.594633
_cell_length_c 9.576683
_cell_angle_alpha 90.000000
_cell_angle_beta 90.000000
_cell_angle_gamma 90.000000
_cell_volume 6291.058480
_symmetry_space_group_name_H-M "F M M M"
_symmetry_group_IT_number 69
_symmetry_cell_setting 'orthorhombic'
loop_
_space_group_symop_operation_xyz
x,y,z
-x,-y,z
x,-y,-z
-x,y,-z
-x,-y,-z
x,y,-z
-x,y,z
x,-y,z
x,1/2+y,1/2+z
-x,1/2-y,1/2+z
x,1/2-y,1/2-z
-x,1/2+y,1/2-z
-x,1/2-y,1/2-z
x,1/2+y,1/2-z
-x,1/2+y,1/2+z
x,1/2-y,1/2+z
1/2+x,y,1/2+z
1/2-x,-y,1/2+z
1/2+x,-y,1/2-z
1/2-x,y,1/2-z
1/2-x,-y,1/2-z
1/2+x,y,1/2-z
1/2-x,y,1/2+z
1/2+x,-y,1/2+z
1/2+x,1/2+y,z
1/2-x,1/2-y,z
1/2+x,1/2-y,-z
1/2-x,1/2+y,-z
1/2-x,1/2-y,-z
1/2+x,1/2+y,-z
1/2-x,1/2+y,z
1/2+x,1/2-y,z
loop_
_atom_site_type_symbol
_atom_site_label
_atom_site_fract_x
_atom_site_fract_y
_atom_site_fract_z
Si Si1 0.500000 0.806827 0.146272
Si Si2 0.396237 0.750000 0.250000
Si Si3 0.187421 0.500000 0.829780
Si Si4 0.129878 0.420468 0.337190
Si Si5 0.691923 0.173861 0.657282
Si Si6 0.000000 0.610305 0.341617
O O1 0.440002 0.776264 0.144447
O O2 0.500000 0.841611 0.270045
O O3 0.500000 0.833744 0.000000
O O4 0.354747 0.785202 0.332700
O O5 0.250000 0.500000 0.750000
O O6 0.153514 0.544246 0.775840
O O7 0.193336 0.500000 0.000000
O O8 0.142789 0.433991 0.500000
O O9 0.159469 0.372591 0.299295
O O10 0.058640 0.419084 0.307335
O O11 0.715510 0.170417 0.500000
O O12 0.750000 0.183229 0.750000
O O13 0.000000 0.625625 0.500000
#
# Coordination Sequence:
#
# PCOD8285330 Si02
#       6
#    16  16  16  32  32  16
#     4  11  23  37  63  94 124 164 217 271 318 372
#     4  11  23  40  60  90 127 173 216 260 322 375
#     4  12  26  45  70  99 131 166 208 262 315 378
#     4  10  22  43  69  96 127 168 212 258 314 381
#     4  11  24  41  62  89 126 169 217 266 315 375
#     4  10  21  42  69  94 129 169 208 255 317 384
#
# _framework density 20.346339
#
# number of rings (size 3 to 8) (size 9 to 14) (size 15 to 20)
#    0.000    1.250    2.500    3.000    0.000    9.500 
#    0.000    2.500    0.000    0.000    0.000    0.000 
#    0.000    0.000    0.000    0.000    0.000    0.000 
#
# Total GULP energy -396718.501926 kJ/mol
# GULP energy per Si atom -12397.453185 kJ/mol
# Density = 2.030003 g / cm^3
# Si number density = 20.346339 Si / 1000 Ang^3
#
#
#
# Elastic Constant Matrix: (Units=GPa)
#
#
# Indices 1 2 3 4 5 6 
#
# 1 159.2565 57.8512 71.9222 0.0002 -0.0002 0.0000
# 2 57.8512 129.3232 66.9757 -0.0001 -0.0001 0.0002
# 3 71.9222 66.9757 127.4430 0.0010 -0.0005 -0.0002
# 4 0.0002 -0.0001 0.0010 22.0391 -0.0005 -0.0003
# 5 -0.0002 -0.0001 -0.0005 -0.0005 -27.8099 -0.0009
# 6 0.0000 0.0002 -0.0002 -0.0003 -0.0009 31.3033
#
#
#
# Elastic Compliance Matrix: (Units=1/GPa)
#
#
# Indices 1 2 3 4 5 6 
#
# 1 0.008742 -0.001862 -0.003955 0.000000 0.000000 0.000000
# 2 -0.001862 0.011021 -0.004741 0.000000 0.000000 0.000000
# 3 -0.003955 -0.004741 0.012570 -0.000001 0.000000 0.000000
# 4 0.000000 0.000000 -0.000001 0.045374 -0.000001 0.000000
# 5 0.000000 0.000000 0.000000 -0.000001 -0.035958 -0.000001
# 6 0.000000 0.000000 0.000000 0.000000 -0.000001 0.031945
#
#
# Mechanical properties :
#
#
# Convention : Reuss Voigt Hill
#
# Bulk Modulus (GPa) = 89.15184 89.94677 89.54930
# Shear Modulus (GPa) = 50.73671 19.72475 35.23073
#
# Velocity S-wave (km/s) = 4.99907 3.11698 4.16571
# Velocity P-wave (km/s) = 8.78824 7.56689 8.20034
#
# Compressibility (1/GPa) = 0.01121682
#
# Stress axis : x y z
#
# Youngs Moduli (GPa) = 114.39486 90.73631 79.55531
#
# Poissons Ratio (x) = 0.16899 0.31461
# Poissons Ratio (y) = 0.21305 0.37716
# Poissons Ratio (z) = 0.45238 0.43017
#
# Static dielectric constant tensor:
#      x y z
#    x 5.113340 -0.000020 0.000000 
#    y -0.000020 3.638750 0.000000 
#    z 0.000000 0.000000 3.616310 
# 
# 
# High freq. dielectric constant tensor:
#      x y z
#    x 1.812880 0.000000 0.000000 
#    y 0.000000 1.795440 0.000000 
#    z 0.000000 0.000000 1.792030 
# 
# From -- ./inp_files/4911.got.cif
#   From: 2010.03.12/outbox.cif.g09.slc.cpg/sg69_3_cif.got.tgz:4911.got - 2010.04.10 23:52:46.
