data_PCOD8285907
_publ_section_title
;
Structure prediction by ZEFSAII (Michael W. Deem and Ramdas Pophale) SiO2 
 PCOD8285907
Probable space group: F D D D
;
_chemical_formula_sum "Si O2"
_cell_formula_units_Z 208
_cell_length_a 19.725609
_cell_length_b 30.117143
_cell_length_c 17.335749
_cell_angle_alpha 90.000000
_cell_angle_beta 90.000000
_cell_angle_gamma 90.000000
_cell_volume 10298.804205
_symmetry_space_group_name_H-M "F D D D"
_symmetry_group_IT_number 70
_space_group.IT_coordinate_system_code '2'
_symmetry_cell_setting 'orthorhombic'
loop_
_space_group_symop_operation_xyz
x,y,z
1/4-x,1/4-y,z
x,1/4-y,1/4-z
1/4-x,y,1/4-z
-x,-y,-z
3/4+x,3/4+y,-z
-x,3/4+y,3/4+z
3/4+x,-y,3/4+z
x,1/2+y,1/2+z
1/4-x,3/4-y,1/2+z
x,3/4-y,3/4-z
1/4-x,1/2+y,3/4-z
-x,1/2-y,1/2-z
3/4+x,1/4+y,1/2-z
-x,1/4+y,1/4+z
3/4+x,1/2-y,1/4+z
1/2+x,y,1/2+z
3/4-x,1/4-y,1/2+z
1/2+x,1/4-y,3/4-z
3/4-x,y,3/4-z
1/2-x,-y,1/2-z
1/4+x,3/4+y,1/2-z
1/2-x,3/4+y,1/4+z
1/4+x,-y,1/4+z
1/2+x,1/2+y,z
3/4-x,3/4-y,z
1/2+x,3/4-y,1/4-z
3/4-x,1/2+y,1/4-z
1/2-x,1/2-y,-z
1/4+x,1/4+y,-z
1/2-x,1/4+y,3/4+z
1/4+x,1/2-y,3/4+z
loop_
_atom_site_type_symbol
_atom_site_label
_atom_site_fract_x
_atom_site_fract_y
_atom_site_fract_z
Si Si1 0.088032 0.580713 0.548239
Si Si2 0.532412 0.375000 0.875000
Si Si3 0.211578 0.518485 0.022329
Si Si4 0.768660 0.827606 0.415919
Si Si5 0.620319 0.447914 0.811087
Si Si6 0.365595 0.423242 0.190679
Si Si7 0.897891 0.763408 0.062039
O O1 0.125000 0.625000 0.515800
O O2 0.125000 0.563939 0.625000
O O3 0.091995 0.540408 0.487307
O O4 0.011109 0.592519 0.570024
O O5 0.577970 0.402881 0.815990
O O6 0.207107 0.539136 0.107604
O O7 0.288646 0.501476 0.008724
O O8 0.158949 0.477765 0.009005
O O9 0.190132 0.555952 0.959637
O O10 0.759721 0.875000 0.375000
O O11 0.698417 0.813365 0.456155
O O12 0.825586 0.831100 0.479877
O O13 0.613554 0.471526 0.895479
O O14 0.375000 0.375000 0.153238
O O15 0.325193 0.453828 0.130082
#
# Coordination Sequence:
#
# PCOD8285907 Si02
#       7
#    32  16  32  32  32  32  32
#     4   9  18  34  61  86 111 154 198 241 297 364
#     4  10  19  36  62  86 115 160 202 236 306 378
#     4  10  21  36  58  84 118 152 196 247 289 361
#     4  11  21  37  59  83 119 162 199 245 296 360
#     4  10  22  37  59  90 118 156 201 247 299 354
#     4  11  22  35  59  86 113 160 201 237 299 361
#     4  10  22  38  56  88 122 144 193 262 294 345
#
# _framework density 20.196518999999999
#
# number of rings (size 3 to 8) (size 9 to 14) (size 15 to 20)
#    0.000    2.000    2.308    2.769    0.000    7.385 
#    0.000    0.000    0.000    0.000    0.000    0.000 
#    0.000    0.000    0.000    0.000    0.000    0.000 
#
# Total GULP energy -644546.250917 kJ/mol
# GULP energy per Si atom -12395.120210 kJ/mol
# Density = 2.015055 g / cm^3
# Si number density = 20.196519 Si / 1000 Ang^3
#
#
#
# Elastic Constant Matrix: (Units=GPa)
#
#
# Indices 1 2 3 4 5 6 
#
# 1 103.8927 41.3289 28.8347 0.0000 0.0000 0.0000
# 2 41.3289 95.1780 27.0580 0.0000 0.0000 0.0000
# 3 28.8347 27.0580 54.1481 0.0000 0.0000 0.0000
# 4 0.0000 0.0000 0.0000 34.6618 0.0000 0.0000
# 5 0.0000 0.0000 0.0000 0.0000 16.3488 0.0000
# 6 0.0000 0.0000 0.0000 0.0000 0.0000 25.4805
#
#
#
# Elastic Compliance Matrix: (Units=1/GPa)
#
#
# Indices 1 2 3 4 5 6 
#
# 1 0.012553 -0.004138 -0.004617 0.000000 0.000000 0.000000
# 2 -0.004138 0.013611 -0.004598 0.000000 0.000000 0.000000
# 3 -0.004617 -0.004598 0.023224 0.000000 0.000000 0.000000
# 4 0.000000 0.000000 0.000000 0.028850 0.000000 0.000000
# 5 0.000000 0.000000 0.000000 0.000000 0.061167 0.000000
# 6 0.000000 0.000000 0.000000 0.000000 0.000000 0.039246
#
#
# Mechanical properties :
#
#
# Convention : Reuss Voigt Hill
#
# Bulk Modulus (GPa) = 44.08757 49.74024 46.91390
# Shear Modulus (GPa) = 23.48350 25.69805 24.59078
#
# Velocity S-wave (km/s) = 3.41361 3.57094 3.49316
# Velocity P-wave (km/s) = 6.11667 6.45630 6.28878
#
# Compressibility (1/GPa) = 0.02268213
#
# Stress axis : x y z
#
# Youngs Moduli (GPa) = 79.66297 73.47196 43.05943
#
# Poissons Ratio (x) = 0.30405 0.19879
# Poissons Ratio (y) = 0.32967 0.19797
# Poissons Ratio (z) = 0.36778 0.33779
#
# Static dielectric constant tensor:
#      x y z
#    x 3.596920 0.000000 0.000000 
#    y 0.000000 3.948820 0.000000 
#    z 0.000000 0.000000 3.436600 
# 
# 
# High freq. dielectric constant tensor:
#      x y z
#    x 1.777530 0.000000 0.000000 
#    y 0.000000 1.801150 0.000000 
#    z 0.000000 0.000000 1.764430 
# 
# From -- ./inp_files/36883.got.cif
#   From: 2010.03.12/outbox.cif.g09.slc.cpg/sg70_19_cif.got.tgz:36883.got - 2010.04.16 13:46:32.
