data_PCOD8285313
_publ_section_title
;
Structure prediction by ZEFSAII (Michael W. Deem and Ramdas Pophale) SiO2 
 PCOD8285313
Probable space group: F M M M
;
_chemical_formula_sum "Si O2"
_cell_formula_units_Z 144
_cell_length_a 20.363699
_cell_length_b 17.286658
_cell_length_c 20.233829
_cell_angle_alpha 90.000000
_cell_angle_beta 90.000000
_cell_angle_gamma 90.000000
_cell_volume 7122.718559
_symmetry_space_group_name_H-M "F M M M"
_symmetry_group_IT_number 69
_symmetry_cell_setting 'orthorhombic'
loop_
_space_group_symop_operation_xyz
x,y,z
-x,-y,z
x,-y,-z
-x,y,-z
-x,-y,-z
x,y,-z
-x,y,z
x,-y,z
x,1/2+y,1/2+z
-x,1/2-y,1/2+z
x,1/2-y,1/2-z
-x,1/2+y,1/2-z
-x,1/2-y,1/2-z
x,1/2+y,1/2-z
-x,1/2+y,1/2+z
x,1/2-y,1/2+z
1/2+x,y,1/2+z
1/2-x,-y,1/2+z
1/2+x,-y,1/2-z
1/2-x,y,1/2-z
1/2-x,-y,1/2-z
1/2+x,y,1/2-z
1/2-x,y,1/2+z
1/2+x,-y,1/2+z
1/2+x,1/2+y,z
1/2-x,1/2-y,z
1/2+x,1/2-y,-z
1/2-x,1/2+y,-z
1/2-x,1/2-y,-z
1/2+x,1/2+y,-z
1/2-x,1/2+y,z
1/2+x,1/2-y,z
loop_
_atom_site_type_symbol
_atom_site_label
_atom_site_fract_x
_atom_site_fract_y
_atom_site_fract_z
Si Si1 0.426295 0.909043 0.500000
Si Si2 0.500000 0.213939 0.320569
Si Si3 0.142504 0.856618 0.576228
Si Si4 0.744988 0.412844 0.828386
Si Si5 0.500000 0.846837 0.925943
Si Si6 0.627817 0.679347 0.881379
O O1 0.500000 0.873870 0.500000
O O2 0.385403 0.881181 0.438234
O O3 0.429500 0.000000 0.500000
O O4 0.500000 0.250000 0.250000
O O5 0.500000 0.275382 0.378114
O O6 0.567944 0.167415 0.329134
O O7 0.167465 0.868840 0.500000
O O8 0.188098 0.897637 0.630426
O O9 0.068601 0.893797 0.584301
O O10 0.137435 0.765414 0.590939
O O11 0.721785 0.500000 0.845797
O O12 0.750000 0.404658 0.750000
O O13 0.694509 0.346449 0.847413
O O14 0.500000 0.812167 0.000000
#
# Coordination Sequence:
#
# PCOD8285313 Si02
#       6
#    16  16  32  32  16  32
#     4  11  22  38  61  96 135 168 199 250 319 394
#     4  10  22  34  60  98 127 155 205 259 308 368
#     4  10  21  39  67  96 120 155 210 265 321 376
#     4  11  27  45  58  82 127 173 210 257 318 383
#     4   8  18  36  63  91 121 150 191 265 328 360
#     4  11  22  39  65  92 126 161 209 260 314 372
#
# _framework density 20.216999999999999
#
# number of rings (size 3 to 8) (size 9 to 14) (size 15 to 20)
#    0.000    1.667    2.222    1.333    9.333    2.222 
#    0.000    0.556    0.000    4.667    0.000    0.000 
#    0.000    0.000    0.000    0.000    0.000    0.000 
#
# Total GULP energy -446055.440449 kJ/mol
# GULP energy per Si atom -12390.428901 kJ/mol
# Density = 2.017099 g / cm^3
# Si number density = 20.217000 Si / 1000 Ang^3
#
#
#
# Elastic Constant Matrix: (Units=GPa)
#
#
# Indices 1 2 3 4 5 6 
#
# 1 132.2828 15.4691 70.9228 0.0000 0.0000 0.0000
# 2 15.4691 47.1488 36.3287 0.0000 0.0000 0.0000
# 3 70.9228 36.3287 137.2158 0.0000 0.0000 0.0000
# 4 0.0000 0.0000 0.0000 -25.4947 0.0000 0.0000
# 5 0.0000 0.0000 0.0000 0.0000 30.1111 0.0000
# 6 0.0000 0.0000 0.0000 0.0000 0.0000 13.8482
#
#
#
# Elastic Compliance Matrix: (Units=1/GPa)
#
#
# Indices 1 2 3 4 5 6 
#
# 1 0.010490 0.000925 -0.005667 0.000000 0.000000 0.000000
# 2 0.000925 0.026726 -0.007554 0.000000 0.000000 0.000000
# 3 -0.005667 -0.007554 0.012217 0.000000 0.000000 0.000000
# 4 0.000000 0.000000 0.000000 -0.039224 0.000000 0.000000
# 5 0.000000 0.000000 0.000000 0.000000 0.033210 0.000000
# 6 0.000000 0.000000 0.000000 0.000000 0.000000 0.072211
#
#
# Mechanical properties :
#
#
# Convention : Reuss Voigt Hill
#
# Bulk Modulus (GPa) = 40.25615 62.45430 51.35522
# Shear Modulus (GPa) = 33.66951 16.62138 25.14544
#
# Velocity S-wave (km/s) = 4.08537 2.87042 3.53055
# Velocity P-wave (km/s) = 6.49684 6.47648 6.48667
#
# Compressibility (1/GPa) = 0.02484093
#
# Stress axis : x y z
#
# Youngs Moduli (GPa) = 95.33333 37.41617 81.85600
#
# Poissons Ratio (x) = -0.03459 0.46384
# Poissons Ratio (y) = -0.08814 0.61833
# Poissons Ratio (z) = 0.54021 0.28264
#
# Static dielectric constant tensor:
#      x y z
#    x 4.307990 0.000000 0.000000 
#    y 0.000000 3.412570 0.000000 
#    z 0.000000 0.000000 3.738640 
# 
# 
# High freq. dielectric constant tensor:
#      x y z
#    x 1.808440 0.000000 0.000000 
#    y 0.000000 1.763440 0.000000 
#    z 0.000000 0.000000 1.797540 
# 
# From -- ./inp_files/31711.got.cif
#   From: 2010.03.12/outbox.cif.g09.slc.cpg/sg69_16_cif.got.tgz:31711.got - 2010.04.10 23:52:46.
