data_PCOD8285985
_publ_section_title
;
Structure prediction by ZEFSAII (Michael W. Deem and Ramdas Pophale) SiO2 
 PCOD8285985
Probable space group: F D D D
;
_chemical_formula_sum "Si O2"
_cell_formula_units_Z 240
_cell_length_a 24.856524
_cell_length_b 24.036870
_cell_length_c 21.214384
_cell_angle_alpha 90.000000
_cell_angle_beta 90.000000
_cell_angle_gamma 90.000000
_cell_volume 12675.022416
_symmetry_space_group_name_H-M "F D D D"
_symmetry_group_IT_number 70
_space_group.IT_coordinate_system_code '2'
_symmetry_cell_setting 'orthorhombic'
loop_
_space_group_symop_operation_xyz
x,y,z
1/4-x,1/4-y,z
x,1/4-y,1/4-z
1/4-x,y,1/4-z
-x,-y,-z
3/4+x,3/4+y,-z
-x,3/4+y,3/4+z
3/4+x,-y,3/4+z
x,1/2+y,1/2+z
1/4-x,3/4-y,1/2+z
x,3/4-y,3/4-z
1/4-x,1/2+y,3/4-z
-x,1/2-y,1/2-z
3/4+x,1/4+y,1/2-z
-x,1/4+y,1/4+z
3/4+x,1/2-y,1/4+z
1/2+x,y,1/2+z
3/4-x,1/4-y,1/2+z
1/2+x,1/4-y,3/4-z
3/4-x,y,3/4-z
1/2-x,-y,1/2-z
1/4+x,3/4+y,1/2-z
1/2-x,3/4+y,1/4+z
1/4+x,-y,1/4+z
1/2+x,1/2+y,z
3/4-x,3/4-y,z
1/2+x,3/4-y,1/4-z
3/4-x,1/2+y,1/4-z
1/2-x,1/2-y,-z
1/4+x,1/4+y,-z
1/2-x,1/4+y,3/4+z
1/4+x,1/2-y,3/4+z
loop_
_atom_site_type_symbol
_atom_site_label
_atom_site_fract_x
_atom_site_fract_y
_atom_site_fract_z
Si Si1 0.473639 0.664312 0.760777
Si Si2 0.242047 0.453469 0.559392
Si Si3 0.717714 0.375000 0.375000
Si Si4 0.979625 0.768642 0.817602
Si Si5 0.646480 0.896685 0.988132
Si Si6 0.577746 0.008344 0.208570
Si Si7 0.303614 0.472411 0.318511
Si Si8 0.626459 0.788689 0.056091
O O1 0.487806 0.613309 0.807028
O O2 0.416761 0.655886 0.725855
O O3 0.474770 0.719279 0.803028
O O4 0.518585 0.670613 0.706407
O O5 0.252109 0.474643 0.630529
O O6 0.290896 0.472351 0.515869
O O7 0.184181 0.478097 0.534744
O O8 0.754740 0.419064 0.337831
O O9 0.679498 0.342935 0.325858
O O10 0.914413 0.765693 0.812064
O O11 0.000000 0.750000 0.750000
O O12 0.655087 0.833298 0.010360
O O13 0.667658 0.940993 0.039977
O O14 0.637977 0.032929 0.214183
O O15 0.553766 0.030677 0.143746
O O16 0.625000 0.817939 0.125000
#
# Coordination Sequence:
#
# PCOD8285985 Si02
#       8
#    32  32  16  32  32  32  32  32
#     4   9  20  37  56  84 118 152 195 238 299 357
#     4  10  21  37  58  86 112 159 200 245 295 365
#     4  12  22  36  61  92 116 157 198 256 320 364
#     4  11  22  39  59  91 123 154 202 260 313 360
#     4  10  20  34  58  86 113 148 197 247 287 360
#     4  10  20  34  58  86 119 151 200 235 297 358
#     4   9  20  36  57  87 118 159 185 243 294 361
#     4   9  20  36  60  83 110 156 198 247 306 357
#
# _framework density 18.934878000000001
#
# number of rings (size 3 to 8) (size 9 to 14) (size 15 to 20)
#    0.000    2.133    2.667    0.000    7.467    3.200 
#    0.000    4.333    0.000    0.000    3.467    0.000 
#    0.000    0.000    0.000    0.000    0.000    0.000 
#
# Total GULP energy -743644.700670 kJ/mol
# GULP energy per Si atom -12394.078344 kJ/mol
# Density = 1.889178 g / cm^3
# Si number density = 18.934878 Si / 1000 Ang^3
#
#
#
# Elastic Constant Matrix: (Units=GPa)
#
#
# Indices 1 2 3 4 5 6 
#
# 1 104.4432 46.4400 58.9452 0.0000 0.0000 0.0000
# 2 46.4400 84.6413 38.5214 0.0000 0.0000 0.0000
# 3 58.9452 38.5214 106.8813 0.0000 0.0000 0.0000
# 4 0.0000 0.0000 0.0000 30.6813 0.0000 0.0000
# 5 0.0000 0.0000 0.0000 0.0000 30.5455 0.0000
# 6 0.0000 0.0000 0.0000 0.0000 0.0000 29.3120
#
#
#
# Elastic Compliance Matrix: (Units=1/GPa)
#
#
# Indices 1 2 3 4 5 6 
#
# 1 0.015882 -0.005655 -0.006721 0.000000 0.000000 0.000000
# 2 -0.005655 0.016146 -0.002700 0.000000 0.000000 0.000000
# 3 -0.006721 -0.002700 0.014036 0.000000 0.000000 0.000000
# 4 0.000000 0.000000 0.000000 0.032593 0.000000 0.000000
# 5 0.000000 0.000000 0.000000 0.000000 0.032738 0.000000
# 6 0.000000 0.000000 0.000000 0.000000 0.000000 0.034116
#
#
# Mechanical properties :
#
#
# Convention : Reuss Voigt Hill
#
# Bulk Modulus (GPa) = 62.84780 64.86435 63.85607
# Shear Modulus (GPa) = 27.62904 28.24502 27.93703
#
# Velocity S-wave (km/s) = 3.82404 3.86643 3.84530
# Velocity P-wave (km/s) = 7.26370 7.36636 7.31521
#
# Compressibility (1/GPa) = 0.01591146
#
# Stress axis : x y z
#
# Youngs Moduli (GPa) = 62.96320 61.93294 71.24526
#
# Poissons Ratio (x) = 0.35025 0.47883
# Poissons Ratio (y) = 0.35608 0.19240
# Poissons Ratio (z) = 0.42317 0.16725
#
# Static dielectric constant tensor:
#      x y z
#    x 3.739110 0.000000 0.000000 
#    y 0.000000 3.410380 0.000000 
#    z 0.000000 0.000000 3.410440 
# 
# 
# High freq. dielectric constant tensor:
#      x y z
#    x 1.742380 0.000000 0.000000 
#    y 0.000000 1.722750 0.000000 
#    z 0.000000 0.000000 1.727930 
# 
# From -- ./inp_files/47191.got.cif
#   From: 2010.03.12/outbox.cif.g09.slc.cpg/sg70_24_cif.got.tgz:47191.got - 2010.04.16 13:46:32.
