data_PCOD8285549
_publ_section_title
;
Structure prediction by ZEFSAII (Michael W. Deem and Ramdas Pophale) SiO2 
 PCOD8285549
Probable space group: F M M M
;
_chemical_formula_sum "Si O2"
_cell_formula_units_Z 192
_cell_length_a 28.135664
_cell_length_b 20.006133
_cell_length_c 17.516208
_cell_angle_alpha 90.000000
_cell_angle_beta 90.000000
_cell_angle_gamma 90.000000
_cell_volume 9859.625384
_symmetry_space_group_name_H-M "F M M M"
_symmetry_group_IT_number 69
_symmetry_cell_setting 'orthorhombic'
loop_
_space_group_symop_operation_xyz
x,y,z
-x,-y,z
x,-y,-z
-x,y,-z
-x,-y,-z
x,y,-z
-x,y,z
x,-y,z
x,1/2+y,1/2+z
-x,1/2-y,1/2+z
x,1/2-y,1/2-z
-x,1/2+y,1/2-z
-x,1/2-y,1/2-z
x,1/2+y,1/2-z
-x,1/2+y,1/2+z
x,1/2-y,1/2+z
1/2+x,y,1/2+z
1/2-x,-y,1/2+z
1/2+x,-y,1/2-z
1/2-x,y,1/2-z
1/2-x,-y,1/2-z
1/2+x,y,1/2-z
1/2-x,y,1/2+z
1/2+x,-y,1/2+z
1/2+x,1/2+y,z
1/2-x,1/2-y,z
1/2+x,1/2-y,-z
1/2-x,1/2+y,-z
1/2-x,1/2-y,-z
1/2+x,1/2+y,-z
1/2-x,1/2+y,z
1/2+x,1/2-y,z
loop_
_atom_site_type_symbol
_atom_site_label
_atom_site_fract_x
_atom_site_fract_y
_atom_site_fract_z
Si Si1 0.323012 0.000000 0.909617
Si Si2 0.854926 0.368777 0.830949
Si Si3 0.848333 0.120506 0.149432
Si Si4 0.805923 0.755772 0.585921
Si Si5 0.948496 0.077453 0.838675
Si Si6 0.948570 0.182098 0.706239
Si Si7 0.213190 0.500000 0.409781
O O1 0.350347 0.062718 0.875541
O O2 0.268039 0.000000 0.884229
O O3 0.327806 0.000000 0.000000
O O4 0.849489 0.379111 0.740779
O O5 0.815022 0.318589 0.860130
O O6 0.906183 0.335340 0.852092
O O7 0.832518 0.191163 0.117490
O O8 0.901417 0.103109 0.116090
O O9 0.810671 0.065917 0.123306
O O10 0.824153 0.769162 0.500000
O O11 0.750000 0.750000 0.586608
O O12 0.952290 0.119257 0.761841
O O13 0.000000 0.086024 0.882695
O O14 0.940572 0.000000 0.817516
O O15 0.934614 0.250000 0.750000
O O16 0.000000 0.191805 0.664985
O O17 0.207853 0.500000 0.500000
#
# Coordination Sequence:
#
# PCOD8285549 Si02
#       7
#    16  32  32  32  32  32  16
#     4  11  25  41  56  77 116 164 199 233 292 359
#     4  11  22  37  61  88 114 147 194 249 289 329
#     4  11  21  36  61  91 113 147 195 253 293 333
#     4  11  24  41  59  81 115 157 195 235 299 369
#     4   9  17  31  54  85 122 154 184 231 293 351
#     4   9  18  33  56  88 120 149 185 234 291 347
#     4  11  23  39  56  79 116 160 197 235 296 361
#
# _framework density 19.473357
#
# number of rings (size 3 to 8) (size 9 to 14) (size 15 to 20)
#    0.000    1.667    0.833    5.000    3.500    6.667 
#    0.000    0.000    0.000    6.000    0.000    0.000 
#    0.000    0.000    0.000    0.000    0.000    0.000 
#
# Total GULP energy -594874.525628 kJ/mol
# GULP energy per Si atom -12393.219284 kJ/mol
# Density = 1.942903 g / cm^3
# Si number density = 19.473357 Si / 1000 Ang^3
#
#
#
# Elastic Constant Matrix: (Units=GPa)
#
#
# Indices 1 2 3 4 5 6 
#
# 1 138.5763 56.7830 50.1736 0.0000 0.0000 0.0000
# 2 56.7830 147.9571 31.9220 0.0000 0.0000 0.0000
# 3 50.1736 31.9220 66.5959 0.0000 0.0000 0.0000
# 4 0.0000 0.0000 0.0000 23.1183 0.0000 0.0000
# 5 0.0000 0.0000 0.0000 0.0000 -0.7619 0.0000
# 6 0.0000 0.0000 0.0000 0.0000 0.0000 11.7243
#
#
#
# Elastic Compliance Matrix: (Units=1/GPa)
#
#
# Indices 1 2 3 4 5 6 
#
# 1 0.010788 -0.002662 -0.006852 0.000000 0.000000 0.000000
# 2 -0.002662 0.008195 -0.001923 0.000000 0.000000 0.000000
# 3 -0.006852 -0.001923 0.021100 0.000000 0.000000 0.000000
# 4 0.000000 0.000000 0.000000 0.043256 0.000000 0.000000
# 5 0.000000 0.000000 0.000000 0.000000 -1.312480 0.000000
# 6 0.000000 0.000000 0.000000 0.000000 0.000000 0.085293
#
#
# Mechanical properties :
#
#
# Convention : Reuss Voigt Hill
#
# Bulk Modulus (GPa) = 58.10574 70.09851 64.10212
# Shear Modulus (GPa) = -4.48334 21.09952 8.30809
#
# Velocity S-wave (km/s) = -1.51898 3.29524 2.06776
# Velocity P-wave (km/s) = 5.17948 7.11009 6.22014
#
# Compressibility (1/GPa) = 0.01721000
#
# Stress axis : x y z
#
# Youngs Moduli (GPa) = 92.69853 122.02369 47.39435
#
# Poissons Ratio (x) = 0.32481 0.32472
# Poissons Ratio (y) = 0.24675 0.09113
# Poissons Ratio (z) = 0.63513 0.23463
#
# Static dielectric constant tensor:
#      x y z
#    x 4.470810 0.000000 0.000000 
#    y 0.000000 3.737480 0.000000 
#    z 0.000000 0.000000 3.313130 
# 
# 
# High freq. dielectric constant tensor:
#      x y z
#    x 1.785330 0.000000 0.000000 
#    y 0.000000 1.783560 0.000000 
#    z 0.000000 0.000000 1.713110 
# 
# From -- ./inp_files/27785.got.cif
#   From: 2010.03.12/outbox.cif.g09.slc.cpg/sg69_14_cif.got.tgz:27785.got - 2010.04.10 23:52:46.
