data_PCOD8285069
_publ_section_title
;
Structure prediction by ZEFSAII (Michael W. Deem and Ramdas Pophale) SiO2 
 PCOD8285069
Probable space group: F M M M
;
_chemical_formula_sum "Si O2"
_cell_formula_units_Z 192
_cell_length_a 17.964328
_cell_length_b 18.484849
_cell_length_c 29.047714
_cell_angle_alpha 90.000000
_cell_angle_beta 90.000000
_cell_angle_gamma 90.000000
_cell_volume 9645.813111
_symmetry_space_group_name_H-M "F M M M"
_symmetry_group_IT_number 69
_symmetry_cell_setting 'orthorhombic'
loop_
_space_group_symop_operation_xyz
x,y,z
-x,-y,z
x,-y,-z
-x,y,-z
-x,-y,-z
x,y,-z
-x,y,z
x,-y,z
x,1/2+y,1/2+z
-x,1/2-y,1/2+z
x,1/2-y,1/2-z
-x,1/2+y,1/2-z
-x,1/2-y,1/2-z
x,1/2+y,1/2-z
-x,1/2+y,1/2+z
x,1/2-y,1/2+z
1/2+x,y,1/2+z
1/2-x,-y,1/2+z
1/2+x,-y,1/2-z
1/2-x,y,1/2-z
1/2-x,-y,1/2-z
1/2+x,y,1/2-z
1/2-x,y,1/2+z
1/2+x,-y,1/2+z
1/2+x,1/2+y,z
1/2-x,1/2-y,z
1/2+x,1/2-y,-z
1/2-x,1/2+y,-z
1/2-x,1/2-y,-z
1/2+x,1/2+y,-z
1/2-x,1/2+y,z
1/2+x,1/2-y,z
loop_
_atom_site_type_symbol
_atom_site_label
_atom_site_fract_x
_atom_site_fract_y
_atom_site_fract_z
Si Si1 0.584960 0.609802 0.813920
Si Si2 0.088529 0.769964 0.948232
Si Si3 0.586566 0.156351 0.126715
Si Si4 0.161576 0.500000 0.248316
Si Si5 0.085147 0.076829 0.916407
Si Si6 0.914621 0.000000 0.650869
Si Si7 0.836484 0.752969 0.303620
O O1 0.500000 0.617244 0.796821
O O2 0.631446 0.571241 0.773786
O O3 0.589654 0.567404 0.861509
O O4 0.620033 0.686817 0.826375
O O5 0.118550 0.705247 0.915335
O O6 0.123466 0.848972 0.934699
O O7 0.000000 0.773168 0.943738
O O8 0.113684 0.751044 0.000000
O O9 0.500000 0.173059 0.133862
O O10 0.629701 0.174943 0.173922
O O11 0.600775 0.070606 0.118919
O O12 0.250000 0.500000 0.250000
O O13 0.137444 0.500000 0.195427
O O14 0.000000 0.080969 0.932555
O O15 0.119395 0.000000 0.935824
O O16 0.000000 0.000000 0.668215
O O17 0.852997 0.750000 0.250000
O O18 0.750000 0.750000 0.315138
#
# Coordination Sequence:
#
# PCOD8285069 Si02
#       7
#    32  32  32  16  32  16  32
#     4  11  21  37  58  80 112 159 203 237 283 352
#     4   9  17  31  54  84 115 147 189 247 308 359
#     4  10  20  38  59  81 112 154 199 243 298 357
#     4  12  26  36  56  85 124 156 195 250 303 348
#     4   9  16  29  50  79 112 148 190 232 281 353
#     4  10  22  38  57  78 110 156 206 247 288 352
#     4  11  24  36  54  82 117 148 195 248 297 353
#
# _framework density 19.905010000000001
#
# number of rings (size 3 to 8) (size 9 to 14) (size 15 to 20)
#    0.000    1.833    2.500    2.250    4.667    3.000 
#    0.000    2.083    0.000    3.000    0.000    0.000 
#    0.000    0.000    0.000    0.000    0.000    0.000 
#
# Total GULP energy -594893.334472 kJ/mol
# GULP energy per Si atom -12393.611135 kJ/mol
# Density = 1.985971 g / cm^3
# Si number density = 19.905010 Si / 1000 Ang^3
#
#
#
# Elastic Constant Matrix: (Units=GPa)
#
#
# Indices 1 2 3 4 5 6 
#
# 1 64.9463 37.1665 33.6703 0.0000 0.0000 0.0000
# 2 37.1665 173.5791 62.2536 0.0000 0.0000 0.0000
# 3 33.6703 62.2536 95.5072 0.0000 0.0000 0.0000
# 4 0.0000 0.0000 0.0000 23.0265 0.0000 0.0000
# 5 0.0000 0.0000 0.0000 0.0000 6.7315 0.0000
# 6 0.0000 0.0000 0.0000 0.0000 0.0000 18.6298
#
#
#
# Elastic Compliance Matrix: (Units=1/GPa)
#
#
# Indices 1 2 3 4 5 6 
#
# 1 0.019480 -0.002229 -0.005415 0.000000 0.000000 0.000000
# 2 -0.002229 0.007774 -0.004281 0.000000 0.000000 0.000000
# 3 -0.005415 -0.004281 0.015170 0.000000 0.000000 0.000000
# 4 0.000000 0.000000 0.000000 0.043428 0.000000 0.000000
# 5 0.000000 0.000000 0.000000 0.000000 0.148556 0.000000
# 6 0.000000 0.000000 0.000000 0.000000 0.000000 0.053677
#
#
# Mechanical properties :
#
#
# Convention : Reuss Voigt Hill
#
# Bulk Modulus (GPa) = 53.83908 66.69038 60.26473
# Shear Modulus (GPa) = 15.71702 23.07370 19.39536
#
# Velocity S-wave (km/s) = 2.81303 3.40838 3.12492
# Velocity P-wave (km/s) = 6.13658 7.00475 6.58499
#
# Compressibility (1/GPa) = 0.01857387
#
# Stress axis : x y z
#
# Youngs Moduli (GPa) = 51.33455 128.63672 65.92000
#
# Poissons Ratio (x) = 0.28675 0.35693
# Poissons Ratio (y) = 0.11443 0.28222
# Poissons Ratio (z) = 0.27795 0.55073
#
# Static dielectric constant tensor:
#      x y z
#    x 3.073710 0.000000 0.000000 
#    y 0.000000 3.950130 0.000000 
#    z 0.000000 0.000000 3.469150 
# 
# 
# High freq. dielectric constant tensor:
#      x y z
#    x 1.728030 0.000000 0.000000 
#    y 0.000000 1.799910 0.000000 
#    z 0.000000 0.000000 1.758870 
# 
# From -- ./inp_files/46409.got.cif
#   From: 2010.03.12/outbox.cif.g09.slc.cpg/sg69_24_cif.got.tgz:46409.got - 2010.04.10 23:52:46.
