data_PCOD8285562
_publ_section_title
;
Structure prediction by ZEFSAII (Michael W. Deem and Ramdas Pophale) SiO2 
 PCOD8285562
Probable space group: F M M M
;
_chemical_formula_sum "Si O2"
_cell_formula_units_Z 136
_cell_length_a 18.942535
_cell_length_b 26.908790
_cell_length_c 13.676996
_cell_angle_alpha 90.000000
_cell_angle_beta 90.000000
_cell_angle_gamma 90.000000
_cell_volume 6971.447926
_symmetry_space_group_name_H-M "F M M M"
_symmetry_group_IT_number 69
_symmetry_cell_setting 'orthorhombic'
loop_
_space_group_symop_operation_xyz
x,y,z
-x,-y,z
x,-y,-z
-x,y,-z
-x,-y,-z
x,y,-z
-x,y,z
x,-y,z
x,1/2+y,1/2+z
-x,1/2-y,1/2+z
x,1/2-y,1/2-z
-x,1/2+y,1/2-z
-x,1/2-y,1/2-z
x,1/2+y,1/2-z
-x,1/2+y,1/2+z
x,1/2-y,1/2+z
1/2+x,y,1/2+z
1/2-x,-y,1/2+z
1/2+x,-y,1/2-z
1/2-x,y,1/2-z
1/2-x,-y,1/2-z
1/2+x,y,1/2-z
1/2-x,y,1/2+z
1/2+x,-y,1/2+z
1/2+x,1/2+y,z
1/2-x,1/2-y,z
1/2+x,1/2-y,-z
1/2-x,1/2+y,-z
1/2-x,1/2-y,-z
1/2+x,1/2+y,-z
1/2-x,1/2+y,z
1/2+x,1/2-y,z
loop_
_atom_site_type_symbol
_atom_site_label
_atom_site_fract_x
_atom_site_fract_y
_atom_site_fract_z
Si Si1 0.735077 0.000000 0.363204
Si Si2 0.892873 0.000000 0.607399
Si Si3 0.801836 0.830792 0.387207
Si Si4 0.250000 0.250000 0.750000
Si Si5 0.166947 0.103643 0.108366
Si Si6 0.080044 0.395470 0.797934
O O1 0.750000 0.000000 0.250000
O O2 0.810010 0.000000 0.415763
O O3 0.690307 0.953109 0.395636
O O4 0.916062 0.047348 0.670104
O O5 0.929737 0.000000 0.500000
O O6 0.800502 0.814314 0.500000
O O7 0.801554 0.782268 0.318927
O O8 0.733502 0.863277 0.359177
O O9 0.872208 0.862614 0.369622
O O10 0.104780 0.111123 0.185976
O O11 0.140039 0.119076 0.000000
O O12 0.000000 0.376312 0.805344
#
# Coordination Sequence:
#
# PCOD8285562 Si02
#       6
#    16  16  32   8  32  32
#     4  12  18  33  62  88 121 156 206 261 297 347
#     4  12  23  36  57  90 126 167 206 241 298 365
#     4  11  23  41  68  94 118 157 204 255 311 362
#     4  12  22  44  70  96 120 144 208 276 312 356
#     4  11  21  38  63  90 120 161 209 253 299 359
#     4  12  24  40  60  91 134 167 197 246 304 370
#
# _framework density 19.508141999999999
#
# number of rings (size 3 to 8) (size 9 to 14) (size 15 to 20)
#    0.000    0.471    7.059    2.471    0.000    2.824 
#    0.000    0.588    0.000    2.824    0.000    0.000 
#    0.000    0.000    0.000    0.000    0.000    0.000 
#
# Total GULP energy -421701.152250 kJ/mol
# GULP energy per Si atom -12402.975066 kJ/mol
# Density = 1.946374 g / cm^3
# Si number density = 19.508142 Si / 1000 Ang^3
#
#
#
# Elastic Constant Matrix: (Units=GPa)
#
#
# Indices 1 2 3 4 5 6 
#
# 1 107.9341 31.5851 43.2312 0.0000 0.0000 0.0000
# 2 31.5851 103.0583 42.3465 0.0000 0.0000 0.0000
# 3 43.2312 42.3465 150.0855 0.0000 0.0000 0.0000
# 4 0.0000 0.0000 0.0000 37.8111 0.0000 0.0000
# 5 0.0000 0.0000 0.0000 0.0000 3.2757 0.0000
# 6 0.0000 0.0000 0.0000 0.0000 0.0000 -3.2188
#
#
#
# Elastic Compliance Matrix: (Units=1/GPa)
#
#
# Indices 1 2 3 4 5 6 
#
# 1 0.010946 -0.002329 -0.002496 0.000000 0.000000 0.000000
# 2 -0.002329 0.011471 -0.002566 0.000000 0.000000 0.000000
# 3 -0.002496 -0.002566 0.008106 0.000000 0.000000 0.000000
# 4 0.000000 0.000000 0.000000 0.026447 0.000000 0.000000
# 5 0.000000 0.000000 0.000000 0.000000 0.305277 0.000000
# 6 0.000000 0.000000 0.000000 0.000000 0.000000 -0.310670
#
#
# Mechanical properties :
#
#
# Convention : Reuss Voigt Hill
#
# Bulk Modulus (GPa) = 63.52543 66.15595 64.84069
# Shear Modulus (GPa) = 69.82641 23.83461 46.83051
#
# Velocity S-wave (km/s) = 5.98925 3.49919 4.90487
# Velocity P-wave (km/s) = 8.97009 7.09305 8.08622
#
# Compressibility (1/GPa) = 0.01574173
#
# Stress axis : x y z
#
# Youngs Moduli (GPa) = 91.35618 87.17373 123.37035
#
# Poissons Ratio (x) = 0.20305 0.30791
# Poissons Ratio (y) = 0.21279 0.31653
# Poissons Ratio (z) = 0.22801 0.22366
#
# Static dielectric constant tensor:
#      x y z
#    x 3.429670 0.000000 0.000000 
#    y 0.000000 3.459740 0.000000 
#    z 0.000000 0.000000 3.779260 
# 
# 
# High freq. dielectric constant tensor:
#      x y z
#    x 1.732120 0.000000 0.000000 
#    y 0.000000 1.746580 0.000000 
#    z 0.000000 0.000000 1.789750 
# 
# From -- ./inp_files/16637.got.cif
#   From: 2010.03.12/outbox.cif.g09.slc.cpg/sg69_9_cif.got.tgz:16637.got - 2010.04.10 23:52:46.
