data_PCOD8285917
_publ_section_title
;
Structure prediction by ZEFSAII (Michael W. Deem and Ramdas Pophale) SiO2 
 PCOD8285917
Probable space group: F D D D
;
_chemical_formula_sum "Si O2"
_cell_formula_units_Z 208
_cell_length_a 20.431568
_cell_length_b 31.016103
_cell_length_c 17.816157
_cell_angle_alpha 90.000000
_cell_angle_beta 90.000000
_cell_angle_gamma 90.000000
_cell_volume 11290.234406
_symmetry_space_group_name_H-M "F D D D"
_symmetry_group_IT_number 70
_space_group.IT_coordinate_system_code '2'
_symmetry_cell_setting 'orthorhombic'
loop_
_space_group_symop_operation_xyz
x,y,z
1/4-x,1/4-y,z
x,1/4-y,1/4-z
1/4-x,y,1/4-z
-x,-y,-z
3/4+x,3/4+y,-z
-x,3/4+y,3/4+z
3/4+x,-y,3/4+z
x,1/2+y,1/2+z
1/4-x,3/4-y,1/2+z
x,3/4-y,3/4-z
1/4-x,1/2+y,3/4-z
-x,1/2-y,1/2-z
3/4+x,1/4+y,1/2-z
-x,1/4+y,1/4+z
3/4+x,1/2-y,1/4+z
1/2+x,y,1/2+z
3/4-x,1/4-y,1/2+z
1/2+x,1/4-y,3/4-z
3/4-x,y,3/4-z
1/2-x,-y,1/2-z
1/4+x,3/4+y,1/2-z
1/2-x,3/4+y,1/4+z
1/4+x,-y,1/4+z
1/2+x,1/2+y,z
3/4-x,3/4-y,z
1/2+x,3/4-y,1/4-z
3/4-x,1/2+y,1/4-z
1/2-x,1/2-y,-z
1/4+x,1/4+y,-z
1/2-x,1/4+y,3/4+z
1/4+x,1/2-y,3/4+z
loop_
_atom_site_type_symbol
_atom_site_label
_atom_site_fract_x
_atom_site_fract_y
_atom_site_fract_z
Si Si1 0.075950 0.914144 0.186141
Si Si2 0.553518 0.703362 0.485958
Si Si3 0.625000 0.125000 0.333107
Si Si4 0.087335 0.384845 0.290942
Si Si5 0.753224 0.095307 0.407490
Si Si6 0.600415 0.772749 0.780126
Si Si7 0.720384 0.000022 0.133519
O O1 0.125000 0.935049 0.125000
O O2 0.115086 0.903492 0.262480
O O3 0.019260 0.948710 0.202034
O O4 0.048111 0.868791 0.154530
O O5 0.593886 0.659674 0.473131
O O6 0.590367 0.742033 0.441767
O O7 0.549982 0.713207 0.574529
O O8 0.677735 0.103931 0.388905
O O9 0.064518 0.375000 0.375000
O O10 0.128631 0.428298 0.285366
O O11 0.022079 0.386749 0.239791
O O12 0.766562 0.044570 0.409275
O O13 0.536027 0.766637 0.828223
O O14 0.586689 0.757767 0.694272
#
# Coordination Sequence:
#
# PCOD8285917 Si02
#       7
#    32  32  16  32  32  32  32
#     4   9  20  37  58  81 112 157 198 239 292 352
#     4  11  21  35  62  86 119 154 200 241 293 349
#     4  10  22  40  58  88 116 160 196 248 294 356
#     4  11  21  36  60  86 115 152 203 248 284 353
#     4  10  19  37  61  78 115 158 197 229 298 355
#     4  11  22  35  56  88 123 154 195 234 295 357
#     4  11  21  35  56  88 120 162 182 235 291 369
#
# _framework density 18.423002
#
# number of rings (size 3 to 8) (size 9 to 14) (size 15 to 20)
#    0.000    1.538    4.615    1.385    0.000    0.000 
#    0.000    6.538    3.385    3.692    0.000    0.000 
#    0.000    0.000    0.000    0.000    0.000    0.000 
#
# Total GULP energy -644798.538684 kJ/mol
# GULP energy per Si atom -12399.971898 kJ/mol
# Density = 1.838107 g / cm^3
# Si number density = 18.423002 Si / 1000 Ang^3
#
#
#
# Elastic Constant Matrix: (Units=GPa)
#
#
# Indices 1 2 3 4 5 6 
#
# 1 107.4608 49.1832 53.0880 0.0000 0.0000 0.0000
# 2 49.1832 69.5184 41.0418 0.0000 0.0000 0.0000
# 3 53.0880 41.0418 123.9035 0.0000 0.0000 0.0000
# 4 0.0000 0.0000 0.0000 11.3895 0.0000 0.0000
# 5 0.0000 0.0000 0.0000 0.0000 13.3729 0.0000
# 6 0.0000 0.0000 0.0000 0.0000 0.0000 28.0590
#
#
#
# Elastic Compliance Matrix: (Units=1/GPa)
#
#
# Indices 1 2 3 4 5 6 
#
# 1 0.014956 -0.008451 -0.003609 0.000000 0.000000 0.000000
# 2 -0.008451 0.022656 -0.003884 0.000000 0.000000 0.000000
# 3 -0.003609 -0.003884 0.010904 0.000000 0.000000 0.000000
# 4 0.000000 0.000000 0.000000 0.087800 0.000000 0.000000
# 5 0.000000 0.000000 0.000000 0.000000 0.074778 0.000000
# 6 0.000000 0.000000 0.000000 0.000000 0.000000 0.035639
#
#
# Mechanical properties :
#
#
# Convention : Reuss Voigt Hill
#
# Bulk Modulus (GPa) = 60.13552 65.27876 62.70714
# Shear Modulus (GPa) = 17.59544 21.06892 19.33218
#
# Velocity S-wave (km/s) = 3.09379 3.38541 3.24288
# Velocity P-wave (km/s) = 6.74347 7.12682 6.93780
#
# Compressibility (1/GPa) = 0.01662911
#
# Stress axis : x y z
#
# Youngs Moduli (GPa) = 66.86076 44.13767 91.71255
#
# Poissons Ratio (x) = 0.37300 0.33100
# Poissons Ratio (y) = 0.56502 0.35620
# Poissons Ratio (z) = 0.24130 0.17143
#
# Static dielectric constant tensor:
#      x y z
#    x 3.644060 0.000000 0.000000 
#    y 0.000000 3.274220 0.000000 
#    z 0.000000 0.000000 3.348290 
# 
# 
# High freq. dielectric constant tensor:
#      x y z
#    x 1.725120 0.000000 0.000000 
#    y 0.000000 1.704170 0.000000 
#    z 0.000000 0.000000 1.701030 
# 
# From -- ./inp_files/36896.got.cif
#   From: 2010.03.12/outbox.cif.g09.slc.cpg/sg70_19_cif.got.tgz:36896.got - 2010.04.16 13:46:32.
