data_PCOD8285309
_publ_section_title
;
Structure prediction by ZEFSAII (Michael W. Deem and Ramdas Pophale) SiO2 
 PCOD8285309
Probable space group: F M M M
;
_chemical_formula_sum "Si O2"
_cell_formula_units_Z 176
_cell_length_a 25.435309
_cell_length_b 20.238824
_cell_length_c 17.503992
_cell_angle_alpha 90.000000
_cell_angle_beta 90.000000
_cell_angle_gamma 90.000000
_cell_volume 9010.717994
_symmetry_space_group_name_H-M "F M M M"
_symmetry_group_IT_number 69
_symmetry_cell_setting 'orthorhombic'
loop_
_space_group_symop_operation_xyz
x,y,z
-x,-y,z
x,-y,-z
-x,y,-z
-x,-y,-z
x,y,-z
-x,y,z
x,-y,z
x,1/2+y,1/2+z
-x,1/2-y,1/2+z
x,1/2-y,1/2-z
-x,1/2+y,1/2-z
-x,1/2-y,1/2-z
x,1/2+y,1/2-z
-x,1/2+y,1/2+z
x,1/2-y,1/2+z
1/2+x,y,1/2+z
1/2-x,-y,1/2+z
1/2+x,-y,1/2-z
1/2-x,y,1/2-z
1/2-x,-y,1/2-z
1/2+x,y,1/2-z
1/2-x,y,1/2+z
1/2+x,-y,1/2+z
1/2+x,1/2+y,z
1/2-x,1/2-y,z
1/2+x,1/2-y,-z
1/2-x,1/2+y,-z
1/2-x,1/2-y,-z
1/2+x,1/2+y,-z
1/2-x,1/2+y,z
1/2+x,1/2-y,z
loop_
_atom_site_type_symbol
_atom_site_label
_atom_site_fract_x
_atom_site_fract_y
_atom_site_fract_z
Si Si1 0.937956 0.076327 0.500000
Si Si2 0.439491 0.421874 0.782170
Si Si3 0.624937 0.624580 0.088116
Si Si4 0.374100 0.620386 0.361006
Si Si5 0.806484 0.500000 0.908704
Si Si6 0.810524 0.257421 0.088613
Si Si7 0.689822 0.500000 0.090309
O O1 0.918280 0.115893 0.426423
O O2 0.000000 0.076284 0.500000
O O3 0.916924 0.000000 0.500000
O O4 0.500000 0.410015 0.760526
O O5 0.427972 0.500000 0.789642
O O6 0.427598 0.382021 0.860817
O O7 0.402898 0.388211 0.719046
O O8 0.658221 0.690111 0.101434
O O9 0.660991 0.565309 0.119008
O O10 0.608051 0.616911 0.000000
O O11 0.331902 0.564204 0.373586
O O12 0.342122 0.688792 0.362280
O O13 0.747884 0.500000 0.876201
O O14 0.809676 0.500000 0.000000
O O15 0.750000 0.250000 0.116762
O O16 0.810404 0.279442 0.000000
O O17 0.692526 0.500000 0.000000
#
# Coordination Sequence:
#
# PCOD8285309 Si02
#       7
#    16  32  32  32  16  32  16
#     4  11  20  34  57  86 122 165 212 251 295 357
#     4  11  24  42  64  89 121 160 205 266 324 364
#     4  10  21  41  64  90 117 159 210 260 308 368
#     4  12  20  37  58  92 124 162 203 247 302 371
#     4  11  18  31  56  90 122 159 201 241 296 365
#     4  10  21  39  65  93 128 169 203 243 304 370
#     4   9  18  33  59  87 116 150 201 256 302 353
#
# _framework density 19.532295000000001
#
# number of rings (size 3 to 8) (size 9 to 14) (size 15 to 20)
#    0.000    1.364    4.545    1.636    0.000    5.455 
#    0.000    9.091    0.000    0.000    0.000    0.000 
#    0.000    0.000    0.000    0.000    0.000    0.000 
#
# Total GULP energy -545614.235301 kJ/mol
# GULP energy per Si atom -12400.323530 kJ/mol
# Density = 1.948784 g / cm^3
# Si number density = 19.532295 Si / 1000 Ang^3
#
#
#
# Elastic Constant Matrix: (Units=GPa)
#
#
# Indices 1 2 3 4 5 6 
#
# 1 107.2847 53.3000 50.4467 0.0000 0.0000 0.0000
# 2 53.3000 127.5630 44.2113 0.0000 0.0000 0.0000
# 3 50.4467 44.2113 99.6883 0.0000 0.0000 0.0000
# 4 0.0000 0.0000 0.0000 37.1968 0.0000 0.0000
# 5 0.0000 0.0000 0.0000 0.0000 20.6592 0.0000
# 6 0.0000 0.0000 0.0000 0.0000 0.0000 79.3196
#
#
#
# Elastic Compliance Matrix: (Units=1/GPa)
#
#
# Indices 1 2 3 4 5 6 
#
# 1 0.013718 -0.003930 -0.005199 0.000000 0.000000 0.000000
# 2 -0.003930 0.010389 -0.002619 0.000000 0.000000 0.000000
# 3 -0.005199 -0.002619 0.013824 0.000000 0.000000 0.000000
# 4 0.000000 0.000000 0.000000 0.026884 0.000000 0.000000
# 5 0.000000 0.000000 0.000000 0.000000 0.048405 0.000000
# 6 0.000000 0.000000 0.000000 0.000000 0.000000 0.012607
#
#
# Mechanical properties :
#
#
# Convention : Reuss Voigt Hill
#
# Bulk Modulus (GPa) = 69.27511 70.05021 69.66266
# Shear Modulus (GPa) = 32.43938 39.87365 36.15651
#
# Velocity S-wave (km/s) = 4.07972 4.52311 4.30713
# Velocity P-wave (km/s) = 7.59843 7.95108 7.77675
#
# Compressibility (1/GPa) = 0.01443520
#
# Stress axis : x y z
#
# Youngs Moduli (GPa) = 72.89646 96.25622 72.34006
#
# Poissons Ratio (x) = 0.37828 0.37610
# Poissons Ratio (y) = 0.28648 0.18944
# Poissons Ratio (z) = 0.37899 0.25207
#
# Static dielectric constant tensor:
#      x y z
#    x 3.679020 0.000000 0.000000 
#    y 0.000000 8.449710 0.000000 
#    z 0.000000 0.000000 3.661290 
# 
# 
# High freq. dielectric constant tensor:
#      x y z
#    x 1.769490 0.000000 0.000000 
#    y 0.000000 1.759130 0.000000 
#    z 0.000000 0.000000 1.747740 
# 
# From -- ./inp_files/26830.got.cif
#   From: 2010.03.12/outbox.cif.g09.slc.cpg/sg69_14_cif.got.tgz:26830.got - 2010.04.10 23:52:46.
