data_PCOD8285185
_publ_section_title
;
Structure prediction by ZEFSAII (Michael W. Deem and Ramdas Pophale) SiO2 
 PCOD8285185
Probable space group: F M M M
;
_chemical_formula_sum "Si O2"
_cell_formula_units_Z 208
_cell_length_a 18.831918
_cell_length_b 20.024506
_cell_length_c 27.616106
_cell_angle_alpha 90.000000
_cell_angle_beta 90.000000
_cell_angle_gamma 90.000000
_cell_volume 10414.029568
_symmetry_space_group_name_H-M "F M M M"
_symmetry_group_IT_number 69
_symmetry_cell_setting 'orthorhombic'
loop_
_space_group_symop_operation_xyz
x,y,z
-x,-y,z
x,-y,-z
-x,y,-z
-x,-y,-z
x,y,-z
-x,y,z
x,-y,z
x,1/2+y,1/2+z
-x,1/2-y,1/2+z
x,1/2-y,1/2-z
-x,1/2+y,1/2-z
-x,1/2-y,1/2-z
x,1/2+y,1/2-z
-x,1/2+y,1/2+z
x,1/2-y,1/2+z
1/2+x,y,1/2+z
1/2-x,-y,1/2+z
1/2+x,-y,1/2-z
1/2-x,y,1/2-z
1/2-x,-y,1/2-z
1/2+x,y,1/2-z
1/2-x,y,1/2+z
1/2+x,-y,1/2+z
1/2+x,1/2+y,z
1/2-x,1/2-y,z
1/2+x,1/2-y,-z
1/2-x,1/2+y,-z
1/2-x,1/2-y,-z
1/2+x,1/2+y,-z
1/2-x,1/2+y,z
1/2+x,1/2-y,z
loop_
_atom_site_type_symbol
_atom_site_label
_atom_site_fract_x
_atom_site_fract_y
_atom_site_fract_z
Si Si1 0.583940 0.185925 0.943636
Si Si2 0.331620 0.076192 0.407458
Si Si3 0.920929 0.313836 0.272759
Si Si4 0.329331 0.422938 0.614069
Si Si5 0.578251 0.811976 0.381399
Si Si6 0.826664 0.576562 0.227101
Si Si7 0.420510 0.921616 0.500000
O O1 0.500000 0.177562 0.938865
O O2 0.617665 0.122607 0.916532
O O3 0.608524 0.254139 0.916916
O O4 0.607617 0.188279 0.000000
O O5 0.247740 0.086313 0.410590
O O6 0.367172 0.127084 0.370538
O O7 0.372937 0.101259 0.455294
O O8 0.349923 0.000000 0.393581
O O9 0.881409 0.250000 0.250000
O O10 0.928072 0.287324 0.327236
O O11 0.879261 0.380968 0.260166
O O12 0.000000 0.324815 0.251321
O O13 0.353593 0.500000 0.609037
O O14 0.326675 0.401628 0.670507
O O15 0.500000 0.835550 0.400340
O O16 0.851021 0.500000 0.231388
O O17 0.750000 0.586755 0.250000
O O18 0.500000 0.888784 0.500000
O O19 0.429660 0.000000 0.500000
#
# Coordination Sequence:
#
# PCOD8285185 Si02
#       7
#    32  32  32  32  32  32  16
#     4  10  23  42  62  85 117 158 204 253 301 353
#     4  10  21  36  56  85 119 152 188 234 282 344
#     4  10  21  37  58  84 115 151 194 246 299 353
#     4  10  22  39  61  87 118 156 198 248 301 351
#     4  10  21  37  59  85 116 155 194 240 296 352
#     4  10  21  38  60  87 120 157 195 241 298 361
#     4   9  18  32  52  79 111 151 190 225 273 331
#
# _framework density 19.973057000000001
#
# number of rings (size 3 to 8) (size 9 to 14) (size 15 to 20)
#    0.000    2.077    0.000    2.308    2.154    6.462 
#    0.000    7.692    0.000    0.000    0.000    0.000 
#    0.000    0.000    0.000    0.000    0.000    0.000 
#
# Total GULP energy -644306.152000 kJ/mol
# GULP energy per Si atom -12390.502923 kJ/mol
# Density = 1.992760 g / cm^3
# Si number density = 19.973057 Si / 1000 Ang^3
#
#
#
# Elastic Constant Matrix: (Units=GPa)
#
#
# Indices 1 2 3 4 5 6 
#
# 1 68.9759 55.1102 39.0740 0.0000 0.0000 0.0000
# 2 55.1102 119.2938 50.0833 0.0000 0.0000 0.0000
# 3 39.0740 50.0833 120.4092 0.0000 0.0000 0.0000
# 4 0.0000 0.0000 0.0000 35.0580 0.0000 0.0000
# 5 0.0000 0.0000 0.0000 0.0000 29.7460 0.0000
# 6 0.0000 0.0000 0.0000 0.0000 0.0000 41.6108
#
#
#
# Elastic Compliance Matrix: (Units=1/GPa)
#
#
# Indices 1 2 3 4 5 6 
#
# 1 0.024413 -0.009635 -0.003915 0.000000 0.000000 0.000000
# 2 -0.009635 0.013959 -0.002679 0.000000 0.000000 0.000000
# 3 -0.003915 -0.002679 0.010690 0.000000 0.000000 0.000000
# 4 0.000000 0.000000 0.000000 0.028524 0.000000 0.000000
# 5 0.000000 0.000000 0.000000 0.000000 0.033618 0.000000
# 6 0.000000 0.000000 0.000000 0.000000 0.000000 0.024032
#
#
# Mechanical properties :
#
#
# Convention : Reuss Voigt Hill
#
# Bulk Modulus (GPa) = 60.22689 66.35711 63.29200
# Shear Modulus (GPa) = 28.86353 32.24371 30.55362
#
# Velocity S-wave (km/s) = 3.80560 4.02227 3.91543
# Velocity P-wave (km/s) = 7.03773 7.40722 7.22484
#
# Compressibility (1/GPa) = 0.01660388
#
# Stress axis : x y z
#
# Youngs Moduli (GPa) = 40.96095 71.64092 93.54613
#
# Poissons Ratio (x) = 0.69024 0.36623
# Poissons Ratio (y) = 0.39465 0.25065
# Poissons Ratio (z) = 0.16036 0.19195
#
# Static dielectric constant tensor:
#      x y z
#    x 3.577850 0.000000 0.000000 
#    y 0.000000 3.590780 0.000000 
#    z 0.000000 0.000000 3.845350 
# 
# 
# High freq. dielectric constant tensor:
#      x y z
#    x 1.771160 0.000000 0.000000 
#    y 0.000000 1.779560 0.000000 
#    z 0.000000 0.000000 1.791080 
# 
# From -- ./inp_files/41990.got.cif
#   From: 2010.03.12/outbox.cif.g09.slc.cpg/sg69_21_cif.got.tgz:41990.got - 2010.04.10 23:52:46.
