data_PCOD8285606
_publ_section_title
;
Structure prediction by ZEFSAII (Michael W. Deem and Ramdas Pophale) SiO2 
 PCOD8285606
Probable space group: F M M M
;
_chemical_formula_sum "Si O2"
_cell_formula_units_Z 152
_cell_length_a 22.394874
_cell_length_b 22.749239
_cell_length_c 13.954820
_cell_angle_alpha 90.000000
_cell_angle_beta 90.000000
_cell_angle_gamma 90.000000
_cell_volume 7109.511085
_symmetry_space_group_name_H-M "F M M M"
_symmetry_group_IT_number 69
_symmetry_cell_setting 'orthorhombic'
loop_
_space_group_symop_operation_xyz
x,y,z
-x,-y,z
x,-y,-z
-x,y,-z
-x,-y,-z
x,y,-z
-x,y,z
x,-y,z
x,1/2+y,1/2+z
-x,1/2-y,1/2+z
x,1/2-y,1/2-z
-x,1/2+y,1/2-z
-x,1/2-y,1/2-z
x,1/2+y,1/2-z
-x,1/2+y,1/2+z
x,1/2-y,1/2+z
1/2+x,y,1/2+z
1/2-x,-y,1/2+z
1/2+x,-y,1/2-z
1/2-x,y,1/2-z
1/2-x,-y,1/2-z
1/2+x,y,1/2-z
1/2-x,y,1/2+z
1/2+x,-y,1/2+z
1/2+x,1/2+y,z
1/2-x,1/2-y,z
1/2+x,1/2-y,-z
1/2-x,1/2+y,-z
1/2-x,1/2-y,-z
1/2+x,1/2+y,-z
1/2-x,1/2+y,z
1/2+x,1/2-y,z
loop_
_atom_site_type_symbol
_atom_site_label
_atom_site_fract_x
_atom_site_fract_y
_atom_site_fract_z
Si Si1 0.000000 0.500000 0.738409
Si Si2 0.682442 0.606959 0.218598
Si Si3 0.000000 0.799658 0.169821
Si Si4 0.121093 0.000000 0.884350
Si Si5 0.131020 0.214271 0.892225
Si Si6 0.124517 0.846944 0.606475
Si Si7 0.000000 0.618996 0.834954
O O1 0.057363 0.500000 0.668406
O O2 0.000000 0.450050 0.819434
O O3 0.750000 0.597456 0.250000
O O4 0.659073 0.556915 0.147115
O O5 0.670416 0.670410 0.171338
O O6 0.648416 0.604440 0.319995
O O7 0.000000 0.750000 0.250000
O O8 0.059986 0.798303 0.107361
O O9 0.000000 0.861200 0.224302
O O10 0.112966 0.000000 0.000000
O O11 0.141466 0.281270 0.857115
O O12 0.154092 0.206961 0.000000
O O13 0.150521 0.857931 0.500000
O O14 0.053874 0.854747 0.603641
#
# Coordination Sequence:
#
# PCOD8285606 Si02
#       7
#     8  32  16  16  32  32  16
#     4  12  23  44  77 104 138 170 211 278 353 416
#     4  12  26  46  67  95 135 183 230 284 338 397
#     4  12  17  33  63  93 134 176 212 278 354 412
#     4  12  26  49  77 104 133 170 222 286 350 416
#     4  11  22  38  65 101 136 177 228 283 344 406
#     4  11  23  40  65  97 136 179 223 276 338 408
#     4  12  21  39  64  97 139 176 219 276 346 408
#
# _framework density 21.379811
#
# number of rings (size 3 to 8) (size 9 to 14) (size 15 to 20)
#    0.000    0.421    6.316    2.368    0.000    5.053 
#    0.000    7.895    0.000    0.000    0.000    0.000 
#    0.000    0.000    0.000    0.000    0.000    0.000 
#
# Total GULP energy -471046.207950 kJ/mol
# GULP energy per Si atom -12395.952841 kJ/mol
# Density = 2.133115 g / cm^3
# Si number density = 21.379811 Si / 1000 Ang^3
#
#
#
# Elastic Constant Matrix: (Units=GPa)
#
#
# Indices 1 2 3 4 5 6 
#
# 1 97.7782 17.6829 19.0018 0.0000 0.0000 0.0000
# 2 17.6829 114.4171 53.0402 0.0000 0.0000 0.0000
# 3 19.0018 53.0402 94.4326 0.0000 0.0000 0.0000
# 4 0.0000 0.0000 0.0000 33.8289 0.0000 0.0000
# 5 0.0000 0.0000 0.0000 0.0000 -14.0154 0.0000
# 6 0.0000 0.0000 0.0000 0.0000 0.0000 24.1958
#
#
#
# Elastic Compliance Matrix: (Units=1/GPa)
#
#
# Indices 1 2 3 4 5 6 
#
# 1 0.010710 -0.000887 -0.001657 0.000000 0.000000 0.000000
# 2 -0.000887 0.011890 -0.006500 0.000000 0.000000 0.000000
# 3 -0.001657 -0.006500 0.014574 0.000000 0.000000 0.000000
# 4 0.000000 0.000000 0.000000 0.029561 0.000000 0.000000
# 5 0.000000 0.000000 0.000000 0.000000 -0.071350 0.000000
# 6 0.000000 0.000000 0.000000 0.000000 0.000000 0.041330
#
#
# Mechanical properties :
#
#
# Convention : Reuss Voigt Hill
#
# Bulk Modulus (GPa) = 52.39424 54.00864 53.20144
# Shear Modulus (GPa) = 81.74865 23.26206 52.50535
#
# Velocity S-wave (km/s) = 6.19027 3.30212 4.96102
# Velocity P-wave (km/s) = 8.69782 6.31308 7.59958
#
# Compressibility (1/GPa) = 0.01908607
#
# Stress axis : x y z
#
# Youngs Moduli (GPa) = 93.37394 84.10279 68.61651
#
# Poissons Ratio (x) = 0.07461 0.11368
# Poissons Ratio (y) = 0.08284 0.44600
# Poissons Ratio (z) = 0.15469 0.54666
#
# Static dielectric constant tensor:
#      x y z
#    x 3.667000 0.000000 0.000000 
#    y 0.000000 3.984770 0.000000 
#    z 0.000000 0.000000 3.840590 
# 
# 
# High freq. dielectric constant tensor:
#      x y z
#    x 1.827290 0.000000 0.000000 
#    y 0.000000 1.837610 0.000000 
#    z 0.000000 0.000000 1.849120 
# 
# From -- ./inp_files/16839.got.cif
#   From: 2010.03.12/outbox.cif.g09.slc.cpg/sg69_9_cif.got.tgz:16839.got - 2010.04.10 23:52:46.
