data_PCOD8285288
_publ_section_title
;
Structure prediction by ZEFSAII (Michael W. Deem and Ramdas Pophale) SiO2 
 PCOD8285288
Probable space group: F M M M
;
_chemical_formula_sum "Si O2"
_cell_formula_units_Z 176
_cell_length_a 18.138036
_cell_length_b 15.634535
_cell_length_c 28.384123
_cell_angle_alpha 90.000000
_cell_angle_beta 90.000000
_cell_angle_gamma 90.000000
_cell_volume 8049.162750
_symmetry_space_group_name_H-M "F M M M"
_symmetry_group_IT_number 69
_symmetry_cell_setting 'orthorhombic'
loop_
_space_group_symop_operation_xyz
x,y,z
-x,-y,z
x,-y,-z
-x,y,-z
-x,-y,-z
x,y,-z
-x,y,z
x,-y,z
x,1/2+y,1/2+z
-x,1/2-y,1/2+z
x,1/2-y,1/2-z
-x,1/2+y,1/2-z
-x,1/2-y,1/2-z
x,1/2+y,1/2-z
-x,1/2+y,1/2+z
x,1/2-y,1/2+z
1/2+x,y,1/2+z
1/2-x,-y,1/2+z
1/2+x,-y,1/2-z
1/2-x,y,1/2-z
1/2-x,-y,1/2-z
1/2+x,y,1/2-z
1/2-x,y,1/2+z
1/2+x,-y,1/2+z
1/2+x,1/2+y,z
1/2-x,1/2-y,z
1/2+x,1/2-y,-z
1/2-x,1/2+y,-z
1/2-x,1/2-y,-z
1/2+x,1/2+y,-z
1/2-x,1/2+y,z
1/2+x,1/2-y,z
loop_
_atom_site_type_symbol
_atom_site_label
_atom_site_fract_x
_atom_site_fract_y
_atom_site_fract_z
Si Si1 0.084740 0.827288 0.404383
Si Si2 0.638181 0.403556 0.685330
Si Si3 0.815984 0.188028 0.948701
Si Si4 0.585297 0.100612 0.288561
Si Si5 0.912140 0.000000 0.552828
Si Si6 0.284523 0.655010 0.850273
O O1 0.100182 0.833270 0.348547
O O2 0.116371 0.743497 0.428689
O O3 0.000000 0.824574 0.416629
O O4 0.121606 0.914495 0.424251
O O5 0.608095 0.500000 0.675905
O O6 0.615963 0.374482 0.737362
O O7 0.726934 0.404372 0.677962
O O8 0.750000 0.250000 0.960137
O O9 0.794211 0.124462 0.905336
O O10 0.836399 0.144228 0.000000
O O11 0.500000 0.129293 0.294033
O O12 0.635511 0.151466 0.325893
O O13 0.593294 0.000000 0.297942
O O14 0.884350 0.000000 0.500000
O O15 0.000000 0.000000 0.557751
O O16 0.250000 0.750000 0.850809
#
# Coordination Sequence:
#
# PCOD8285288 Si02
#       6
#    32  32  32  32  16  32
#     4  11  20  33  54  82 115 151 194 242 293 354
#     4  11  21  38  61  88 121 160 197 238 299 366
#     4  10  21  39  58  78 114 159 199 241 294 356
#     4  10  23  42  65  90 120 162 207 250 300 361
#     4   9  18  30  48  78 113 146 183 235 291 344
#     4  11  22  41  61  91 120 159 201 251 302 358
#
# _framework density 21.865628000000001
#
# number of rings (size 3 to 8) (size 9 to 14) (size 15 to 20)
#    0.000    1.545    4.545    2.182    0.000    5.455 
#    0.000    0.909    0.000    1.636    0.000    1.273 
#    0.000    0.000    0.000    0.000    0.000    0.000 
#
# Total GULP energy -545219.705294 kJ/mol
# GULP energy per Si atom -12391.356939 kJ/mol
# Density = 2.181586 g / cm^3
# Si number density = 21.865628 Si / 1000 Ang^3
#
#
#
# Elastic Constant Matrix: (Units=GPa)
#
#
# Indices 1 2 3 4 5 6 
#
# 1 114.5831 13.3650 55.5862 0.0000 0.0000 0.0000
# 2 13.3650 25.3596 17.7747 0.0000 0.0000 0.0000
# 3 55.5862 17.7747 177.0011 0.0000 0.0000 0.0000
# 4 0.0000 0.0000 0.0000 23.3882 0.0000 0.0000
# 5 0.0000 0.0000 0.0000 0.0000 32.0998 0.0000
# 6 0.0000 0.0000 0.0000 0.0000 0.0000 28.7192
#
#
#
# Elastic Compliance Matrix: (Units=1/GPa)
#
#
# Indices 1 2 3 4 5 6 
#
# 1 0.010576 -0.003491 -0.002971 0.000000 0.000000 0.000000
# 2 -0.003491 0.043571 -0.003279 0.000000 0.000000 0.000000
# 3 -0.002971 -0.003279 0.006912 0.000000 0.000000 0.000000
# 4 0.000000 0.000000 0.000000 0.042757 0.000000 0.000000
# 5 0.000000 0.000000 0.000000 0.000000 0.031153 0.000000
# 6 0.000000 0.000000 0.000000 0.000000 0.000000 0.034820
#
#
# Mechanical properties :
#
#
# Convention : Reuss Voigt Hill
#
# Bulk Modulus (GPa) = 24.05208 54.48843 39.27025
# Shear Modulus (GPa) = 24.61491 32.18929 28.40210
#
# Velocity S-wave (km/s) = 3.35884 3.84101 3.60799
# Velocity P-wave (km/s) = 5.10551 6.68169 5.94606
#
# Compressibility (1/GPa) = 0.04157645
#
# Stress axis : x y z
#
# Youngs Moduli (GPa) = 94.55705 22.95101 144.67880
#
# Poissons Ratio (x) = 0.08013 0.42978
# Poissons Ratio (y) = 0.33014 0.47440
# Poissons Ratio (z) = 0.28089 0.07526
#
# Static dielectric constant tensor:
#      x y z
#    x 4.017220 0.000000 0.000000 
#    y 0.000000 3.677980 0.000000 
#    z 0.000000 0.000000 4.260390 
# 
# 
# High freq. dielectric constant tensor:
#      x y z
#    x 1.855850 0.000000 0.000000 
#    y 0.000000 1.819370 0.000000 
#    z 0.000000 0.000000 1.875340 
# 
# From -- ./inp_files/23567.got.cif
#   From: 2010.03.12/outbox.cif.g09.slc.cpg/sg69_12_cif.got.tgz:23567.got - 2010.04.10 23:52:46.
