data_PCOD8285390
_publ_section_title
;
Structure prediction by ZEFSAII (Michael W. Deem and Ramdas Pophale) SiO2 
 PCOD8285390
Probable space group: F M M M
;
_chemical_formula_sum "Si O2"
_cell_formula_units_Z 136
_cell_length_a 17.862601
_cell_length_b 18.931357
_cell_length_c 20.735813
_cell_angle_alpha 90.000000
_cell_angle_beta 90.000000
_cell_angle_gamma 90.000000
_cell_volume 7012.090465
_symmetry_space_group_name_H-M "F M M M"
_symmetry_group_IT_number 69
_symmetry_cell_setting 'orthorhombic'
loop_
_space_group_symop_operation_xyz
x,y,z
-x,-y,z
x,-y,-z
-x,y,-z
-x,-y,-z
x,y,-z
-x,y,z
x,-y,z
x,1/2+y,1/2+z
-x,1/2-y,1/2+z
x,1/2-y,1/2-z
-x,1/2+y,1/2-z
-x,1/2-y,1/2-z
x,1/2+y,1/2-z
-x,1/2+y,1/2+z
x,1/2-y,1/2+z
1/2+x,y,1/2+z
1/2-x,-y,1/2+z
1/2+x,-y,1/2-z
1/2-x,y,1/2-z
1/2-x,-y,1/2-z
1/2+x,y,1/2-z
1/2-x,y,1/2+z
1/2+x,-y,1/2+z
1/2+x,1/2+y,z
1/2-x,1/2-y,z
1/2+x,1/2-y,-z
1/2-x,1/2+y,-z
1/2-x,1/2-y,-z
1/2+x,1/2+y,-z
1/2-x,1/2+y,z
1/2+x,1/2-y,z
loop_
_atom_site_type_symbol
_atom_site_label
_atom_site_fract_x
_atom_site_fract_y
_atom_site_fract_z
Si Si1 0.176750 0.627642 0.425043
Si Si2 0.322545 0.861606 0.158161
Si Si3 0.584489 0.265327 0.424819
Si Si4 0.411652 0.500000 0.128779
Si Si5 0.836683 0.500000 0.233792
Si Si6 0.250000 0.250000 0.250000
O O1 0.199033 0.625481 0.500000
O O2 0.250228 0.615708 0.382746
O O3 0.139926 0.701976 0.406152
O O4 0.116978 0.567905 0.409439
O O5 0.388269 0.835178 0.111597
O O6 0.355831 0.929777 0.193866
O O7 0.303471 0.799822 0.208149
O O8 0.588413 0.281743 0.500000
O O9 0.500000 0.246194 0.403774
O O10 0.500000 0.500000 0.126004
O O11 0.385953 0.500000 0.202389
O O12 0.750000 0.500000 0.250000
#
# Coordination Sequence:
#
# PCOD8285390 Si02
#       6
#    32  32  32  16  16   8
#     4  11  21  38  64  92 123 162 202 252 312 370
#     4  12  22  40  64  91 120 162 213 251 297 366
#     4  10  22  40  62  91 125 158 202 262 313 356
#     4  12  25  41  60  92 129 163 201 247 310 374
#     4  12  24  42  62  84 127 169 202 247 297 352
#     4  12  20  34  64  88 116 162 202 246 296 346
#
# _framework density 19.395071999999999
#
# number of rings (size 3 to 8) (size 9 to 14) (size 15 to 20)
#    0.000    0.706    5.882    1.765    0.000    4.706 
#    0.000    2.353    0.000    1.412    0.000    0.000 
#    0.000    0.000    0.000    0.000    0.000    0.000 
#
# Total GULP energy -421802.550181 kJ/mol
# GULP energy per Si atom -12405.957358 kJ/mol
# Density = 1.935093 g / cm^3
# Si number density = 19.395072 Si / 1000 Ang^3
#
#
#
# Elastic Constant Matrix: (Units=GPa)
#
#
# Indices 1 2 3 4 5 6 
#
# 1 54.1842 1.6081 20.5742 0.0000 0.0000 0.0000
# 2 1.6081 110.3340 36.3816 0.0000 0.0000 0.0000
# 3 20.5742 36.3816 55.3448 0.0000 0.0000 0.0000
# 4 0.0000 0.0000 0.0000 41.5913 0.0000 0.0000
# 5 0.0000 0.0000 0.0000 0.0000 33.6665 0.0000
# 6 0.0000 0.0000 0.0000 0.0000 0.0000 -6.4084
#
#
#
# Elastic Compliance Matrix: (Units=1/GPa)
#
#
# Indices 1 2 3 4 5 6 
#
# 1 0.022275 0.003072 -0.010300 0.000000 0.000000 0.000000
# 2 0.003072 0.011995 -0.009027 0.000000 0.000000 0.000000
# 3 -0.010300 -0.009027 0.027832 0.000000 0.000000 0.000000
# 4 0.000000 0.000000 0.000000 0.024043 0.000000 0.000000
# 5 0.000000 0.000000 0.000000 0.000000 0.029703 0.000000
# 6 0.000000 0.000000 0.000000 0.000000 0.000000 -0.156046
#
#
# Mechanical properties :
#
#
# Convention : Reuss Voigt Hill
#
# Bulk Modulus (GPa) = 33.79362 37.44342 35.61852
# Shear Modulus (GPa) = 2296.48206 24.52316 1160.50261
#
# Velocity S-wave (km/s) = 34.44742 3.55970 24.48771
# Velocity P-wave (km/s) = 39.99535 6.02020 28.59957
#
# Compressibility (1/GPa) = 0.02959138
#
# Stress axis : x y z
#
# Youngs Moduli (GPa) = 44.89266 83.36667 35.93044
#
# Poissons Ratio (x) = -0.25607 0.37008
# Poissons Ratio (y) = -0.13789 0.32435
# Poissons Ratio (z) = 0.46239 0.75256
#
# Static dielectric constant tensor:
#      x y z
#    x 3.487080 0.000000 0.000000 
#    y 0.000000 3.887030 0.000000 
#    z 0.000000 0.000000 3.551890 
# 
# 
# High freq. dielectric constant tensor:
#      x y z
#    x 1.744260 0.000000 0.000000 
#    y 0.000000 1.764020 0.000000 
#    z 0.000000 0.000000 1.770650 
# 
# From -- ./inp_files/22620.got.cif
#   From: 2010.03.12/outbox.cif.g09.slc.cpg/sg69_12_cif.got.tgz:22620.got - 2010.04.10 23:52:46.
