data_PCOD8285530
_publ_section_title
;
Structure prediction by ZEFSAII (Michael W. Deem and Ramdas Pophale) SiO2 
 PCOD8285530
Probable space group: F M M M
;
_chemical_formula_sum "Si O2"
_cell_formula_units_Z 152
_cell_length_a 23.336125
_cell_length_b 26.828886
_cell_length_c 13.477522
_cell_angle_alpha 90.000000
_cell_angle_beta 90.000000
_cell_angle_gamma 90.000000
_cell_volume 8438.037127
_symmetry_space_group_name_H-M "F M M M"
_symmetry_group_IT_number 69
_symmetry_cell_setting 'orthorhombic'
loop_
_space_group_symop_operation_xyz
x,y,z
-x,-y,z
x,-y,-z
-x,y,-z
-x,-y,-z
x,y,-z
-x,y,z
x,-y,z
x,1/2+y,1/2+z
-x,1/2-y,1/2+z
x,1/2-y,1/2-z
-x,1/2+y,1/2-z
-x,1/2-y,1/2-z
x,1/2+y,1/2-z
-x,1/2+y,1/2+z
x,1/2-y,1/2+z
1/2+x,y,1/2+z
1/2-x,-y,1/2+z
1/2+x,-y,1/2-z
1/2-x,y,1/2-z
1/2-x,-y,1/2-z
1/2+x,y,1/2-z
1/2-x,y,1/2+z
1/2+x,-y,1/2+z
1/2+x,1/2+y,z
1/2-x,1/2-y,z
1/2+x,1/2-y,-z
1/2-x,1/2+y,-z
1/2-x,1/2-y,-z
1/2+x,1/2+y,-z
1/2-x,1/2+y,z
1/2+x,1/2-y,z
loop_
_atom_site_type_symbol
_atom_site_label
_atom_site_fract_x
_atom_site_fract_y
_atom_site_fract_z
Si Si1 0.000000 0.940447 0.617737
Si Si2 0.289469 0.832221 0.887418
Si Si3 0.324293 0.105963 0.611204
Si Si4 0.658858 0.500000 0.393553
Si Si5 0.617792 0.400831 0.693127
Si Si6 0.221594 0.500000 0.357850
Si Si7 0.750000 0.250000 0.250000
O O1 0.947835 0.909074 0.663919
O O2 0.000000 0.935188 0.500000
O O3 0.000000 0.000000 0.647382
O O4 0.234742 0.866453 0.858119
O O5 0.349381 0.861603 0.877028
O O6 0.291139 0.783573 0.818367
O O7 0.283889 0.814186 0.000000
O O8 0.344089 0.121869 0.500000
O O9 0.373545 0.118007 0.692841
O O10 0.316587 0.047141 0.615878
O O11 0.622958 0.500000 0.500000
O O12 0.647518 0.546271 0.322956
O O13 0.723965 0.500000 0.430656
O O14 0.250000 0.500000 0.250000
#
# Coordination Sequence:
#
# PCOD8285530 Si02
#       7
#    16  32  32  16  32  16   8
#     4  11  24  38  57  84 117 157 196 234 276 327
#     4  11  22  37  60  87 118 151 186 236 299 354
#     4  11  21  34  54  83 114 150 188 228 286 352
#     4  12  20  28  51  78 113 150 181 224 276 336
#     4  12  21  38  55  82 118 153 191 235 278 337
#     4  12  18  29  47  79 116 147 178 220 276 342
#     4  12  22  40  56  90 124 140 190 240 302 356
#
# _framework density 18.013667999999999
#
# number of rings (size 3 to 8) (size 9 to 14) (size 15 to 20)
#    0.000    0.526    7.368    3.158    0.000    0.000 
#    0.000    0.526    0.000    1.263    0.000    0.000 
#    0.000    0.000    0.000    0.000    0.000    0.000 
#
# Total GULP energy -470871.208250 kJ/mol
# GULP energy per Si atom -12391.347586 kJ/mol
# Density = 1.797267 g / cm^3
# Si number density = 18.013668 Si / 1000 Ang^3
#
#
#
# Elastic Constant Matrix: (Units=GPa)
#
#
# Indices 1 2 3 4 5 6 
#
# 1 113.4595 29.4035 43.9379 0.0000 0.0000 0.0000
# 2 29.4035 88.4410 31.0255 0.0000 0.0000 0.0000
# 3 43.9379 31.0255 139.1377 0.0000 0.0000 0.0000
# 4 0.0000 0.0000 0.0000 28.7239 0.0000 0.0000
# 5 0.0000 0.0000 0.0000 0.0000 20.0419 0.0000
# 6 0.0000 0.0000 0.0000 0.0000 0.0000 52.0328
#
#
#
# Elastic Compliance Matrix: (Units=1/GPa)
#
#
# Indices 1 2 3 4 5 6 
#
# 1 0.010541 -0.002535 -0.002763 0.000000 0.000000 0.000000
# 2 -0.002535 0.012876 -0.002071 0.000000 0.000000 0.000000
# 3 -0.002763 -0.002071 0.008521 0.000000 0.000000 0.000000
# 4 0.000000 0.000000 0.000000 0.034814 0.000000 0.000000
# 5 0.000000 0.000000 0.000000 0.000000 0.049896 0.000000
# 6 0.000000 0.000000 0.000000 0.000000 0.000000 0.019219
#
#
# Mechanical properties :
#
#
# Convention : Reuss Voigt Hill
#
# Bulk Modulus (GPa) = 58.13841 61.08579 59.61210
# Shear Modulus (GPa) = 31.98188 35.93779 33.95984
#
# Velocity S-wave (km/s) = 4.21815 4.47142 4.34663
# Velocity P-wave (km/s) = 7.48788 7.78733 7.63907
#
# Compressibility (1/GPa) = 0.01720033
#
# Stress axis : x y z
#
# Youngs Moduli (GPa) = 94.86926 77.66279 117.35043
#
# Poissons Ratio (x) = 0.19688 0.32428
# Poissons Ratio (y) = 0.24050 0.24299
# Poissons Ratio (z) = 0.26216 0.16081
#
# Static dielectric constant tensor:
#      x y z
#    x 3.168660 0.000000 0.000000 
#    y 0.000000 2.980180 0.000000 
#    z 0.000000 0.000000 3.749000 
# 
# 
# High freq. dielectric constant tensor:
#      x y z
#    x 1.653030 0.000000 0.000000 
#    y 0.000000 1.675880 0.000000 
#    z 0.000000 0.000000 1.727940 
# 
# From -- ./inp_files/18940.got.cif
#   From: 2010.03.12/outbox.cif.g09.slc.cpg/sg69_10_cif.got.tgz:18940.got - 2010.04.10 23:52:46.
