data_PCOD8285807
_publ_section_title
;
Structure prediction by ZEFSAII (Michael W. Deem and Ramdas Pophale) SiO2 
 PCOD8285807
Probable space group: F D D D
;
_chemical_formula_sum "Si O2"
_cell_formula_units_Z 112
_cell_length_a 32.825427
_cell_length_b 7.594012
_cell_length_c 21.543373
_cell_angle_alpha 90.000000
_cell_angle_beta 90.000000
_cell_angle_gamma 90.000000
_cell_volume 5370.260638
_symmetry_space_group_name_H-M "F D D D"
_symmetry_group_IT_number 70
_space_group.IT_coordinate_system_code '2'
_symmetry_cell_setting 'orthorhombic'
loop_
_space_group_symop_operation_xyz
x,y,z
1/4-x,1/4-y,z
x,1/4-y,1/4-z
1/4-x,y,1/4-z
-x,-y,-z
3/4+x,3/4+y,-z
-x,3/4+y,3/4+z
3/4+x,-y,3/4+z
x,1/2+y,1/2+z
1/4-x,3/4-y,1/2+z
x,3/4-y,3/4-z
1/4-x,1/2+y,3/4-z
-x,1/2-y,1/2-z
3/4+x,1/4+y,1/2-z
-x,1/4+y,1/4+z
3/4+x,1/2-y,1/4+z
1/2+x,y,1/2+z
3/4-x,1/4-y,1/2+z
1/2+x,1/4-y,3/4-z
3/4-x,y,3/4-z
1/2-x,-y,1/2-z
1/4+x,3/4+y,1/2-z
1/2-x,3/4+y,1/4+z
1/4+x,-y,1/4+z
1/2+x,1/2+y,z
3/4-x,3/4-y,z
1/2+x,3/4-y,1/4-z
3/4-x,1/2+y,1/4-z
1/2-x,1/2-y,-z
1/4+x,1/4+y,-z
1/2-x,1/4+y,3/4+z
1/4+x,1/2-y,3/4+z
loop_
_atom_site_type_symbol
_atom_site_label
_atom_site_fract_x
_atom_site_fract_y
_atom_site_fract_z
Si Si1 0.670982 0.084880 0.753174
Si Si2 0.770810 0.319592 0.138585
Si Si3 0.662213 0.001389 0.933197
Si Si4 0.542761 0.125000 0.625000
O O1 0.625000 0.125000 0.774629
O O2 0.703269 0.180581 0.797995
O O3 0.678456 0.157161 0.684151
O O4 0.675410 0.872399 0.759074
O O5 0.799520 0.375908 0.081661
O O6 0.733731 0.454963 0.142130
O O7 0.753727 0.125000 0.125000
O O8 0.651031 0.875000 0.875000
O O9 0.625000 0.125000 0.952534
#
# Coordination Sequence:
#
# PCOD8285807 Si02
#       4
#    32  32  32  16
#     4  11  23  42  65  89 130 171 207 260 314 376
#     4  11  22  40  69  94 123 161 214 264 313 365
#     4  10  18  35  64  98 123 157 214 269 308 365
#     4  12  25  44  60  92 136 168 204 258 324 376
#
# _framework density 20.855599000000002
#
# number of rings (size 3 to 8) (size 9 to 14) (size 15 to 20)
#    0.000    1.143    4.286    7.286    0.000    1.143 
#    5.143    0.000    0.000    0.000    0.000    0.000 
#    0.000    0.000    0.000    0.000    0.000    0.000 
#
# Total GULP energy -347211.488371 kJ/mol
# GULP energy per Si atom -12400.410299 kJ/mol
# Density = 2.080813 g / cm^3
# Si number density = 20.855599 Si / 1000 Ang^3
#
#
#
# Elastic Constant Matrix: (Units=GPa)
#
#
# Indices 1 2 3 4 5 6 
#
# 1 55.4006 19.9536 19.4513 -0.0002 0.0008 0.0001
# 2 19.9536 125.7946 25.4491 -0.0002 0.0009 -0.0003
# 3 19.4513 25.4491 101.4134 0.0000 0.0001 0.0000
# 4 -0.0002 -0.0002 0.0000 18.1160 0.0005 0.0000
# 5 0.0008 0.0009 0.0001 0.0005 28.9226 -0.0003
# 6 0.0001 -0.0003 0.0000 0.0000 -0.0003 30.8531
#
#
#
# Elastic Compliance Matrix: (Units=1/GPa)
#
#
# Indices 1 2 3 4 5 6 
#
# 1 0.020094 -0.002536 -0.003217 0.000000 0.000000 0.000000
# 2 -0.002536 0.008695 -0.001695 0.000000 0.000000 0.000000
# 3 -0.003217 -0.001695 0.010903 0.000000 0.000000 0.000000
# 4 0.000000 0.000000 0.000000 0.055200 -0.000001 0.000000
# 5 0.000000 0.000000 0.000000 -0.000001 0.034575 0.000000
# 6 0.000000 0.000000 0.000000 0.000000 0.000000 0.032412
#
#
# Mechanical properties :
#
#
# Convention : Reuss Voigt Hill
#
# Bulk Modulus (GPa) = 40.33398 45.81296 43.07347
# Shear Modulus (GPa) = 27.02104 30.09531 28.55818
#
# Velocity S-wave (km/s) = 3.60338 3.80285 3.70446
# Velocity P-wave (km/s) = 6.05757 6.42625 6.24463
#
# Compressibility (1/GPa) = 0.02479299
#
# Stress axis : x y z
#
# Youngs Moduli (GPa) = 49.76732 115.01151 91.71615
#
# Poissons Ratio (x) = 0.29171 0.29510
# Poissons Ratio (y) = 0.12623 0.15550
# Poissons Ratio (z) = 0.16013 0.19499
#
# Static dielectric constant tensor:
#      x y z
#    x 3.663670 0.000000 0.000000 
#    y 0.000000 3.915230 0.000000 
#    z 0.000000 0.000000 3.545560 
# 
# 
# High freq. dielectric constant tensor:
#      x y z
#    x 1.812530 0.000000 0.000000 
#    y 0.000000 1.820390 0.000000 
#    z 0.000000 0.000000 1.791920 
# 
# From -- ./inp_files/54045.got.cif
#   From: 2010.03.12/outbox.cif.g09.slc.cpg/sg70_28_cif.got.tgz:54045.got - 2010.04.16 13:46:32.
