data_PCOD8285054
_publ_section_title
;
Structure prediction by ZEFSAII (Michael W. Deem and Ramdas Pophale) SiO2 
 PCOD8285054
Probable space group: F M M M
;
_chemical_formula_sum "Si O2"
_cell_formula_units_Z 176
_cell_length_a 19.558727
_cell_length_b 26.961286
_cell_length_c 17.766847
_cell_angle_alpha 90.000000
_cell_angle_beta 90.000000
_cell_angle_gamma 90.000000
_cell_volume 9368.963578
_symmetry_space_group_name_H-M "F M M M"
_symmetry_group_IT_number 69
_symmetry_cell_setting 'orthorhombic'
loop_
_space_group_symop_operation_xyz
x,y,z
-x,-y,z
x,-y,-z
-x,y,-z
-x,-y,-z
x,y,-z
-x,y,z
x,-y,z
x,1/2+y,1/2+z
-x,1/2-y,1/2+z
x,1/2-y,1/2-z
-x,1/2+y,1/2-z
-x,1/2-y,1/2-z
x,1/2+y,1/2-z
-x,1/2+y,1/2+z
x,1/2-y,1/2+z
1/2+x,y,1/2+z
1/2-x,-y,1/2+z
1/2+x,-y,1/2-z
1/2-x,y,1/2-z
1/2-x,-y,1/2-z
1/2+x,y,1/2-z
1/2-x,y,1/2+z
1/2+x,-y,1/2+z
1/2+x,1/2+y,z
1/2-x,1/2-y,z
1/2+x,1/2-y,-z
1/2-x,1/2+y,-z
1/2-x,1/2-y,-z
1/2+x,1/2+y,-z
1/2-x,1/2+y,z
1/2+x,1/2-y,z
loop_
_atom_site_type_symbol
_atom_site_label
_atom_site_fract_x
_atom_site_fract_y
_atom_site_fract_z
Si Si1 0.325491 0.771640 0.082814
Si Si2 0.269359 0.142455 0.830090
Si Si3 0.871170 0.058701 0.338623
Si Si4 0.074885 0.441640 0.000000
Si Si5 0.136664 0.168372 0.912444
Si Si6 0.500000 0.890972 0.587422
Si Si7 0.500000 0.442387 0.758215
O O1 0.250000 0.750000 0.077378
O O2 0.325975 0.820537 0.134271
O O3 0.369732 0.725613 0.116879
O O4 0.352482 0.787161 0.000000
O O5 0.250000 0.165493 0.750000
O O6 0.302201 0.088121 0.818092
O O7 0.199468 0.137652 0.877242
O O8 0.885844 0.074212 0.424762
O O9 0.932063 0.077963 0.283671
O O10 0.857888 0.000000 0.329462
O O11 0.065238 0.500000 0.000000
O O12 0.000000 0.416554 0.000000
O O13 0.065903 0.141783 0.895735
O O14 0.153627 0.170648 0.000000
O O15 0.500000 0.911183 0.500000
O O16 0.500000 0.933306 0.651482
O O17 0.500000 0.500000 0.743437
#
# Coordination Sequence:
#
# PCOD8285054 Si02
#       7
#    32  32  32  16  32  16  16
#     4   8  16  32  52  72  99 136 174 214 262 314
#     4  11  21  32  52  81 112 143 181 220 266 322
#     4  10  21  35  55  80 110 146 180 225 279 329
#     4   9  16  32  56  80 101 133 183 223 270 334
#     4   9  19  36  56  78 106 142 182 221 268 322
#     4  10  20  37  62  82 105 145 187 226 267 318
#     4  10  20  38  57  77 110 146 183 222 269 328
#
# _framework density 18.785429000000001
#
# number of rings (size 3 to 8) (size 9 to 14) (size 15 to 20)
#    0.000    2.455    0.909    2.727    2.545    3.818 
#    0.000    1.818    0.000    3.273    0.000    0.000 
#    0.000    0.000    0.000    0.000    0.000    0.000 
#
# Total GULP energy -545263.906754 kJ/mol
# GULP energy per Si atom -12392.361517 kJ/mol
# Density = 1.874267 g / cm^3
# Si number density = 18.785429 Si / 1000 Ang^3
#
#
#
# Elastic Constant Matrix: (Units=GPa)
#
#
# Indices 1 2 3 4 5 6 
#
# 1 95.1644 38.9340 30.1954 0.0000 0.0000 0.0000
# 2 38.9340 69.9635 31.3160 0.0000 0.0000 0.0000
# 3 30.1954 31.3160 101.7925 0.0000 0.0000 0.0000
# 4 0.0000 0.0000 0.0000 24.9405 0.0000 0.0000
# 5 0.0000 0.0000 0.0000 0.0000 17.7496 0.0000
# 6 0.0000 0.0000 0.0000 0.0000 0.0000 24.0004
#
#
#
# Elastic Compliance Matrix: (Units=1/GPa)
#
#
# Indices 1 2 3 4 5 6 
#
# 1 0.013959 -0.006859 -0.002030 0.000000 0.000000 0.000000
# 2 -0.006859 0.019946 -0.004102 0.000000 0.000000 0.000000
# 3 -0.002030 -0.004102 0.011688 0.000000 0.000000 0.000000
# 4 0.000000 0.000000 0.000000 0.040095 0.000000 0.000000
# 5 0.000000 0.000000 0.000000 0.000000 0.056339 0.000000
# 6 0.000000 0.000000 0.000000 0.000000 0.000000 0.041666
#
#
# Mechanical properties :
#
#
# Convention : Reuss Voigt Hill
#
# Bulk Modulus (GPa) = 50.99331 51.97904 51.48617
# Shear Modulus (GPa) = 23.12540 24.43643 23.78091
#
# Velocity S-wave (km/s) = 3.51241 3.61060 3.56184
# Velocity P-wave (km/s) = 6.60707 6.71653 6.66203
#
# Compressibility (1/GPa) = 0.01961042
#
# Stress axis : x y z
#
# Youngs Moduli (GPa) = 71.64062 50.13524 85.55708
#
# Poissons Ratio (x) = 0.34387 0.17372
# Poissons Ratio (y) = 0.49138 0.35093
# Poissons Ratio (z) = 0.14547 0.20564
#
# Static dielectric constant tensor:
#      x y z
#    x 3.374720 0.000000 0.000000 
#    y 0.000000 3.458080 0.000000 
#    z 0.000000 0.000000 3.622010 
# 
# 
# High freq. dielectric constant tensor:
#      x y z
#    x 1.712170 0.000000 0.000000 
#    y 0.000000 1.712260 0.000000 
#    z 0.000000 0.000000 1.736910 
# 
# From -- ./inp_files/23288.got.cif
#   From: 2010.03.12/outbox.cif.g09.slc.cpg/sg69_12_cif.got.tgz:23288.got - 2010.04.10 23:52:46.
