data_PCOD8285411
_publ_section_title
;
Structure prediction by ZEFSAII (Michael W. Deem and Ramdas Pophale) SiO2 
 PCOD8285411
Probable space group: F M M M
;
_chemical_formula_sum "Si O2"
_cell_formula_units_Z 224
_cell_length_a 18.543785
_cell_length_b 30.009997
_cell_length_c 20.069300
_cell_angle_alpha 90.000000
_cell_angle_beta 90.000000
_cell_angle_gamma 90.000000
_cell_volume 11168.544020
_symmetry_space_group_name_H-M "F M M M"
_symmetry_group_IT_number 69
_symmetry_cell_setting 'orthorhombic'
loop_
_space_group_symop_operation_xyz
x,y,z
-x,-y,z
x,-y,-z
-x,y,-z
-x,-y,-z
x,y,-z
-x,y,z
x,-y,z
x,1/2+y,1/2+z
-x,1/2-y,1/2+z
x,1/2-y,1/2-z
-x,1/2+y,1/2-z
-x,1/2-y,1/2-z
x,1/2+y,1/2-z
-x,1/2+y,1/2+z
x,1/2-y,1/2+z
1/2+x,y,1/2+z
1/2-x,-y,1/2+z
1/2+x,-y,1/2-z
1/2-x,y,1/2-z
1/2-x,-y,1/2-z
1/2+x,y,1/2-z
1/2-x,y,1/2+z
1/2+x,-y,1/2+z
1/2+x,1/2+y,z
1/2-x,1/2-y,z
1/2+x,1/2-y,-z
1/2-x,1/2+y,-z
1/2-x,1/2-y,-z
1/2+x,1/2+y,-z
1/2-x,1/2+y,z
1/2+x,1/2-y,z
loop_
_atom_site_type_symbol
_atom_site_label
_atom_site_fract_x
_atom_site_fract_y
_atom_site_fract_z
Si Si1 0.417289 0.857604 0.363799
Si Si2 0.170543 0.625782 0.231647
Si Si3 0.674187 0.725400 0.314575
Si Si4 0.833048 0.946774 0.630037
Si Si5 0.920397 0.947637 0.500000
Si Si6 0.819170 0.075755 0.076064
Si Si7 0.418958 0.738294 0.924281
Si Si8 0.421344 0.500000 0.079384
O O1 0.500000 0.875907 0.370370
O O2 0.386175 0.866983 0.290767
O O3 0.359758 0.877350 0.416657
O O4 0.416842 0.806199 0.381105
O O5 0.250000 0.608531 0.250000
O O6 0.183218 0.672742 0.194824
O O7 0.136375 0.585306 0.188043
O O8 0.637676 0.750000 0.250000
O O9 0.750000 0.750000 0.326520
O O10 0.628631 0.727334 0.382471
O O11 0.877646 0.932773 0.565206
O O12 0.750999 0.931162 0.620082
O O13 0.838543 0.000000 0.646161
O O14 0.000000 0.925546 0.500000
O O15 0.928268 0.000000 0.500000
O O16 0.878825 0.042537 0.105311
O O17 0.798103 0.065777 0.000000
O O18 0.500000 0.756897 0.927490
O O19 0.389560 0.732170 0.000000
O O20 0.500000 0.500000 0.112426
O O21 0.426917 0.500000 0.000000
#
# Coordination Sequence:
#
# PCOD8285411 Si02
#       8
#    32  32  32  32  16  32  32  16
#     4  11  23  39  60  88 124 167 209 252 313 380
#     4  12  23  41  63  90 123 165 216 257 313 379
#     4  11  21  40  66  91 124 168 211 262 308 376
#     4  11  23  40  66  94 123 162 210 263 319 377
#     4   9  20  42  70  94 121 162 212 268 329 384
#     4  11  20  34  59  88 121 158 206 256 304 376
#     4  10  22  41  65  94 127 164 207 259 316 377
#     4   9  18  30  48  77 116 158 196 248 307 355
#
# _framework density 20.056329999999999
#
# number of rings (size 3 to 8) (size 9 to 14) (size 15 to 20)
#    0.000    1.286    5.714    0.857    0.000    3.429 
#    2.571    0.000    0.000    0.000    0.000    0.000 
#    0.000    0.000    0.000    0.000    0.000    0.000 
#
# Total GULP energy -694016.980953 kJ/mol
# GULP energy per Si atom -12393.160374 kJ/mol
# Density = 2.001068 g / cm^3
# Si number density = 20.056330 Si / 1000 Ang^3
#
#
#
# Elastic Constant Matrix: (Units=GPa)
#
#
# Indices 1 2 3 4 5 6 
#
# 1 91.3196 16.9049 41.0933 0.0000 0.0000 0.0000
# 2 16.9049 81.1501 36.1321 0.0000 0.0000 0.0000
# 3 41.0933 36.1321 127.2708 0.0000 0.0000 0.0000
# 4 0.0000 0.0000 0.0000 31.2243 0.0000 0.0000
# 5 0.0000 0.0000 0.0000 0.0000 30.7518 0.0000
# 6 0.0000 0.0000 0.0000 0.0000 0.0000 21.8804
#
#
#
# Elastic Compliance Matrix: (Units=1/GPa)
#
#
# Indices 1 2 3 4 5 6 
#
# 1 0.012876 -0.000951 -0.003887 0.000000 0.000000 0.000000
# 2 -0.000951 0.014176 -0.003717 0.000000 0.000000 0.000000
# 3 -0.003887 -0.003717 0.010168 0.000000 0.000000 0.000000
# 4 0.000000 0.000000 0.000000 0.032026 0.000000 0.000000
# 5 0.000000 0.000000 0.000000 0.000000 0.032518 0.000000
# 6 0.000000 0.000000 0.000000 0.000000 0.000000 0.045703
#
#
# Mechanical properties :
#
#
# Convention : Reuss Voigt Hill
#
# Bulk Modulus (GPa) = 49.73238 54.22235 51.97737
# Shear Modulus (GPa) = 29.19153 30.47864 29.83508
#
# Velocity S-wave (km/s) = 3.81921 3.90250 3.86108
# Velocity P-wave (km/s) = 6.65572 6.88475 6.77120
#
# Compressibility (1/GPa) = 0.02010762
#
# Stress axis : x y z
#
# Youngs Moduli (GPa) = 77.66425 70.54061 98.35003
#
# Poissons Ratio (x) = 0.06712 0.38231
# Poissons Ratio (y) = 0.07389 0.36561
# Poissons Ratio (z) = 0.30190 0.26223
#
# Static dielectric constant tensor:
#      x y z
#    x 3.814920 0.000000 0.000000 
#    y 0.000000 3.579550 0.000000 
#    z 0.000000 0.000000 3.624840 
# 
# 
# High freq. dielectric constant tensor:
#      x y z
#    x 1.782870 0.000000 0.000000 
#    y 0.000000 1.775260 0.000000 
#    z 0.000000 0.000000 1.777160 
# 
# From -- ./inp_files/31207.got.cif
#   From: 2010.03.12/outbox.cif.g09.slc.cpg/sg69_16_cif.got.tgz:31207.got - 2010.04.10 23:52:46.
