data_PCOD8285509
_publ_section_title
;
Structure prediction by ZEFSAII (Michael W. Deem and Ramdas Pophale) SiO2 
 PCOD8285509
Probable space group: F M M M
;
_chemical_formula_sum "Si O2"
_cell_formula_units_Z 160
_cell_length_a 21.820426
_cell_length_b 19.113727
_cell_length_c 19.958134
_cell_angle_alpha 90.000000
_cell_angle_beta 90.000000
_cell_angle_gamma 90.000000
_cell_volume 8323.932273
_symmetry_space_group_name_H-M "F M M M"
_symmetry_group_IT_number 69
_symmetry_cell_setting 'orthorhombic'
loop_
_space_group_symop_operation_xyz
x,y,z
-x,-y,z
x,-y,-z
-x,y,-z
-x,-y,-z
x,y,-z
-x,y,z
x,-y,z
x,1/2+y,1/2+z
-x,1/2-y,1/2+z
x,1/2-y,1/2-z
-x,1/2+y,1/2-z
-x,1/2-y,1/2-z
x,1/2+y,1/2-z
-x,1/2+y,1/2+z
x,1/2-y,1/2+z
1/2+x,y,1/2+z
1/2-x,-y,1/2+z
1/2+x,-y,1/2-z
1/2-x,y,1/2-z
1/2-x,-y,1/2-z
1/2+x,y,1/2-z
1/2-x,y,1/2+z
1/2+x,-y,1/2+z
1/2+x,1/2+y,z
1/2-x,1/2-y,z
1/2+x,1/2-y,-z
1/2-x,1/2+y,-z
1/2-x,1/2-y,-z
1/2+x,1/2+y,-z
1/2-x,1/2+y,z
1/2+x,1/2-y,z
loop_
_atom_site_type_symbol
_atom_site_label
_atom_site_fract_x
_atom_site_fract_y
_atom_site_fract_z
Si Si1 0.882667 0.148916 0.575267
Si Si2 0.071653 0.500000 0.733885
Si Si3 0.433899 0.239452 0.329210
Si Si4 0.655453 0.130728 0.705814
Si Si5 0.069666 0.000000 0.392330
Si Si6 0.777691 0.827109 0.336488
O O1 0.894094 0.176428 0.500000
O O2 0.925352 0.190166 0.627647
O O3 0.896446 0.067072 0.578430
O O4 0.810787 0.161678 0.592683
O O5 0.109561 0.565838 0.706918
O O6 0.073209 0.500000 0.812979
O O7 0.000000 0.500000 0.709243
O O8 0.500000 0.207955 0.350574
O O9 0.435839 0.250000 0.250000
O O10 0.378063 0.186774 0.342786
O O11 0.722054 0.116715 0.671761
O O12 0.669325 0.160193 0.780493
O O13 0.000000 0.000000 0.417673
O O14 0.750000 0.750000 0.326876
#
# Coordination Sequence:
#
# PCOD8285509 Si02
#       6
#    32  16  32  32  16  32
#     4  12  25  40  60  89 127 168 208 249 313 379
#     4  11  22  37  61  95 127 156 202 260 317 371
#     4  11  20  36  60  85 115 158 210 255 299 355
#     4  11  20  36  61  89 119 155 200 255 313 364
#     4  11  23  41  59  85 129 168 201 243 302 384
#     4  11  21  37  61  86 120 158 206 254 306 360
#
# _framework density 19.221684
#
# number of rings (size 3 to 8) (size 9 to 14) (size 15 to 20)
#    0.000    0.800    6.000    2.700    0.000    8.000 
#    0.000    0.000    0.000    0.000    0.000    0.700 
#    0.000    4.800    0.000    0.000    0.000    0.000 
#
# Total GULP energy -495691.754241 kJ/mol
# GULP energy per Si atom -12392.293856 kJ/mol
# Density = 1.917793 g / cm^3
# Si number density = 19.221684 Si / 1000 Ang^3
#
#
#
# Elastic Constant Matrix: (Units=GPa)
#
#
# Indices 1 2 3 4 5 6 
#
# 1 153.3599 52.1614 39.2131 0.0000 0.0000 0.0000
# 2 52.1614 106.6604 35.1222 0.0000 0.0000 0.0000
# 3 39.2131 35.1222 86.8943 0.0000 0.0000 0.0000
# 4 0.0000 0.0000 0.0000 43.0523 0.0000 0.0000
# 5 0.0000 0.0000 0.0000 0.0000 2.0509 0.0000
# 6 0.0000 0.0000 0.0000 0.0000 0.0000 41.2229
#
#
#
# Elastic Compliance Matrix: (Units=1/GPa)
#
#
# Indices 1 2 3 4 5 6 
#
# 1 0.008237 -0.003235 -0.002410 0.000000 0.000000 0.000000
# 2 -0.003235 0.012085 -0.003425 0.000000 0.000000 0.000000
# 3 -0.002410 -0.003425 0.013980 0.000000 0.000000 0.000000
# 4 0.000000 0.000000 0.000000 0.023228 0.000000 0.000000
# 5 0.000000 0.000000 0.000000 0.000000 0.487589 0.000000
# 6 0.000000 0.000000 0.000000 0.000000 0.000000 0.024258
#
#
# Mechanical properties :
#
#
# Convention : Reuss Voigt Hill
#
# Bulk Modulus (GPa) = 61.86822 66.65645 64.26234
# Shear Modulus (GPa) = 8.43306 31.95975 20.19640
#
# Velocity S-wave (km/s) = 2.09685 4.08204 3.24498
# Velocity P-wave (km/s) = 6.17405 7.54787 6.89526
#
# Compressibility (1/GPa) = 0.01616339
#
# Stress axis : x y z
#
# Youngs Moduli (GPa) = 121.40412 82.74506 71.53049
#
# Poissons Ratio (x) = 0.26766 0.17236
# Poissons Ratio (y) = 0.39271 0.24500
# Poissons Ratio (z) = 0.29254 0.28341
#
# Static dielectric constant tensor:
#      x y z
#    x 4.106100 0.000000 0.000000 
#    y 0.000000 3.633180 0.000000 
#    z 0.000000 0.000000 3.255250 
# 
# 
# High freq. dielectric constant tensor:
#      x y z
#    x 1.778630 0.000000 0.000000 
#    y 0.000000 1.733460 0.000000 
#    z 0.000000 0.000000 1.705090 
# 
# From -- ./inp_files/32673.got.cif
#   From: 2010.03.12/outbox.cif.g09.slc.cpg/sg69_17_cif.got.tgz:32673.got - 2010.04.10 23:52:46.
