data_PCOD8285545
_publ_section_title
;
Structure prediction by ZEFSAII (Michael W. Deem and Ramdas Pophale) SiO2 
 PCOD8285545
Probable space group: F M M M
;
_chemical_formula_sum "Si O2"
_cell_formula_units_Z 192
_cell_length_a 17.512575
_cell_length_b 28.670717
_cell_length_c 17.819561
_cell_angle_alpha 90.000000
_cell_angle_beta 90.000000
_cell_angle_gamma 90.000000
_cell_volume 8947.167396
_symmetry_space_group_name_H-M "F M M M"
_symmetry_group_IT_number 69
_symmetry_cell_setting 'orthorhombic'
loop_
_space_group_symop_operation_xyz
x,y,z
-x,-y,z
x,-y,-z
-x,y,-z
-x,-y,-z
x,y,-z
-x,y,z
x,-y,z
x,1/2+y,1/2+z
-x,1/2-y,1/2+z
x,1/2-y,1/2-z
-x,1/2+y,1/2-z
-x,1/2-y,1/2-z
x,1/2+y,1/2-z
-x,1/2+y,1/2+z
x,1/2-y,1/2+z
1/2+x,y,1/2+z
1/2-x,-y,1/2+z
1/2+x,-y,1/2-z
1/2-x,y,1/2-z
1/2-x,-y,1/2-z
1/2+x,y,1/2-z
1/2-x,y,1/2+z
1/2+x,-y,1/2+z
1/2+x,1/2+y,z
1/2-x,1/2-y,z
1/2+x,1/2-y,-z
1/2-x,1/2+y,-z
1/2-x,1/2-y,-z
1/2+x,1/2+y,-z
1/2-x,1/2+y,z
1/2+x,1/2-y,z
loop_
_atom_site_type_symbol
_atom_site_label
_atom_site_fract_x
_atom_site_fract_y
_atom_site_fract_z
Si Si1 0.410064 0.680053 0.106310
Si Si2 0.158802 0.886368 0.647357
Si Si3 0.087773 0.945986 0.219502
Si Si4 0.823331 0.092710 0.082967
Si Si5 0.660013 0.198064 0.243259
Si Si6 0.909807 0.739489 0.000000
Si Si7 0.911803 0.136109 0.500000
O O1 0.500000 0.673635 0.098169
O O2 0.367818 0.639795 0.060923
O O3 0.382187 0.670850 0.190552
O O4 0.384590 0.730716 0.073690
O O5 0.132823 0.919339 0.714820
O O6 0.246455 0.896329 0.628845
O O7 0.143087 0.831784 0.668713
O O8 0.110715 0.894482 0.572054
O O9 0.125219 0.939249 0.137363
O O10 0.000000 0.928629 0.216476
O O11 0.092115 0.000000 0.240562
O O12 0.807577 0.069355 0.000000
O O13 0.624948 0.250000 0.250000
O O14 0.750000 0.199889 0.250000
O O15 0.871520 0.687913 0.000000
O O16 0.000000 0.733991 0.000000
O O17 0.000000 0.144554 0.500000
#
# Coordination Sequence:
#
# PCOD8285545 Si02
#       7
#    32  32  32  32  32  16  16
#     4  11  21  36  58  88 126 174 224 276 328 385
#     4  12  23  44  67  98 139 180 225 279 336 403
#     4  11  26  48  76 105 132 169 218 280 349 412
#     4  12  24  42  67 100 136 176 222 269 334 408
#     4  11  22  36  58  91 130 174 224 276 326 393
#     4   9  20  37  57  90 135 176 227 279 334 392
#     4  11  24  41  64  95 132 185 236 281 327 391
#
# _framework density 21.459306000000002
#
# number of rings (size 3 to 8) (size 9 to 14) (size 15 to 20)
#    0.000    0.833    5.000    2.500    0.000    3.667 
#    0.000    2.083    0.000    1.500    0.000    0.000 
#    0.000    0.000    0.000    0.000    0.000    0.000 
#
# Total GULP energy -594847.111181 kJ/mol
# GULP energy per Si atom -12392.648150 kJ/mol
# Density = 2.141046 g / cm^3
# Si number density = 21.459306 Si / 1000 Ang^3
#
#
#
# Elastic Constant Matrix: (Units=GPa)
#
#
# Indices 1 2 3 4 5 6 
#
# 1 110.5408 31.3684 49.7504 0.0000 0.0000 0.0000
# 2 31.3684 74.4990 36.1646 0.0000 0.0000 0.0000
# 3 49.7504 36.1646 161.2332 0.0000 0.0000 0.0000
# 4 0.0000 0.0000 0.0000 184.0831 0.0000 0.0000
# 5 0.0000 0.0000 0.0000 0.0000 8.9565 0.0000
# 6 0.0000 0.0000 0.0000 0.0000 0.0000 24.8920
#
#
#
# Elastic Compliance Matrix: (Units=1/GPa)
#
#
# Indices 1 2 3 4 5 6 
#
# 1 0.011231 -0.003419 -0.002699 0.000000 0.000000 0.000000
# 2 -0.003419 0.016104 -0.002557 0.000000 0.000000 0.000000
# 3 -0.002699 -0.002557 0.007608 0.000000 0.000000 0.000000
# 4 0.000000 0.000000 0.000000 0.005432 0.000000 0.000000
# 5 0.000000 0.000000 0.000000 0.000000 0.111651 0.000000
# 6 0.000000 0.000000 0.000000 0.000000 0.000000 0.040174
#
#
# Mechanical properties :
#
#
# Convention : Reuss Voigt Hill
#
# Bulk Modulus (GPa) = 56.83735 64.53778 60.68756
# Shear Modulus (GPa) = 23.21108 58.85230 41.03169
#
# Velocity S-wave (km/s) = 3.29239 5.24258 4.37747
# Velocity P-wave (km/s) = 6.40287 8.17227 7.34107
#
# Compressibility (1/GPa) = 0.01759407
#
# Stress axis : x y z
#
# Youngs Moduli (GPa) = 89.03765 62.09671 131.43258
#
# Poissons Ratio (x) = 0.21231 0.35469
# Poissons Ratio (y) = 0.30442 0.33609
# Poissons Ratio (z) = 0.24028 0.15879
#
# Static dielectric constant tensor:
#      x y z
#    x 3.383060 0.000000 0.000000 
#    y 0.000000 3.903490 0.000000 
#    z 0.000000 0.000000 3.859530 
# 
# 
# High freq. dielectric constant tensor:
#      x y z
#    x 1.837050 0.000000 0.000000 
#    y 0.000000 1.825560 0.000000 
#    z 0.000000 0.000000 1.861460 
# 
# From -- ./inp_files/23719.got.cif
#   From: 2010.03.12/outbox.cif.g09.slc.cpg/sg69_12_cif.got.tgz:23719.got - 2010.04.10 23:52:46.
