data_PCOD8285378
_publ_section_title
;
Structure prediction by ZEFSAII (Michael W. Deem and Ramdas Pophale) SiO2 
 PCOD8285378
Probable space group: F M M M
;
_chemical_formula_sum "Si O2"
_cell_formula_units_Z 192
_cell_length_a 18.085364
_cell_length_b 26.257822
_cell_length_c 20.174053
_cell_angle_alpha 90.000000
_cell_angle_beta 90.000000
_cell_angle_gamma 90.000000
_cell_volume 9580.300058
_symmetry_space_group_name_H-M "F M M M"
_symmetry_group_IT_number 69
_symmetry_cell_setting 'orthorhombic'
loop_
_space_group_symop_operation_xyz
x,y,z
-x,-y,z
x,-y,-z
-x,y,-z
-x,-y,-z
x,y,-z
-x,y,z
x,-y,z
x,1/2+y,1/2+z
-x,1/2-y,1/2+z
x,1/2-y,1/2-z
-x,1/2+y,1/2-z
-x,1/2-y,1/2-z
x,1/2+y,1/2-z
-x,1/2+y,1/2+z
x,1/2-y,1/2+z
1/2+x,y,1/2+z
1/2-x,-y,1/2+z
1/2+x,-y,1/2-z
1/2-x,y,1/2-z
1/2-x,-y,1/2-z
1/2+x,y,1/2-z
1/2-x,y,1/2+z
1/2+x,-y,1/2+z
1/2+x,1/2+y,z
1/2-x,1/2-y,z
1/2+x,1/2-y,-z
1/2-x,1/2+y,-z
1/2-x,1/2-y,-z
1/2+x,1/2+y,-z
1/2-x,1/2+y,z
1/2+x,1/2-y,z
loop_
_atom_site_type_symbol
_atom_site_label
_atom_site_fract_x
_atom_site_fract_y
_atom_site_fract_z
Si Si1 0.916140 0.897009 0.738806
Si Si2 0.188457 0.206702 0.577252
Si Si3 0.417552 0.217888 0.192104
Si Si4 0.344877 0.558447 0.133271
Si Si5 0.815780 0.594207 0.120313
Si Si6 0.084743 0.560155 0.000000
Si Si7 0.082257 0.939478 0.000000
O O1 0.918459 0.838571 0.719724
O O2 0.878740 0.906178 0.809816
O O3 0.861801 0.921630 0.685280
O O4 0.000000 0.919649 0.737341
O O5 0.166622 0.199656 0.500000
O O6 0.250000 0.250000 0.584948
O O7 0.119045 0.225274 0.620308
O O8 0.211912 0.152656 0.610208
O O9 0.500000 0.239079 0.181746
O O10 0.376593 0.250000 0.250000
O O11 0.369038 0.500000 0.145949
O O12 0.256718 0.559946 0.125953
O O13 0.376892 0.580949 0.065003
O O14 0.871517 0.580642 0.062382
O O15 0.084500 0.500000 0.000000
O O16 0.000000 0.580962 0.000000
O O17 0.000000 0.917299 0.000000
O O18 0.083130 0.000000 0.000000
#
# Coordination Sequence:
#
# PCOD8285378 Si02
#       7
#    32  32  32  32  32  16  16
#     4  10  22  39  60  87 119 157 202 246 296 357
#     4  10  22  39  61  91 120 155 199 247 298 361
#     4   9  20  39  62  88 119 156 196 244 298 355
#     4  11  23  38  60  87 121 160 202 250 300 357
#     4  11  22  40  60  89 123 161 197 251 303 358
#     4  11  23  39  62  90 122 162 204 245 298 364
#     4   9  19  37  59  82 109 152 203 245 294 350
#
# _framework density 20.041125999999998
#
# number of rings (size 3 to 8) (size 9 to 14) (size 15 to 20)
#    0.000    1.833    0.833    2.500    2.333    5.000 
#    0.000    0.000    0.000    0.000    0.000    0.000 
#    0.000    0.000    0.000    0.000    0.000    0.000 
#
# Total GULP energy -594950.318718 kJ/mol
# GULP energy per Si atom -12394.798307 kJ/mol
# Density = 1.999551 g / cm^3
# Si number density = 20.041126 Si / 1000 Ang^3
#
#
#
# Elastic Constant Matrix: (Units=GPa)
#
#
# Indices 1 2 3 4 5 6 
#
# 1 144.2698 21.1016 76.9882 0.0000 0.0000 0.0000
# 2 21.1016 34.4955 20.3161 0.0000 0.0000 0.0000
# 3 76.9882 20.3161 175.4416 0.0000 0.0000 0.0000
# 4 0.0000 0.0000 0.0000 22.1782 0.0000 0.0000
# 5 0.0000 0.0000 0.0000 0.0000 -84.8803 0.0000
# 6 0.0000 0.0000 0.0000 0.0000 0.0000 24.6541
#
#
#
# Elastic Compliance Matrix: (Units=1/GPa)
#
#
# Indices 1 2 3 4 5 6 
#
# 1 0.009446 -0.003581 -0.003730 0.000000 0.000000 0.000000
# 2 -0.003581 0.032469 -0.002188 0.000000 0.000000 0.000000
# 3 -0.003730 -0.002188 0.007590 0.000000 0.000000 0.000000
# 4 0.000000 0.000000 0.000000 0.045089 0.000000 0.000000
# 5 0.000000 0.000000 0.000000 0.000000 -0.011781 0.000000
# 6 0.000000 0.000000 0.000000 0.000000 0.000000 0.040561
#
#
# Mechanical properties :
#
#
# Convention : Reuss Voigt Hill
#
# Bulk Modulus (GPa) = 32.78145 65.66877 49.22511
# Shear Modulus (GPa) = 32.77772 8.11048 20.44410
#
# Velocity S-wave (km/s) = 4.04855 2.01388 3.19738
# Velocity P-wave (km/s) = 6.18441 6.18431 6.18436
#
# Compressibility (1/GPa) = 0.03050506
#
# Stress axis : x y z
#
# Youngs Moduli (GPa) = 105.86519 30.79877 131.74685
#
# Poissons Ratio (x) = 0.11030 0.49147
# Poissons Ratio (y) = 0.37913 0.28831
# Poissons Ratio (z) = 0.39492 0.06740
#
# Static dielectric constant tensor:
#      x y z
#    x 3.919470 0.000000 0.000000 
#    y 0.000000 3.533920 0.000000 
#    z 0.000000 0.000000 3.519470 
# 
# 
# High freq. dielectric constant tensor:
#      x y z
#    x 1.787740 0.000000 0.000000 
#    y 0.000000 1.769200 0.000000 
#    z 0.000000 0.000000 1.798540 
# 
# From -- ./inp_files/23726.got.cif
#   From: 2010.03.12/outbox.cif.g09.slc.cpg/sg69_12_cif.got.tgz:23726.got - 2010.04.10 23:52:46.
