data_PCOD8285385
_publ_section_title
;
Structure prediction by ZEFSAII (Michael W. Deem and Ramdas Pophale) SiO2 
 PCOD8285385
Probable space group: F M M M
;
_chemical_formula_sum "Si O2"
_cell_formula_units_Z 160
_cell_length_a 15.082929
_cell_length_b 22.573024
_cell_length_c 25.085547
_cell_angle_alpha 90.000000
_cell_angle_beta 90.000000
_cell_angle_gamma 90.000000
_cell_volume 8540.808915
_symmetry_space_group_name_H-M "F M M M"
_symmetry_group_IT_number 69
_symmetry_cell_setting 'orthorhombic'
loop_
_space_group_symop_operation_xyz
x,y,z
-x,-y,z
x,-y,-z
-x,y,-z
-x,-y,-z
x,y,-z
-x,y,z
x,-y,z
x,1/2+y,1/2+z
-x,1/2-y,1/2+z
x,1/2-y,1/2-z
-x,1/2+y,1/2-z
-x,1/2-y,1/2-z
x,1/2+y,1/2-z
-x,1/2+y,1/2+z
x,1/2-y,1/2+z
1/2+x,y,1/2+z
1/2-x,-y,1/2+z
1/2+x,-y,1/2-z
1/2-x,y,1/2-z
1/2-x,-y,1/2-z
1/2+x,y,1/2-z
1/2-x,y,1/2+z
1/2+x,-y,1/2+z
1/2+x,1/2+y,z
1/2-x,1/2-y,z
1/2+x,1/2-y,-z
1/2-x,1/2+y,-z
1/2-x,1/2-y,-z
1/2+x,1/2+y,-z
1/2-x,1/2+y,z
1/2+x,1/2-y,z
loop_
_atom_site_type_symbol
_atom_site_label
_atom_site_fract_x
_atom_site_fract_y
_atom_site_fract_z
Si Si1 0.776703 0.569841 0.360489
Si Si2 0.645475 0.758677 0.636313
Si Si3 0.404075 0.130294 0.839828
Si Si4 0.841279 0.345332 0.726881
Si Si5 0.398731 0.138725 0.561921
O O1 0.781369 0.500000 0.357979
O O2 0.674003 0.590066 0.363737
O O3 0.821229 0.595864 0.307417
O O4 0.830837 0.592504 0.411575
O O5 0.750000 0.750000 0.635605
O O6 0.599170 0.695522 0.634703
O O7 0.615716 0.794883 0.689466
O O8 0.614860 0.795394 0.584904
O O9 0.500000 0.102578 0.855045
O O10 0.403203 0.135887 0.775586
O O11 0.750000 0.318683 0.750000
O O12 0.375766 0.140922 0.500000
O O13 0.500000 0.117814 0.571828
#
# Coordination Sequence:
#
# PCOD8285385 Si02
#       5
#    32  32  32  32  32
#     4  10  22  40  58  78 112 152 192 240 285 326
#     4  11  18  34  58  86 116 151 183 224 281 342
#     4  11  22  34  54  84 118 156 192 224 270 331
#     4   9  18  31  53  79 113 149 192 226 270 323
#     4  10  22  40  63  89 112 137 179 237 298 352
#
# _framework density 18.733588000000001
#
# number of rings (size 3 to 8) (size 9 to 14) (size 15 to 20)
#    0.000    1.800    6.000    1.200    0.000   10.000 
#    0.000    1.000    0.000    0.600    0.000    1.400 
#    0.000    0.000    0.000    0.000    0.000    0.000 
#
# Total GULP energy -495912.887820 kJ/mol
# GULP energy per Si atom -12397.822196 kJ/mol
# Density = 1.869095 g / cm^3
# Si number density = 18.733588 Si / 1000 Ang^3
#
#
#
# Elastic Constant Matrix: (Units=GPa)
#
#
# Indices 1 2 3 4 5 6 
#
# 1 107.0917 15.9192 35.8588 0.0000 0.0000 0.0000
# 2 15.9192 97.7669 24.2794 0.0000 0.0000 0.0000
# 3 35.8588 24.2794 80.3113 0.0000 0.0000 0.0000
# 4 0.0000 0.0000 0.0000 10.2990 0.0000 0.0000
# 5 0.0000 0.0000 0.0000 0.0000 21.6363 0.0000
# 6 0.0000 0.0000 0.0000 0.0000 0.0000 6.4772
#
#
#
# Elastic Compliance Matrix: (Units=1/GPa)
#
#
# Indices 1 2 3 4 5 6 
#
# 1 0.011014 -0.000619 -0.004731 0.000000 0.000000 0.000000
# 2 -0.000619 0.011093 -0.003078 0.000000 0.000000 0.000000
# 3 -0.004731 -0.003078 0.015494 0.000000 0.000000 0.000000
# 4 0.000000 0.000000 0.000000 0.097097 0.000000 0.000000
# 5 0.000000 0.000000 0.000000 0.000000 0.046219 0.000000
# 6 0.000000 0.000000 0.000000 0.000000 0.000000 0.154387
#
#
# Mechanical properties :
#
#
# Convention : Reuss Voigt Hill
#
# Bulk Modulus (GPa) = 48.19766 48.58720 48.39243
# Shear Modulus (GPa) = 13.92474 21.62334 17.77404
#
# Velocity S-wave (km/s) = 2.72932 3.40112 3.08357
# Velocity P-wave (km/s) = 5.97629 6.43550 6.21014
#
# Compressibility (1/GPa) = 0.02074789
#
# Stress axis : x y z
#
# Youngs Moduli (GPa) = 90.79560 90.14369 64.54056
#
# Poissons Ratio (x) = 0.05576 0.30532
# Poissons Ratio (y) = 0.05616 0.19863
# Poissons Ratio (z) = 0.42952 0.27742
#
# Static dielectric constant tensor:
#      x y z
#    x 3.591670 0.000000 0.000000 
#    y 0.000000 3.354210 0.000000 
#    z 0.000000 0.000000 3.501500 
# 
# 
# High freq. dielectric constant tensor:
#      x y z
#    x 1.731490 0.000000 0.000000 
#    y 0.000000 1.712010 0.000000 
#    z 0.000000 0.000000 1.711750 
# 
# From -- ./inp_files/17704.got.cif
#   From: 2010.03.12/outbox.cif.g09.slc.cpg/sg69_9_cif.got.tgz:17704.got - 2010.04.10 23:52:46.
