data_PCOD8285951
_publ_section_title
;
Structure prediction by ZEFSAII (Michael W. Deem and Ramdas Pophale) SiO2 
 PCOD8285951
Probable space group: F D D D
;
_chemical_formula_sum "Si O2"
_cell_formula_units_Z 160
_cell_length_a 13.322091
_cell_length_b 26.141019
_cell_length_c 21.923517
_cell_angle_alpha 90.000000
_cell_angle_beta 90.000000
_cell_angle_gamma 90.000000
_cell_volume 7634.931310
_symmetry_space_group_name_H-M "F D D D"
_symmetry_group_IT_number 70
_space_group.IT_coordinate_system_code '2'
_symmetry_cell_setting 'orthorhombic'
loop_
_space_group_symop_operation_xyz
x,y,z
1/4-x,1/4-y,z
x,1/4-y,1/4-z
1/4-x,y,1/4-z
-x,-y,-z
3/4+x,3/4+y,-z
-x,3/4+y,3/4+z
3/4+x,-y,3/4+z
x,1/2+y,1/2+z
1/4-x,3/4-y,1/2+z
x,3/4-y,3/4-z
1/4-x,1/2+y,3/4-z
-x,1/2-y,1/2-z
3/4+x,1/4+y,1/2-z
-x,1/4+y,1/4+z
3/4+x,1/2-y,1/4+z
1/2+x,y,1/2+z
3/4-x,1/4-y,1/2+z
1/2+x,1/4-y,3/4-z
3/4-x,y,3/4-z
1/2-x,-y,1/2-z
1/4+x,3/4+y,1/2-z
1/2-x,3/4+y,1/4+z
1/4+x,-y,1/4+z
1/2+x,1/2+y,z
3/4-x,3/4-y,z
1/2+x,3/4-y,1/4-z
3/4-x,1/2+y,1/4-z
1/2-x,1/2-y,-z
1/4+x,1/4+y,-z
1/2-x,1/4+y,3/4+z
1/4+x,1/2-y,3/4+z
loop_
_atom_site_type_symbol
_atom_site_label
_atom_site_fract_x
_atom_site_fract_y
_atom_site_fract_z
Si Si1 0.953457 0.451600 0.033093
Si Si2 0.484319 0.890078 0.148133
Si Si3 0.978579 0.125000 0.125000
Si Si4 0.881740 0.132159 0.744464
Si Si5 0.775001 0.549786 0.444156
Si Si6 0.625000 0.210800 0.625000
O O1 0.977724 0.440814 0.104967
O O2 0.834281 0.455815 0.025699
O O3 0.004854 0.404188 0.998325
O O4 0.000000 0.500000 0.000000
O O5 0.375000 0.875000 0.174327
O O6 0.557743 0.904878 0.203455
O O7 0.525325 0.840474 0.111578
O O8 0.910824 0.103321 0.179032
O O9 0.042612 0.172039 0.153570
O O10 0.897802 0.071287 0.754544
O O11 0.819203 0.495008 0.425229
#
# Coordination Sequence:
#
# PCOD8285951 Si02
#       6
#    32  32  16  32  32  16
#     4  10  20  37  63  97 126 157 206 274 331 392
#     4   9  19  36  68  93 117 163 221 266 315 385
#     4  11  28  38  59  92 144 172 205 286 347 400
#     4  11  21  43  61  92 126 175 220 271 324 392
#     4  10  19  40  69  90 119 168 223 271 313 396
#     4  11  22  44  58  92 132 166 222 274 341 388
#
# _framework density 20.956313000000002
#
# number of rings (size 3 to 8) (size 9 to 14) (size 15 to 20)
#    0.000    1.800    2.000    4.800    2.800    0.800 
#    0.000   12.000    0.000    0.000    0.000    0.000 
#    0.000    0.000    0.000    0.000    0.000    0.000 
#
# Total GULP energy -495523.999057 kJ/mol
# GULP energy per Si atom -12388.099976 kJ/mol
# Density = 2.090862 g / cm^3
# Si number density = 20.956313 Si / 1000 Ang^3
#
#
#
# Elastic Constant Matrix: (Units=GPa)
#
#
# Indices 1 2 3 4 5 6 
#
# 1 146.5075 42.1364 54.2073 0.0000 0.0000 0.0000
# 2 42.1364 103.8362 33.9343 0.0000 0.0000 0.0000
# 3 54.2073 33.9343 95.5528 0.0000 0.0000 0.0000
# 4 0.0000 0.0000 0.0000 23.5814 0.0000 0.0000
# 5 0.0000 0.0000 0.0000 0.0000 23.4792 0.0000
# 6 0.0000 0.0000 0.0000 0.0000 0.0000 23.9590
#
#
#
# Elastic Compliance Matrix: (Units=1/GPa)
#
#
# Indices 1 2 3 4 5 6 
#
# 1 0.009087 -0.002266 -0.004350 0.000000 0.000000 0.000000
# 2 -0.002266 0.011460 -0.002785 0.000000 0.000000 0.000000
# 3 -0.004350 -0.002785 0.013922 0.000000 0.000000 0.000000
# 4 0.000000 0.000000 0.000000 0.042406 0.000000 0.000000
# 5 0.000000 0.000000 0.000000 0.000000 0.042591 0.000000
# 6 0.000000 0.000000 0.000000 0.000000 0.000000 0.041738
#
#
# Mechanical properties :
#
#
# Convention : Reuss Voigt Hill
#
# Bulk Modulus (GPa) = 63.82460 67.38361 65.60411
# Shear Modulus (GPa) = 26.99376 28.57849 27.78613
#
# Velocity S-wave (km/s) = 3.59290 3.69686 3.64525
# Velocity P-wave (km/s) = 6.90898 7.10257 7.00645
#
# Compressibility (1/GPa) = 0.01566794
#
# Stress axis : x y z
#
# Youngs Moduli (GPa) = 110.04944 87.26028 71.82739
#
# Poissons Ratio (x) = 0.19770 0.31247
# Poissons Ratio (y) = 0.24934 0.20001
# Poissons Ratio (z) = 0.47875 0.24298
#
# Static dielectric constant tensor:
#      x y z
#    x 4.212090 0.000000 0.000000 
#    y 0.000000 3.907240 0.000000 
#    z 0.000000 0.000000 3.477960 
# 
# 
# High freq. dielectric constant tensor:
#      x y z
#    x 1.846190 0.000000 0.000000 
#    y 0.000000 1.811610 0.000000 
#    z 0.000000 0.000000 1.781880 
# 
# From -- ./inp_files/51168.got.cif
#   From: 2010.03.12/outbox.cif.g09.slc.cpg/sg70_26_cif.got.tgz:51168.got - 2010.04.16 13:46:32.
