data_PCOD8285799
_publ_section_title
;
Structure prediction by ZEFSAII (Michael W. Deem and Ramdas Pophale) SiO2 
 PCOD8285799
Probable space group: F D D D
;
_chemical_formula_sum "Si O2"
_cell_formula_units_Z 112
_cell_length_a 9.086166
_cell_length_b 24.305517
_cell_length_c 26.174038
_cell_angle_alpha 90.000000
_cell_angle_beta 90.000000
_cell_angle_gamma 90.000000
_cell_volume 5780.378258
_symmetry_space_group_name_H-M "F D D D"
_symmetry_group_IT_number 70
_space_group.IT_coordinate_system_code '2'
_symmetry_cell_setting 'orthorhombic'
loop_
_space_group_symop_operation_xyz
x,y,z
1/4-x,1/4-y,z
x,1/4-y,1/4-z
1/4-x,y,1/4-z
-x,-y,-z
3/4+x,3/4+y,-z
-x,3/4+y,3/4+z
3/4+x,-y,3/4+z
x,1/2+y,1/2+z
1/4-x,3/4-y,1/2+z
x,3/4-y,3/4-z
1/4-x,1/2+y,3/4-z
-x,1/2-y,1/2-z
3/4+x,1/4+y,1/2-z
-x,1/4+y,1/4+z
3/4+x,1/2-y,1/4+z
1/2+x,y,1/2+z
3/4-x,1/4-y,1/2+z
1/2+x,1/4-y,3/4-z
3/4-x,y,3/4-z
1/2-x,-y,1/2-z
1/4+x,3/4+y,1/2-z
1/2-x,3/4+y,1/4+z
1/4+x,-y,1/4+z
1/2+x,1/2+y,z
3/4-x,3/4-y,z
1/2+x,3/4-y,1/4-z
3/4-x,1/2+y,1/4-z
1/2-x,1/2-y,-z
1/4+x,1/4+y,-z
1/2-x,1/4+y,3/4+z
1/4+x,1/2-y,3/4+z
loop_
_atom_site_type_symbol
_atom_site_label
_atom_site_fract_x
_atom_site_fract_y
_atom_site_fract_z
Si Si1 0.474816 0.274860 0.592825
Si Si2 0.988774 0.826010 0.090267
Si Si3 0.859468 0.201447 0.011738
Si Si4 0.375000 0.875000 0.729084
O O1 0.625000 0.276123 0.625000
O O2 0.340011 0.274361 0.632699
O O3 0.458222 0.217571 0.561065
O O4 0.452366 0.328476 0.556425
O O5 0.875000 0.875000 0.085175
O O6 0.125000 0.846056 0.125000
O O7 0.029674 0.806178 0.034554
O O8 0.755038 0.147589 0.016069
O O9 0.750000 0.250000 0.000000
#
# Coordination Sequence:
#
# PCOD8285799 Si02
#       4
#    32  32  32  16
#     4  11  22  37  62  91 122 153 200 251 298 354
#     4  12  20  35  64  91 113 150 199 250 298 347
#     4  10  21  36  59  89 120 151 199 245 297 356
#     4  10  18  34  60  89 118 158 201 244 298 356
#
# _framework density 19.375893999999999
#
# number of rings (size 3 to 8) (size 9 to 14) (size 15 to 20)
#    0.000    1.143    7.143    2.571    0.000    1.143 
#    0.000    0.000    0.000   24.857    0.000    0.000 
#    0.000    0.000    0.000    0.000    0.000    0.000 
#
# Total GULP energy -346901.109576 kJ/mol
# GULP energy per Si atom -12389.325342 kJ/mol
# Density = 1.933179 g / cm^3
# Si number density = 19.375894 Si / 1000 Ang^3
#
#
#
# Elastic Constant Matrix: (Units=GPa)
#
#
# Indices 1 2 3 4 5 6 
#
# 1 148.7256 61.4839 81.3467 0.0000 0.0000 0.0000
# 2 61.4839 79.9531 69.8936 0.0000 0.0000 0.0000
# 3 81.3467 69.8936 124.0583 0.0000 0.0000 0.0000
# 4 0.0000 0.0000 0.0000 22.6787 0.0000 0.0000
# 5 0.0000 0.0000 0.0000 0.0000 25.2602 0.0000
# 6 0.0000 0.0000 0.0000 0.0000 0.0000 13.1222
#
#
#
# Elastic Compliance Matrix: (Units=1/GPa)
#
#
# Indices 1 2 3 4 5 6 
#
# 1 0.011192 -0.004318 -0.004906 0.000000 0.000000 0.000000
# 2 -0.004318 0.026311 -0.011992 0.000000 0.000000 0.000000
# 3 -0.004906 -0.011992 0.018034 0.000000 0.000000 0.000000
# 4 0.000000 0.000000 0.000000 0.044094 0.000000 0.000000
# 5 0.000000 0.000000 0.000000 0.000000 0.039588 0.000000
# 6 0.000000 0.000000 0.000000 0.000000 0.000000 0.076207
#
#
# Mechanical properties :
#
#
# Convention : Reuss Voigt Hill
#
# Bulk Modulus (GPa) = 76.30758 86.46504 81.38631
# Shear Modulus (GPa) = 19.06738 21.54641 20.30690
#
# Velocity S-wave (km/s) = 3.14040 3.33832 3.24087
# Velocity P-wave (km/s) = 7.25381 7.71888 7.48995
#
# Compressibility (1/GPa) = 0.01310486
#
# Stress axis : x y z
#
# Youngs Moduli (GPa) = 89.34638 38.00668 55.45031
#
# Poissons Ratio (x) = 0.16411 0.27206
# Poissons Ratio (y) = 0.38579 0.66497
# Poissons Ratio (z) = 0.43836 0.45578
#
# Static dielectric constant tensor:
#      x y z
#    x 4.096310 0.000000 0.000000 
#    y 0.000000 3.766860 0.000000 
#    z 0.000000 0.000000 3.871180 
# 
# 
# High freq. dielectric constant tensor:
#      x y z
#    x 1.770530 0.000000 0.000000 
#    y 0.000000 1.731510 0.000000 
#    z 0.000000 0.000000 1.740790 
# 
# From -- ./inp_files/9471.got.cif
#   From: 2010.03.12/outbox.cif.g09.slc.cpg/sg70_5_cif.got.tgz:9471.got - 2010.04.16 13:46:32.
