data_PCOD8285731
_publ_section_title
;
Structure prediction by ZEFSAII (Michael W. Deem and Ramdas Pophale) SiO2 
 PCOD8285731
Probable space group: F D D D
;
_chemical_formula_sum "Si O2"
_cell_formula_units_Z 192
_cell_length_a 15.468713
_cell_length_b 22.593829
_cell_length_c 29.274587
_cell_angle_alpha 90.000000
_cell_angle_beta 90.000000
_cell_angle_gamma 90.000000
_cell_volume 10231.393693
_symmetry_space_group_name_H-M "F D D D"
_symmetry_group_IT_number 70
_space_group.IT_coordinate_system_code '2'
_symmetry_cell_setting 'orthorhombic'
loop_
_space_group_symop_operation_xyz
x,y,z
1/4-x,1/4-y,z
x,1/4-y,1/4-z
1/4-x,y,1/4-z
-x,-y,-z
3/4+x,3/4+y,-z
-x,3/4+y,3/4+z
3/4+x,-y,3/4+z
x,1/2+y,1/2+z
1/4-x,3/4-y,1/2+z
x,3/4-y,3/4-z
1/4-x,1/2+y,3/4-z
-x,1/2-y,1/2-z
3/4+x,1/4+y,1/2-z
-x,1/4+y,1/4+z
3/4+x,1/2-y,1/4+z
1/2+x,y,1/2+z
3/4-x,1/4-y,1/2+z
1/2+x,1/4-y,3/4-z
3/4-x,y,3/4-z
1/2-x,-y,1/2-z
1/4+x,3/4+y,1/2-z
1/2-x,3/4+y,1/4+z
1/4+x,-y,1/4+z
1/2+x,1/2+y,z
3/4-x,3/4-y,z
1/2+x,3/4-y,1/4-z
3/4-x,1/2+y,1/4-z
1/2-x,1/2-y,-z
1/4+x,1/4+y,-z
1/2-x,1/4+y,3/4+z
1/4+x,1/2-y,3/4+z
loop_
_atom_site_type_symbol
_atom_site_label
_atom_site_fract_x
_atom_site_fract_y
_atom_site_fract_z
Si Si1 0.541482 0.587500 0.195011
Si Si2 0.234075 0.666903 0.392700
Si Si3 0.125000 0.748916 0.625000
Si Si4 0.680169 0.999757 0.383869
Si Si5 0.693644 0.928687 0.165166
Si Si6 0.159664 0.875000 0.375000
Si Si7 0.774654 0.563262 0.958026
O O1 0.625000 0.625000 0.208399
O O2 0.565350 0.538108 0.158590
O O3 0.468618 0.627632 0.170606
O O4 0.504084 0.556924 0.239923
O O5 0.310549 0.712047 0.405362
O O6 0.145657 0.701966 0.387483
O O7 0.256073 0.633493 0.344335
O O8 0.231156 0.621010 0.434708
O O9 0.737510 0.017549 0.339146
O O10 0.738819 0.006173 0.429848
O O11 0.649740 0.933044 0.376769
O O12 0.625000 0.935341 0.125000
O O13 0.631052 0.932249 0.209503
#
# Coordination Sequence:
#
# PCOD8285731 Si02
#       7
#    32  32  16  32  32  16  32
#     4  12  22  38  54  82 125 157 182 234 300 364
#     4  10  16  34  60  85 110 146 190 236 291 345
#     4  12  19  34  58  80 118 155 180 224 314 360
#     4  10  19  35  57  86 112 154 192 230 289 355
#     4   8  16  34  57  83 108 139 187 248 284 322
#     4  12  23  36  53  80 122 166 188 224 301 373
#     4  10  21  36  59  87 109 145 201 250 275 334
#
# _framework density 18.765771000000001
#
# number of rings (size 3 to 8) (size 9 to 14) (size 15 to 20)
#    0.000    2.000    5.833    3.000    0.000    1.333 
#    0.000    7.917    0.000    0.000    0.000    0.000 
#    0.000    0.000    0.000    0.000    0.000    0.000 
#
# Total GULP energy -594664.413730 kJ/mol
# GULP energy per Si atom -12388.841953 kJ/mol
# Density = 1.872306 g / cm^3
# Si number density = 18.765771 Si / 1000 Ang^3
#
#
#
# Elastic Constant Matrix: (Units=GPa)
#
#
# Indices 1 2 3 4 5 6 
#
# 1 96.6260 52.8061 30.0022 0.0000 0.0000 0.0000
# 2 52.8061 104.0559 28.1840 0.0000 0.0000 0.0000
# 3 30.0022 28.1840 87.4306 0.0000 0.0000 0.0000
# 4 0.0000 0.0000 0.0000 17.6646 0.0000 0.0000
# 5 0.0000 0.0000 0.0000 0.0000 30.1237 0.0000
# 6 0.0000 0.0000 0.0000 0.0000 0.0000 39.8796
#
#
#
# Elastic Compliance Matrix: (Units=1/GPa)
#
#
# Indices 1 2 3 4 5 6 
#
# 1 0.014984 -0.006805 -0.002948 0.000000 0.000000 0.000000
# 2 -0.006805 0.013621 -0.002055 0.000000 0.000000 0.000000
# 3 -0.002948 -0.002055 0.013112 0.000000 0.000000 0.000000
# 4 0.000000 0.000000 0.000000 0.056610 0.000000 0.000000
# 5 0.000000 0.000000 0.000000 0.000000 0.033196 0.000000
# 6 0.000000 0.000000 0.000000 0.000000 0.000000 0.025075
#
#
# Mechanical properties :
#
#
# Convention : Reuss Voigt Hill
#
# Bulk Modulus (GPa) = 55.25308 56.67746 55.96527
# Shear Modulus (GPa) = 26.84583 29.34160 28.09372
#
# Velocity S-wave (km/s) = 3.78640 3.95849 3.87340
# Velocity P-wave (km/s) = 6.97303 7.15269 7.06343
#
# Compressibility (1/GPa) = 0.01809854
#
# Stress axis : x y z
#
# Youngs Moduli (GPa) = 66.73938 73.41866 76.26716
#
# Poissons Ratio (x) = 0.49964 0.22483
# Poissons Ratio (y) = 0.45419 0.15676
# Poissons Ratio (z) = 0.19674 0.15090
#
# Static dielectric constant tensor:
#      x y z
#    x 4.375150 0.000000 0.000000 
#    y 0.000000 3.424080 0.000000 
#    z 0.000000 0.000000 3.392600 
# 
# 
# High freq. dielectric constant tensor:
#      x y z
#    x 1.752310 0.000000 0.000000 
#    y 0.000000 1.718170 0.000000 
#    z 0.000000 0.000000 1.683330 
# 
# From -- ./inp_files/65940.got.cif
#   From: 2010.03.12/outbox.cif.g09.slc.cpg/sg70_33_cif.got.tgz:65940.got - 2010.04.16 13:46:32.
