data_PCOD8285454
_publ_section_title
;
Structure prediction by ZEFSAII (Michael W. Deem and Ramdas Pophale) SiO2 
 PCOD8285454
Probable space group: F M M M
;
_chemical_formula_sum "Si O2"
_cell_formula_units_Z 192
_cell_length_a 18.884389
_cell_length_b 30.098656
_cell_length_c 16.298004
_cell_angle_alpha 90.000000
_cell_angle_beta 90.000000
_cell_angle_gamma 90.000000
_cell_volume 9263.699555
_symmetry_space_group_name_H-M "F M M M"
_symmetry_group_IT_number 69
_symmetry_cell_setting 'orthorhombic'
loop_
_space_group_symop_operation_xyz
x,y,z
-x,-y,z
x,-y,-z
-x,y,-z
-x,-y,-z
x,y,-z
-x,y,z
x,-y,z
x,1/2+y,1/2+z
-x,1/2-y,1/2+z
x,1/2-y,1/2-z
-x,1/2+y,1/2-z
-x,1/2-y,1/2-z
x,1/2+y,1/2-z
-x,1/2+y,1/2+z
x,1/2-y,1/2+z
1/2+x,y,1/2+z
1/2-x,-y,1/2+z
1/2+x,-y,1/2-z
1/2-x,y,1/2-z
1/2-x,-y,1/2-z
1/2+x,y,1/2-z
1/2-x,y,1/2+z
1/2+x,-y,1/2+z
1/2+x,1/2+y,z
1/2-x,1/2-y,z
1/2+x,1/2-y,-z
1/2-x,1/2+y,-z
1/2-x,1/2-y,-z
1/2+x,1/2+y,-z
1/2-x,1/2+y,z
1/2+x,1/2-y,z
loop_
_atom_site_type_symbol
_atom_site_label
_atom_site_fract_x
_atom_site_fract_y
_atom_site_fract_z
Si Si1 0.084188 0.610974 0.500000
Si Si2 0.636570 0.751679 0.342415
Si Si3 0.356627 0.050206 0.358865
Si Si4 0.922177 0.790837 0.000000
Si Si5 0.257427 0.824032 0.158941
Si Si6 0.081229 0.448285 0.181964
Si Si7 0.784901 0.584132 0.906864
O O1 0.113304 0.586145 0.579195
O O2 0.117836 0.661251 0.500000
O O3 0.000000 0.608101 0.500000
O O4 0.602233 0.750000 0.250000
O O5 0.584638 0.760430 0.418305
O O6 0.671412 0.703904 0.354558
O O7 0.692243 0.791256 0.353636
O O8 0.393942 0.061386 0.273711
O O9 0.271000 0.055179 0.353575
O O10 0.375496 0.000000 0.386083
O O11 0.000000 0.809319 0.000000
O O12 0.250000 0.844407 0.250000
O O13 0.261218 0.864444 0.096050
O O14 0.086770 0.500000 0.160255
O O15 0.134366 0.421595 0.123048
O O16 0.000000 0.431675 0.169938
O O17 0.779780 0.567708 0.000000
#
# Coordination Sequence:
#
# PCOD8285454 Si02
#       7
#    16  32  32  16  32  32  32
#     4  11  23  38  60  92 126 159 200 253 320 386
#     4   9  20  38  62  88 117 154 200 250 306 368
#     4  11  22  39  62  90 123 159 206 261 314 366
#     4  11  24  38  57  85 121 165 205 241 298 373
#     4   9  19  37  62  91 116 150 196 248 308 362
#     4  10  23  43  64  85 119 172 218 253 304 370
#     4  12  24  36  60  97 129 159 203 262 314 366
#
# _framework density 20.726061000000001
#
# number of rings (size 3 to 8) (size 9 to 14) (size 15 to 20)
#    0.000    1.667    0.833    4.750    2.333    6.333 
#    0.000    1.667    0.000    0.000    0.000    0.000 
#    0.000    0.000    0.000    0.000    0.000    0.000 
#
# Total GULP energy -594857.162781 kJ/mol
# GULP energy per Si atom -12392.857558 kJ/mol
# Density = 2.067889 g / cm^3
# Si number density = 20.726061 Si / 1000 Ang^3
#
#
#
# Elastic Constant Matrix: (Units=GPa)
#
#
# Indices 1 2 3 4 5 6 
#
# 1 108.1639 21.2302 35.4949 0.0000 0.0000 0.0000
# 2 21.2302 83.1426 43.9373 0.0000 0.0000 0.0000
# 3 35.4949 43.9373 99.4488 0.0000 0.0000 0.0000
# 4 0.0000 0.0000 0.0000 31.5266 0.0000 0.0000
# 5 0.0000 0.0000 0.0000 0.0000 18.5443 0.0000
# 6 0.0000 0.0000 0.0000 0.0000 0.0000 20.9822
#
#
#
# Elastic Compliance Matrix: (Units=1/GPa)
#
#
# Indices 1 2 3 4 5 6 
#
# 1 0.010525 -0.000916 -0.003352 0.000000 0.000000 0.000000
# 2 -0.000916 0.015771 -0.006641 0.000000 0.000000 0.000000
# 3 -0.003352 -0.006641 0.014186 0.000000 0.000000 0.000000
# 4 0.000000 0.000000 0.000000 0.031719 0.000000 0.000000
# 5 0.000000 0.000000 0.000000 0.000000 0.053925 0.000000
# 6 0.000000 0.000000 0.000000 0.000000 0.000000 0.047659
#
#
# Mechanical properties :
#
#
# Convention : Reuss Voigt Hill
#
# Bulk Modulus (GPa) = 53.57877 54.67555 54.12716
# Shear Modulus (GPa) = 24.77413 26.88349 25.82881
#
# Velocity S-wave (km/s) = 3.46108 3.60542 3.53399
# Velocity P-wave (km/s) = 6.47141 6.61584 6.54403
#
# Compressibility (1/GPa) = 0.01866411
#
# Stress axis : x y z
#
# Youngs Moduli (GPa) = 95.01221 63.40833 70.49407
#
# Poissons Ratio (x) = 0.05810 0.23628
# Poissons Ratio (y) = 0.08706 0.46813
# Poissons Ratio (z) = 0.31845 0.42107
#
# Static dielectric constant tensor:
#      x y z
#    x 3.779930 0.000000 0.000000 
#    y 0.000000 3.687080 0.000000 
#    z 0.000000 0.000000 3.868900 
# 
# 
# High freq. dielectric constant tensor:
#      x y z
#    x 1.798870 0.000000 0.000000 
#    y 0.000000 1.812300 0.000000 
#    z 0.000000 0.000000 1.811730 
# 
# From -- ./inp_files/23710.got.cif
#   From: 2010.03.12/outbox.cif.g09.slc.cpg/sg69_12_cif.got.tgz:23710.got - 2010.04.10 23:52:46.
