data_PCOD8285237
_publ_section_title
;
Structure prediction by ZEFSAII (Michael W. Deem and Ramdas Pophale) SiO2 
 PCOD8285237
Probable space group: F M M M
;
_chemical_formula_sum "Si O2"
_cell_formula_units_Z 160
_cell_length_a 32.457022
_cell_length_b 29.148900
_cell_length_c 8.612784
_cell_angle_alpha 90.000000
_cell_angle_beta 90.000000
_cell_angle_gamma 90.000000
_cell_volume 8148.438571
_symmetry_space_group_name_H-M "F M M M"
_symmetry_group_IT_number 69
_symmetry_cell_setting 'orthorhombic'
loop_
_space_group_symop_operation_xyz
x,y,z
-x,-y,z
x,-y,-z
-x,y,-z
-x,-y,-z
x,y,-z
-x,y,z
x,-y,z
x,1/2+y,1/2+z
-x,1/2-y,1/2+z
x,1/2-y,1/2-z
-x,1/2+y,1/2-z
-x,1/2-y,1/2-z
x,1/2+y,1/2-z
-x,1/2+y,1/2+z
x,1/2-y,1/2+z
1/2+x,y,1/2+z
1/2-x,-y,1/2+z
1/2+x,-y,1/2-z
1/2-x,y,1/2-z
1/2-x,-y,1/2-z
1/2+x,y,1/2-z
1/2-x,y,1/2+z
1/2+x,-y,1/2+z
1/2+x,1/2+y,z
1/2-x,1/2-y,z
1/2+x,1/2-y,-z
1/2-x,1/2+y,-z
1/2-x,1/2-y,-z
1/2+x,1/2+y,-z
1/2-x,1/2+y,z
1/2+x,1/2-y,z
loop_
_atom_site_type_symbol
_atom_site_label
_atom_site_fract_x
_atom_site_fract_y
_atom_site_fract_z
Si Si1 0.584069 0.704945 0.818435
Si Si2 0.500000 0.919314 0.177745
Si Si3 0.794667 0.200515 0.685180
Si Si4 0.363917 0.130307 0.819529
Si Si5 0.500000 0.811508 0.182092
Si Si6 0.913475 0.947410 0.177414
O O1 0.607421 0.750000 0.750000
O O2 0.596698 0.660972 0.718942
O O3 0.536646 0.710833 0.778863
O O4 0.593476 0.698973 0.000000
O O5 0.500000 0.865599 0.203138
O O6 0.541874 0.939737 0.247760
O O7 0.500000 0.933720 0.000000
O O8 0.794003 0.203483 0.500000
O O9 0.809341 0.250000 0.750000
O O10 0.750000 0.187943 0.750000
O O11 0.824340 0.158979 0.744162
O O12 0.374339 0.081182 0.744337
O O13 0.358887 0.121800 0.000000
O O14 0.500000 0.797590 0.000000
O O15 0.900551 0.000000 0.199602
O O16 0.918386 0.933149 0.000000
#
# Coordination Sequence:
#
# PCOD8285237 Si02
#       6
#    32  16  32  32  16  32
#     4  12  24  37  55  78 109 150 191 234 282 336
#     4  11  22  37  60  83 111 150 195 245 296 347
#     4  10  21  37  61  91 123 155 190 228 275 335
#     4  11  23  39  59  86 116 149 190 236 285 341
#     4  11  22  37  54  76 108 146 190 237 282 338
#     4  11  24  40  60  86 115 150 194 244 296 348
#
# _framework density 19.635663999999998
#
# number of rings (size 3 to 8) (size 9 to 14) (size 15 to 20)
#    0.000    1.000    2.000    6.000    0.000    8.400 
#    0.000    0.000    0.000    0.600    0.000    0.000 
#    0.000    0.000    0.000    0.000    0.000    0.000 
#
# Total GULP energy -495800.681428 kJ/mol
# GULP energy per Si atom -12395.017036 kJ/mol
# Density = 1.959097 g / cm^3
# Si number density = 19.635664 Si / 1000 Ang^3
#
#
#
# Elastic Constant Matrix: (Units=GPa)
#
#
# Indices 1 2 3 4 5 6 
#
# 1 111.4839 50.6998 36.4018 0.0274 -0.0180 -0.1314
# 2 50.6998 115.6968 49.0197 0.0823 -0.0832 -0.0930
# 3 36.4018 49.0197 97.1480 -0.0261 0.0192 0.0615
# 4 0.0274 0.0823 -0.0261 33.2159 -0.0319 -0.0853
# 5 -0.0180 -0.0832 0.0192 -0.0319 25.6694 0.1313
# 6 -0.1314 -0.0930 0.0615 -0.0853 0.1313 -21.5405
#
#
#
# Elastic Compliance Matrix: (Units=1/GPa)
#
#
# Indices 1 2 3 4 5 6 
#
# 1 0.011580 -0.004116 -0.002262 -0.000001 -0.000003 -0.000059
# 2 -0.004116 0.012457 -0.004743 -0.000031 0.000041 -0.000042
# 3 -0.002262 -0.004743 0.013535 0.000024 -0.000027 0.000073
# 4 -0.000001 -0.000031 0.000024 0.030106 0.000038 -0.000119
# 5 -0.000003 0.000041 -0.000027 0.000038 0.038956 0.000237
# 6 -0.000059 -0.000042 0.000073 -0.000119 0.000237 -0.046422
#
#
# Mechanical properties :
#
#
# Convention : Reuss Voigt Hill
#
# Bulk Modulus (GPa) = 65.23786 66.28571 65.76178
# Shear Modulus (GPa) = 57.10069 20.01611 38.55840
#
# Velocity S-wave (km/s) = 5.39845 3.19623 4.43616
# Velocity P-wave (km/s) = 8.49435 6.88856 7.73325
#
# Compressibility (1/GPa) = 0.01532852
#
# Stress axis : x y z
#
# Youngs Moduli (GPa) = 86.35238 80.27788 73.88520
#
# Poissons Ratio (x) = 0.33045 0.16714
# Poissons Ratio (y) = 0.35545 0.35045
# Poissons Ratio (z) = 0.19534 0.38077
#
# Static dielectric constant tensor:
#      x y z
#    x 3.626710 0.000080 0.000110 
#    y 0.000080 3.735680 -0.000230 
#    z 0.000110 -0.000230 3.677430 
# 
# 
# High freq. dielectric constant tensor:
#      x y z
#    x 1.750890 0.000010 0.000010 
#    y 0.000010 1.769880 -0.000010 
#    z 0.000010 -0.000010 1.776170 
# 
# From -- ./inp_files/5786.got.cif
#   From: 2010.03.12/outbox.cif.g09.slc.cpg/sg69_3_cif.got.tgz:5786.got - 2010.04.10 23:52:46.
