data_PCOD8285557
_publ_section_title
;
Structure prediction by ZEFSAII (Michael W. Deem and Ramdas Pophale) SiO2 
 PCOD8285557
Probable space group: F M M M
;
_chemical_formula_sum "Si O2"
_cell_formula_units_Z 128
_cell_length_a 23.061280
_cell_length_b 18.770209
_cell_length_c 14.617488
_cell_angle_alpha 90.000000
_cell_angle_beta 90.000000
_cell_angle_gamma 90.000000
_cell_volume 6327.399607
_symmetry_space_group_name_H-M "F M M M"
_symmetry_group_IT_number 69
_symmetry_cell_setting 'orthorhombic'
loop_
_space_group_symop_operation_xyz
x,y,z
-x,-y,z
x,-y,-z
-x,y,-z
-x,-y,-z
x,y,-z
-x,y,z
x,-y,z
x,1/2+y,1/2+z
-x,1/2-y,1/2+z
x,1/2-y,1/2-z
-x,1/2+y,1/2-z
-x,1/2-y,1/2-z
x,1/2+y,1/2-z
-x,1/2+y,1/2+z
x,1/2-y,1/2+z
1/2+x,y,1/2+z
1/2-x,-y,1/2+z
1/2+x,-y,1/2-z
1/2-x,y,1/2-z
1/2-x,-y,1/2-z
1/2+x,y,1/2-z
1/2-x,y,1/2+z
1/2+x,-y,1/2+z
1/2+x,1/2+y,z
1/2-x,1/2-y,z
1/2+x,1/2-y,-z
1/2-x,1/2+y,-z
1/2-x,1/2-y,-z
1/2+x,1/2+y,-z
1/2-x,1/2+y,z
1/2+x,1/2-y,z
loop_
_atom_site_type_symbol
_atom_site_label
_atom_site_fract_x
_atom_site_fract_y
_atom_site_fract_z
Si Si1 0.932183 0.611445 0.500000
Si Si2 0.629936 0.819584 0.814297
Si Si3 0.932038 0.277132 0.000000
Si Si4 0.859604 0.579698 0.330942
Si Si5 0.251288 0.165230 0.102117
O O1 0.916247 0.694586 0.500000
O O2 0.904658 0.574119 0.412922
O O3 0.000000 0.597382 0.500000
O O4 0.630413 0.750000 0.750000
O O5 0.604669 0.884407 0.753211
O O6 0.693295 0.851335 0.836631
O O7 0.594366 0.810201 0.907703
O O8 0.000000 0.292094 0.000000
O O9 0.837948 0.500000 0.307135
O O10 0.805728 0.631504 0.353588
O O11 0.250000 0.250000 0.096928
O O12 0.257803 0.133478 0.000000
#
# Coordination Sequence:
#
# PCOD8285557 Si02
#       5
#    16  32  16  32  32
#     4  11  23  43  69  96 132 171 220 289 340 382
#     4  12  23  41  67  98 132 176 216 269 332 397
#     4  11  24  44  71 104 130 168 235 285 320 381
#     4  12  26  42  64 101 139 174 220 271 335 407
#     4  11  21  37  64  94 132 172 211 263 330 395
#
# _framework density 20.229479000000001
#
# number of rings (size 3 to 8) (size 9 to 14) (size 15 to 20)
#    0.000    0.500    7.500    1.125    0.000    4.500 
#    0.000    0.625    0.000    0.750    0.000    0.000 
#    0.000    0.000    0.000    0.000    0.000    0.000 
#
# Total GULP energy -396636.607039 kJ/mol
# GULP energy per Si atom -12394.893970 kJ/mol
# Density = 2.018344 g / cm^3
# Si number density = 20.229479 Si / 1000 Ang^3
#
#
#
# Elastic Constant Matrix: (Units=GPa)
#
#
# Indices 1 2 3 4 5 6 
#
# 1 84.6748 40.4332 40.8411 0.0000 0.0000 0.0000
# 2 40.4332 123.6250 59.9375 0.0000 0.0000 0.0000
# 3 40.8411 59.9375 164.8198 0.0000 0.0000 0.0000
# 4 0.0000 0.0000 0.0000 72.0070 0.0000 0.0000
# 5 0.0000 0.0000 0.0000 0.0000 0.2133 0.0000
# 6 0.0000 0.0000 0.0000 0.0000 0.0000 15.7803
#
#
#
# Elastic Compliance Matrix: (Units=1/GPa)
#
#
# Indices 1 2 3 4 5 6 
#
# 1 0.014678 -0.003687 -0.002296 0.000000 0.000000 0.000000
# 2 -0.003687 0.010747 -0.002994 0.000000 0.000000 0.000000
# 3 -0.002296 -0.002994 0.007725 0.000000 0.000000 0.000000
# 4 0.000000 0.000000 0.000000 0.013888 0.000000 0.000000
# 5 0.000000 0.000000 0.000000 0.000000 4.688180 0.000000
# 6 0.000000 0.000000 0.000000 0.000000 0.000000 0.063370
#
#
# Mechanical properties :
#
#
# Convention : Reuss Voigt Hill
#
# Bulk Modulus (GPa) = 65.81513 72.83813 69.32663
# Shear Modulus (GPa) = 1.03700 33.06064 17.04882
#
# Velocity S-wave (km/s) = 0.71675 4.04701 2.90620
# Velocity P-wave (km/s) = 5.76974 7.61064 6.75321
#
# Compressibility (1/GPa) = 0.01519407
#
# Stress axis : x y z
#
# Youngs Moduli (GPa) = 68.12819 93.05112 129.44754
#
# Poissons Ratio (x) = 0.34312 0.29724
# Poissons Ratio (y) = 0.25122 0.38762
# Poissons Ratio (z) = 0.15644 0.27863
#
# Static dielectric constant tensor:
#      x y z
#    x 3.689660 0.000000 0.000000 
#    y 0.000000 3.561370 0.000000 
#    z 0.000000 0.000000 4.199490 
# 
# 
# High freq. dielectric constant tensor:
#      x y z
#    x 1.774920 0.000000 0.000000 
#    y 0.000000 1.773590 0.000000 
#    z 0.000000 0.000000 1.819290 
# 
# From -- ./inp_files/16378.got.cif
#   From: 2010.03.12/outbox.cif.g09.slc.cpg/sg69_9_cif.got.tgz:16378.got - 2010.04.10 23:52:46.
