data_PCOD8285725
_publ_section_title
;
Structure prediction by ZEFSAII (Michael W. Deem and Ramdas Pophale) SiO2 
 PCOD8285725
Probable space group: F D D D
;
_chemical_formula_sum "Si O2"
_cell_formula_units_Z 216
_cell_length_a 22.522394
_cell_length_b 15.783022
_cell_length_c 31.511649
_cell_angle_alpha 90.000000
_cell_angle_beta 90.000000
_cell_angle_gamma 90.000000
_cell_volume 11201.491247
_symmetry_space_group_name_H-M "F D D D"
_symmetry_group_IT_number 70
_space_group.IT_coordinate_system_code '2'
_symmetry_cell_setting 'orthorhombic'
loop_
_space_group_symop_operation_xyz
x,y,z
1/4-x,1/4-y,z
x,1/4-y,1/4-z
1/4-x,y,1/4-z
-x,-y,-z
3/4+x,3/4+y,-z
-x,3/4+y,3/4+z
3/4+x,-y,3/4+z
x,1/2+y,1/2+z
1/4-x,3/4-y,1/2+z
x,3/4-y,3/4-z
1/4-x,1/2+y,3/4-z
-x,1/2-y,1/2-z
3/4+x,1/4+y,1/2-z
-x,1/4+y,1/4+z
3/4+x,1/2-y,1/4+z
1/2+x,y,1/2+z
3/4-x,1/4-y,1/2+z
1/2+x,1/4-y,3/4-z
3/4-x,y,3/4-z
1/2-x,-y,1/2-z
1/4+x,3/4+y,1/2-z
1/2-x,3/4+y,1/4+z
1/4+x,-y,1/4+z
1/2+x,1/2+y,z
3/4-x,3/4-y,z
1/2+x,3/4-y,1/4-z
3/4-x,1/2+y,1/4-z
1/2-x,1/2-y,-z
1/4+x,1/4+y,-z
1/2-x,1/4+y,3/4+z
1/4+x,1/2-y,3/4+z
loop_
_atom_site_type_symbol
_atom_site_label
_atom_site_fract_x
_atom_site_fract_y
_atom_site_fract_z
Si Si1 0.541769 0.743259 0.182911
Si Si2 0.689319 0.359682 0.982402
Si Si3 0.375000 0.875000 0.966176
Si Si4 0.031360 0.752925 0.189887
Si Si5 0.808769 0.166378 0.857924
Si Si6 0.783110 0.751504 0.272091
Si Si7 0.625000 0.125000 0.625000
Si Si8 0.809981 0.664980 0.018322
O O1 0.531505 0.825891 0.154402
O O2 0.584087 0.680177 0.156666
O O3 0.476331 0.704647 0.192359
O O4 0.569398 0.769351 0.228993
O O5 0.718284 0.283247 0.955591
O O6 0.721751 0.449062 0.977231
O O7 0.623123 0.379111 0.966474
O O8 0.691658 0.328266 0.030998
O O9 0.421449 0.926267 0.936853
O O10 0.413780 0.811878 0.996339
O O11 0.018173 0.793177 0.144389
O O12 0.875000 0.154578 0.875000
O O13 0.806980 0.230693 0.818992
O O14 0.771627 0.666489 0.245947
#
# Coordination Sequence:
#
# PCOD8285725 Si02
#       8
#    32  32  16  32  32  32   8  32
#     4  10  24  38  65  89 120 151 216 251 324 348
#     4  10  21  36  57  89 122 163 198 244 298 387
#     4  10  16  31  50  92 118 155 192 247 300 368
#     4  10  20  33  58  89 124 156 203 243 309 363
#     4  11  19  38  58  87 117 150 191 269 299 357
#     4  10  21  32  61  89 120 154 204 242 308 358
#     4  12  24  40  64 104 108 160 216 280 300 380
#     4  10  21  44  58  88 124 168 195 263 304 383
#
# _framework density 19.283147
#
# number of rings (size 3 to 8) (size 9 to 14) (size 15 to 20)
#    0.000    1.778    3.704    0.889    2.074    2.963 
#    0.000    1.481    0.000    1.778    0.000    0.000 
#    0.000    0.000    0.000    0.000    0.000    0.000 
#
# Total GULP energy -669343.466082 kJ/mol
# GULP energy per Si atom -12395.249372 kJ/mol
# Density = 1.923926 g / cm^3
# Si number density = 19.283147 Si / 1000 Ang^3
#
#
#
# Elastic Constant Matrix: (Units=GPa)
#
#
# Indices 1 2 3 4 5 6 
#
# 1 114.1206 49.9014 41.5581 0.0000 0.0000 0.0000
# 2 49.9014 114.1945 46.2869 0.0000 0.0000 0.0000
# 3 41.5581 46.2869 72.0949 0.0000 0.0000 0.0000
# 4 0.0000 0.0000 0.0000 27.9623 0.0000 0.0000
# 5 0.0000 0.0000 0.0000 0.0000 24.6584 0.0000
# 6 0.0000 0.0000 0.0000 0.0000 0.0000 34.3988
#
#
#
# Elastic Compliance Matrix: (Units=1/GPa)
#
#
# Indices 1 2 3 4 5 6 
#
# 1 0.011936 -0.003281 -0.004774 0.000000 0.000000 0.000000
# 2 -0.003281 0.012739 -0.006288 0.000000 0.000000 0.000000
# 3 -0.004774 -0.006288 0.020659 0.000000 0.000000 0.000000
# 4 0.000000 0.000000 0.000000 0.035762 0.000000 0.000000
# 5 0.000000 0.000000 0.000000 0.000000 0.040554 0.000000
# 6 0.000000 0.000000 0.000000 0.000000 0.000000 0.029071
#
#
# Mechanical properties :
#
#
# Convention : Reuss Voigt Hill
#
# Bulk Modulus (GPa) = 60.06176 63.98922 62.02549
# Shear Modulus (GPa) = 27.03340 28.24813 27.64077
#
# Velocity S-wave (km/s) = 3.74828 3.83157 3.79016
# Velocity P-wave (km/s) = 7.06737 7.26847 7.16862
#
# Compressibility (1/GPa) = 0.01664953
#
# Stress axis : x y z
#
# Youngs Moduli (GPa) = 83.78260 78.49724 48.40414
#
# Poissons Ratio (x) = 0.25753 0.23107
# Poissons Ratio (y) = 0.27487 0.30436
# Poissons Ratio (z) = 0.39996 0.49358
#
# Static dielectric constant tensor:
#      x y z
#    x 3.410120 0.000000 0.000000 
#    y 0.000000 3.868050 0.000000 
#    z 0.000000 0.000000 3.390170 
# 
# 
# High freq. dielectric constant tensor:
#      x y z
#    x 1.737940 0.000000 0.000000 
#    y 0.000000 1.773670 0.000000 
#    z 0.000000 0.000000 1.718730 
# 
# From -- ./inp_files/67976.got.cif
#   From: 2010.03.12/outbox.cif.g09.slc.cpg/sg70_34_cif.got.tgz:67976.got - 2010.04.16 13:46:32.
