data_PCOD8285575
_publ_section_title
;
Structure prediction by ZEFSAII (Michael W. Deem and Ramdas Pophale) SiO2 
 PCOD8285575
Probable space group: F M M M
;
_chemical_formula_sum "Si O2"
_cell_formula_units_Z 160
_cell_length_a 32.773025
_cell_length_b 14.098057
_cell_length_c 18.701259
_cell_angle_alpha 90.000000
_cell_angle_beta 90.000000
_cell_angle_gamma 90.000000
_cell_volume 8640.654427
_symmetry_space_group_name_H-M "F M M M"
_symmetry_group_IT_number 69
_symmetry_cell_setting 'orthorhombic'
loop_
_space_group_symop_operation_xyz
x,y,z
-x,-y,z
x,-y,-z
-x,y,-z
-x,-y,-z
x,y,-z
-x,y,z
x,-y,z
x,1/2+y,1/2+z
-x,1/2-y,1/2+z
x,1/2-y,1/2-z
-x,1/2+y,1/2-z
-x,1/2-y,1/2-z
x,1/2+y,1/2-z
-x,1/2+y,1/2+z
x,1/2-y,1/2+z
1/2+x,y,1/2+z
1/2-x,-y,1/2+z
1/2+x,-y,1/2-z
1/2-x,y,1/2-z
1/2-x,-y,1/2-z
1/2+x,y,1/2-z
1/2-x,y,1/2+z
1/2+x,-y,1/2+z
1/2+x,1/2+y,z
1/2-x,1/2-y,z
1/2+x,1/2-y,-z
1/2-x,1/2+y,-z
1/2-x,1/2-y,-z
1/2+x,1/2+y,-z
1/2-x,1/2+y,z
1/2+x,1/2-y,z
loop_
_atom_site_type_symbol
_atom_site_label
_atom_site_fract_x
_atom_site_fract_y
_atom_site_fract_z
Si Si1 0.000000 0.393363 0.084987
Si Si2 0.146010 0.702115 0.675285
Si Si3 0.432974 0.245807 0.584557
Si Si4 0.774087 0.500000 0.144657
Si Si5 0.500000 0.897350 0.584619
Si Si6 0.207957 0.302473 0.077967
Si Si7 0.183874 0.500000 0.297335
O O1 0.041543 0.339448 0.109552
O O2 0.000000 0.500000 0.116836
O O3 0.000000 0.394559 0.000000
O O4 0.135865 0.750000 0.750000
O O5 0.109363 0.730385 0.623402
O O6 0.185307 0.750311 0.641769
O O7 0.155370 0.590361 0.684076
O O8 0.425113 0.249256 0.500000
O O9 0.459561 0.156213 0.608999
O O10 0.785838 0.588954 0.097365
O O11 0.801974 0.500000 0.215362
O O12 0.725442 0.500000 0.157192
O O13 0.500000 0.904662 0.500000
O O14 0.500000 0.000000 0.621526
O O15 0.250000 0.250000 0.070676
O O16 0.185670 0.297394 0.000000
#
# Coordination Sequence:
#
# PCOD8285575 Si02
#       7
#    16  32  32  16  16  32  16
#     4   8  15  35  64  88 117 157 201 245 294 358
#     4  12  24  41  59  85 124 159 199 248 305 364
#     4   9  19  36  59  88 118 150 192 244 299 354
#     4  11  21  42  64  84 113 162 219 249 294 370
#     4   8  15  31  56  84 111 145 184 225 285 354
#     4  11  23  40  62  88 118 154 200 260 312 355
#     4  11  24  38  64  87 115 167 208 241 301 368
#
# _framework density 18.517115
#
# number of rings (size 3 to 8) (size 9 to 14) (size 15 to 20)
#    0.000    1.800    4.000    2.100    1.400    0.400 
#    3.600    3.500    0.000    1.200    0.000    0.000 
#    0.000    0.000    0.000    0.000    0.000    0.000 
#
# Total GULP energy -495740.801998 kJ/mol
# GULP energy per Si atom -12393.520050 kJ/mol
# Density = 1.847497 g / cm^3
# Si number density = 18.517115 Si / 1000 Ang^3
#
#
#
# Elastic Constant Matrix: (Units=GPa)
#
#
# Indices 1 2 3 4 5 6 
#
# 1 90.1646 47.4184 33.0733 0.0000 0.0000 0.0000
# 2 47.4184 172.8326 34.3736 0.0000 0.0000 0.0000
# 3 33.0733 34.3736 73.8874 0.0000 0.0000 0.0000
# 4 0.0000 0.0000 0.0000 25.9903 0.0000 0.0000
# 5 0.0000 0.0000 0.0000 0.0000 13.4206 0.0000
# 6 0.0000 0.0000 0.0000 0.0000 0.0000 22.6177
#
#
#
# Elastic Compliance Matrix: (Units=1/GPa)
#
#
# Indices 1 2 3 4 5 6 
#
# 1 0.014531 -0.002968 -0.005124 0.000000 0.000000 0.000000
# 2 -0.002968 0.006982 -0.001920 0.000000 0.000000 0.000000
# 3 -0.005124 -0.001920 0.016721 0.000000 0.000000 0.000000
# 4 0.000000 0.000000 0.000000 0.038476 0.000000 0.000000
# 5 0.000000 0.000000 0.000000 0.000000 0.074512 0.000000
# 6 0.000000 0.000000 0.000000 0.000000 0.000000 0.044213
#
#
# Mechanical properties :
#
#
# Convention : Reuss Voigt Hill
#
# Bulk Modulus (GPa) = 54.91084 62.95724 58.93404
# Shear Modulus (GPa) = 22.57054 27.20701 24.88877
#
# Velocity S-wave (km/s) = 3.49506 3.83729 3.67017
# Velocity P-wave (km/s) = 6.78276 7.32846 7.06088
#
# Compressibility (1/GPa) = 0.01821134
#
# Stress axis : x y z
#
# Youngs Moduli (GPa) = 68.81834 143.22610 59.80629
#
# Poissons Ratio (x) = 0.42505 0.30643
# Poissons Ratio (y) = 0.20423 0.11481
# Poissons Ratio (z) = 0.35261 0.27495
#
# Static dielectric constant tensor:
#      x y z
#    x 3.332350 0.000000 0.000000 
#    y 0.000000 3.879040 0.000000 
#    z 0.000000 0.000000 3.375700 
# 
# 
# High freq. dielectric constant tensor:
#      x y z
#    x 1.715230 0.000000 0.000000 
#    y 0.000000 1.733660 0.000000 
#    z 0.000000 0.000000 1.705650 
# 
# From -- ./inp_files/27532.got.cif
#   From: 2010.03.12/outbox.cif.g09.slc.cpg/sg69_14_cif.got.tgz:27532.got - 2010.04.10 23:52:46.
