data_PCOD8285473
_publ_section_title
;
Structure prediction by ZEFSAII (Michael W. Deem and Ramdas Pophale) SiO2 
 PCOD8285473
Probable space group: F M M M
;
_chemical_formula_sum "Si O2"
_cell_formula_units_Z 192
_cell_length_a 24.693000
_cell_length_b 21.970511
_cell_length_c 19.926636
_cell_angle_alpha 90.000000
_cell_angle_beta 90.000000
_cell_angle_gamma 90.000000
_cell_volume 10810.555285
_symmetry_space_group_name_H-M "F M M M"
_symmetry_group_IT_number 69
_symmetry_cell_setting 'orthorhombic'
loop_
_space_group_symop_operation_xyz
x,y,z
-x,-y,z
x,-y,-z
-x,y,-z
-x,-y,-z
x,y,-z
-x,y,z
x,-y,z
x,1/2+y,1/2+z
-x,1/2-y,1/2+z
x,1/2-y,1/2-z
-x,1/2+y,1/2-z
-x,1/2-y,1/2-z
x,1/2+y,1/2-z
-x,1/2+y,1/2+z
x,1/2-y,1/2+z
1/2+x,y,1/2+z
1/2-x,-y,1/2+z
1/2+x,-y,1/2-z
1/2-x,y,1/2-z
1/2-x,-y,1/2-z
1/2+x,y,1/2-z
1/2-x,y,1/2+z
1/2+x,-y,1/2+z
1/2+x,1/2+y,z
1/2-x,1/2-y,z
1/2+x,1/2-y,-z
1/2-x,1/2+y,-z
1/2-x,1/2-y,-z
1/2+x,1/2+y,-z
1/2-x,1/2+y,z
1/2+x,1/2-y,z
loop_
_atom_site_type_symbol
_atom_site_label
_atom_site_fract_x
_atom_site_fract_y
_atom_site_fract_z
Si Si1 0.441612 0.070170 0.268385
Si Si2 0.672243 0.890193 0.301562
Si Si3 0.061880 0.569477 0.113016
Si Si4 0.216917 0.569283 0.836391
Si Si5 0.154225 0.653709 0.075176
Si Si6 0.313550 0.757394 0.326415
O O1 0.500000 0.101274 0.288862
O O2 0.389846 0.089867 0.312000
O O3 0.429283 0.083860 0.191089
O O4 0.449851 0.000000 0.280185
O O5 0.717620 0.934063 0.334632
O O6 0.690243 0.889033 0.222839
O O7 0.674457 0.827391 0.342185
O O8 0.080262 0.500000 0.096745
O O9 0.096426 0.619714 0.073858
O O10 0.000000 0.577999 0.091236
O O11 0.194561 0.500000 0.831737
O O12 0.198391 0.602811 0.903808
O O13 0.154258 0.712789 0.123552
O O14 0.167766 0.675915 0.000000
O O15 0.333496 0.750000 0.250000
O O16 0.250000 0.750000 0.335127
#
# Coordination Sequence:
#
# PCOD8285473 Si02
#       6
#    32  32  32  32  32  32
#     4   9  16  28  50  81 112 137 172 227 279 322
#     4  11  18  32  54  77 105 140 187 227 264 321
#     4   9  18  34  54  76 108 149 186 221 269 329
#     4  11  20  32  53  82 109 139 180 226 276 328
#     4  12  24  36  52  79 112 148 187 226 269 324
#     4  11  19  37  57  75 102 144 189 228 269 317
#
# _framework density 17.760418999999999
#
# number of rings (size 3 to 8) (size 9 to 14) (size 15 to 20)
#    0.000    1.500    5.000    4.500    0.000    2.000 
#    0.000    1.667    0.000    3.000    0.000    0.000 
#    0.000    0.667    0.000    9.167    0.000    1.167 
#
# Total GULP energy -594684.861804 kJ/mol
# GULP energy per Si atom -12389.267954 kJ/mol
# Density = 1.772000 g / cm^3
# Si number density = 17.760419 Si / 1000 Ang^3
#
#
#
# Elastic Constant Matrix: (Units=GPa)
#
#
# Indices 1 2 3 4 5 6 
#
# 1 118.2654 26.0542 32.6179 0.0000 0.0000 0.0000
# 2 26.0542 85.6868 41.6238 0.0000 0.0000 0.0000
# 3 32.6179 41.6238 75.4037 0.0000 0.0000 0.0000
# 4 0.0000 0.0000 0.0000 38.1023 0.0000 0.0000
# 5 0.0000 0.0000 0.0000 0.0000 13.3106 0.0000
# 6 0.0000 0.0000 0.0000 0.0000 0.0000 23.8134
#
#
#
# Elastic Compliance Matrix: (Units=1/GPa)
#
#
# Indices 1 2 3 4 5 6 
#
# 1 0.009697 -0.001245 -0.003508 0.000000 0.000000 0.000000
# 2 -0.001245 0.016106 -0.008352 0.000000 0.000000 0.000000
# 3 -0.003508 -0.008352 0.019390 0.000000 0.000000 0.000000
# 4 0.000000 0.000000 0.000000 0.026245 0.000000 0.000000
# 5 0.000000 0.000000 0.000000 0.000000 0.075128 0.000000
# 6 0.000000 0.000000 0.000000 0.000000 0.000000 0.041993
#
#
# Mechanical properties :
#
#
# Convention : Reuss Voigt Hill
#
# Bulk Modulus (GPa) = 52.67655 53.32752 53.00204
# Shear Modulus (GPa) = 22.61447 26.98258 24.79853
#
# Velocity S-wave (km/s) = 3.57221 3.90199 3.74074
# Velocity P-wave (km/s) = 6.83653 7.09873 6.96886
#
# Compressibility (1/GPa) = 0.01898378
#
# Stress axis : x y z
#
# Youngs Moduli (GPa) = 103.12265 62.08790 51.57305
#
# Poissons Ratio (x) = 0.07728 0.18090
# Poissons Ratio (y) = 0.12835 0.43076
# Poissons Ratio (z) = 0.36173 0.51859
#
# Static dielectric constant tensor:
#      x y z
#    x 3.439700 0.000000 0.000000 
#    y 0.000000 3.197040 0.000000 
#    z 0.000000 0.000000 2.939800 
# 
# 
# High freq. dielectric constant tensor:
#      x y z
#    x 1.692740 0.000000 0.000000 
#    y 0.000000 1.681440 0.000000 
#    z 0.000000 0.000000 1.633680 
# 
# From -- ./inp_files/32850.got.cif
#   From: 2010.03.12/outbox.cif.g09.slc.cpg/sg69_17_cif.got.tgz:32850.got - 2010.04.10 23:52:46.
