data_PCOD8285368
_publ_section_title
;
Structure prediction by ZEFSAII (Michael W. Deem and Ramdas Pophale) SiO2 
 PCOD8285368
Probable space group: F M M M
;
_chemical_formula_sum "Si O2"
_cell_formula_units_Z 192
_cell_length_a 27.452624
_cell_length_b 19.639919
_cell_length_c 18.705204
_cell_angle_alpha 90.000000
_cell_angle_beta 90.000000
_cell_angle_gamma 90.000000
_cell_volume 10085.234555
_symmetry_space_group_name_H-M "F M M M"
_symmetry_group_IT_number 69
_symmetry_cell_setting 'orthorhombic'
loop_
_space_group_symop_operation_xyz
x,y,z
-x,-y,z
x,-y,-z
-x,y,-z
-x,-y,-z
x,y,-z
-x,y,z
x,-y,z
x,1/2+y,1/2+z
-x,1/2-y,1/2+z
x,1/2-y,1/2-z
-x,1/2+y,1/2-z
-x,1/2-y,1/2-z
x,1/2+y,1/2-z
-x,1/2+y,1/2+z
x,1/2-y,1/2+z
1/2+x,y,1/2+z
1/2-x,-y,1/2+z
1/2+x,-y,1/2-z
1/2-x,y,1/2-z
1/2-x,-y,1/2-z
1/2+x,y,1/2-z
1/2-x,y,1/2+z
1/2+x,-y,1/2+z
1/2+x,1/2+y,z
1/2-x,1/2-y,z
1/2+x,1/2-y,-z
1/2-x,1/2+y,-z
1/2-x,1/2-y,-z
1/2+x,1/2+y,-z
1/2-x,1/2+y,z
1/2+x,1/2-y,z
loop_
_atom_site_type_symbol
_atom_site_label
_atom_site_fract_x
_atom_site_fract_y
_atom_site_fract_z
Si Si1 0.367151 0.318949 0.704250
Si Si2 0.198312 0.576478 0.718468
Si Si3 0.053015 0.922921 0.871878
Si Si4 0.195485 0.235715 0.579745
Si Si5 0.655794 0.383457 0.078175
Si Si6 0.445311 0.076095 0.202606
O O1 0.378526 0.250000 0.750000
O O2 0.342931 0.371854 0.758102
O O3 0.331106 0.311253 0.637407
O O4 0.414471 0.358899 0.673691
O O5 0.187934 0.500000 0.746232
O O6 0.250000 0.601088 0.750000
O O7 0.192693 0.577508 0.632209
O O8 0.098388 0.883489 0.904542
O O9 0.055621 0.919605 0.787292
O O10 0.000000 0.893075 0.896752
O O11 0.057347 0.000000 0.898650
O O12 0.196660 0.201771 0.500000
O O13 0.250000 0.250000 0.607279
O O14 0.166202 0.304486 0.576804
O O15 0.665234 0.415916 0.000000
O O16 0.500000 0.085421 0.173139
O O17 0.426135 0.000000 0.179316
#
# Coordination Sequence:
#
# PCOD8285368 Si02
#       6
#    32  32  32  32  32  32
#     4  12  21  33  60  86 109 148 193 243 281 346
#     4  11  23  37  54  82 115 147 191 246 291 341
#     4   9  17  31  51  78 113 150 186 223 270 338
#     4  10  22  39  57  80 113 151 192 239 292 346
#     4  11  21  36  56  81 115 154 189 232 292 353
#     4   9  18  34  56  82 115 151 190 240 295 342
#
# _framework density 19.037732999999999
#
# number of rings (size 3 to 8) (size 9 to 14) (size 15 to 20)
#    0.000    1.667    3.333    3.000    0.000    2.000 
#    0.000    1.667    0.000    4.500    0.000    1.167 
#    0.000    0.000    0.000    0.000    0.000    0.000 
#
# Total GULP energy -594715.760558 kJ/mol
# GULP energy per Si atom -12389.911678 kJ/mol
# Density = 1.899440 g / cm^3
# Si number density = 19.037733 Si / 1000 Ang^3
#
#
#
# Elastic Constant Matrix: (Units=GPa)
#
#
# Indices 1 2 3 4 5 6 
#
# 1 144.0312 46.6409 47.9087 0.0000 0.0000 0.0000
# 2 46.6409 84.7131 18.5430 0.0000 0.0000 0.0000
# 3 47.9087 18.5430 80.1287 0.0000 0.0000 0.0000
# 4 0.0000 0.0000 0.0000 15.2959 0.0000 0.0000
# 5 0.0000 0.0000 0.0000 0.0000 34.5245 0.0000
# 6 0.0000 0.0000 0.0000 0.0000 0.0000 35.8074
#
#
#
# Elastic Compliance Matrix: (Units=1/GPa)
#
#
# Indices 1 2 3 4 5 6 
#
# 1 0.010033 -0.004436 -0.004972 0.000000 0.000000 0.000000
# 2 -0.004436 0.014395 -0.000679 0.000000 0.000000 0.000000
# 3 -0.004972 -0.000679 0.015610 0.000000 0.000000 0.000000
# 4 0.000000 0.000000 0.000000 0.065377 0.000000 0.000000
# 5 0.000000 0.000000 0.000000 0.000000 0.028965 0.000000
# 6 0.000000 0.000000 0.000000 0.000000 0.000000 0.027927
#
#
# Mechanical properties :
#
#
# Convention : Reuss Voigt Hill
#
# Bulk Modulus (GPa) = 50.34189 59.45092 54.89640
# Shear Modulus (GPa) = 26.44051 30.17759 28.30905
#
# Velocity S-wave (km/s) = 3.73077 3.98571 3.86034
# Velocity P-wave (km/s) = 6.71258 7.24409 6.98340
#
# Compressibility (1/GPa) = 0.01986417
#
# Stress axis : x y z
#
# Youngs Moduli (GPa) = 99.66840 69.46669 64.06117
#
# Poissons Ratio (x) = 0.30813 0.31854
# Poissons Ratio (y) = 0.44209 0.04351
# Poissons Ratio (z) = 0.49559 0.04718
#
# Static dielectric constant tensor:
#      x y z
#    x 4.028880 0.000000 0.000000 
#    y 0.000000 3.509200 0.000000 
#    z 0.000000 0.000000 3.615780 
# 
# 
# High freq. dielectric constant tensor:
#      x y z
#    x 1.750060 0.000000 0.000000 
#    y 0.000000 1.729230 0.000000 
#    z 0.000000 0.000000 1.715770 
# 
# From -- ./inp_files/33552.got.cif
#   From: 2010.03.12/outbox.cif.g09.slc.cpg/sg69_17_cif.got.tgz:33552.got - 2010.04.10 23:52:46.
