data_PCOD8285617
_publ_section_title
;
Structure prediction by ZEFSAII (Michael W. Deem and Ramdas Pophale) SiO2 
 PCOD8285617
Probable space group: F M M M
;
_chemical_formula_sum "Si O2"
_cell_formula_units_Z 128
_cell_length_a 18.010920
_cell_length_b 16.792887
_cell_length_c 19.362744
_cell_angle_alpha 90.000000
_cell_angle_beta 90.000000
_cell_angle_gamma 90.000000
_cell_volume 5856.365404
_symmetry_space_group_name_H-M "F M M M"
_symmetry_group_IT_number 69
_symmetry_cell_setting 'orthorhombic'
loop_
_space_group_symop_operation_xyz
x,y,z
-x,-y,z
x,-y,-z
-x,y,-z
-x,-y,-z
x,y,-z
-x,y,z
x,-y,z
x,1/2+y,1/2+z
-x,1/2-y,1/2+z
x,1/2-y,1/2-z
-x,1/2+y,1/2-z
-x,1/2-y,1/2-z
x,1/2+y,1/2-z
-x,1/2+y,1/2+z
x,1/2-y,1/2+z
1/2+x,y,1/2+z
1/2-x,-y,1/2+z
1/2+x,-y,1/2-z
1/2-x,y,1/2-z
1/2-x,-y,1/2-z
1/2+x,y,1/2-z
1/2-x,y,1/2+z
1/2+x,-y,1/2+z
1/2+x,1/2+y,z
1/2-x,1/2-y,z
1/2+x,1/2-y,-z
1/2-x,1/2+y,-z
1/2-x,1/2-y,-z
1/2+x,1/2+y,-z
1/2-x,1/2+y,z
1/2+x,1/2-y,z
loop_
_atom_site_type_symbol
_atom_site_label
_atom_site_fract_x
_atom_site_fract_y
_atom_site_fract_z
Si Si1 0.581055 0.500000 0.918742
Si Si2 0.829911 0.153867 0.917179
Si Si3 0.586521 0.586496 0.500000
Si Si4 0.792459 0.592286 0.821343
Si Si5 0.412172 0.809648 0.130180
O O1 0.500000 0.500000 0.883618
O O2 0.625290 0.423616 0.894281
O O3 0.571956 0.500000 0.000000
O O4 0.749998 0.142704 0.881488
O O5 0.878038 0.223774 0.883859
O O6 0.820548 0.164064 0.000000
O O7 0.626913 0.500000 0.500000
O O8 0.500000 0.572333 0.500000
O O9 0.609696 0.635800 0.565909
O O10 0.805987 0.500000 0.842915
O O11 0.750000 0.596433 0.750000
O O12 0.869821 0.641398 0.809108
O O13 0.500000 0.802580 0.145285
#
# Coordination Sequence:
#
# PCOD8285617 Si02
#       5
#    16  32  16  32  32
#     4   9  18  34  59  90 129 171 213 270 328 390
#     4  11  22  40  66 100 135 173 223 277 341 409
#     4   9  18  34  57  93 133 167 206 262 328 386
#     4  11  26  47  68  92 135 183 232 282 336 404
#     4  11  23  40  68 101 134 173 220 280 339 399
#
# _framework density 21.856560000000002
#
# number of rings (size 3 to 8) (size 9 to 14) (size 15 to 20)
#    0.000    1.500    2.500    2.250    1.750    5.500 
#    0.000    3.750    0.000    0.000    0.000    0.000 
#    0.000    0.000    0.000    0.000    0.000    0.000 
#
# Total GULP energy -396609.367657 kJ/mol
# GULP energy per Si atom -12394.042739 kJ/mol
# Density = 2.180681 g / cm^3
# Si number density = 21.856560 Si / 1000 Ang^3
#
#
#
# Elastic Constant Matrix: (Units=GPa)
#
#
# Indices 1 2 3 4 5 6 
#
# 1 148.2747 80.8490 33.2801 0.0000 0.0000 0.0000
# 2 80.8490 180.9065 31.8967 0.0000 0.0000 0.0000
# 3 33.2801 31.8967 53.6198 0.0000 0.0000 0.0000
# 4 0.0000 0.0000 0.0000 28.0391 0.0000 0.0000
# 5 0.0000 0.0000 0.0000 0.0000 27.5412 0.0000
# 6 0.0000 0.0000 0.0000 0.0000 0.0000 28.7885
#
#
#
# Elastic Compliance Matrix: (Units=1/GPa)
#
#
# Indices 1 2 3 4 5 6 
#
# 1 0.009560 -0.003604 -0.003790 0.000000 0.000000 0.000000
# 2 -0.003604 0.007534 -0.002245 0.000000 0.000000 0.000000
# 3 -0.003790 -0.002245 0.022337 0.000000 0.000000 0.000000
# 4 0.000000 0.000000 0.000000 0.035664 0.000000 0.000000
# 5 0.000000 0.000000 0.000000 0.000000 0.036309 0.000000
# 6 0.000000 0.000000 0.000000 0.000000 0.000000 0.034736
#
#
# Mechanical properties :
#
#
# Convention : Reuss Voigt Hill
#
# Bulk Modulus (GPa) = 49.61731 74.98361 62.30046
# Shear Modulus (GPa) = 29.04660 32.65876 30.85268
#
# Velocity S-wave (km/s) = 3.64945 3.86972 3.76120
# Velocity P-wave (km/s) = 6.36464 7.37211 6.88682
#
# Compressibility (1/GPa) = 0.02015426
#
# Stress axis : x y z
#
# Youngs Moduli (GPa) = 104.60103 132.72553 44.76823
#
# Poissons Ratio (x) = 0.47839 0.16965
# Poissons Ratio (y) = 0.37702 0.10050
# Poissons Ratio (z) = 0.39639 0.29795
#
# Static dielectric constant tensor:
#      x y z
#    x 4.125550 0.000000 0.000000 
#    y 0.000000 4.318260 0.000000 
#    z 0.000000 0.000000 3.646520 
# 
# 
# High freq. dielectric constant tensor:
#      x y z
#    x 1.870970 0.000000 0.000000 
#    y 0.000000 1.884840 0.000000 
#    z 0.000000 0.000000 1.830280 
# 
# From -- ./inp_files/31516.got.cif
#   From: 2010.03.12/outbox.cif.g09.slc.cpg/sg69_16_cif.got.tgz:31516.got - 2010.04.10 23:52:46.
