data_PCOD8285047
_publ_section_title
;
Structure prediction by ZEFSAII (Michael W. Deem and Ramdas Pophale) SiO2 
 PCOD8285047
Probable space group: F M M M
;
_chemical_formula_sum "Si O2"
_cell_formula_units_Z 160
_cell_length_a 27.996050
_cell_length_b 10.077651
_cell_length_c 27.635298
_cell_angle_alpha 90.000000
_cell_angle_beta 90.000000
_cell_angle_gamma 90.000000
_cell_volume 7796.868808
_symmetry_space_group_name_H-M "F M M M"
_symmetry_group_IT_number 69
_symmetry_cell_setting 'orthorhombic'
loop_
_space_group_symop_operation_xyz
x,y,z
-x,-y,z
x,-y,-z
-x,y,-z
-x,-y,-z
x,y,-z
-x,y,z
x,-y,z
x,1/2+y,1/2+z
-x,1/2-y,1/2+z
x,1/2-y,1/2-z
-x,1/2+y,1/2-z
-x,1/2-y,1/2-z
x,1/2+y,1/2-z
-x,1/2+y,1/2+z
x,1/2-y,1/2+z
1/2+x,y,1/2+z
1/2-x,-y,1/2+z
1/2+x,-y,1/2-z
1/2-x,y,1/2-z
1/2-x,-y,1/2-z
1/2+x,y,1/2-z
1/2-x,y,1/2+z
1/2+x,-y,1/2+z
1/2+x,1/2+y,z
1/2-x,1/2-y,z
1/2+x,1/2-y,-z
1/2-x,1/2+y,-z
1/2-x,1/2-y,-z
1/2+x,1/2+y,-z
1/2-x,1/2+y,z
1/2+x,1/2-y,z
loop_
_atom_site_type_symbol
_atom_site_label
_atom_site_fract_x
_atom_site_fract_y
_atom_site_fract_z
Si Si1 0.309234 0.000000 0.444732
Si Si2 0.054341 0.149353 0.366709
Si Si3 0.193288 0.746081 0.886460
Si Si4 0.637256 0.344716 0.295964
Si Si5 0.304622 0.000000 0.946424
Si Si6 0.443052 0.148368 0.446168
O O1 0.327550 0.874397 0.414022
O O2 0.252399 0.000000 0.447708
O O3 0.329701 0.000000 0.500000
O O4 0.084027 0.162530 0.317464
O O5 0.076900 0.247333 0.406980
O O6 0.000000 0.187978 0.353980
O O7 0.057493 0.000000 0.387477
O O8 0.250000 0.750000 0.882800
O O9 0.174164 0.723483 0.832732
O O10 0.174779 0.625850 0.918890
O O11 0.650683 0.500000 0.284708
O O12 0.639420 0.250000 0.250000
O O13 0.325766 0.000000 0.000000
O O14 0.426011 0.189775 0.500000
O O15 0.500000 0.148969 0.444365
O O16 0.423817 0.000000 0.433977
#
# Coordination Sequence:
#
# PCOD8285047 Si02
#       6
#    16  32  32  32  16  32
#     4   9  18  32  57  91 122 155 191 229 279 339
#     4   9  19  37  60  83 110 145 189 240 291 346
#     4  10  20  37  60  88 120 154 193 235 283 344
#     4  11  25  43  61  83 113 151 196 249 301 344
#     4   9  16  32  59  87 120 157 189 229 283 343
#     4   8  14  27  50  80 113 148 183 222 274 336
#
# _framework density 20.521058
#
# number of rings (size 3 to 8) (size 9 to 14) (size 15 to 20)
#    0.000    2.600    1.000    1.200    1.400    4.400 
#    0.000    5.000    0.000    0.000    0.000    0.000 
#    0.000    0.000    0.000    0.000    0.000    0.000 
#
# Total GULP energy -495885.238550 kJ/mol
# GULP energy per Si atom -12397.130964 kJ/mol
# Density = 2.047435 g / cm^3
# Si number density = 20.521058 Si / 1000 Ang^3
#
#
#
# Elastic Constant Matrix: (Units=GPa)
#
#
# Indices 1 2 3 4 5 6 
#
# 1 28.7067 31.8291 27.7046 0.0000 0.0000 0.0000
# 2 31.8291 182.5796 109.8034 0.0000 0.0000 -0.0001
# 3 27.7046 109.8034 170.9935 0.0000 0.0000 0.0000
# 4 0.0000 0.0000 0.0000 49.3137 0.0000 0.0000
# 5 0.0000 0.0000 0.0000 0.0000 21.6965 0.0000
# 6 0.0000 -0.0001 0.0000 0.0000 0.0000 24.4197
#
#
#
# Elastic Compliance Matrix: (Units=1/GPa)
#
#
# Indices 1 2 3 4 5 6 
#
# 1 0.044525 -0.005577 -0.003632 0.000000 0.000000 0.000000
# 2 -0.005577 0.009622 -0.005275 0.000000 0.000000 0.000000
# 3 -0.003632 -0.005275 0.009824 0.000000 0.000000 0.000000
# 4 0.000000 0.000000 0.000000 0.020278 0.000000 0.000000
# 5 0.000000 0.000000 0.000000 0.000000 0.046090 0.000000
# 6 0.000000 0.000000 0.000000 0.000000 0.000000 0.040951
#
#
# Mechanical properties :
#
#
# Convention : Reuss Voigt Hill
#
# Bulk Modulus (GPa) = 28.57070 80.10601 54.33836
# Shear Modulus (GPa) = 23.59311 33.28217 28.43764
#
# Velocity S-wave (km/s) = 3.39440 4.03159 3.72664
# Velocity P-wave (km/s) = 5.41438 7.79695 6.71222
#
# Compressibility (1/GPa) = 0.03500089
#
# Stress axis : x y z
#
# Youngs Moduli (GPa) = 22.45941 103.93153 101.79177
#
# Poissons Ratio (x) = 0.57968 0.36975
# Poissons Ratio (y) = 0.12527 0.53694
# Poissons Ratio (z) = 0.08158 0.54823
#
# Static dielectric constant tensor:
#      x y z
#    x 3.525710 0.000000 0.000000 
#    y 0.000000 4.044120 0.000000 
#    z 0.000000 0.000000 3.606380 
# 
# 
# High freq. dielectric constant tensor:
#      x y z
#    x 1.801810 0.000000 0.000000 
#    y 0.000000 1.814830 0.000000 
#    z 0.000000 0.000000 1.786860 
# 
# From -- ./inp_files/47458.got.cif
#   From: 2010.03.12/outbox.cif.g09.slc.cpg/sg69_24_cif.got.tgz:47458.got - 2010.04.10 23:52:46.
