data_PCOD8285862
_publ_section_title
;
Structure prediction by ZEFSAII (Michael W. Deem and Ramdas Pophale) SiO2 
 PCOD8285862
Probable space group: F D D D
;
_chemical_formula_sum "Si O2"
_cell_formula_units_Z 160
_cell_length_a 20.779553
_cell_length_b 19.556405
_cell_length_c 18.856101
_cell_angle_alpha 90.000000
_cell_angle_beta 90.000000
_cell_angle_gamma 90.000000
_cell_volume 7662.617010
_symmetry_space_group_name_H-M "F D D D"
_symmetry_group_IT_number 70
_space_group.IT_coordinate_system_code '2'
_symmetry_cell_setting 'orthorhombic'
loop_
_space_group_symop_operation_xyz
x,y,z
1/4-x,1/4-y,z
x,1/4-y,1/4-z
1/4-x,y,1/4-z
-x,-y,-z
3/4+x,3/4+y,-z
-x,3/4+y,3/4+z
3/4+x,-y,3/4+z
x,1/2+y,1/2+z
1/4-x,3/4-y,1/2+z
x,3/4-y,3/4-z
1/4-x,1/2+y,3/4-z
-x,1/2-y,1/2-z
3/4+x,1/4+y,1/2-z
-x,1/4+y,1/4+z
3/4+x,1/2-y,1/4+z
1/2+x,y,1/2+z
3/4-x,1/4-y,1/2+z
1/2+x,1/4-y,3/4-z
3/4-x,y,3/4-z
1/2-x,-y,1/2-z
1/4+x,3/4+y,1/2-z
1/2-x,3/4+y,1/4+z
1/4+x,-y,1/4+z
1/2+x,1/2+y,z
3/4-x,3/4-y,z
1/2+x,3/4-y,1/4-z
3/4-x,1/2+y,1/4-z
1/2-x,1/2-y,-z
1/4+x,1/4+y,-z
1/2-x,1/4+y,3/4+z
1/4+x,1/2-y,3/4+z
loop_
_atom_site_type_symbol
_atom_site_label
_atom_site_fract_x
_atom_site_fract_y
_atom_site_fract_z
Si Si1 0.396392 0.798120 0.258739
Si Si2 0.591070 0.561252 0.701029
Si Si3 0.764594 0.551814 0.336189
Si Si4 0.292658 0.562028 0.997200
Si Si5 0.106142 0.338096 0.543151
O O1 0.375000 0.875000 0.278433
O O2 0.436590 0.762535 0.323039
O O3 0.441980 0.791280 0.189837
O O4 0.331011 0.758002 0.240178
O O5 0.625000 0.625000 0.742781
O O6 0.625000 0.558021 0.625000
O O7 0.514161 0.572359 0.695417
O O8 0.599104 0.487829 0.739489
O O9 0.760517 0.563491 0.419559
O O10 0.790907 0.617230 0.291346
O O11 0.340128 0.626228 0.005187
O O12 0.125000 0.335965 0.625000
#
# Coordination Sequence:
#
# PCOD8285862 Si02
#       5
#    32  32  32  32  32
#     4  10  19  33  56  83 111 139 170 217 269 320
#     4  10  21  37  55  76 103 138 184 232 266 300
#     4   9  19  34  54  83 110 137 173 208 264 338
#     4  10  20  35  54  77 106 142 178 213 266 325
#     4   8  16  34  55  73 102 136 166 212 267 321
#
# _framework density 20.880593999999999
#
# number of rings (size 3 to 8) (size 9 to 14) (size 15 to 20)
#    0.000    2.600    0.000    3.000    0.000    3.200 
#    0.000    4.000    0.000    0.000    0.000    0.000 
#    0.000    0.000    0.000    0.000    0.000    0.000 
#
# Total GULP energy -495641.434350 kJ/mol
# GULP energy per Si atom -12391.035859 kJ/mol
# Density = 2.083307 g / cm^3
# Si number density = 20.880594 Si / 1000 Ang^3
#
#
#
# Elastic Constant Matrix: (Units=GPa)
#
#
# Indices 1 2 3 4 5 6 
#
# 1 138.9631 58.9006 29.8637 0.0000 0.0000 0.0000
# 2 58.9006 189.9548 4.4024 0.0000 0.0000 0.0000
# 3 29.8637 4.4024 36.2183 0.0000 0.0000 0.0000
# 4 0.0000 0.0000 0.0000 11.0090 0.0000 0.0000
# 5 0.0000 0.0000 0.0000 0.0000 30.2807 0.0000
# 6 0.0000 0.0000 0.0000 0.0000 0.0000 24.1314
#
#
#
# Elastic Compliance Matrix: (Units=1/GPa)
#
#
# Indices 1 2 3 4 5 6 
#
# 1 0.010182 -0.002971 -0.008034 0.000000 0.000000 0.000000
# 2 -0.002971 0.006146 0.001703 0.000000 0.000000 0.000000
# 3 -0.008034 0.001703 0.034028 0.000000 0.000000 0.000000
# 4 0.000000 0.000000 0.000000 0.090835 0.000000 0.000000
# 5 0.000000 0.000000 0.000000 0.000000 0.033024 0.000000
# 6 0.000000 0.000000 0.000000 0.000000 0.000000 0.041440
#
#
# Mechanical properties :
#
#
# Convention : Reuss Voigt Hill
#
# Bulk Modulus (GPa) = 31.49528 61.27440 46.38484
# Shear Modulus (GPa) = 20.42112 31.21552 25.81832
#
# Velocity S-wave (km/s) = 3.13068 3.87066 3.52017
# Velocity P-wave (km/s) = 5.30891 7.02743 6.22773
#
# Compressibility (1/GPa) = 0.03175079
#
# Stress axis : x y z
#
# Youngs Moduli (GPa) = 98.21179 162.70228 29.38745
#
# Poissons Ratio (x) = 0.48339 0.23611
# Poissons Ratio (y) = 0.29179 -0.05004
# Poissons Ratio (z) = 0.78908 -0.27703
#
# Static dielectric constant tensor:
#      x y z
#    x 3.862530 0.000000 0.000000 
#    y 0.000000 4.746900 0.000000 
#    z 0.000000 0.000000 3.189630 
# 
# 
# High freq. dielectric constant tensor:
#      x y z
#    x 1.826150 0.000000 0.000000 
#    y 0.000000 1.834480 0.000000 
#    z 0.000000 0.000000 1.764180 
# 
# From -- ./inp_files/43671.got.cif
#   From: 2010.03.12/outbox.cif.g09.slc.cpg/sg70_22_cif.got.tgz:43671.got - 2010.04.16 13:46:32.
