data_PCOD8285991
_publ_section_title
;
Structure prediction by ZEFSAII (Michael W. Deem and Ramdas Pophale) SiO2 
 PCOD8285991
Probable space group: F D D D
;
_chemical_formula_sum "Si O2"
_cell_formula_units_Z 192
_cell_length_a 19.257730
_cell_length_b 19.257728
_cell_length_c 27.146593
_cell_angle_alpha 90.000000
_cell_angle_beta 90.000000
_cell_angle_gamma 90.000000
_cell_volume 10067.588907
_symmetry_space_group_name_H-M "F D D D"
_symmetry_group_IT_number 70
_space_group.IT_coordinate_system_code '2'
_symmetry_cell_setting 'orthorhombic'
loop_
_space_group_symop_operation_xyz
x,y,z
1/4-x,1/4-y,z
x,1/4-y,1/4-z
1/4-x,y,1/4-z
-x,-y,-z
3/4+x,3/4+y,-z
-x,3/4+y,3/4+z
3/4+x,-y,3/4+z
x,1/2+y,1/2+z
1/4-x,3/4-y,1/2+z
x,3/4-y,3/4-z
1/4-x,1/2+y,3/4-z
-x,1/2-y,1/2-z
3/4+x,1/4+y,1/2-z
-x,1/4+y,1/4+z
3/4+x,1/2-y,1/4+z
1/2+x,y,1/2+z
3/4-x,1/4-y,1/2+z
1/2+x,1/4-y,3/4-z
3/4-x,y,3/4-z
1/2-x,-y,1/2-z
1/4+x,3/4+y,1/2-z
1/2-x,3/4+y,1/4+z
1/4+x,-y,1/4+z
1/2+x,1/2+y,z
3/4-x,3/4-y,z
1/2+x,3/4-y,1/4-z
3/4-x,1/2+y,1/4-z
1/2-x,1/2-y,-z
1/4+x,1/4+y,-z
1/2-x,1/4+y,3/4+z
1/4+x,1/2-y,3/4+z
loop_
_atom_site_type_symbol
_atom_site_label
_atom_site_fract_x
_atom_site_fract_y
_atom_site_fract_z
Si Si1 0.875000 0.267577 0.375000
Si Si2 0.767577 0.375000 0.375000
Si Si3 0.629253 0.370747 0.000000
Si Si4 0.721908 0.332767 0.574546
Si Si5 0.624605 0.511482 0.819674
Si Si6 0.988518 0.875395 0.180326
Si Si7 0.667233 0.278092 0.425454
O O1 0.815261 0.315261 0.349989
O O2 0.841137 0.221468 0.417508
O O3 0.721468 0.341137 0.417508
O O4 0.629704 0.303464 0.965991
O O5 0.632290 0.442619 0.968374
O O6 0.557381 0.367710 0.031626
O O7 0.696536 0.370296 0.034009
O O8 0.735945 0.376696 0.623795
O O9 0.791817 0.291817 0.558054
O O10 0.690501 0.559499 0.809511
O O11 0.553198 0.553198 0.810165
O O12 0.626696 0.485945 0.876205
#
# Coordination Sequence:
#
# PCOD8285991 Si02
#       7
#    16  16  32  32  32  32  32
#     4   9  16  30  52  76 106 141 170 204 262 333
#     4   9  16  30  52  76 106 141 170 204 262 333
#     4  12  20  34  58  88 104 138 182 232 264 320
#     4  10  20  35  54  81 114 143 172 215 276 335
#     4  10  22  39  55  74 107 147 184 224 269 316
#     4  10  22  39  55  74 107 147 184 224 269 316
#     4  10  20  35  54  81 114 143 172 215 276 335
#
# _framework density 19.071100999999999
#
# number of rings (size 3 to 8) (size 9 to 14) (size 15 to 20)
#    0.000    1.833    3.333    1.000    0.000    1.333 
#    0.000    0.000    0.000   10.000    0.000    4.667 
#    0.000    0.000    0.000    0.000    0.000    0.000 
#
# Total GULP energy -594987.556021 kJ/mol
# GULP energy per Si atom -12395.574084 kJ/mol
# Density = 1.902769 g / cm^3
# Si number density = 19.071101 Si / 1000 Ang^3
#
#
#
# Elastic Constant Matrix: (Units=GPa)
#
#
# Indices 1 2 3 4 5 6 
#
# 1 72.7959 43.2920 49.8198 0.0000 0.0000 0.0000
# 2 43.2920 72.7958 49.8197 0.0000 0.0000 0.0000
# 3 49.8198 49.8197 110.5054 0.0000 0.0000 0.0000
# 4 0.0000 0.0000 0.0000 15.3180 0.0000 0.0000
# 5 0.0000 0.0000 0.0000 0.0000 15.3180 0.0000
# 6 0.0000 0.0000 0.0000 0.0000 0.0000 27.6480
#
#
#
# Elastic Compliance Matrix: (Units=1/GPa)
#
#
# Indices 1 2 3 4 5 6 
#
# 1 0.023973 -0.009921 -0.006335 0.000000 0.000000 0.000000
# 2 -0.009921 0.023973 -0.006335 0.000000 0.000000 0.000000
# 3 -0.006335 -0.006335 0.014761 0.000000 0.000000 0.000000
# 4 0.000000 0.000000 0.000000 0.065283 0.000000 0.000000
# 5 0.000000 0.000000 0.000000 0.000000 0.065283 0.000000
# 6 0.000000 0.000000 0.000000 0.000000 0.000000 0.036169
#
#
# Mechanical properties :
#
#
# Convention : Reuss Voigt Hill
#
# Bulk Modulus (GPa) = 57.06240 60.21779 58.64009
# Shear Modulus (GPa) = 17.82756 19.20118 18.51437
#
# Velocity S-wave (km/s) = 3.06076 3.17649 3.11916
# Velocity P-wave (km/s) = 6.51742 6.71546 6.61718
#
# Compressibility (1/GPa) = 0.01752467
#
# Stress axis : x y z
#
# Youngs Moduli (GPa) = 41.71416 41.71409 67.74463
#
# Poissons Ratio (x) = 0.41385 0.42916
# Poissons Ratio (y) = 0.41386 0.42915
# Poissons Ratio (z) = 0.26426 0.26425
#
# Static dielectric constant tensor:
#      x y z
#    x 3.607390 0.000000 0.000000 
#    y 0.000000 3.607390 0.000000 
#    z 0.000000 0.000000 3.408190 
# 
# 
# High freq. dielectric constant tensor:
#      x y z
#    x 1.741760 0.000000 0.000000 
#    y 0.000000 1.741760 0.000000 
#    z 0.000000 0.000000 1.727440 
# 
# From -- ./inp_files/53024.got.cif
#   From: 2010.03.12/outbox.cif.g09.slc.cpg/sg70_27_cif.got.tgz:53024.got - 2010.04.16 13:46:32.
