data_PCOD8285949
_publ_section_title
;
Structure prediction by ZEFSAII (Michael W. Deem and Ramdas Pophale) SiO2 
 PCOD8285949
Probable space group: F D D D
;
_chemical_formula_sum "Si O2"
_cell_formula_units_Z 112
_cell_length_a 7.687957
_cell_length_b 21.255587
_cell_length_c 29.761640
_cell_angle_alpha 90.000000
_cell_angle_beta 90.000000
_cell_angle_gamma 90.000000
_cell_volume 4863.410272
_symmetry_space_group_name_H-M "F D D D"
_symmetry_group_IT_number 70
_space_group.IT_coordinate_system_code '2'
_symmetry_cell_setting 'orthorhombic'
loop_
_space_group_symop_operation_xyz
x,y,z
1/4-x,1/4-y,z
x,1/4-y,1/4-z
1/4-x,y,1/4-z
-x,-y,-z
3/4+x,3/4+y,-z
-x,3/4+y,3/4+z
3/4+x,-y,3/4+z
x,1/2+y,1/2+z
1/4-x,3/4-y,1/2+z
x,3/4-y,3/4-z
1/4-x,1/2+y,3/4-z
-x,1/2-y,1/2-z
3/4+x,1/4+y,1/2-z
-x,1/4+y,1/4+z
3/4+x,1/2-y,1/4+z
1/2+x,y,1/2+z
3/4-x,1/4-y,1/2+z
1/2+x,1/4-y,3/4-z
3/4-x,y,3/4-z
1/2-x,-y,1/2-z
1/4+x,3/4+y,1/2-z
1/2-x,3/4+y,1/4+z
1/4+x,-y,1/4+z
1/2+x,1/2+y,z
3/4-x,3/4-y,z
1/2+x,3/4-y,1/4-z
3/4-x,1/2+y,1/4-z
1/2-x,1/2-y,-z
1/4+x,1/4+y,-z
1/2-x,1/4+y,3/4+z
1/4+x,1/2-y,3/4+z
loop_
_atom_site_type_symbol
_atom_site_label
_atom_site_fract_x
_atom_site_fract_y
_atom_site_fract_z
Si Si1 0.625000 0.125000 0.507420
Si Si2 0.298128 0.733558 0.794712
Si Si3 0.164980 0.196811 0.794905
Si Si4 0.790395 0.972850 0.830668
O O1 0.759744 0.085821 0.476786
O O2 0.528605 0.075253 0.539339
O O3 0.295935 0.787232 0.756742
O O4 0.493830 0.733302 0.813974
O O5 0.157217 0.750341 0.833711
O O6 0.125000 0.125000 0.802331
O O7 0.333783 0.217587 0.822586
O O8 0.875000 0.940178 0.875000
#
# Coordination Sequence:
#
# PCOD8285949 Si02
#       4
#    16  32  32  32
#     4  10  19  40  66  80 114 164 210 246 288 368
#     4  10  20  36  64  87 112 153 208 249 292 363
#     4  10  20  37  59  85 114 155 201 243 293 364
#     4  11  23  38  57  91 125 156 195 255 318 359
#
# _framework density 23.029108999999998
#
# number of rings (size 3 to 8) (size 9 to 14) (size 15 to 20)
#    0.000    1.714    0.000    7.286    0.000    1.143 
#    7.714    0.000    0.000   10.286    0.000    0.000 
#    0.000    0.000    0.000    0.000    0.000    0.000 
#
# Total GULP energy -346904.127823 kJ/mol
# GULP energy per Si atom -12389.433137 kJ/mol
# Density = 2.297669 g / cm^3
# Si number density = 23.029109 Si / 1000 Ang^3
#
#
#
# Elastic Constant Matrix: (Units=GPa)
#
#
# Indices 1 2 3 4 5 6 
#
# 1 170.6141 -0.5718 25.9691 0.0000 0.0000 0.0000
# 2 -0.5718 76.3981 -3.0314 0.0000 0.0000 0.0000
# 3 25.9691 -3.0314 37.8181 0.0000 0.0000 0.0000
# 4 0.0000 0.0000 0.0000 8.4712 0.0000 0.0000
# 5 0.0000 0.0000 0.0000 0.0000 27.2206 0.0000
# 6 0.0000 0.0000 0.0000 0.0000 0.0000 18.3378
#
#
#
# Elastic Compliance Matrix: (Units=1/GPa)
#
#
# Indices 1 2 3 4 5 6 
#
# 1 0.006547 -0.000130 -0.004506 0.000000 0.000000 0.000000
# 2 -0.000130 0.013134 0.001142 0.000000 0.000000 0.000000
# 3 -0.004506 0.001142 0.029628 0.000000 0.000000 0.000000
# 4 0.000000 0.000000 0.000000 0.118047 0.000000 0.000000
# 5 0.000000 0.000000 0.000000 0.000000 0.036737 0.000000
# 6 0.000000 0.000000 0.000000 0.000000 0.000000 0.054532
#
#
# Mechanical properties :
#
#
# Convention : Reuss Voigt Hill
#
# Bulk Modulus (GPa) = 23.62907 36.61801 30.12354
# Shear Modulus (GPa) = 17.87509 28.30354 23.08932
#
# Velocity S-wave (km/s) = 2.78905 3.50956 3.16984
# Velocity P-wave (km/s) = 4.54473 5.68841 5.14842
#
# Compressibility (1/GPa) = 0.04232075
#
# Stress axis : x y z
#
# Youngs Moduli (GPa) = 152.75151 76.14019 33.75187
#
# Poissons Ratio (x) = 0.00988 0.15208
# Poissons Ratio (y) = 0.01983 -0.03854
# Poissons Ratio (z) = 0.68827 -0.08694
#
# Static dielectric constant tensor:
#      x y z
#    x 4.509500 0.000000 0.000000 
#    y 0.000000 3.983100 0.000000 
#    z 0.000000 0.000000 3.924660 
# 
# 
# High freq. dielectric constant tensor:
#      x y z
#    x 1.930220 0.000000 0.000000 
#    y 0.000000 1.905030 0.000000 
#    z 0.000000 0.000000 1.867060 
# 
# From -- ./inp_files/9477.got.cif
#   From: 2010.03.12/outbox.cif.g09.slc.cpg/sg70_5_cif.got.tgz:9477.got - 2010.04.16 13:46:32.
