data_PCOD8285181
_publ_section_title
;
Structure prediction by ZEFSAII (Michael W. Deem and Ramdas Pophale) SiO2 
 PCOD8285181
Probable space group: F M M M
;
_chemical_formula_sum "Si O2"
_cell_formula_units_Z 160
_cell_length_a 8.606051
_cell_length_b 33.141217
_cell_length_c 28.780002
_cell_angle_alpha 90.000000
_cell_angle_beta 90.000000
_cell_angle_gamma 90.000000
_cell_volume 8208.488377
_symmetry_space_group_name_H-M "F M M M"
_symmetry_group_IT_number 69
_symmetry_cell_setting 'orthorhombic'
loop_
_space_group_symop_operation_xyz
x,y,z
-x,-y,z
x,-y,-z
-x,y,-z
-x,-y,-z
x,y,-z
-x,y,z
x,-y,z
x,1/2+y,1/2+z
-x,1/2-y,1/2+z
x,1/2-y,1/2-z
-x,1/2+y,1/2-z
-x,1/2-y,1/2-z
x,1/2+y,1/2-z
-x,1/2+y,1/2+z
x,1/2-y,1/2+z
1/2+x,y,1/2+z
1/2-x,-y,1/2+z
1/2+x,-y,1/2-z
1/2-x,y,1/2-z
1/2-x,-y,1/2-z
1/2+x,y,1/2-z
1/2-x,y,1/2+z
1/2+x,-y,1/2+z
1/2+x,1/2+y,z
1/2-x,1/2-y,z
1/2+x,1/2-y,-z
1/2-x,1/2+y,-z
1/2-x,1/2-y,-z
1/2+x,1/2+y,-z
1/2-x,1/2+y,z
1/2+x,1/2-y,z
loop_
_atom_site_type_symbol
_atom_site_label
_atom_site_fract_x
_atom_site_fract_y
_atom_site_fract_z
Si Si1 0.818915 0.353772 0.120763
Si Si2 0.315794 0.500000 0.446442
Si Si3 0.318314 0.707631 0.700784
Si Si4 0.322572 0.708085 0.054880
Si Si5 0.815892 0.000000 0.698296
Si Si6 0.182375 0.440693 0.625421
O O1 0.773055 0.326852 0.164769
O O2 0.774665 0.329313 0.074618
O O3 0.717059 0.393635 0.124142
O O4 0.000000 0.365024 0.119544
O O5 0.500000 0.500000 0.441689
O O6 0.262572 0.500000 0.500000
O O7 0.249306 0.539736 0.421603
O O8 0.500000 0.713190 0.705908
O O9 0.250000 0.694332 0.750000
O O10 0.250000 0.750000 0.683229
O O11 0.500000 0.705961 0.072040
O O12 0.250000 0.750000 0.072944
O O13 0.309911 0.705041 0.000000
O O14 0.750000 0.000000 0.750000
O O15 0.759573 0.960224 0.671060
O O16 0.000000 0.000000 0.700641
O O17 0.000000 0.448595 0.627745
#
# Coordination Sequence:
#
# PCOD8285181 Si02
#       6
#    32  16  32  32  16  32
#     4  11  23  38  57  83 115 151 190 235 285 335
#     4  10  21  40  65  88 114 150 187 228 281 339
#     4  10  21  36  56  80 109 146 188 232 277 329
#     4  10  21  37  57  82 112 149 193 238 286 341
#     4  11  22  41  66  89 117 151 188 230 281 341
#     4  11  23  39  60  88 119 150 188 234 283 339
#
# _framework density 19.492018000000002
#
# number of rings (size 3 to 8) (size 9 to 14) (size 15 to 20)
#    0.000    1.500    0.000    7.200    0.000    8.400 
#    0.000    2.000    0.000    0.000    0.000    0.000 
#    0.000    0.000    0.000    0.000    0.000    0.000 
#
# Total GULP energy -496209.343272 kJ/mol
# GULP energy per Si atom -12405.233582 kJ/mol
# Density = 1.944765 g / cm^3
# Si number density = 19.492018 Si / 1000 Ang^3
#
#
#
# Elastic Constant Matrix: (Units=GPa)
#
#
# Indices 1 2 3 4 5 6 
#
# 1 119.2181 45.1211 58.8447 0.0000 0.0000 0.0000
# 2 45.1211 136.6958 56.8700 0.0000 0.0000 0.0000
# 3 58.8447 56.8700 117.4601 0.0000 0.0000 0.0000
# 4 0.0000 0.0000 0.0000 98.3134 0.0000 0.0000
# 5 0.0000 0.0000 0.0000 0.0000 30.9641 0.0000
# 6 0.0000 0.0000 0.0000 0.0000 0.0000 35.7675
#
#
#
# Elastic Compliance Matrix: (Units=1/GPa)
#
#
# Indices 1 2 3 4 5 6 
#
# 1 0.011467 -0.001747 -0.004899 0.000000 0.000000 0.000000
# 2 -0.001747 0.009427 -0.003689 0.000000 0.000000 0.000000
# 3 -0.004899 -0.003689 0.012754 0.000000 0.000000 0.000000
# 4 0.000000 0.000000 0.000000 0.010172 0.000000 0.000000
# 5 0.000000 0.000000 0.000000 0.000000 0.032296 0.000000
# 6 0.000000 0.000000 0.000000 0.000000 0.000000 0.027958
#
#
# Mechanical properties :
#
#
# Convention : Reuss Voigt Hill
#
# Bulk Modulus (GPa) = 77.05278 77.22730 77.14004
# Shear Modulus (GPa) = 38.73884 47.17820 42.95852
#
# Velocity S-wave (km/s) = 4.46289 4.92508 4.69967
# Velocity P-wave (km/s) = 8.13466 8.48810 8.31326
#
# Compressibility (1/GPa) = 0.01297812
#
# Stress axis : x y z
#
# Youngs Moduli (GPa) = 87.20464 106.07930 78.40763
#
# Poissons Ratio (x) = 0.18532 0.38412
# Poissons Ratio (y) = 0.15235 0.28924
# Poissons Ratio (z) = 0.42721 0.39132
#
# Static dielectric constant tensor:
#      x y z
#    x 3.774660 0.000000 0.000000 
#    y 0.000000 3.514180 0.000000 
#    z 0.000000 0.000000 3.786610 
# 
# 
# High freq. dielectric constant tensor:
#      x y z
#    x 1.779120 0.000000 0.000000 
#    y 0.000000 1.759640 0.000000 
#    z 0.000000 0.000000 1.765460 
# 
# From -- ./inp_files/44619.got.cif
#   From: 2010.03.12/outbox.cif.g09.slc.cpg/sg69_23_cif.got.tgz:44619.got - 2010.04.10 23:52:46.
