data_PCOD8285639
_publ_section_title
;
Structure prediction by ZEFSAII (Michael W. Deem and Ramdas Pophale) SiO2 
 PCOD8285639
Probable space group: F M M M
;
_chemical_formula_sum "Si O2"
_cell_formula_units_Z 176
_cell_length_a 29.239739
_cell_length_b 25.355056
_cell_length_c 14.115105
_cell_angle_alpha 90.000000
_cell_angle_beta 90.000000
_cell_angle_gamma 90.000000
_cell_volume 10464.589071
_symmetry_space_group_name_H-M "F M M M"
_symmetry_group_IT_number 69
_symmetry_cell_setting 'orthorhombic'
loop_
_space_group_symop_operation_xyz
x,y,z
-x,-y,z
x,-y,-z
-x,y,-z
-x,-y,-z
x,y,-z
-x,y,z
x,-y,z
x,1/2+y,1/2+z
-x,1/2-y,1/2+z
x,1/2-y,1/2-z
-x,1/2+y,1/2-z
-x,1/2-y,1/2-z
x,1/2+y,1/2-z
-x,1/2+y,1/2+z
x,1/2-y,1/2+z
1/2+x,y,1/2+z
1/2-x,-y,1/2+z
1/2+x,-y,1/2-z
1/2-x,y,1/2-z
1/2-x,-y,1/2-z
1/2+x,y,1/2-z
1/2-x,y,1/2+z
1/2+x,-y,1/2+z
1/2+x,1/2+y,z
1/2-x,1/2-y,z
1/2+x,1/2-y,-z
1/2-x,1/2+y,-z
1/2-x,1/2-y,-z
1/2+x,1/2+y,-z
1/2-x,1/2+y,z
1/2+x,1/2-y,z
loop_
_atom_site_type_symbol
_atom_site_label
_atom_site_fract_x
_atom_site_fract_y
_atom_site_fract_z
Si Si1 0.445875 0.162850 0.605641
Si Si2 0.000000 0.562289 0.109368
Si Si3 0.415951 0.618551 0.707741
Si Si4 0.266197 0.437506 0.104855
Si Si5 0.947998 0.282166 0.889086
Si Si6 0.322067 0.937603 0.217982
O O1 0.427412 0.150038 0.500000
O O2 0.500000 0.156687 0.607238
O O3 0.423693 0.121939 0.679030
O O4 0.432986 0.222651 0.635340
O O5 0.955012 0.584073 0.159363
O O6 0.000000 0.500000 0.119231
O O7 0.000000 0.580444 0.000000
O O8 0.415131 0.677407 0.665056
O O9 0.367818 0.591672 0.687334
O O10 0.266918 0.500000 0.100523
O O11 0.305949 0.419083 0.177003
O O12 0.216587 0.420073 0.143125
O O13 0.274482 0.413199 0.000000
O O14 0.000000 0.292673 0.854587
O O15 0.944249 0.292294 0.000000
O O16 0.330663 0.000000 0.215349
#
# Coordination Sequence:
#
# PCOD8285639 Si02
#       6
#    32  16  32  32  32  32
#     4   9  18  32  49  70  94 124 167 214 249 276
#     4  11  24  36  44  63 101 143 172 190 220 277
#     4  12  19  30  50  71  99 135 164 195 237 288
#     4   8  15  32  53  68  88 118 154 204 254 284
#     4   9  17  30  48  70  95 124 165 211 248 279
#     4   9  19  31  46  73  99 122 159 198 235 286
#
# _framework density 16.818625999999998
#
# number of rings (size 3 to 8) (size 9 to 14) (size 15 to 20)
#    0.000    2.455    1.818    3.818    0.000    3.636 
#    0.000    1.818    0.000    2.182    0.000   10.182 
#    0.000   17.455    0.000    0.000    0.000    0.000 
#
# Total GULP energy -545474.092159 kJ/mol
# GULP energy per Si atom -12397.138458 kJ/mol
# Density = 1.678035 g / cm^3
# Si number density = 16.818626 Si / 1000 Ang^3
#
#
#
# Elastic Constant Matrix: (Units=GPa)
#
#
# Indices 1 2 3 4 5 6 
#
# 1 88.2473 23.9850 36.3689 0.0000 0.0000 0.0000
# 2 23.9850 40.4070 28.8021 0.0000 0.0000 0.0000
# 3 36.3689 28.8021 91.9309 0.0000 0.0000 0.0000
# 4 0.0000 0.0000 0.0000 23.8726 0.0000 0.0000
# 5 0.0000 0.0000 0.0000 0.0000 12.0200 0.0000
# 6 0.0000 0.0000 0.0000 0.0000 0.0000 13.3755
#
#
#
# Elastic Compliance Matrix: (Units=1/GPa)
#
#
# Indices 1 2 3 4 5 6 
#
# 1 0.014533 -0.005830 -0.003923 0.000000 0.000000 0.000000
# 2 -0.005830 0.034203 -0.008409 0.000000 0.000000 0.000000
# 3 -0.003923 -0.008409 0.015064 0.000000 0.000000 0.000000
# 4 0.000000 0.000000 0.000000 0.041889 0.000000 0.000000
# 5 0.000000 0.000000 0.000000 0.000000 0.083195 0.000000
# 6 0.000000 0.000000 0.000000 0.000000 0.000000 0.074763
#
#
# Mechanical properties :
#
#
# Convention : Reuss Voigt Hill
#
# Bulk Modulus (GPa) = 36.39608 44.32190 40.35899
# Shear Modulus (GPa) = 16.17435 18.61558 17.39496
#
# Velocity S-wave (km/s) = 3.10448 3.33053 3.21949
# Velocity P-wave (km/s) = 5.87688 6.41872 6.15377
#
# Compressibility (1/GPa) = 0.02747549
#
# Stress axis : x y z
#
# Youngs Moduli (GPa) = 68.80820 29.23702 66.38218
#
# Poissons Ratio (x) = 0.17047 0.26040
# Poissons Ratio (y) = 0.40119 0.55823
# Poissons Ratio (z) = 0.26992 0.24586
#
# Static dielectric constant tensor:
#      x y z
#    x 2.869130 0.000000 0.000000 
#    y 0.000000 2.937970 0.000000 
#    z 0.000000 0.000000 3.662080 
# 
# 
# High freq. dielectric constant tensor:
#      x y z
#    x 1.619360 0.000000 0.000000 
#    y 0.000000 1.620630 0.000000 
#    z 0.000000 0.000000 1.669330 
# 
# From -- ./inp_files/18069.got.cif
#   From: 2010.03.12/outbox.cif.g09.slc.cpg/sg69_10_cif.got.tgz:18069.got - 2010.04.10 23:52:46.
