data_PCOD8285885
_publ_section_title
;
Structure prediction by ZEFSAII (Michael W. Deem and Ramdas Pophale) SiO2 
 PCOD8285885
Probable space group: F D D D
;
_chemical_formula_sum "Si O2"
_cell_formula_units_Z 232
_cell_length_a 29.979947
_cell_length_b 21.641769
_cell_length_c 18.670282
_cell_angle_alpha 90.000000
_cell_angle_beta 90.000000
_cell_angle_gamma 90.000000
_cell_volume 12113.635333
_symmetry_space_group_name_H-M "F D D D"
_symmetry_group_IT_number 70
_space_group.IT_coordinate_system_code '2'
_symmetry_cell_setting 'orthorhombic'
loop_
_space_group_symop_operation_xyz
x,y,z
1/4-x,1/4-y,z
x,1/4-y,1/4-z
1/4-x,y,1/4-z
-x,-y,-z
3/4+x,3/4+y,-z
-x,3/4+y,3/4+z
3/4+x,-y,3/4+z
x,1/2+y,1/2+z
1/4-x,3/4-y,1/2+z
x,3/4-y,3/4-z
1/4-x,1/2+y,3/4-z
-x,1/2-y,1/2-z
3/4+x,1/4+y,1/2-z
-x,1/4+y,1/4+z
3/4+x,1/2-y,1/4+z
1/2+x,y,1/2+z
3/4-x,1/4-y,1/2+z
1/2+x,1/4-y,3/4-z
3/4-x,y,3/4-z
1/2-x,-y,1/2-z
1/4+x,3/4+y,1/2-z
1/2-x,3/4+y,1/4+z
1/4+x,-y,1/4+z
1/2+x,1/2+y,z
3/4-x,3/4-y,z
1/2+x,3/4-y,1/4-z
3/4-x,1/2+y,1/4-z
1/2-x,1/2-y,-z
1/4+x,1/4+y,-z
1/2-x,1/4+y,3/4+z
1/4+x,1/2-y,3/4+z
loop_
_atom_site_type_symbol
_atom_site_label
_atom_site_fract_x
_atom_site_fract_y
_atom_site_fract_z
Si Si1 0.505293 0.448292 0.941185
Si Si2 0.221310 0.695013 0.120727
Si Si3 0.665376 0.036303 0.999593
Si Si4 0.816455 0.327362 0.019828
Si Si5 0.957211 0.320319 0.447632
Si Si6 0.191061 0.503067 0.408758
Si Si7 0.125000 0.125000 0.125000
Si Si8 0.599119 0.444976 0.879188
O O1 0.483574 0.383561 0.965383
O O2 0.482089 0.466984 0.865983
O O3 0.558084 0.441885 0.933313
O O4 0.500000 0.500000 0.000000
O O5 0.204382 0.625000 0.125000
O O6 0.189308 0.734366 0.175361
O O7 0.273607 0.699978 0.139109
O O8 0.215065 0.709791 0.036326
O O9 0.614790 0.057314 0.008880
O O10 0.691324 0.098510 0.974064
O O11 0.667102 0.978477 0.944299
O O12 0.805686 0.306252 0.099775
O O13 0.957621 0.278020 0.516025
O O14 0.906120 0.333298 0.425674
O O15 0.140329 0.480884 0.414436
O O16 0.616399 0.375000 0.875000
#
# Coordination Sequence:
#
# PCOD8285885 Si02
#       8
#    32  32  32  32  32  32   8  32
#     4  10  22  40  63  85 119 158 199 248 304 360
#     4  10  19  35  56  80 117 156 199 242 299 354
#     4   9  19  34  60  83 110 152 202 244 293 356
#     4   9  19  35  55  89 111 148 197 250 295 348
#     4  10  22  40  61  92 116 156 205 242 306 360
#     4  11  23  34  59  84 123 154 197 250 304 355
#     4   8  20  36  60  84 120 140 194 260 288 342
#     4  11  22  39  58  85 123 158 200 245 309 368
#
# _framework density 19.151972000000001
#
# number of rings (size 3 to 8) (size 9 to 14) (size 15 to 20)
#    0.000    2.207    1.379    2.069    5.793    2.759 
#    0.000    0.000    0.000    0.000    0.000    0.000 
#    0.000    0.000    0.000    0.000    0.000    0.000 
#
# Total GULP energy -718657.483037 kJ/mol
# GULP energy per Si atom -12390.646259 kJ/mol
# Density = 1.910838 g / cm^3
# Si number density = 19.151972 Si / 1000 Ang^3
#
#
#
# Elastic Constant Matrix: (Units=GPa)
#
#
# Indices 1 2 3 4 5 6 
#
# 1 97.2645 26.5775 42.7465 0.0000 0.0000 0.0000
# 2 26.5775 91.8113 61.4709 0.0000 0.0000 0.0000
# 3 42.7465 61.4709 113.8022 0.0000 0.0000 0.0000
# 4 0.0000 0.0000 0.0000 29.3065 0.0000 0.0000
# 5 0.0000 0.0000 0.0000 0.0000 23.4805 0.0000
# 6 0.0000 0.0000 0.0000 0.0000 0.0000 24.2099
#
#
#
# Elastic Compliance Matrix: (Units=1/GPa)
#
#
# Indices 1 2 3 4 5 6 
#
# 1 0.012346 -0.000735 -0.004240 0.000000 0.000000 0.000000
# 2 -0.000735 0.017106 -0.008964 0.000000 0.000000 0.000000
# 3 -0.004240 -0.008964 0.015222 0.000000 0.000000 0.000000
# 4 0.000000 0.000000 0.000000 0.034122 0.000000 0.000000
# 5 0.000000 0.000000 0.000000 0.000000 0.042589 0.000000
# 6 0.000000 0.000000 0.000000 0.000000 0.000000 0.041305
#
#
# Mechanical properties :
#
#
# Convention : Reuss Voigt Hill
#
# Bulk Modulus (GPa) = 59.53980 62.71864 61.12922
# Shear Modulus (GPa) = 25.48848 26.87160 26.18004
#
# Velocity S-wave (km/s) = 3.65204 3.74982 3.70126
# Velocity P-wave (km/s) = 6.99563 7.18103 7.08894
#
# Compressibility (1/GPa) = 0.01679549
#
# Stress axis : x y z
#
# Youngs Moduli (GPa) = 81.00045 58.45760 65.69432
#
# Poissons Ratio (x) = 0.04295 0.27857
# Poissons Ratio (y) = 0.05951 0.58890
# Poissons Ratio (z) = 0.34348 0.52402
#
# Static dielectric constant tensor:
#      x y z
#    x 3.662640 0.000000 0.000000 
#    y 0.000000 2.930890 0.000000 
#    z 0.000000 0.000000 3.537040 
# 
# 
# High freq. dielectric constant tensor:
#      x y z
#    x 1.758170 0.000000 0.000000 
#    y 0.000000 1.723820 0.000000 
#    z 0.000000 0.000000 1.743810 
# 
# From -- ./inp_files/39975.got.cif
#   From: 2010.03.12/outbox.cif.g09.slc.cpg/sg70_20_cif.got.tgz:39975.got - 2010.04.16 13:46:32.
