data_PCOD8285942
_publ_section_title
;
Structure prediction by ZEFSAII (Michael W. Deem and Ramdas Pophale) SiO2 
 PCOD8285942
Probable space group: F D D D
;
_chemical_formula_sum "Si O2"
_cell_formula_units_Z 168
_cell_length_a 13.687826
_cell_length_b 27.162659
_cell_length_c 20.494426
_cell_angle_alpha 90.000000
_cell_angle_beta 90.000000
_cell_angle_gamma 90.000000
_cell_volume 7619.781476
_symmetry_space_group_name_H-M "F D D D"
_symmetry_group_IT_number 70
_space_group.IT_coordinate_system_code '2'
_symmetry_cell_setting 'orthorhombic'
loop_
_space_group_symop_operation_xyz
x,y,z
1/4-x,1/4-y,z
x,1/4-y,1/4-z
1/4-x,y,1/4-z
-x,-y,-z
3/4+x,3/4+y,-z
-x,3/4+y,3/4+z
3/4+x,-y,3/4+z
x,1/2+y,1/2+z
1/4-x,3/4-y,1/2+z
x,3/4-y,3/4-z
1/4-x,1/2+y,3/4-z
-x,1/2-y,1/2-z
3/4+x,1/4+y,1/2-z
-x,1/4+y,1/4+z
3/4+x,1/2-y,1/4+z
1/2+x,y,1/2+z
3/4-x,1/4-y,1/2+z
1/2+x,1/4-y,3/4-z
3/4-x,y,3/4-z
1/2-x,-y,1/2-z
1/4+x,3/4+y,1/2-z
1/2-x,3/4+y,1/4+z
1/4+x,-y,1/4+z
1/2+x,1/2+y,z
3/4-x,3/4-y,z
1/2+x,3/4-y,1/4-z
3/4-x,1/2+y,1/4-z
1/2-x,1/2-y,-z
1/4+x,1/4+y,-z
1/2-x,1/4+y,3/4+z
1/4+x,1/2-y,3/4+z
loop_
_atom_site_type_symbol
_atom_site_label
_atom_site_fract_x
_atom_site_fract_y
_atom_site_fract_z
Si Si1 0.603587 0.984048 0.300972
Si Si2 0.625000 0.625000 0.625000
Si Si3 0.600829 0.702820 0.331399
Si Si4 0.546009 0.181582 0.240180
Si Si5 0.901413 0.432944 0.303266
Si Si6 0.011979 0.866492 0.132523
O O1 0.698419 0.961889 0.268558
O O2 0.514097 0.947099 0.288851
O O3 0.609187 0.995851 0.378981
O O4 0.607450 0.037315 0.263619
O O5 0.558369 0.658661 0.669649
O O6 0.589135 0.711193 0.253031
O O7 0.701252 0.671759 0.338265
O O8 0.508296 0.672070 0.358571
O O9 0.524799 0.139013 0.293134
O O10 0.875000 0.453570 0.375000
O O11 0.875000 0.375000 0.299290
O O12 0.125000 0.853544 0.125000
#
# Coordination Sequence:
#
# PCOD8285942 Si02
#       6
#    32   8  32  32  32  32
#     4  10  23  43  64  97 132 173 228 271 331 407
#     4  12  24  40  60 100 142 168 210 296 348 400
#     4  10  21  40  64  96 127 173 220 274 325 398
#     4  10  23  40  66  98 131 174 218 281 344 396
#     4  11  24  42  67  95 136 174 218 277 331 403
#     4  10  19  39  68  93 126 175 221 267 329 404
#
# _framework density 22.047875000000001
#
# number of rings (size 3 to 8) (size 9 to 14) (size 15 to 20)
#    0.000    1.714    1.905    3.429    2.667    3.048 
#    3.429    0.000    0.000    0.000    0.000    0.000 
#    0.000    0.000    0.000    0.000    0.000    0.000 
#
# Total GULP energy -520307.199756 kJ/mol
# GULP energy per Si atom -12388.266661 kJ/mol
# Density = 2.199769 g / cm^3
# Si number density = 22.047875 Si / 1000 Ang^3
#
#
#
# Elastic Constant Matrix: (Units=GPa)
#
#
# Indices 1 2 3 4 5 6 
#
# 1 110.3609 45.5175 20.5773 0.0000 0.0000 0.0000
# 2 45.5175 58.4614 37.2144 0.0000 0.0000 0.0000
# 3 20.5773 37.2144 186.8693 0.0000 0.0000 0.0000
# 4 0.0000 0.0000 0.0000 35.8860 0.0000 0.0000
# 5 0.0000 0.0000 0.0000 0.0000 24.7681 0.0000
# 6 0.0000 0.0000 0.0000 0.0000 0.0000 -26.7216
#
#
#
# Elastic Compliance Matrix: (Units=1/GPa)
#
#
# Indices 1 2 3 4 5 6 
#
# 1 0.013425 -0.010892 0.000691 0.000000 0.000000 0.000000
# 2 -0.010892 0.028426 -0.004462 0.000000 0.000000 0.000000
# 3 0.000691 -0.004462 0.006164 0.000000 0.000000 0.000000
# 4 0.000000 0.000000 0.000000 0.027866 0.000000 0.000000
# 5 0.000000 0.000000 0.000000 0.000000 0.040375 0.000000
# 6 0.000000 0.000000 0.000000 0.000000 0.000000 -0.037423
#
#
# Mechanical properties :
#
#
# Convention : Reuss Voigt Hill
#
# Bulk Modulus (GPa) = 53.50814 62.47890 57.99352
# Shear Modulus (GPa) = 43.71110 23.61197 33.66154
#
# Velocity S-wave (km/s) = 4.45742 3.27607 3.91160
# Velocity P-wave (km/s) = 7.12834 6.53526 6.83823
#
# Compressibility (1/GPa) = 0.01868875
#
# Stress axis : x y z
#
# Youngs Moduli (GPa) = 74.48924 35.17919 162.23876
#
# Poissons Ratio (x) = 0.38318 -0.11208
# Poissons Ratio (y) = 0.81135 0.72383
# Poissons Ratio (z) = -0.05146 0.15695
#
# Static dielectric constant tensor:
#      x y z
#    x 3.744570 0.000000 0.000000 
#    y 0.000000 3.879390 0.000000 
#    z 0.000000 0.000000 4.454670 
# 
# 
# High freq. dielectric constant tensor:
#      x y z
#    x 1.851230 0.000000 0.000000 
#    y 0.000000 1.849480 0.000000 
#    z 0.000000 0.000000 1.886190 
# 
# From -- ./inp_files/42973.got.cif
#   From: 2010.03.12/outbox.cif.g09.slc.cpg/sg70_22_cif.got.tgz:42973.got - 2010.04.16 13:46:32.
