data_PCOD8285873
_publ_section_title
;
Structure prediction by ZEFSAII (Michael W. Deem and Ramdas Pophale) SiO2 
 PCOD8285873
Probable space group: F D D D
;
_chemical_formula_sum "Si O2"
_cell_formula_units_Z 144
_cell_length_a 10.768069
_cell_length_b 26.146453
_cell_length_c 26.851027
_cell_angle_alpha 90.000000
_cell_angle_beta 90.000000
_cell_angle_gamma 90.000000
_cell_volume 7559.820997
_symmetry_space_group_name_H-M "F D D D"
_symmetry_group_IT_number 70
_space_group.IT_coordinate_system_code '2'
_symmetry_cell_setting 'orthorhombic'
loop_
_space_group_symop_operation_xyz
x,y,z
1/4-x,1/4-y,z
x,1/4-y,1/4-z
1/4-x,y,1/4-z
-x,-y,-z
3/4+x,3/4+y,-z
-x,3/4+y,3/4+z
3/4+x,-y,3/4+z
x,1/2+y,1/2+z
1/4-x,3/4-y,1/2+z
x,3/4-y,3/4-z
1/4-x,1/2+y,3/4-z
-x,1/2-y,1/2-z
3/4+x,1/4+y,1/2-z
-x,1/4+y,1/4+z
3/4+x,1/2-y,1/4+z
1/2+x,y,1/2+z
3/4-x,1/4-y,1/2+z
1/2+x,1/4-y,3/4-z
3/4-x,y,3/4-z
1/2-x,-y,1/2-z
1/4+x,3/4+y,1/2-z
1/2-x,3/4+y,1/4+z
1/4+x,-y,1/4+z
1/2+x,1/2+y,z
3/4-x,3/4-y,z
1/2+x,3/4-y,1/4-z
3/4-x,1/2+y,1/4-z
1/2-x,1/2-y,-z
1/4+x,1/4+y,-z
1/2-x,1/4+y,3/4+z
1/4+x,1/2-y,3/4+z
loop_
_atom_site_type_symbol
_atom_site_label
_atom_site_fract_x
_atom_site_fract_y
_atom_site_fract_z
Si Si1 0.506190 0.097222 0.805848
Si Si2 0.996462 0.575317 0.098140
Si Si3 0.021523 0.941394 0.509615
Si Si4 0.625000 0.825156 0.125000
Si Si5 0.365638 0.965361 0.645585
O O1 0.625000 0.125000 0.780061
O O2 0.419290 0.068406 0.766412
O O3 0.421096 0.140597 0.829762
O O4 0.553905 0.056306 0.845820
O O5 0.935417 0.625000 0.125000
O O6 0.908831 0.525894 0.101061
O O7 0.125000 0.562019 0.125000
O O8 0.021446 0.589283 0.039807
O O9 0.941657 0.930382 0.559573
O O10 0.000000 0.000000 0.500000
O O11 0.736183 0.790031 0.145585
#
# Coordination Sequence:
#
# PCOD8285873 Si02
#       5
#    32  32  32  16  32
#     4  10  19  34  56  88 117 139 185 246 301 347
#     4  10  22  38  56  80 107 152 198 243 280 342
#     4  10  19  35  61  83 111 154 196 240 298 356
#     4  10  20  30  55  88 109 148 172 238 294 348
#     4  10  19  36  57  84 118 142 192 240 296 347
#
# _framework density 19.048069999999999
#
# number of rings (size 3 to 8) (size 9 to 14) (size 15 to 20)
#    0.000    2.000    2.222    2.667    0.000    3.556 
#    0.000    5.000    0.000   14.667    0.000    0.000 
#    0.000    0.000    0.000    0.000    0.000    0.000 
#
# Total GULP energy -446127.637660 kJ/mol
# GULP energy per Si atom -12392.434379 kJ/mol
# Density = 1.900472 g / cm^3
# Si number density = 19.048070 Si / 1000 Ang^3
#
#
#
# Elastic Constant Matrix: (Units=GPa)
#
#
# Indices 1 2 3 4 5 6 
#
# 1 155.6029 53.4882 50.1444 0.0000 0.0000 0.0000
# 2 53.4882 106.0273 29.2504 0.0000 0.0000 0.0000
# 3 50.1444 29.2504 103.7960 0.0000 0.0000 0.0000
# 4 0.0000 0.0000 0.0000 -2.6146 0.0000 0.0000
# 5 0.0000 0.0000 0.0000 0.0000 19.5055 0.0000
# 6 0.0000 0.0000 0.0000 0.0000 0.0000 39.3492
#
#
#
# Elastic Compliance Matrix: (Units=1/GPa)
#
#
# Indices 1 2 3 4 5 6 
#
# 1 0.008655 -0.003484 -0.003200 0.000000 0.000000 0.000000
# 2 -0.003484 0.011629 -0.001594 0.000000 0.000000 0.000000
# 3 -0.003200 -0.001594 0.011629 0.000000 0.000000 0.000000
# 4 0.000000 0.000000 0.000000 -0.382474 0.000000 0.000000
# 5 0.000000 0.000000 0.000000 0.000000 0.051268 0.000000
# 6 0.000000 0.000000 0.000000 0.000000 0.000000 0.025414
#
#
# Mechanical properties :
#
#
# Convention : Reuss Voigt Hill
#
# Bulk Modulus (GPa) = 65.11080 70.13247 67.62164
# Shear Modulus (GPa) = -19.82507 26.75090 3.46291
#
# Velocity S-wave (km/s) = -3.22963 3.75158 1.34979
# Velocity P-wave (km/s) = 4.51101 7.46086 6.16497
#
# Compressibility (1/GPa) = 0.01535844
#
# Stress axis : x y z
#
# Youngs Moduli (GPa) = 115.53701 85.99398 85.98982
#
# Poissons Ratio (x) = 0.29957 0.27514
# Poissons Ratio (y) = 0.40249 0.13707
# Poissons Ratio (z) = 0.36968 0.13708
#
# Static dielectric constant tensor:
#      x y z
#    x 3.609880 0.000000 0.000000 
#    y 0.000000 3.449550 0.000000 
#    z 0.000000 0.000000 3.778620 
# 
# 
# High freq. dielectric constant tensor:
#      x y z
#    x 1.735960 0.000000 0.000000 
#    y 0.000000 1.738580 0.000000 
#    z 0.000000 0.000000 1.731400 
# 
# From -- ./inp_files/20783.got.cif
#   From: 2010.03.12/outbox.cif.g09.slc.cpg/sg70_11_cif.got.tgz:20783.got - 2010.04.16 13:46:32.
