data_PCOD8285030
_publ_section_title
;
Structure prediction by ZEFSAII (Michael W. Deem and Ramdas Pophale) SiO2 
 PCOD8285030
Probable space group: F M M M
;
_chemical_formula_sum "Si O2"
_cell_formula_units_Z 160
_cell_length_a 10.074244
_cell_length_b 29.473514
_cell_length_c 30.227282
_cell_angle_alpha 90.000000
_cell_angle_beta 90.000000
_cell_angle_gamma 90.000000
_cell_volume 8975.186485
_symmetry_space_group_name_H-M "F M M M"
_symmetry_group_IT_number 69
_symmetry_cell_setting 'orthorhombic'
loop_
_space_group_symop_operation_xyz
x,y,z
-x,-y,z
x,-y,-z
-x,y,-z
-x,-y,-z
x,y,-z
-x,y,z
x,-y,z
x,1/2+y,1/2+z
-x,1/2-y,1/2+z
x,1/2-y,1/2-z
-x,1/2+y,1/2-z
-x,1/2-y,1/2-z
x,1/2+y,1/2-z
-x,1/2+y,1/2+z
x,1/2-y,1/2+z
1/2+x,y,1/2+z
1/2-x,-y,1/2+z
1/2+x,-y,1/2-z
1/2-x,y,1/2-z
1/2-x,-y,1/2-z
1/2+x,y,1/2-z
1/2-x,y,1/2+z
1/2+x,-y,1/2+z
1/2+x,1/2+y,z
1/2-x,1/2-y,z
1/2+x,1/2-y,-z
1/2-x,1/2+y,-z
1/2-x,1/2-y,-z
1/2+x,1/2+y,-z
1/2-x,1/2+y,z
1/2+x,1/2-y,z
loop_
_atom_site_type_symbol
_atom_site_label
_atom_site_fract_x
_atom_site_fract_y
_atom_site_fract_z
Si Si1 0.500000 0.445649 0.706266
Si Si2 0.349181 0.333681 0.592312
Si Si3 0.248729 0.896388 0.165629
Si Si4 0.841882 0.294893 0.000000
Si Si5 0.500000 0.053021 0.308944
Si Si6 0.250000 0.250000 0.856947
Si Si7 0.849993 0.310836 0.714259
O O1 0.500000 0.500000 0.701209
O O2 0.374076 0.424780 0.681734
O O3 0.500000 0.430778 0.757710
O O4 0.500000 0.349572 0.595759
O O5 0.266281 0.372780 0.617488
O O6 0.305186 0.327058 0.541526
O O7 0.335337 0.284277 0.613970
O O8 0.214248 0.858705 0.201822
O O9 0.125994 0.930331 0.163308
O O10 0.750000 0.250000 0.000000
O O11 0.000000 0.281546 0.000000
O O12 0.500000 0.000000 0.309614
O O13 0.144043 0.222451 0.827602
O O14 0.750000 0.289219 0.750000
O O15 0.000000 0.316451 0.732846
#
# Coordination Sequence:
#
# PCOD8285030 Si02
#       7
#    16  32  32  16  16  16  32
#     4  11  22  38  60  84 113 150 192 236 285 338
#     4  10  20  37  58  82 112 147 183 230 281 336
#     4  11  22  37  56  81 115 148 188 231 283 338
#     4  10  20  38  62  88 115 144 186 236 287 334
#     4  11  22  38  58  86 115 148 190 238 287 330
#     4  10  21  33  52  74 110 142 190 227 275 322
#     4  11  23  35  50  72 105 150 195 234 270 317
#
# _framework density 17.826927999999999
#
# number of rings (size 3 to 8) (size 9 to 14) (size 15 to 20)
#    0.000    1.400    3.000    3.300    1.400    4.000 
#    1.800    0.000    0.000    0.000    0.000    4.200 
#    0.000    0.000    0.000    0.000    0.000    0.000 
#
# Total GULP energy -495875.828479 kJ/mol
# GULP energy per Si atom -12396.895712 kJ/mol
# Density = 1.778635 g / cm^3
# Si number density = 17.826928 Si / 1000 Ang^3
#
#
#
# Elastic Constant Matrix: (Units=GPa)
#
#
# Indices 1 2 3 4 5 6 
#
# 1 134.0462 42.2811 56.2720 0.0000 0.0000 0.0000
# 2 42.2811 81.6325 48.6734 0.0000 0.0000 0.0000
# 3 56.2720 48.6734 124.6407 0.0000 0.0000 0.0000
# 4 0.0000 0.0000 0.0000 -14.8039 0.0000 0.0000
# 5 0.0000 0.0000 0.0000 0.0000 23.9150 0.0000
# 6 0.0000 0.0000 0.0000 0.0000 0.0000 28.1286
#
#
#
# Elastic Compliance Matrix: (Units=1/GPa)
#
#
# Indices 1 2 3 4 5 6 
#
# 1 0.009798 -0.003177 -0.003183 0.000000 0.000000 0.000000
# 2 -0.003177 0.016998 -0.005204 0.000000 0.000000 0.000000
# 3 -0.003183 -0.005204 0.011492 0.000000 0.000000 0.000000
# 4 0.000000 0.000000 0.000000 -0.067550 0.000000 0.000000
# 5 0.000000 0.000000 0.000000 0.000000 0.041815 0.000000
# 6 0.000000 0.000000 0.000000 0.000000 0.000000 0.035551
#
#
# Mechanical properties :
#
#
# Convention : Reuss Voigt Hill
#
# Bulk Modulus (GPa) = 65.95729 70.53025 68.24377
# Shear Modulus (GPa) = 65.54252 20.32079 42.93166
#
# Velocity S-wave (km/s) = 6.07008 3.37989 4.91271
# Velocity P-wave (km/s) = 9.28476 7.40819 8.39905
#
# Compressibility (1/GPa) = 0.01516133
#
# Stress axis : x y z
#
# Youngs Moduli (GPa) = 102.05647 58.82959 87.01581
#
# Poissons Ratio (x) = 0.18691 0.27697
# Poissons Ratio (y) = 0.32425 0.45279
# Poissons Ratio (z) = 0.32485 0.30612
#
# Static dielectric constant tensor:
#      x y z
#    x 3.394270 0.000000 0.000000 
#    y 0.000000 3.290890 0.000000 
#    z 0.000000 0.000000 3.300570 
# 
# 
# High freq. dielectric constant tensor:
#      x y z
#    x 1.697290 0.000000 0.000000 
#    y 0.000000 1.687450 0.000000 
#    z 0.000000 0.000000 1.671490 
# 
# From -- ./inp_files/44651.got.cif
#   From: 2010.03.12/outbox.cif.g09.slc.cpg/sg69_23_cif.got.tgz:44651.got - 2010.04.10 23:52:46.
