data_PCOD8285702
_publ_section_title
;
Structure prediction by ZEFSAII (Michael W. Deem and Ramdas Pophale) SiO2 
 PCOD8285702
Probable space group: F M M M
;
_chemical_formula_sum "Si O2"
_cell_formula_units_Z 160
_cell_length_a 27.093150
_cell_length_b 18.161161
_cell_length_c 19.823410
_cell_angle_alpha 90.000000
_cell_angle_beta 90.000000
_cell_angle_gamma 90.000000
_cell_volume 9753.971299
_symmetry_space_group_name_H-M "F M M M"
_symmetry_group_IT_number 69
_symmetry_cell_setting 'orthorhombic'
loop_
_space_group_symop_operation_xyz
x,y,z
-x,-y,z
x,-y,-z
-x,y,-z
-x,-y,-z
x,y,-z
-x,y,z
x,-y,z
x,1/2+y,1/2+z
-x,1/2-y,1/2+z
x,1/2-y,1/2-z
-x,1/2+y,1/2-z
-x,1/2-y,1/2-z
x,1/2+y,1/2-z
-x,1/2+y,1/2+z
x,1/2-y,1/2+z
1/2+x,y,1/2+z
1/2-x,-y,1/2+z
1/2+x,-y,1/2-z
1/2-x,y,1/2-z
1/2-x,-y,1/2-z
1/2+x,y,1/2-z
1/2-x,y,1/2+z
1/2+x,-y,1/2+z
1/2+x,1/2+y,z
1/2-x,1/2-y,z
1/2+x,1/2-y,-z
1/2-x,1/2+y,-z
1/2-x,1/2-y,-z
1/2+x,1/2+y,-z
1/2-x,1/2+y,z
1/2+x,1/2-y,z
loop_
_atom_site_type_symbol
_atom_site_label
_atom_site_fract_x
_atom_site_fract_y
_atom_site_fract_z
Si Si1 0.649169 0.920475 0.922170
Si Si2 0.444752 0.139432 0.859862
Si Si3 0.614192 0.722262 0.823245
Si Si4 0.055834 0.416896 0.711952
Si Si5 0.305574 0.228089 0.920556
O O1 0.592223 0.897723 0.912681
O O2 0.685191 0.856050 0.894913
O O3 0.660328 0.000000 0.886942
O O4 0.659448 0.929908 0.000000
O O5 0.500000 0.138372 0.889990
O O6 0.429733 0.223890 0.846426
O O7 0.441833 0.092364 0.792023
O O8 0.633443 0.750000 0.750000
O O9 0.593135 0.639669 0.823223
O O10 0.658837 0.719974 0.876762
O O11 0.072241 0.500000 0.693544
O O12 0.000000 0.401978 0.686769
O O13 0.250000 0.250000 0.904347
O O14 0.318014 0.237182 0.000000
#
# Coordination Sequence:
#
# PCOD8285702 Si02
#       5
#    32  32  32  32  32
#     4   9  17  28  42  62  88 114 140 175 218 261
#     4   9  16  26  41  62  89 120 149 173 205 256
#     4   9  17  29  46  67  89 114 147 184 217 254
#     4   9  16  26  42  64  90 118 146 179 217 253
#     4   9  18  33  50  65  84 113 147 181 220 266
#
# _framework density 16.403575
#
# number of rings (size 3 to 8) (size 9 to 14) (size 15 to 20)
#    0.000    3.000    0.000    1.200    0.000    4.400 
#    0.000    2.000    0.000    3.600    0.000    9.800 
#    0.000    0.000    0.000    0.000    0.000    0.000 
#
# Total GULP energy -495754.154822 kJ/mol
# GULP energy per Si atom -12393.853871 kJ/mol
# Density = 1.636624 g / cm^3
# Si number density = 16.403575 Si / 1000 Ang^3
#
#
#
# Elastic Constant Matrix: (Units=GPa)
#
#
# Indices 1 2 3 4 5 6 
#
# 1 117.8923 66.9837 32.5591 0.0000 0.0000 0.0000
# 2 66.9837 133.4709 29.1977 0.0000 0.0000 0.0000
# 3 32.5591 29.1977 32.0368 0.0000 0.0000 0.0000
# 4 0.0000 0.0000 0.0000 17.0321 0.0000 0.0000
# 5 0.0000 0.0000 0.0000 0.0000 26.7139 0.0000
# 6 0.0000 0.0000 0.0000 0.0000 0.0000 17.5853
#
#
#
# Elastic Compliance Matrix: (Units=1/GPa)
#
#
# Indices 1 2 3 4 5 6 
#
# 1 0.013932 -0.004864 -0.009726 0.000000 0.000000 0.000000
# 2 -0.004864 0.011056 -0.005133 0.000000 0.000000 0.000000
# 3 -0.009726 -0.005133 0.045777 0.000000 0.000000 0.000000
# 4 0.000000 0.000000 0.000000 0.058713 0.000000 0.000000
# 5 0.000000 0.000000 0.000000 0.000000 0.037434 0.000000
# 6 0.000000 0.000000 0.000000 0.000000 0.000000 0.056866
#
#
# Mechanical properties :
#
#
# Convention : Reuss Voigt Hill
#
# Bulk Modulus (GPa) = 31.92980 60.09790 46.01385
# Shear Modulus (GPa) = 18.27060 22.57690 20.42375
#
# Velocity S-wave (km/s) = 3.34101 3.71393 3.53240
# Velocity P-wave (km/s) = 5.86435 7.42345 6.68948
#
# Compressibility (1/GPa) = 0.03131871
#
# Stress axis : x y z
#
# Youngs Moduli (GPa) = 71.77579 90.44573 21.84512
#
# Poissons Ratio (x) = 0.43996 0.21247
# Poissons Ratio (y) = 0.34915 0.11213
# Poissons Ratio (z) = 0.69810 0.46424
#
# Static dielectric constant tensor:
#      x y z
#    x 2.992550 0.000000 0.000000 
#    y 0.000000 3.518880 0.000000 
#    z 0.000000 0.000000 2.865320 
# 
# 
# High freq. dielectric constant tensor:
#      x y z
#    x 1.617160 0.000000 0.000000 
#    y 0.000000 1.639570 0.000000 
#    z 0.000000 0.000000 1.601860 
# 
# From -- ./inp_files/17726.got.cif
#   From: 2010.03.12/outbox.cif.g09.slc.cpg/sg69_9_cif.got.tgz:17726.got - 2010.04.10 23:52:46.
