data_PCOD8285108
_publ_section_title
;
Structure prediction by ZEFSAII (Michael W. Deem and Ramdas Pophale) SiO2 
 PCOD8285108
Probable space group: F M M M
;
_chemical_formula_sum "Si O2"
_cell_formula_units_Z 104
_cell_length_a 15.607989
_cell_length_b 12.097291
_cell_length_c 31.188211
_cell_angle_alpha 90.000000
_cell_angle_beta 90.000000
_cell_angle_gamma 90.000000
_cell_volume 5888.782875
_symmetry_space_group_name_H-M "F M M M"
_symmetry_group_IT_number 69
_symmetry_cell_setting 'orthorhombic'
loop_
_space_group_symop_operation_xyz
x,y,z
-x,-y,z
x,-y,-z
-x,y,-z
-x,-y,-z
x,y,-z
-x,y,z
x,-y,z
x,1/2+y,1/2+z
-x,1/2-y,1/2+z
x,1/2-y,1/2-z
-x,1/2+y,1/2-z
-x,1/2-y,1/2-z
x,1/2+y,1/2-z
-x,1/2+y,1/2+z
x,1/2-y,1/2+z
1/2+x,y,1/2+z
1/2-x,-y,1/2+z
1/2+x,-y,1/2-z
1/2-x,y,1/2-z
1/2-x,-y,1/2-z
1/2+x,y,1/2-z
1/2-x,y,1/2+z
1/2+x,-y,1/2+z
1/2+x,1/2+y,z
1/2-x,1/2-y,z
1/2+x,1/2-y,-z
1/2-x,1/2+y,-z
1/2-x,1/2-y,-z
1/2+x,1/2+y,-z
1/2-x,1/2+y,z
1/2+x,1/2-y,z
loop_
_atom_site_type_symbol
_atom_site_label
_atom_site_fract_x
_atom_site_fract_y
_atom_site_fract_z
Si Si1 0.406152 0.000000 0.176052
Si Si2 0.000000 0.500000 0.258618
Si Si3 0.500000 0.123903 0.340512
Si Si4 0.100388 0.372434 0.047774
Si Si5 0.154465 0.281266 0.866151
O O1 0.415768 0.000000 0.227986
O O2 0.358782 0.108669 0.160949
O O3 0.500000 0.000000 0.153731
O O4 0.000000 0.390411 0.288622
O O5 0.585825 0.187779 0.353855
O O6 0.500000 0.000000 0.361631
O O7 0.124800 0.500000 0.054259
O O8 0.150074 0.300646 0.082784
O O9 0.000000 0.354826 0.054591
O O10 0.127301 0.333387 0.000000
O O11 0.250000 0.250000 0.853592
#
# Coordination Sequence:
#
# PCOD8285108 Si02
#       5
#    16   8  16  32  32
#     4  10  20  41  67  86 110 159 211 243 298 349
#     4   8  22  42  70  78 118 160 206 240 314 358
#     4  10  23  43  57  86 122 161 194 244 311 366
#     4   9  17  33  60  91 118 154 206 248 283 341
#     4  12  23  36  64  92 125 157 198 251 300 358
#
# _framework density 17.660696000000002
#
# number of rings (size 3 to 8) (size 9 to 14) (size 15 to 20)
#    0.923    0.923    4.615    0.923    2.154    3.077 
#    0.000    4.615    0.000    1.846    0.000    0.000 
#    0.000    0.000    0.000    0.000    0.000    0.000 
#
# Total GULP energy -322225.421761 kJ/mol
# GULP energy per Si atom -12393.285452 kJ/mol
# Density = 1.762050 g / cm^3
# Si number density = 17.660696 Si / 1000 Ang^3
#
#
#
# Elastic Constant Matrix: (Units=GPa)
#
#
# Indices 1 2 3 4 5 6 
#
# 1 131.4250 68.6942 47.5246 0.0000 0.0000 0.0000
# 2 68.6942 124.7701 54.8294 0.0000 0.0000 0.0000
# 3 47.5246 54.8294 136.8129 0.0000 0.0000 0.0000
# 4 0.0000 0.0000 0.0000 28.5194 0.0000 0.0000
# 5 0.0000 0.0000 0.0000 0.0000 5.6508 0.0000
# 6 0.0000 0.0000 0.0000 0.0000 0.0000 26.1925
#
#
#
# Elastic Compliance Matrix: (Units=1/GPa)
#
#
# Indices 1 2 3 4 5 6 
#
# 1 0.010997 -0.005311 -0.001691 0.000000 0.000000 0.000000
# 2 -0.005311 0.012293 -0.003082 0.000000 0.000000 0.000000
# 3 -0.001691 -0.003082 0.009132 0.000000 0.000000 0.000000
# 4 0.000000 0.000000 0.000000 0.035064 0.000000 0.000000
# 5 0.000000 0.000000 0.000000 0.000000 0.176967 0.000000
# 6 0.000000 0.000000 0.000000 0.000000 0.000000 0.038179
#
#
# Mechanical properties :
#
#
# Convention : Reuss Voigt Hill
#
# Bulk Modulus (GPa) = 81.61172 81.67824 81.64498
# Shear Modulus (GPa) = 16.29283 26.86986 21.58134
#
# Velocity S-wave (km/s) = 3.04064 3.90481 3.49950
# Velocity P-wave (km/s) = 7.65758 8.16572 7.91573
#
# Compressibility (1/GPa) = 0.01225314
#
# Stress axis : x y z
#
# Youngs Moduli (GPa) = 90.93758 81.34667 109.50725
#
# Poissons Ratio (x) = 0.43204 0.18522
# Poissons Ratio (y) = 0.48298 0.33747
# Poissons Ratio (z) = 0.15381 0.25069
#
# Static dielectric constant tensor:
#      x y z
#    x 3.029290 0.000000 0.000000 
#    y 0.000000 3.103570 0.000000 
#    z 0.000000 0.000000 3.442840 
# 
# 
# High freq. dielectric constant tensor:
#      x y z
#    x 1.663870 0.000000 0.000000 
#    y 0.000000 1.676300 0.000000 
#    z 0.000000 0.000000 1.692330 
# 
# From -- ./inp_files/41505.got.cif
#   From: 2010.03.12/outbox.cif.g09.slc.cpg/sg69_21_cif.got.tgz:41505.got - 2010.04.10 23:52:46.
