data_PCOD8285112
_publ_section_title
;
Structure prediction by ZEFSAII (Michael W. Deem and Ramdas Pophale) SiO2 
 PCOD8285112
Probable space group: F M M M
;
_chemical_formula_sum "Si O2"
_cell_formula_units_Z 160
_cell_length_a 17.936951
_cell_length_b 23.040406
_cell_length_c 19.328421
_cell_angle_alpha 90.000000
_cell_angle_beta 90.000000
_cell_angle_gamma 90.000000
_cell_volume 7987.946104
_symmetry_space_group_name_H-M "F M M M"
_symmetry_group_IT_number 69
_symmetry_cell_setting 'orthorhombic'
loop_
_space_group_symop_operation_xyz
x,y,z
-x,-y,z
x,-y,-z
-x,y,-z
-x,-y,-z
x,y,-z
-x,y,z
x,-y,z
x,1/2+y,1/2+z
-x,1/2-y,1/2+z
x,1/2-y,1/2-z
-x,1/2+y,1/2-z
-x,1/2-y,1/2-z
x,1/2+y,1/2-z
-x,1/2+y,1/2+z
x,1/2-y,1/2+z
1/2+x,y,1/2+z
1/2-x,-y,1/2+z
1/2+x,-y,1/2-z
1/2-x,y,1/2-z
1/2-x,-y,1/2-z
1/2+x,y,1/2-z
1/2-x,y,1/2+z
1/2+x,-y,1/2+z
1/2+x,1/2+y,z
1/2-x,1/2-y,z
1/2+x,1/2-y,-z
1/2-x,1/2+y,-z
1/2-x,1/2-y,-z
1/2+x,1/2+y,-z
1/2-x,1/2+y,z
1/2+x,1/2-y,z
loop_
_atom_site_type_symbol
_atom_site_label
_atom_site_fract_x
_atom_site_fract_y
_atom_site_fract_z
Si Si1 0.198899 0.500000 0.855561
Si Si2 0.211917 0.686674 0.351898
Si Si3 0.583667 0.376846 0.221851
Si Si4 0.586340 0.317129 0.500000
Si Si5 0.353532 0.619502 0.366615
Si Si6 0.322009 0.210484 0.500000
Si Si7 0.646114 0.500000 0.198870
O O1 0.161533 0.445369 0.893738
O O2 0.288851 0.500000 0.859317
O O3 0.179019 0.500000 0.775153
O O4 0.250000 0.750000 0.340819
O O5 0.141104 0.673381 0.303125
O O6 0.275826 0.641018 0.333516
O O7 0.181962 0.673714 0.429722
O O8 0.500000 0.358366 0.200407
O O9 0.585954 0.379350 0.305488
O O10 0.599170 0.440579 0.189080
O O11 0.500000 0.331257 0.500000
O O12 0.622741 0.342062 0.431006
O O13 0.602376 0.248632 0.500000
O O14 0.250000 0.250000 0.500000
#
# Coordination Sequence:
#
# PCOD8285112 Si02
#       7
#    16  32  32  16  32  16  16
#     4   9  18  33  63  90 111 156 204 240 282 363
#     4  11  21  40  64  86 116 160 208 247 291 359
#     4  11  23  37  60  95 127 155 197 255 310 352
#     4  12  24  41  63  86 121 161 197 250 311 358
#     4  11  21  40  61  88 123 159 203 242 295 366
#     4  10  20  42  62  84 109 158 210 242 288 360
#     4   9  17  36  60  88 120 158 197 240 297 361
#
# _framework density 20.030180000000001
#
# number of rings (size 3 to 8) (size 9 to 14) (size 15 to 20)
#    0.000    1.400    6.000    1.500    0.000    2.800 
#    0.000    3.000    0.000    0.600    0.000    1.400 
#    0.000    0.000    0.000    0.000    0.000    0.000 
#
# Total GULP energy -495795.146476 kJ/mol
# GULP energy per Si atom -12394.878662 kJ/mol
# Density = 1.998459 g / cm^3
# Si number density = 20.030180 Si / 1000 Ang^3
#
#
#
# Elastic Constant Matrix: (Units=GPa)
#
#
# Indices 1 2 3 4 5 6 
#
# 1 131.1979 32.1792 24.3329 0.0000 0.0000 0.0000
# 2 32.1792 88.9363 8.0882 0.0000 0.0000 0.0000
# 3 24.3329 8.0882 65.3654 0.0000 0.0000 0.0000
# 4 0.0000 0.0000 0.0000 0.9242 0.0000 0.0000
# 5 0.0000 0.0000 0.0000 0.0000 18.3376 0.0000
# 6 0.0000 0.0000 0.0000 0.0000 0.0000 24.7492
#
#
#
# Elastic Compliance Matrix: (Units=1/GPa)
#
#
# Indices 1 2 3 4 5 6 
#
# 1 0.008892 -0.002949 -0.002945 0.000000 0.000000 0.000000
# 2 -0.002949 0.012350 -0.000430 0.000000 0.000000 0.000000
# 3 -0.002945 -0.000430 0.016448 0.000000 0.000000 0.000000
# 4 0.000000 0.000000 0.000000 1.082011 0.000000 0.000000
# 5 0.000000 0.000000 0.000000 0.000000 0.054533 0.000000
# 6 0.000000 0.000000 0.000000 0.000000 0.000000 0.040405
#
#
# Mechanical properties :
#
#
# Convention : Reuss Voigt Hill
#
# Bulk Modulus (GPa) = 39.93495 46.07782 43.00638
# Shear Modulus (GPa) = 4.04650 23.52882 13.78766
#
# Velocity S-wave (km/s) = 1.42288 3.43106 2.62648
# Velocity P-wave (km/s) = 4.76236 6.22498 5.54213
#
# Compressibility (1/GPa) = 0.02504072
#
# Stress axis : x y z
#
# Youngs Moduli (GPa) = 112.46454 80.96980 60.79693
#
# Poissons Ratio (x) = 0.23881 0.17905
# Poissons Ratio (y) = 0.33170 0.02616
# Poissons Ratio (z) = 0.33122 0.03484
#
# Static dielectric constant tensor:
#      x y z
#    x 3.658990 0.000000 0.000000 
#    y 0.000000 3.822030 0.000000 
#    z 0.000000 0.000000 3.758860 
# 
# 
# High freq. dielectric constant tensor:
#      x y z
#    x 1.776210 0.000000 0.000000 
#    y 0.000000 1.778380 0.000000 
#    z 0.000000 0.000000 1.764050 
# 
# From -- ./inp_files/31073.got.cif
#   From: 2010.03.12/outbox.cif.g09.slc.cpg/sg69_16_cif.got.tgz:31073.got - 2010.04.10 23:52:46.
