data_PCOD8285039
_publ_section_title
;
Structure prediction by ZEFSAII (Michael W. Deem and Ramdas Pophale) SiO2 
 PCOD8285039
Probable space group: F M M M
;
_chemical_formula_sum "Si O2"
_cell_formula_units_Z 144
_cell_length_a 17.120658
_cell_length_b 22.816264
_cell_length_c 18.789273
_cell_angle_alpha 90.000000
_cell_angle_beta 90.000000
_cell_angle_gamma 90.000000
_cell_volume 7339.643430
_symmetry_space_group_name_H-M "F M M M"
_symmetry_group_IT_number 69
_symmetry_cell_setting 'orthorhombic'
loop_
_space_group_symop_operation_xyz
x,y,z
-x,-y,z
x,-y,-z
-x,y,-z
-x,-y,-z
x,y,-z
-x,y,z
x,-y,z
x,1/2+y,1/2+z
-x,1/2-y,1/2+z
x,1/2-y,1/2-z
-x,1/2+y,1/2-z
-x,1/2-y,1/2-z
x,1/2+y,1/2-z
-x,1/2+y,1/2+z
x,1/2-y,1/2+z
1/2+x,y,1/2+z
1/2-x,-y,1/2+z
1/2+x,-y,1/2-z
1/2-x,y,1/2-z
1/2-x,-y,1/2-z
1/2+x,y,1/2-z
1/2-x,y,1/2+z
1/2+x,-y,1/2+z
1/2+x,1/2+y,z
1/2-x,1/2-y,z
1/2+x,1/2-y,-z
1/2-x,1/2+y,-z
1/2-x,1/2-y,-z
1/2+x,1/2+y,-z
1/2-x,1/2+y,z
1/2+x,1/2-y,z
loop_
_atom_site_type_symbol
_atom_site_label
_atom_site_fract_x
_atom_site_fract_y
_atom_site_fract_z
Si Si1 0.590605 0.774507 0.145414
Si Si2 0.092046 0.662100 0.000000
Si Si3 0.334240 0.068002 0.365855
Si Si4 0.500000 0.431050 0.077124
Si Si5 0.774971 0.567809 0.000000
Si Si6 0.831741 0.825533 0.225434
O O1 0.500000 0.759360 0.146831
O O2 0.609161 0.822071 0.207424
O O3 0.636786 0.714105 0.160133
O O4 0.614776 0.800002 0.068972
O O5 0.144602 0.603745 0.000000
O O6 0.000000 0.644498 0.000000
O O7 0.422507 0.087864 0.382263
O O8 0.277242 0.082574 0.431218
O O9 0.314275 0.107821 0.298199
O O10 0.328458 0.000000 0.344174
O O11 0.500000 0.500000 0.065918
O O12 0.500000 0.400241 0.000000
O O13 0.799174 0.500000 0.000000
O O14 0.750000 0.798284 0.250000
#
# Coordination Sequence:
#
# PCOD8285039 Si02
#       6
#    32  16  32  16  16  32
#     4  10  22  40  60  82 113 150 190 240 290 336
#     4  10  22  42  64  86 112 147 196 245 283 339
#     4  10  21  35  57  88 121 156 192 237 286 342
#     4   9  16  32  54  81 118 153 189 232 281 337
#     4  10  20  37  59  87 120 155 190 232 291 342
#     4  11  22  37  58  85 116 153 189 231 289 346
#
# _framework density 19.619481
#
# number of rings (size 3 to 8) (size 9 to 14) (size 15 to 20)
#    0.000    1.889    1.111    4.000    3.111    1.556 
#    0.000    4.444    0.000    1.333    0.000    0.000 
#    0.000    0.000    0.000    0.000    0.000    0.000 
#
# Total GULP energy -446258.558114 kJ/mol
# GULP energy per Si atom -12396.071059 kJ/mol
# Density = 1.957483 g / cm^3
# Si number density = 19.619481 Si / 1000 Ang^3
#
#
#
# Elastic Constant Matrix: (Units=GPa)
#
#
# Indices 1 2 3 4 5 6 
#
# 1 114.8050 50.2733 35.2701 0.0000 0.0000 0.0000
# 2 50.2733 115.7543 71.6334 0.0000 0.0000 0.0000
# 3 35.2701 71.6334 118.2811 0.0000 0.0000 0.0000
# 4 0.0000 0.0000 0.0000 28.0201 0.0000 0.0000
# 5 0.0000 0.0000 0.0000 0.0000 20.6377 0.0000
# 6 0.0000 0.0000 0.0000 0.0000 0.0000 30.8649
#
#
#
# Elastic Compliance Matrix: (Units=1/GPa)
#
#
# Indices 1 2 3 4 5 6 
#
# 1 0.010783 -0.004308 -0.000606 0.000000 0.000000 0.000000
# 2 -0.004308 0.015539 -0.008126 0.000000 0.000000 0.000000
# 3 -0.000606 -0.008126 0.013556 0.000000 0.000000 0.000000
# 4 0.000000 0.000000 0.000000 0.035689 0.000000 0.000000
# 5 0.000000 0.000000 0.000000 0.000000 0.048455 0.000000
# 6 0.000000 0.000000 0.000000 0.000000 0.000000 0.032399
#
#
# Mechanical properties :
#
#
# Convention : Reuss Voigt Hill
#
# Bulk Modulus (GPa) = 72.47599 73.68820 73.08210
# Shear Modulus (GPa) = 26.72351 28.68210 27.70281
#
# Velocity S-wave (km/s) = 3.69465 3.82765 3.76174
# Velocity P-wave (km/s) = 7.43113 7.56140 7.49655
#
# Compressibility (1/GPa) = 0.01379767
#
# Stress axis : x y z
#
# Youngs Moduli (GPa) = 92.73692 64.35574 73.76541
#
# Poissons Ratio (x) = 0.27724 0.04473
# Poissons Ratio (y) = 0.39951 0.59941
# Poissons Ratio (z) = 0.05624 0.52295
#
# Static dielectric constant tensor:
#      x y z
#    x 3.767000 0.000000 0.000000 
#    y 0.000000 3.343660 0.000000 
#    z 0.000000 0.000000 2.171890 
# 
# 
# High freq. dielectric constant tensor:
#      x y z
#    x 1.776790 0.000000 0.000000 
#    y 0.000000 1.754270 0.000000 
#    z 0.000000 0.000000 1.761790 
# 
# From -- ./inp_files/23064.got.cif
#   From: 2010.03.12/outbox.cif.g09.slc.cpg/sg69_12_cif.got.tgz:23064.got - 2010.04.10 23:52:46.
