data_PCOD8285514
_publ_section_title
;
Structure prediction by ZEFSAII (Michael W. Deem and Ramdas Pophale) SiO2 
 PCOD8285514
Probable space group: F M M M
;
_chemical_formula_sum "Si O2"
_cell_formula_units_Z 176
_cell_length_a 28.366080
_cell_length_b 18.744756
_cell_length_c 17.346650
_cell_angle_alpha 90.000000
_cell_angle_beta 90.000000
_cell_angle_gamma 90.000000
_cell_volume 9223.478312
_symmetry_space_group_name_H-M "F M M M"
_symmetry_group_IT_number 69
_symmetry_cell_setting 'orthorhombic'
loop_
_space_group_symop_operation_xyz
x,y,z
-x,-y,z
x,-y,-z
-x,y,-z
-x,-y,-z
x,y,-z
-x,y,z
x,-y,z
x,1/2+y,1/2+z
-x,1/2-y,1/2+z
x,1/2-y,1/2-z
-x,1/2+y,1/2-z
-x,1/2-y,1/2-z
x,1/2+y,1/2-z
-x,1/2+y,1/2+z
x,1/2-y,1/2+z
1/2+x,y,1/2+z
1/2-x,-y,1/2+z
1/2+x,-y,1/2-z
1/2-x,y,1/2-z
1/2-x,-y,1/2-z
1/2+x,y,1/2-z
1/2-x,y,1/2+z
1/2+x,-y,1/2+z
1/2+x,1/2+y,z
1/2-x,1/2-y,z
1/2+x,1/2-y,-z
1/2-x,1/2+y,-z
1/2-x,1/2-y,-z
1/2+x,1/2+y,-z
1/2-x,1/2+y,z
1/2+x,1/2-y,z
loop_
_atom_site_type_symbol
_atom_site_label
_atom_site_fract_x
_atom_site_fract_y
_atom_site_fract_z
Si Si1 0.948010 0.332579 0.269599
Si Si2 0.944355 0.919097 0.500000
Si Si3 0.887431 0.176297 0.910373
Si Si4 0.799950 0.417716 0.163571
Si Si5 0.111510 0.841151 0.626929
Si Si6 0.805866 0.583206 0.658818
O O1 0.953343 0.250000 0.250000
O O2 0.930689 0.349819 0.356613
O O3 0.908028 0.361477 0.211806
O O4 0.000000 0.368230 0.259702
O O5 0.927457 0.875482 0.426815
O O6 0.000000 0.919264 0.500000
O O7 0.924687 0.000000 0.500000
O O8 0.879981 0.258604 0.890037
O O9 0.840296 0.132052 0.891567
O O10 0.900696 0.165654 0.000000
O O11 0.811923 0.500000 0.156192
O O12 0.837453 0.375326 0.112342
O O13 0.806593 0.393914 0.252059
O O14 0.747731 0.402495 0.130800
O O15 0.819365 0.500000 0.647898
#
# Coordination Sequence:
#
# PCOD8285514 Si02
#       6
#    32  16  32  32  32  32
#     4   9  19  35  57  83 111 148 192 237 286 346
#     4  11  24  40  60  89 125 159 189 236 299 354
#     4  11  22  37  56  85 120 155 195 241 296 345
#     4   9  18  35  62  86 111 149 192 240 291 348
#     4  11  20  38  59  87 119 149 192 241 292 359
#     4   9  19  37  59  85 112 149 198 239 286 347
#
# _framework density 19.081738000000001
#
# number of rings (size 3 to 8) (size 9 to 14) (size 15 to 20)
#    0.000    2.091    2.727    2.182    0.000    2.182 
#    1.636    2.727    0.000    1.636    0.000    1.273 
#    0.000    0.000    0.000    0.000    0.000    0.000 
#
# Total GULP energy -545369.473072 kJ/mol
# GULP energy per Si atom -12394.760752 kJ/mol
# Density = 1.903831 g / cm^3
# Si number density = 19.081738 Si / 1000 Ang^3
#
#
#
# Elastic Constant Matrix: (Units=GPa)
#
#
# Indices 1 2 3 4 5 6 
#
# 1 121.1208 46.1011 42.1519 0.0000 0.0000 0.0000
# 2 46.1011 69.4314 28.2057 0.0000 0.0000 0.0000
# 3 42.1519 28.2057 110.7222 0.0000 0.0000 0.0000
# 4 0.0000 0.0000 0.0000 24.7452 0.0000 0.0000
# 5 0.0000 0.0000 0.0000 0.0000 25.8109 0.0000
# 6 0.0000 0.0000 0.0000 0.0000 0.0000 28.2978
#
#
#
# Elastic Compliance Matrix: (Units=1/GPa)
#
#
# Indices 1 2 3 4 5 6 
#
# 1 0.011767 -0.006685 -0.002777 0.000000 0.000000 0.000000
# 2 -0.006685 0.019863 -0.002515 0.000000 0.000000 0.000000
# 3 -0.002777 -0.002515 0.010729 0.000000 0.000000 0.000000
# 4 0.000000 0.000000 0.000000 0.040412 0.000000 0.000000
# 5 0.000000 0.000000 0.000000 0.000000 0.038743 0.000000
# 6 0.000000 0.000000 0.000000 0.000000 0.000000 0.035338
#
#
# Mechanical properties :
#
#
# Convention : Reuss Voigt Hill
#
# Bulk Modulus (GPa) = 54.33016 59.35464 56.84240
# Shear Modulus (GPa) = 26.74623 28.09182 27.41902
#
# Velocity S-wave (km/s) = 3.74794 3.84107 3.79479
# Velocity P-wave (km/s) = 6.87485 7.13055 7.00387
#
# Compressibility (1/GPa) = 0.01840598
#
# Stress axis : x y z
#
# Youngs Moduli (GPa) = 84.98305 50.34447 93.20197
#
# Poissons Ratio (x) = 0.33656 0.25880
# Poissons Ratio (y) = 0.56812 0.23440
# Poissons Ratio (z) = 0.23598 0.12662
#
# Static dielectric constant tensor:
#      x y z
#    x 3.637090 0.000000 0.000000 
#    y 0.000000 3.349400 0.000000 
#    z 0.000000 0.000000 3.626630 
# 
# 
# High freq. dielectric constant tensor:
#      x y z
#    x 1.753630 0.000000 0.000000 
#    y 0.000000 1.722940 0.000000 
#    z 0.000000 0.000000 1.732210 
# 
# From -- ./inp_files/27661.got.cif
#   From: 2010.03.12/outbox.cif.g09.slc.cpg/sg69_14_cif.got.tgz:27661.got - 2010.04.10 23:52:46.
