data_PCOD8285613
_publ_section_title
;
Structure prediction by ZEFSAII (Michael W. Deem and Ramdas Pophale) SiO2 
 PCOD8285613
Probable space group: F M M M
;
_chemical_formula_sum "Si O2"
_cell_formula_units_Z 120
_cell_length_a 13.913686
_cell_length_b 29.229865
_cell_length_c 14.027895
_cell_angle_alpha 90.000000
_cell_angle_beta 90.000000
_cell_angle_gamma 90.000000
_cell_volume 5705.077050
_symmetry_space_group_name_H-M "F M M M"
_symmetry_group_IT_number 69
_symmetry_cell_setting 'orthorhombic'
loop_
_space_group_symop_operation_xyz
x,y,z
-x,-y,z
x,-y,-z
-x,y,-z
-x,-y,-z
x,y,-z
-x,y,z
x,-y,z
x,1/2+y,1/2+z
-x,1/2-y,1/2+z
x,1/2-y,1/2-z
-x,1/2+y,1/2-z
-x,1/2-y,1/2-z
x,1/2+y,1/2-z
-x,1/2+y,1/2+z
x,1/2-y,1/2+z
1/2+x,y,1/2+z
1/2-x,-y,1/2+z
1/2+x,-y,1/2-z
1/2-x,y,1/2-z
1/2-x,-y,1/2-z
1/2+x,y,1/2-z
1/2-x,y,1/2+z
1/2+x,-y,1/2+z
1/2+x,1/2+y,z
1/2-x,1/2-y,z
1/2+x,1/2-y,-z
1/2-x,1/2+y,-z
1/2-x,1/2-y,-z
1/2+x,1/2+y,-z
1/2-x,1/2+y,z
1/2+x,1/2-y,z
loop_
_atom_site_type_symbol
_atom_site_label
_atom_site_fract_x
_atom_site_fract_y
_atom_site_fract_z
Si Si1 0.500000 0.387946 0.500000
Si Si2 0.814825 0.821363 0.500000
Si Si3 0.355325 0.112050 0.710365
Si Si4 0.000000 0.946457 0.686914
Si Si5 0.612084 0.133990 0.500000
Si Si6 0.607941 0.792810 0.808603
O O1 0.398903 0.360202 0.500000
O O2 0.500000 0.420391 0.588766
O O3 0.700824 0.830955 0.500000
O O4 0.826764 0.794027 0.597688
O O5 0.250000 0.107963 0.750000
O O6 0.407304 0.068614 0.754653
O O7 0.369733 0.105398 0.596807
O O8 0.393931 0.161402 0.744448
O O9 0.000000 0.000000 0.668748
O O10 0.500000 0.152992 0.500000
O O11 0.500000 0.783080 0.843199
O O12 0.648686 0.750000 0.750000
#
# Coordination Sequence:
#
# PCOD8285613 Si02
#       6
#     8  16  32  16  16  32
#     4  12  19  44  76 110 144 184 246 308 389 432
#     4  12  20  42  72 104 146 197 246 309 358 439
#     4  12  23  45  68  99 145 192 245 301 363 436
#     4  12  25  43  72 107 143 186 243 310 377 443
#     4  12  24  41  72 102 139 205 249 289 369 444
#     4  11  22  39  68 103 143 187 236 300 368 432
#
# _framework density 21.033895999999999
#
# number of rings (size 3 to 8) (size 9 to 14) (size 15 to 20)
#    0.000    0.267    9.333    0.200    0.000    2.133 
#    0.000    4.000    0.000    0.800    0.000    0.000 
#    0.000    0.000    0.000    0.000    0.000    0.000 
#
# Total GULP energy -371661.879659 kJ/mol
# GULP energy per Si atom -12388.729322 kJ/mol
# Density = 2.098602 g / cm^3
# Si number density = 21.033896 Si / 1000 Ang^3
#
#
#
# Elastic Constant Matrix: (Units=GPa)
#
#
# Indices 1 2 3 4 5 6 
#
# 1 183.7814 44.3904 63.5318 0.0000 0.0000 0.0000
# 2 44.3904 102.8669 40.4988 0.0000 0.0000 0.0000
# 3 63.5318 40.4988 189.5365 0.0000 0.0000 0.0000
# 4 0.0000 0.0000 0.0000 -17.4651 0.0000 0.0000
# 5 0.0000 0.0000 0.0000 0.0000 38.7980 0.0000
# 6 0.0000 0.0000 0.0000 0.0000 0.0000 6.7084
#
#
#
# Elastic Compliance Matrix: (Units=1/GPa)
#
#
# Indices 1 2 3 4 5 6 
#
# 1 0.006561 -0.002146 -0.001741 0.000000 0.000000 0.000000
# 2 -0.002146 0.011316 -0.001699 0.000000 0.000000 0.000000
# 3 -0.001741 -0.001699 0.006222 0.000000 0.000000 0.000000
# 4 0.000000 0.000000 0.000000 -0.057257 0.000000 0.000000
# 5 0.000000 0.000000 0.000000 0.000000 0.025774 0.000000
# 6 0.000000 0.000000 0.000000 0.000000 0.000000 0.149066
#
#
# Mechanical properties :
#
#
# Convention : Reuss Voigt Hill
#
# Bulk Modulus (GPa) = 77.34518 85.89189 81.61854
# Shear Modulus (GPa) = 31.81381 27.45919 29.63650
#
# Velocity S-wave (km/s) = 3.89331 3.61705 3.75772
# Velocity P-wave (km/s) = 7.55394 7.63988 7.59703
#
# Compressibility (1/GPa) = 0.01292905
#
# Stress axis : x y z
#
# Youngs Moduli (GPa) = 152.40664 88.36928 160.70774
#
# Poissons Ratio (x) = 0.18965 0.27976
# Poissons Ratio (y) = 0.32708 0.27298
# Poissons Ratio (z) = 0.26531 0.15010
#
# Static dielectric constant tensor:
#      x y z
#    x 4.160230 0.000000 0.000000 
#    y 0.000000 3.518900 0.000000 
#    z 0.000000 0.000000 4.537830 
# 
# 
# High freq. dielectric constant tensor:
#      x y z
#    x 1.853110 0.000000 0.000000 
#    y 0.000000 1.775980 0.000000 
#    z 0.000000 0.000000 1.854210 
# 
# From -- ./inp_files/14477.got.cif
#   From: 2010.03.12/outbox.cif.g09.slc.cpg/sg69_8_cif.got.tgz:14477.got - 2010.04.10 23:52:46.
