data_PCOD8285704
_publ_section_title
;
Structure prediction by ZEFSAII (Michael W. Deem and Ramdas Pophale) SiO2 
 PCOD8285704
Probable space group: F M M M
;
_chemical_formula_sum "Si O2"
_cell_formula_units_Z 144
_cell_length_a 29.072780
_cell_length_b 14.114392
_cell_length_c 17.787412
_cell_angle_alpha 90.000000
_cell_angle_beta 90.000000
_cell_angle_gamma 90.000000
_cell_volume 7298.968701
_symmetry_space_group_name_H-M "F M M M"
_symmetry_group_IT_number 69
_symmetry_cell_setting 'orthorhombic'
loop_
_space_group_symop_operation_xyz
x,y,z
-x,-y,z
x,-y,-z
-x,y,-z
-x,-y,-z
x,y,-z
-x,y,z
x,-y,z
x,1/2+y,1/2+z
-x,1/2-y,1/2+z
x,1/2-y,1/2-z
-x,1/2+y,1/2-z
-x,1/2-y,1/2-z
x,1/2+y,1/2-z
-x,1/2+y,1/2+z
x,1/2-y,1/2+z
1/2+x,y,1/2+z
1/2-x,-y,1/2+z
1/2+x,-y,1/2-z
1/2-x,y,1/2-z
1/2-x,-y,1/2-z
1/2+x,y,1/2-z
1/2-x,y,1/2+z
1/2+x,-y,1/2+z
1/2+x,1/2+y,z
1/2-x,1/2-y,z
1/2+x,1/2-y,-z
1/2-x,1/2+y,-z
1/2-x,1/2-y,-z
1/2+x,1/2+y,-z
1/2-x,1/2+y,z
1/2+x,1/2-y,z
loop_
_atom_site_type_symbol
_atom_site_label
_atom_site_fract_x
_atom_site_fract_y
_atom_site_fract_z
Si Si1 0.734286 0.612415 0.168411
Si Si2 0.822403 0.893578 0.588562
Si Si3 0.000000 0.109665 0.410152
Si Si4 0.910081 0.713378 0.911989
Si Si5 0.642258 0.391877 0.087654
O O1 0.732228 0.500000 0.165803
O O2 0.750000 0.650068 0.250000
O O3 0.774185 0.652304 0.114028
O O4 0.684500 0.647056 0.138764
O O5 0.824222 0.890763 0.500000
O O6 0.865653 0.838221 0.623317
O O7 0.825989 0.000000 0.620113
O O8 0.956188 0.167599 0.376847
O O9 0.000000 0.110929 0.500000
O O10 0.000000 0.000000 0.382063
O O11 0.902648 0.825943 0.896083
O O12 0.912468 0.693146 0.000000
O O13 0.628757 0.500000 0.107004
O O14 0.657009 0.382359 0.000000
#
# Coordination Sequence:
#
# PCOD8285704 Si02
#       5
#    32  32  16  32  32
#     4   9  17  29  45  66  93 125 159 194 232 272
#     4   9  16  27  44  66  92 121 152 187 229 278
#     4   9  16  28  47  71  98 121 144 188 246 289
#     4   9  17  28  44  67  92 119 152 188 232 284
#     4   9  17  30  46  64  91 127 162 195 231 273
#
# _framework density 19.728815000000001
#
# number of rings (size 3 to 8) (size 9 to 14) (size 15 to 20)
#    0.000    3.000    0.000    1.333    0.000    6.222 
#    0.000    6.111    0.000    3.333    0.000    3.111 
#    0.000    7.111    0.000    0.000    0.000    0.000 
#
# Total GULP energy -446004.662536 kJ/mol
# GULP energy per Si atom -12389.018404 kJ/mol
# Density = 1.968391 g / cm^3
# Si number density = 19.728815 Si / 1000 Ang^3
#
#
#
# Elastic Constant Matrix: (Units=GPa)
#
#
# Indices 1 2 3 4 5 6 
#
# 1 151.3993 80.4242 19.4456 0.0000 0.0000 0.0000
# 2 80.4242 108.9445 17.8118 0.0000 0.0000 0.0000
# 3 19.4456 17.8118 25.5884 0.0000 0.0000 0.0000
# 4 0.0000 0.0000 0.0000 3.6641 0.0000 0.0000
# 5 0.0000 0.0000 0.0000 0.0000 8.1314 0.0000
# 6 0.0000 0.0000 0.0000 0.0000 0.0000 35.9055
#
#
#
# Elastic Compliance Matrix: (Units=1/GPa)
#
#
# Indices 1 2 3 4 5 6 
#
# 1 0.011077 -0.007674 -0.003076 0.000000 0.000000 0.000000
# 2 -0.007674 0.015674 -0.005079 0.000000 0.000000 0.000000
# 3 -0.003076 -0.005079 0.044953 0.000000 0.000000 0.000000
# 4 0.000000 0.000000 0.000000 0.272922 0.000000 0.000000
# 5 0.000000 0.000000 0.000000 0.000000 0.122980 0.000000
# 6 0.000000 0.000000 0.000000 0.000000 0.000000 0.027851
#
#
# Mechanical properties :
#
#
# Convention : Reuss Voigt Hill
#
# Bulk Modulus (GPa) = 24.97096 57.92170 41.44633
# Shear Modulus (GPa) = 9.25133 20.75691 15.00412
#
# Velocity S-wave (km/s) = 2.16782 3.24715 2.76074
# Velocity P-wave (km/s) = 4.35322 6.59403 5.58712
#
# Compressibility (1/GPa) = 0.04004652
#
# Stress axis : x y z
#
# Youngs Moduli (GPa) = 90.28075 63.79817 22.24544
#
# Poissons Ratio (x) = 0.48959 0.06842
# Poissons Ratio (y) = 0.69281 0.11299
# Poissons Ratio (z) = 0.27767 0.32404
#
# Static dielectric constant tensor:
#      x y z
#    x 3.789880 0.000000 0.000000 
#    y 0.000000 3.750130 0.000000 
#    z 0.000000 0.000000 3.182710 
# 
# 
# High freq. dielectric constant tensor:
#      x y z
#    x 1.756650 0.000000 0.000000 
#    y 0.000000 1.779160 0.000000 
#    z 0.000000 0.000000 1.713000 
# 
# From -- ./inp_files/15525.got.cif
#   From: 2010.03.12/outbox.cif.g09.slc.cpg/sg69_8_cif.got.tgz:15525.got - 2010.04.10 23:52:46.
