data_PCOD8285714
_publ_section_title
;
Structure prediction by ZEFSAII (Michael W. Deem and Ramdas Pophale) SiO2 
 PCOD8285714
Probable space group: F M M M
;
_chemical_formula_sum "Si O2"
_cell_formula_units_Z 36
_cell_length_a 30.000000
_cell_length_b 30.000000
_cell_length_c 9.000000
_cell_angle_alpha 90.000000
_cell_angle_beta 90.000000
_cell_angle_gamma 90.000000
_cell_volume 8100.000000
_symmetry_space_group_name_H-M "F M M M"
_symmetry_group_IT_number 69
_symmetry_cell_setting 'orthorhombic'
loop_
_space_group_symop_operation_xyz
x,y,z
-x,-y,z
x,-y,-z
-x,y,-z
-x,-y,-z
x,y,-z
-x,y,z
x,-y,z
x,1/2+y,1/2+z
-x,1/2-y,1/2+z
x,1/2-y,1/2-z
-x,1/2+y,1/2-z
-x,1/2-y,1/2-z
x,1/2+y,1/2-z
-x,1/2+y,1/2+z
x,1/2-y,1/2+z
1/2+x,y,1/2+z
1/2-x,-y,1/2+z
1/2+x,-y,1/2-z
1/2-x,y,1/2-z
1/2-x,-y,1/2-z
1/2+x,y,1/2-z
1/2-x,y,1/2+z
1/2+x,-y,1/2+z
1/2+x,1/2+y,z
1/2-x,1/2-y,z
1/2+x,1/2-y,-z
1/2-x,1/2+y,-z
1/2-x,1/2-y,-z
1/2+x,1/2+y,-z
1/2-x,1/2+y,z
1/2+x,1/2-y,z
loop_
_atom_site_type_symbol
_atom_site_label
_atom_site_fract_x
_atom_site_fract_y
_atom_site_fract_z
Si Si1 0.000000 0.704737 0.831594
Si Si2 0.097680 0.299729 0.822967
Si Si3 0.551869 0.448322 0.327641
Si Si4 0.202437 0.051623 0.324647
Si Si5 0.125555 0.610805 0.321393
O O1 0.000000 0.750000 0.750000
O O2 0.047073 0.680897 0.794979
O O3 0.000000 0.718939 0.000000
O O4 0.104965 0.250000 0.750000
O O5 0.127161 0.338325 0.744297
O O6 0.108347 0.296572 0.000000
O O7 0.563878 0.439398 0.500000
O O8 0.500000 0.437450 0.298770
O O9 0.561865 0.500000 0.288202
O O10 0.580954 0.415706 0.225499
O O11 0.204693 0.062496 0.500000
O O12 0.250000 0.061038 0.250000
O O13 0.167285 0.083887 0.244928
O O14 0.188336 0.000000 0.299581
O O15 0.128485 0.613102 0.500000
#
# Coordination Sequence:
#
# PCOD8285714 Si02
#       5
#    16  32  32  32  32
#     4   8  16  30  50  72  97 134 179 228 278 325
#     4  10  20  36  55  78 108 146 190 238 287 334
#     4   9  19  36  55  75 105 147 191 233 279 332
#     4  10  21  39  63  89 116 146 182 229 284 338
#     4  12  24  35  53  83 115 150 189 230 277 335
#
# _framework density 4.4444439999999998
#
# number of rings (size 3 to 8) (size 9 to 14) (size 15 to 20)
#    0.000    2.000    0.000    4.667    1.556    5.778 
#    0.000    1.111    0.000    0.667    0.000    4.667 
#    0.000    0.000    0.000    0.000    0.000    0.000 
#
# Total GULP energy -446084.456161 kJ/mol
# GULP energy per Si atom -12391.234893 kJ/mol
# Density = 0.443433 g / cm^3
# Si number density = 4.444444 Si / 1000 Ang^3
#
#
#
# Elastic Constant Matrix: (Units=GPa)
#
#
# Indices 1 2 3 4 5 6 
#
# 1 98.4298 62.1840 54.4459 -0.0080 0.0035 -0.0010
# 2 62.1840 138.1371 70.1595 -0.0092 0.0060 0.0072
# 3 54.4459 70.1595 151.2229 -0.0156 -0.0007 0.0108
# 4 -0.0080 -0.0092 -0.0156 38.1674 0.0024 0.0102
# 5 0.0035 0.0060 -0.0007 0.0024 33.9930 0.0046
# 6 -0.0010 0.0072 0.0108 0.0102 0.0046 29.9424
#
#
#
# Elastic Compliance Matrix: (Units=1/GPa)
#
#
# Indices 1 2 3 4 5 6 
#
# 1 0.015171 -0.005305 -0.003001 0.000001 -0.000001 0.000003
# 2 -0.005305 0.011326 -0.003345 0.000000 -0.000002 -0.000002
# 3 -0.003001 -0.003345 0.009245 0.000002 0.000001 -0.000003
# 4 0.000001 0.000000 0.000002 0.026200 -0.000002 -0.000009
# 5 -0.000001 -0.000002 0.000001 -0.000002 0.029418 -0.000004
# 6 0.000003 -0.000002 -0.000003 -0.000009 -0.000004 0.033397
#
#
# Mechanical properties :
#
#
# Convention : Reuss Voigt Hill
#
# Bulk Modulus (GPa) = 80.38158 84.59651 82.48905
# Shear Modulus (GPa) = 32.85019 33.82059 33.33539
#
# Velocity S-wave (km/s) = 4.30329 4.36639 4.33496
# Velocity P-wave (km/s) = 8.36683 8.55040 8.45912
#
# Compressibility (1/GPa) = 0.01244066
#
# Stress axis : x y z
#
# Youngs Moduli (GPa) = 65.91491 88.29101 108.16810
#
# Poissons Ratio (x) = 0.46842 0.32458
# Poissons Ratio (y) = 0.34970 0.36178
# Poissons Ratio (z) = 0.19779 0.29530
#
# Static dielectric constant tensor:
#      x y z
#    x 3.361350 0.000020 0.000030 
#    y 0.000020 3.466610 -0.000050 
#    z 0.000030 -0.000050 3.536690 
# 
# 
# High freq. dielectric constant tensor:
#      x y z
#    x 1.683130 0.000000 0.000000 
#    y 0.000000 1.702500 0.000000 
#    z 0.000000 0.000000 1.709650 
# 
# From -- ./inp_files/5586.got.cif
#   From: 2010.03.12/outbox.ucp.g09.slc.cvg/sg69_3_cif.got.tgz:5586.got - 2010.05.04 19:54:48.
