data_PCOD8285542
_publ_section_title
;
Structure prediction by ZEFSAII (Michael W. Deem and Ramdas Pophale) SiO2 
 PCOD8285542
Probable space group: F M M M
;
_chemical_formula_sum "Si O2"
_cell_formula_units_Z 176
_cell_length_a 18.008114
_cell_length_b 19.689665
_cell_length_c 25.493834
_cell_angle_alpha 90.000000
_cell_angle_beta 90.000000
_cell_angle_gamma 90.000000
_cell_volume 9039.443863
_symmetry_space_group_name_H-M "F M M M"
_symmetry_group_IT_number 69
_symmetry_cell_setting 'orthorhombic'
loop_
_space_group_symop_operation_xyz
x,y,z
-x,-y,z
x,-y,-z
-x,y,-z
-x,-y,-z
x,y,-z
-x,y,z
x,-y,z
x,1/2+y,1/2+z
-x,1/2-y,1/2+z
x,1/2-y,1/2-z
-x,1/2+y,1/2-z
-x,1/2-y,1/2-z
x,1/2+y,1/2-z
-x,1/2+y,1/2+z
x,1/2-y,1/2+z
1/2+x,y,1/2+z
1/2-x,-y,1/2+z
1/2+x,-y,1/2-z
1/2-x,y,1/2-z
1/2-x,-y,1/2-z
1/2+x,y,1/2-z
1/2-x,y,1/2+z
1/2+x,-y,1/2+z
1/2+x,1/2+y,z
1/2-x,1/2-y,z
1/2+x,1/2-y,-z
1/2-x,1/2+y,-z
1/2-x,1/2-y,-z
1/2+x,1/2+y,-z
1/2-x,1/2+y,z
1/2+x,1/2-y,z
loop_
_atom_site_type_symbol
_atom_site_label
_atom_site_fract_x
_atom_site_fract_y
_atom_site_fract_z
Si Si1 0.325344 0.578527 0.400590
Si Si2 0.418171 0.579638 0.696275
Si Si3 0.587263 0.078999 0.686292
Si Si4 0.336389 0.733378 0.000000
Si Si5 0.664743 0.369669 0.090519
Si Si6 0.088052 0.623371 0.000000
Si Si7 0.420663 0.500000 0.058147
O O1 0.302328 0.500000 0.393311
O O2 0.363528 0.608778 0.348042
O O3 0.253500 0.624571 0.409894
O O4 0.381135 0.585160 0.449024
O O5 0.500000 0.613149 0.690458
O O6 0.426762 0.500000 0.687218
O O7 0.385438 0.593025 0.754386
O O8 0.500000 0.093128 0.682612
O O9 0.631607 0.132875 0.649796
O O10 0.605019 0.000000 0.669642
O O11 0.250000 0.750000 0.000000
O O12 0.356982 0.693477 0.946324
O O13 0.387745 0.798786 0.000000
O O14 0.629019 0.435207 0.065920
O O15 0.000000 0.617463 0.000000
O O16 0.500000 0.500000 0.091018
O O17 0.448397 0.500000 0.000000
#
# Coordination Sequence:
#
# PCOD8285542 Si02
#       7
#    32  32  32  16  32  16  16
#     4  11  21  35  61  90 119 152 188 240 296 348
#     4   8  16  31  51  81 123 159 184 223 285 349
#     4   9  17  31  53  86 126 156 182 227 286 352
#     4  12  26  45  59  76 116 158 195 247 290 338
#     4  12  21  35  60  85 117 156 191 234 293 345
#     4  12  27  43  61  84 110 151 204 247 288 345
#     4  11  22  34  54  89 122 148 184 236 295 360
#
# _framework density 19.470224000000002
#
# number of rings (size 3 to 8) (size 9 to 14) (size 15 to 20)
#    0.000    1.545    4.545    2.455    0.000    3.636 
#    0.000    2.727    0.000    1.091    0.000    3.818 
#    0.000    0.000    0.000    0.000    0.000    0.000 
#
# Total GULP energy -545360.245574 kJ/mol
# GULP energy per Si atom -12394.551036 kJ/mol
# Density = 1.942591 g / cm^3
# Si number density = 19.470224 Si / 1000 Ang^3
#
#
#
# Elastic Constant Matrix: (Units=GPa)
#
#
# Indices 1 2 3 4 5 6 
#
# 1 95.1043 2.8964 37.9193 0.0000 0.0000 0.0000
# 2 2.8964 40.5624 16.1213 0.0000 0.0000 0.0000
# 3 37.9193 16.1213 137.5526 0.0000 0.0000 0.0000
# 4 0.0000 0.0000 0.0000 5.1774 0.0000 0.0000
# 5 0.0000 0.0000 0.0000 0.0000 33.2314 0.0000
# 6 0.0000 0.0000 0.0000 0.0000 0.0000 21.4206
#
#
#
# Elastic Compliance Matrix: (Units=1/GPa)
#
#
# Indices 1 2 3 4 5 6 
#
# 1 0.011822 0.000473 -0.003314 0.000000 0.000000 0.000000
# 2 0.000473 0.025877 -0.003163 0.000000 0.000000 0.000000
# 3 -0.003314 -0.003163 0.008554 0.000000 0.000000 0.000000
# 4 0.000000 0.000000 0.000000 0.193149 0.000000 0.000000
# 5 0.000000 0.000000 0.000000 0.000000 0.030092 0.000000
# 6 0.000000 0.000000 0.000000 0.000000 0.000000 0.046684
#
#
# Mechanical properties :
#
#
# Convention : Reuss Voigt Hill
#
# Bulk Modulus (GPa) = 29.20214 43.01037 36.10626
# Shear Modulus (GPa) = 14.72315 26.38471 20.55393
#
# Velocity S-wave (km/s) = 2.75287 3.68520 3.25262
# Velocity P-wave (km/s) = 5.01351 6.34397 5.71757
#
# Compressibility (1/GPa) = 0.03424406
#
# Stress axis : x y z
#
# Youngs Moduli (GPa) = 84.58913 38.64463 116.89948
#
# Poissons Ratio (x) = -0.01828 0.38745
# Poissons Ratio (y) = -0.04002 0.36978
# Poissons Ratio (z) = 0.28036 0.12224
#
# Static dielectric constant tensor:
#      x y z
#    x 3.666670 0.000000 0.000000 
#    y 0.000000 3.130620 0.000000 
#    z 0.000000 0.000000 4.022430 
# 
# 
# High freq. dielectric constant tensor:
#      x y z
#    x 1.762800 0.000000 0.000000 
#    y 0.000000 1.705470 0.000000 
#    z 0.000000 0.000000 1.782130 
# 
# From -- ./inp_files/41901.got.cif
#   From: 2010.03.12/outbox.cif.g09.slc.cpg/sg69_21_cif.got.tgz:41901.got - 2010.04.10 23:52:46.
