data_PCOD8285846
_publ_section_title
;
Structure prediction by ZEFSAII (Michael W. Deem and Ramdas Pophale) SiO2 
 PCOD8285846
Probable space group: F D D D
;
_chemical_formula_sum "Si O2"
_cell_formula_units_Z 208
_cell_length_a 15.342001
_cell_length_b 28.959068
_cell_length_c 23.636193
_cell_angle_alpha 90.000000
_cell_angle_beta 90.000000
_cell_angle_gamma 90.000000
_cell_volume 10501.325375
_symmetry_space_group_name_H-M "F D D D"
_symmetry_group_IT_number 70
_space_group.IT_coordinate_system_code '2'
_symmetry_cell_setting 'orthorhombic'
loop_
_space_group_symop_operation_xyz
x,y,z
1/4-x,1/4-y,z
x,1/4-y,1/4-z
1/4-x,y,1/4-z
-x,-y,-z
3/4+x,3/4+y,-z
-x,3/4+y,3/4+z
3/4+x,-y,3/4+z
x,1/2+y,1/2+z
1/4-x,3/4-y,1/2+z
x,3/4-y,3/4-z
1/4-x,1/2+y,3/4-z
-x,1/2-y,1/2-z
3/4+x,1/4+y,1/2-z
-x,1/4+y,1/4+z
3/4+x,1/2-y,1/4+z
1/2+x,y,1/2+z
3/4-x,1/4-y,1/2+z
1/2+x,1/4-y,3/4-z
3/4-x,y,3/4-z
1/2-x,-y,1/2-z
1/4+x,3/4+y,1/2-z
1/2-x,3/4+y,1/4+z
1/4+x,-y,1/4+z
1/2+x,1/2+y,z
3/4-x,3/4-y,z
1/2+x,3/4-y,1/4-z
3/4-x,1/2+y,1/4-z
1/2-x,1/2-y,-z
1/4+x,1/4+y,-z
1/2-x,1/4+y,3/4+z
1/4+x,1/2-y,3/4+z
loop_
_atom_site_type_symbol
_atom_site_label
_atom_site_fract_x
_atom_site_fract_y
_atom_site_fract_z
Si Si1 0.119386 0.814246 0.316139
Si Si2 0.487891 0.006683 0.288989
Si Si3 0.682876 0.078782 0.226786
Si Si4 0.757050 0.625000 0.125000
Si Si5 0.875000 0.983478 0.375000
Si Si6 0.694975 0.751032 0.338431
Si Si7 0.625000 0.048795 0.625000
Si Si8 0.361810 0.321523 0.158887
O O1 0.173816 0.774330 0.283973
O O2 0.183249 0.857691 0.323433
O O3 0.089073 0.795892 0.377836
O O4 0.036129 0.833857 0.282756
O O5 0.446255 0.013990 0.227403
O O6 0.412548 0.982824 0.325476
O O7 0.515200 0.055754 0.318425
O O8 0.625000 0.125000 0.227274
O O9 0.638287 0.047496 0.180194
O O10 0.676224 0.057104 0.289541
O O11 0.700312 0.582363 0.149556
O O12 0.790361 0.013964 0.388209
O O13 0.633612 0.707233 0.352104
O O14 0.375000 0.375000 0.143478
#
# Coordination Sequence:
#
# PCOD8285846 Si02
#       8
#    32  32  32  16  16  32  16  32
#     4   9  21  32  57  87 119 151 198 251 297 363
#     4  10  20  41  61  85 114 164 206 249 303 367
#     4  10  20  32  54  84 125 157 188 239 301 353
#     4   9  18  38  57  88 116 140 203 266 302 333
#     4  10  19  30  55  86 107 155 190 229 284 361
#     4  10  21  35  58  83 121 154 200 235 303 367
#     4   9  20  40  67  80 115 161 204 261 302 341
#     4  10  22  39  56  83 125 160 197 254 303 366
#
# _framework density 19.807023999999998
#
# number of rings (size 3 to 8) (size 9 to 14) (size 15 to 20)
#    0.000    2.308    1.538    0.231    6.462    1.846 
#    5.538    7.692    0.000    0.000    0.000    0.000 
#    0.000    0.000    0.000    0.000    0.000    0.000 
#
# Total GULP energy -644301.857861 kJ/mol
# GULP energy per Si atom -12390.420343 kJ/mol
# Density = 1.976194 g / cm^3
# Si number density = 19.807024 Si / 1000 Ang^3
#
#
#
# Elastic Constant Matrix: (Units=GPa)
#
#
# Indices 1 2 3 4 5 6 
#
# 1 99.8096 26.3222 32.4238 0.0000 0.0000 0.0000
# 2 26.3222 72.9640 22.0416 0.0000 0.0000 0.0000
# 3 32.4238 22.0416 79.8631 0.0000 0.0000 0.0000
# 4 0.0000 0.0000 0.0000 19.2509 0.0000 0.0000
# 5 0.0000 0.0000 0.0000 0.0000 25.5042 0.0000
# 6 0.0000 0.0000 0.0000 0.0000 0.0000 17.2808
#
#
#
# Elastic Compliance Matrix: (Units=1/GPa)
#
#
# Indices 1 2 3 4 5 6 
#
# 1 0.012175 -0.003163 -0.004070 0.000000 0.000000 0.000000
# 2 -0.003163 0.015774 -0.003069 0.000000 0.000000 0.000000
# 3 -0.004070 -0.003069 0.015021 0.000000 0.000000 0.000000
# 4 0.000000 0.000000 0.000000 0.051946 0.000000 0.000000
# 5 0.000000 0.000000 0.000000 0.000000 0.039209 0.000000
# 6 0.000000 0.000000 0.000000 0.000000 0.000000 0.057868
#
#
# Mechanical properties :
#
#
# Convention : Reuss Voigt Hill
#
# Bulk Modulus (GPa) = 44.71200 46.02355 45.36778
# Shear Modulus (GPa) = 22.72188 23.86380 23.29284
#
# Velocity S-wave (km/s) = 3.39065 3.47481 3.43299
# Velocity P-wave (km/s) = 6.16048 6.27579 6.21840
#
# Compressibility (1/GPa) = 0.02236536
#
# Stress axis : x y z
#
# Youngs Moduli (GPa) = 82.13276 63.39706 66.57346
#
# Poissons Ratio (x) = 0.20051 0.27097
# Poissons Ratio (y) = 0.25977 0.20434
# Poissons Ratio (z) = 0.33430 0.19459
#
# Static dielectric constant tensor:
#      x y z
#    x 3.854950 0.000000 0.000000 
#    y 0.000000 3.530880 0.000000 
#    z 0.000000 0.000000 3.562460 
# 
# 
# High freq. dielectric constant tensor:
#      x y z
#    x 1.776230 0.000000 0.000000 
#    y 0.000000 1.761690 0.000000 
#    z 0.000000 0.000000 1.752790 
# 
# From -- ./inp_files/52434.got.cif
#   From: 2010.03.12/outbox.cif.g09.slc.cpg/sg70_27_cif.got.tgz:52434.got - 2010.04.16 13:46:32.
