data_PCOD8285522
_publ_section_title
;
Structure prediction by ZEFSAII (Michael W. Deem and Ramdas Pophale) SiO2 
 PCOD8285522
Probable space group: F M M M
;
_chemical_formula_sum "Si O2"
_cell_formula_units_Z 144
_cell_length_a 14.007357
_cell_length_b 16.946929
_cell_length_c 32.383219
_cell_angle_alpha 90.000000
_cell_angle_beta 90.000000
_cell_angle_gamma 90.000000
_cell_volume 7687.183078
_symmetry_space_group_name_H-M "F M M M"
_symmetry_group_IT_number 69
_symmetry_cell_setting 'orthorhombic'
loop_
_space_group_symop_operation_xyz
x,y,z
-x,-y,z
x,-y,-z
-x,y,-z
-x,-y,-z
x,y,-z
-x,y,z
x,-y,z
x,1/2+y,1/2+z
-x,1/2-y,1/2+z
x,1/2-y,1/2-z
-x,1/2+y,1/2-z
-x,1/2-y,1/2-z
x,1/2+y,1/2-z
-x,1/2+y,1/2+z
x,1/2-y,1/2+z
1/2+x,y,1/2+z
1/2-x,-y,1/2+z
1/2+x,-y,1/2-z
1/2-x,y,1/2-z
1/2-x,-y,1/2-z
1/2+x,y,1/2-z
1/2-x,y,1/2+z
1/2+x,-y,1/2+z
1/2+x,1/2+y,z
1/2-x,1/2-y,z
1/2+x,1/2-y,-z
1/2-x,1/2+y,-z
1/2-x,1/2-y,-z
1/2+x,1/2+y,-z
1/2-x,1/2+y,z
1/2+x,1/2-y,z
loop_
_atom_site_type_symbol
_atom_site_label
_atom_site_fract_x
_atom_site_fract_y
_atom_site_fract_z
Si Si1 0.112632 0.665027 0.583825
Si Si2 0.782790 0.590216 0.655929
Si Si3 0.893227 0.795499 0.209720
Si Si4 0.613947 0.090200 0.500000
Si Si5 0.605834 0.185413 0.131532
O O1 0.142892 0.603314 0.618998
O O2 0.154691 0.636893 0.539860
O O3 0.143938 0.754782 0.595586
O O4 0.000000 0.662062 0.582551
O O5 0.778041 0.500000 0.669120
O O6 0.817211 0.637195 0.696868
O O7 0.679481 0.614874 0.638087
O O8 0.854914 0.750000 0.250000
O O9 0.899540 0.733141 0.173482
O O10 0.000000 0.830990 0.217768
O O11 0.500000 0.090002 0.500000
O O12 0.651928 0.000000 0.500000
O O13 0.500000 0.151991 0.120626
#
# Coordination Sequence:
#
# PCOD8285522 Si02
#       5
#    32  32  32  16  32
#     4   9  17  31  52  76 103 135 167 203 255 317
#     4  11  21  32  51  77 103 132 169 216 261 301
#     4   9  18  34  55  75  98 129 161 199 250 309
#     4   9  16  26  45  78 114 136 157 207 272 318
#     4   9  19  35  51  68  96 136 177 210 246 300
#
# _framework density 18.732479000000001
#
# number of rings (size 3 to 8) (size 9 to 14) (size 15 to 20)
#    0.000    2.556    0.000    5.333    0.000    4.889 
#    0.000    4.444    0.000    4.000    0.000    0.000 
#    0.000    7.111    0.000    0.000    0.000    0.222 
#
# Total GULP energy -446181.643273 kJ/mol
# GULP energy per Si atom -12393.934535 kJ/mol
# Density = 1.868984 g / cm^3
# Si number density = 18.732479 Si / 1000 Ang^3
#
#
#
# Elastic Constant Matrix: (Units=GPa)
#
#
# Indices 1 2 3 4 5 6 
#
# 1 56.1017 38.3885 23.7699 0.0000 0.0000 0.0000
# 2 38.3885 98.4295 54.5320 0.0000 0.0000 0.0000
# 3 23.7699 54.5320 123.6276 0.0000 0.0000 0.0000
# 4 0.0000 0.0000 0.0000 24.7875 0.0000 0.0000
# 5 0.0000 0.0000 0.0000 0.0000 10.9577 0.0000
# 6 0.0000 0.0000 0.0000 0.0000 0.0000 22.2691
#
#
#
# Elastic Compliance Matrix: (Units=1/GPa)
#
#
# Indices 1 2 3 4 5 6 
#
# 1 0.024353 -0.009137 -0.000652 0.000000 0.000000 0.000000
# 2 -0.009137 0.016873 -0.005686 0.000000 0.000000 0.000000
# 3 -0.000652 -0.005686 0.010722 0.000000 0.000000 0.000000
# 4 0.000000 0.000000 0.000000 0.040343 0.000000 0.000000
# 5 0.000000 0.000000 0.000000 0.000000 0.091260 0.000000
# 6 0.000000 0.000000 0.000000 0.000000 0.000000 0.044905
#
#
# Mechanical properties :
#
#
# Convention : Reuss Voigt Hill
#
# Bulk Modulus (GPa) = 47.62186 56.83773 52.22980
# Shear Modulus (GPa) = 18.76834 22.36740 20.56787
#
# Velocity S-wave (km/s) = 3.16874 3.45924 3.31717
# Velocity P-wave (km/s) = 6.23419 6.80903 6.52794
#
# Compressibility (1/GPa) = 0.02099876
#
# Stress axis : x y z
#
# Youngs Moduli (GPa) = 41.06279 59.26602 93.26350
#
# Poissons Ratio (x) = 0.54149 0.06083
# Poissons Ratio (y) = 0.37517 0.53030
# Poissons Ratio (z) = 0.02678 0.33699
#
# Static dielectric constant tensor:
#      x y z
#    x 3.651160 0.000000 0.000000 
#    y 0.000000 3.312070 0.000000 
#    z 0.000000 0.000000 3.784130 
# 
# 
# High freq. dielectric constant tensor:
#      x y z
#    x 1.724670 0.000000 0.000000 
#    y 0.000000 1.695650 0.000000 
#    z 0.000000 0.000000 1.722290 
# 
# From -- ./inp_files/27385.got.cif
#   From: 2010.03.12/outbox.cif.g09.slc.cpg/sg69_14_cif.got.tgz:27385.got - 2010.04.10 23:52:46.
