data_PCOD8285802
_publ_section_title
;
Structure prediction by ZEFSAII (Michael W. Deem and Ramdas Pophale) SiO2 
 PCOD8285802
Probable space group: F D D D
;
_chemical_formula_sum "Si O2"
_cell_formula_units_Z 208
_cell_length_a 18.915563
_cell_length_b 33.827144
_cell_length_c 17.059503
_cell_angle_alpha 90.000000
_cell_angle_beta 90.000000
_cell_angle_gamma 90.000000
_cell_volume 10915.684607
_symmetry_space_group_name_H-M "F D D D"
_symmetry_group_IT_number 70
_space_group.IT_coordinate_system_code '2'
_symmetry_cell_setting 'orthorhombic'
loop_
_space_group_symop_operation_xyz
x,y,z
1/4-x,1/4-y,z
x,1/4-y,1/4-z
1/4-x,y,1/4-z
-x,-y,-z
3/4+x,3/4+y,-z
-x,3/4+y,3/4+z
3/4+x,-y,3/4+z
x,1/2+y,1/2+z
1/4-x,3/4-y,1/2+z
x,3/4-y,3/4-z
1/4-x,1/2+y,3/4-z
-x,1/2-y,1/2-z
3/4+x,1/4+y,1/2-z
-x,1/4+y,1/4+z
3/4+x,1/2-y,1/4+z
1/2+x,y,1/2+z
3/4-x,1/4-y,1/2+z
1/2+x,1/4-y,3/4-z
3/4-x,y,3/4-z
1/2-x,-y,1/2-z
1/4+x,3/4+y,1/2-z
1/2-x,3/4+y,1/4+z
1/4+x,-y,1/4+z
1/2+x,1/2+y,z
3/4-x,3/4-y,z
1/2+x,3/4-y,1/4-z
3/4-x,1/2+y,1/4-z
1/2-x,1/2-y,-z
1/4+x,1/4+y,-z
1/2-x,1/4+y,3/4+z
1/4+x,1/2-y,3/4+z
loop_
_atom_site_type_symbol
_atom_site_label
_atom_site_fract_x
_atom_site_fract_y
_atom_site_fract_z
Si Si1 0.336603 0.792593 0.487199
Si Si2 0.015872 0.241596 0.969240
Si Si3 0.028240 0.490814 0.386455
Si Si4 0.482702 0.090226 0.844946
Si Si5 0.089576 0.437583 0.845668
Si Si6 0.150229 0.889331 0.749498
Si Si7 0.625000 0.125000 0.463543
O O1 0.411160 0.771360 0.491903
O O2 0.297639 0.777996 0.408668
O O3 0.290646 0.781201 0.564772
O O4 0.345535 0.839864 0.482113
O O5 0.965283 0.250095 0.043892
O O6 0.025732 0.281258 0.918059
O O7 0.984756 0.207391 0.913656
O O8 0.085568 0.458691 0.411841
O O9 0.431605 0.106833 0.776576
O O10 0.561060 0.108437 0.839675
O O11 0.452786 0.100788 0.929341
O O12 0.086363 0.405166 0.777263
O O13 0.080796 0.419250 0.931181
#
# Coordination Sequence:
#
# PCOD8285802 Si02
#       7
#    32  32  32  32  32  32  16
#     4   9  20  32  51  82 113 151 186 227 286 348
#     4  10  20  35  55  84 114 150 191 241 290 351
#     4  10  18  35  54  78 118 151 189 232 283 354
#     4  10  21  38  59  86 118 152 200 243 300 357
#     4  10  21  36  59  83 114 153 196 244 294 346
#     4  10  21  39  60  86 115 155 200 246 293 361
#     4  10  20  36  55  87 114 150 188 244 298 337
#
# _framework density 19.055149
#
# number of rings (size 3 to 8) (size 9 to 14) (size 15 to 20)
#    0.000    2.154    1.538    1.385    2.154    0.615 
#    5.538    3.077    0.000    1.846    0.000    0.000 
#    0.000    0.000    0.000    0.000    0.000    0.000 
#
# Total GULP energy -644779.721689 kJ/mol
# GULP energy per Si atom -12399.610032 kJ/mol
# Density = 1.901178 g / cm^3
# Si number density = 19.055149 Si / 1000 Ang^3
#
#
#
# Elastic Constant Matrix: (Units=GPa)
#
#
# Indices 1 2 3 4 5 6 
#
# 1 64.0101 28.0857 32.5191 0.0000 0.0000 0.0000
# 2 28.0857 128.6996 52.4154 0.0000 0.0000 0.0000
# 3 32.5191 52.4154 115.7866 0.0000 0.0000 0.0000
# 4 0.0000 0.0000 0.0000 23.5819 0.0000 0.0000
# 5 0.0000 0.0000 0.0000 0.0000 23.2869 0.0000
# 6 0.0000 0.0000 0.0000 0.0000 0.0000 30.9960
#
#
#
# Elastic Compliance Matrix: (Units=1/GPa)
#
#
# Indices 1 2 3 4 5 6 
#
# 1 0.018806 -0.002394 -0.004198 0.000000 0.000000 0.000000
# 2 -0.002394 0.009831 -0.003778 0.000000 0.000000 0.000000
# 3 -0.004198 -0.003778 0.011526 0.000000 0.000000 0.000000
# 4 0.000000 0.000000 0.000000 0.042405 0.000000 0.000000
# 5 0.000000 0.000000 0.000000 0.000000 0.042943 0.000000
# 6 0.000000 0.000000 0.000000 0.000000 0.000000 0.032262
#
#
# Mechanical properties :
#
#
# Convention : Reuss Voigt Hill
#
# Bulk Modulus (GPa) = 51.48668 59.39296 55.43982
# Shear Modulus (GPa) = 27.02889 28.60470 27.81680
#
# Velocity S-wave (km/s) = 3.77033 3.87868 3.82488
# Velocity P-wave (km/s) = 6.78471 7.16209 6.97595
#
# Compressibility (1/GPa) = 0.01942250
#
# Stress axis : x y z
#
# Youngs Moduli (GPa) = 53.17546 101.71691 86.76170
#
# Poissons Ratio (x) = 0.24354 0.36421
# Poissons Ratio (y) = 0.12732 0.32779
# Poissons Ratio (z) = 0.22322 0.38429
#
# Static dielectric constant tensor:
#      x y z
#    x 3.426590 0.000000 0.000000 
#    y 0.000000 3.727460 0.000000 
#    z 0.000000 0.000000 3.345770 
# 
# 
# High freq. dielectric constant tensor:
#      x y z
#    x 1.729590 0.000000 0.000000 
#    y 0.000000 1.746460 0.000000 
#    z 0.000000 0.000000 1.734320 
# 
# From -- ./inp_files/36891.got.cif
#   From: 2010.03.12/outbox.cif.g09.slc.cpg/sg70_19_cif.got.tgz:36891.got - 2010.04.16 13:46:32.
