data_PCOD8285191
_publ_section_title
;
Structure prediction by ZEFSAII (Michael W. Deem and Ramdas Pophale) SiO2 
 PCOD8285191
Probable space group: F M M M
;
_chemical_formula_sum "Si O2"
_cell_formula_units_Z 192
_cell_length_a 14.831295
_cell_length_b 27.322214
_cell_length_c 24.662007
_cell_angle_alpha 90.000000
_cell_angle_beta 90.000000
_cell_angle_gamma 90.000000
_cell_volume 9993.632584
_symmetry_space_group_name_H-M "F M M M"
_symmetry_group_IT_number 69
_symmetry_cell_setting 'orthorhombic'
loop_
_space_group_symop_operation_xyz
x,y,z
-x,-y,z
x,-y,-z
-x,y,-z
-x,-y,-z
x,y,-z
-x,y,z
x,-y,z
x,1/2+y,1/2+z
-x,1/2-y,1/2+z
x,1/2-y,1/2-z
-x,1/2+y,1/2-z
-x,1/2-y,1/2-z
x,1/2+y,1/2-z
-x,1/2+y,1/2+z
x,1/2-y,1/2+z
1/2+x,y,1/2+z
1/2-x,-y,1/2+z
1/2+x,-y,1/2-z
1/2-x,y,1/2-z
1/2-x,-y,1/2-z
1/2+x,y,1/2-z
1/2-x,y,1/2+z
1/2+x,-y,1/2+z
1/2+x,1/2+y,z
1/2-x,1/2-y,z
1/2+x,1/2-y,-z
1/2-x,1/2+y,-z
1/2-x,1/2-y,-z
1/2+x,1/2+y,-z
1/2-x,1/2+y,z
1/2+x,1/2-y,z
loop_
_atom_site_type_symbol
_atom_site_label
_atom_site_fract_x
_atom_site_fract_y
_atom_site_fract_z
Si Si1 0.804837 0.897555 0.937760
Si Si2 0.249029 0.557762 0.831665
Si Si3 0.678606 0.790782 0.605423
Si Si4 0.500000 0.608435 0.937643
Si Si5 0.894340 0.404453 0.249784
Si Si6 0.397235 0.202270 0.282121
Si Si7 0.000000 0.783864 0.936396
O O1 0.740771 0.923755 0.893986
O O2 0.802994 0.838815 0.930952
O O3 0.906162 0.919272 0.924767
O O4 0.776209 0.909987 0.000000
O O5 0.255598 0.500000 0.829926
O O6 0.156250 0.573663 0.802449
O O7 0.339511 0.578884 0.803401
O O8 0.750000 0.750000 0.594035
O O9 0.670972 0.805947 0.668133
O O10 0.590255 0.760307 0.586860
O O11 0.500000 0.661272 0.909087
O O12 0.500000 0.622808 0.000000
O O13 0.890181 0.345660 0.244442
O O14 0.000000 0.421667 0.252821
O O15 0.500000 0.209699 0.302514
O O16 0.364169 0.250000 0.250000
O O17 0.000000 0.780344 0.000000
#
# Coordination Sequence:
#
# PCOD8285191 Si02
#       7
#    32  32  32  16  32  32  16
#     4  10  21  38  59  85 118 154 197 247 302 358
#     4  11  24  39  60  91 118 151 201 248 301 355
#     4  11  21  33  58  84 113 153 195 237 288 353
#     4   7  14  30  55  79 106 144 185 231 287 347
#     4  10  22  41  64  87 119 159 196 240 296 353
#     4  10  21  36  58  87 118 154 192 234 286 345
#     4   9  18  34  51  74 111 149 191 238 277 332
#
# _framework density 19.212233999999999
#
# number of rings (size 3 to 8) (size 9 to 14) (size 15 to 20)
#    0.000    2.000    2.500    2.500    3.500    3.333 
#    0.000    0.000    0.000    2.000    0.000    1.167 
#    0.000    0.000    0.000    0.000    0.000    0.000 
#
# Total GULP energy -594759.057109 kJ/mol
# GULP energy per Si atom -12390.813690 kJ/mol
# Density = 1.916851 g / cm^3
# Si number density = 19.212234 Si / 1000 Ang^3
#
#
#
# Elastic Constant Matrix: (Units=GPa)
#
#
# Indices 1 2 3 4 5 6 
#
# 1 106.2514 38.6360 39.3695 0.0000 0.0000 0.0000
# 2 38.6360 98.4369 36.1123 0.0000 0.0000 0.0000
# 3 39.3695 36.1123 119.3962 0.0000 0.0000 0.0000
# 4 0.0000 0.0000 0.0000 15.7202 0.0000 0.0000
# 5 0.0000 0.0000 0.0000 0.0000 24.8400 0.0000
# 6 0.0000 0.0000 0.0000 0.0000 0.0000 18.7559
#
#
#
# Elastic Compliance Matrix: (Units=1/GPa)
#
#
# Indices 1 2 3 4 5 6 
#
# 1 0.011750 -0.003589 -0.002789 0.000000 0.000000 0.000000
# 2 -0.003589 0.012523 -0.002604 0.000000 0.000000 0.000000
# 3 -0.002789 -0.002604 0.010083 0.000000 0.000000 0.000000
# 4 0.000000 0.000000 0.000000 0.063612 0.000000 0.000000
# 5 0.000000 0.000000 0.000000 0.000000 0.040258 0.000000
# 6 0.000000 0.000000 0.000000 0.000000 0.000000 0.053316
#
#
# Mechanical properties :
#
#
# Convention : Reuss Voigt Hill
#
# Bulk Modulus (GPa) = 61.00668 61.36889 61.18779
# Shear Modulus (GPa) = 23.25909 25.86101 24.56005
#
# Velocity S-wave (km/s) = 3.48320 3.67286 3.57929
# Velocity P-wave (km/s) = 6.92820 7.07096 6.99994
#
# Compressibility (1/GPa) = 0.01639165
#
# Stress axis : x y z
#
# Youngs Moduli (GPa) = 85.10655 79.85493 99.17880
#
# Poissons Ratio (x) = 0.28657 0.27661
# Poissons Ratio (y) = 0.30542 0.25829
# Poissons Ratio (z) = 0.23736 0.20796
#
# Static dielectric constant tensor:
#      x y z
#    x 3.675660 0.000000 0.000000 
#    y 0.000000 3.261890 0.000000 
#    z 0.000000 0.000000 3.487930 
# 
# 
# High freq. dielectric constant tensor:
#      x y z
#    x 1.737560 0.000000 0.000000 
#    y 0.000000 1.722490 0.000000 
#    z 0.000000 0.000000 1.746180 
# 
# From -- ./inp_files/36105.got.cif
#   From: 2010.03.12/outbox.cif.g09.slc.cpg/sg69_19_cif.got.tgz:36105.got - 2010.04.10 23:52:46.
