data_PCOD8285585
_publ_section_title
;
Structure prediction by ZEFSAII (Michael W. Deem and Ramdas Pophale) SiO2 
 PCOD8285585
Probable space group: F M M M
;
_chemical_formula_sum "Si O2"
_cell_formula_units_Z 112
_cell_length_a 19.945193
_cell_length_b 38.485208
_cell_length_c 8.229788
_cell_angle_alpha 90.000000
_cell_angle_beta 90.000000
_cell_angle_gamma 90.000000
_cell_volume 6317.143307
_symmetry_space_group_name_H-M "F M M M"
_symmetry_group_IT_number 69
_symmetry_cell_setting 'orthorhombic'
loop_
_space_group_symop_operation_xyz
x,y,z
-x,-y,z
x,-y,-z
-x,y,-z
-x,-y,-z
x,y,-z
-x,y,z
x,-y,z
x,1/2+y,1/2+z
-x,1/2-y,1/2+z
x,1/2-y,1/2-z
-x,1/2+y,1/2-z
-x,1/2-y,1/2-z
x,1/2+y,1/2-z
-x,1/2+y,1/2+z
x,1/2-y,1/2+z
1/2+x,y,1/2+z
1/2-x,-y,1/2+z
1/2+x,-y,1/2-z
1/2-x,y,1/2-z
1/2-x,-y,1/2-z
1/2+x,y,1/2-z
1/2-x,y,1/2+z
1/2+x,-y,1/2+z
1/2+x,1/2+y,z
1/2-x,1/2-y,z
1/2+x,1/2-y,-z
1/2-x,1/2+y,-z
1/2-x,1/2-y,-z
1/2+x,1/2+y,-z
1/2-x,1/2+y,z
1/2+x,1/2-y,z
loop_
_atom_site_type_symbol
_atom_site_label
_atom_site_fract_x
_atom_site_fract_y
_atom_site_fract_z
Si Si1 0.920392 0.420476 0.681151
Si Si2 0.924154 0.158498 0.812599
Si Si3 0.821734 0.712927 0.814890
Si Si4 0.920166 0.539593 0.000000
O O1 0.894340 0.432701 0.500000
O O2 0.898409 0.380826 0.711872
O O3 0.000000 0.423020 0.678003
O O4 0.891755 0.442985 0.832951
O O5 0.877116 0.183778 0.712551
O O6 0.000000 0.162225 0.746698
O O7 0.920919 0.169196 0.000000
O O8 0.846645 0.750000 0.750000
O O9 0.750000 0.700421 0.750000
O O10 0.810060 0.719007 0.000000
O O11 0.895603 0.500000 0.000000
O O12 0.000000 0.542486 0.000000
#
# Coordination Sequence:
#
# PCOD8285585 Si02
#       4
#    32  32  32  16
#     4   8  15  27  42  62  92 128 162 200 246 289
#     4   9  18  33  52  73  98 130 167 209 251 295
#     4  11  22  36  53  71  97 131 164 205 255 302
#     4   9  16  24  38  62  94 129 164 200 237 294
#
# _framework density 17.729533
#
# number of rings (size 3 to 8) (size 9 to 14) (size 15 to 20)
#    0.000    2.714    0.000    5.143    2.000    1.714 
#    0.000    2.857    0.000    0.000    0.000    0.000 
#    0.000    1.143    0.571    0.000    0.000    0.000 
#
# Total GULP energy -346986.019218 kJ/mol
# GULP energy per Si atom -12392.357829 kJ/mol
# Density = 1.768918 g / cm^3
# Si number density = 17.729533 Si / 1000 Ang^3
#
#
#
# Elastic Constant Matrix: (Units=GPa)
#
#
# Indices 1 2 3 4 5 6 
#
# 1 40.5868 34.5751 27.9388 0.0004 0.0012 -0.0002
# 2 34.5751 107.2790 70.4859 0.0000 0.0002 0.0000
# 3 27.9388 70.4859 154.1982 0.0008 0.0026 -0.0005
# 4 0.0004 0.0000 0.0008 32.9226 -0.0005 0.0000
# 5 0.0012 0.0002 0.0026 -0.0005 15.6289 0.0004
# 6 -0.0002 0.0000 -0.0005 0.0000 0.0004 -3.4485
#
#
#
# Elastic Compliance Matrix: (Units=1/GPa)
#
#
# Indices 1 2 3 4 5 6 
#
# 1 0.034257 -0.009951 -0.001658 0.000000 -0.000002 -0.000002
# 2 -0.009951 0.016214 -0.005608 0.000000 0.000002 0.000001
# 3 -0.001658 -0.005608 0.009349 0.000000 -0.000001 -0.000001
# 4 0.000000 0.000000 0.000000 0.030374 0.000001 0.000000
# 5 -0.000002 0.000002 -0.000001 0.000001 0.063984 0.000007
# 6 -0.000002 0.000001 -0.000001 0.000000 0.000007 -0.289982
#
#
# Mechanical properties :
#
#
# Convention : Reuss Voigt Hill
#
# Bulk Modulus (GPa) = 39.39422 63.11819 51.25621
# Shear Modulus (GPa) = -53.81781 20.29154 -16.76314
#
# Velocity S-wave (km/s) = -5.51550 3.38672 -3.07822
# Velocity P-wave (km/s) = 4.27706 7.13940 4.04214
#
# Compressibility (1/GPa) = 0.02538444
#
# Stress axis : x y z
#
# Youngs Moduli (GPa) = 29.19083 61.67645 106.96049
#
# Poissons Ratio (x) = 0.61377 0.17735
# Poissons Ratio (y) = 0.29049 0.59988
# Poissons Ratio (z) = 0.04840 0.34591
#
# Static dielectric constant tensor:
#      x y z
#    x 2.801280 0.000000 0.000000 
#    y 0.000000 3.301800 0.000000 
#    z 0.000000 0.000000 3.696890 
# 
# 
# High freq. dielectric constant tensor:
#      x y z
#    x 1.626880 0.000000 0.000000 
#    y 0.000000 1.683060 0.000000 
#    z 0.000000 0.000000 1.706010 
# 
# From -- ./inp_files/4000.got.cif
#   From: 2010.03.12/outbox.cif.g09.slc.cpg/sg69_2_cif.got.tgz:4000.got - 2010.04.10 23:52:46.
