data_PCOD8285987
_publ_section_title
;
Structure prediction by ZEFSAII (Michael W. Deem and Ramdas Pophale) SiO2 
 PCOD8285987
Probable space group: F D D D
;
_chemical_formula_sum "Si O2"
_cell_formula_units_Z 176
_cell_length_a 24.531566
_cell_length_b 15.148530
_cell_length_c 23.508367
_cell_angle_alpha 90.000000
_cell_angle_beta 90.000000
_cell_angle_gamma 90.000000
_cell_volume 8736.112663
_symmetry_space_group_name_H-M "F D D D"
_symmetry_group_IT_number 70
_space_group.IT_coordinate_system_code '2'
_symmetry_cell_setting 'orthorhombic'
loop_
_space_group_symop_operation_xyz
x,y,z
1/4-x,1/4-y,z
x,1/4-y,1/4-z
1/4-x,y,1/4-z
-x,-y,-z
3/4+x,3/4+y,-z
-x,3/4+y,3/4+z
3/4+x,-y,3/4+z
x,1/2+y,1/2+z
1/4-x,3/4-y,1/2+z
x,3/4-y,3/4-z
1/4-x,1/2+y,3/4-z
-x,1/2-y,1/2-z
3/4+x,1/4+y,1/2-z
-x,1/4+y,1/4+z
3/4+x,1/2-y,1/4+z
1/2+x,y,1/2+z
3/4-x,1/4-y,1/2+z
1/2+x,1/4-y,3/4-z
3/4-x,y,3/4-z
1/2-x,-y,1/2-z
1/4+x,3/4+y,1/2-z
1/2-x,3/4+y,1/4+z
1/4+x,-y,1/4+z
1/2+x,1/2+y,z
3/4-x,3/4-y,z
1/2+x,3/4-y,1/4-z
3/4-x,1/2+y,1/4-z
1/2-x,1/2-y,-z
1/4+x,1/4+y,-z
1/2-x,1/4+y,3/4+z
1/4+x,1/2-y,3/4+z
loop_
_atom_site_type_symbol
_atom_site_label
_atom_site_fract_x
_atom_site_fract_y
_atom_site_fract_z
Si Si1 0.065850 0.510718 0.390632
Si Si2 0.771062 0.596012 0.912661
Si Si3 0.910877 0.795741 0.978917
Si Si4 0.125000 0.937680 0.125000
Si Si5 0.721946 0.341860 0.291142
Si Si6 0.317421 0.719452 0.154772
O O1 0.056536 0.427323 0.432211
O O2 0.047161 0.493901 0.326068
O O3 0.130698 0.529101 0.386194
O O4 0.030200 0.587857 0.418143
O O5 0.820442 0.627666 0.873085
O O6 0.741746 0.508872 0.886465
O O7 0.795525 0.581113 0.975547
O O8 0.875000 0.875000 0.006066
O O9 0.874980 0.747884 0.930841
O O10 0.962922 0.844049 0.951228
O O11 0.929791 0.723096 0.025908
O O12 0.323039 0.625000 0.125000
#
# Coordination Sequence:
#
# PCOD8285987 Si02
#       6
#    32  32  32  16  32  32
#     4  11  19  37  60  92 121 159 194 245 310 379
#     4  11  23  38  59  88 124 160 202 253 301 371
#     4  11  22  37  62  99 131 160 183 250 320 391
#     4  12  23  36  63  94 132 158 198 240 325 373
#     4  10  20  34  59  91 128 149 195 236 316 372
#     4  11  23  41  62  83 122 168 217 250 295 348
#
# _framework density 20.146260000000002
#
# number of rings (size 3 to 8) (size 9 to 14) (size 15 to 20)
#    0.000    1.091    3.636    5.727    2.545    0.000 
#    0.000    1.364    0.000    0.000    0.000    0.000 
#    0.000    0.000    0.000    0.000    0.000    0.000 
#
# Total GULP energy -545304.274829 kJ/mol
# GULP energy per Si atom -12393.278973 kJ/mol
# Density = 2.010041 g / cm^3
# Si number density = 20.146260 Si / 1000 Ang^3
#
#
#
# Elastic Constant Matrix: (Units=GPa)
#
#
# Indices 1 2 3 4 5 6 
#
# 1 115.6878 23.6651 16.2455 0.0000 0.0000 0.0000
# 2 23.6651 55.3428 33.4479 0.0000 0.0000 0.0000
# 3 16.2455 33.4479 81.1571 0.0000 0.0000 0.0000
# 4 0.0000 0.0000 0.0000 20.1061 0.0000 0.0000
# 5 0.0000 0.0000 0.0000 0.0000 23.6054 0.0000
# 6 0.0000 0.0000 0.0000 0.0000 0.0000 34.6996
#
#
#
# Elastic Compliance Matrix: (Units=1/GPa)
#
#
# Indices 1 2 3 4 5 6 
#
# 1 0.009478 -0.003870 -0.000302 0.000000 0.000000 0.000000
# 2 -0.003870 0.025643 -0.009794 0.000000 0.000000 0.000000
# 3 -0.000302 -0.009794 0.016419 0.000000 0.000000 0.000000
# 4 0.000000 0.000000 0.000000 0.049736 0.000000 0.000000
# 5 0.000000 0.000000 0.000000 0.000000 0.042363 0.000000
# 6 0.000000 0.000000 0.000000 0.000000 0.000000 0.028819
#
#
# Mechanical properties :
#
#
# Convention : Reuss Voigt Hill
#
# Bulk Modulus (GPa) = 42.35949 44.32277 43.34113
# Shear Modulus (GPa) = 24.00846 27.60418 25.80632
#
# Velocity S-wave (km/s) = 3.45586 3.70562 3.58292
# Velocity P-wave (km/s) = 6.08240 6.35272 6.21903
#
# Compressibility (1/GPa) = 0.02360746
#
# Stress axis : x y z
#
# Youngs Moduli (GPa) = 105.50645 38.99646 60.90623
#
# Poissons Ratio (x) = 0.15093 0.01840
# Poissons Ratio (y) = 0.40834 0.59651
# Poissons Ratio (z) = 0.03188 0.38193
#
# Static dielectric constant tensor:
#      x y z
#    x 3.834000 0.000000 0.000000 
#    y 0.000000 3.541440 0.000000 
#    z 0.000000 0.000000 3.613180 
# 
# 
# High freq. dielectric constant tensor:
#      x y z
#    x 1.800060 0.000000 0.000000 
#    y 0.000000 1.755540 0.000000 
#    z 0.000000 0.000000 1.778550 
# 
# From -- ./inp_files/28776.got.cif
#   From: 2010.03.12/outbox.cif.g09.slc.cpg/sg70_15_cif.got.tgz:28776.got - 2010.04.16 13:46:32.
