data_PCOD8285778
_publ_section_title
;
Structure prediction by ZEFSAII (Michael W. Deem and Ramdas Pophale) SiO2 
 PCOD8285778
Probable space group: F D D D
;
_chemical_formula_sum "Si O2"
_cell_formula_units_Z 112
_cell_length_a 8.275425
_cell_length_b 33.294724
_cell_length_c 22.274406
_cell_angle_alpha 90.000000
_cell_angle_beta 90.000000
_cell_angle_gamma 90.000000
_cell_volume 6137.222344
_symmetry_space_group_name_H-M "F D D D"
_symmetry_group_IT_number 70
_space_group.IT_coordinate_system_code '2'
_symmetry_cell_setting 'orthorhombic'
loop_
_space_group_symop_operation_xyz
x,y,z
1/4-x,1/4-y,z
x,1/4-y,1/4-z
1/4-x,y,1/4-z
-x,-y,-z
3/4+x,3/4+y,-z
-x,3/4+y,3/4+z
3/4+x,-y,3/4+z
x,1/2+y,1/2+z
1/4-x,3/4-y,1/2+z
x,3/4-y,3/4-z
1/4-x,1/2+y,3/4-z
-x,1/2-y,1/2-z
3/4+x,1/4+y,1/2-z
-x,1/4+y,1/4+z
3/4+x,1/2-y,1/4+z
1/2+x,y,1/2+z
3/4-x,1/4-y,1/2+z
1/2+x,1/4-y,3/4-z
3/4-x,y,3/4-z
1/2-x,-y,1/2-z
1/4+x,3/4+y,1/2-z
1/2-x,3/4+y,1/4+z
1/4+x,-y,1/4+z
1/2+x,1/2+y,z
3/4-x,3/4-y,z
1/2+x,3/4-y,1/4-z
3/4-x,1/2+y,1/4-z
1/2-x,1/2-y,-z
1/4+x,1/4+y,-z
1/2-x,1/4+y,3/4+z
1/4+x,1/2-y,3/4+z
loop_
_atom_site_type_symbol
_atom_site_label
_atom_site_fract_x
_atom_site_fract_y
_atom_site_fract_z
Si Si1 0.010268 0.407376 0.072284
Si Si2 0.693611 0.668894 0.247592
Si Si3 0.375000 0.959943 0.375000
Si Si4 0.953473 0.786980 0.644027
O O1 0.125000 0.389611 0.125000
O O2 0.875000 0.375000 0.054773
O O3 0.929867 0.448491 0.096313
O O4 0.116027 0.418475 0.014010
O O5 0.625000 0.625000 0.259466
O O6 0.674648 0.681223 0.179067
O O7 0.595358 0.699999 0.289024
O O8 0.221374 0.988372 0.358015
O O9 0.125000 0.806776 0.625000
#
# Coordination Sequence:
#
# PCOD8285778 Si02
#       4
#    32  32  16  32
#     4  10  18  32  58  88 109 141 190 242 278 324
#     4  11  21  36  59  81 113 152 191 229 281 342
#     4  10  23  36  56  82 118 152 182 228 292 346
#     4   9  19  35  58  82 111 137 190 238 279 327
#
# _framework density 18.249296999999999
#
# number of rings (size 3 to 8) (size 9 to 14) (size 15 to 20)
#    0.857    1.143    0.000    7.286    0.000    1.143 
#    0.000    0.000    0.000    5.143    0.000    0.000 
#    0.000    0.000    0.000    0.000    0.000    0.000 
#
# Total GULP energy -347080.581834 kJ/mol
# GULP energy per Si atom -12395.735065 kJ/mol
# Density = 1.820776 g / cm^3
# Si number density = 18.249297 Si / 1000 Ang^3
#
#
#
# Elastic Constant Matrix: (Units=GPa)
#
#
# Indices 1 2 3 4 5 6 
#
# 1 113.7444 23.1990 56.3815 0.0000 0.0000 0.0000
# 2 23.1990 40.8327 20.6729 0.0000 0.0000 0.0000
# 3 56.3815 20.6729 122.5807 0.0000 0.0000 0.0000
# 4 0.0000 0.0000 0.0000-2332.2860 0.0000 0.0000
# 5 0.0000 0.0000 0.0000 0.0000 16.0723 0.0000
# 6 0.0000 0.0000 0.0000 0.0000 0.0000 24.2286
#
#
#
# Elastic Compliance Matrix: (Units=1/GPa)
#
#
# Indices 1 2 3 4 5 6 
#
# 1 0.012078 -0.004428 -0.004809 0.000000 0.000000 0.000000
# 2 -0.004428 0.028400 -0.002753 0.000000 0.000000 0.000000
# 3 -0.004809 -0.002753 0.010834 0.000000 0.000000 0.000000
# 4 0.000000 0.000000 0.000000 -0.000429 0.000000 0.000000
# 5 0.000000 0.000000 0.000000 0.000000 0.062219 0.000000
# 6 0.000000 0.000000 0.000000 0.000000 0.000000 0.041274
#
#
# Mechanical properties :
#
#
# Convention : Reuss Voigt Hill
#
# Bulk Modulus (GPa) = 36.58581 53.07386 44.82983
# Shear Modulus (GPa) = 26.67159 -446.60340 -209.96591
#
# Velocity S-wave (km/s) = 3.82712 -15.66062 -10.73797
# Velocity P-wave (km/s) = 6.29448 17.25864 11.36310
#
# Compressibility (1/GPa) = 0.02733300
#
# Stress axis : x y z
#
# Youngs Moduli (GPa) = 82.79290 35.21183 92.30216
#
# Poissons Ratio (x) = 0.15591 0.44386
# Poissons Ratio (y) = 0.36658 0.25411
# Poissons Ratio (z) = 0.39813 0.09694
#
# Static dielectric constant tensor:
#      x y z
#    x 3.534540 0.000000 0.000000 
#    y 0.000000 3.153300 0.000000 
#    z 0.000000 0.000000 3.116310 
# 
# 
# High freq. dielectric constant tensor:
#      x y z
#    x 1.707660 0.000000 0.000000 
#    y 0.000000 1.700280 0.000000 
#    z 0.000000 0.000000 1.690070 
# 
# From -- ./inp_files/49249.got.cif
#   From: 2010.03.12/outbox.cif.g09.slc.cpg/sg70_25_cif.got.tgz:49249.got - 2010.04.16 13:46:32.
