data_PCOD8285098
_publ_section_title
;
Structure prediction by ZEFSAII (Michael W. Deem and Ramdas Pophale) SiO2 
 PCOD8285098
Probable space group: F M M M
;
_chemical_formula_sum "Si O2"
_cell_formula_units_Z 192
_cell_length_a 26.635348
_cell_length_b 19.359799
_cell_length_c 18.716378
_cell_angle_alpha 90.000000
_cell_angle_beta 90.000000
_cell_angle_gamma 90.000000
_cell_volume 9651.193590
_symmetry_space_group_name_H-M "F M M M"
_symmetry_group_IT_number 69
_symmetry_cell_setting 'orthorhombic'
loop_
_space_group_symop_operation_xyz
x,y,z
-x,-y,z
x,-y,-z
-x,y,-z
-x,-y,-z
x,y,-z
-x,y,z
x,-y,z
x,1/2+y,1/2+z
-x,1/2-y,1/2+z
x,1/2-y,1/2-z
-x,1/2+y,1/2-z
-x,1/2-y,1/2-z
x,1/2+y,1/2-z
-x,1/2+y,1/2+z
x,1/2-y,1/2+z
1/2+x,y,1/2+z
1/2-x,-y,1/2+z
1/2+x,-y,1/2-z
1/2-x,y,1/2-z
1/2-x,-y,1/2-z
1/2+x,y,1/2-z
1/2-x,y,1/2+z
1/2+x,-y,1/2+z
1/2+x,1/2+y,z
1/2-x,1/2-y,z
1/2+x,1/2-y,-z
1/2-x,1/2+y,-z
1/2-x,1/2-y,-z
1/2+x,1/2+y,-z
1/2-x,1/2+y,z
1/2+x,1/2-y,z
loop_
_atom_site_type_symbol
_atom_site_label
_atom_site_fract_x
_atom_site_fract_y
_atom_site_fract_z
Si Si1 0.000000 0.861276 0.735099
Si Si2 0.106130 0.299885 0.419900
Si Si3 0.339796 0.161711 0.083953
Si Si4 0.243197 0.579180 0.831781
Si Si5 0.355274 0.076889 0.332843
Si Si6 0.600750 0.923204 0.185723
Si Si7 0.000000 0.730674 0.366007
O O1 0.048272 0.907691 0.722535
O O2 0.000000 0.797729 0.682067
O O3 0.000000 0.837111 0.816709
O O4 0.113886 0.326405 0.500000
O O5 0.149331 0.242894 0.402307
O O6 0.110411 0.364785 0.367786
O O7 0.050266 0.268318 0.413596
O O8 0.290183 0.133806 0.124007
O O9 0.388094 0.123719 0.117212
O O10 0.335450 0.145451 0.000000
O O11 0.222008 0.500000 0.838082
O O12 0.250000 0.602040 0.750000
O O13 0.299200 0.582719 0.864258
O O14 0.355953 0.087112 0.246345
O O15 0.376882 0.000000 0.349868
O O16 0.600157 0.000000 0.155704
#
# Coordination Sequence:
#
# PCOD8285098 Si02
#       7
#    16  32  32  32  32  32  16
#     4  11  21  36  64  93 118 158 212 265 306 372
#     4  11  24  42  62  87 127 167 204 256 316 372
#     4  11  24  40  62  93 128 167 207 251 309 377
#     4  10  20  39  64  92 125 164 207 252 302 360
#     4  10  22  40  65  92 120 159 210 259 308 369
#     4  11  21  38  62  91 128 163 203 258 313 367
#     4  11  21  38  64  89 118 164 210 259 312 368
#
# _framework density 19.893912
#
# number of rings (size 3 to 8) (size 9 to 14) (size 15 to 20)
#    0.000    1.333    5.000    1.000    0.000    3.667 
#    0.000    5.000    0.000    2.000    0.000    0.000 
#    0.000    0.000    0.000    0.000    0.000    0.000 
#
# Total GULP energy -595079.557242 kJ/mol
# GULP energy per Si atom -12397.490776 kJ/mol
# Density = 1.984863 g / cm^3
# Si number density = 19.893912 Si / 1000 Ang^3
#
#
#
# Elastic Constant Matrix: (Units=GPa)
#
#
# Indices 1 2 3 4 5 6 
#
# 1 92.6503 29.1132 22.0901 0.0000 0.0000 0.0000
# 2 29.1132 101.2123 57.3086 0.0000 0.0000 0.0000
# 3 22.0901 57.3086 99.1860 0.0000 0.0000 0.0000
# 4 0.0000 0.0000 0.0000 27.0745 0.0000 0.0000
# 5 0.0000 0.0000 0.0000 0.0000 28.3412 0.0000
# 6 0.0000 0.0000 0.0000 0.0000 0.0000 31.5302
#
#
#
# Elastic Compliance Matrix: (Units=1/GPa)
#
#
# Indices 1 2 3 4 5 6 
#
# 1 0.011932 -0.002865 -0.001002 0.000000 0.000000 0.000000
# 2 -0.002865 0.015372 -0.008244 0.000000 0.000000 0.000000
# 3 -0.001002 -0.008244 0.015068 0.000000 0.000000 0.000000
# 4 0.000000 0.000000 0.000000 0.036935 0.000000 0.000000
# 5 0.000000 0.000000 0.000000 0.000000 0.035284 0.000000
# 6 0.000000 0.000000 0.000000 0.000000 0.000000 0.031716
#
#
# Mechanical properties :
#
#
# Convention : Reuss Voigt Hill
#
# Bulk Modulus (GPa) = 55.09259 56.67470 55.88365
# Shear Modulus (GPa) = 28.31573 29.69162 29.00368
#
# Velocity S-wave (km/s) = 3.77681 3.86748 3.82241
# Velocity P-wave (km/s) = 6.83903 6.96373 6.90166
#
# Compressibility (1/GPa) = 0.01815126
#
# Stress axis : x y z
#
# Youngs Moduli (GPa) = 83.80526 65.05297 66.36375
#
# Poissons Ratio (x) = 0.18636 0.06651
# Poissons Ratio (y) = 0.24008 0.54709
# Poissons Ratio (z) = 0.08400 0.53628
#
# Static dielectric constant tensor:
#      x y z
#    x 3.706330 0.000000 0.000000 
#    y 0.000000 3.545080 0.000000 
#    z 0.000000 0.000000 3.418560 
# 
# 
# High freq. dielectric constant tensor:
#      x y z
#    x 1.785210 0.000000 0.000000 
#    y 0.000000 1.774460 0.000000 
#    z 0.000000 0.000000 1.762050 
# 
# From -- ./inp_files/27799.got.cif
#   From: 2010.03.12/outbox.cif.g09.slc.cpg/sg69_14_cif.got.tgz:27799.got - 2010.04.10 23:52:46.
