data_PCOD8285165
_publ_section_title
;
Structure prediction by ZEFSAII (Michael W. Deem and Ramdas Pophale) SiO2 
 PCOD8285165
Probable space group: F M M M
;
_chemical_formula_sum "Si O2"
_cell_formula_units_Z 160
_cell_length_a 17.821229
_cell_length_b 23.354457
_cell_length_c 22.038272
_cell_angle_alpha 90.000000
_cell_angle_beta 90.000000
_cell_angle_gamma 90.000000
_cell_volume 9172.441783
_symmetry_space_group_name_H-M "F M M M"
_symmetry_group_IT_number 69
_symmetry_cell_setting 'orthorhombic'
loop_
_space_group_symop_operation_xyz
x,y,z
-x,-y,z
x,-y,-z
-x,y,-z
-x,-y,-z
x,y,-z
-x,y,z
x,-y,z
x,1/2+y,1/2+z
-x,1/2-y,1/2+z
x,1/2-y,1/2-z
-x,1/2+y,1/2-z
-x,1/2-y,1/2-z
x,1/2+y,1/2-z
-x,1/2+y,1/2+z
x,1/2-y,1/2+z
1/2+x,y,1/2+z
1/2-x,-y,1/2+z
1/2+x,-y,1/2-z
1/2-x,y,1/2-z
1/2-x,-y,1/2-z
1/2+x,y,1/2-z
1/2-x,y,1/2+z
1/2+x,-y,1/2+z
1/2+x,1/2+y,z
1/2-x,1/2-y,z
1/2+x,1/2-y,-z
1/2-x,1/2+y,-z
1/2-x,1/2-y,-z
1/2+x,1/2+y,-z
1/2-x,1/2+y,z
1/2+x,1/2-y,z
loop_
_atom_site_type_symbol
_atom_site_label
_atom_site_fract_x
_atom_site_fract_y
_atom_site_fract_z
Si Si1 0.151374 0.628796 0.127494
Si Si2 0.414448 0.872177 0.000000
Si Si3 0.334937 0.257996 0.116694
Si Si4 0.586128 0.933601 0.759589
Si Si5 0.582999 0.736069 0.000000
Si Si6 0.798796 0.139552 0.191733
O O1 0.131508 0.696331 0.135622
O O2 0.100681 0.595460 0.175655
O O3 0.240428 0.617680 0.139792
O O4 0.129603 0.606448 0.060199
O O5 0.500000 0.895856 0.000000
O O6 0.414907 0.804263 0.000000
O O7 0.250000 0.250000 0.095064
O O8 0.341252 0.302400 0.172191
O O9 0.377471 0.286883 0.060360
O O10 0.500000 0.923654 0.740669
O O11 0.639512 0.908321 0.706919
O O12 0.605743 0.000000 0.765832
O O13 0.500000 0.710954 0.000000
O O14 0.750000 0.156031 0.250000
#
# Coordination Sequence:
#
# PCOD8285165 Si02
#       6
#    32  16  32  32  16  32
#     4   9  18  31  51  74  99 130 159 192 234 288
#     4   9  16  29  48  73 104 131 156 189 237 286
#     4   9  17  30  48  71 101 130 156 189 236 283
#     4  10  21  36  51  68  93 126 163 203 246 285
#     4   9  17  27  43  70 101 132 161 189 223 277
#     4   9  19  32  49  72  97 127 164 200 235 281
#
# _framework density 17.443556000000001
#
# number of rings (size 3 to 8) (size 9 to 14) (size 15 to 20)
#    0.000    2.800    0.000    0.900    0.000   16.800 
#    0.000    1.500    0.000    1.800    0.000    2.100 
#    0.000    7.200    0.000    0.000    0.000    0.000 
#
# Total GULP energy -495862.192820 kJ/mol
# GULP energy per Si atom -12396.554820 kJ/mol
# Density = 1.740385 g / cm^3
# Si number density = 17.443556 Si / 1000 Ang^3
#
#
#
# Elastic Constant Matrix: (Units=GPa)
#
#
# Indices 1 2 3 4 5 6 
#
# 1 98.3445 52.8066 70.7823 0.0000 0.0000 0.0000
# 2 52.8066 86.1020 49.0853 0.0000 0.0000 0.0000
# 3 70.7823 49.0853 112.7785 0.0000 0.0000 0.0000
# 4 0.0000 0.0000 0.0000 -0.7338 0.0000 0.0000
# 5 0.0000 0.0000 0.0000 0.0000 26.4791 0.0000
# 6 0.0000 0.0000 0.0000 0.0000 0.0000 23.7095
#
#
#
# Elastic Compliance Matrix: (Units=1/GPa)
#
#
# Indices 1 2 3 4 5 6 
#
# 1 0.021531 -0.007317 -0.010329 0.000000 0.000000 0.000000
# 2 -0.007317 0.017933 -0.003213 0.000000 0.000000 0.000000
# 3 -0.010329 -0.003213 0.016748 0.000000 0.000000 0.000000
# 4 0.000000 0.000000 0.000000 -1.362821 0.000000 0.000000
# 5 0.000000 0.000000 0.000000 0.000000 0.037766 0.000000
# 6 0.000000 0.000000 0.000000 0.000000 0.000000 0.042177
#
#
# Mechanical properties :
#
#
# Convention : Reuss Voigt Hill
#
# Bulk Modulus (GPa) = 68.98934 71.39703 70.19319
# Shear Modulus (GPa) = -4.23687 18.19437 6.97875
#
# Velocity S-wave (km/s) = -1.56018 3.23312 2.00236
# Velocity P-wave (km/s) = 6.03244 7.41327 6.75821
#
# Compressibility (1/GPa) = 0.01449499
#
# Stress axis : x y z
#
# Youngs Moduli (GPa) = 46.44398 55.76240 59.70849
#
# Poissons Ratio (x) = 0.40800 0.61673
# Poissons Ratio (y) = 0.33982 0.19184
# Poissons Ratio (z) = 0.47972 0.17916
#
# Static dielectric constant tensor:
#      x y z
#    x 3.379400 0.000000 0.000000 
#    y 0.000000 3.038040 0.000000 
#    z 0.000000 0.000000 3.388960 
# 
# 
# High freq. dielectric constant tensor:
#      x y z
#    x 1.675150 0.000000 0.000000 
#    y 0.000000 1.641380 0.000000 
#    z 0.000000 0.000000 1.671520 
# 
# From -- ./inp_files/25818.got.cif
#   From: 2010.03.12/outbox.cif.g09.slc.cpg/sg69_13_cif.got.tgz:25818.got - 2010.04.10 23:52:46.
