data_PCOD8285811
_publ_section_title
;
Structure prediction by ZEFSAII (Michael W. Deem and Ramdas Pophale) SiO2 
 PCOD8285811
Probable space group: F D D D
;
_chemical_formula_sum "Si O2"
_cell_formula_units_Z 192
_cell_length_a 18.853797
_cell_length_b 26.676034
_cell_length_c 18.853824
_cell_angle_alpha 90.000000
_cell_angle_beta 90.000000
_cell_angle_gamma 90.000000
_cell_volume 9482.427647
_symmetry_space_group_name_H-M "F D D D"
_symmetry_group_IT_number 70
_space_group.IT_coordinate_system_code '2'
_symmetry_cell_setting 'orthorhombic'
loop_
_space_group_symop_operation_xyz
x,y,z
1/4-x,1/4-y,z
x,1/4-y,1/4-z
1/4-x,y,1/4-z
-x,-y,-z
3/4+x,3/4+y,-z
-x,3/4+y,3/4+z
3/4+x,-y,3/4+z
x,1/2+y,1/2+z
1/4-x,3/4-y,1/2+z
x,3/4-y,3/4-z
1/4-x,1/2+y,3/4-z
-x,1/2-y,1/2-z
3/4+x,1/4+y,1/2-z
-x,1/4+y,1/4+z
3/4+x,1/2-y,1/4+z
1/2+x,y,1/2+z
3/4-x,1/4-y,1/2+z
1/2+x,1/4-y,3/4-z
3/4-x,y,3/4-z
1/2-x,-y,1/2-z
1/4+x,3/4+y,1/2-z
1/2-x,3/4+y,1/4+z
1/4+x,-y,1/4+z
1/2+x,1/2+y,z
3/4-x,3/4-y,z
1/2+x,3/4-y,1/4-z
3/4-x,1/2+y,1/4-z
1/2-x,1/2-y,-z
1/4+x,1/4+y,-z
1/2-x,1/4+y,3/4+z
1/4+x,1/2-y,3/4+z
loop_
_atom_site_type_symbol
_atom_site_label
_atom_site_fract_x
_atom_site_fract_y
_atom_site_fract_z
Si Si1 0.563070 0.347314 0.801010
Si Si2 0.475492 0.430938 0.588232
Si Si3 0.625000 0.625000 0.736930
Si Si4 0.366769 1.000000 0.133231
Si Si5 0.236930 0.125000 0.625000
Si Si6 0.198990 0.652686 0.436930
Si Si7 0.588232 0.819062 0.774508
O O1 0.546427 0.375000 0.875000
O O2 0.602438 0.294051 0.810271
O O3 0.489439 0.338719 0.760561
O O4 0.615079 0.382434 0.754477
O O5 0.409020 0.417881 0.536362
O O6 0.446676 0.476148 0.638134
O O7 0.495523 0.382434 0.634921
O O8 0.544328 0.448430 0.544328
O O9 0.687251 0.648396 0.687251
O O10 0.310270 0.955949 0.147562
O O11 0.361867 0.023852 0.053323
O O12 0.286362 0.167881 0.590980
O O13 0.125000 0.625000 0.453572
#
# Coordination Sequence:
#
# PCOD8285811 Si02
#       7
#    32  32  16  32  16  32  32
#     4  10  21  38  57  80 112 153 198 242 284 327
#     4  10  19  35  57  85 118 148 180 226 286 346
#     4   9  16  30  54  80 109 144 176 212 271 344
#     4  10  18  36  58  88 110 150 186 238 280 338
#     4   9  16  30  54  80 109 144 176 212 271 344
#     4  10  21  38  57  80 112 153 198 242 284 327
#     4  10  19  35  57  85 118 148 180 226 286 346
#
# _framework density 20.247979000000001
#
# number of rings (size 3 to 8) (size 9 to 14) (size 15 to 20)
#    0.000    2.167    5.000    1.000    0.000    1.000 
#    0.000   13.333    0.000   16.000    0.000    0.000 
#    0.000    0.000    0.000    0.000    0.000    0.000 
#
# Total GULP energy -594676.896218 kJ/mol
# GULP energy per Si atom -12389.102005 kJ/mol
# Density = 2.020189 g / cm^3
# Si number density = 20.247979 Si / 1000 Ang^3
#
#
#
# Elastic Constant Matrix: (Units=GPa)
#
#
# Indices 1 2 3 4 5 6 
#
# 1 85.0421 40.8439 50.0199 0.0000 0.0000 0.0000
# 2 40.8439 139.6367 40.8445 0.0000 0.0000 0.0000
# 3 50.0199 40.8445 85.0439 0.0000 0.0000 0.0000
# 4 0.0000 0.0000 0.0000 9.0659 0.0000 0.0000
# 5 0.0000 0.0000 0.0000 0.0000 47.5953 0.0000
# 6 0.0000 0.0000 0.0000 0.0000 0.0000 9.0658
#
#
#
# Elastic Compliance Matrix: (Units=1/GPa)
#
#
# Indices 1 2 3 4 5 6 
#
# 1 0.018774 -0.002631 -0.009779 0.000000 0.000000 0.000000
# 2 -0.002631 0.008701 -0.002631 0.000000 0.000000 0.000000
# 3 -0.009779 -0.002631 0.018774 0.000000 0.000000 0.000000
# 4 0.000000 0.000000 0.000000 0.110303 0.000000 0.000000
# 5 0.000000 0.000000 0.000000 0.000000 0.021010 0.000000
# 6 0.000000 0.000000 0.000000 0.000000 0.000000 0.110305
#
#
# Mechanical properties :
#
#
# Convention : Reuss Voigt Hill
#
# Bulk Modulus (GPa) = 61.85558 63.68217 62.76888
# Shear Modulus (GPa) = 15.46367 25.01301 20.23834
#
# Velocity S-wave (km/s) = 2.76654 3.51854 3.16495
# Velocity P-wave (km/s) = 6.38908 6.93010 6.66508
#
# Compressibility (1/GPa) = 0.01616669
#
# Stress axis : x y z
#
# Youngs Moduli (GPa) = 53.26475 114.93342 53.26579
#
# Poissons Ratio (x) = 0.30241 0.52087
# Poissons Ratio (y) = 0.14015 0.14015
# Poissons Ratio (z) = 0.52086 0.30241
#
# Static dielectric constant tensor:
#      x y z
#    x 3.625860 0.000000 0.000000 
#    y 0.000000 3.772390 0.000000 
#    z 0.000000 0.000000 3.625860 
# 
# 
# High freq. dielectric constant tensor:
#      x y z
#    x 1.772230 0.000000 0.000000 
#    y 0.000000 1.790760 0.000000 
#    z 0.000000 0.000000 1.772230 
# 
# From -- ./inp_files/45004.got.cif
#   From: 2010.03.12/outbox.cif.g09.slc.cpg/sg70_23_cif.got.tgz:45004.got - 2010.04.16 13:46:32.
