data_PCOD8285343
_publ_section_title
;
Structure prediction by ZEFSAII (Michael W. Deem and Ramdas Pophale) SiO2 
 PCOD8285343
Probable space group: F M M M
;
_chemical_formula_sum "Si O2"
_cell_formula_units_Z 112
_cell_length_a 10.367460
_cell_length_b 21.680493
_cell_length_c 29.265103
_cell_angle_alpha 90.000000
_cell_angle_beta 90.000000
_cell_angle_gamma 90.000000
_cell_volume 6577.965312
_symmetry_space_group_name_H-M "F M M M"
_symmetry_group_IT_number 69
_symmetry_cell_setting 'orthorhombic'
loop_
_space_group_symop_operation_xyz
x,y,z
-x,-y,z
x,-y,-z
-x,y,-z
-x,-y,-z
x,y,-z
-x,y,z
x,-y,z
x,1/2+y,1/2+z
-x,1/2-y,1/2+z
x,1/2-y,1/2-z
-x,1/2+y,1/2-z
-x,1/2-y,1/2-z
x,1/2+y,1/2-z
-x,1/2+y,1/2+z
x,1/2-y,1/2+z
1/2+x,y,1/2+z
1/2-x,-y,1/2+z
1/2+x,-y,1/2-z
1/2-x,y,1/2-z
1/2-x,-y,1/2-z
1/2+x,y,1/2-z
1/2-x,y,1/2+z
1/2+x,-y,1/2+z
1/2+x,1/2+y,z
1/2-x,1/2-y,z
1/2+x,1/2-y,-z
1/2-x,1/2+y,-z
1/2-x,1/2-y,-z
1/2+x,1/2+y,-z
1/2-x,1/2+y,z
1/2+x,1/2-y,z
loop_
_atom_site_type_symbol
_atom_site_label
_atom_site_fract_x
_atom_site_fract_y
_atom_site_fract_z
Si Si1 0.000000 0.566203 0.656251
Si Si2 0.000000 0.795047 0.446820
Si Si3 0.228425 0.614255 0.948794
Si Si4 0.712835 0.000000 0.697826
Si Si5 0.350727 0.500000 0.391771
Si Si6 0.500000 0.660102 0.922187
O O1 0.872012 0.562094 0.688109
O O2 0.000000 0.628323 0.627438
O O3 0.000000 0.500000 0.627026
O O4 0.127719 0.833137 0.433999
O O5 0.000000 0.733722 0.415993
O O6 0.000000 0.775847 0.500000
O O7 0.219590 0.559112 0.912939
O O8 0.372829 0.640437 0.949558
O O9 0.194340 0.591066 0.000000
O O10 0.750000 0.000000 0.750000
O O11 0.834671 0.000000 0.663152
O O12 0.500000 0.500000 0.405247
#
# Coordination Sequence:
#
# PCOD8285343 Si02
#       6
#    16  16  32  16  16  16
#     4   8  18  34  54  82 112 128 170 233 274 324
#     4  10  22  37  52  77 113 159 203 225 257 317
#     4  11  22  36  54  80 115 154 190 228 272 321
#     4   9  19  37  56  82 107 131 170 227 293 342
#     4  12  22  35  56  82 111 143 182 231 286 341
#     4  12  20  36  56  80 115 147 189 231 265 318
#
# _framework density 17.026541999999999
#
# number of rings (size 3 to 8) (size 9 to 14) (size 15 to 20)
#    0.857    0.571    4.286    2.571    2.000    2.857 
#    0.000    1.429    0.000    0.000    0.000    6.000 
#    0.000    0.000    0.000    0.000    0.000    0.000 
#
# Total GULP energy -347018.610469 kJ/mol
# GULP energy per Si atom -12393.521802 kJ/mol
# Density = 1.698779 g / cm^3
# Si number density = 17.026542 Si / 1000 Ang^3
#
#
#
# Elastic Constant Matrix: (Units=GPa)
#
#
# Indices 1 2 3 4 5 6 
#
# 1 119.4665 42.0287 24.7055 0.0000 0.0000 0.0000
# 2 42.0287 117.7196 56.6292 0.0000 0.0000 0.0000
# 3 24.7055 56.6292 108.1260 0.0000 0.0000 0.0000
# 4 0.0000 0.0000 0.0000 16.7258 0.0000 0.0000
# 5 0.0000 0.0000 0.0000 0.0000 19.5330 0.0000
# 6 0.0000 0.0000 0.0000 0.0000 0.0000 19.2540
#
#
#
# Elastic Compliance Matrix: (Units=1/GPa)
#
#
# Indices 1 2 3 4 5 6 
#
# 1 0.009596 -0.003170 -0.000532 0.000000 0.000000 0.000000
# 2 -0.003170 0.012403 -0.005772 0.000000 0.000000 0.000000
# 3 -0.000532 -0.005772 0.012393 0.000000 0.000000 0.000000
# 4 0.000000 0.000000 0.000000 0.059788 0.000000 0.000000
# 5 0.000000 0.000000 0.000000 0.000000 0.051196 0.000000
# 6 0.000000 0.000000 0.000000 0.000000 0.000000 0.051937
#
#
# Mechanical properties :
#
#
# Convention : Reuss Voigt Hill
#
# Bulk Modulus (GPa) = 64.74984 65.78209 65.26597
# Shear Modulus (GPa) = 22.58276 25.89911 24.24093
#
# Velocity S-wave (km/s) = 3.64583 3.90436 3.77731
# Velocity P-wave (km/s) = 7.47222 7.68403 7.57886
#
# Compressibility (1/GPa) = 0.01544405
#
# Stress axis : x y z
#
# Youngs Moduli (GPa) = 104.21221 80.62647 80.69163
#
# Poissons Ratio (x) = 0.25557 0.04296
# Poissons Ratio (y) = 0.33034 0.46571
# Poissons Ratio (z) = 0.05548 0.46534
#
# Static dielectric constant tensor:
#      x y z
#    x 3.441580 0.000000 0.000000 
#    y 0.000000 3.022330 0.000000 
#    z 0.000000 0.000000 2.786100 
# 
# 
# High freq. dielectric constant tensor:
#      x y z
#    x 1.682050 0.000000 0.000000 
#    y 0.000000 1.638720 0.000000 
#    z 0.000000 0.000000 1.620780 
# 
# From -- ./inp_files/44321.got.cif
#   From: 2010.03.12/outbox.cif.g09.slc.cpg/sg69_23_cif.got.tgz:44321.got - 2010.04.10 23:52:46.
