data_PCOD8285528
_publ_section_title
;
Structure prediction by ZEFSAII (Michael W. Deem and Ramdas Pophale) SiO2 
 PCOD8285528
Probable space group: F M M M
;
_chemical_formula_sum "Si O2"
_cell_formula_units_Z 152
_cell_length_a 13.840895
_cell_length_b 27.809219
_cell_length_c 25.597964
_cell_angle_alpha 90.000000
_cell_angle_beta 90.000000
_cell_angle_gamma 90.000000
_cell_volume 9852.771028
_symmetry_space_group_name_H-M "F M M M"
_symmetry_group_IT_number 69
_symmetry_cell_setting 'orthorhombic'
loop_
_space_group_symop_operation_xyz
x,y,z
-x,-y,z
x,-y,-z
-x,y,-z
-x,-y,-z
x,y,-z
-x,y,z
x,-y,z
x,1/2+y,1/2+z
-x,1/2-y,1/2+z
x,1/2-y,1/2-z
-x,1/2+y,1/2-z
-x,1/2-y,1/2-z
x,1/2+y,1/2-z
-x,1/2+y,1/2+z
x,1/2-y,1/2+z
1/2+x,y,1/2+z
1/2-x,-y,1/2+z
1/2+x,-y,1/2-z
1/2-x,y,1/2-z
1/2-x,-y,1/2-z
1/2+x,y,1/2-z
1/2-x,y,1/2+z
1/2+x,-y,1/2+z
1/2+x,1/2+y,z
1/2-x,1/2-y,z
1/2+x,1/2-y,-z
1/2-x,1/2+y,-z
1/2-x,1/2-y,-z
1/2+x,1/2+y,-z
1/2-x,1/2+y,z
1/2+x,1/2-y,z
loop_
_atom_site_type_symbol
_atom_site_label
_atom_site_fract_x
_atom_site_fract_y
_atom_site_fract_z
Si Si1 0.209064 0.695950 0.500000
Si Si2 0.304604 0.852618 0.097712
Si Si3 0.500000 0.204347 0.098483
Si Si4 0.389417 0.445744 0.561022
Si Si5 0.500000 0.272557 0.000000
Si Si6 0.712662 0.803023 0.692471
Si Si7 0.500000 0.774245 0.305668
O O1 0.250000 0.750000 0.500000
O O2 0.239929 0.668156 0.448420
O O3 0.093665 0.694182 0.500000
O O4 0.408385 0.829046 0.093953
O O5 0.318850 0.909951 0.092443
O O6 0.254412 0.842274 0.152951
O O7 0.500000 0.231835 0.152795
O O8 0.500000 0.240994 0.051425
O O9 0.382313 0.433366 0.500000
O O10 0.500000 0.439741 0.579652
O O11 0.353901 0.500000 0.572081
O O12 0.750000 0.816145 0.750000
O O13 0.750000 0.750000 0.676089
O O14 0.596377 0.806283 0.689025
O O15 0.500000 0.750000 0.250000
#
# Coordination Sequence:
#
# PCOD8285528 Si02
#       7
#    16  32  16  32   8  32  16
#     4  12  22  32  45  69 101 137 167 199 244 303
#     4  12  20  32  50  74 101 135 167 203 254 307
#     4  12  20  28  49  69 100 136 166 201 245 292
#     4   9  18  32  52  78 105 130 164 213 264 310
#     4  12  24  32  40  66 108 136 168 196 240 298
#     4  11  21  34  49  72 101 138 177 204 243 292
#     4  12  20  34  50  67 100 141 178 214 232 278
#
# _framework density 15.427132
#
# number of rings (size 3 to 8) (size 9 to 14) (size 15 to 20)
#    0.000    0.842    8.421    2.526    0.000    0.000 
#    0.000    0.000    0.000    0.632    0.000    3.684 
#    0.000    0.000    0.000    0.000    0.000    0.000 
#
# Total GULP energy -471276.200235 kJ/mol
# GULP energy per Si atom -12402.005269 kJ/mol
# Density = 1.539202 g / cm^3
# Si number density = 15.427132 Si / 1000 Ang^3
#
#
#
# Elastic Constant Matrix: (Units=GPa)
#
#
# Indices 1 2 3 4 5 6 
#
# 1 132.2767 46.6931 35.5527 0.0000 0.0000 0.0000
# 2 46.6931 101.7233 54.0049 0.0000 0.0000 0.0000
# 3 35.5527 54.0049 92.4469 0.0000 0.0000 0.0000
# 4 0.0000 0.0000 0.0000 21.2798 0.0000 0.0000
# 5 0.0000 0.0000 0.0000 0.0000 -93.1208 0.0000
# 6 0.0000 0.0000 0.0000 0.0000 0.0000 23.3830
#
#
#
# Elastic Compliance Matrix: (Units=1/GPa)
#
#
# Indices 1 2 3 4 5 6 
#
# 1 0.009172 -0.003388 -0.001548 0.000000 0.000000 0.000000
# 2 -0.003388 0.015502 -0.007753 0.000000 0.000000 0.000000
# 3 -0.001548 -0.007753 0.015941 0.000000 0.000000 0.000000
# 4 0.000000 0.000000 0.000000 0.046993 0.000000 0.000000
# 5 0.000000 0.000000 0.000000 0.000000 -0.010739 0.000000
# 6 0.000000 0.000000 0.000000 0.000000 0.000000 0.042766
#
#
# Mechanical properties :
#
#
# Convention : Reuss Voigt Hill
#
# Bulk Modulus (GPa) = 65.62911 66.54982 66.08947
# Shear Modulus (GPa) = 33.31283 2.98814 18.15048
#
# Velocity S-wave (km/s) = 4.65194 1.39325 3.43378
# Velocity P-wave (km/s) = 8.45504 6.76905 7.65858
#
# Compressibility (1/GPa) = 0.01523714
#
# Stress axis : x y z
#
# Youngs Moduli (GPa) = 109.02708 64.50865 62.73051
#
# Poissons Ratio (x) = 0.21858 0.09710
# Poissons Ratio (y) = 0.36942 0.48633
# Poissons Ratio (z) = 0.16877 0.50011
#
# Static dielectric constant tensor:
#      x y z
#    x 3.182400 0.000000 0.000000 
#    y 0.000000 2.786960 0.000000 
#    z 0.000000 0.000000 3.006620 
# 
# 
# High freq. dielectric constant tensor:
#      x y z
#    x 1.598690 0.000000 0.000000 
#    y 0.000000 1.557390 0.000000 
#    z 0.000000 0.000000 1.596140 
# 
# From -- ./inp_files/10615.got.cif
#   From: 2010.03.12/outbox.cif.g09.slc.cpg/sg69_6_cif.got.tgz:10615.got - 2010.04.10 23:52:46.
