data_PCOD8285572
_publ_section_title
;
Structure prediction by ZEFSAII (Michael W. Deem and Ramdas Pophale) SiO2 
 PCOD8285572
Probable space group: F M M M
;
_chemical_formula_sum "Si O2"
_cell_formula_units_Z 160
_cell_length_a 17.597094
_cell_length_b 22.667329
_cell_length_c 20.010574
_cell_angle_alpha 90.000000
_cell_angle_beta 90.000000
_cell_angle_gamma 90.000000
_cell_volume 7981.800131
_symmetry_space_group_name_H-M "F M M M"
_symmetry_group_IT_number 69
_symmetry_cell_setting 'orthorhombic'
loop_
_space_group_symop_operation_xyz
x,y,z
-x,-y,z
x,-y,-z
-x,y,-z
-x,-y,-z
x,y,-z
-x,y,z
x,-y,z
x,1/2+y,1/2+z
-x,1/2-y,1/2+z
x,1/2-y,1/2-z
-x,1/2+y,1/2-z
-x,1/2-y,1/2-z
x,1/2+y,1/2-z
-x,1/2+y,1/2+z
x,1/2-y,1/2+z
1/2+x,y,1/2+z
1/2-x,-y,1/2+z
1/2+x,-y,1/2-z
1/2-x,y,1/2-z
1/2-x,-y,1/2-z
1/2+x,y,1/2-z
1/2-x,y,1/2+z
1/2+x,-y,1/2+z
1/2+x,1/2+y,z
1/2-x,1/2-y,z
1/2+x,1/2-y,-z
1/2-x,1/2+y,-z
1/2-x,1/2-y,-z
1/2+x,1/2+y,-z
1/2-x,1/2+y,z
1/2+x,1/2-y,z
loop_
_atom_site_type_symbol
_atom_site_label
_atom_site_fract_x
_atom_site_fract_y
_atom_site_fract_z
Si Si1 0.680883 0.295748 0.500000
Si Si2 0.913761 0.183558 0.259588
Si Si3 0.688398 0.123967 0.129420
Si Si4 0.185284 0.500000 0.925277
Si Si5 0.362798 0.622820 0.130540
Si Si6 0.088658 0.188106 0.000000
Si Si7 0.865903 0.000000 0.074984
O O1 0.750000 0.250000 0.500000
O O2 0.682244 0.336498 0.435761
O O3 0.602647 0.258391 0.500000
O O4 0.882825 0.250000 0.250000
O O5 0.861656 0.150278 0.311976
O O6 0.913037 0.150161 0.189027
O O7 0.000000 0.184923 0.286576
O O8 0.657605 0.058194 0.113889
O O9 0.775327 0.121619 0.153823
O O10 0.275658 0.500000 0.930897
O O11 0.150489 0.500000 0.000000
O O12 0.370103 0.661477 0.064248
O O13 0.394085 0.557343 0.115070
O O14 0.000000 0.173741 0.000000
O O15 0.900718 0.000000 0.000000
#
# Coordination Sequence:
#
# PCOD8285572 Si02
#       7
#    16  32  32  16  32  16  16
#     4  12  22  37  63  99 121 157 221 265 299 373
#     4  11  26  44  60  86 130 173 210 262 327 382
#     4  11  22  39  68  94 124 163 215 266 311 378
#     4   9  18  37  63  95 126 157 202 269 323 359
#     4  11  21  40  64  93 125 164 211 255 311 383
#     4  12  24  37  60  93 132 164 198 259 326 371
#     4   9  18  35  64  96 127 160 204 262 316 374
#
# _framework density 20.045604000000001
#
# number of rings (size 3 to 8) (size 9 to 14) (size 15 to 20)
#    0.000    1.200    4.000    2.400    0.000    4.000 
#    0.000    7.000    0.000    0.600    0.000    0.000 
#    0.000    0.000    0.000    0.000    0.000    0.000 
#
# Total GULP energy -496153.684215 kJ/mol
# GULP energy per Si atom -12403.842105 kJ/mol
# Density = 1.999998 g / cm^3
# Si number density = 20.045604 Si / 1000 Ang^3
#
#
#
# Elastic Constant Matrix: (Units=GPa)
#
#
# Indices 1 2 3 4 5 6 
#
# 1 67.9226 33.0377 27.0404 0.0000 0.0000 0.0000
# 2 33.0377 180.5847 63.3634 0.0000 0.0000 0.0000
# 3 27.0404 63.3634 119.4528 0.0000 0.0000 0.0000
# 4 0.0000 0.0000 0.0000 37.5461 0.0000 0.0000
# 5 0.0000 0.0000 0.0000 0.0000 15.9235 0.0000
# 6 0.0000 0.0000 0.0000 0.0000 0.0000 9.8348
#
#
#
# Elastic Compliance Matrix: (Units=1/GPa)
#
#
# Indices 1 2 3 4 5 6 
#
# 1 0.016828 -0.002140 -0.002674 0.000000 0.000000 0.000000
# 2 -0.002140 0.007076 -0.003269 0.000000 0.000000 0.000000
# 3 -0.002674 -0.003269 0.010711 0.000000 0.000000 0.000000
# 4 0.000000 0.000000 0.000000 0.026634 0.000000 0.000000
# 5 0.000000 0.000000 0.000000 0.000000 0.062800 0.000000
# 6 0.000000 0.000000 0.000000 0.000000 0.000000 0.101680
#
#
# Mechanical properties :
#
#
# Convention : Reuss Voigt Hill
#
# Bulk Modulus (GPa) = 54.20526 68.31590 61.26058
# Shear Modulus (GPa) = 20.15756 28.96212 24.55984
#
# Velocity S-wave (km/s) = 3.17454 3.80519 3.50408
# Velocity P-wave (km/s) = 6.36683 7.31165 6.85554
#
# Compressibility (1/GPa) = 0.01844840
#
# Stress axis : x y z
#
# Youngs Moduli (GPa) = 59.42372 141.31902 93.36324
#
# Poissons Ratio (x) = 0.30249 0.24965
# Poissons Ratio (y) = 0.12719 0.30521
# Poissons Ratio (z) = 0.15890 0.46197
#
# Static dielectric constant tensor:
#      x y z
#    x 3.404790 0.000000 0.000000 
#    y 0.000000 4.066920 0.000000 
#    z 0.000000 0.000000 3.327680 
# 
# 
# High freq. dielectric constant tensor:
#      x y z
#    x 1.760180 0.000000 0.000000 
#    y 0.000000 1.801350 0.000000 
#    z 0.000000 0.000000 1.784790 
# 
# From -- ./inp_files/24705.got.cif
#   From: 2010.03.12/outbox.cif.g09.slc.cpg/sg69_13_cif.got.tgz:24705.got - 2010.04.10 23:52:46.
