data_PCOD8285046
_publ_section_title
;
Structure prediction by ZEFSAII (Michael W. Deem and Ramdas Pophale) SiO2 
 PCOD8285046
Probable space group: F M M M
;
_chemical_formula_sum "Si O2"
_cell_formula_units_Z 168
_cell_length_a 14.078266
_cell_length_b 22.118614
_cell_length_c 26.616168
_cell_angle_alpha 90.000000
_cell_angle_beta 90.000000
_cell_angle_gamma 90.000000
_cell_volume 8288.054638
_symmetry_space_group_name_H-M "F M M M"
_symmetry_group_IT_number 69
_symmetry_cell_setting 'orthorhombic'
loop_
_space_group_symop_operation_xyz
x,y,z
-x,-y,z
x,-y,-z
-x,y,-z
-x,-y,-z
x,y,-z
-x,y,z
x,-y,z
x,1/2+y,1/2+z
-x,1/2-y,1/2+z
x,1/2-y,1/2-z
-x,1/2+y,1/2-z
-x,1/2-y,1/2-z
x,1/2+y,1/2-z
-x,1/2+y,1/2+z
x,1/2-y,1/2+z
1/2+x,y,1/2+z
1/2-x,-y,1/2+z
1/2+x,-y,1/2-z
1/2-x,y,1/2-z
1/2-x,-y,1/2-z
1/2+x,y,1/2-z
1/2-x,y,1/2+z
1/2+x,-y,1/2+z
1/2+x,1/2+y,z
1/2-x,1/2-y,z
1/2+x,1/2-y,-z
1/2-x,1/2+y,-z
1/2-x,1/2-y,-z
1/2+x,1/2+y,-z
1/2-x,1/2+y,z
1/2+x,1/2-y,z
loop_
_atom_site_type_symbol
_atom_site_label
_atom_site_fract_x
_atom_site_fract_y
_atom_site_fract_z
Si Si1 0.391425 0.209221 0.080591
Si Si2 0.193689 0.165135 0.943608
Si Si3 0.600867 0.325453 0.692606
Si Si4 0.360100 0.933298 0.741091
Si Si5 0.108616 0.569933 0.628488
Si Si6 0.250000 0.250000 0.250000
O O1 0.500000 0.202353 0.058702
O O2 0.307130 0.177350 0.049262
O O3 0.363874 0.280173 0.083207
O O4 0.385589 0.174874 0.133358
O O5 0.175958 0.106392 0.909530
O O6 0.153535 0.155367 0.000000
O O7 0.500000 0.293151 0.704997
O O8 0.594625 0.392775 0.715199
O O9 0.688750 0.291577 0.715146
O O10 0.250000 0.937582 0.750000
O O11 0.379736 0.905590 0.685620
O O12 0.406722 0.000000 0.744361
O O13 0.140603 0.500000 0.626166
O O14 0.000000 0.578076 0.611238
#
# Coordination Sequence:
#
# PCOD8285046 Si02
#       6
#    32  32  32  32  32   8
#     4  10  22  39  58  86 120 152 193 241 292 351
#     4  11  23  39  63  89 113 151 198 245 303 358
#     4  11  23  36  57  85 115 158 195 230 285 343
#     4  10  20  37  60  85 118 158 195 234 282 338
#     4  10  22  39  60  88 121 155 193 243 299 351
#     4  12  22  36  50  78 122 156 190 234 272 330
#
# _framework density 20.270136999999998
#
# number of rings (size 3 to 8) (size 9 to 14) (size 15 to 20)
#    0.000    1.524    0.952    4.857    2.667    4.190 
#    0.000    0.952    0.000    1.714    0.000    1.333 
#    0.000    0.000    0.000    0.000    0.000    0.000 
#
# Total GULP energy -520493.677059 kJ/mol
# GULP energy per Si atom -12392.706597 kJ/mol
# Density = 2.022400 g / cm^3
# Si number density = 20.270137 Si / 1000 Ang^3
#
#
#
# Elastic Constant Matrix: (Units=GPa)
#
#
# Indices 1 2 3 4 5 6 
#
# 1 125.1370 23.0243 22.4093 0.0000 0.0000 0.0000
# 2 23.0243 89.8991 58.5005 0.0000 0.0000 0.0000
# 3 22.4093 58.5005 127.1826 0.0000 0.0000 0.0000
# 4 0.0000 0.0000 0.0000 14.9494 0.0000 0.0000
# 5 0.0000 0.0000 0.0000 0.0000 3.6079 0.0000
# 6 0.0000 0.0000 0.0000 0.0000 0.0000 308.8361
#
#
#
# Elastic Compliance Matrix: (Units=1/GPa)
#
#
# Indices 1 2 3 4 5 6 
#
# 1 0.008430 -0.001702 -0.000703 0.000000 0.000000 0.000000
# 2 -0.001702 0.016219 -0.007160 0.000000 0.000000 0.000000
# 3 -0.000703 -0.007160 0.011280 0.000000 0.000000 0.000000
# 4 0.000000 0.000000 0.000000 0.066892 0.000000 0.000000
# 5 0.000000 0.000000 0.000000 0.000000 0.277172 0.000000
# 6 0.000000 0.000000 0.000000 0.000000 0.000000 0.003238
#
#
# Mechanical properties :
#
#
# Convention : Reuss Voigt Hill
#
# Bulk Modulus (GPa) = 59.52546 61.12075 60.32311
# Shear Modulus (GPa) = 12.25609 81.36433 46.81021
#
# Velocity S-wave (km/s) = 2.46161 6.34249 4.81075
# Velocity P-wave (km/s) = 6.12447 9.15722 7.78986
#
# Compressibility (1/GPa) = 0.01679953
#
# Stress axis : x y z
#
# Youngs Moduli (GPa) = 118.62126 61.65616 88.65181
#
# Poissons Ratio (x) = 0.10493 0.06228
# Poissons Ratio (y) = 0.20188 0.63478
# Poissons Ratio (z) = 0.08334 0.44148
#
# Static dielectric constant tensor:
#      x y z
#    x 3.833670 0.000000 0.000000 
#    y 0.000000 3.808250 0.000000 
#    z 0.000000 0.000000 3.627430 
# 
# 
# High freq. dielectric constant tensor:
#      x y z
#    x 1.813120 0.000000 0.000000 
#    y 0.000000 1.773800 0.000000 
#    z 0.000000 0.000000 1.786150 
# 
# From -- ./inp_files/40977.got.cif
#   From: 2010.03.12/outbox.cif.g09.slc.cpg/sg69_21_cif.got.tgz:40977.got - 2010.04.10 23:52:46.
