data_PCOD8285919
_publ_section_title
;
Structure prediction by ZEFSAII (Michael W. Deem and Ramdas Pophale) SiO2 
 PCOD8285919
Probable space group: F D D D
;
_chemical_formula_sum "Si O2"
_cell_formula_units_Z 80
_cell_length_a 31.876320
_cell_length_b 6.955405
_cell_length_c 16.497393
_cell_angle_alpha 90.000000
_cell_angle_beta 90.000000
_cell_angle_gamma 90.000000
_cell_volume 3657.681801
_symmetry_space_group_name_H-M "F D D D"
_symmetry_group_IT_number 70
_space_group.IT_coordinate_system_code '2'
_symmetry_cell_setting 'orthorhombic'
loop_
_space_group_symop_operation_xyz
x,y,z
1/4-x,1/4-y,z
x,1/4-y,1/4-z
1/4-x,y,1/4-z
-x,-y,-z
3/4+x,3/4+y,-z
-x,3/4+y,3/4+z
3/4+x,-y,3/4+z
x,1/2+y,1/2+z
1/4-x,3/4-y,1/2+z
x,3/4-y,3/4-z
1/4-x,1/2+y,3/4-z
-x,1/2-y,1/2-z
3/4+x,1/4+y,1/2-z
-x,1/4+y,1/4+z
3/4+x,1/2-y,1/4+z
1/2+x,y,1/2+z
3/4-x,1/4-y,1/2+z
1/2+x,1/4-y,3/4-z
3/4-x,y,3/4-z
1/2-x,-y,1/2-z
1/4+x,3/4+y,1/2-z
1/2-x,3/4+y,1/4+z
1/4+x,-y,1/4+z
1/2+x,1/2+y,z
3/4-x,3/4-y,z
1/2+x,3/4-y,1/4-z
3/4-x,1/2+y,1/4-z
1/2-x,1/2-y,-z
1/4+x,1/4+y,-z
1/2-x,1/4+y,3/4+z
1/4+x,1/2-y,3/4+z
loop_
_atom_site_type_symbol
_atom_site_label
_atom_site_fract_x
_atom_site_fract_y
_atom_site_fract_z
Si Si1 0.373166 0.655661 0.279282
Si Si2 0.757084 0.125000 0.125000
Si Si3 0.944264 0.873716 0.516549
O O1 0.375000 0.625141 0.375000
O O2 0.328013 0.573535 0.256975
O O3 0.410061 0.546350 0.229961
O O4 0.375000 0.875000 0.252153
O O5 0.729129 0.187167 0.201456
O O6 0.783935 0.318073 0.102017
#
# Coordination Sequence:
#
# PCOD8285919 Si02
#       3
#    32  16  32
#     4  10  19  37  62  86 117 171 211 249 303 378
#     4  10  20  35  62  88 124 162 200 266 316 363
#     4  10  19  39  58  87 124 163 206 259 308 370
#
# _framework density 21.871776000000001
#
# number of rings (size 3 to 8) (size 9 to 14) (size 15 to 20)
#    0.000    2.000    4.000    1.200    0.000    0.000 
#    7.200   12.000    0.000    0.000    0.000    0.000 
#    0.000    0.000    0.000    0.000    0.000    0.000 
#
# Total GULP energy -247860.987604 kJ/mol
# GULP energy per Si atom -12393.049380 kJ/mol
# Density = 2.182200 g / cm^3
# Si number density = 21.871776 Si / 1000 Ang^3
#
#
#
# Elastic Constant Matrix: (Units=GPa)
#
#
# Indices 1 2 3 4 5 6 
#
# 1 131.8866 67.6320 54.5790 0.0001 -0.0001 -0.0001
# 2 67.6320 161.5080 46.8831 0.0002 -0.0001 -0.0002
# 3 54.5790 46.8831 88.4875 0.0000 0.0000 0.0000
# 4 0.0001 0.0002 0.0000 33.3051 0.0000 -0.0001
# 5 -0.0001 -0.0001 0.0000 0.0000 11.7161 0.0001
# 6 -0.0001 -0.0002 0.0000 -0.0001 0.0001 21.4971
#
#
#
# Elastic Compliance Matrix: (Units=1/GPa)
#
#
# Indices 1 2 3 4 5 6 
#
# 1 0.011461 -0.003246 -0.005349 0.000000 0.000000 0.000000
# 2 -0.003246 0.008237 -0.002362 0.000000 0.000000 0.000000
# 3 -0.005349 -0.002362 0.015851 0.000000 0.000000 0.000000
# 4 0.000000 0.000000 0.000000 0.030025 0.000000 0.000000
# 5 0.000000 0.000000 0.000000 0.000000 0.085353 0.000000
# 6 0.000000 0.000000 0.000000 0.000000 0.000000 0.046518
#
#
# Mechanical properties :
#
#
# Convention : Reuss Voigt Hill
#
# Bulk Modulus (GPa) = 73.34117 80.00781 76.67449
# Shear Modulus (GPa) = 22.33108 27.48953 24.91030
#
# Velocity S-wave (km/s) = 3.19878 3.54905 3.37846
# Velocity P-wave (km/s) = 6.87372 7.31124 7.09585
#
# Compressibility (1/GPa) = 0.01363491
#
# Stress axis : x y z
#
# Youngs Moduli (GPa) = 87.25552 121.40860 63.08597
#
# Poissons Ratio (x) = 0.39415 0.33743
# Poissons Ratio (y) = 0.28327 0.14898
# Poissons Ratio (z) = 0.46671 0.28671
#
# Static dielectric constant tensor:
#      x y z
#    x 4.238910 0.000000 0.000000 
#    y 0.000000 3.838740 0.000000 
#    z 0.000000 0.000000 3.838190 
# 
# 
# High freq. dielectric constant tensor:
#      x y z
#    x 1.880020 0.000000 0.000000 
#    y 0.000000 1.842370 0.000000 
#    z 0.000000 0.000000 1.844710 
# 
# From -- ./inp_files/39161.got.cif
#   From: 2010.03.12/outbox.cif.g09.slc.cpg/sg70_20_cif.got.tgz:39161.got - 2010.04.16 13:46:32.
