data_PCOD8285187
_publ_section_title
;
Structure prediction by ZEFSAII (Michael W. Deem and Ramdas Pophale) SiO2 
 PCOD8285187
Probable space group: F M M M
;
_chemical_formula_sum "Si O2"
_cell_formula_units_Z 192
_cell_length_a 27.493171
_cell_length_b 15.811181
_cell_length_c 22.182602
_cell_angle_alpha 90.000000
_cell_angle_beta 90.000000
_cell_angle_gamma 90.000000
_cell_volume 9642.766063
_symmetry_space_group_name_H-M "F M M M"
_symmetry_group_IT_number 69
_symmetry_cell_setting 'orthorhombic'
loop_
_space_group_symop_operation_xyz
x,y,z
-x,-y,z
x,-y,-z
-x,y,-z
-x,-y,-z
x,y,-z
-x,y,z
x,-y,z
x,1/2+y,1/2+z
-x,1/2-y,1/2+z
x,1/2-y,1/2-z
-x,1/2+y,1/2-z
-x,1/2-y,1/2-z
x,1/2+y,1/2-z
-x,1/2+y,1/2+z
x,1/2-y,1/2+z
1/2+x,y,1/2+z
1/2-x,-y,1/2+z
1/2+x,-y,1/2-z
1/2-x,y,1/2-z
1/2-x,-y,1/2-z
1/2+x,y,1/2-z
1/2-x,y,1/2+z
1/2+x,-y,1/2+z
1/2+x,1/2+y,z
1/2-x,1/2-y,z
1/2+x,1/2-y,-z
1/2-x,1/2+y,-z
1/2-x,1/2-y,-z
1/2+x,1/2+y,-z
1/2-x,1/2+y,z
1/2+x,1/2-y,z
loop_
_atom_site_type_symbol
_atom_site_label
_atom_site_fract_x
_atom_site_fract_y
_atom_site_fract_z
Si Si1 0.381799 0.000000 0.570431
Si Si2 0.373614 0.902718 0.867850
Si Si3 0.444746 0.347604 0.736473
Si Si4 0.445171 0.363391 0.129211
Si Si5 0.218416 0.333472 0.071447
Si Si6 0.554885 0.694326 0.433784
Si Si7 0.275456 0.000000 0.429093
O O1 0.409199 0.084255 0.588497
O O2 0.328697 0.000000 0.601135
O O3 0.375616 0.000000 0.500000
O O4 0.401215 0.881997 0.805151
O O5 0.329028 0.839263 0.885054
O O6 0.412851 0.888111 0.920642
O O7 0.356013 0.000000 0.868265
O O8 0.500000 0.364905 0.710703
O O9 0.437983 0.250000 0.750000
O O10 0.439098 0.391814 0.801595
O O11 0.500000 0.381405 0.107025
O O12 0.433677 0.264206 0.117692
O O13 0.250000 0.250000 0.086430
O O14 0.248797 0.415098 0.091426
O O15 0.204272 0.334806 0.000000
O O16 0.566757 0.731552 0.500000
O O17 0.500000 0.663177 0.429868
O O18 0.279974 0.000000 0.500000
#
# Coordination Sequence:
#
# PCOD8285187 Si02
#       7
#    16  32  32  32  32  32  16
#     4  11  23  36  60  92 123 156 199 267 336 382
#     4  12  24  38  63  95 127 162 211 262 316 377
#     4  10  21  40  63  88 122 169 219 256 294 361
#     4  10  21  38  59  87 124 166 212 255 302 375
#     4  10  22  41  66  93 126 168 212 266 330 394
#     4  10  21  36  56  87 126 164 202 251 316 384
#     4   9  20  39  59  89 124 155 205 266 318 383
#
# _framework density 19.911299
#
# number of rings (size 3 to 8) (size 9 to 14) (size 15 to 20)
#    0.000    1.667    2.500    1.750    3.500    3.667 
#    0.000    0.833    0.000    4.500    0.000    0.000 
#    0.000    0.000    0.000    0.000    0.000    0.000 
#
# Total GULP energy -594836.322073 kJ/mol
# GULP energy per Si atom -12392.423377 kJ/mol
# Density = 1.986598 g / cm^3
# Si number density = 19.911299 Si / 1000 Ang^3
#
#
#
# Elastic Constant Matrix: (Units=GPa)
#
#
# Indices 1 2 3 4 5 6 
#
# 1 117.9358 48.6216 50.6712 0.0000 0.0000 0.0000
# 2 48.6216 98.1054 22.9917 0.0000 0.0000 0.0000
# 3 50.6712 22.9917 88.3387 0.0000 0.0000 0.0000
# 4 0.0000 0.0000 0.0000 22.0573 0.0000 0.0000
# 5 0.0000 0.0000 0.0000 0.0000 32.0152 0.0000
# 6 0.0000 0.0000 0.0000 0.0000 0.0000 11.8409
#
#
#
# Elastic Compliance Matrix: (Units=1/GPa)
#
#
# Indices 1 2 3 4 5 6 
#
# 1 0.013291 -0.005112 -0.006293 0.000000 0.000000 0.000000
# 2 -0.005112 0.012822 -0.000405 0.000000 0.000000 0.000000
# 3 -0.006293 -0.000405 0.015035 0.000000 0.000000 0.000000
# 4 0.000000 0.000000 0.000000 0.045337 0.000000 0.000000
# 5 0.000000 0.000000 0.000000 0.000000 0.031235 0.000000
# 6 0.000000 0.000000 0.000000 0.000000 0.000000 0.084453
#
#
# Mechanical properties :
#
#
# Convention : Reuss Voigt Hill
#
# Bulk Modulus (GPa) = 57.05292 60.99434 59.02363
# Shear Modulus (GPa) = 21.58578 25.32236 23.45407
#
# Velocity S-wave (km/s) = 3.29613 3.57004 3.43582
# Velocity P-wave (km/s) = 6.57280 6.90602 6.74147
#
# Compressibility (1/GPa) = 0.01752759
#
# Stress axis : x y z
#
# Youngs Moduli (GPa) = 75.24153 77.99373 66.51121
#
# Poissons Ratio (x) = 0.39871 0.41855
# Poissons Ratio (y) = 0.38464 0.02692
# Poissons Ratio (z) = 0.47349 0.03157
#
# Static dielectric constant tensor:
#      x y z
#    x 3.727000 0.000000 0.000000 
#    y 0.000000 3.548240 0.000000 
#    z 0.000000 0.000000 3.734230 
# 
# 
# High freq. dielectric constant tensor:
#      x y z
#    x 1.775350 0.000000 0.000000 
#    y 0.000000 1.772370 0.000000 
#    z 0.000000 0.000000 1.765130 
# 
# From -- ./inp_files/38405.got.cif
#   From: 2010.03.12/outbox.cif.g09.slc.cpg/sg69_20_cif.got.tgz:38405.got - 2010.04.10 23:52:46.
