data_PCOD8285891
_publ_section_title
;
Structure prediction by ZEFSAII (Michael W. Deem and Ramdas Pophale) SiO2 
 PCOD8285891
Probable space group: F D D D
;
_chemical_formula_sum "Si O2"
_cell_formula_units_Z 208
_cell_length_a 30.180794
_cell_length_b 19.634810
_cell_length_c 19.573687
_cell_angle_alpha 90.000000
_cell_angle_beta 90.000000
_cell_angle_gamma 90.000000
_cell_volume 11599.252524
_symmetry_space_group_name_H-M "F D D D"
_symmetry_group_IT_number 70
_space_group.IT_coordinate_system_code '2'
_symmetry_cell_setting 'orthorhombic'
loop_
_space_group_symop_operation_xyz
x,y,z
1/4-x,1/4-y,z
x,1/4-y,1/4-z
1/4-x,y,1/4-z
-x,-y,-z
3/4+x,3/4+y,-z
-x,3/4+y,3/4+z
3/4+x,-y,3/4+z
x,1/2+y,1/2+z
1/4-x,3/4-y,1/2+z
x,3/4-y,3/4-z
1/4-x,1/2+y,3/4-z
-x,1/2-y,1/2-z
3/4+x,1/4+y,1/2-z
-x,1/4+y,1/4+z
3/4+x,1/2-y,1/4+z
1/2+x,y,1/2+z
3/4-x,1/4-y,1/2+z
1/2+x,1/4-y,3/4-z
3/4-x,y,3/4-z
1/2-x,-y,1/2-z
1/4+x,3/4+y,1/2-z
1/2-x,3/4+y,1/4+z
1/4+x,-y,1/4+z
1/2+x,1/2+y,z
3/4-x,3/4-y,z
1/2+x,3/4-y,1/4-z
3/4-x,1/2+y,1/4-z
1/2-x,1/2-y,-z
1/4+x,1/4+y,-z
1/2-x,1/4+y,3/4+z
1/4+x,1/2-y,3/4+z
loop_
_atom_site_type_symbol
_atom_site_label
_atom_site_fract_x
_atom_site_fract_y
_atom_site_fract_z
Si Si1 0.415483 0.831497 0.123408
Si Si2 0.632460 0.780293 0.785038
Si Si3 0.533090 0.317020 0.316081
Si Si4 0.546454 0.275493 0.772693
Si Si5 0.749367 0.580062 0.830496
Si Si6 0.814103 0.125000 0.625000
Si Si7 0.583254 0.872990 0.580606
O O1 0.375000 0.875000 0.153349
O O2 0.397485 0.796865 0.052620
O O3 0.426917 0.781382 0.185976
O O4 0.457441 0.877280 0.105248
O O5 0.579969 0.791355 0.786446
O O6 0.652413 0.819343 0.848356
O O7 0.653906 0.806978 0.714814
O O8 0.536224 0.375000 0.375000
O O9 0.506721 0.345474 0.250131
O O10 0.508134 0.250339 0.345239
O O11 0.500000 0.250000 0.750000
O O12 0.532907 0.340241 0.819427
O O13 0.575283 0.307319 0.711529
O O14 0.791384 0.604063 0.873734
O O15 0.625000 0.893328 0.625000
#
# Coordination Sequence:
#
# PCOD8285891 Si02
#       7
#    32  32  32  32  32  16  32
#     4  11  22  39  61  90 123 158 201 247 297 354
#     4  10  19  35  60  83 115 157 201 236 291 355
#     4  11  23  40  61  87 118 156 204 251 302 357
#     4  10  20  38  60  89 117 155 199 241 292 353
#     4  11  24  39  58  92 122 155 198 253 302 362
#     4   8  18  32  54  82 109 150 193 234 278 344
#     4  11  22  39  61  90 123 158 201 247 297 354
#
# _framework density 17.932189999999999
#
# number of rings (size 3 to 8) (size 9 to 14) (size 15 to 20)
#    0.000    1.538    5.385    0.000    2.154    0.000 
#    0.000    1.538    0.000    0.000    0.000    0.000 
#    0.000    0.000    0.000    0.000    0.000    0.000 
#
# Total GULP energy -644339.499837 kJ/mol
# GULP energy per Si atom -12391.144228 kJ/mol
# Density = 1.789138 g / cm^3
# Si number density = 17.932190 Si / 1000 Ang^3
#
#
#
# Elastic Constant Matrix: (Units=GPa)
#
#
# Indices 1 2 3 4 5 6 
#
# 1 140.9955 62.0848 60.6240 0.0000 0.0000 0.0000
# 2 62.0848 102.0383 60.6682 0.0000 0.0000 0.0000
# 3 60.6240 60.6682 102.9091 0.0000 0.0000 0.0000
# 4 0.0000 0.0000 0.0000 28.9288 0.0000 0.0000
# 5 0.0000 0.0000 0.0000 0.0000 45.4357 0.0000
# 6 0.0000 0.0000 0.0000 0.0000 0.0000 36.7505
#
#
#
# Elastic Compliance Matrix: (Units=1/GPa)
#
#
# Indices 1 2 3 4 5 6 
#
# 1 0.010548 -0.004193 -0.003742 0.000000 0.000000 0.000000
# 2 -0.004193 0.016756 -0.007408 0.000000 0.000000 0.000000
# 3 -0.003742 -0.007408 0.016289 0.000000 0.000000 0.000000
# 4 0.000000 0.000000 0.000000 0.034568 0.000000 0.000000
# 5 0.000000 0.000000 0.000000 0.000000 0.022009 0.000000
# 6 0.000000 0.000000 0.000000 0.000000 0.000000 0.027211
#
#
# Mechanical properties :
#
#
# Convention : Reuss Voigt Hill
#
# Bulk Modulus (GPa) = 77.47800 79.18855 78.33328
# Shear Modulus (GPa) = 30.79432 33.06072 31.92752
#
# Velocity S-wave (km/s) = 4.14849 4.29844 4.22413
# Velocity P-wave (km/s) = 8.13919 8.30008 8.22003
#
# Compressibility (1/GPa) = 0.01290689
#
# Stress axis : x y z
#
# Youngs Moduli (GPa) = 94.80895 59.68013 61.39152
#
# Poissons Ratio (x) = 0.25023 0.22971
# Poissons Ratio (y) = 0.39753 0.45480
# Poissons Ratio (z) = 0.35475 0.44212
#
# Static dielectric constant tensor:
#      x y z
#    x 3.363760 0.000000 0.000000 
#    y 0.000000 3.617770 0.000000 
#    z 0.000000 0.000000 1.860630 
# 
# 
# High freq. dielectric constant tensor:
#      x y z
#    x 1.701340 0.000000 0.000000 
#    y 0.000000 1.698800 0.000000 
#    z 0.000000 0.000000 1.694690 
# 
# From -- ./inp_files/39857.got.cif
#   From: 2010.03.12/outbox.cif.g09.slc.cpg/sg70_20_cif.got.tgz:39857.got - 2010.04.16 13:46:32.
