data_PCOD8285637
_publ_section_title
;
Structure prediction by ZEFSAII (Michael W. Deem and Ramdas Pophale) SiO2 
 PCOD8285637
Probable space group: F M M M
;
_chemical_formula_sum "Si O2"
_cell_formula_units_Z 160
_cell_length_a 28.231165
_cell_length_b 19.591669
_cell_length_c 14.730379
_cell_angle_alpha 90.000000
_cell_angle_beta 90.000000
_cell_angle_gamma 90.000000
_cell_volume 8147.308403
_symmetry_space_group_name_H-M "F M M M"
_symmetry_group_IT_number 69
_symmetry_cell_setting 'orthorhombic'
loop_
_space_group_symop_operation_xyz
x,y,z
-x,-y,z
x,-y,-z
-x,y,-z
-x,-y,-z
x,y,-z
-x,y,z
x,-y,z
x,1/2+y,1/2+z
-x,1/2-y,1/2+z
x,1/2-y,1/2-z
-x,1/2+y,1/2-z
-x,1/2-y,1/2-z
x,1/2+y,1/2-z
-x,1/2+y,1/2+z
x,1/2-y,1/2+z
1/2+x,y,1/2+z
1/2-x,-y,1/2+z
1/2+x,-y,1/2-z
1/2-x,y,1/2-z
1/2-x,-y,1/2-z
1/2+x,y,1/2-z
1/2-x,y,1/2+z
1/2+x,-y,1/2+z
1/2+x,1/2+y,z
1/2-x,1/2-y,z
1/2+x,1/2-y,-z
1/2-x,1/2+y,-z
1/2-x,1/2-y,-z
1/2+x,1/2+y,-z
1/2-x,1/2+y,z
1/2+x,1/2-y,z
loop_
_atom_site_type_symbol
_atom_site_label
_atom_site_fract_x
_atom_site_fract_y
_atom_site_fract_z
Si Si1 0.355646 0.315834 0.190635
Si Si2 0.194243 0.308250 0.500000
Si Si3 0.650977 0.422671 0.664800
Si Si4 0.947809 0.618484 0.895954
Si Si5 0.205200 0.647565 0.000000
Si Si6 0.946526 0.277912 0.396147
O O1 0.339515 0.250000 0.250000
O O2 0.334220 0.320949 0.091375
O O3 0.338658 0.383572 0.241904
O O4 0.412522 0.316115 0.175034
O O5 0.203913 0.228473 0.500000
O O6 0.238021 0.362320 0.500000
O O7 0.669307 0.500000 0.672274
O O8 0.594272 0.423438 0.650337
O O9 0.679694 0.384522 0.586463
O O10 0.935256 0.698025 0.887993
O O11 0.000000 0.602769 0.853128
O O12 0.949314 0.596319 0.000000
O O13 0.937706 0.301331 0.500000
O O14 0.000000 0.294612 0.366576
#
# Coordination Sequence:
#
# PCOD8285637 Si02
#       6
#    32  16  32  32  16  32
#     4  12  22  39  67  96 130 163 216 266 314 376
#     4  11  24  44  69  95 117 155 218 272 317 367
#     4  12  25  41  62  95 134 172 206 256 327 391
#     4   9  17  31  56  91 129 168 207 253 311 379
#     4  11  23  44  67  94 124 157 203 266 329 384
#     4   9  17  32  59  94 132 168 211 264 314 363
#
# _framework density 19.638387000000002
#
# number of rings (size 3 to 8) (size 9 to 14) (size 15 to 20)
#    0.000    1.400    6.000    1.500    0.000    2.400 
#    0.000    4.500    0.000    0.000    0.000    1.400 
#    0.000    0.000    0.000    0.000    0.000    0.000 
#
# Total GULP energy -495756.236753 kJ/mol
# GULP energy per Si atom -12393.905919 kJ/mol
# Density = 1.959369 g / cm^3
# Si number density = 19.638387 Si / 1000 Ang^3
#
#
#
# Elastic Constant Matrix: (Units=GPa)
#
#
# Indices 1 2 3 4 5 6 
#
# 1 101.7734 34.3359 49.2719 0.0000 0.0000 0.0000
# 2 34.3359 88.7847 47.5535 0.0000 0.0000 0.0000
# 3 49.2719 47.5535 129.2378 0.0000 0.0000 0.0000
# 4 0.0000 0.0000 0.0000 39.8240 0.0000 0.0000
# 5 0.0000 0.0000 0.0000 0.0000 2.2328 0.0000
# 6 0.0000 0.0000 0.0000 0.0000 0.0000 16.0091
#
#
#
# Elastic Compliance Matrix: (Units=1/GPa)
#
#
# Indices 1 2 3 4 5 6 
#
# 1 0.012610 -0.002867 -0.003753 0.000000 0.000000 0.000000
# 2 -0.002867 0.014679 -0.004308 0.000000 0.000000 0.000000
# 3 -0.003753 -0.004308 0.010754 0.000000 0.000000 0.000000
# 4 0.000000 0.000000 0.000000 0.025110 0.000000 0.000000
# 5 0.000000 0.000000 0.000000 0.000000 0.447863 0.000000
# 6 0.000000 0.000000 0.000000 0.000000 0.000000 0.062464
#
#
# Mechanical properties :
#
#
# Convention : Reuss Voigt Hill
#
# Bulk Modulus (GPa) = 61.77668 64.67982 63.22825
# Shear Modulus (GPa) = 8.32317 24.18883 16.25600
#
# Velocity S-wave (km/s) = 2.06093 3.51338 2.88021
# Velocity P-wave (km/s) = 6.09825 7.03316 6.58232
#
# Compressibility (1/GPa) = 0.01618734
#
# Stress axis : x y z
#
# Youngs Moduli (GPa) = 79.30424 68.12252 92.99144
#
# Poissons Ratio (x) = 0.19528 0.34896
# Poissons Ratio (y) = 0.22734 0.40065
# Poissons Ratio (z) = 0.29760 0.29350
#
# Static dielectric constant tensor:
#      x y z
#    x 3.849370 0.000000 0.000000 
#    y 0.000000 3.264400 0.000000 
#    z 0.000000 0.000000 3.596020 
# 
# 
# High freq. dielectric constant tensor:
#      x y z
#    x 1.771190 0.000000 0.000000 
#    y 0.000000 1.722500 0.000000 
#    z 0.000000 0.000000 1.769220 
# 
# From -- ./inp_files/19560.got.cif
#   From: 2010.03.12/outbox.cif.g09.slc.cpg/sg69_10_cif.got.tgz:19560.got - 2010.04.10 23:52:46.
