data_PCOD8285195
_publ_section_title
;
Structure prediction by ZEFSAII (Michael W. Deem and Ramdas Pophale) SiO2 
 PCOD8285195
Probable space group: F M M M
;
_chemical_formula_sum "Si O2"
_cell_formula_units_Z 104
_cell_length_a 28.971318
_cell_length_b 8.500292
_cell_length_c 23.541515
_cell_angle_alpha 90.000000
_cell_angle_beta 90.000000
_cell_angle_gamma 90.000000
_cell_volume 5797.443249
_symmetry_space_group_name_H-M "F M M M"
_symmetry_group_IT_number 69
_symmetry_cell_setting 'orthorhombic'
loop_
_space_group_symop_operation_xyz
x,y,z
-x,-y,z
x,-y,-z
-x,y,-z
-x,-y,-z
x,y,-z
-x,y,z
x,-y,z
x,1/2+y,1/2+z
-x,1/2-y,1/2+z
x,1/2-y,1/2-z
-x,1/2+y,1/2-z
-x,1/2-y,1/2-z
x,1/2+y,1/2-z
-x,1/2+y,1/2+z
x,1/2-y,1/2+z
1/2+x,y,1/2+z
1/2-x,-y,1/2+z
1/2+x,-y,1/2-z
1/2-x,y,1/2-z
1/2-x,-y,1/2-z
1/2+x,y,1/2-z
1/2-x,y,1/2+z
1/2+x,-y,1/2+z
1/2+x,1/2+y,z
1/2-x,1/2-y,z
1/2+x,1/2-y,-z
1/2-x,1/2+y,-z
1/2-x,1/2-y,-z
1/2+x,1/2+y,-z
1/2-x,1/2+y,z
1/2+x,1/2-y,z
loop_
_atom_site_type_symbol
_atom_site_label
_atom_site_fract_x
_atom_site_fract_y
_atom_site_fract_z
Si Si1 0.946794 0.000000 0.622473
Si Si2 0.122136 0.172045 0.691877
Si Si3 0.909518 0.500000 0.000000
Si Si4 0.845912 0.187576 0.000000
Si Si5 0.200716 0.180086 0.118098
O O1 0.922024 0.155223 0.649425
O O2 0.941891 0.000000 0.554867
O O3 0.000000 0.000000 0.639715
O O4 0.104996 0.250000 0.750000
O O5 0.162390 0.267769 0.662512
O O6 0.142398 0.000000 0.706139
O O7 0.882666 0.668575 0.000000
O O8 0.814372 0.220685 0.945682
O O9 0.864110 0.000000 0.000000
O O10 0.250000 0.250000 0.132652
O O11 0.207408 0.000000 0.127250
#
# Coordination Sequence:
#
# PCOD8285195 Si02
#       5
#    16  32   8  16  32
#     4  10  23  40  68  94 117 162 210 256 324 378
#     4  10  21  39  60  85 123 159 204 254 306 365
#     4  12  19  42  72  86 136 156 210 262 333 366
#     4  10  21  36  59  90 125 171 207 263 316 373
#     4  11  22  36  58  88 124 166 212 253 309 369
#
# _framework density 17.938941
#
# number of rings (size 3 to 8) (size 9 to 14) (size 15 to 20)
#    0.923    0.615    3.077    2.538    2.154    1.231 
#    0.000    3.077    0.000    5.538    0.000    0.000 
#    0.000    0.000    0.000    0.000    0.000    0.000 
#
# Total GULP energy -322102.789344 kJ/mol
# GULP energy per Si atom -12388.568821 kJ/mol
# Density = 1.789811 g / cm^3
# Si number density = 17.938941 Si / 1000 Ang^3
#
#
#
# Elastic Constant Matrix: (Units=GPa)
#
#
# Indices 1 2 3 4 5 6 
#
# 1 117.7480 15.7326 47.5813 0.0000 0.0000 0.0001
# 2 15.7326 39.1997 21.5584 0.0000 0.0000 0.0000
# 3 47.5813 21.5584 132.4361 0.0000 0.0000 0.0000
# 4 0.0000 0.0000 0.0000 33.9106 0.0000 0.0000
# 5 0.0000 0.0000 0.0000 0.0000 17.5342 0.0000
# 6 0.0001 0.0000 0.0000 0.0000 0.0000 16.3022
#
#
#
# Elastic Compliance Matrix: (Units=1/GPa)
#
#
# Indices 1 2 3 4 5 6 
#
# 1 0.010115 -0.002264 -0.003266 0.000000 0.000000 0.000000
# 2 -0.002264 0.028525 -0.003830 0.000000 0.000000 0.000000
# 3 -0.003266 -0.003830 0.009348 0.000000 0.000000 0.000000
# 4 0.000000 0.000000 0.000000 0.029489 0.000000 0.000000
# 5 0.000000 0.000000 0.000000 0.000000 0.057031 0.000000
# 6 0.000000 0.000000 0.000000 0.000000 0.000000 0.061342
#
#
# Mechanical properties :
#
#
# Convention : Reuss Voigt Hill
#
# Bulk Modulus (GPa) = 34.16585 51.01428 42.59006
# Shear Modulus (GPa) = 22.28912 27.18351 24.73631
#
# Velocity S-wave (km/s) = 3.52873 3.89695 3.71741
# Velocity P-wave (km/s) = 5.97408 6.98196 6.49759
#
# Compressibility (1/GPa) = 0.02926900
#
# Stress axis : x y z
#
# Youngs Moduli (GPa) = 98.86569 35.05658 106.98010
#
# Poissons Ratio (x) = 0.07935 0.34935
# Poissons Ratio (y) = 0.22379 0.40976
# Poissons Ratio (z) = 0.32285 0.13427
#
# Static dielectric constant tensor:
#      x y z
#    x 3.036030 0.000000 0.000000 
#    y 0.000000 3.535220 0.000000 
#    z 0.000000 0.000000 3.382950 
# 
# 
# High freq. dielectric constant tensor:
#      x y z
#    x 1.673550 0.000000 0.000000 
#    y 0.000000 1.700690 0.000000 
#    z 0.000000 0.000000 1.710380 
# 
# From -- ./inp_files/4450.got.cif
#   From: 2010.03.12/outbox.cif.g09.slc.cpg/sg69_3_cif.got.tgz:4450.got - 2010.04.10 23:52:46.
