data_PCOD8285848
_publ_section_title
;
Structure prediction by ZEFSAII (Michael W. Deem and Ramdas Pophale) SiO2 
 PCOD8285848
Probable space group: F D D D
;
_chemical_formula_sum "Si O2"
_cell_formula_units_Z 112
_cell_length_a 21.774089
_cell_length_b 9.702509
_cell_length_c 25.713669
_cell_angle_alpha 90.000000
_cell_angle_beta 90.000000
_cell_angle_gamma 90.000000
_cell_volume 5432.354426
_symmetry_space_group_name_H-M "F D D D"
_symmetry_group_IT_number 70
_space_group.IT_coordinate_system_code '2'
_symmetry_cell_setting 'orthorhombic'
loop_
_space_group_symop_operation_xyz
x,y,z
1/4-x,1/4-y,z
x,1/4-y,1/4-z
1/4-x,y,1/4-z
-x,-y,-z
3/4+x,3/4+y,-z
-x,3/4+y,3/4+z
3/4+x,-y,3/4+z
x,1/2+y,1/2+z
1/4-x,3/4-y,1/2+z
x,3/4-y,3/4-z
1/4-x,1/2+y,3/4-z
-x,1/2-y,1/2-z
3/4+x,1/4+y,1/2-z
-x,1/4+y,1/4+z
3/4+x,1/2-y,1/4+z
1/2+x,y,1/2+z
3/4-x,1/4-y,1/2+z
1/2+x,1/4-y,3/4-z
3/4-x,y,3/4-z
1/2-x,-y,1/2-z
1/4+x,3/4+y,1/2-z
1/2-x,3/4+y,1/4+z
1/4+x,-y,1/4+z
1/2+x,1/2+y,z
3/4-x,3/4-y,z
1/2+x,3/4-y,1/4-z
3/4-x,1/2+y,1/4-z
1/2-x,1/2-y,-z
1/4+x,1/4+y,-z
1/2-x,1/4+y,3/4+z
1/4+x,1/2-y,3/4+z
loop_
_atom_site_type_symbol
_atom_site_label
_atom_site_fract_x
_atom_site_fract_y
_atom_site_fract_z
Si Si1 0.375000 0.875000 0.475156
Si Si2 0.482250 0.724451 0.529069
Si Si3 0.677508 0.708222 0.471302
Si Si4 0.854618 0.667185 0.318084
O O1 0.434194 0.840103 0.510724
O O2 0.359552 0.746503 0.438787
O O3 0.514599 0.643637 0.480309
O O4 0.446978 0.598062 0.558921
O O5 0.532530 0.796027 0.564687
O O6 0.625000 0.625000 0.438995
O O7 0.645564 0.751980 0.526280
O O8 0.875000 0.712712 0.375000
#
# Coordination Sequence:
#
# PCOD8285848 Si02
#       4
#    16  32  32  32
#     4  10  19  32  50  78 110 144 174 214 270 332
#     4   9  17  30  49  77 106 135 181 216 259 324
#     4   8  16  30  49  76 105 134 179 219 258 310
#     4  10  19  31  51  82 106 138 179 228 268 306
#
# _framework density 20.61721
#
# number of rings (size 3 to 8) (size 9 to 14) (size 15 to 20)
#    0.000    2.857    0.000    1.286    0.000    5.143 
#    0.000    0.000    0.000    0.000  163.429    0.000 
#    0.000    0.000    0.000    0.000    0.000    0.000 
#
# Total GULP energy -346878.967670 kJ/mol
# GULP energy per Si atom -12388.534560 kJ/mol
# Density = 2.057028 g / cm^3
# Si number density = 20.617210 Si / 1000 Ang^3
#
#
#
# Elastic Constant Matrix: (Units=GPa)
#
#
# Indices 1 2 3 4 5 6 
#
# 1 149.5534 50.2364 32.3381 0.0000 0.0000 0.0000
# 2 50.2364 102.7722 13.7577 0.0000 0.0000 0.0000
# 3 32.3381 13.7577 45.7471 0.0000 0.0000 0.0000
# 4 0.0000 0.0000 0.0000 2.1826 0.0000 0.0000
# 5 0.0000 0.0000 0.0000 0.0000 10.5340 0.0000
# 6 0.0000 0.0000 0.0000 0.0000 0.0000 62.6892
#
#
#
# Elastic Compliance Matrix: (Units=1/GPa)
#
#
# Indices 1 2 3 4 5 6 
#
# 1 0.009086 -0.003732 -0.005301 0.000000 0.000000 0.000000
# 2 -0.003732 0.011671 -0.000872 0.000000 0.000000 0.000000
# 3 -0.005301 -0.000872 0.025869 0.000000 0.000000 0.000000
# 4 0.000000 0.000000 0.000000 0.458165 0.000000 0.000000
# 5 0.000000 0.000000 0.000000 0.000000 0.094931 0.000000
# 6 0.000000 0.000000 0.000000 0.000000 0.000000 0.015952
#
#
# Mechanical properties :
#
#
# Convention : Reuss Voigt Hill
#
# Bulk Modulus (GPa) = 37.28976 54.52638 45.90807
# Shear Modulus (GPa) = 7.75890 28.53051 18.14470
#
# Velocity S-wave (km/s) = 1.94203 3.72401 2.96983
# Velocity P-wave (km/s) = 4.81192 6.70786 5.83738
#
# Compressibility (1/GPa) = 0.02681702
#
# Stress axis : x y z
#
# Youngs Moduli (GPa) = 110.05519 85.68102 38.65703
#
# Poissons Ratio (x) = 0.31976 0.20491
# Poissons Ratio (y) = 0.41072 0.03370
# Poissons Ratio (z) = 0.58337 0.07470
#
# Static dielectric constant tensor:
#      x y z
#    x 4.307250 0.000000 0.000000 
#    y 0.000000 4.361870 0.000000 
#    z 0.000000 0.000000 2.857380 
# 
# 
# High freq. dielectric constant tensor:
#      x y z
#    x 1.834200 0.000000 0.000000 
#    y 0.000000 1.836410 0.000000 
#    z 0.000000 0.000000 1.716560 
# 
# From -- ./inp_files/17538.got.cif
#   From: 2010.03.12/outbox.cif.g09.slc.cpg/sg70_9_cif.got.tgz:17538.got - 2010.04.16 13:46:32.
