data_PCOD8285600
_publ_section_title
;
Structure prediction by ZEFSAII (Michael W. Deem and Ramdas Pophale) SiO2 
 PCOD8285600
Probable space group: F M M M
;
_chemical_formula_sum "Si O2"
_cell_formula_units_Z 224
_cell_length_a 18.002683
_cell_length_b 32.857819
_cell_length_c 20.385443
_cell_angle_alpha 90.000000
_cell_angle_beta 90.000000
_cell_angle_gamma 90.000000
_cell_volume 12058.578664
_symmetry_space_group_name_H-M "F M M M"
_symmetry_group_IT_number 69
_symmetry_cell_setting 'orthorhombic'
loop_
_space_group_symop_operation_xyz
x,y,z
-x,-y,z
x,-y,-z
-x,y,-z
-x,-y,-z
x,y,-z
-x,y,z
x,-y,z
x,1/2+y,1/2+z
-x,1/2-y,1/2+z
x,1/2-y,1/2-z
-x,1/2+y,1/2-z
-x,1/2-y,1/2-z
x,1/2+y,1/2-z
-x,1/2+y,1/2+z
x,1/2-y,1/2+z
1/2+x,y,1/2+z
1/2-x,-y,1/2+z
1/2+x,-y,1/2-z
1/2-x,y,1/2-z
1/2-x,-y,1/2-z
1/2+x,y,1/2-z
1/2-x,y,1/2+z
1/2+x,-y,1/2+z
1/2+x,1/2+y,z
1/2-x,1/2-y,z
1/2+x,1/2-y,-z
1/2-x,1/2+y,-z
1/2-x,1/2-y,-z
1/2+x,1/2+y,-z
1/2-x,1/2+y,z
1/2+x,1/2-y,z
loop_
_atom_site_type_symbol
_atom_site_label
_atom_site_fract_x
_atom_site_fract_y
_atom_site_fract_z
Si Si1 0.587701 0.419805 0.869004
Si Si2 0.665948 0.046966 0.754422
Si Si3 0.665901 0.248012 0.672134
Si Si4 0.585136 0.326659 0.669769
Si Si5 0.833089 0.547718 0.000000
Si Si6 0.086626 0.168208 0.181427
Si Si7 0.913210 0.086285 0.376432
Si Si8 0.341237 0.452230 0.000000
O O1 0.500000 0.427541 0.866840
O O2 0.625924 0.448182 0.815036
O O3 0.607434 0.372647 0.857117
O O4 0.620747 0.431802 0.938169
O O5 0.750000 0.064226 0.750000
O O6 0.618700 0.070450 0.808286
O O7 0.668348 0.000000 0.775020
O O8 0.656220 0.250000 0.750000
O O9 0.750000 0.250000 0.648760
O O10 0.627377 0.287603 0.640459
O O11 0.629513 0.205898 0.647419
O O12 0.500000 0.314108 0.672973
O O13 0.612545 0.337865 0.743254
O O14 0.598047 0.365008 0.622097
O O15 0.869263 0.567034 0.936103
O O16 0.849491 0.500000 0.000000
O O17 0.746050 0.557106 0.000000
O O18 0.000000 0.177917 0.176970
O O19 0.000000 0.074749 0.381007
O O20 0.357292 0.500000 0.000000
#
# Coordination Sequence:
#
# PCOD8285600 Si02
#       8
#    32  32  32  32  16  32  32  16
#     4  11  22  38  60  85 111 146 193 238 280 334
#     4  11  23  37  55  82 115 148 181 229 292 343
#     4   9  17  27  45  78 113 146 183 220 266 328
#     4   9  17  32  52  78 112 146 181 225 278 329
#     4  11  25  43  59  80 113 152 191 233 290 349
#     4   9  17  32  52  78 112 146 181 225 278 329
#     4  11  22  38  60  85 111 146 193 238 280 334
#     4  11  25  43  59  80 113 152 191 233 290 349
#
# _framework density 18.575987000000001
#
# number of rings (size 3 to 8) (size 9 to 14) (size 15 to 20)
#    0.000    1.857    1.429    3.000    0.000    9.714 
#    0.000    0.000    0.000    0.857    0.000    6.000 
#    0.000    0.000    0.000    0.000    0.000    0.000 
#
# Total GULP energy -694513.623845 kJ/mol
# GULP energy per Si atom -12402.028997 kJ/mol
# Density = 1.853371 g / cm^3
# Si number density = 18.575987 Si / 1000 Ang^3
#
#
#
# Elastic Constant Matrix: (Units=GPa)
#
#
# Indices 1 2 3 4 5 6 
#
# 1 109.9424 65.2439 38.1138 0.0000 0.0000 0.0000
# 2 65.2439 113.7637 29.9290 0.0000 0.0000 0.0000
# 3 38.1138 29.9290 84.4418 0.0000 0.0000 0.0000
# 4 0.0000 0.0000 0.0000 20.6692 0.0000 0.0000
# 5 0.0000 0.0000 0.0000 0.0000 26.9062 0.0000
# 6 0.0000 0.0000 0.0000 0.0000 0.0000 23.1314
#
#
#
# Elastic Compliance Matrix: (Units=1/GPa)
#
#
# Indices 1 2 3 4 5 6 
#
# 1 0.014972 -0.007509 -0.004096 0.000000 0.000000 0.000000
# 2 -0.007509 0.013460 -0.001382 0.000000 0.000000 0.000000
# 3 -0.004096 -0.001382 0.014181 0.000000 0.000000 0.000000
# 4 0.000000 0.000000 0.000000 0.048381 0.000000 0.000000
# 5 0.000000 0.000000 0.000000 0.000000 0.037166 0.000000
# 6 0.000000 0.000000 0.000000 0.000000 0.000000 0.043231
#
#
# Mechanical properties :
#
#
# Convention : Reuss Voigt Hill
#
# Bulk Modulus (GPa) = 60.09757 63.85793 61.97775
# Shear Modulus (GPa) = 24.64140 25.79878 25.22009
#
# Velocity S-wave (km/s) = 3.64609 3.73074 3.68866
# Velocity P-wave (km/s) = 7.08151 7.28073 7.18181
#
# Compressibility (1/GPa) = 0.01663961
#
# Stress axis : x y z
#
# Youngs Moduli (GPa) = 66.79293 74.29518 70.51669
#
# Poissons Ratio (x) = 0.55786 0.28886
# Poissons Ratio (y) = 0.50152 0.09742
# Poissons Ratio (z) = 0.27360 0.10264
#
# Static dielectric constant tensor:
#      x y z
#    x 3.548680 0.000000 0.000000 
#    y 0.000000 3.588720 0.000000 
#    z 0.000000 0.000000 2.985760 
# 
# 
# High freq. dielectric constant tensor:
#      x y z
#    x 1.733950 0.000000 0.000000 
#    y 0.000000 1.736010 0.000000 
#    z 0.000000 0.000000 1.685440 
# 
# From -- ./inp_files/31241.got.cif
#   From: 2010.03.12/outbox.cif.g09.slc.cpg/sg69_16_cif.got.tgz:31241.got - 2010.04.10 23:52:46.
