data_PCOD8285552
_publ_section_title
;
Structure prediction by ZEFSAII (Michael W. Deem and Ramdas Pophale) SiO2 
 PCOD8285552
Probable space group: F M M M
;
_chemical_formula_sum "Si O2"
_cell_formula_units_Z 160
_cell_length_a 21.936422
_cell_length_b 17.218036
_cell_length_c 21.398404
_cell_angle_alpha 90.000000
_cell_angle_beta 90.000000
_cell_angle_gamma 90.000000
_cell_volume 8082.222207
_symmetry_space_group_name_H-M "F M M M"
_symmetry_group_IT_number 69
_symmetry_cell_setting 'orthorhombic'
loop_
_space_group_symop_operation_xyz
x,y,z
-x,-y,z
x,-y,-z
-x,y,-z
-x,-y,-z
x,y,-z
-x,y,z
x,-y,z
x,1/2+y,1/2+z
-x,1/2-y,1/2+z
x,1/2-y,1/2-z
-x,1/2+y,1/2-z
-x,1/2-y,1/2-z
x,1/2+y,1/2-z
-x,1/2+y,1/2+z
x,1/2-y,1/2+z
1/2+x,y,1/2+z
1/2-x,-y,1/2+z
1/2+x,-y,1/2-z
1/2-x,y,1/2-z
1/2-x,-y,1/2-z
1/2+x,y,1/2-z
1/2-x,y,1/2+z
1/2+x,-y,1/2+z
1/2+x,1/2+y,z
1/2-x,1/2-y,z
1/2+x,1/2-y,-z
1/2-x,1/2+y,-z
1/2-x,1/2-y,-z
1/2+x,1/2+y,-z
1/2-x,1/2+y,z
1/2+x,1/2-y,z
loop_
_atom_site_type_symbol
_atom_site_label
_atom_site_fract_x
_atom_site_fract_y
_atom_site_fract_z
Si Si1 0.345198 0.090215 0.891112
Si Si2 0.500000 0.591854 0.071827
Si Si3 0.121563 0.908682 0.857629
Si Si4 0.820977 0.340951 0.240524
Si Si5 0.568287 0.092468 0.000000
Si Si6 0.229238 0.332055 0.429761
O O1 0.344896 0.139545 0.828169
O O2 0.398513 0.121488 0.936848
O O3 0.281923 0.103614 0.927192
O O4 0.353056 0.000000 0.875076
O O5 0.500000 0.500000 0.066513
O O6 0.557784 0.619688 0.112760
O O7 0.500000 0.625504 0.000000
O O8 0.131731 0.886931 0.785219
O O9 0.172202 0.861291 0.892960
O O10 0.129993 0.000000 0.867382
O O11 0.827605 0.250000 0.250000
O O12 0.750000 0.367621 0.250000
O O13 0.500000 0.126102 0.000000
O O14 0.569469 0.000000 0.000000
O O15 0.207990 0.317043 0.500000
O O16 0.250000 0.250000 0.399079
#
# Coordination Sequence:
#
# PCOD8285552 Si02
#       6
#    32  16  32  32  16  32
#     4  11  21  36  62  92 118 152 204 256 299 356
#     4   9  20  40  63  90 124 159 201 256 312 364
#     4  11  22  38  63  90 120 160 209 257 305 365
#     4  11  23  39  61  87 128 165 197 247 316 371
#     4   9  20  40  63  90 124 157 197 254 312 362
#     4  11  22  35  57  86 125 160 197 249 314 364
#
# _framework density 19.796536
#
# number of rings (size 3 to 8) (size 9 to 14) (size 15 to 20)
#    0.000    1.400    3.000    3.000    0.000    2.800 
#    1.800    0.500    6.600    0.000    0.000    0.000 
#    0.000    0.000    0.000    0.000    0.000    0.000 
#
# Total GULP energy -495949.747930 kJ/mol
# GULP energy per Si atom -12398.743698 kJ/mol
# Density = 1.975148 g / cm^3
# Si number density = 19.796536 Si / 1000 Ang^3
#
#
#
# Elastic Constant Matrix: (Units=GPa)
#
#
# Indices 1 2 3 4 5 6 
#
# 1 139.0995 28.5874 71.2135 0.0000 0.0000 0.0000
# 2 28.5874 73.2966 39.9002 0.0000 0.0000 0.0000
# 3 71.2135 39.9002 153.9664 0.0000 0.0000 0.0000
# 4 0.0000 0.0000 0.0000 29.8464 0.0000 0.0000
# 5 0.0000 0.0000 0.0000 0.0000 37.2821 0.0000
# 6 0.0000 0.0000 0.0000 0.0000 0.0000 5.7080
#
#
#
# Elastic Compliance Matrix: (Units=1/GPa)
#
#
# Indices 1 2 3 4 5 6 
#
# 1 0.009567 -0.001540 -0.004026 0.000000 0.000000 0.000000
# 2 -0.001540 0.016132 -0.003468 0.000000 0.000000 0.000000
# 3 -0.004026 -0.003468 0.009256 0.000000 0.000000 0.000000
# 4 0.000000 0.000000 0.000000 0.033505 0.000000 0.000000
# 5 0.000000 0.000000 0.000000 0.000000 0.026823 0.000000
# 6 0.000000 0.000000 0.000000 0.000000 0.000000 0.175192
#
#
# Mechanical properties :
#
#
# Convention : Reuss Voigt Hill
#
# Bulk Modulus (GPa) = 59.21914 71.75163 65.48538
# Shear Modulus (GPa) = 16.99695 29.67805 23.33750
#
# Velocity S-wave (km/s) = 2.93334 3.87609 3.43719
# Velocity P-wave (km/s) = 6.43828 7.50702 6.99310
#
# Compressibility (1/GPa) = 0.01688643
#
# Stress axis : x y z
#
# Youngs Moduli (GPa) = 104.53061 61.98937 108.04050
#
# Poissons Ratio (x) = 0.09544 0.43495
# Poissons Ratio (y) = 0.16094 0.37473
# Poissons Ratio (z) = 0.42082 0.21500
#
# Static dielectric constant tensor:
#      x y z
#    x 3.903570 0.000000 0.000000 
#    y 0.000000 3.620720 0.000000 
#    z 0.000000 0.000000 3.999890 
# 
# 
# High freq. dielectric constant tensor:
#      x y z
#    x 1.759040 0.000000 0.000000 
#    y 0.000000 1.762530 0.000000 
#    z 0.000000 0.000000 1.790500 
# 
# From -- ./inp_files/31749.got.cif
#   From: 2010.03.12/outbox.cif.g09.slc.cpg/sg69_16_cif.got.tgz:31749.got - 2010.04.10 23:52:46.
