data_PCOD8285133
_publ_section_title
;
Structure prediction by ZEFSAII (Michael W. Deem and Ramdas Pophale) SiO2 
 PCOD8285133
Probable space group: F M M M
;
_chemical_formula_sum "Si O2"
_cell_formula_units_Z 176
_cell_length_a 29.256577
_cell_length_b 16.515133
_cell_length_c 18.048993
_cell_angle_alpha 90.000000
_cell_angle_beta 90.000000
_cell_angle_gamma 90.000000
_cell_volume 8720.844940
_symmetry_space_group_name_H-M "F M M M"
_symmetry_group_IT_number 69
_symmetry_cell_setting 'orthorhombic'
loop_
_space_group_symop_operation_xyz
x,y,z
-x,-y,z
x,-y,-z
-x,y,-z
-x,-y,-z
x,y,-z
-x,y,z
x,-y,z
x,1/2+y,1/2+z
-x,1/2-y,1/2+z
x,1/2-y,1/2-z
-x,1/2+y,1/2-z
-x,1/2-y,1/2-z
x,1/2+y,1/2-z
-x,1/2+y,1/2+z
x,1/2-y,1/2+z
1/2+x,y,1/2+z
1/2-x,-y,1/2+z
1/2+x,-y,1/2-z
1/2-x,y,1/2-z
1/2-x,-y,1/2-z
1/2+x,y,1/2-z
1/2-x,y,1/2+z
1/2+x,-y,1/2+z
1/2+x,1/2+y,z
1/2-x,1/2-y,z
1/2+x,1/2-y,-z
1/2-x,1/2+y,-z
1/2-x,1/2-y,-z
1/2+x,1/2+y,-z
1/2-x,1/2+y,z
1/2+x,1/2-y,z
loop_
_atom_site_type_symbol
_atom_site_label
_atom_site_fract_x
_atom_site_fract_y
_atom_site_fract_z
Si Si1 0.702963 0.353398 0.084238
Si Si2 0.000000 0.402301 0.589617
Si Si3 0.295032 0.593238 0.352649
Si Si4 0.651086 0.088381 0.713312
Si Si5 0.071587 0.298102 0.682310
Si Si6 0.137796 0.294894 0.917342
O O1 0.753349 0.351990 0.119246
O O2 0.669768 0.413275 0.129392
O O3 0.681138 0.264799 0.090624
O O4 0.705349 0.384157 0.000000
O O5 0.042655 0.359803 0.631025
O O6 0.000000 0.500000 0.603217
O O7 0.000000 0.385643 0.500000
O O8 0.283785 0.500000 0.370144
O O9 0.305212 0.608546 0.265558
O O10 0.342305 0.618063 0.393578
O O11 0.610938 0.152283 0.724661
O O12 0.631381 0.000000 0.732996
O O13 0.045427 0.250000 0.750000
O O14 0.093959 0.231124 0.629677
O O15 0.119060 0.299036 0.000000
#
# Coordination Sequence:
#
# PCOD8285133 Si02
#       6
#    32  16  32  32  32  32
#     4  10  21  34  52  77 111 157 208 257 304 345
#     4  11  25  44  70 102 127 149 184 238 302 363
#     4  11  21  34  52  77 112 155 205 255 294 338
#     4  10  21  36  55  82 117 154 197 245 295 344
#     4  11  21  41  65  91 120 156 191 232 286 366
#     4  10  21  37  56  82 116 156 200 246 295 347
#
# _framework density 20.181529999999999
#
# number of rings (size 3 to 8) (size 9 to 14) (size 15 to 20)
#    0.000    1.545    1.818    3.545    0.000    6.182 
#    0.000    1.818    0.000    0.000    0.000    0.000 
#    0.000    5.091    0.000    0.000    0.000    0.000 
#
# Total GULP energy -545247.538356 kJ/mol
# GULP energy per Si atom -12391.989508 kJ/mol
# Density = 2.013560 g / cm^3
# Si number density = 20.181530 Si / 1000 Ang^3
#
#
#
# Elastic Constant Matrix: (Units=GPa)
#
#
# Indices 1 2 3 4 5 6 
#
# 1 65.9466 16.6173 32.8567 0.0000 0.0000 0.0000
# 2 16.6173 43.1157 45.7310 0.0000 0.0000 0.0000
# 3 32.8567 45.7310 141.0036 0.0000 0.0000 0.0000
# 4 0.0000 0.0000 0.0000 27.0841 0.0000 0.0000
# 5 0.0000 0.0000 0.0000 0.0000 27.9006 0.0000
# 6 0.0000 0.0000 0.0000 0.0000 0.0000 15.3863
#
#
#
# Elastic Compliance Matrix: (Units=1/GPa)
#
#
# Indices 1 2 3 4 5 6 
#
# 1 0.017533 -0.003695 -0.002887 0.000000 0.000000 0.000000
# 2 -0.003695 0.036135 -0.010858 0.000000 0.000000 0.000000
# 3 -0.002887 -0.010858 0.011286 0.000000 0.000000 0.000000
# 4 0.000000 0.000000 0.000000 0.036922 0.000000 0.000000
# 5 0.000000 0.000000 0.000000 0.000000 0.035842 0.000000
# 6 0.000000 0.000000 0.000000 0.000000 0.000000 0.064993
#
#
# Mechanical properties :
#
#
# Convention : Reuss Voigt Hill
#
# Bulk Modulus (GPa) = 33.25254 48.94178 41.09716
# Shear Modulus (GPa) = 20.19253 24.39827 22.29540
#
# Velocity S-wave (km/s) = 3.16657 3.48075 3.32737
# Velocity P-wave (km/s) = 5.46645 6.36063 5.93042
#
# Compressibility (1/GPa) = 0.03007289
#
# Stress axis : x y z
#
# Youngs Moduli (GPa) = 57.03391 27.67435 88.60232
#
# Poissons Ratio (x) = 0.10227 0.25581
# Poissons Ratio (y) = 0.21076 0.96207
# Poissons Ratio (z) = 0.16467 0.30049
#
# Static dielectric constant tensor:
#      x y z
#    x 3.393480 0.000000 0.000000 
#    y 0.000000 3.590120 0.000000 
#    z 0.000000 0.000000 3.905210 
# 
# 
# High freq. dielectric constant tensor:
#      x y z
#    x 1.761520 0.000000 0.000000 
#    y 0.000000 1.783870 0.000000 
#    z 0.000000 0.000000 1.803960 
# 
# From -- ./inp_files/23555.got.cif
#   From: 2010.03.12/outbox.cif.g09.slc.cpg/sg69_12_cif.got.tgz:23555.got - 2010.04.10 23:52:46.
