data_PCOD8285436
_publ_section_title
;
Structure prediction by ZEFSAII (Michael W. Deem and Ramdas Pophale) SiO2 
 PCOD8285436
Probable space group: F M M M
;
_chemical_formula_sum "Si O2"
_cell_formula_units_Z 176
_cell_length_a 27.283977
_cell_length_b 26.310802
_cell_length_c 11.550254
_cell_angle_alpha 90.000000
_cell_angle_beta 90.000000
_cell_angle_gamma 90.000000
_cell_volume 8291.503644
_symmetry_space_group_name_H-M "F M M M"
_symmetry_group_IT_number 69
_symmetry_cell_setting 'orthorhombic'
loop_
_space_group_symop_operation_xyz
x,y,z
-x,-y,z
x,-y,-z
-x,y,-z
-x,-y,-z
x,y,-z
-x,y,z
x,-y,z
x,1/2+y,1/2+z
-x,1/2-y,1/2+z
x,1/2-y,1/2-z
-x,1/2+y,1/2-z
-x,1/2-y,1/2-z
x,1/2+y,1/2-z
-x,1/2+y,1/2+z
x,1/2-y,1/2+z
1/2+x,y,1/2+z
1/2-x,-y,1/2+z
1/2+x,-y,1/2-z
1/2-x,y,1/2-z
1/2-x,-y,1/2-z
1/2+x,y,1/2-z
1/2-x,y,1/2+z
1/2+x,-y,1/2+z
1/2+x,1/2+y,z
1/2-x,1/2-y,z
1/2+x,1/2-y,-z
1/2-x,1/2+y,-z
1/2-x,1/2-y,-z
1/2+x,1/2+y,-z
1/2-x,1/2+y,z
1/2+x,1/2-y,z
loop_
_atom_site_type_symbol
_atom_site_label
_atom_site_fract_x
_atom_site_fract_y
_atom_site_fract_z
Si Si1 0.558325 0.241859 0.000000
Si Si2 0.907922 0.600991 0.240813
Si Si3 0.873157 0.204799 0.822967
Si Si4 0.726633 0.158750 0.627336
Si Si5 0.000000 0.057369 0.136469
Si Si6 0.819536 0.943642 0.130093
Si Si7 0.442200 0.876884 0.000000
O O1 0.582203 0.270313 0.892059
O O2 0.572559 0.182521 0.000000
O O3 0.500000 0.250164 0.000000
O O4 0.897086 0.660776 0.247138
O O5 0.861866 0.566946 0.276887
O O6 0.920680 0.591701 0.107585
O O7 0.952718 0.587653 0.323003
O O8 0.848900 0.250000 0.750000
O O9 0.827799 0.180928 0.893039
O O10 0.753404 0.170652 0.500000
O O11 0.750000 0.179839 0.750000
O O12 0.723805 0.097701 0.642121
O O13 0.000000 0.000000 0.186825
O O14 0.000000 0.056244 0.000000
O O15 0.797942 0.000000 0.153402
O O16 0.841953 0.940485 0.000000
O O17 0.500000 0.881781 0.000000
#
# Coordination Sequence:
#
# PCOD8285436 Si02
#       7
#    16  32  32  32  16  32  16
#     4  11  24  38  64  92 131 176 224 268 324 377
#     4  11  22  36  60  84 122 164 208 255 319 382
#     4  11  23  41  62  94 129 170 215 269 319 380
#     4  10  22  43  68  96 129 168 215 266 332 397
#     4  11  24  39  58  85 115 153 210 267 310 370
#     4   9  19  39  65  90 119 157 208 270 325 377
#     4  11  22  40  54  85 126 171 211 258 315 378
#
# _framework density 21.226547
#
# number of rings (size 3 to 8) (size 9 to 14) (size 15 to 20)
#    0.000    1.545    3.636    1.091    3.818    2.545 
#    8.182    3.182    0.000    0.000    0.000    0.000 
#    0.000    0.000    0.000    0.000    0.000    0.000 
#
# Total GULP energy -545112.563751 kJ/mol
# GULP energy per Si atom -12388.921903 kJ/mol
# Density = 2.117823 g / cm^3
# Si number density = 21.226547 Si / 1000 Ang^3
#
#
#
# Elastic Constant Matrix: (Units=GPa)
#
#
# Indices 1 2 3 4 5 6 
#
# 1 54.5757 7.6849 29.5443 0.0004 -0.0003 -0.0001
# 2 7.6849 90.9245 17.8240 0.0008 -0.0006 -0.0003
# 3 29.5443 17.8240 143.6445 0.0019 -0.0014 -0.0010
# 4 0.0004 0.0008 0.0019 22.6982 -0.0009 -0.0005
# 5 -0.0003 -0.0006 -0.0014 -0.0009 29.9889 0.0004
# 6 -0.0001 -0.0003 -0.0010 -0.0005 0.0004 19.7930
#
#
#
# Elastic Compliance Matrix: (Units=1/GPa)
#
#
# Indices 1 2 3 4 5 6 
#
# 1 0.020697 -0.000938 -0.004140 0.000000 0.000000 0.000000
# 2 -0.000938 0.011315 -0.001211 0.000000 0.000000 0.000000
# 3 -0.004140 -0.001211 0.007964 -0.000001 0.000000 0.000000
# 4 0.000000 0.000000 -0.000001 0.044056 0.000001 0.000001
# 5 0.000000 0.000000 0.000000 0.000001 0.033346 -0.000001
# 6 0.000000 0.000000 0.000000 0.000001 -0.000001 0.050523
#
#
# Mechanical properties :
#
#
# Convention : Reuss Voigt Hill
#
# Bulk Modulus (GPa) = 36.50100 44.36122 40.43111
# Shear Modulus (GPa) = 26.36983 30.10211 28.23597
#
# Velocity S-wave (km/s) = 3.52846 3.76990 3.65117
# Velocity P-wave (km/s) = 5.81664 6.31616 6.07154
#
# Compressibility (1/GPa) = 0.02739651
#
# Stress axis : x y z
#
# Youngs Moduli (GPa) = 48.31708 88.37978 125.57271
#
# Poissons Ratio (x) = 0.08286 0.51993
# Poissons Ratio (y) = 0.04530 0.15209
# Poissons Ratio (z) = 0.20006 0.10704
#
# Static dielectric constant tensor:
#      x y z
#    x 3.530830 0.000000 0.000000 
#    y 0.000000 4.086440 0.000000 
#    z 0.000000 0.000000 3.688860 
# 
# 
# High freq. dielectric constant tensor:
#      x y z
#    x 1.806910 0.000000 0.000000 
#    y 0.000000 1.838810 0.000000 
#    z 0.000000 0.000000 1.840930 
# 
# From -- ./inp_files/11580.got.cif
#   From: 2010.03.12/outbox.cif.g09.slc.cpg/sg69_6_cif.got.tgz:11580.got - 2010.04.10 23:52:46.
