data_PCOD8285797
_publ_section_title
;
Structure prediction by ZEFSAII (Michael W. Deem and Ramdas Pophale) SiO2 
 PCOD8285797
Probable space group: F D D D
;
_chemical_formula_sum "Si O2"
_cell_formula_units_Z 208
_cell_length_a 25.000257
_cell_length_b 17.257888
_cell_length_c 23.073531
_cell_angle_alpha 90.000000
_cell_angle_beta 90.000000
_cell_angle_gamma 90.000000
_cell_volume 9955.112682
_symmetry_space_group_name_H-M "F D D D"
_symmetry_group_IT_number 70
_space_group.IT_coordinate_system_code '2'
_symmetry_cell_setting 'orthorhombic'
loop_
_space_group_symop_operation_xyz
x,y,z
1/4-x,1/4-y,z
x,1/4-y,1/4-z
1/4-x,y,1/4-z
-x,-y,-z
3/4+x,3/4+y,-z
-x,3/4+y,3/4+z
3/4+x,-y,3/4+z
x,1/2+y,1/2+z
1/4-x,3/4-y,1/2+z
x,3/4-y,3/4-z
1/4-x,1/2+y,3/4-z
-x,1/2-y,1/2-z
3/4+x,1/4+y,1/2-z
-x,1/4+y,1/4+z
3/4+x,1/2-y,1/4+z
1/2+x,y,1/2+z
3/4-x,1/4-y,1/2+z
1/2+x,1/4-y,3/4-z
3/4-x,y,3/4-z
1/2-x,-y,1/2-z
1/4+x,3/4+y,1/2-z
1/2-x,3/4+y,1/4+z
1/4+x,-y,1/4+z
1/2+x,1/2+y,z
3/4-x,3/4-y,z
1/2+x,3/4-y,1/4-z
3/4-x,1/2+y,1/4-z
1/2-x,1/2-y,-z
1/4+x,1/4+y,-z
1/2-x,1/4+y,3/4+z
1/4+x,1/2-y,3/4+z
loop_
_atom_site_type_symbol
_atom_site_label
_atom_site_fract_x
_atom_site_fract_y
_atom_site_fract_z
Si Si1 0.009026 0.581437 0.469317
Si Si2 0.416389 0.495398 0.826395
Si Si3 0.220047 0.820852 0.324185
Si Si4 0.314479 0.294766 0.353963
Si Si5 0.070803 0.172730 0.470908
Si Si6 0.375000 0.375000 0.738471
Si Si7 0.275033 0.135252 0.401711
O O1 0.071612 0.599695 0.454362
O O2 0.000000 0.500000 0.500000
O O3 0.979691 0.641258 0.511765
O O4 0.981544 0.585439 0.407157
O O5 0.375000 0.474104 0.875000
O O6 0.473220 0.461053 0.845950
O O7 0.392439 0.453271 0.770963
O O8 0.425008 0.589087 0.817565
O O9 0.196590 0.875000 0.375000
O O10 0.177647 0.750424 0.318104
O O11 0.287782 0.375000 0.375000
O O12 0.375000 0.290620 0.375000
O O13 0.308779 0.295458 0.285017
O O14 0.284501 0.224073 0.385208
O O15 0.125000 0.125000 0.467930
O O16 0.024452 0.116508 0.446431
#
# Coordination Sequence:
#
# PCOD8285797 Si02
#       7
#    32  32  32  32  32  16  32
#     4  11  21  36  60  96 136 172 205 266 336 405
#     4  10  18  34  59  91 126 167 208 255 318 401
#     4  10  20  37  63  94 131 171 215 264 321 404
#     4  11  23  46  73  94 122 174 234 276 320 389
#     4  11  23  45  68  93 131 174 218 275 332 384
#     4  10  21  34  56  90 132 168 209 256 324 400
#     4  11  24  39  67  98 132 167 224 276 330 388
#
# _framework density 20.893787
#
# number of rings (size 3 to 8) (size 9 to 14) (size 15 to 20)
#    0.000    1.385    3.077    5.308    1.077    0.615 
#    0.000    0.769    0.000    0.000    0.000    0.000 
#    0.000    0.000    0.000    0.000    0.000    0.000 
#
# Total GULP energy -644262.192751 kJ/mol
# GULP energy per Si atom -12389.657553 kJ/mol
# Density = 2.084623 g / cm^3
# Si number density = 20.893787 Si / 1000 Ang^3
#
#
#
# Elastic Constant Matrix: (Units=GPa)
#
#
# Indices 1 2 3 4 5 6 
#
# 1 59.0964 46.4750 29.5662 0.0000 0.0000 0.0000
# 2 46.4750 162.1957 45.8295 0.0000 0.0000 0.0000
# 3 29.5662 45.8295 89.0121 0.0000 0.0000 0.0000
# 4 0.0000 0.0000 0.0000 36.7179 0.0000 0.0000
# 5 0.0000 0.0000 0.0000 0.0000 23.1049 0.0000
# 6 0.0000 0.0000 0.0000 0.0000 0.0000 10.1565
#
#
#
# Elastic Compliance Matrix: (Units=1/GPa)
#
#
# Indices 1 2 3 4 5 6 
#
# 1 0.023681 -0.005340 -0.005117 0.000000 0.000000 0.000000
# 2 -0.005340 0.008419 -0.002561 0.000000 0.000000 0.000000
# 3 -0.005117 -0.002561 0.014253 0.000000 0.000000 0.000000
# 4 0.000000 0.000000 0.000000 0.027235 0.000000 0.000000
# 5 0.000000 0.000000 0.000000 0.000000 0.043281 0.000000
# 6 0.000000 0.000000 0.000000 0.000000 0.000000 0.098459
#
#
# Mechanical properties :
#
#
# Convention : Reuss Voigt Hill
#
# Bulk Modulus (GPa) = 49.21822 61.56061 55.38942
# Shear Modulus (GPa) = 20.15046 26.55812 23.35429
#
# Velocity S-wave (km/s) = 3.10889 3.56912 3.34692
# Velocity P-wave (km/s) = 6.04106 6.82000 6.44231
#
# Compressibility (1/GPa) = 0.02031768
#
# Stress axis : x y z
#
# Youngs Moduli (GPa) = 42.22874 118.77840 70.16295
#
# Poissons Ratio (x) = 0.63423 0.35899
# Poissons Ratio (y) = 0.22549 0.17969
# Poissons Ratio (z) = 0.21606 0.30420
#
# Static dielectric constant tensor:
#      x y z
#    x 3.643030 0.000000 0.000000 
#    y 0.000000 4.400860 0.000000 
#    z 0.000000 0.000000 3.883050 
# 
# 
# High freq. dielectric constant tensor:
#      x y z
#    x 1.799340 0.000000 0.000000 
#    y 0.000000 1.836530 0.000000 
#    z 0.000000 0.000000 1.812460 
# 
# From -- ./inp_files/46932.got.cif
#   From: 2010.03.12/outbox.cif.g09.slc.cpg/sg70_24_cif.got.tgz:46932.got - 2010.04.16 13:46:32.
