data_PCOD8285859
_publ_section_title
;
Structure prediction by ZEFSAII (Michael W. Deem and Ramdas Pophale) SiO2 
 PCOD8285859
Probable space group: F D D D
;
_chemical_formula_sum "Si O2"
_cell_formula_units_Z 144
_cell_length_a 13.521816
_cell_length_b 28.146218
_cell_length_c 20.869802
_cell_angle_alpha 90.000000
_cell_angle_beta 90.000000
_cell_angle_gamma 90.000000
_cell_volume 7942.795805
_symmetry_space_group_name_H-M "F D D D"
_symmetry_group_IT_number 70
_space_group.IT_coordinate_system_code '2'
_symmetry_cell_setting 'orthorhombic'
loop_
_space_group_symop_operation_xyz
x,y,z
1/4-x,1/4-y,z
x,1/4-y,1/4-z
1/4-x,y,1/4-z
-x,-y,-z
3/4+x,3/4+y,-z
-x,3/4+y,3/4+z
3/4+x,-y,3/4+z
x,1/2+y,1/2+z
1/4-x,3/4-y,1/2+z
x,3/4-y,3/4-z
1/4-x,1/2+y,3/4-z
-x,1/2-y,1/2-z
3/4+x,1/4+y,1/2-z
-x,1/4+y,1/4+z
3/4+x,1/2-y,1/4+z
1/2+x,y,1/2+z
3/4-x,1/4-y,1/2+z
1/2+x,1/4-y,3/4-z
3/4-x,y,3/4-z
1/2-x,-y,1/2-z
1/4+x,3/4+y,1/2-z
1/2-x,3/4+y,1/4+z
1/4+x,-y,1/4+z
1/2+x,1/2+y,z
3/4-x,3/4-y,z
1/2+x,3/4-y,1/4-z
3/4-x,1/2+y,1/4-z
1/2-x,1/2-y,-z
1/4+x,1/4+y,-z
1/2-x,1/4+y,3/4+z
1/4+x,1/2-y,3/4+z
loop_
_atom_site_type_symbol
_atom_site_label
_atom_site_fract_x
_atom_site_fract_y
_atom_site_fract_z
Si Si1 0.842936 0.012621 0.622297
Si Si2 0.451842 0.152278 0.187340
Si Si3 0.625000 0.768093 0.125000
Si Si4 0.085892 0.309196 0.995236
Si Si5 0.618460 0.678116 0.785285
O O1 0.874843 0.057675 0.581358
O O2 0.877061 0.019065 0.695638
O O3 0.723952 0.012796 0.617604
O O4 0.896042 0.965215 0.593745
O O5 0.498859 0.125000 0.125000
O O6 0.387296 0.112947 0.225149
O O7 0.533770 0.177770 0.231338
O O8 0.638448 0.801243 0.063066
O O9 0.967260 0.305961 0.998625
O O10 0.625000 0.625000 0.815129
#
# Coordination Sequence:
#
# PCOD8285859 Si02
#       5
#    32  32  16  32  32
#     4  10  19  33  53  75 101 135 170 206 248 301
#     4   9  18  33  54  80 104 129 165 210 261 308
#     4  10  20  36  51  70 102 140 175 202 242 298
#     4   9  19  34  53  73  99 136 167 207 257 299
#     4   9  18  33  53  79 104 128 163 210 262 310
#
# _framework density 18.129636000000001
#
# number of rings (size 3 to 8) (size 9 to 14) (size 15 to 20)
#    0.000    2.667    0.000    1.333    0.000   10.222 
#    0.000   18.333    0.000    0.000    0.000    0.000 
#    0.000    0.000    0.000    0.000    0.000    0.000 
#
# Total GULP energy -446144.975003 kJ/mol
# GULP energy per Si atom -12392.915972 kJ/mol
# Density = 1.808837 g / cm^3
# Si number density = 18.129636 Si / 1000 Ang^3
#
#
#
# Elastic Constant Matrix: (Units=GPa)
#
#
# Indices 1 2 3 4 5 6 
#
# 1 87.8695 53.1156 49.2786 0.0000 0.0000 0.0000
# 2 53.1156 117.5133 83.0569 0.0000 0.0000 0.0000
# 3 49.2786 83.0569 145.7227 0.0000 0.0000 0.0000
# 4 0.0000 0.0000 0.0000 33.6473 0.0000 0.0000
# 5 0.0000 0.0000 0.0000 0.0000 26.9493 0.0000
# 6 0.0000 0.0000 0.0000 0.0000 0.0000 24.9596
#
#
#
# Elastic Compliance Matrix: (Units=1/GPa)
#
#
# Indices 1 2 3 4 5 6 
#
# 1 0.016057 -0.005727 -0.002166 0.000000 0.000000 0.000000
# 2 -0.005727 0.016293 -0.007350 0.000000 0.000000 0.000000
# 3 -0.002166 -0.007350 0.011784 0.000000 0.000000 0.000000
# 4 0.000000 0.000000 0.000000 0.029720 0.000000 0.000000
# 5 0.000000 0.000000 0.000000 0.000000 0.037107 0.000000
# 6 0.000000 0.000000 0.000000 0.000000 0.000000 0.040065
#
#
# Mechanical properties :
#
#
# Convention : Reuss Voigt Hill
#
# Bulk Modulus (GPa) = 73.26648 80.22308 76.74478
# Shear Modulus (GPa) = 26.87307 28.15487 27.51397
#
# Velocity S-wave (km/s) = 3.85421 3.94506 3.89990
# Velocity P-wave (km/s) = 7.76575 8.06827 7.91845
#
# Compressibility (1/GPa) = 0.01364881
#
# Stress axis : x y z
#
# Youngs Moduli (GPa) = 62.27838 61.37620 84.86193
#
# Poissons Ratio (x) = 0.35150 0.18379
# Poissons Ratio (y) = 0.35666 0.62372
# Poissons Ratio (z) = 0.13488 0.45110
#
# Static dielectric constant tensor:
#      x y z
#    x 3.151590 0.000000 0.000000 
#    y 0.000000 3.560370 0.000000 
#    z 0.000000 0.000000 3.598740 
# 
# 
# High freq. dielectric constant tensor:
#      x y z
#    x 1.685610 0.000000 0.000000 
#    y 0.000000 1.701790 0.000000 
#    z 0.000000 0.000000 1.709320 
# 
# From -- ./inp_files/19200.got.cif
#   From: 2010.03.12/outbox.cif.g09.slc.cpg/sg70_10_cif.got.tgz:19200.got - 2010.04.16 13:46:32.
