data_PCOD8285360
_publ_section_title
;
Structure prediction by ZEFSAII (Michael W. Deem and Ramdas Pophale) SiO2 
 PCOD8285360
Probable space group: F M M M
;
_chemical_formula_sum "Si O2"
_cell_formula_units_Z 208
_cell_length_a 19.536713
_cell_length_b 28.149973
_cell_length_c 18.697559
_cell_angle_alpha 90.000000
_cell_angle_beta 90.000000
_cell_angle_gamma 90.000000
_cell_volume 10282.871095
_symmetry_space_group_name_H-M "F M M M"
_symmetry_group_IT_number 69
_symmetry_cell_setting 'orthorhombic'
loop_
_space_group_symop_operation_xyz
x,y,z
-x,-y,z
x,-y,-z
-x,y,-z
-x,-y,-z
x,y,-z
-x,y,z
x,-y,z
x,1/2+y,1/2+z
-x,1/2-y,1/2+z
x,1/2-y,1/2-z
-x,1/2+y,1/2-z
-x,1/2-y,1/2-z
x,1/2+y,1/2-z
-x,1/2+y,1/2+z
x,1/2-y,1/2+z
1/2+x,y,1/2+z
1/2-x,-y,1/2+z
1/2+x,-y,1/2-z
1/2-x,y,1/2-z
1/2-x,-y,1/2-z
1/2+x,y,1/2-z
1/2-x,y,1/2+z
1/2+x,-y,1/2+z
1/2+x,1/2+y,z
1/2-x,1/2-y,z
1/2+x,1/2-y,-z
1/2-x,1/2+y,-z
1/2-x,1/2-y,-z
1/2+x,1/2+y,-z
1/2-x,1/2+y,z
1/2+x,1/2-y,z
loop_
_atom_site_type_symbol
_atom_site_label
_atom_site_fract_x
_atom_site_fract_y
_atom_site_fract_z
Si Si1 0.423027 0.761911 0.579882
Si Si2 0.848173 0.203387 0.785988
Si Si3 0.578004 0.553963 0.083512
Si Si4 0.924924 0.667998 0.157298
Si Si5 0.165334 0.419322 0.836396
Si Si6 0.184280 0.399478 0.320231
Si Si7 0.918926 0.000000 0.585266
O O1 0.395868 0.771582 0.500000
O O2 0.500000 0.781842 0.588927
O O3 0.372491 0.787530 0.633871
O O4 0.422687 0.705593 0.593379
O O5 0.810029 0.250000 0.750000
O O6 0.912339 0.193544 0.733704
O O7 0.802822 0.155508 0.795403
O O8 0.500000 0.561413 0.108231
O O9 0.601394 0.500000 0.101470
O O10 0.623925 0.593035 0.123267
O O11 0.585185 0.563776 0.000000
O O12 0.865582 0.631013 0.141339
O O13 0.000000 0.643701 0.160643
O O14 0.161556 0.428477 0.750920
O O15 0.246112 0.419700 0.855798
O O16 0.120344 0.455792 0.880963
O O17 0.909733 0.000000 0.500000
O O18 0.000000 0.000000 0.605219
#
# Coordination Sequence:
#
# PCOD8285360 Si02
#       7
#    32  32  32  32  32  32  16
#     4   9  17  29  49  78 110 146 189 242 299 347
#     4   9  18  34  54  79 115 153 194 242 300 362
#     4   9  20  38  59  87 122 159 203 253 309 375
#     4   9  17  33  55  77 106 149 195 239 290 352
#     4  10  23  40  59  87 119 149 197 250 297 357
#     4  10  22  38  61  90 121 160 199 249 303 364
#     4  11  26  45  64  88 118 157 202 251 306 356
#
# _framework density 20.227813999999999
#
# number of rings (size 3 to 8) (size 9 to 14) (size 15 to 20)
#    0.000    2.538    0.000    1.385    2.154    8.000 
#    0.000   16.154    0.000    0.923    0.000    0.000 
#    0.000    0.000    0.000    0.000    0.000    0.000 
#
# Total GULP energy -644331.236740 kJ/mol
# GULP energy per Si atom -12390.985322 kJ/mol
# Density = 2.018177 g / cm^3
# Si number density = 20.227814 Si / 1000 Ang^3
#
#
#
# Elastic Constant Matrix: (Units=GPa)
#
#
# Indices 1 2 3 4 5 6 
#
# 1 117.9859 43.5823 52.6588 0.0000 0.0000 0.0000
# 2 43.5823 90.3482 39.0974 0.0000 0.0000 0.0000
# 3 52.6588 39.0974 109.2848 0.0000 0.0000 0.0000
# 4 0.0000 0.0000 0.0000 22.8636 0.0000 0.0000
# 5 0.0000 0.0000 0.0000 0.0000 27.4720 0.0000
# 6 0.0000 0.0000 0.0000 0.0000 0.0000 -418.0893
#
#
#
# Elastic Compliance Matrix: (Units=1/GPa)
#
#
# Indices 1 2 3 4 5 6 
#
# 1 0.011821 -0.003830 -0.004326 0.000000 0.000000 0.000000
# 2 -0.003830 0.014337 -0.003283 0.000000 0.000000 0.000000
# 3 -0.004326 -0.003283 0.012409 0.000000 0.000000 0.000000
# 4 0.000000 0.000000 0.000000 0.043738 0.000000 0.000000
# 5 0.000000 0.000000 0.000000 0.000000 0.036401 0.000000
# 6 0.000000 0.000000 0.000000 0.000000 0.000000 -0.002392
#
#
# Mechanical properties :
#
#
# Convention : Reuss Voigt Hill
#
# Bulk Modulus (GPa) = 63.74134 65.36621 64.55377
# Shear Modulus (GPa) = 34.62070 -61.39871 -13.38901
#
# Velocity S-wave (km/s) = 4.14156 -5.51539 -2.57555
# Velocity P-wave (km/s) = 7.37904 2.85905 4.81020
#
# Compressibility (1/GPa) = 0.01568840
#
# Stress axis : x y z
#
# Youngs Moduli (GPa) = 84.59471 69.75020 80.58424
#
# Poissons Ratio (x) = 0.26717 0.34858
# Poissons Ratio (y) = 0.32403 0.26459
# Poissons Ratio (z) = 0.36592 0.22902
#
# Static dielectric constant tensor:
#      x y z
#    x 3.574230 0.000000 0.000000 
#    y 0.000000 3.818130 0.000000 
#    z 0.000000 0.000000 3.572740 
# 
# 
# High freq. dielectric constant tensor:
#      x y z
#    x 1.784580 0.000000 0.000000 
#    y 0.000000 1.785620 0.000000 
#    z 0.000000 0.000000 1.783420 
# 
# From -- ./inp_files/25218.got.cif
#   From: 2010.03.12/outbox.cif.g09.slc.cpg/sg69_13_cif.got.tgz:25218.got - 2010.04.10 23:52:46.
