data_PCOD8285691
_publ_section_title
;
Structure prediction by ZEFSAII (Michael W. Deem and Ramdas Pophale) SiO2 
 PCOD8285691
Probable space group: F M M M
;
_chemical_formula_sum "Si O2"
_cell_formula_units_Z 160
_cell_length_a 27.139557
_cell_length_b 9.702550
_cell_length_c 36.585236
_cell_angle_alpha 90.000000
_cell_angle_beta 90.000000
_cell_angle_gamma 90.000000
_cell_volume 9633.730762
_symmetry_space_group_name_H-M "F M M M"
_symmetry_group_IT_number 69
_symmetry_cell_setting 'orthorhombic'
loop_
_space_group_symop_operation_xyz
x,y,z
-x,-y,z
x,-y,-z
-x,y,-z
-x,-y,-z
x,y,-z
-x,y,z
x,-y,z
x,1/2+y,1/2+z
-x,1/2-y,1/2+z
x,1/2-y,1/2-z
-x,1/2+y,1/2-z
-x,1/2-y,1/2-z
x,1/2+y,1/2-z
-x,1/2+y,1/2+z
x,1/2-y,1/2+z
1/2+x,y,1/2+z
1/2-x,-y,1/2+z
1/2+x,-y,1/2-z
1/2-x,y,1/2-z
1/2-x,-y,1/2-z
1/2+x,y,1/2-z
1/2-x,y,1/2+z
1/2+x,-y,1/2+z
1/2+x,1/2+y,z
1/2-x,1/2-y,z
1/2+x,1/2-y,-z
1/2-x,1/2+y,-z
1/2-x,1/2-y,-z
1/2+x,1/2+y,-z
1/2-x,1/2+y,z
1/2+x,1/2-y,z
loop_
_atom_site_type_symbol
_atom_site_label
_atom_site_fract_x
_atom_site_fract_y
_atom_site_fract_z
Si Si1 0.295937 0.157157 0.641712
Si Si2 0.851167 0.661164 0.715736
Si Si3 0.943572 0.658605 0.957751
Si Si4 0.895356 0.160053 0.898772
Si Si5 0.445513 0.163750 0.325734
O O1 0.250000 0.250000 0.630815
O O2 0.314806 0.192794 0.682305
O O3 0.338701 0.183427 0.612239
O O4 0.278379 0.000000 0.640291
O O5 0.850566 0.500000 0.725971
O O6 0.832865 0.750000 0.750000
O O7 0.906284 0.712085 0.704702
O O8 0.934779 0.500000 0.947153
O O9 0.906821 0.753149 0.934735
O O10 0.000000 0.700360 0.949707
O O11 0.931015 0.683320 0.000000
O O12 0.929908 0.215807 0.865893
O O13 0.905813 0.000000 0.906899
O O14 0.500000 0.220521 0.315925
O O15 0.444147 0.000000 0.326970
#
# Coordination Sequence:
#
# PCOD8285691 Si02
#       5
#    32  32  32  32  32
#     4   9  19  34  50  69  91 116 150 193 239 282
#     4   9  18  31  45  64  90 117 148 186 227 273
#     4   9  18  31  46  69 103 135 156 178 216 265
#     4   9  17  30  49  71  92 117 155 197 230 267
#     4   8  14  26  44  64  88 119 150 182 224 269
#
# _framework density 16.608309999999999
#
# number of rings (size 3 to 8) (size 9 to 14) (size 15 to 20)
#    0.000    3.200    0.000    3.600    0.000    4.000 
#    0.000    6.000    0.000    1.800    0.000    0.000 
#    0.000    0.000    0.000    0.000    0.000    0.000 
#
# Total GULP energy -495888.280331 kJ/mol
# GULP energy per Si atom -12397.207008 kJ/mol
# Density = 1.657051 g / cm^3
# Si number density = 16.608310 Si / 1000 Ang^3
#
#
#
# Elastic Constant Matrix: (Units=GPa)
#
#
# Indices 1 2 3 4 5 6 
#
# 1 80.6516 43.7696 31.2903 -0.0001 -0.0001 -0.0003
# 2 43.7696 67.6774 52.9349 -0.0001 -0.0001 -0.0002
# 3 31.2903 52.9349 87.1674 0.0000 0.0000 0.0000
# 4 -0.0001 -0.0001 0.0000 31.1595 0.0000 0.0001
# 5 -0.0001 -0.0001 0.0000 0.0000 14.8342 0.0000
# 6 -0.0003 -0.0002 0.0000 0.0001 0.0000 27.8101
#
#
#
# Elastic Compliance Matrix: (Units=1/GPa)
#
#
# Indices 1 2 3 4 5 6 
#
# 1 0.019174 -0.013365 0.001234 0.000000 0.000000 0.000000
# 2 -0.013365 0.037461 -0.017952 0.000000 0.000000 0.000000
# 3 0.001234 -0.017952 0.021931 0.000000 0.000000 0.000000
# 4 0.000000 0.000000 0.000000 0.032093 0.000000 0.000000
# 5 0.000000 0.000000 0.000000 0.000000 0.067412 0.000000
# 6 0.000000 0.000000 0.000000 0.000000 0.000000 0.035958
#
#
# Mechanical properties :
#
#
# Convention : Reuss Voigt Hill
#
# Bulk Modulus (GPa) = 54.34993 54.60956 54.47975
# Shear Modulus (GPa) = 17.83625 21.92754 19.88189
#
# Velocity S-wave (km/s) = 3.28065 3.63750 3.46367
# Velocity P-wave (km/s) = 6.86628 7.11296 6.99071
#
# Compressibility (1/GPa) = 0.01839929
#
# Stress axis : x y z
#
# Youngs Moduli (GPa) = 52.15457 26.69439 45.59784
#
# Poissons Ratio (x) = 0.35678 -0.05626
# Poissons Ratio (y) = 0.69707 0.81855
# Poissons Ratio (z) = -0.06435 0.47921
#
# Static dielectric constant tensor:
#      x y z
#    x 3.131280 0.000000 0.000000 
#    y 0.000000 2.849670 0.000000 
#    z 0.000000 0.000000 2.936370 
# 
# 
# High freq. dielectric constant tensor:
#      x y z
#    x 1.635270 0.000000 0.000000 
#    y 0.000000 1.620330 0.000000 
#    z 0.000000 0.000000 1.628770 
# 
# From -- ./inp_files/10503.got.cif
#   From: 2010.03.12/outbox.cif.g09.slc.cpg/sg69_6_cif.got.tgz:10503.got - 2010.04.10 23:52:46.
