data_PCOD8285535
_publ_section_title
;
Structure prediction by ZEFSAII (Michael W. Deem and Ramdas Pophale) SiO2 
 PCOD8285535
Probable space group: F M M M
;
_chemical_formula_sum "Si O2"
_cell_formula_units_Z 176
_cell_length_a 14.723107
_cell_length_b 26.547385
_cell_length_c 22.287383
_cell_angle_alpha 90.000000
_cell_angle_beta 90.000000
_cell_angle_gamma 90.000000
_cell_volume 8711.246295
_symmetry_space_group_name_H-M "F M M M"
_symmetry_group_IT_number 69
_symmetry_cell_setting 'orthorhombic'
loop_
_space_group_symop_operation_xyz
x,y,z
-x,-y,z
x,-y,-z
-x,y,-z
-x,-y,-z
x,y,-z
-x,y,z
x,-y,z
x,1/2+y,1/2+z
-x,1/2-y,1/2+z
x,1/2-y,1/2-z
-x,1/2+y,1/2-z
-x,1/2-y,1/2-z
x,1/2+y,1/2-z
-x,1/2+y,1/2+z
x,1/2-y,1/2+z
1/2+x,y,1/2+z
1/2-x,-y,1/2+z
1/2+x,-y,1/2-z
1/2-x,y,1/2-z
1/2-x,-y,1/2-z
1/2+x,y,1/2-z
1/2-x,y,1/2+z
1/2+x,-y,1/2+z
1/2+x,1/2+y,z
1/2-x,1/2-y,z
1/2+x,1/2-y,-z
1/2-x,1/2+y,-z
1/2-x,1/2-y,-z
1/2+x,1/2+y,-z
1/2-x,1/2+y,z
1/2+x,1/2-y,z
loop_
_atom_site_type_symbol
_atom_site_label
_atom_site_fract_x
_atom_site_fract_y
_atom_site_fract_z
Si Si1 0.102259 0.362019 0.875008
Si Si2 0.604494 0.000000 0.571173
Si Si3 0.149016 0.739179 0.068690
Si Si4 0.856379 0.306802 0.751881
Si Si5 0.096571 0.665548 0.624340
Si Si6 0.269303 0.091885 0.570450
O O1 0.119220 0.318323 0.923541
O O2 0.113149 0.338442 0.809381
O O3 0.175073 0.406401 0.891177
O O4 0.000000 0.383769 0.881884
O O5 0.663475 0.952216 0.593473
O O6 0.500000 0.000000 0.596958
O O7 0.598116 0.000000 0.500000
O O8 0.250000 0.750000 0.092780
O O9 0.086556 0.775423 0.108519
O O10 0.138609 0.754467 0.000000
O O11 0.898336 0.250000 0.750000
O O12 0.750000 0.301758 0.750000
O O13 0.887549 0.339802 0.695205
O O14 0.176829 0.643285 0.583610
O O15 0.000000 0.639114 0.608907
O O16 0.246778 0.086687 0.500000
#
# Coordination Sequence:
#
# PCOD8285535 Si02
#       6
#    32  16  32  32  32  32
#     4  12  24  38  58  85 123 169 209 248 294 356
#     4   9  20  42  71  96 119 151 193 249 314 373
#     4  11  21  35  51  77 121 166 205 245 293 350
#     4  11  21  38  58  79 118 168 215 257 292 335
#     4  12  23  35  57  86 117 156 202 254 303 351
#     4  11  23  41  63  91 123 153 194 250 309 370
#
# _framework density 20.203768
#
# number of rings (size 3 to 8) (size 9 to 14) (size 15 to 20)
#    0.000    0.818    5.455    2.727    0.000    5.091 
#    0.000    0.455    0.000    3.818    0.000    2.545 
#    0.000    0.000    0.000    0.000    0.000    0.000 
#
# Total GULP energy -545441.894657 kJ/mol
# GULP energy per Si atom -12396.406697 kJ/mol
# Density = 2.015778 g / cm^3
# Si number density = 20.203768 Si / 1000 Ang^3
#
#
#
# Elastic Constant Matrix: (Units=GPa)
#
#
# Indices 1 2 3 4 5 6 
#
# 1 167.2424 39.3239 35.0746 0.0000 0.0000 0.0000
# 2 39.3239 69.3277 15.6664 0.0000 0.0000 0.0000
# 3 35.0746 15.6664 86.5355 0.0000 0.0000 0.0000
# 4 0.0000 0.0000 0.0000 17.5724 0.0000 0.0000
# 5 0.0000 0.0000 0.0000 0.0000 11.0082 0.0000
# 6 0.0000 0.0000 0.0000 0.0000 0.0000 20.0639
#
#
#
# Elastic Compliance Matrix: (Units=1/GPa)
#
#
# Indices 1 2 3 4 5 6 
#
# 1 0.007317 -0.003628 -0.002309 0.000000 0.000000 0.000000
# 2 -0.003628 0.016839 -0.001578 0.000000 0.000000 0.000000
# 3 -0.002309 -0.001578 0.012777 0.000000 0.000000 0.000000
# 4 0.000000 0.000000 0.000000 0.056907 0.000000 0.000000
# 5 0.000000 0.000000 0.000000 0.000000 0.090841 0.000000
# 6 0.000000 0.000000 0.000000 0.000000 0.000000 0.049841
#
#
# Mechanical properties :
#
#
# Convention : Reuss Voigt Hill
#
# Bulk Modulus (GPa) = 45.65586 55.91504 50.78545
# Shear Modulus (GPa) = 19.46638 25.26496 22.36567
#
# Velocity S-wave (km/s) = 3.10740 3.54009 3.33078
# Velocity P-wave (km/s) = 5.95998 6.66673 6.32323
#
# Compressibility (1/GPa) = 0.02190300
#
# Stress axis : x y z
#
# Youngs Moduli (GPa) = 136.67371 59.38624 78.26340
#
# Poissons Ratio (x) = 0.21548 0.18069
# Poissons Ratio (y) = 0.49591 0.12349
# Poissons Ratio (z) = 0.31554 0.09370
#
# Static dielectric constant tensor:
#      x y z
#    x 4.002810 0.000000 0.000000 
#    y 0.000000 3.408400 0.000000 
#    z 0.000000 0.000000 3.595370 
# 
# 
# High freq. dielectric constant tensor:
#      x y z
#    x 1.809340 0.000000 0.000000 
#    y 0.000000 1.738950 0.000000 
#    z 0.000000 0.000000 1.783770 
# 
# From -- ./inp_files/17899.got.cif
#   From: 2010.03.12/outbox.cif.g09.slc.cpg/sg69_9_cif.got.tgz:17899.got - 2010.04.10 23:52:46.
