data_PCOD8285756
_publ_section_title
;
Structure prediction by ZEFSAII (Michael W. Deem and Ramdas Pophale) SiO2 
 PCOD8285756
Probable space group: F D D D
;
_chemical_formula_sum "Si O2"
_cell_formula_units_Z 192
_cell_length_a 13.361862
_cell_length_b 28.842835
_cell_length_c 22.641732
_cell_angle_alpha 90.000000
_cell_angle_beta 90.000000
_cell_angle_gamma 90.000000
_cell_volume 8725.987231
_symmetry_space_group_name_H-M "F D D D"
_symmetry_group_IT_number 70
_space_group.IT_coordinate_system_code '2'
_symmetry_cell_setting 'orthorhombic'
loop_
_space_group_symop_operation_xyz
x,y,z
1/4-x,1/4-y,z
x,1/4-y,1/4-z
1/4-x,y,1/4-z
-x,-y,-z
3/4+x,3/4+y,-z
-x,3/4+y,3/4+z
3/4+x,-y,3/4+z
x,1/2+y,1/2+z
1/4-x,3/4-y,1/2+z
x,3/4-y,3/4-z
1/4-x,1/2+y,3/4-z
-x,1/2-y,1/2-z
3/4+x,1/4+y,1/2-z
-x,1/4+y,1/4+z
3/4+x,1/2-y,1/4+z
1/2+x,y,1/2+z
3/4-x,1/4-y,1/2+z
1/2+x,1/4-y,3/4-z
3/4-x,y,3/4-z
1/2-x,-y,1/2-z
1/4+x,3/4+y,1/2-z
1/2-x,3/4+y,1/4+z
1/4+x,-y,1/4+z
1/2+x,1/2+y,z
3/4-x,3/4-y,z
1/2+x,3/4-y,1/4-z
3/4-x,1/2+y,1/4-z
1/2-x,1/2-y,-z
1/4+x,1/4+y,-z
1/2-x,1/4+y,3/4+z
1/4+x,1/2-y,3/4+z
loop_
_atom_site_type_symbol
_atom_site_label
_atom_site_fract_x
_atom_site_fract_y
_atom_site_fract_z
Si Si1 0.812221 0.461927 0.073431
Si Si2 0.875000 0.375000 0.489778
Si Si3 0.958556 0.610440 0.253198
Si Si4 0.021926 0.193272 0.090645
Si Si5 0.475629 0.069403 0.898889
Si Si6 0.383477 0.125000 0.125000
Si Si7 0.231420 0.838599 0.571588
O O1 0.802012 0.423939 0.020226
O O2 0.773519 0.512857 0.055144
O O3 0.738981 0.450199 0.128480
O O4 0.926797 0.463444 0.097619
O O5 0.961074 0.349491 0.453506
O O6 0.825273 0.334337 0.528084
O O7 0.963889 0.660215 0.285111
O O8 0.953020 0.621474 0.183532
O O9 0.866321 0.581998 0.281838
O O10 0.125000 0.204433 0.125000
O O11 0.933705 0.171847 0.130759
O O12 0.375000 0.042447 0.875000
O O13 0.489260 0.111463 0.853141
#
# Coordination Sequence:
#
# PCOD8285756 Si02
#       7
#    32  16  32  32  32  16  32
#     4  11  22  38  64 101 127 158 222 287 315 380
#     4  12  19  36  64  90 130 175 208 254 340 402
#     4  10  20  37  61  94 131 174 214 258 324 398
#     4  12  23  40  61  93 140 173 209 267 333 398
#     4   9  19  38  67  94 122 160 214 277 331 377
#     4  12  23  40  59  86 136 196 209 242 337 414
#     4  10  17  35  65  94 122 167 217 261 330 386
#
# _framework density 22.003240999999999
#
# number of rings (size 3 to 8) (size 9 to 14) (size 15 to 20)
#    0.000    1.333    5.000    4.000    0.000    1.333 
#    0.000    5.833    0.000    2.000    0.000    0.000 
#    0.000    0.000    0.000    0.000    0.000    0.000 
#
# Total GULP energy -594656.949929 kJ/mol
# GULP energy per Si atom -12388.686457 kJ/mol
# Density = 2.195316 g / cm^3
# Si number density = 22.003241 Si / 1000 Ang^3
#
#
#
# Elastic Constant Matrix: (Units=GPa)
#
#
# Indices 1 2 3 4 5 6 
#
# 1 105.5796 24.7787 33.8337 0.0000 0.0000 0.0000
# 2 24.7787 80.0850 23.5477 0.0000 0.0000 0.0000
# 3 33.8337 23.5477 123.4471 0.0000 0.0000 0.0000
# 4 0.0000 0.0000 0.0000 80.5468 0.0000 0.0000
# 5 0.0000 0.0000 0.0000 0.0000 29.9753 0.0000
# 6 0.0000 0.0000 0.0000 0.0000 0.0000 29.0335
#
#
#
# Elastic Compliance Matrix: (Units=1/GPa)
#
#
# Indices 1 2 3 4 5 6 
#
# 1 0.010886 -0.002639 -0.002480 0.000000 0.000000 0.000000
# 2 -0.002639 0.013868 -0.001922 0.000000 0.000000 0.000000
# 3 -0.002480 -0.001922 0.009147 0.000000 0.000000 0.000000
# 4 0.000000 0.000000 0.000000 0.012415 0.000000 0.000000
# 5 0.000000 0.000000 0.000000 0.000000 0.033361 0.000000
# 6 0.000000 0.000000 0.000000 0.000000 0.000000 0.034443
#
#
# Mechanical properties :
#
#
# Convention : Reuss Voigt Hill
#
# Bulk Modulus (GPa) = 50.45715 52.60354 51.53034
# Shear Modulus (GPa) = 37.08968 43.04124 40.06546
#
# Velocity S-wave (km/s) = 4.11012 4.42762 4.27182
# Velocity P-wave (km/s) = 6.74578 7.07796 6.91386
#
# Compressibility (1/GPa) = 0.01981880
#
# Stress axis : x y z
#
# Youngs Moduli (GPa) = 91.86446 72.10651 109.32517
#
# Poissons Ratio (x) = 0.19028 0.27114
# Poissons Ratio (y) = 0.24241 0.21014
# Poissons Ratio (z) = 0.22783 0.13860
#
# Static dielectric constant tensor:
#      x y z
#    x 4.252590 0.000000 0.000000 
#    y 0.000000 3.524200 0.000000 
#    z 0.000000 0.000000 3.951140 
# 
# 
# High freq. dielectric constant tensor:
#      x y z
#    x 1.874680 0.000000 0.000000 
#    y 0.000000 1.816230 0.000000 
#    z 0.000000 0.000000 1.854640 
# 
# From -- ./inp_files/51433.got.cif
#   From: 2010.03.12/outbox.cif.g09.slc.cpg/sg70_26_cif.got.tgz:51433.got - 2010.04.16 13:46:32.
