data_PCOD8285934
_publ_section_title
;
Structure prediction by ZEFSAII (Michael W. Deem and Ramdas Pophale) SiO2 
 PCOD8285934
Probable space group: F D D D
;
_chemical_formula_sum "Si O2"
_cell_formula_units_Z 168
_cell_length_a 20.961260
_cell_length_b 32.009937
_cell_length_c 12.079446
_cell_angle_alpha 90.000000
_cell_angle_beta 90.000000
_cell_angle_gamma 90.000000
_cell_volume 8104.929117
_symmetry_space_group_name_H-M "F D D D"
_symmetry_group_IT_number 70
_space_group.IT_coordinate_system_code '2'
_symmetry_cell_setting 'orthorhombic'
loop_
_space_group_symop_operation_xyz
x,y,z
1/4-x,1/4-y,z
x,1/4-y,1/4-z
1/4-x,y,1/4-z
-x,-y,-z
3/4+x,3/4+y,-z
-x,3/4+y,3/4+z
3/4+x,-y,3/4+z
x,1/2+y,1/2+z
1/4-x,3/4-y,1/2+z
x,3/4-y,3/4-z
1/4-x,1/2+y,3/4-z
-x,1/2-y,1/2-z
3/4+x,1/4+y,1/2-z
-x,1/4+y,1/4+z
3/4+x,1/2-y,1/4+z
1/2+x,y,1/2+z
3/4-x,1/4-y,1/2+z
1/2+x,1/4-y,3/4-z
3/4-x,y,3/4-z
1/2-x,-y,1/2-z
1/4+x,3/4+y,1/2-z
1/2-x,3/4+y,1/4+z
1/4+x,-y,1/4+z
1/2+x,1/2+y,z
3/4-x,3/4-y,z
1/2+x,3/4-y,1/4-z
3/4-x,1/2+y,1/4-z
1/2-x,1/2-y,-z
1/4+x,1/4+y,-z
1/2-x,1/4+y,3/4+z
1/4+x,1/2-y,3/4+z
loop_
_atom_site_type_symbol
_atom_site_label
_atom_site_fract_x
_atom_site_fract_y
_atom_site_fract_z
Si Si1 0.410065 0.551791 0.582296
Si Si2 0.752492 0.316040 0.539141
Si Si3 0.875000 0.244728 0.875000
Si Si4 0.625000 0.125000 0.125000
Si Si5 0.401851 0.752006 0.254084
Si Si6 0.030823 0.187403 0.538115
Si Si7 0.438695 0.625000 0.125000
O O1 0.413917 0.534505 0.458634
O O2 0.400433 0.512053 0.664460
O O3 0.479115 0.570040 0.614884
O O4 0.355854 0.587260 0.585211
O O5 0.824865 0.299852 0.515835
O O6 0.708218 0.280913 0.485633
O O7 0.743560 0.317118 0.671618
O O8 0.734363 0.359586 0.477222
O O9 0.928800 0.270100 0.943768
O O10 0.582429 0.151157 0.041156
O O11 0.375000 0.747608 0.375000
#
# Coordination Sequence:
#
# PCOD8285934 Si02
#       7
#    32  32  16   8  32  32  16
#     4  11  22  39  65  95 122 169 211 267 314 383
#     4  10  21  40  63  90 126 160 207 268 319 380
#     4  11  24  41  64 100 122 162 234 262 308 387
#     4  10  26  40  56  86 124 174 204 240 334 386
#     4  10  19  38  67  90 115 160 212 259 324 372
#     4  11  22  43  64  87 130 169 209 266 323 382
#     4  10  25  38  59  97 128 163 212 256 334 388
#
# _framework density 20.728127000000001
#
# number of rings (size 3 to 8) (size 9 to 14) (size 15 to 20)
#    0.000    1.524    3.810    1.143    0.000    3.048 
#    3.429    0.000    0.000    0.000    0.000    0.000 
#    0.000    0.000    0.000    0.000    0.000    0.000 
#
# Total GULP energy -520588.532797 kJ/mol
# GULP energy per Si atom -12394.965067 kJ/mol
# Density = 2.068095 g / cm^3
# Si number density = 20.728127 Si / 1000 Ang^3
#
#
#
# Elastic Constant Matrix: (Units=GPa)
#
#
# Indices 1 2 3 4 5 6 
#
# 1 82.4166 43.1187 34.1214 0.0000 0.0000 0.0000
# 2 43.1187 97.5753 45.8351 0.0000 0.0000 0.0000
# 3 34.1214 45.8351 131.7973 0.0000 0.0000 0.0000
# 4 0.0000 0.0000 0.0000 31.8987 0.0000 0.0000
# 5 0.0000 0.0000 0.0000 0.0000 31.6995 0.0000
# 6 0.0000 0.0000 0.0000 0.0000 0.0000 -13.8557
#
#
#
# Elastic Compliance Matrix: (Units=1/GPa)
#
#
# Indices 1 2 3 4 5 6 
#
# 1 0.016229 -0.006213 -0.002041 0.000000 0.000000 0.000000
# 2 -0.006213 0.014628 -0.003479 0.000000 0.000000 0.000000
# 3 -0.002041 -0.003479 0.009326 0.000000 0.000000 0.000000
# 4 0.000000 0.000000 0.000000 0.031349 0.000000 0.000000
# 5 0.000000 0.000000 0.000000 0.000000 0.031546 0.000000
# 6 0.000000 0.000000 0.000000 0.000000 0.000000 -0.072173
#
#
# Mechanical properties :
#
#
# Convention : Reuss Voigt Hill
#
# Bulk Modulus (GPa) = 59.81741 61.99326 60.90534
# Shear Modulus (GPa) = 83.41269 22.52944 52.97107
#
# Velocity S-wave (km/s) = 6.35049 3.30040 5.06070
# Velocity P-wave (km/s) = 9.09353 6.67055 7.97460
#
# Compressibility (1/GPa) = 0.01671754
#
# Stress axis : x y z
#
# Youngs Moduli (GPa) = 61.61854 68.36166 107.23200
#
# Poissons Ratio (x) = 0.42472 0.21885
# Poissons Ratio (y) = 0.38283 0.37303
# Poissons Ratio (z) = 0.12576 0.23781
#
# Static dielectric constant tensor:
#      x y z
#    x 3.839590 0.000000 0.000000 
#    y 0.000000 3.807540 0.000000 
#    z 0.000000 0.000000 3.592810 
# 
# 
# High freq. dielectric constant tensor:
#      x y z
#    x 1.809530 0.000000 0.000000 
#    y 0.000000 1.799360 0.000000 
#    z 0.000000 0.000000 1.811150 
# 
# From -- ./inp_files/19682.got.cif
#   From: 2010.03.12/outbox.cif.g09.slc.cpg/sg70_10_cif.got.tgz:19682.got - 2010.04.16 13:46:32.
