data_PCOD8285287
_publ_section_title
;
Structure prediction by ZEFSAII (Michael W. Deem and Ramdas Pophale) SiO2 
 PCOD8285287
Probable space group: F M M M
;
_chemical_formula_sum "Si O2"
_cell_formula_units_Z 160
_cell_length_a 14.470207
_cell_length_b 18.231650
_cell_length_c 32.281212
_cell_angle_alpha 90.000000
_cell_angle_beta 90.000000
_cell_angle_gamma 90.000000
_cell_volume 8516.292137
_symmetry_space_group_name_H-M "F M M M"
_symmetry_group_IT_number 69
_symmetry_cell_setting 'orthorhombic'
loop_
_space_group_symop_operation_xyz
x,y,z
-x,-y,z
x,-y,-z
-x,y,-z
-x,-y,-z
x,y,-z
-x,y,z
x,-y,z
x,1/2+y,1/2+z
-x,1/2-y,1/2+z
x,1/2-y,1/2-z
-x,1/2+y,1/2-z
-x,1/2-y,1/2-z
x,1/2+y,1/2-z
-x,1/2+y,1/2+z
x,1/2-y,1/2+z
1/2+x,y,1/2+z
1/2-x,-y,1/2+z
1/2+x,-y,1/2-z
1/2-x,y,1/2-z
1/2-x,-y,1/2-z
1/2+x,y,1/2-z
1/2-x,y,1/2+z
1/2+x,-y,1/2+z
1/2+x,1/2+y,z
1/2-x,1/2-y,z
1/2+x,1/2-y,-z
1/2-x,1/2+y,-z
1/2-x,1/2-y,-z
1/2+x,1/2+y,-z
1/2-x,1/2+y,z
1/2+x,1/2-y,z
loop_
_atom_site_type_symbol
_atom_site_label
_atom_site_fract_x
_atom_site_fract_y
_atom_site_fract_z
Si Si1 0.605260 0.320659 0.275456
Si Si2 0.394615 0.082816 0.300596
Si Si3 0.246765 0.586689 0.065738
Si Si4 0.604918 0.087316 0.500000
Si Si5 0.898259 0.413033 0.000000
Si Si6 0.745010 0.833139 0.151053
O O1 0.500000 0.303817 0.288664
O O2 0.644740 0.250000 0.250000
O O3 0.612688 0.392745 0.247102
O O4 0.661997 0.340086 0.316336
O O5 0.500000 0.085821 0.315989
O O6 0.339907 0.140371 0.328452
O O7 0.355428 0.000000 0.304597
O O8 0.251491 0.500000 0.069858
O O9 0.157075 0.612938 0.040411
O O10 0.230975 0.618422 0.110859
O O11 0.339627 0.613684 0.041377
O O12 0.500000 0.119349 0.500000
O O13 0.601971 0.000000 0.500000
O O14 0.905448 0.500000 0.000000
O O15 0.000000 0.376881 0.000000
O O16 0.750000 0.750000 0.136114
#
# Coordination Sequence:
#
# PCOD8285287 Si02
#       6
#    32  32  32  16  16  32
#     4  10  21  39  58  77 110 155 199 238 287 353
#     4  10  22  39  59  83 111 148 197 249 294 341
#     4   9  19  34  53  83 113 138 184 239 281 342
#     4   8  15  33  60  82 108 152 192 229 288 349
#     4   8  15  33  58  76 100 140 176 216 280 346
#     4  12  23  34  56  84 116 154 190 235 295 348
#
# _framework density 18.787519
#
# number of rings (size 3 to 8) (size 9 to 14) (size 15 to 20)
#    0.000    2.200    2.000    2.400    0.000    4.000 
#    0.000    4.000    0.000    1.200    0.000    0.000 
#    0.000    0.000    0.000    0.000    0.000    0.000 
#
# Total GULP energy -495843.141933 kJ/mol
# GULP energy per Si atom -12396.078548 kJ/mol
# Density = 1.874476 g / cm^3
# Si number density = 18.787519 Si / 1000 Ang^3
#
#
#
# Elastic Constant Matrix: (Units=GPa)
#
#
# Indices 1 2 3 4 5 6 
#
# 1 135.0681 33.3052 74.4475 0.0000 0.0000 0.0000
# 2 33.3052 63.8626 26.7454 0.0000 0.0000 0.0000
# 3 74.4475 26.7454 142.0862 0.0000 0.0000 0.0000
# 4 0.0000 0.0000 0.0000 -4.4320 0.0000 0.0000
# 5 0.0000 0.0000 0.0000 0.0000 -5.4081 0.0000
# 6 0.0000 0.0000 0.0000 0.0000 0.0000 22.0057
#
#
#
# Elastic Compliance Matrix: (Units=1/GPa)
#
#
# Indices 1 2 3 4 5 6 
#
# 1 0.011144 -0.003654 -0.005151 0.000000 0.000000 0.000000
# 2 -0.003654 0.018197 -0.001510 0.000000 0.000000 0.000000
# 3 -0.005151 -0.001510 0.010021 0.000000 0.000000 0.000000
# 4 0.000000 0.000000 0.000000 -0.225633 0.000000 0.000000
# 5 0.000000 0.000000 0.000000 0.000000 -0.184907 0.000000
# 6 0.000000 0.000000 0.000000 0.000000 0.000000 0.045443
#
#
# Mechanical properties :
#
#
# Convention : Reuss Voigt Hill
#
# Bulk Modulus (GPa) = 53.38978 67.77922 60.58450
# Shear Modulus (GPa) = -16.73029 16.20104 -0.26462
#
# Velocity S-wave (km/s) = -2.98736 2.93973 -0.37571
# Velocity P-wave (km/s) = 4.07189 6.90491 5.66825
#
# Compressibility (1/GPa) = 0.01873018
#
# Stress axis : x y z
#
# Youngs Moduli (GPa) = 89.73424 54.95390 99.78757
#
# Poissons Ratio (x) = 0.20083 0.51402
# Poissons Ratio (y) = 0.32793 0.15073
# Poissons Ratio (z) = 0.46223 0.08301
#
# Static dielectric constant tensor:
#      x y z
#    x 3.780140 0.000000 0.000000 
#    y 0.000000 3.399230 0.000000 
#    z 0.000000 0.000000 3.374680 
# 
# 
# High freq. dielectric constant tensor:
#      x y z
#    x 1.736950 0.000000 0.000000 
#    y 0.000000 1.711500 0.000000 
#    z 0.000000 0.000000 1.722820 
# 
# From -- ./inp_files/45699.got.cif
#   From: 2010.03.12/outbox.cif.g09.slc.cpg/sg69_23_cif.got.tgz:45699.got - 2010.04.10 23:52:46.
