data_PCOD8285466
_publ_section_title
;
Structure prediction by ZEFSAII (Michael W. Deem and Ramdas Pophale) SiO2 
 PCOD8285466
Probable space group: F M M M
;
_chemical_formula_sum "Si O2"
_cell_formula_units_Z 128
_cell_length_a 19.977464
_cell_length_b 22.523221
_cell_length_c 14.345450
_cell_angle_alpha 90.000000
_cell_angle_beta 90.000000
_cell_angle_gamma 90.000000
_cell_volume 6454.833303
_symmetry_space_group_name_H-M "F M M M"
_symmetry_group_IT_number 69
_symmetry_cell_setting 'orthorhombic'
loop_
_space_group_symop_operation_xyz
x,y,z
-x,-y,z
x,-y,-z
-x,y,-z
-x,-y,-z
x,y,-z
-x,y,z
x,-y,z
x,1/2+y,1/2+z
-x,1/2-y,1/2+z
x,1/2-y,1/2-z
-x,1/2+y,1/2-z
-x,1/2-y,1/2-z
x,1/2+y,1/2-z
-x,1/2+y,1/2+z
x,1/2-y,1/2+z
1/2+x,y,1/2+z
1/2-x,-y,1/2+z
1/2+x,-y,1/2-z
1/2-x,y,1/2-z
1/2-x,-y,1/2-z
1/2+x,y,1/2-z
1/2-x,y,1/2+z
1/2+x,-y,1/2+z
1/2+x,1/2+y,z
1/2-x,1/2-y,z
1/2+x,1/2-y,-z
1/2-x,1/2+y,-z
1/2-x,1/2-y,-z
1/2+x,1/2+y,-z
1/2-x,1/2+y,z
1/2+x,1/2-y,z
loop_
_atom_site_type_symbol
_atom_site_label
_atom_site_fract_x
_atom_site_fract_y
_atom_site_fract_z
Si Si1 0.076579 0.874824 0.821827
Si Si2 0.921761 0.297710 0.500000
Si Si3 0.689996 0.204204 0.000000
Si Si4 0.120684 0.000000 0.891552
Si Si5 0.278617 0.500000 0.391250
Si Si6 0.810600 0.125937 0.317869
O O1 0.087051 0.943344 0.845289
O O2 0.120478 0.856424 0.732861
O O3 0.000000 0.862637 0.795222
O O4 0.099018 0.835773 0.910004
O O5 0.881460 0.236475 0.500000
O O6 0.000000 0.282183 0.500000
O O7 0.750000 0.250000 0.000000
O O8 0.697265 0.163362 0.089497
O O9 0.199593 0.000000 0.872968
O O10 0.103468 0.000000 0.000000
O O11 0.295661 0.500000 0.500000
O O12 0.311591 0.556540 0.342548
O O13 0.750000 0.142195 0.250000
#
# Coordination Sequence:
#
# PCOD8285466 Si02
#       6
#    32  16  16  16  16  32
#     4  11  23  39  65  98 129 165 211 260 313 376
#     4  10  24  45  64  91 130 168 211 264 318 363
#     4  12  28  43  65  93 125 165 219 269 304 364
#     4  11  20  34  68  98 133 165 203 254 324 378
#     4  11  22  40  67  97 129 167 197 255 326 387
#     4  12  24  43  67  94 127 166 207 257 321 377
#
# _framework density 19.830100999999999
#
# number of rings (size 3 to 8) (size 9 to 14) (size 15 to 20)
#    0.000    0.750    5.000    3.000    0.000    5.000 
#    0.000    2.500    0.000    0.750    0.000    0.000 
#    0.000    0.000    0.000    0.000    0.000    0.000 
#
# Total GULP energy -397028.184003 kJ/mol
# GULP energy per Si atom -12407.130750 kJ/mol
# Density = 1.978497 g / cm^3
# Si number density = 19.830101 Si / 1000 Ang^3
#
#
#
# Elastic Constant Matrix: (Units=GPa)
#
#
# Indices 1 2 3 4 5 6 
#
# 1 104.2471 38.1664 74.9318 0.0000 0.0000 0.0000
# 2 38.1664 114.2742 68.3020 0.0000 0.0000 0.0000
# 3 74.9318 68.3020 165.1068 0.0000 0.0000 0.0000
# 4 0.0000 0.0000 0.0000 -108.8187 0.0000 0.0000
# 5 0.0000 0.0000 0.0000 0.0000 36.7070 0.0000
# 6 0.0000 0.0000 0.0000 0.0000 0.0000 -4.4831
#
#
#
# Elastic Compliance Matrix: (Units=1/GPa)
#
#
# Indices 1 2 3 4 5 6 
#
# 1 0.014359 -0.001197 -0.006022 0.000000 0.000000 0.000000
# 2 -0.001197 0.011725 -0.004307 0.000000 0.000000 0.000000
# 3 -0.006022 -0.004307 0.010571 0.000000 0.000000 0.000000
# 4 0.000000 0.000000 0.000000 -0.009190 0.000000 0.000000
# 5 0.000000 0.000000 0.000000 0.000000 0.027243 0.000000
# 6 0.000000 0.000000 0.000000 0.000000 0.000000 -0.223060
#
#
# Mechanical properties :
#
#
# Convention : Reuss Voigt Hill
#
# Bulk Modulus (GPa) = 73.50670 82.93649 78.22160
# Shear Modulus (GPa) = -35.52022 -1.83708 -18.67865
#
# Velocity S-wave (km/s) = -4.23688 -0.96355 -3.07242
# Velocity P-wave (km/s) = 3.63508 6.37781 5.19087
#
# Compressibility (1/GPa) = 0.01360420
#
# Stress axis : x y z
#
# Youngs Moduli (GPa) = 69.64289 85.28724 94.59446
#
# Poissons Ratio (x) = 0.10205 0.56961
# Poissons Ratio (y) = 0.08333 0.40746
# Poissons Ratio (z) = 0.41936 0.36737
#
# Static dielectric constant tensor:
#      x y z
#    x 3.645050 0.000000 0.000000 
#    y 0.000000 3.769000 0.000000 
#    z 0.000000 0.000000 3.810410 
# 
# 
# High freq. dielectric constant tensor:
#      x y z
#    x 1.772770 0.000000 0.000000 
#    y 0.000000 1.776870 0.000000 
#    z 0.000000 0.000000 1.788200 
# 
# From -- ./inp_files/16401.got.cif
#   From: 2010.03.12/outbox.cif.g09.slc.cpg/sg69_9_cif.got.tgz:16401.got - 2010.04.10 23:52:46.
