data_PCOD8285680
_publ_section_title
;
Structure prediction by ZEFSAII (Michael W. Deem and Ramdas Pophale) SiO2 
 PCOD8285680
Probable space group: F M M M
;
_chemical_formula_sum "Si O2"
_cell_formula_units_Z 160
_cell_length_a 9.543351
_cell_length_b 29.826694
_cell_length_c 41.058172
_cell_angle_alpha 90.000000
_cell_angle_beta 90.000000
_cell_angle_gamma 90.000000
_cell_volume 11687.069473
_symmetry_space_group_name_H-M "F M M M"
_symmetry_group_IT_number 69
_symmetry_cell_setting 'orthorhombic'
loop_
_space_group_symop_operation_xyz
x,y,z
-x,-y,z
x,-y,-z
-x,y,-z
-x,-y,-z
x,y,-z
-x,y,z
x,-y,z
x,1/2+y,1/2+z
-x,1/2-y,1/2+z
x,1/2-y,1/2-z
-x,1/2+y,1/2-z
-x,1/2-y,1/2-z
x,1/2+y,1/2-z
-x,1/2+y,1/2+z
x,1/2-y,1/2+z
1/2+x,y,1/2+z
1/2-x,-y,1/2+z
1/2+x,-y,1/2-z
1/2-x,y,1/2-z
1/2-x,-y,1/2-z
1/2+x,y,1/2-z
1/2-x,y,1/2+z
1/2+x,-y,1/2+z
1/2+x,1/2+y,z
1/2-x,1/2-y,z
1/2+x,1/2-y,-z
1/2-x,1/2+y,-z
1/2-x,1/2-y,-z
1/2+x,1/2+y,-z
1/2-x,1/2+y,z
1/2+x,1/2-y,z
loop_
_atom_site_type_symbol
_atom_site_label
_atom_site_fract_x
_atom_site_fract_y
_atom_site_fract_z
Si Si1 0.337918 0.448909 0.409980
Si Si2 0.657463 0.053356 0.278928
Si Si3 0.659347 0.208588 0.461294
Si Si4 0.838661 0.123848 0.537521
Si Si5 0.157463 0.053280 0.149473
O O1 0.500000 0.446349 0.400841
O O2 0.291750 0.500000 0.417355
O O3 0.302451 0.420368 0.441968
O O4 0.256507 0.427976 0.379034
O O5 0.500000 0.070324 0.273416
O O6 0.750000 0.074747 0.250000
O O7 0.710344 0.069442 0.314729
O O8 0.663456 0.000000 0.277309
O O9 0.655451 0.211571 0.500000
O O10 0.500000 0.209662 0.447503
O O11 0.750000 0.250000 0.447186
O O12 0.737150 0.163301 0.450201
O O13 0.809756 0.111770 0.500000
O O14 0.000000 0.139051 0.542459
O O15 0.000000 0.070754 0.143295
O O16 0.160481 0.000000 0.148785
#
# Coordination Sequence:
#
# PCOD8285680 Si02
#       5
#    32  32  32  32  32
#     4   9  17  27  38  52  69  93 127 161 189 217
#     4   8  13  20  30  45  63  82 106 138 176 214
#     4   9  16  26  41  59  76  92 111 138 176 223
#     4   9  17  28  40  54  73  95 120 153 190 224
#     4   8  14  24  35  46  63  88 116 146 181 218
#
# _framework density 13.690344
#
# number of rings (size 3 to 8) (size 9 to 14) (size 15 to 20)
#    0.000    3.400    0.000    1.800    0.000    4.400 
#    0.000    6.000    0.000    0.000    0.000    5.600 
#    0.000    0.000    0.000    0.000    0.000    1.000 
#
# Total GULP energy -495704.603562 kJ/mol
# GULP energy per Si atom -12392.615089 kJ/mol
# Density = 1.365918 g / cm^3
# Si number density = 13.690344 Si / 1000 Ang^3
#
#
#
# Elastic Constant Matrix: (Units=GPa)
#
#
# Indices 1 2 3 4 5 6 
#
# 1 79.6751 38.9112 50.5251 0.0000 0.0000 0.0000
# 2 38.9112 51.5424 36.4878 0.0000 0.0000 0.0000
# 3 50.5251 36.4878 88.7514 0.0000 0.0000 0.0000
# 4 0.0000 0.0000 0.0000 1.0030 0.0000 0.0000
# 5 0.0000 0.0000 0.0000 0.0000 23.8414 0.0000
# 6 0.0000 0.0000 0.0000 0.0000 0.0000 16.1299
#
#
#
# Elastic Compliance Matrix: (Units=1/GPa)
#
#
# Indices 1 2 3 4 5 6 
#
# 1 0.023862 -0.011845 -0.008715 0.000000 0.000000 0.000000
# 2 -0.011845 0.033246 -0.006925 0.000000 0.000000 0.000000
# 3 -0.008715 -0.006925 0.019076 0.000000 0.000000 0.000000
# 4 0.000000 0.000000 0.000000 0.996970 0.000000 0.000000
# 5 0.000000 0.000000 0.000000 0.000000 0.041944 0.000000
# 6 0.000000 0.000000 0.000000 0.000000 0.000000 0.061997
#
#
# Mechanical properties :
#
#
# Convention : Reuss Voigt Hill
#
# Bulk Modulus (GPa) = 47.13781 52.42411 49.78096
# Shear Modulus (GPa) = 4.03507 14.46454 9.24981
#
# Velocity S-wave (km/s) = 1.71866 3.25399 2.60214
# Velocity P-wave (km/s) = 6.20037 7.24526 6.74308
#
# Compressibility (1/GPa) = 0.02121439
#
# Stress axis : x y z
#
# Youngs Moduli (GPa) = 41.90761 30.07871 52.42317
#
# Poissons Ratio (x) = 0.35628 0.45684
# Poissons Ratio (y) = 0.49640 0.36303
# Poissons Ratio (z) = 0.36521 0.20829
#
# Static dielectric constant tensor:
#      x y z
#    x 2.914470 0.000000 0.000000 
#    y 0.000000 2.375750 0.000000 
#    z 0.000000 0.000000 2.813150 
# 
# 
# High freq. dielectric constant tensor:
#      x y z
#    x 1.530120 0.000000 0.000000 
#    y 0.000000 1.468560 0.000000 
#    z 0.000000 0.000000 1.505950 
# 
# From -- ./inp_files/12385.got.cif
#   From: 2010.03.12/outbox.cif.g09.slc.cpg/sg69_7_cif.got.tgz:12385.got - 2010.04.10 23:52:46.
