data_PCOD8285814
_publ_section_title
;
Structure prediction by ZEFSAII (Michael W. Deem and Ramdas Pophale) SiO2 
 PCOD8285814
Probable space group: F D D D
;
_chemical_formula_sum "Si O2"
_cell_formula_units_Z 128
_cell_length_a 16.442935
_cell_length_b 29.027043
_cell_length_c 12.799201
_cell_angle_alpha 90.000000
_cell_angle_beta 90.000000
_cell_angle_gamma 90.000000
_cell_volume 6108.927846
_symmetry_space_group_name_H-M "F D D D"
_symmetry_group_IT_number 70
_space_group.IT_coordinate_system_code '2'
_symmetry_cell_setting 'orthorhombic'
loop_
_space_group_symop_operation_xyz
x,y,z
1/4-x,1/4-y,z
x,1/4-y,1/4-z
1/4-x,y,1/4-z
-x,-y,-z
3/4+x,3/4+y,-z
-x,3/4+y,3/4+z
3/4+x,-y,3/4+z
x,1/2+y,1/2+z
1/4-x,3/4-y,1/2+z
x,3/4-y,3/4-z
1/4-x,1/2+y,3/4-z
-x,1/2-y,1/2-z
3/4+x,1/4+y,1/2-z
-x,1/4+y,1/4+z
3/4+x,1/2-y,1/4+z
1/2+x,y,1/2+z
3/4-x,1/4-y,1/2+z
1/2+x,1/4-y,3/4-z
3/4-x,y,3/4-z
1/2-x,-y,1/2-z
1/4+x,3/4+y,1/2-z
1/2-x,3/4+y,1/4+z
1/4+x,-y,1/4+z
1/2+x,1/2+y,z
3/4-x,3/4-y,z
1/2+x,3/4-y,1/4-z
3/4-x,1/2+y,1/4-z
1/2-x,1/2-y,-z
1/4+x,1/4+y,-z
1/2-x,1/4+y,3/4+z
1/4+x,1/2-y,3/4+z
loop_
_atom_site_type_symbol
_atom_site_label
_atom_site_fract_x
_atom_site_fract_y
_atom_site_fract_z
Si Si1 0.986446 0.673158 0.931002
Si Si2 0.369608 0.426528 0.044698
Si Si3 0.661176 0.375000 0.875000
Si Si4 0.310658 0.087318 0.950245
Si Si5 0.375000 0.253876 0.875000
O O1 0.950547 0.639884 0.840986
O O2 0.947424 0.723270 0.920731
O O3 0.083313 0.678193 0.906522
O O4 0.970310 0.652319 0.045661
O O5 0.375000 0.375000 0.996891
O O6 0.274254 0.439945 0.055211
O O7 0.410478 0.462990 0.965937
O O8 0.600979 0.410330 0.815019
O O9 0.375000 0.061190 0.875000
#
# Coordination Sequence:
#
# PCOD8285814 Si02
#       5
#    32  32  16  32  16
#     4  10  21  39  59  96 129 165 217 269 321 386
#     4  10  23  36  60  94 134 163 210 268 323 390
#     4  10  18  36  68  84 122 178 212 260 329 381
#     4   9  19  38  60  85 123 166 215 258 313 389
#     4  12  21  36  64 100 130 164 212 284 327 364
#
# _framework density 20.952939000000001
#
# number of rings (size 3 to 8) (size 9 to 14) (size 15 to 20)
#    0.000    2.000    3.750    1.125    7.000    2.000 
#    0.000   15.625    0.000   27.000    0.000    0.000 
#    0.000    0.000    0.000    0.000    0.000    0.000 
#
# Total GULP energy -396574.464853 kJ/mol
# GULP energy per Si atom -12392.952027 kJ/mol
# Density = 2.090525 g / cm^3
# Si number density = 20.952939 Si / 1000 Ang^3
#
#
#
# Elastic Constant Matrix: (Units=GPa)
#
#
# Indices 1 2 3 4 5 6 
#
# 1 146.2316 27.8007 75.6303 0.0000 0.0000 0.0000
# 2 27.8007 96.8881 40.9837 0.0000 0.0000 0.0000
# 3 75.6303 40.9837 148.1252 0.0000 0.0000 0.0000
# 4 0.0000 0.0000 0.0000 20.8091 0.0000 0.0000
# 5 0.0000 0.0000 0.0000 0.0000 37.0122 0.0000
# 6 0.0000 0.0000 0.0000 0.0000 0.0000 19.3382
#
#
#
# Elastic Compliance Matrix: (Units=1/GPa)
#
#
# Indices 1 2 3 4 5 6 
#
# 1 0.009340 -0.000751 -0.004561 0.000000 0.000000 0.000000
# 2 -0.000751 0.011750 -0.002868 0.000000 0.000000 0.000000
# 3 -0.004561 -0.002868 0.009873 0.000000 0.000000 0.000000
# 4 0.000000 0.000000 0.000000 0.048056 0.000000 0.000000
# 5 0.000000 0.000000 0.000000 0.000000 0.027018 0.000000
# 6 0.000000 0.000000 0.000000 0.000000 0.000000 0.051711
#
#
# Mechanical properties :
#
#
# Convention : Reuss Voigt Hill
#
# Bulk Modulus (GPa) = 68.47397 75.56381 72.01889
# Shear Modulus (GPa) = 27.93677 31.88723 29.91200
#
# Velocity S-wave (km/s) = 3.65541 3.90532 3.78243
# Velocity P-wave (km/s) = 7.11104 7.51514 7.31588
#
# Compressibility (1/GPa) = 0.01460409
#
# Stress axis : x y z
#
# Youngs Moduli (GPa) = 107.06344 85.10937 101.28222
#
# Poissons Ratio (x) = 0.06389 0.46198
# Poissons Ratio (y) = 0.08036 0.29044
# Poissons Ratio (z) = 0.48835 0.24406
#
# Static dielectric constant tensor:
#      x y z
#    x 4.289740 0.000000 0.000000 
#    y 0.000000 3.478780 0.000000 
#    z 0.000000 0.000000 3.743170 
# 
# 
# High freq. dielectric constant tensor:
#      x y z
#    x 1.828440 0.000000 0.000000 
#    y 0.000000 1.789510 0.000000 
#    z 0.000000 0.000000 1.805710 
# 
# From -- ./inp_files/26402.got.cif
#   From: 2010.03.12/outbox.cif.g09.slc.cpg/sg70_14_cif.got.tgz:26402.got - 2010.04.16 13:46:32.
