data_PCOD8285882
_publ_section_title
;
Structure prediction by ZEFSAII (Michael W. Deem and Ramdas Pophale) SiO2 
 PCOD8285882
Probable space group: F D D D
;
_chemical_formula_sum "Si O2"
_cell_formula_units_Z 192
_cell_length_a 31.449317
_cell_length_b 10.708289
_cell_length_c 25.553252
_cell_angle_alpha 90.000000
_cell_angle_beta 90.000000
_cell_angle_gamma 90.000000
_cell_volume 8605.527159
_symmetry_space_group_name_H-M "F D D D"
_symmetry_group_IT_number 70
_space_group.IT_coordinate_system_code '2'
_symmetry_cell_setting 'orthorhombic'
loop_
_space_group_symop_operation_xyz
x,y,z
1/4-x,1/4-y,z
x,1/4-y,1/4-z
1/4-x,y,1/4-z
-x,-y,-z
3/4+x,3/4+y,-z
-x,3/4+y,3/4+z
3/4+x,-y,3/4+z
x,1/2+y,1/2+z
1/4-x,3/4-y,1/2+z
x,3/4-y,3/4-z
1/4-x,1/2+y,3/4-z
-x,1/2-y,1/2-z
3/4+x,1/4+y,1/2-z
-x,1/4+y,1/4+z
3/4+x,1/2-y,1/4+z
1/2+x,y,1/2+z
3/4-x,1/4-y,1/2+z
1/2+x,1/4-y,3/4-z
3/4-x,y,3/4-z
1/2-x,-y,1/2-z
1/4+x,3/4+y,1/2-z
1/2-x,3/4+y,1/4+z
1/4+x,-y,1/4+z
1/2+x,1/2+y,z
3/4-x,3/4-y,z
1/2+x,3/4-y,1/4-z
3/4-x,1/2+y,1/4-z
1/2-x,1/2-y,-z
1/4+x,1/4+y,-z
1/2-x,1/4+y,3/4+z
1/4+x,1/2-y,3/4+z
loop_
_atom_site_type_symbol
_atom_site_label
_atom_site_fract_x
_atom_site_fract_y
_atom_site_fract_z
Si Si1 0.625000 0.625000 0.219668
Si Si2 0.936367 0.813486 0.057150
Si Si3 0.228525 0.321872 0.047879
Si Si4 0.928133 0.445662 0.663084
Si Si5 0.884922 0.112230 0.316736
Si Si6 0.496850 0.625000 0.125000
Si Si7 0.094852 0.289630 0.786200
O O1 0.667038 0.614739 0.256463
O O2 0.620764 0.505944 0.182938
O O3 0.917717 0.888142 0.106365
O O4 0.925503 0.667829 0.055829
O O5 0.987342 0.821288 0.061578
O O6 0.183562 0.393964 0.044999
O O7 0.222958 0.217668 0.093114
O O8 0.250000 0.250000 0.000000
O O9 0.967611 0.541170 0.663816
O O10 0.936280 0.328232 0.702574
O O11 0.887516 0.524360 0.680335
O O12 0.875000 0.058404 0.375000
O O13 0.855571 0.037658 0.275672
#
# Coordination Sequence:
#
# PCOD8285882 Si02
#       7
#    16  32  32  32  32  16  32
#     4  10  19  34  60  96 126 158 215 274 336 386
#     4  10  21  35  62  99 130 164 206 274 346 398
#     4  11  22  41  62  94 137 168 217 281 338 394
#     4  10  21  36  61  96 128 160 210 269 337 399
#     4  11  24  39  63  94 125 177 227 275 325 392
#     4  10  24  34  61  96 126 170 204 268 337 392
#     4  10  22  37  64  93 126 165 215 272 325 401
#
# _framework density 22.311242
#
# number of rings (size 3 to 8) (size 9 to 14) (size 15 to 20)
#    0.000    1.667    1.667    2.750   14.000    0.000 
#    0.000    1.667    0.000   37.000    0.000    0.000 
#    0.000    0.000    0.000    0.000    0.000    0.000 
#
# Total GULP energy -594885.993957 kJ/mol
# GULP energy per Si atom -12393.458207 kJ/mol
# Density = 2.226046 g / cm^3
# Si number density = 22.311242 Si / 1000 Ang^3
#
#
#
# Elastic Constant Matrix: (Units=GPa)
#
#
# Indices 1 2 3 4 5 6 
#
# 1 61.1608 11.7798 21.5144 0.0000 0.0000 0.0000
# 2 11.7798 97.8316 21.2011 0.0000 0.0000 0.0000
# 3 21.5144 21.2011 101.8804 0.0000 0.0000 0.0000
# 4 0.0000 0.0000 0.0000 18.7514 0.0000 0.0000
# 5 0.0000 0.0000 0.0000 0.0000 17.5607 0.0000
# 6 0.0000 0.0000 0.0000 0.0000 0.0000 10.1108
#
#
#
# Elastic Compliance Matrix: (Units=1/GPa)
#
#
# Indices 1 2 3 4 5 6 
#
# 1 0.017842 -0.001395 -0.003478 0.000000 0.000000 0.000000
# 2 -0.001395 0.010813 -0.001956 0.000000 0.000000 0.000000
# 3 -0.003478 -0.001956 0.010957 0.000000 0.000000 0.000000
# 4 0.000000 0.000000 0.000000 0.053329 0.000000 0.000000
# 5 0.000000 0.000000 0.000000 0.000000 0.056945 0.000000
# 6 0.000000 0.000000 0.000000 0.000000 0.000000 0.098904
#
#
# Mechanical properties :
#
#
# Convention : Reuss Voigt Hill
#
# Bulk Modulus (GPa) = 38.52612 41.09593 39.81102
# Shear Modulus (GPa) = 18.44339 23.04306 20.74323
#
# Velocity S-wave (km/s) = 2.87826 3.21721 3.05244
# Velocity P-wave (km/s) = 5.32455 5.67978 5.50503
#
# Compressibility (1/GPa) = 0.02595642
#
# Stress axis : x y z
#
# Youngs Moduli (GPa) = 56.04664 92.47775 91.26772
#
# Poissons Ratio (x) = 0.12898 0.31739
# Poissons Ratio (y) = 0.07817 0.17849
# Poissons Ratio (z) = 0.19491 0.18086
#
# Static dielectric constant tensor:
#      x y z
#    x 3.928560 0.000000 0.000000 
#    y 0.000000 4.126380 0.000000 
#    z 0.000000 0.000000 4.053840 
# 
# 
# High freq. dielectric constant tensor:
#      x y z
#    x 1.861750 0.000000 0.000000 
#    y 0.000000 1.873770 0.000000 
#    z 0.000000 0.000000 1.879990 
# 
# From -- ./inp_files/62236.got.cif
#   From: 2010.03.12/outbox.cif.g09.slc.cpg/sg70_32_cif.got.tgz:62236.got - 2010.04.16 13:46:32.
