data_PCOD8285403
_publ_section_title
;
Structure prediction by ZEFSAII (Michael W. Deem and Ramdas Pophale) SiO2 
 PCOD8285403
Probable space group: F M M M
;
_chemical_formula_sum "Si O2"
_cell_formula_units_Z 120
_cell_length_a 11.784787
_cell_length_b 26.789054
_cell_length_c 19.458339
_cell_angle_alpha 90.000000
_cell_angle_beta 90.000000
_cell_angle_gamma 90.000000
_cell_volume 6143.061744
_symmetry_space_group_name_H-M "F M M M"
_symmetry_group_IT_number 69
_symmetry_cell_setting 'orthorhombic'
loop_
_space_group_symop_operation_xyz
x,y,z
-x,-y,z
x,-y,-z
-x,y,-z
-x,-y,-z
x,y,-z
-x,y,z
x,-y,z
x,1/2+y,1/2+z
-x,1/2-y,1/2+z
x,1/2-y,1/2-z
-x,1/2+y,1/2-z
-x,1/2-y,1/2-z
x,1/2+y,1/2-z
-x,1/2+y,1/2+z
x,1/2-y,1/2+z
1/2+x,y,1/2+z
1/2-x,-y,1/2+z
1/2+x,-y,1/2-z
1/2-x,y,1/2-z
1/2-x,-y,1/2-z
1/2+x,y,1/2-z
1/2-x,y,1/2+z
1/2+x,-y,1/2+z
1/2+x,1/2+y,z
1/2-x,1/2-y,z
1/2+x,1/2-y,-z
1/2-x,1/2+y,-z
1/2-x,1/2-y,-z
1/2+x,1/2+y,-z
1/2-x,1/2+y,z
1/2+x,1/2-y,z
loop_
_atom_site_type_symbol
_atom_site_label
_atom_site_fract_x
_atom_site_fract_y
_atom_site_fract_z
Si Si1 0.624524 0.393583 0.120663
Si Si2 0.500000 0.558901 0.237024
Si Si3 0.767592 0.805151 0.669847
Si Si4 0.746580 0.944689 0.000000
Si Si5 0.000000 0.639573 0.856052
Si Si6 0.000000 0.588204 0.000000
O O1 0.500000 0.387991 0.085912
O O2 0.611364 0.426322 0.191193
O O3 0.670694 0.339091 0.136780
O O4 0.711572 0.418868 0.069129
O O5 0.500000 0.500000 0.254586
O O6 0.500000 0.590516 0.307290
O O7 0.750000 0.803056 0.750000
O O8 0.750000 0.750000 0.637895
O O9 0.891937 0.825971 0.655885
O O10 0.610777 0.946437 0.000000
O O11 0.796584 0.000000 0.000000
O O12 0.000000 0.623492 0.934402
#
# Coordination Sequence:
#
# PCOD8285403 Si02
#       6
#    32  16  32  16  16   8
#     4  10  22  41  64  98 132 162 221 277 318 382
#     4  10  22  40  68  96 129 170 219 273 326 378
#     4  11  23  41  71  99 128 172 217 277 334 382
#     4  12  24  42  67  93 135 183 219 265 328 389
#     4  12  24  46  64  95 137 168 219 270 321 401
#     4  12  27  44  60  90 138 174 212 262 329 394
#
# _framework density 19.534234000000001
#
# number of rings (size 3 to 8) (size 9 to 14) (size 15 to 20)
#    0.800    0.267    5.333    1.400    1.867    2.667 
#    0.000    4.000    0.000    0.000    0.000    0.000 
#    0.000    0.000    0.000    0.000    0.000    0.000 
#
# Total GULP energy -371915.457157 kJ/mol
# GULP energy per Si atom -12397.181905 kJ/mol
# Density = 1.948977 g / cm^3
# Si number density = 19.534234 Si / 1000 Ang^3
#
#
#
# Elastic Constant Matrix: (Units=GPa)
#
#
# Indices 1 2 3 4 5 6 
#
# 1 121.0359 51.6860 27.2719 0.0000 0.0000 0.0000
# 2 51.6860 183.4261 56.9510 0.0000 0.0000 0.0000
# 3 27.2719 56.9510 117.5075 0.0000 0.0000 0.0000
# 4 0.0000 0.0000 0.0000 21.4822 0.0000 0.0000
# 5 0.0000 0.0000 0.0000 0.0000 32.9408 0.0000
# 6 0.0000 0.0000 0.0000 0.0000 0.0000 21.2247
#
#
#
# Elastic Compliance Matrix: (Units=1/GPa)
#
#
# Indices 1 2 3 4 5 6 
#
# 1 0.009505 -0.002346 -0.001069 0.000000 0.000000 0.000000
# 2 -0.002346 0.006997 -0.002846 0.000000 0.000000 0.000000
# 3 -0.001069 -0.002846 0.010138 0.000000 0.000000 0.000000
# 4 0.000000 0.000000 0.000000 0.046550 0.000000 0.000000
# 5 0.000000 0.000000 0.000000 0.000000 0.030357 0.000000
# 6 0.000000 0.000000 0.000000 0.000000 0.000000 0.047115
#
#
# Mechanical properties :
#
#
# Convention : Reuss Voigt Hill
#
# Bulk Modulus (GPa) = 70.84152 77.08749 73.96451
# Shear Modulus (GPa) = 29.78131 34.20024 31.99078
#
# Velocity S-wave (km/s) = 3.90881 4.18878 4.05121
# Velocity P-wave (km/s) = 7.53099 7.93366 7.73494
#
# Compressibility (1/GPa) = 0.01411601
#
# Stress axis : x y z
#
# Youngs Moduli (GPa) = 105.20976 142.92340 98.64180
#
# Poissons Ratio (x) = 0.33536 0.10542
# Poissons Ratio (y) = 0.24687 0.28078
# Poissons Ratio (z) = 0.11244 0.40683
#
# Static dielectric constant tensor:
#      x y z
#    x 3.650350 0.000000 0.000000 
#    y 0.000000 3.804960 0.000000 
#    z 0.000000 0.000000 3.486100 
# 
# 
# High freq. dielectric constant tensor:
#      x y z
#    x 1.770780 0.000000 0.000000 
#    y 0.000000 1.764240 0.000000 
#    z 0.000000 0.000000 1.756990 
# 
# From -- ./inp_files/28981.got.cif
#   From: 2010.03.12/outbox.cif.g09.slc.cpg/sg69_15_cif.got.tgz:28981.got - 2010.04.10 23:52:46.
