data_PCOD8285586
_publ_section_title
;
Structure prediction by ZEFSAII (Michael W. Deem and Ramdas Pophale) SiO2 
 PCOD8285586
Probable space group: F M M M
;
_chemical_formula_sum "Si O2"
_cell_formula_units_Z 144
_cell_length_a 13.775855
_cell_length_b 16.968038
_cell_length_c 32.605021
_cell_angle_alpha 90.000000
_cell_angle_beta 90.000000
_cell_angle_gamma 90.000000
_cell_volume 7621.398589
_symmetry_space_group_name_H-M "F M M M"
_symmetry_group_IT_number 69
_symmetry_cell_setting 'orthorhombic'
loop_
_space_group_symop_operation_xyz
x,y,z
-x,-y,z
x,-y,-z
-x,y,-z
-x,-y,-z
x,y,-z
-x,y,z
x,-y,z
x,1/2+y,1/2+z
-x,1/2-y,1/2+z
x,1/2-y,1/2-z
-x,1/2+y,1/2-z
-x,1/2-y,1/2-z
x,1/2+y,1/2-z
-x,1/2+y,1/2+z
x,1/2-y,1/2+z
1/2+x,y,1/2+z
1/2-x,-y,1/2+z
1/2+x,-y,1/2-z
1/2-x,y,1/2-z
1/2-x,-y,1/2-z
1/2+x,y,1/2-z
1/2-x,y,1/2+z
1/2+x,-y,1/2+z
1/2+x,1/2+y,z
1/2-x,1/2-y,z
1/2+x,1/2-y,-z
1/2-x,1/2+y,-z
1/2-x,1/2-y,-z
1/2+x,1/2+y,-z
1/2-x,1/2+y,z
1/2+x,1/2-y,z
loop_
_atom_site_type_symbol
_atom_site_label
_atom_site_fract_x
_atom_site_fract_y
_atom_site_fract_z
Si Si1 0.108882 0.911540 0.357276
Si Si2 0.229324 0.660641 0.075926
Si Si3 0.765632 0.911335 0.206081
Si Si4 0.110595 0.593707 0.630828
Si Si5 0.112301 0.407277 0.000000
O O1 0.155515 0.845785 0.386271
O O2 0.159294 0.911020 0.313414
O O3 0.000000 0.885917 0.349633
O O4 0.117765 0.000000 0.376816
O O5 0.250000 0.750000 0.063597
O O6 0.331190 0.621492 0.090227
O O7 0.175994 0.618480 0.038612
O O8 0.750000 0.866893 0.250000
O O9 0.841537 0.872486 0.173320
O O10 0.802794 0.000000 0.214995
O O11 0.118050 0.500000 0.631868
O O12 0.000000 0.623464 0.627611
O O13 0.103535 0.500000 0.000000
O O14 0.000000 0.373207 0.000000
#
# Coordination Sequence:
#
# PCOD8285586 Si02
#       5
#    32  32  32  32  16
#     4   9  17  31  52  76 103 137 177 220 265 311
#     4  11  22  36  54  79 108 135 167 209 255 305
#     4   8  14  25  44  74 107 134 169 221 270 307
#     4   9  18  33  52  73 102 142 180 211 251 306
#     4  11  23  40  63  85 105 131 164 207 258 308
#
# _framework density 18.894171
#
# number of rings (size 3 to 8) (size 9 to 14) (size 15 to 20)
#    0.000    2.556    0.000    4.333    0.000    4.444 
#    0.000    5.000    0.000   12.667    0.000   12.444 
#    0.000    0.000    0.000    0.000    0.000    0.000 
#
# Total GULP energy -445985.010131 kJ/mol
# GULP energy per Si atom -12388.472504 kJ/mol
# Density = 1.885117 g / cm^3
# Si number density = 18.894171 Si / 1000 Ang^3
#
#
#
# Elastic Constant Matrix: (Units=GPa)
#
#
# Indices 1 2 3 4 5 6 
#
# 1 179.7516 24.6092 65.8852 0.0000 0.0000 0.0000
# 2 24.6092 43.0422 23.1969 0.0000 0.0000 0.0000
# 3 65.8852 23.1969 125.5773 0.0000 0.0000 0.0000
# 4 0.0000 0.0000 0.0000 -4.2732 0.0000 0.0000
# 5 0.0000 0.0000 0.0000 0.0000 16.3001 0.0000
# 6 0.0000 0.0000 0.0000 0.0000 0.0000 16.2223
#
#
#
# Elastic Compliance Matrix: (Units=1/GPa)
#
#
# Indices 1 2 3 4 5 6 
#
# 1 0.007083 -0.002273 -0.003296 0.000000 0.000000 0.000000
# 2 -0.002273 0.026531 -0.003708 0.000000 0.000000 0.000000
# 3 -0.003296 -0.003708 0.010378 0.000000 0.000000 0.000000
# 4 0.000000 0.000000 0.000000 -0.234016 0.000000 0.000000
# 5 0.000000 0.000000 0.000000 0.000000 0.061349 0.000000
# 6 0.000000 0.000000 0.000000 0.000000 0.000000 0.061644
#
#
# Mechanical properties :
#
#
# Convention : Reuss Voigt Hill
#
# Bulk Modulus (GPa) = 39.31372 63.97263 51.64318
# Shear Modulus (GPa) = -125.00599 21.29516 -51.85541
#
# Velocity S-wave (km/s) = -8.14277 3.36084 -5.24450
# Velocity P-wave (km/s) = 8.21912 6.99944 3.04645
#
# Compressibility (1/GPa) = 0.02543641
#
# Stress axis : x y z
#
# Youngs Moduli (GPa) = 141.19238 37.69151 96.36217
#
# Poissons Ratio (x) = 0.08568 0.31761
# Poissons Ratio (y) = 0.32094 0.35734
# Poissons Ratio (z) = 0.46537 0.13977
#
# Static dielectric constant tensor:
#      x y z
#    x 3.722850 0.000000 0.000000 
#    y 0.000000 3.114170 0.000000 
#    z 0.000000 0.000000 3.605980 
# 
# 
# High freq. dielectric constant tensor:
#      x y z
#    x 1.743740 0.000000 0.000000 
#    y 0.000000 1.693490 0.000000 
#    z 0.000000 0.000000 1.732780 
# 
# From -- ./inp_files/19423.got.cif
#   From: 2010.03.12/outbox.cif.g09.slc.cpg/sg69_10_cif.got.tgz:19423.got - 2010.04.10 23:52:46.
