data_PCOD8285092
_publ_section_title
;
Structure prediction by ZEFSAII (Michael W. Deem and Ramdas Pophale) SiO2 
 PCOD8285092
Probable space group: F M M M
;
_chemical_formula_sum "Si O2"
_cell_formula_units_Z 192
_cell_length_a 25.019685
_cell_length_b 15.934645
_cell_length_c 24.657390
_cell_angle_alpha 90.000000
_cell_angle_beta 90.000000
_cell_angle_gamma 90.000000
_cell_volume 9830.403276
_symmetry_space_group_name_H-M "F M M M"
_symmetry_group_IT_number 69
_symmetry_cell_setting 'orthorhombic'
loop_
_space_group_symop_operation_xyz
x,y,z
-x,-y,z
x,-y,-z
-x,y,-z
-x,-y,-z
x,y,-z
-x,y,z
x,-y,z
x,1/2+y,1/2+z
-x,1/2-y,1/2+z
x,1/2-y,1/2-z
-x,1/2+y,1/2-z
-x,1/2-y,1/2-z
x,1/2+y,1/2-z
-x,1/2+y,1/2+z
x,1/2-y,1/2+z
1/2+x,y,1/2+z
1/2-x,-y,1/2+z
1/2+x,-y,1/2-z
1/2-x,y,1/2-z
1/2-x,-y,1/2-z
1/2+x,y,1/2-z
1/2-x,y,1/2+z
1/2+x,-y,1/2+z
1/2+x,1/2+y,z
1/2-x,1/2-y,z
1/2+x,1/2-y,-z
1/2-x,1/2+y,-z
1/2-x,1/2-y,-z
1/2+x,1/2+y,-z
1/2-x,1/2+y,z
1/2+x,1/2-y,z
loop_
_atom_site_type_symbol
_atom_site_label
_atom_site_fract_x
_atom_site_fract_y
_atom_site_fract_z
Si Si1 0.878996 0.000000 0.140830
Si Si2 0.121441 0.684771 0.093147
Si Si3 0.239741 0.842955 0.620683
Si Si4 0.936624 0.176489 0.292797
Si Si5 0.266324 0.000000 0.689124
Si Si6 0.940828 0.598470 0.000000
Si Si7 0.652769 0.362219 0.060668
Si Si8 0.938259 0.500000 0.255158
O O1 0.879020 0.919592 0.102611
O O2 0.829747 0.000000 0.182549
O O3 0.930239 0.000000 0.179779
O O4 0.181319 0.649199 0.095317
O O5 0.094904 0.694566 0.152022
O O6 0.088067 0.623552 0.055380
O O7 0.123318 0.773929 0.063791
O O8 0.250000 0.750000 0.646446
O O9 0.284235 0.858285 0.574488
O O10 0.242367 0.914899 0.665150
O O11 0.922053 0.250000 0.250000
O O12 0.915255 0.086168 0.270865
O O13 0.000000 0.175789 0.304058
O O14 0.250000 0.000000 0.750000
O O15 0.944722 0.500000 0.000000
O O16 0.000000 0.638684 0.000000
O O17 0.647815 0.398323 0.000000
O O18 0.000000 0.500000 0.243155
#
# Coordination Sequence:
#
# PCOD8285092 Si02
#       8
#    16  32  32  32  16  16  32  16
#     4  10  21  38  62  86 123 153 193 245 297 351
#     4  11  22  39  63  87 119 157 199 246 299 358
#     4   9  22  37  56  88 119 151 198 242 291 353
#     4  10  22  39  60  86 114 150 198 246 293 354
#     4  10  22  37  55  85 119 156 192 238 298 362
#     4  11  26  42  59  89 123 159 200 254 307 351
#     4  10  20  39  61  89 119 158 195 241 296 361
#     4  10  22  39  63  86 111 155 197 242 298 346
#
# _framework density 19.531243
#
# number of rings (size 3 to 8) (size 9 to 14) (size 15 to 20)
#    0.000    1.917    0.833    1.750    5.833    1.333 
#    0.000    0.833    0.000    0.500    0.000    0.000 
#    0.000    0.000    0.000    0.000    0.000    0.000 
#
# Total GULP energy -595152.353490 kJ/mol
# GULP energy per Si atom -12399.007364 kJ/mol
# Density = 1.948679 g / cm^3
# Si number density = 19.531243 Si / 1000 Ang^3
#
#
#
# Elastic Constant Matrix: (Units=GPa)
#
#
# Indices 1 2 3 4 5 6 
#
# 1 65.2331 27.7403 33.2427 0.0000 0.0000 0.0000
# 2 27.7403 109.9863 41.6201 0.0000 0.0000 0.0000
# 3 33.2427 41.6201 137.6712 0.0000 0.0000 0.0000
# 4 0.0000 0.0000 0.0000 20.7327 0.0000 0.0000
# 5 0.0000 0.0000 0.0000 0.0000 24.9403 0.0000
# 6 0.0000 0.0000 0.0000 0.0000 0.0000 20.2605
#
#
#
# Elastic Compliance Matrix: (Units=1/GPa)
#
#
# Indices 1 2 3 4 5 6 
#
# 1 0.018521 -0.003364 -0.003455 0.000000 0.000000 0.000000
# 2 -0.003364 0.010877 -0.002476 0.000000 0.000000 0.000000
# 3 -0.003455 -0.002476 0.008847 0.000000 0.000000 0.000000
# 4 0.000000 0.000000 0.000000 0.048233 0.000000 0.000000
# 5 0.000000 0.000000 0.000000 0.000000 0.040096 0.000000
# 6 0.000000 0.000000 0.000000 0.000000 0.000000 0.049357
#
#
# Mechanical properties :
#
#
# Convention : Reuss Voigt Hill
#
# Bulk Modulus (GPa) = 50.87879 57.56633 54.22256
# Shear Modulus (GPa) = 24.86665 27.20588 26.03626
#
# Velocity S-wave (km/s) = 3.57203 3.73626 3.65507
# Velocity P-wave (km/s) = 6.56651 6.93908 6.75536
#
# Compressibility (1/GPa) = 0.01965456
#
# Stress axis : x y z
#
# Youngs Moduli (GPa) = 53.99317 91.93330 113.03793
#
# Poissons Ratio (x) = 0.30924 0.39057
# Poissons Ratio (y) = 0.18162 0.27990
# Poissons Ratio (z) = 0.18656 0.22764
#
# Static dielectric constant tensor:
#      x y z
#    x 3.548500 0.000000 0.000000 
#    y 0.000000 3.778360 0.000000 
#    z 0.000000 0.000000 3.428020 
# 
# 
# High freq. dielectric constant tensor:
#      x y z
#    x 1.755090 0.000000 0.000000 
#    y 0.000000 1.777560 0.000000 
#    z 0.000000 0.000000 1.759790 
# 
# From -- ./inp_files/38428.got.cif
#   From: 2010.03.12/outbox.cif.g09.slc.cpg/sg69_20_cif.got.tgz:38428.got - 2010.04.10 23:52:46.
