data_PCOD8285815
_publ_section_title
;
Structure prediction by ZEFSAII (Michael W. Deem and Ramdas Pophale) SiO2 
 PCOD8285815
Probable space group: F D D D
;
_chemical_formula_sum "Si O2"
_cell_formula_units_Z 168
_cell_length_a 11.425542
_cell_length_b 27.865349
_cell_length_c 23.958971
_cell_angle_alpha 90.000000
_cell_angle_beta 90.000000
_cell_angle_gamma 90.000000
_cell_volume 7627.978490
_symmetry_space_group_name_H-M "F D D D"
_symmetry_group_IT_number 70
_space_group.IT_coordinate_system_code '2'
_symmetry_cell_setting 'orthorhombic'
loop_
_space_group_symop_operation_xyz
x,y,z
1/4-x,1/4-y,z
x,1/4-y,1/4-z
1/4-x,y,1/4-z
-x,-y,-z
3/4+x,3/4+y,-z
-x,3/4+y,3/4+z
3/4+x,-y,3/4+z
x,1/2+y,1/2+z
1/4-x,3/4-y,1/2+z
x,3/4-y,3/4-z
1/4-x,1/2+y,3/4-z
-x,1/2-y,1/2-z
3/4+x,1/4+y,1/2-z
-x,1/4+y,1/4+z
3/4+x,1/2-y,1/4+z
1/2+x,y,1/2+z
3/4-x,1/4-y,1/2+z
1/2+x,1/4-y,3/4-z
3/4-x,y,3/4-z
1/2-x,-y,1/2-z
1/4+x,3/4+y,1/2-z
1/2-x,3/4+y,1/4+z
1/4+x,-y,1/4+z
1/2+x,1/2+y,z
3/4-x,3/4-y,z
1/2+x,3/4-y,1/4-z
3/4-x,1/2+y,1/4-z
1/2-x,1/2-y,-z
1/4+x,1/4+y,-z
1/2-x,1/4+y,3/4+z
1/4+x,1/2-y,3/4+z
loop_
_atom_site_type_symbol
_atom_site_label
_atom_site_fract_x
_atom_site_fract_y
_atom_site_fract_z
Si Si1 0.510053 0.939619 0.787566
Si Si2 0.625000 0.625000 0.625000
Si Si3 0.625000 0.522256 0.125000
Si Si4 0.791707 0.442027 0.081974
Si Si5 0.044460 0.200726 0.930248
Si Si6 0.875000 0.111997 0.375000
Si Si7 0.232843 0.054224 0.232166
O O1 0.458851 0.907761 0.837214
O O2 0.426233 0.936852 0.733403
O O3 0.639490 0.920404 0.767545
O O4 0.517266 0.994578 0.805984
O O5 0.712277 0.489106 0.089924
O O6 0.687764 0.557403 0.168739
O O7 0.908399 0.449397 0.116991
O O8 0.729285 0.393924 0.101678
O O9 0.925175 0.170050 0.926676
O O10 0.137746 0.175526 0.973265
O O11 0.250000 0.000000 0.250000
#
# Coordination Sequence:
#
# PCOD8285815 Si02
#       7
#    32   8  16  32  32  16  32
#     4  11  24  46  67  96 135 192 223 277 350 422
#     4  12  30  48  62  94 164 180 220 284 360 424
#     4  11  16  36  67  99 119 171 222 286 328 392
#     4  11  21  40  69  97 134 173 229 292 343 398
#     4  11  22  43  70 102 131 183 237 281 343 424
#     4  11  25  38  64 109 143 166 232 296 351 398
#     4  10  18  36  69  94 126 166 232 272 322 402
#
# _framework density 22.024184999999999
#
# number of rings (size 3 to 8) (size 9 to 14) (size 15 to 20)
#    0.000    1.143    7.619    2.286    2.667    0.000 
#    6.857    1.905    0.000    0.000    0.000    0.000 
#    0.000    0.000    0.000    0.000    0.000    0.000 
#
# Total GULP energy -520632.251140 kJ/mol
# GULP energy per Si atom -12396.005980 kJ/mol
# Density = 2.197406 g / cm^3
# Si number density = 22.024185 Si / 1000 Ang^3
#
#
#
# Elastic Constant Matrix: (Units=GPa)
#
#
# Indices 1 2 3 4 5 6 
#
# 1 57.4029 25.3696 28.4761 0.0000 0.0000 0.0000
# 2 25.3696 75.0022 35.1637 0.0000 0.0000 0.0000
# 3 28.4761 35.1637 165.7626 0.0000 0.0000 0.0000
# 4 0.0000 0.0000 0.0000 9.1063 0.0000 0.0000
# 5 0.0000 0.0000 0.0000 0.0000 54.2594 0.0000
# 6 0.0000 0.0000 0.0000 0.0000 0.0000 23.4550
#
#
#
# Elastic Compliance Matrix: (Units=1/GPa)
#
#
# Indices 1 2 3 4 5 6 
#
# 1 0.021286 -0.006091 -0.002364 0.000000 0.000000 0.000000
# 2 -0.006091 0.016549 -0.002464 0.000000 0.000000 0.000000
# 3 -0.002364 -0.002464 0.006962 0.000000 0.000000 0.000000
# 4 0.000000 0.000000 0.000000 0.109814 0.000000 0.000000
# 5 0.000000 0.000000 0.000000 0.000000 0.018430 0.000000
# 6 0.000000 0.000000 0.000000 0.000000 0.000000 0.042635
#
#
# Mechanical properties :
#
#
# Convention : Reuss Voigt Hill
#
# Bulk Modulus (GPa) = 43.56129 52.90961 48.23545
# Shear Modulus (GPa) = 20.39430 31.30803 25.85116
#
# Velocity S-wave (km/s) = 3.04632 3.77441 3.42974
# Velocity P-wave (km/s) = 5.67408 6.56281 6.13456
#
# Compressibility (1/GPa) = 0.02295616
#
# Stress axis : x y z
#
# Youngs Moduli (GPa) = 46.97962 60.42798 143.64466
#
# Poissons Ratio (x) = 0.36809 0.33964
# Poissons Ratio (y) = 0.28617 0.35395
# Poissons Ratio (z) = 0.11108 0.14890
#
# Static dielectric constant tensor:
#      x y z
#    x 4.245980 0.000000 0.000000 
#    y 0.000000 3.714540 0.000000 
#    z 0.000000 0.000000 3.906260 
# 
# 
# High freq. dielectric constant tensor:
#      x y z
#    x 1.857370 0.000000 0.000000 
#    y 0.000000 1.846310 0.000000 
#    z 0.000000 0.000000 1.875920 
# 
# From -- ./inp_files/50437.got.cif
#   From: 2010.03.12/outbox.cif.g09.slc.cpg/sg70_26_cif.got.tgz:50437.got - 2010.04.16 13:46:32.
