data_PCOD8285456
_publ_section_title
;
Structure prediction by ZEFSAII (Michael W. Deem and Ramdas Pophale) SiO2 
 PCOD8285456
Probable space group: F M M M
;
_chemical_formula_sum "Si O2"
_cell_formula_units_Z 160
_cell_length_a 25.900230
_cell_length_b 18.288846
_cell_length_c 16.602414
_cell_angle_alpha 90.000000
_cell_angle_beta 90.000000
_cell_angle_gamma 90.000000
_cell_volume 7864.319752
_symmetry_space_group_name_H-M "F M M M"
_symmetry_group_IT_number 69
_symmetry_cell_setting 'orthorhombic'
loop_
_space_group_symop_operation_xyz
x,y,z
-x,-y,z
x,-y,-z
-x,y,-z
-x,-y,-z
x,y,-z
-x,y,z
x,-y,z
x,1/2+y,1/2+z
-x,1/2-y,1/2+z
x,1/2-y,1/2-z
-x,1/2+y,1/2-z
-x,1/2-y,1/2-z
x,1/2+y,1/2-z
-x,1/2+y,1/2+z
x,1/2-y,1/2+z
1/2+x,y,1/2+z
1/2-x,-y,1/2+z
1/2+x,-y,1/2-z
1/2-x,y,1/2-z
1/2-x,-y,1/2-z
1/2+x,y,1/2-z
1/2-x,y,1/2+z
1/2+x,-y,1/2+z
1/2+x,1/2+y,z
1/2-x,1/2-y,z
1/2+x,1/2-y,-z
1/2-x,1/2+y,-z
1/2-x,1/2-y,-z
1/2+x,1/2+y,-z
1/2-x,1/2+y,z
1/2+x,1/2-y,z
loop_
_atom_site_type_symbol
_atom_site_label
_atom_site_fract_x
_atom_site_fract_y
_atom_site_fract_z
Si Si1 0.208054 0.312905 0.333829
Si Si2 0.439907 0.416776 0.180328
Si Si3 0.129445 0.150731 0.307784
Si Si4 0.714736 0.585600 0.409644
Si Si5 0.392114 0.216587 0.409590
O O1 0.250000 0.250000 0.323150
O O2 0.173600 0.320820 0.253339
O O3 0.238852 0.386762 0.352836
O O4 0.169816 0.295319 0.407737
O O5 0.500000 0.405694 0.196535
O O6 0.428340 0.500000 0.150868
O O7 0.410244 0.403156 0.264086
O O8 0.421263 0.358318 0.114118
O O9 0.158099 0.108724 0.379357
O O10 0.096331 0.218278 0.345738
O O11 0.721133 0.616668 0.500000
O O12 0.718971 0.500000 0.408252
O O13 0.409113 0.237713 0.500000
#
# Coordination Sequence:
#
# PCOD8285456 Si02
#       5
#    32  32  32  32  32
#     4  11  22  36  58  86 119 161 206 244 290 348
#     4  10  23  44  67  90 119 157 203 257 314 370
#     4  11  23  38  63  90 118 158 203 256 298 360
#     4  11  24  37  54  85 124 164 203 249 306 363
#     4  11  24  38  61  94 124 160 202 251 308 367
#
# _framework density 20.345051999999999
#
# number of rings (size 3 to 8) (size 9 to 14) (size 15 to 20)
#    0.000    1.200    2.000    4.800    2.800    8.000 
#    0.000    1.000    0.000    1.800    0.000    7.000 
#    0.000    0.000    0.000    0.000    0.000    0.000 
#
# Total GULP energy -495829.809644 kJ/mol
# GULP energy per Si atom -12395.745241 kJ/mol
# Density = 2.029875 g / cm^3
# Si number density = 20.345052 Si / 1000 Ang^3
#
#
#
# Elastic Constant Matrix: (Units=GPa)
#
#
# Indices 1 2 3 4 5 6 
#
# 1 98.2080 41.4976 32.9206 0.0000 0.0000 0.0000
# 2 41.4976 95.0534 51.6504 0.0000 0.0000 0.0000
# 3 32.9206 51.6504 125.1460 0.0000 0.0000 0.0000
# 4 0.0000 0.0000 0.0000 26.4303 0.0000 0.0000
# 5 0.0000 0.0000 0.0000 0.0000 9.8307 0.0000
# 6 0.0000 0.0000 0.0000 0.0000 0.0000 34.5286
#
#
#
# Elastic Compliance Matrix: (Units=1/GPa)
#
#
# Indices 1 2 3 4 5 6 
#
# 1 0.012661 -0.004792 -0.001353 0.000000 0.000000 0.000000
# 2 -0.004792 0.015376 -0.005085 0.000000 0.000000 0.000000
# 3 -0.001353 -0.005085 0.010445 0.000000 0.000000 0.000000
# 4 0.000000 0.000000 0.000000 0.037835 0.000000 0.000000
# 5 0.000000 0.000000 0.000000 0.000000 0.101722 0.000000
# 6 0.000000 0.000000 0.000000 0.000000 0.000000 0.028961
#
#
# Mechanical properties :
#
#
# Convention : Reuss Voigt Hill
#
# Bulk Modulus (GPa) = 62.41622 63.39386 62.90504
# Shear Modulus (GPa) = 21.29453 26.98050 24.13752
#
# Velocity S-wave (km/s) = 3.23874 3.64558 3.44816
# Velocity P-wave (km/s) = 6.68815 6.99624 6.84393
#
# Compressibility (1/GPa) = 0.01602148
#
# Stress axis : x y z
#
# Youngs Moduli (GPa) = 78.98327 65.03694 95.73694
#
# Poissons Ratio (x) = 0.31168 0.12950
# Poissons Ratio (y) = 0.37852 0.48685
# Poissons Ratio (z) = 0.10683 0.33073
#
# Static dielectric constant tensor:
#      x y z
#    x 4.053970 0.000000 0.000000 
#    y 0.000000 3.822080 0.000000 
#    z 0.000000 0.000000 3.981600 
# 
# 
# High freq. dielectric constant tensor:
#      x y z
#    x 1.781480 0.000000 0.000000 
#    y 0.000000 1.804420 0.000000 
#    z 0.000000 0.000000 1.796040 
# 
# From -- ./inp_files/26654.got.cif
#   From: 2010.03.12/outbox.cif.g09.slc.cpg/sg69_14_cif.got.tgz:26654.got - 2010.04.10 23:52:46.
