data_PCOD8285240
_publ_section_title
;
Structure prediction by ZEFSAII (Michael W. Deem and Ramdas Pophale) SiO2 
 PCOD8285240
Probable space group: F M M M
;
_chemical_formula_sum "Si O2"
_cell_formula_units_Z 128
_cell_length_a 18.208396
_cell_length_b 14.179183
_cell_length_c 24.009103
_cell_angle_alpha 90.000000
_cell_angle_beta 90.000000
_cell_angle_gamma 90.000000
_cell_volume 6198.674511
_symmetry_space_group_name_H-M "F M M M"
_symmetry_group_IT_number 69
_symmetry_cell_setting 'orthorhombic'
loop_
_space_group_symop_operation_xyz
x,y,z
-x,-y,z
x,-y,-z
-x,y,-z
-x,-y,-z
x,y,-z
-x,y,z
x,-y,z
x,1/2+y,1/2+z
-x,1/2-y,1/2+z
x,1/2-y,1/2-z
-x,1/2+y,1/2-z
-x,1/2-y,1/2-z
x,1/2+y,1/2-z
-x,1/2+y,1/2+z
x,1/2-y,1/2+z
1/2+x,y,1/2+z
1/2-x,-y,1/2+z
1/2+x,-y,1/2-z
1/2-x,y,1/2-z
1/2-x,-y,1/2-z
1/2+x,y,1/2-z
1/2-x,y,1/2+z
1/2+x,-y,1/2+z
1/2+x,1/2+y,z
1/2-x,1/2-y,z
1/2+x,1/2-y,-z
1/2-x,1/2+y,-z
1/2-x,1/2-y,-z
1/2+x,1/2+y,-z
1/2-x,1/2+y,z
1/2+x,1/2-y,z
loop_
_atom_site_type_symbol
_atom_site_label
_atom_site_fract_x
_atom_site_fract_y
_atom_site_fract_z
Si Si1 0.082168 0.194177 0.500000
Si Si2 0.083783 0.242103 0.813475
Si Si3 0.129676 0.104032 0.000000
Si Si4 0.357915 0.610407 0.611734
Si Si5 0.191077 0.105799 0.880106
O O1 0.073536 0.308377 0.500000
O O2 0.126728 0.159248 0.446941
O O3 0.000000 0.151919 0.500000
O O4 0.110029 0.250000 0.750000
O O5 0.089065 0.345225 0.841527
O O6 0.135924 0.171501 0.846631
O O7 0.000000 0.205496 0.817147
O O8 0.181068 0.113120 0.053740
O O9 0.090030 0.000000 0.000000
O O10 0.373648 0.500000 0.607038
O O11 0.275181 0.633946 0.631062
O O12 0.175837 0.000000 0.858969
#
# Coordination Sequence:
#
# PCOD8285240 Si02
#       5
#    16  32  16  32  32
#     4  12  24  38  63  98 133 170 208 252 313 382
#     4  11  25  43  63  90 125 167 212 260 317 375
#     4  10  21  37  62  97 131 161 199 249 311 374
#     4  11  24  41  64  94 128 166 209 257 311 373
#     4  10  22  41  66  95 125 162 207 259 316 373
#
# _framework density 20.649577000000001
#
# number of rings (size 3 to 8) (size 9 to 14) (size 15 to 20)
#    0.000    1.250    2.500    2.625    0.000    9.250 
#    0.000    7.500    0.000    0.000    0.000    0.000 
#    0.000    0.000    0.000    0.000    0.000    0.000 
#
# Total GULP energy -396813.653356 kJ/mol
# GULP energy per Si atom -12400.426667 kJ/mol
# Density = 2.060258 g / cm^3
# Si number density = 20.649577 Si / 1000 Ang^3
#
#
#
# Elastic Constant Matrix: (Units=GPa)
#
#
# Indices 1 2 3 4 5 6 
#
# 1 91.7218 48.2163 37.4473 0.0000 0.0000 0.0000
# 2 48.2163 141.1774 59.0549 0.0000 0.0000 0.0000
# 3 37.4473 59.0549 149.0988 0.0000 0.0000 0.0000
# 4 0.0000 0.0000 0.0000 4.7187 0.0000 0.0000
# 5 0.0000 0.0000 0.0000 0.0000 -106.0635 0.0000
# 6 0.0000 0.0000 0.0000 0.0000 0.0000 24.7971
#
#
#
# Elastic Compliance Matrix: (Units=1/GPa)
#
#
# Indices 1 2 3 4 5 6 
#
# 1 0.013726 -0.003890 -0.001907 0.000000 0.000000 0.000000
# 2 -0.003890 0.009593 -0.002822 0.000000 0.000000 0.000000
# 3 -0.001907 -0.002822 0.008304 0.000000 0.000000 0.000000
# 4 0.000000 0.000000 0.000000 0.211921 0.000000 0.000000
# 5 0.000000 0.000000 0.000000 0.000000 -0.009428 0.000000
# 6 0.000000 0.000000 0.000000 0.000000 0.000000 0.040327
#
#
# Mechanical properties :
#
#
# Convention : Reuss Voigt Hill
#
# Bulk Modulus (GPa) = 69.52236 74.60388 72.06312
# Shear Modulus (GPa) = 16.86480 0.50911 8.68695
#
# Velocity S-wave (km/s) = 2.86092 0.49707 2.05328
# Velocity P-wave (km/s) = 6.68236 6.04453 6.37143
#
# Compressibility (1/GPa) = 0.01438386
#
# Stress axis : x y z
#
# Youngs Moduli (GPa) = 72.85454 104.24772 120.42891
#
# Poissons Ratio (x) = 0.40556 0.22960
# Poissons Ratio (y) = 0.28343 0.33989
# Poissons Ratio (z) = 0.13890 0.29422
#
# Static dielectric constant tensor:
#      x y z
#    x 3.626620 0.000000 0.000000 
#    y 0.000000 4.057240 0.000000 
#    z 0.000000 0.000000 3.751940 
# 
# 
# High freq. dielectric constant tensor:
#      x y z
#    x 1.805930 0.000000 0.000000 
#    y 0.000000 1.822110 0.000000 
#    z 0.000000 0.000000 1.805960 
# 
# From -- ./inp_files/15367.got.cif
#   From: 2010.03.12/outbox.cif.g09.slc.cpg/sg69_8_cif.got.tgz:15367.got - 2010.04.10 23:52:46.
