data_PCOD8285808
_publ_section_title
;
Structure prediction by ZEFSAII (Michael W. Deem and Ramdas Pophale) SiO2 
 PCOD8285808
Probable space group: F D D D
;
_chemical_formula_sum "Si O2"
_cell_formula_units_Z 176
_cell_length_a 27.031538
_cell_length_b 16.070622
_cell_length_c 20.266268
_cell_angle_alpha 90.000000
_cell_angle_beta 90.000000
_cell_angle_gamma 90.000000
_cell_volume 8803.943034
_symmetry_space_group_name_H-M "F D D D"
_symmetry_group_IT_number 70
_space_group.IT_coordinate_system_code '2'
_symmetry_cell_setting 'orthorhombic'
loop_
_space_group_symop_operation_xyz
x,y,z
1/4-x,1/4-y,z
x,1/4-y,1/4-z
1/4-x,y,1/4-z
-x,-y,-z
3/4+x,3/4+y,-z
-x,3/4+y,3/4+z
3/4+x,-y,3/4+z
x,1/2+y,1/2+z
1/4-x,3/4-y,1/2+z
x,3/4-y,3/4-z
1/4-x,1/2+y,3/4-z
-x,1/2-y,1/2-z
3/4+x,1/4+y,1/2-z
-x,1/4+y,1/4+z
3/4+x,1/2-y,1/4+z
1/2+x,y,1/2+z
3/4-x,1/4-y,1/2+z
1/2+x,1/4-y,3/4-z
3/4-x,y,3/4-z
1/2-x,-y,1/2-z
1/4+x,3/4+y,1/2-z
1/2-x,3/4+y,1/4+z
1/4+x,-y,1/4+z
1/2+x,1/2+y,z
3/4-x,3/4-y,z
1/2+x,3/4-y,1/4-z
3/4-x,1/2+y,1/4-z
1/2-x,1/2-y,-z
1/4+x,1/4+y,-z
1/2-x,1/4+y,3/4+z
1/4+x,1/2-y,3/4+z
loop_
_atom_site_type_symbol
_atom_site_label
_atom_site_fract_x
_atom_site_fract_y
_atom_site_fract_z
Si Si1 0.538348 0.833275 0.505929
Si Si2 0.568143 0.599705 0.754216
Si Si3 0.625000 0.625000 0.301492
Si Si4 0.729265 0.125000 0.625000
Si Si5 0.461672 0.301123 0.121582
Si Si6 0.256420 0.375000 0.375000
Si Si7 0.305132 0.755745 0.470324
O O1 0.569242 0.750343 0.493847
O O2 0.510828 0.848810 0.437568
O O3 0.500587 0.830599 0.566978
O O4 0.575240 0.910565 0.524871
O O5 0.625000 0.625000 0.756481
O O6 0.535474 0.641615 0.812619
O O7 0.542417 0.626203 0.687075
O O8 0.594094 0.561087 0.345792
O O9 0.661232 0.568602 0.259903
O O10 0.696671 0.205987 0.603934
O O11 0.470738 0.203996 0.134323
O O12 0.250000 0.750000 0.500000
#
# Coordination Sequence:
#
# PCOD8285808 Si02
#       7
#    32  32  16  16  32  16  32
#     4  10  22  38  62  92 127 167 204 250 323 370
#     4  11  23  40  69  91 122 163 211 262 313 373
#     4  12  22  39  62  93 126 162 220 254 308 385
#     4  10  18  35  65  84 127 173 194 251 322 367
#     4  11  22  42  62  93 122 163 209 265 307 380
#     4  10  25  44  65  88 127 161 208 266 322 362
#     4  10  21  38  59  89 131 162 204 262 311 375
#
# _framework density 19.991042
#
# number of rings (size 3 to 8) (size 9 to 14) (size 15 to 20)
#    0.000    1.455    4.545    1.909    2.545    1.818 
#    0.000    0.000   12.000    0.000    0.000    0.000 
#    0.000    0.000    0.000    0.000    0.000    0.000 
#
# Total GULP energy -545157.517263 kJ/mol
# GULP energy per Si atom -12389.943574 kJ/mol
# Density = 1.994554 g / cm^3
# Si number density = 19.991042 Si / 1000 Ang^3
#
#
#
# Elastic Constant Matrix: (Units=GPa)
#
#
# Indices 1 2 3 4 5 6 
#
# 1 81.1601 63.0903 41.0970 0.0000 0.0000 0.0000
# 2 63.0903 208.0282 81.8054 0.0000 0.0000 0.0000
# 3 41.0970 81.8054 147.1173 0.0000 0.0000 0.0000
# 4 0.0000 0.0000 0.0000 32.7316 0.0000 0.0000
# 5 0.0000 0.0000 0.0000 0.0000 14.7234 0.0000
# 6 0.0000 0.0000 0.0000 0.0000 0.0000 32.9898
#
#
#
# Elastic Compliance Matrix: (Units=1/GPa)
#
#
# Indices 1 2 3 4 5 6 
#
# 1 0.016745 -0.004145 -0.002373 0.000000 0.000000 0.000000
# 2 -0.004145 0.007179 -0.002834 0.000000 0.000000 0.000000
# 3 -0.002373 -0.002834 0.009036 0.000000 0.000000 0.000000
# 4 0.000000 0.000000 0.000000 0.030552 0.000000 0.000000
# 5 0.000000 0.000000 0.000000 0.000000 0.067919 0.000000
# 6 0.000000 0.000000 0.000000 0.000000 0.000000 0.030312
#
#
# Mechanical properties :
#
#
# Convention : Reuss Voigt Hill
#
# Bulk Modulus (GPa) = 70.14557 89.81009 79.97783
# Shear Modulus (GPa) = 26.99810 32.77648 29.88729
#
# Velocity S-wave (km/s) = 3.67892 4.05354 3.87076
# Velocity P-wave (km/s) = 7.29456 8.18113 7.75053
#
# Compressibility (1/GPa) = 0.01425607
#
# Stress axis : x y z
#
# Youngs Moduli (GPa) = 59.71843 139.30348 110.67119
#
# Poissons Ratio (x) = 0.57747 0.26259
# Poissons Ratio (y) = 0.24756 0.31361
# Poissons Ratio (z) = 0.14169 0.39474
#
# Static dielectric constant tensor:
#      x y z
#    x 3.194830 0.000000 0.000000 
#    y 0.000000 4.398430 0.000000 
#    z 0.000000 0.000000 4.183770 
# 
# 
# High freq. dielectric constant tensor:
#      x y z
#    x 1.753340 0.000000 0.000000 
#    y 0.000000 1.803350 0.000000 
#    z 0.000000 0.000000 1.795330 
# 
# From -- ./inp_files/38576.got.cif
#   From: 2010.03.12/outbox.cif.g09.slc.cpg/sg70_20_cif.got.tgz:38576.got - 2010.04.16 13:46:32.
