data_PCOD8285877
_publ_section_title
;
Structure prediction by ZEFSAII (Michael W. Deem and Ramdas Pophale) SiO2 
 PCOD8285877
Probable space group: F D D D
;
_chemical_formula_sum "Si O2"
_cell_formula_units_Z 160
_cell_length_a 16.831403
_cell_length_b 18.452909
_cell_length_c 24.062412
_cell_angle_alpha 90.000000
_cell_angle_beta 90.000000
_cell_angle_gamma 90.000000
_cell_volume 7473.504790
_symmetry_space_group_name_H-M "F D D D"
_symmetry_group_IT_number 70
_space_group.IT_coordinate_system_code '2'
_symmetry_cell_setting 'orthorhombic'
loop_
_space_group_symop_operation_xyz
x,y,z
1/4-x,1/4-y,z
x,1/4-y,1/4-z
1/4-x,y,1/4-z
-x,-y,-z
3/4+x,3/4+y,-z
-x,3/4+y,3/4+z
3/4+x,-y,3/4+z
x,1/2+y,1/2+z
1/4-x,3/4-y,1/2+z
x,3/4-y,3/4-z
1/4-x,1/2+y,3/4-z
-x,1/2-y,1/2-z
3/4+x,1/4+y,1/2-z
-x,1/4+y,1/4+z
3/4+x,1/2-y,1/4+z
1/2+x,y,1/2+z
3/4-x,1/4-y,1/2+z
1/2+x,1/4-y,3/4-z
3/4-x,y,3/4-z
1/2-x,-y,1/2-z
1/4+x,3/4+y,1/2-z
1/2-x,3/4+y,1/4+z
1/4+x,-y,1/4+z
1/2+x,1/2+y,z
3/4-x,3/4-y,z
1/2+x,3/4-y,1/4-z
3/4-x,1/2+y,1/4-z
1/2-x,1/2-y,-z
1/4+x,1/4+y,-z
1/2-x,1/4+y,3/4+z
1/4+x,1/2-y,3/4+z
loop_
_atom_site_type_symbol
_atom_site_label
_atom_site_fract_x
_atom_site_fract_y
_atom_site_fract_z
Si Si1 0.162905 0.439117 0.226179
Si Si2 0.033806 0.790310 0.820694
Si Si3 0.968855 0.204266 0.057765
Si Si4 0.619347 0.284571 0.712125
Si Si5 0.706710 0.162567 0.065915
O O1 0.095951 0.479720 0.262953
O O2 0.125171 0.369716 0.196339
O O3 0.228286 0.402665 0.267737
O O4 0.194497 0.498898 0.181779
O O5 0.071941 0.784943 0.881738
O O6 0.008102 0.870400 0.801570
O O7 0.099254 0.764247 0.776378
O O8 0.953508 0.743533 0.824498
O O9 0.048471 0.248593 0.052565
O O10 0.625000 0.125000 0.047114
O O11 0.732976 0.125000 0.125000
#
# Coordination Sequence:
#
# PCOD8285877 Si02
#       5
#    32  32  32  32  32
#     4  10  22  38  64  90 114 157 215 248 315 384
#     4   9  20  34  56  90 120 171 204 242 327 369
#     4  10  19  36  61  86 123 163 203 259 307 374
#     4  10  19  34  58  87 128 155 207 263 303 381
#     4  10  22  42  64  86 117 158 201 260 321 377
#
# _framework density 21.408964999999998
#
# number of rings (size 3 to 8) (size 9 to 14) (size 15 to 20)
#    0.000    2.200    0.000    2.400    5.600    1.600 
#    7.200    0.000    0.000    4.800    0.000    0.000 
#    0.000    0.000    0.000    0.000    0.000    0.000 
#
# Total GULP energy -495618.288229 kJ/mol
# GULP energy per Si atom -12390.457206 kJ/mol
# Density = 2.136024 g / cm^3
# Si number density = 21.408965 Si / 1000 Ang^3
#
#
#
# Elastic Constant Matrix: (Units=GPa)
#
#
# Indices 1 2 3 4 5 6 
#
# 1 35.6806 27.6556 20.2131 0.0000 0.0000 0.0000
# 2 27.6556 78.4720 33.9664 0.0000 0.0000 0.0000
# 3 20.2131 33.9664 84.4304 0.0000 0.0000 0.0000
# 4 0.0000 0.0000 0.0000 36.7526 0.0000 0.0000
# 5 0.0000 0.0000 0.0000 0.0000 14.4809 0.0000
# 6 0.0000 0.0000 0.0000 0.0000 0.0000 28.3717
#
#
#
# Elastic Compliance Matrix: (Units=1/GPa)
#
#
# Indices 1 2 3 4 5 6 
#
# 1 0.040064 -0.012070 -0.004736 0.000000 0.000000 0.000000
# 2 -0.012070 0.019067 -0.004781 0.000000 0.000000 0.000000
# 3 -0.004736 -0.004781 0.014901 0.000000 0.000000 0.000000
# 4 0.000000 0.000000 0.000000 0.027209 0.000000 0.000000
# 5 0.000000 0.000000 0.000000 0.000000 0.069057 0.000000
# 6 0.000000 0.000000 0.000000 0.000000 0.000000 0.035246
#
#
# Mechanical properties :
#
#
# Convention : Reuss Voigt Hill
#
# Bulk Modulus (GPa) = 32.40554 40.25033 36.32794
# Shear Modulus (GPa) = 19.30473 23.70423 21.50448
#
# Velocity S-wave (km/s) = 3.00611 3.33109 3.17276
# Velocity P-wave (km/s) = 5.21711 5.79969 5.51609
#
# Compressibility (1/GPa) = 0.03085892
#
# Stress axis : x y z
#
# Youngs Moduli (GPa) = 24.95978 52.44797 67.10850
#
# Poissons Ratio (x) = 0.63304 0.31782
# Poissons Ratio (y) = 0.30126 0.32084
# Poissons Ratio (z) = 0.11821 0.25075
#
# Static dielectric constant tensor:
#      x y z
#    x 3.828460 0.000000 0.000000 
#    y 0.000000 3.956450 0.000000 
#    z 0.000000 0.000000 3.943700 
# 
# 
# High freq. dielectric constant tensor:
#      x y z
#    x 1.838820 0.000000 0.000000 
#    y 0.000000 1.839310 0.000000 
#    z 0.000000 0.000000 1.830720 
# 
# From -- ./inp_files/35105.got.cif
#   From: 2010.03.12/outbox.cif.g09.slc.cpg/sg70_18_cif.got.tgz:35105.got - 2010.04.16 13:46:32.
