data_PCOD8285362
_publ_section_title
;
Structure prediction by ZEFSAII (Michael W. Deem and Ramdas Pophale) SiO2 
 PCOD8285362
Probable space group: F M M M
;
_chemical_formula_sum "Si O2"
_cell_formula_units_Z 176
_cell_length_a 25.044675
_cell_length_b 20.354567
_cell_length_c 17.358069
_cell_angle_alpha 90.000000
_cell_angle_beta 90.000000
_cell_angle_gamma 90.000000
_cell_volume 8848.683853
_symmetry_space_group_name_H-M "F M M M"
_symmetry_group_IT_number 69
_symmetry_cell_setting 'orthorhombic'
loop_
_space_group_symop_operation_xyz
x,y,z
-x,-y,z
x,-y,-z
-x,y,-z
-x,-y,-z
x,y,-z
-x,y,z
x,-y,z
x,1/2+y,1/2+z
-x,1/2-y,1/2+z
x,1/2-y,1/2-z
-x,1/2+y,1/2-z
-x,1/2-y,1/2-z
x,1/2+y,1/2-z
-x,1/2+y,1/2+z
x,1/2-y,1/2+z
1/2+x,y,1/2+z
1/2-x,-y,1/2+z
1/2+x,-y,1/2-z
1/2-x,y,1/2-z
1/2-x,-y,1/2-z
1/2+x,y,1/2-z
1/2-x,y,1/2+z
1/2+x,-y,1/2+z
1/2+x,1/2+y,z
1/2-x,1/2-y,z
1/2+x,1/2-y,-z
1/2-x,1/2+y,-z
1/2-x,1/2-y,-z
1/2+x,1/2+y,-z
1/2-x,1/2+y,z
1/2+x,1/2-y,z
loop_
_atom_site_type_symbol
_atom_site_label
_atom_site_fract_x
_atom_site_fract_y
_atom_site_fract_z
Si Si1 0.939359 0.077114 0.500000
Si Si2 0.437808 0.423985 0.786346
Si Si3 0.631977 0.625982 0.091163
Si Si4 0.371261 0.615725 0.351756
Si Si5 0.791316 0.500000 0.821984
Si Si6 0.811620 0.252295 0.158675
Si Si7 0.693342 0.500000 0.088129
O O1 0.906116 0.097485 0.425466
O O2 0.000000 0.107420 0.500000
O O3 0.945240 0.000000 0.500000
O O4 0.500000 0.421020 0.772713
O O5 0.418097 0.500000 0.783474
O O6 0.424586 0.388964 0.867926
O O7 0.411150 0.379504 0.720168
O O8 0.657876 0.692935 0.118897
O O9 0.669212 0.566846 0.123134
O O10 0.623365 0.627344 0.000000
O O11 0.327076 0.564025 0.325044
O O12 0.340498 0.682487 0.371315
O O13 0.750000 0.500000 0.750000
O O14 0.756465 0.500000 0.899613
O O15 0.816089 0.250000 0.250000
O O16 0.750000 0.250000 0.131894
O O17 0.678194 0.500000 0.000000
#
# Coordination Sequence:
#
# PCOD8285362 Si02
#       7
#    16  32  32  32  16  32  16
#     4  11  24  46  71 100 134 175 228 289 341 389
#     4  11  22  41  69  98 126 164 216 277 341 393
#     4  11  23  43  64  95 131 169 215 272 325 390
#     4  12  24  42  67  97 134 176 225 272 332 396
#     4  12  24  36  65  96 132 165 223 275 324 386
#     4  11  25  43  66  92 134 179 217 261 329 401
#     4  10  22  38  62  89 128 167 210 266 328 384
#
# _framework density 19.889963999999999
#
# number of rings (size 3 to 8) (size 9 to 14) (size 15 to 20)
#    0.000    0.818    4.545    2.727    5.091    2.182 
#    0.000    3.636    0.000    0.000    0.000    0.000 
#    0.000    0.000    0.000    0.000    0.000    0.000 
#
# Total GULP energy -545537.671237 kJ/mol
# GULP energy per Si atom -12398.583437 kJ/mol
# Density = 1.984469 g / cm^3
# Si number density = 19.889964 Si / 1000 Ang^3
#
#
#
# Elastic Constant Matrix: (Units=GPa)
#
#
# Indices 1 2 3 4 5 6 
#
# 1 124.8836 65.2738 60.0500 0.0000 0.0000 0.0000
# 2 65.2738 146.1592 42.1435 0.0000 0.0000 0.0000
# 3 60.0500 42.1435 117.4161 0.0000 0.0000 0.0000
# 4 0.0000 0.0000 0.0000 31.0045 0.0000 0.0000
# 5 0.0000 0.0000 0.0000 0.0000 31.2208 0.0000
# 6 0.0000 0.0000 0.0000 0.0000 0.0000 59.8255
#
#
#
# Elastic Compliance Matrix: (Units=1/GPa)
#
#
# Indices 1 2 3 4 5 6 
#
# 1 0.012565 -0.004193 -0.004921 0.000000 0.000000 0.000000
# 2 -0.004193 0.009031 -0.001097 0.000000 0.000000 0.000000
# 3 -0.004921 -0.001097 0.011427 0.000000 0.000000 0.000000
# 4 0.000000 0.000000 0.000000 0.032253 0.000000 0.000000
# 5 0.000000 0.000000 0.000000 0.000000 0.032030 0.000000
# 6 0.000000 0.000000 0.000000 0.000000 0.000000 0.016715
#
#
# Mechanical properties :
#
#
# Convention : Reuss Voigt Hill
#
# Bulk Modulus (GPa) = 79.35793 80.37707 79.86750
# Shear Modulus (GPa) = 36.06348 39.14293 37.60321
#
# Velocity S-wave (km/s) = 4.26273 4.44100 4.35278
# Velocity P-wave (km/s) = 8.01330 8.17283 8.09346
#
# Compressibility (1/GPa) = 0.01260113
#
# Stress axis : x y z
#
# Youngs Moduli (GPa) = 79.58448 110.73526 87.50846
#
# Poissons Ratio (x) = 0.46426 0.43067
# Poissons Ratio (y) = 0.33366 0.09601
# Poissons Ratio (z) = 0.39167 0.12149
#
# Static dielectric constant tensor:
#      x y z
#    x 3.866620 0.000000 0.000000 
#    y 0.000000 3.925020 0.000000 
#    z 0.000000 0.000000 3.701680 
# 
# 
# High freq. dielectric constant tensor:
#      x y z
#    x 1.783430 0.000000 0.000000 
#    y 0.000000 1.776130 0.000000 
#    z 0.000000 0.000000 1.784380 
# 
# From -- ./inp_files/26832.got.cif
#   From: 2010.03.12/outbox.cif.g09.slc.cpg/sg69_14_cif.got.tgz:26832.got - 2010.04.10 23:52:46.
