data_PCOD8285417
_publ_section_title
;
Structure prediction by ZEFSAII (Michael W. Deem and Ramdas Pophale) SiO2 
 PCOD8285417
Probable space group: F M M M
;
_chemical_formula_sum "Si O2"
_cell_formula_units_Z 72
_cell_length_a 14.990085
_cell_length_b 21.523602
_cell_length_c 10.145737
_cell_angle_alpha 90.000000
_cell_angle_beta 90.000000
_cell_angle_gamma 90.000000
_cell_volume 3273.426911
_symmetry_space_group_name_H-M "F M M M"
_symmetry_group_IT_number 69
_symmetry_cell_setting 'orthorhombic'
loop_
_space_group_symop_operation_xyz
x,y,z
-x,-y,z
x,-y,-z
-x,y,-z
-x,-y,-z
x,y,-z
-x,y,z
x,-y,z
x,1/2+y,1/2+z
-x,1/2-y,1/2+z
x,1/2-y,1/2-z
-x,1/2+y,1/2-z
-x,1/2-y,1/2-z
x,1/2+y,1/2-z
-x,1/2+y,1/2+z
x,1/2-y,1/2+z
1/2+x,y,1/2+z
1/2-x,-y,1/2+z
1/2+x,-y,1/2-z
1/2-x,y,1/2-z
1/2-x,-y,1/2-z
1/2+x,y,1/2-z
1/2-x,y,1/2+z
1/2+x,-y,1/2+z
1/2+x,1/2+y,z
1/2-x,1/2-y,z
1/2+x,1/2-y,-z
1/2-x,1/2+y,-z
1/2-x,1/2-y,-z
1/2+x,1/2+y,-z
1/2-x,1/2+y,z
1/2+x,1/2-y,z
loop_
_atom_site_type_symbol
_atom_site_label
_atom_site_fract_x
_atom_site_fract_y
_atom_site_fract_z
Si Si1 0.149921 0.728642 0.500000
Si Si2 0.500000 0.830727 0.000000
Si Si3 0.170912 0.113509 0.854354
Si Si4 0.000000 0.931846 0.724101
O O1 0.250000 0.750000 0.500000
O O2 0.412910 0.711909 0.500000
O O3 0.136311 0.685334 0.369299
O O4 0.500000 0.874829 0.124839
O O5 0.250000 0.107056 0.750000
O O6 0.088072 0.071384 0.813139
O O7 0.205460 0.091463 0.000000
O O8 0.000000 0.000000 0.655366
#
# Coordination Sequence:
#
# PCOD8285417 Si02
#       4
#    16   8  32  16
#     4  10  22  41  69 107 139 172 219 290 350 424
#     4  12  25  42  70 102 141 186 236 280 350 426
#     4  10  24  45  71 110 137 182 227 284 363 413
#     4  12  27  46  68  98 143 189 243 288 334 404
#
# _framework density 21.995297999999998
#
# number of rings (size 3 to 8) (size 9 to 14) (size 15 to 20)
#    1.333    0.000    0.000    5.000    3.111   10.667 
#    0.000    0.000    0.000    0.000    0.000    0.000 
#    0.000    0.000    0.000    0.000    0.000    0.000 
#
# Total GULP energy -223029.011589 kJ/mol
# GULP energy per Si atom -12390.500644 kJ/mol
# Density = 2.194524 g / cm^3
# Si number density = 21.995298 Si / 1000 Ang^3
#
#
#
# Elastic Constant Matrix: (Units=GPa)
#
#
# Indices 1 2 3 4 5 6 
#
# 1 165.1336 81.2401 77.7740 0.0000 0.0000 0.0000
# 2 81.2401 132.0863 33.7470 0.0000 0.0000 0.0000
# 3 77.7740 33.7470 147.7109 0.0000 0.0000 0.0000
# 4 0.0000 0.0000 0.0000 -73.3375 0.0000 0.0000
# 5 0.0000 0.0000 0.0000 0.0000 42.9553 0.0000
# 6 0.0000 0.0000 0.0000 0.0000 0.0000 -31.2438
#
#
#
# Elastic Compliance Matrix: (Units=1/GPa)
#
#
# Indices 1 2 3 4 5 6 
#
# 1 0.010894 -0.005559 -0.004466 0.000000 0.000000 0.000000
# 2 -0.005559 0.010877 0.000442 0.000000 0.000000 0.000000
# 3 -0.004466 0.000442 0.009020 0.000000 0.000000 0.000000
# 4 0.000000 0.000000 0.000000 -0.013636 0.000000 0.000000
# 5 0.000000 0.000000 0.000000 0.000000 0.023280 0.000000
# 6 0.000000 0.000000 0.000000 0.000000 0.000000 -0.032006
#
#
# Mechanical properties :
#
#
# Convention : Reuss Voigt Hill
#
# Bulk Modulus (GPa) = 86.01963 92.27255 89.14609
# Shear Modulus (GPa) = 158.87483 4.48610 81.68047
#
# Velocity S-wave (km/s) = 8.50812 1.42968 6.10050
# Velocity P-wave (km/s) = 11.64949 6.69085 9.49942
#
# Compressibility (1/GPa) = 0.01162525
#
# Stress axis : x y z
#
# Youngs Moduli (GPa) = 91.79291 91.93543 110.85988
#
# Poissons Ratio (x) = 0.51111 0.49509
# Poissons Ratio (y) = 0.51032 -0.04901
# Poissons Ratio (z) = 0.40994 -0.04065
#
# Static dielectric constant tensor:
#      x y z
#    x 3.812320 0.000000 0.000000 
#    y 0.000000 4.086810 0.000000 
#    z 0.000000 0.000000 4.015540 
# 
# 
# High freq. dielectric constant tensor:
#      x y z
#    x 1.868430 0.000000 0.000000 
#    y 0.000000 1.865960 0.000000 
#    z 0.000000 0.000000 1.860260 
# 
# From -- ./inp_files/6824.got.cif
#   From: 2010.03.12/outbox.cif.g09.slc.cpg/sg69_4_cif.got.tgz:6824.got - 2010.04.10 23:52:46.
