data_PCOD8285088
_publ_section_title
;
Structure prediction by ZEFSAII (Michael W. Deem and Ramdas Pophale) SiO2 
 PCOD8285088
Probable space group: F M M M
;
_chemical_formula_sum "Si O2"
_cell_formula_units_Z 208
_cell_length_a 27.254620
_cell_length_b 18.101173
_cell_length_c 23.467599
_cell_angle_alpha 90.000000
_cell_angle_beta 90.000000
_cell_angle_gamma 90.000000
_cell_volume 11577.519176
_symmetry_space_group_name_H-M "F M M M"
_symmetry_group_IT_number 69
_symmetry_cell_setting 'orthorhombic'
loop_
_space_group_symop_operation_xyz
x,y,z
-x,-y,z
x,-y,-z
-x,y,-z
-x,-y,-z
x,y,-z
-x,y,z
x,-y,z
x,1/2+y,1/2+z
-x,1/2-y,1/2+z
x,1/2-y,1/2-z
-x,1/2+y,1/2-z
-x,1/2-y,1/2-z
x,1/2+y,1/2-z
-x,1/2+y,1/2+z
x,1/2-y,1/2+z
1/2+x,y,1/2+z
1/2-x,-y,1/2+z
1/2+x,-y,1/2-z
1/2-x,y,1/2-z
1/2-x,-y,1/2-z
1/2+x,y,1/2-z
1/2-x,y,1/2+z
1/2+x,-y,1/2+z
1/2+x,1/2+y,z
1/2-x,1/2-y,z
1/2+x,1/2-y,-z
1/2-x,1/2+y,-z
1/2-x,1/2-y,-z
1/2+x,1/2+y,-z
1/2-x,1/2+y,z
1/2+x,1/2-y,z
loop_
_atom_site_type_symbol
_atom_site_label
_atom_site_fract_x
_atom_site_fract_y
_atom_site_fract_z
Si Si1 0.500000 0.916418 0.432788
Si Si2 0.442090 0.582741 0.652028
Si Si3 0.704911 0.582433 0.432420
Si Si4 0.445100 0.835256 0.736828
Si Si5 0.903662 0.340460 0.615849
Si Si6 0.613280 0.678136 0.567851
Si Si7 0.312591 0.913042 0.437020
O O1 0.500000 0.920533 0.500000
O O2 0.548443 0.872866 0.414373
O O3 0.500000 0.000000 0.407470
O O4 0.500000 0.583451 0.654907
O O5 0.420954 0.500000 0.649803
O O6 0.421701 0.622389 0.709057
O O7 0.427615 0.624948 0.594457
O O8 0.706091 0.576800 0.500000
O O9 0.692111 0.500000 0.408247
O O10 0.665713 0.643905 0.413043
O O11 0.759018 0.608929 0.411810
O O12 0.500000 0.865359 0.722658
O O13 0.448834 0.750000 0.750000
O O14 0.409926 0.846477 0.683346
O O15 0.893842 0.258151 0.594421
O O16 0.855296 0.387235 0.604234
O O17 0.606688 0.680265 0.500000
O O18 0.320405 0.877444 0.500000
O O19 0.315112 0.000000 0.442778
#
# Coordination Sequence:
#
# PCOD8285088 Si02
#       7
#    16  32  32  32  32  32  32
#     4  11  24  38  51  78 121 157 185 226 280 338
#     4  10  22  38  57  81 109 145 190 236 280 334
#     4   8  16  33  55  78 110 150 186 223 271 331
#     4  10  20  39  58  74 105 146 189 239 278 321
#     4  12  22  35  56  83 112 146 192 231 279 335
#     4  11  22  34  55  86 117 149 183 226 282 342
#     4   9  18  34  55  81 114 148 184 228 277 330
#
# _framework density 17.965852000000002
#
# number of rings (size 3 to 8) (size 9 to 14) (size 15 to 20)
#    0.000    1.923    2.308    3.231    1.077    4.308 
#    0.000    3.077    0.000    0.923    0.000    3.231 
#    0.000    0.000    0.000    0.000    0.000    0.000 
#
# Total GULP energy -644634.413982 kJ/mol
# GULP energy per Si atom -12396.815653 kJ/mol
# Density = 1.792496 g / cm^3
# Si number density = 17.965852 Si / 1000 Ang^3
#
#
#
# Elastic Constant Matrix: (Units=GPa)
#
#
# Indices 1 2 3 4 5 6 
#
# 1 93.3850 50.3584 31.4453 0.0000 0.0000 0.0000
# 2 50.3584 70.8994 10.9825 0.0000 0.0000 0.0000
# 3 31.4453 10.9825 68.0895 0.0000 0.0000 0.0000
# 4 0.0000 0.0000 0.0000 21.4197 0.0000 0.0000
# 5 0.0000 0.0000 0.0000 0.0000 13.0368 0.0000
# 6 0.0000 0.0000 0.0000 0.0000 0.0000 33.6318
#
#
#
# Elastic Compliance Matrix: (Units=1/GPa)
#
#
# Indices 1 2 3 4 5 6 
#
# 1 0.020327 -0.013317 -0.007240 0.000000 0.000000 0.000000
# 2 -0.013317 0.023190 0.002409 0.000000 0.000000 0.000000
# 3 -0.007240 0.002409 0.017641 0.000000 0.000000 0.000000
# 4 0.000000 0.000000 0.000000 0.046686 0.000000 0.000000
# 5 0.000000 0.000000 0.000000 0.000000 0.076706 0.000000
# 6 0.000000 0.000000 0.000000 0.000000 0.000000 0.029734
#
#
# Mechanical properties :
#
#
# Convention : Reuss Voigt Hill
#
# Bulk Modulus (GPa) = 40.21745 46.43848 43.32797
# Shear Modulus (GPa) = 19.31502 22.92349 21.11926
#
# Velocity S-wave (km/s) = 3.28242 3.57592 3.43231
# Velocity P-wave (km/s) = 6.06629 6.55392 6.31481
#
# Compressibility (1/GPa) = 0.02486483
#
# Stress axis : x y z
#
# Youngs Moduli (GPa) = 49.19524 43.12256 56.68505
#
# Poissons Ratio (x) = 0.57424 0.41038
# Poissons Ratio (y) = 0.65511 -0.13658
# Poissons Ratio (z) = 0.35616 -0.10390
#
# Static dielectric constant tensor:
#      x y z
#    x 3.619350 0.000000 0.000000 
#    y 0.000000 3.542330 0.000000 
#    z 0.000000 0.000000 2.430490 
# 
# 
# High freq. dielectric constant tensor:
#      x y z
#    x 1.692260 0.000000 0.000000 
#    y 0.000000 1.705250 0.000000 
#    z 0.000000 0.000000 1.676050 
# 
# From -- ./inp_files/38482.got.cif
#   From: 2010.03.12/outbox.cif.g09.slc.cpg/sg69_20_cif.got.tgz:38482.got - 2010.04.10 23:52:46.
