data_PCOD8285960
_publ_section_title
;
Structure prediction by ZEFSAII (Michael W. Deem and Ramdas Pophale) SiO2 
 PCOD8285960
Probable space group: F D D D
;
_chemical_formula_sum "Si O2"
_cell_formula_units_Z 176
_cell_length_a 19.155455
_cell_length_b 16.636811
_cell_length_c 25.430553
_cell_angle_alpha 90.000000
_cell_angle_beta 90.000000
_cell_angle_gamma 90.000000
_cell_volume 8104.353189
_symmetry_space_group_name_H-M "F D D D"
_symmetry_group_IT_number 70
_space_group.IT_coordinate_system_code '2'
_symmetry_cell_setting 'orthorhombic'
loop_
_space_group_symop_operation_xyz
x,y,z
1/4-x,1/4-y,z
x,1/4-y,1/4-z
1/4-x,y,1/4-z
-x,-y,-z
3/4+x,3/4+y,-z
-x,3/4+y,3/4+z
3/4+x,-y,3/4+z
x,1/2+y,1/2+z
1/4-x,3/4-y,1/2+z
x,3/4-y,3/4-z
1/4-x,1/2+y,3/4-z
-x,1/2-y,1/2-z
3/4+x,1/4+y,1/2-z
-x,1/4+y,1/4+z
3/4+x,1/2-y,1/4+z
1/2+x,y,1/2+z
3/4-x,1/4-y,1/2+z
1/2+x,1/4-y,3/4-z
3/4-x,y,3/4-z
1/2-x,-y,1/2-z
1/4+x,3/4+y,1/2-z
1/2-x,3/4+y,1/4+z
1/4+x,-y,1/4+z
1/2+x,1/2+y,z
3/4-x,3/4-y,z
1/2+x,3/4-y,1/4-z
3/4-x,1/2+y,1/4-z
1/2-x,1/2-y,-z
1/4+x,1/4+y,-z
1/2-x,1/4+y,3/4+z
1/4+x,1/2-y,3/4+z
loop_
_atom_site_type_symbol
_atom_site_label
_atom_site_fract_x
_atom_site_fract_y
_atom_site_fract_z
Si Si1 0.875000 0.875000 0.102255
Si Si2 0.796460 0.458985 0.387205
Si Si3 0.465789 0.027722 0.738877
Si Si4 0.069360 0.008207 0.438005
Si Si5 0.545911 0.636187 0.712054
Si Si6 0.001350 0.686202 0.795540
O O1 0.920084 0.811196 0.135851
O O2 0.919363 0.924295 0.060820
O O3 0.754762 0.375000 0.375000
O O4 0.875000 0.438824 0.375000
O O5 0.779604 0.478728 0.447705
O O6 0.781599 0.534022 0.349833
O O7 0.464254 0.105864 0.775328
O O8 0.393069 0.028483 0.706664
O O9 0.479676 0.954162 0.778508
O O10 0.044969 0.070623 0.481792
O O11 0.009641 0.938722 0.427097
O O12 0.625000 0.625000 0.688176
O O13 0.000000 0.750000 0.750000
#
# Coordination Sequence:
#
# PCOD8285960 Si02
#       6
#    16  32  32  32  32  32
#     4  12  24  46  70 103 142 187 252 298 366 450
#     4  11  24  43  64  91 136 180 229 291 344 422
#     4  11  22  41  65 101 136 183 239 287 370 433
#     4  10  19  41  73  97 138 184 230 306 363 444
#     4   9  19  38  70 105 134 175 233 290 371 440
#     4  12  27  42  66  99 135 183 235 292 353 434
#
# _framework density 21.716723999999999
#
# number of rings (size 3 to 8) (size 9 to 14) (size 15 to 20)
#    0.000    1.273    6.364    0.000    5.091    0.000 
#    3.273    2.727    0.000    3.273    0.000    0.000 
#    0.000    0.000    0.000    0.000    0.000    0.000 
#
# Total GULP energy -545094.960574 kJ/mol
# GULP energy per Si atom -12388.521831 kJ/mol
# Density = 2.166730 g / cm^3
# Si number density = 21.716724 Si / 1000 Ang^3
#
#
#
# Elastic Constant Matrix: (Units=GPa)
#
#
# Indices 1 2 3 4 5 6 
#
# 1 109.4533 57.4146 33.4854 0.0000 0.0000 0.0000
# 2 57.4146 168.8620 58.2666 0.0000 0.0000 0.0000
# 3 33.4854 58.2666 89.5447 0.0000 0.0000 0.0000
# 4 0.0000 0.0000 0.0000 43.7579 0.0000 0.0000
# 5 0.0000 0.0000 0.0000 0.0000 34.6500 0.0000
# 6 0.0000 0.0000 0.0000 0.0000 0.0000 41.6636
#
#
#
# Elastic Compliance Matrix: (Units=1/GPa)
#
#
# Indices 1 2 3 4 5 6 
#
# 1 0.011463 -0.003119 -0.002257 0.000000 0.000000 0.000000
# 2 -0.003119 0.008485 -0.004355 0.000000 0.000000 0.000000
# 3 -0.002257 -0.004355 0.014846 0.000000 0.000000 0.000000
# 4 0.000000 0.000000 0.000000 0.022853 0.000000 0.000000
# 5 0.000000 0.000000 0.000000 0.000000 0.028860 0.000000
# 6 0.000000 0.000000 0.000000 0.000000 0.000000 0.024002
#
#
# Mechanical properties :
#
#
# Convention : Reuss Voigt Hill
#
# Bulk Modulus (GPa) = 65.22465 74.02145 69.62305
# Shear Modulus (GPa) = 37.01499 38.59386 37.80443
#
# Velocity S-wave (km/s) = 4.13297 4.22020 4.17681
# Velocity P-wave (km/s) = 7.27151 7.60958 7.44246
#
# Compressibility (1/GPa) = 0.01533163
#
# Stress axis : x y z
#
# Youngs Moduli (GPa) = 87.23912 117.85428 67.36037
#
# Poissons Ratio (x) = 0.36753 0.15205
# Poissons Ratio (y) = 0.27206 0.29336
# Poissons Ratio (z) = 0.19692 0.51326
#
# Static dielectric constant tensor:
#      x y z
#    x 4.010890 0.000000 0.000000 
#    y 0.000000 4.843870 0.000000 
#    z 0.000000 0.000000 3.777800 
# 
# 
# High freq. dielectric constant tensor:
#      x y z
#    x 1.847060 0.000000 0.000000 
#    y 0.000000 1.874300 0.000000 
#    z 0.000000 0.000000 1.839860 
# 
# From -- ./inp_files/35240.got.cif
#   From: 2010.03.12/outbox.cif.g09.slc.cpg/sg70_18_cif.got.tgz:35240.got - 2010.04.16 13:46:32.
