data_PCOD8285713
_publ_section_title
;
Structure prediction by ZEFSAII (Michael W. Deem and Ramdas Pophale) SiO2 
 PCOD8285713
Probable space group: F M M M
;
_chemical_formula_sum "Si O2"
_cell_formula_units_Z 40
_cell_length_a 30.000000
_cell_length_b 30.000000
_cell_length_c 9.000000
_cell_angle_alpha 90.000000
_cell_angle_beta 90.000000
_cell_angle_gamma 90.000000
_cell_volume 8100.000000
_symmetry_space_group_name_H-M "F M M M"
_symmetry_group_IT_number 69
_symmetry_cell_setting 'orthorhombic'
loop_
_space_group_symop_operation_xyz
x,y,z
-x,-y,z
x,-y,-z
-x,y,-z
-x,-y,-z
x,y,-z
-x,y,z
x,-y,z
x,1/2+y,1/2+z
-x,1/2-y,1/2+z
x,1/2-y,1/2-z
-x,1/2+y,1/2-z
-x,1/2-y,1/2-z
x,1/2+y,1/2-z
-x,1/2+y,1/2+z
x,1/2-y,1/2+z
1/2+x,y,1/2+z
1/2-x,-y,1/2+z
1/2+x,-y,1/2-z
1/2-x,y,1/2-z
1/2-x,-y,1/2-z
1/2+x,y,1/2-z
1/2-x,y,1/2+z
1/2+x,-y,1/2+z
1/2+x,1/2+y,z
1/2-x,1/2-y,z
1/2+x,1/2-y,-z
1/2-x,1/2+y,-z
1/2-x,1/2-y,-z
1/2+x,1/2+y,-z
1/2-x,1/2+y,z
1/2+x,1/2-y,z
loop_
_atom_site_type_symbol
_atom_site_label
_atom_site_fract_x
_atom_site_fract_y
_atom_site_fract_z
Si Si1 0.173521 0.204563 0.179850
Si Si2 0.500000 0.202491 0.323710
Si Si3 0.413811 0.175403 0.167944
Si Si4 0.884639 0.924835 0.663374
Si Si5 0.948852 0.500000 0.821864
Si Si6 0.705168 0.613973 0.680063
O O1 0.194226 0.250000 0.250000
O O2 0.123010 0.202094 0.239320
O O3 0.200314 0.162833 0.246853
O O4 0.175618 0.204820 0.000000
O O5 0.500000 0.205609 0.500000
O O6 0.500000 0.250000 0.250000
O O7 0.457777 0.176313 0.264820
O O8 0.404164 0.123897 0.153171
O O9 0.418343 0.195748 0.000000
O O10 0.877832 0.945286 0.500000
O O11 0.920436 0.957604 0.742556
O O12 0.835011 0.919080 0.734164
O O13 0.000000 0.500000 0.758595
O O14 0.952508 0.500000 0.000000
O O15 0.706149 0.618283 0.500000
O O16 0.750000 0.593013 0.750000
#
# Coordination Sequence:
#
# PCOD8285713 Si02
#       6
#    32  16  32  32  16  32
#     4  11  21  35  54  78 109 146 187 232 282 333
#     4  12  24  36  50  73 102 141 189 238 283 334
#     4  10  20  35  53  75 107 146 186 232 283 334
#     4   8  17  32  52  81 115 145 177 228 281 332
#     4   9  16  28  53  88 120 146 180 224 277 338
#     4  10  20  36  55  79 111 148 191 235 284 333
#
# _framework density 4.9382720000000004
#
# number of rings (size 3 to 8) (size 9 to 14) (size 15 to 20)
#    0.000    2.100    0.000    5.700    1.400    0.400 
#    0.000    2.500    0.000    0.000    0.000   25.200 
#    0.000    0.000    0.000    0.000    0.000    0.000 
#
# Total GULP energy -495558.343698 kJ/mol
# GULP energy per Si atom -12388.958592 kJ/mol
# Density = 0.492703 g / cm^3
# Si number density = 4.938272 Si / 1000 Ang^3
#
#
#
# Elastic Constant Matrix: (Units=GPa)
#
#
# Indices 1 2 3 4 5 6 
#
# 1 160.6318 40.8422 40.1984 0.0028 0.0087 0.0061
# 2 40.8422 75.7537 17.7471 0.0092 0.0001 0.0014
# 3 40.1984 17.7471 136.5939 -0.0228 0.0517 0.0255
# 4 0.0028 0.0092 -0.0228 13.5530 0.0036 -0.0012
# 5 0.0087 0.0001 0.0517 0.0036 34.1736 -0.0139
# 6 0.0061 0.0014 0.0255 -0.0012 -0.0139 12.6880
#
#
#
# Elastic Compliance Matrix: (Units=1/GPa)
#
#
# Indices 1 2 3 4 5 6 
#
# 1 0.007603 -0.003687 -0.001758 -0.000002 0.000001 0.000000
# 2 -0.003687 0.015403 -0.000916 -0.000011 0.000002 0.000002
# 3 -0.001758 -0.000916 0.007958 0.000014 -0.000012 -0.000015
# 4 -0.000002 -0.000011 0.000014 0.073784 -0.000008 0.000007
# 5 0.000001 0.000002 -0.000012 -0.000008 0.029262 0.000032
# 6 0.000000 0.000002 -0.000015 0.000007 0.000032 0.078815
#
#
# Mechanical properties :
#
#
# Convention : Reuss Voigt Hill
#
# Bulk Modulus (GPa) = 54.82406 63.39498 59.10952
# Shear Modulus (GPa) = 21.58628 30.36237 25.97433
#
# Velocity S-wave (km/s) = 3.30935 3.92483 3.63016
# Velocity P-wave (km/s) = 6.51286 7.25965 6.89637
#
# Compressibility (1/GPa) = 0.01824017
#
# Stress axis : x y z
#
# Youngs Moduli (GPa) = 131.52772 64.92148 125.66749
#
# Poissons Ratio (x) = 0.23937 0.22098
# Poissons Ratio (y) = 0.48496 0.11514
# Poissons Ratio (z) = 0.23128 0.05948
#
# Static dielectric constant tensor:
#      x y z
#    x 3.930820 0.000050 0.000180 
#    y 0.000050 3.510860 -0.000060 
#    z 0.000180 -0.000060 3.389630 
# 
# 
# High freq. dielectric constant tensor:
#      x y z
#    x 1.787030 0.000000 0.000000 
#    y 0.000000 1.757540 -0.000010 
#    z 0.000000 -0.000010 1.754410 
# 
# From -- ./inp_files/5779.got.cif
#   From: 2010.03.12/outbox.ucp.g09.slc.cvg/sg69_3_cif.got.tgz:5779.got - 2010.05.04 19:54:48.
