data_PCOD8285262
_publ_section_title
;
Structure prediction by ZEFSAII (Michael W. Deem and Ramdas Pophale) SiO2 
 PCOD8285262
Probable space group: F M M M
;
_chemical_formula_sum "Si O2"
_cell_formula_units_Z 136
_cell_length_a 22.173446
_cell_length_b 18.293733
_cell_length_c 16.317721
_cell_angle_alpha 90.000000
_cell_angle_beta 90.000000
_cell_angle_gamma 90.000000
_cell_volume 6619.040403
_symmetry_space_group_name_H-M "F M M M"
_symmetry_group_IT_number 69
_symmetry_cell_setting 'orthorhombic'
loop_
_space_group_symop_operation_xyz
x,y,z
-x,-y,z
x,-y,-z
-x,y,-z
-x,-y,-z
x,y,-z
-x,y,z
x,-y,z
x,1/2+y,1/2+z
-x,1/2-y,1/2+z
x,1/2-y,1/2-z
-x,1/2+y,1/2-z
-x,1/2-y,1/2-z
x,1/2+y,1/2-z
-x,1/2+y,1/2+z
x,1/2-y,1/2+z
1/2+x,y,1/2+z
1/2-x,-y,1/2+z
1/2+x,-y,1/2-z
1/2-x,y,1/2-z
1/2-x,-y,1/2-z
1/2+x,y,1/2-z
1/2-x,y,1/2+z
1/2+x,-y,1/2+z
1/2+x,1/2+y,z
1/2-x,1/2-y,z
1/2+x,1/2-y,-z
1/2-x,1/2+y,-z
1/2-x,1/2-y,-z
1/2+x,1/2+y,-z
1/2-x,1/2+y,z
1/2+x,1/2-y,z
loop_
_atom_site_type_symbol
_atom_site_label
_atom_site_fract_x
_atom_site_fract_y
_atom_site_fract_z
Si Si1 0.121340 0.086509 0.225211
Si Si2 0.131104 0.923001 0.500000
Si Si3 0.176914 0.824003 0.904265
Si Si4 0.810049 0.160597 0.639863
Si Si5 0.000000 0.413007 0.821825
Si Si6 0.500000 0.402167 0.500000
O O1 0.126450 0.121905 0.134284
O O2 0.177766 0.124564 0.271967
O O3 0.058039 0.107358 0.266886
O O4 0.130487 0.000000 0.220337
O O5 0.142530 0.876843 0.580194
O O6 0.061432 0.947212 0.500000
O O7 0.167622 0.000000 0.500000
O O8 0.176214 0.746562 0.857831
O O9 0.243446 0.858001 0.892785
O O10 0.162570 0.813430 0.000000
O O11 0.000000 0.500000 0.843234
O O12 0.000000 0.364843 0.907382
#
# Coordination Sequence:
#
# PCOD8285262 Si02
#       6
#    32  16  32  32  16   8
#     4  11  24  40  62  91 122 158 205 259 305 359
#     4  12  21  33  63  99 123 147 193 257 309 362
#     4  11  23  42  62  86 125 170 203 240 304 367
#     4  11  21  41  63  90 123 161 202 247 309 368
#     4  10  21  38  59  88 124 160 199 251 320 368
#     4  12  21  36  64  94 128 158 187 256 335 368
#
# _framework density 20.546783999999999
#
# number of rings (size 3 to 8) (size 9 to 14) (size 15 to 20)
#    0.000    0.941    4.706    3.882    0.000    5.176 
#    0.000    4.118    0.000    2.118    0.000    0.000 
#    0.000    0.000    0.000    0.000    0.000    0.000 
#
# Total GULP energy -421281.009875 kJ/mol
# GULP energy per Si atom -12390.617938 kJ/mol
# Density = 2.050002 g / cm^3
# Si number density = 20.546784 Si / 1000 Ang^3
#
#
#
# Elastic Constant Matrix: (Units=GPa)
#
#
# Indices 1 2 3 4 5 6 
#
# 1 88.6784 41.1655 39.4195 0.0000 0.0000 0.0000
# 2 41.1655 90.9029 40.6141 0.0000 0.0000 0.0000
# 3 39.4195 40.6141 102.7308 0.0000 0.0000 0.0000
# 4 0.0000 0.0000 0.0000 37.7602 0.0000 0.0000
# 5 0.0000 0.0000 0.0000 0.0000 34.2370 0.0000
# 6 0.0000 0.0000 0.0000 0.0000 0.0000 13.0997
#
#
#
# Elastic Compliance Matrix: (Units=1/GPa)
#
#
# Indices 1 2 3 4 5 6 
#
# 1 0.015430 -0.005274 -0.003836 0.000000 0.000000 0.000000
# 2 -0.005274 0.015163 -0.003971 0.000000 0.000000 0.000000
# 3 -0.003836 -0.003971 0.012776 0.000000 0.000000 0.000000
# 4 0.000000 0.000000 0.000000 0.026483 0.000000 0.000000
# 5 0.000000 0.000000 0.000000 0.000000 0.029208 0.000000
# 6 0.000000 0.000000 0.000000 0.000000 0.000000 0.076338
#
#
# Mechanical properties :
#
#
# Convention : Reuss Voigt Hill
#
# Bulk Modulus (GPa) = 58.11267 58.30114 58.20691
# Shear Modulus (GPa) = 24.12023 27.76024 25.94024
#
# Velocity S-wave (km/s) = 3.42997 3.67968 3.55702
# Velocity P-wave (km/s) = 6.63556 6.81835 6.72758
#
# Compressibility (1/GPa) = 0.01720795
#
# Stress axis : x y z
#
# Youngs Moduli (GPa) = 64.80924 65.94924 78.27186
#
# Poissons Ratio (x) = 0.34780 0.30023
# Poissons Ratio (y) = 0.34178 0.31082
# Poissons Ratio (z) = 0.24859 0.26189
#
# Static dielectric constant tensor:
#      x y z
#    x 3.734160 0.000000 0.000000 
#    y 0.000000 3.502430 0.000000 
#    z 0.000000 0.000000 4.990320 
# 
# 
# High freq. dielectric constant tensor:
#      x y z
#    x 1.796250 0.000000 0.000000 
#    y 0.000000 1.784730 0.000000 
#    z 0.000000 0.000000 1.814640 
# 
# From -- ./inp_files/22942.got.cif
#   From: 2010.03.12/outbox.cif.g09.slc.cpg/sg69_12_cif.got.tgz:22942.got - 2010.04.10 23:52:46.
