data_PCOD8285592
_publ_section_title
;
Structure prediction by ZEFSAII (Michael W. Deem and Ramdas Pophale) SiO2 
 PCOD8285592
Probable space group: F M M M
;
_chemical_formula_sum "Si O2"
_cell_formula_units_Z 160
_cell_length_a 20.783358
_cell_length_b 21.724178
_cell_length_c 17.623102
_cell_angle_alpha 90.000000
_cell_angle_beta 90.000000
_cell_angle_gamma 90.000000
_cell_volume 7956.854673
_symmetry_space_group_name_H-M "F M M M"
_symmetry_group_IT_number 69
_symmetry_cell_setting 'orthorhombic'
loop_
_space_group_symop_operation_xyz
x,y,z
-x,-y,z
x,-y,-z
-x,y,-z
-x,-y,-z
x,y,-z
-x,y,z
x,-y,z
x,1/2+y,1/2+z
-x,1/2-y,1/2+z
x,1/2-y,1/2-z
-x,1/2+y,1/2-z
-x,1/2-y,1/2-z
x,1/2+y,1/2-z
-x,1/2+y,1/2+z
x,1/2-y,1/2+z
1/2+x,y,1/2+z
1/2-x,-y,1/2+z
1/2+x,-y,1/2-z
1/2-x,y,1/2-z
1/2-x,-y,1/2-z
1/2+x,y,1/2-z
1/2-x,y,1/2+z
1/2+x,-y,1/2+z
1/2+x,1/2+y,z
1/2-x,1/2-y,z
1/2+x,1/2-y,-z
1/2-x,1/2+y,-z
1/2-x,1/2-y,-z
1/2+x,1/2+y,-z
1/2-x,1/2+y,z
1/2+x,1/2-y,z
loop_
_atom_site_type_symbol
_atom_site_label
_atom_site_fract_x
_atom_site_fract_y
_atom_site_fract_z
Si Si1 0.500000 0.072921 0.089913
Si Si2 0.618617 0.879896 0.185054
Si Si3 0.759850 0.620174 0.084076
Si Si4 0.850699 0.750000 0.750000
Si Si5 0.630196 0.070394 0.345293
Si Si6 0.000000 0.927038 0.914283
Si Si7 0.750000 0.750000 0.373287
O O1 0.439118 0.104864 0.128704
O O2 0.500000 0.000000 0.105214
O O3 0.500000 0.087148 0.000000
O O4 0.683084 0.898080 0.139976
O O5 0.610545 0.809559 0.217348
O O6 0.623002 0.926045 0.255182
O O7 0.692013 0.604175 0.121466
O O8 0.767108 0.693439 0.073051
O O9 0.766434 0.590058 0.000000
O O10 0.807784 0.726042 0.680446
O O11 0.564806 0.100960 0.378052
O O12 0.636148 0.000000 0.370929
O O13 0.000000 0.000000 0.902669
O O14 0.000000 0.905872 0.000000
#
# Coordination Sequence:
#
# PCOD8285592 Si02
#       7
#    16  32  32  16  32  16  16
#     4  11  25  44  64  88 124 168 210 254 310 370
#     4  11  22  40  63  89 119 160 210 253 307 364
#     4  11  22  36  59  89 122 159 201 254 303 355
#     4   9  18  35  64  90 116 151 199 252 304 350
#     4  11  22  37  60  91 123 160 204 249 302 370
#     4   9  19  37  58  81 118 159 191 235 300 364
#     4   9  17  36  58  88 120 154 194 242 298 364
#
# _framework density 20.108449
#
# number of rings (size 3 to 8) (size 9 to 14) (size 15 to 20)
#    0.000    1.600    2.000    3.300    0.000    4.800 
#    0.000    0.000    0.000    1.200    0.000    0.000 
#    0.000    0.000    0.000    0.000    0.000    0.000 
#
# Total GULP energy -495686.867766 kJ/mol
# GULP energy per Si atom -12392.171694 kJ/mol
# Density = 2.006268 g / cm^3
# Si number density = 20.108449 Si / 1000 Ang^3
#
#
#
# Elastic Constant Matrix: (Units=GPa)
#
#
# Indices 1 2 3 4 5 6 
#
# 1 177.6533 40.2693 80.2085 0.0000 0.0000 0.0000
# 2 40.2693 69.1732 26.3570 0.0000 0.0000 0.0000
# 3 80.2085 26.3570 150.9132 0.0000 0.0000 0.0000
# 4 0.0000 0.0000 0.0000 25.9568 0.0000 0.0000
# 5 0.0000 0.0000 0.0000 0.0000 24.2526 0.0000
# 6 0.0000 0.0000 0.0000 0.0000 0.0000 7.4205
#
#
#
# Elastic Compliance Matrix: (Units=1/GPa)
#
#
# Indices 1 2 3 4 5 6 
#
# 1 0.008042 -0.003271 -0.003703 0.000000 0.000000 0.000000
# 2 -0.003271 0.016817 -0.001199 0.000000 0.000000 0.000000
# 3 -0.003703 -0.001199 0.008804 0.000000 0.000000 0.000000
# 4 0.000000 0.000000 0.000000 0.038526 0.000000 0.000000
# 5 0.000000 0.000000 0.000000 0.000000 0.041233 0.000000
# 6 0.000000 0.000000 0.000000 0.000000 0.000000 0.134761
#
#
# Mechanical properties :
#
#
# Convention : Reuss Voigt Hill
#
# Bulk Modulus (GPa) = 57.74310 76.82325 67.28317
# Shear Modulus (GPa) = 18.49788 28.25298 23.37543
#
# Velocity S-wave (km/s) = 3.03629 3.75244 3.41320
# Velocity P-wave (km/s) = 6.40861 7.55393 7.00471
#
# Compressibility (1/GPa) = 0.01731809
#
# Stress axis : x y z
#
# Youngs Moduli (GPa) = 124.34304 59.46237 113.58678
#
# Poissons Ratio (x) = 0.19449 0.42062
# Poissons Ratio (y) = 0.40671 0.13616
# Poissons Ratio (z) = 0.46046 0.07128
#
# Static dielectric constant tensor:
#      x y z
#    x 3.759380 0.000000 0.000000 
#    y 0.000000 3.479470 0.000000 
#    z 0.000000 0.000000 3.728290 
# 
# 
# High freq. dielectric constant tensor:
#      x y z
#    x 1.782650 0.000000 0.000000 
#    y 0.000000 1.771330 0.000000 
#    z 0.000000 0.000000 1.800520 
# 
# From -- ./inp_files/24679.got.cif
#   From: 2010.03.12/outbox.cif.g09.slc.cpg/sg69_13_cif.got.tgz:24679.got - 2010.04.10 23:52:46.
