data_PCOD8285416
_publ_section_title
;
Structure prediction by ZEFSAII (Michael W. Deem and Ramdas Pophale) SiO2 
 PCOD8285416
Probable space group: F M M M
;
_chemical_formula_sum "Si O2"
_cell_formula_units_Z 96
_cell_length_a 9.925581
_cell_length_b 27.307048
_cell_length_c 17.176119
_cell_angle_alpha 90.000000
_cell_angle_beta 90.000000
_cell_angle_gamma 90.000000
_cell_volume 4655.386383
_symmetry_space_group_name_H-M "F M M M"
_symmetry_group_IT_number 69
_symmetry_cell_setting 'orthorhombic'
loop_
_space_group_symop_operation_xyz
x,y,z
-x,-y,z
x,-y,-z
-x,y,-z
-x,-y,-z
x,y,-z
-x,y,z
x,-y,z
x,1/2+y,1/2+z
-x,1/2-y,1/2+z
x,1/2-y,1/2-z
-x,1/2+y,1/2-z
-x,1/2-y,1/2-z
x,1/2+y,1/2-z
-x,1/2+y,1/2+z
x,1/2-y,1/2+z
1/2+x,y,1/2+z
1/2-x,-y,1/2+z
1/2+x,-y,1/2-z
1/2-x,y,1/2-z
1/2-x,-y,1/2-z
1/2+x,y,1/2-z
1/2-x,y,1/2+z
1/2+x,-y,1/2+z
1/2+x,1/2+y,z
1/2-x,1/2-y,z
1/2+x,1/2-y,-z
1/2-x,1/2+y,-z
1/2-x,1/2-y,-z
1/2+x,1/2+y,-z
1/2-x,1/2+y,z
1/2+x,1/2-y,z
loop_
_atom_site_type_symbol
_atom_site_label
_atom_site_fract_x
_atom_site_fract_y
_atom_site_fract_z
Si Si1 0.154210 0.944551 0.678669
Si Si2 0.500000 0.816753 0.675341
Si Si3 0.754419 0.855041 0.411260
Si Si4 0.500000 0.703209 0.645696
O O1 0.250000 0.930661 0.750000
O O2 0.185601 0.908568 0.607205
O O3 0.000000 0.937890 0.706100
O O4 0.181210 0.000000 0.650097
O O5 0.369117 0.844408 0.645305
O O6 0.500000 0.761414 0.645758
O O7 0.500000 0.819827 0.768353
O O8 0.704659 0.854137 0.500000
O O9 0.867748 0.813903 0.399629
#
# Coordination Sequence:
#
# PCOD8285416 Si02
#       4
#    32  16  32  16
#     4  10  22  41  67  95 124 164 212 258 307 370
#     4  11  25  43  64  91 124 169 213 260 308 367
#     4  12  25  40  62  96 131 164 203 257 320 372
#     4  11  23  43  68  89 120 167 221 260 302 367
#
# _framework density 20.621274
#
# number of rings (size 3 to 8) (size 9 to 14) (size 15 to 20)
#    0.000    1.000    1.667    5.000    2.333    7.333 
#    0.000    1.667    0.000    2.000    0.000    0.000 
#    0.000    0.000    0.000    0.000    0.000    0.000 
#
# Total GULP energy -297773.899934 kJ/mol
# GULP energy per Si atom -12407.245831 kJ/mol
# Density = 2.057434 g / cm^3
# Si number density = 20.621274 Si / 1000 Ang^3
#
#
#
# Elastic Constant Matrix: (Units=GPa)
#
#
# Indices 1 2 3 4 5 6 
#
# 1 122.1931 24.3975 19.3276 0.0000 0.0000 0.0000
# 2 24.3975 91.6833 33.5685 0.0000 0.0000 0.0000
# 3 19.3276 33.5685 88.6819 0.0000 0.0000 0.0000
# 4 0.0000 0.0000 0.0000 21.8019 0.0000 0.0000
# 5 0.0000 0.0000 0.0000 0.0000 23.6628 0.0000
# 6 0.0000 0.0000 0.0000 0.0000 0.0000 35.3043
#
#
#
# Elastic Compliance Matrix: (Units=1/GPa)
#
#
# Indices 1 2 3 4 5 6 
#
# 1 0.008750 -0.001892 -0.001191 0.000000 0.000000 0.000000
# 2 -0.001892 0.013071 -0.004535 0.000000 0.000000 0.000000
# 3 -0.001191 -0.004535 0.013253 0.000000 0.000000 0.000000
# 4 0.000000 0.000000 0.000000 0.045868 0.000000 0.000000
# 5 0.000000 0.000000 0.000000 0.000000 0.042260 0.000000
# 6 0.000000 0.000000 0.000000 0.000000 0.000000 0.028325
#
#
# Mechanical properties :
#
#
# Convention : Reuss Voigt Hill
#
# Bulk Modulus (GPa) = 50.41149 50.79394 50.60271
# Shear Modulus (GPa) = 28.83903 31.17144 30.00524
#
# Velocity S-wave (km/s) = 3.74372 3.89217 3.81867
# Velocity P-wave (km/s) = 6.57166 6.69955 6.63591
#
# Compressibility (1/GPa) = 0.01983675
#
# Stress axis : x y z
#
# Youngs Moduli (GPa) = 114.28629 76.50358 75.45741
#
# Poissons Ratio (x) = 0.14478 0.08984
# Poissons Ratio (y) = 0.21628 0.34223
# Poissons Ratio (z) = 0.13607 0.34697
#
# Static dielectric constant tensor:
#      x y z
#    x 3.555760 0.000000 0.000000 
#    y 0.000000 3.889010 0.000000 
#    z 0.000000 0.000000 3.512000 
# 
# 
# High freq. dielectric constant tensor:
#      x y z
#    x 1.821250 0.000000 0.000000 
#    y 0.000000 1.824070 0.000000 
#    z 0.000000 0.000000 1.792620 
# 
# From -- ./inp_files/28444.got.cif
#   From: 2010.03.12/outbox.cif.g09.slc.cpg/sg69_15_cif.got.tgz:28444.got - 2010.04.10 23:52:46.
