data_PCOD8285230
_publ_section_title
;
Structure prediction by ZEFSAII (Michael W. Deem and Ramdas Pophale) SiO2 
 PCOD8285230
Probable space group: F M M M
;
_chemical_formula_sum "Si O2"
_cell_formula_units_Z 176
_cell_length_a 16.610021
_cell_length_b 25.590083
_cell_length_c 21.831441
_cell_angle_alpha 90.000000
_cell_angle_beta 90.000000
_cell_angle_gamma 90.000000
_cell_volume 9279.493643
_symmetry_space_group_name_H-M "F M M M"
_symmetry_group_IT_number 69
_symmetry_cell_setting 'orthorhombic'
loop_
_space_group_symop_operation_xyz
x,y,z
-x,-y,z
x,-y,-z
-x,y,-z
-x,-y,-z
x,y,-z
-x,y,z
x,-y,z
x,1/2+y,1/2+z
-x,1/2-y,1/2+z
x,1/2-y,1/2-z
-x,1/2+y,1/2-z
-x,1/2-y,1/2-z
x,1/2+y,1/2-z
-x,1/2+y,1/2+z
x,1/2-y,1/2+z
1/2+x,y,1/2+z
1/2-x,-y,1/2+z
1/2+x,-y,1/2-z
1/2-x,y,1/2-z
1/2-x,-y,1/2-z
1/2+x,y,1/2-z
1/2-x,y,1/2+z
1/2+x,-y,1/2+z
1/2+x,1/2+y,z
1/2-x,1/2-y,z
1/2+x,1/2-y,-z
1/2-x,1/2+y,-z
1/2-x,1/2-y,-z
1/2+x,1/2+y,-z
1/2-x,1/2+y,z
1/2+x,1/2-y,z
loop_
_atom_site_type_symbol
_atom_site_label
_atom_site_fract_x
_atom_site_fract_y
_atom_site_fract_z
Si Si1 0.747030 0.134111 0.929885
Si Si2 0.829376 0.778322 0.856158
Si Si3 0.848592 0.438274 0.646656
Si Si4 0.655292 0.857045 0.256594
Si Si5 0.500000 0.061701 0.567798
Si Si6 0.408192 0.827028 0.873742
O O1 0.800254 0.184860 0.912177
O O2 0.769221 0.085573 0.885553
O O3 0.652005 0.144840 0.921003
O O4 0.763749 0.119198 0.000000
O O5 0.750000 0.750000 0.828666
O O6 0.872991 0.812208 0.803830
O O7 0.893641 0.735276 0.877764
O O8 0.839685 0.500000 0.653546
O O9 0.862748 0.414106 0.714204
O O10 0.921686 0.419831 0.603863
O O11 0.750000 0.850747 0.250000
O O12 0.607784 0.849874 0.193944
O O13 0.500000 0.087071 0.500000
O O14 0.500000 0.000000 0.562334
O O15 0.500000 0.839019 0.892570
#
# Coordination Sequence:
#
# PCOD8285230 Si02
#       6
#    32  32  32  32  16  32
#     4  10  21  39  60  82 112 153 198 241 284 342
#     4   9  18  33  56  79 108 147 188 228 281 335
#     4  10  21  37  60  88 115 150 190 233 291 347
#     4  11  19  35  56  84 114 149 187 233 278 338
#     4   9  18  34  56  84 115 142 177 233 290 339
#     4  11  23  36  55  86 118 152 190 236 288 337
#
# _framework density 18.966553000000001
#
# number of rings (size 3 to 8) (size 9 to 14) (size 15 to 20)
#    0.000    1.909    5.455    1.091    1.273    6.545 
#    4.909    0.000    0.000    1.636    0.000    1.273 
#    0.000    0.000    0.000    0.000    0.000    0.000 
#
# Total GULP energy -545513.729158 kJ/mol
# GULP energy per Si atom -12398.039299 kJ/mol
# Density = 1.892338 g / cm^3
# Si number density = 18.966553 Si / 1000 Ang^3
#
#
#
# Elastic Constant Matrix: (Units=GPa)
#
#
# Indices 1 2 3 4 5 6 
#
# 1 86.9416 22.4226 2.5151 0.0000 0.0000 0.0000
# 2 22.4226 103.1354 20.8880 0.0000 0.0000 0.0000
# 3 2.5151 20.8880 64.3139 0.0000 0.0000 0.0000
# 4 0.0000 0.0000 0.0000 19.0460 0.0000 0.0000
# 5 0.0000 0.0000 0.0000 0.0000 17.5280 0.0000
# 6 0.0000 0.0000 0.0000 0.0000 0.0000 16.0070
#
#
#
# Elastic Compliance Matrix: (Units=1/GPa)
#
#
# Indices 1 2 3 4 5 6 
#
# 1 0.012195 -0.002735 0.000411 0.000000 0.000000 0.000000
# 2 -0.002735 0.010992 -0.003463 0.000000 0.000000 0.000000
# 3 0.000411 -0.003463 0.016657 0.000000 0.000000 0.000000
# 4 0.000000 0.000000 0.000000 0.052504 0.000000 0.000000
# 5 0.000000 0.000000 0.000000 0.000000 0.057052 0.000000
# 6 0.000000 0.000000 0.000000 0.000000 0.000000 0.062473
#
#
# Mechanical properties :
#
#
# Convention : Reuss Voigt Hill
#
# Bulk Modulus (GPa) = 35.37099 38.44912 36.91006
# Shear Modulus (GPa) = 21.47119 24.42055 22.94587
#
# Velocity S-wave (km/s) = 3.36825 3.59215 3.48200
# Velocity P-wave (km/s) = 5.81519 6.12542 5.97232
#
# Compressibility (1/GPa) = 0.02827175
#
# Stress axis : x y z
#
# Youngs Moduli (GPa) = 81.99840 90.97606 60.03348
#
# Poissons Ratio (x) = 0.24879 -0.02469
# Poissons Ratio (y) = 0.22424 0.20790
# Poissons Ratio (z) = -0.03372 0.31505
#
# Static dielectric constant tensor:
#      x y z
#    x 3.375660 0.000000 0.000000 
#    y 0.000000 3.479720 0.000000 
#    z 0.000000 0.000000 3.597470 
# 
# 
# High freq. dielectric constant tensor:
#      x y z
#    x 1.720300 0.000000 0.000000 
#    y 0.000000 1.727000 0.000000 
#    z 0.000000 0.000000 1.729960 
# 
# From -- ./inp_files/36037.got.cif
#   From: 2010.03.12/outbox.cif.g09.slc.cpg/sg69_19_cif.got.tgz:36037.got - 2010.04.10 23:52:46.
