data_PCOD8285700
_publ_section_title
;
Structure prediction by ZEFSAII (Michael W. Deem and Ramdas Pophale) SiO2 
 PCOD8285700
Probable space group: F M M M
;
_chemical_formula_sum "Si O2"
_cell_formula_units_Z 160
_cell_length_a 29.072603
_cell_length_b 14.950795
_cell_length_c 20.047780
_cell_angle_alpha 90.000000
_cell_angle_beta 90.000000
_cell_angle_gamma 90.000000
_cell_volume 8713.938536
_symmetry_space_group_name_H-M "F M M M"
_symmetry_group_IT_number 69
_symmetry_cell_setting 'orthorhombic'
loop_
_space_group_symop_operation_xyz
x,y,z
-x,-y,z
x,-y,-z
-x,y,-z
-x,-y,-z
x,y,-z
-x,y,z
x,-y,z
x,1/2+y,1/2+z
-x,1/2-y,1/2+z
x,1/2-y,1/2-z
-x,1/2+y,1/2-z
-x,1/2-y,1/2-z
x,1/2+y,1/2-z
-x,1/2+y,1/2+z
x,1/2-y,1/2+z
1/2+x,y,1/2+z
1/2-x,-y,1/2+z
1/2+x,-y,1/2-z
1/2-x,y,1/2-z
1/2-x,-y,1/2-z
1/2+x,y,1/2-z
1/2-x,y,1/2+z
1/2+x,-y,1/2+z
1/2+x,1/2+y,z
1/2-x,1/2-y,z
1/2+x,1/2-y,-z
1/2-x,1/2+y,-z
1/2-x,1/2-y,-z
1/2+x,1/2+y,-z
1/2-x,1/2+y,z
1/2+x,1/2-y,z
loop_
_atom_site_type_symbol
_atom_site_label
_atom_site_fract_x
_atom_site_fract_y
_atom_site_fract_z
Si Si1 0.390730 0.101345 0.651742
Si Si2 0.228792 0.893274 0.318602
Si Si3 0.199929 0.393903 0.425598
Si Si4 0.050686 0.261827 0.171511
Si Si5 0.873695 0.898312 0.307410
O O1 0.349021 0.132752 0.605221
O O2 0.432934 0.168659 0.638165
O O3 0.374574 0.109496 0.727799
O O4 0.406669 0.000000 0.635500
O O5 0.250000 0.854476 0.250000
O O6 0.258887 0.855311 0.379962
O O7 0.176255 0.861573 0.329569
O O8 0.229990 0.000000 0.315194
O O9 0.204179 0.353620 0.500000
O O10 0.203985 0.500000 0.427277
O O11 0.047159 0.250000 0.250000
O O12 0.087031 0.340414 0.155939
O O13 0.000000 0.285932 0.142799
O O14 0.881668 0.000000 0.330476
#
# Coordination Sequence:
#
# PCOD8285700 Si02
#       5
#    32  32  32  32  32
#     4   9  16  28  46  66  93 128 160 192 236 288
#     4   9  14  24  44  68  94 126 160 193 229 279
#     4   9  16  26  44  71 100 129 159 193 236 286
#     4   9  18  30  44  66  94 119 154 205 248 287
#     4   9  16  27  46  69  94 126 161 194 235 288
#
# _framework density 18.361386
#
# number of rings (size 3 to 8) (size 9 to 14) (size 15 to 20)
#    0.000    3.000    2.000    0.000    0.000    0.800 
#    0.000    5.000    0.000    3.000    0.000    2.800 
#    0.000    0.000    0.000    9.600    0.000    2.200 
#
# Total GULP energy -495814.577291 kJ/mol
# GULP energy per Si atom -12395.364432 kJ/mol
# Density = 1.831959 g / cm^3
# Si number density = 18.361386 Si / 1000 Ang^3
#
#
#
# Elastic Constant Matrix: (Units=GPa)
#
#
# Indices 1 2 3 4 5 6 
#
# 1 184.4720 66.5385 52.4351 0.0000 0.0000 0.0000
# 2 66.5385 69.3260 21.2977 0.0000 0.0000 0.0000
# 3 52.4351 21.2977 65.6962 0.0000 0.0000 0.0000
# 4 0.0000 0.0000 0.0000 5.9615 0.0000 0.0000
# 5 0.0000 0.0000 0.0000 0.0000 13.3028 0.0000
# 6 0.0000 0.0000 0.0000 0.0000 0.0000 24.4770
#
#
#
# Elastic Compliance Matrix: (Units=1/GPa)
#
#
# Indices 1 2 3 4 5 6 
#
# 1 0.009680 -0.007682 -0.005236 0.000000 0.000000 0.000000
# 2 -0.007682 0.022117 -0.001038 0.000000 0.000000 0.000000
# 3 -0.005236 -0.001038 0.019737 0.000000 0.000000 0.000000
# 4 0.000000 0.000000 0.000000 0.167744 0.000000 0.000000
# 5 0.000000 0.000000 0.000000 0.000000 0.075172 0.000000
# 6 0.000000 0.000000 0.000000 0.000000 0.000000 0.040855
#
#
# Mechanical properties :
#
#
# Convention : Reuss Voigt Hill
#
# Bulk Modulus (GPa) = 42.33442 66.67075 54.50258
# Shear Modulus (GPa) = 13.47376 20.69645 17.08510
#
# Velocity S-wave (km/s) = 2.71183 3.36098 3.05370
# Velocity P-wave (km/s) = 5.73687 7.17292 6.49470
#
# Compressibility (1/GPa) = 0.02362144
#
# Stress axis : x y z
#
# Youngs Moduli (GPa) = 103.30481 45.21378 50.66639
#
# Poissons Ratio (x) = 0.34735 0.26527
# Poissons Ratio (y) = 0.79363 0.05261
# Poissons Ratio (z) = 0.54086 0.04695
#
# Static dielectric constant tensor:
#      x y z
#    x 3.642850 0.000000 0.000000 
#    y 0.000000 3.253600 0.000000 
#    z 0.000000 0.000000 3.181310 
# 
# 
# High freq. dielectric constant tensor:
#      x y z
#    x 1.714390 0.000000 0.000000 
#    y 0.000000 1.696420 0.000000 
#    z 0.000000 0.000000 1.659890 
# 
# From -- ./inp_files/33935.got.cif
#   From: 2010.03.12/outbox.cif.g09.slc.cpg/sg69_17_cif.got.tgz:33935.got - 2010.04.10 23:52:46.
