data_PCOD8285322
_publ_section_title
;
Structure prediction by ZEFSAII (Michael W. Deem and Ramdas Pophale) SiO2 
 PCOD8285322
Probable space group: F M M M
;
_chemical_formula_sum "Si O2"
_cell_formula_units_Z 192
_cell_length_a 30.068439
_cell_length_b 27.195753
_cell_length_c 10.911313
_cell_angle_alpha 90.000000
_cell_angle_beta 90.000000
_cell_angle_gamma 90.000000
_cell_volume 8922.549880
_symmetry_space_group_name_H-M "F M M M"
_symmetry_group_IT_number 69
_symmetry_cell_setting 'orthorhombic'
loop_
_space_group_symop_operation_xyz
x,y,z
-x,-y,z
x,-y,-z
-x,y,-z
-x,-y,-z
x,y,-z
-x,y,z
x,-y,z
x,1/2+y,1/2+z
-x,1/2-y,1/2+z
x,1/2-y,1/2-z
-x,1/2+y,1/2-z
-x,1/2-y,1/2-z
x,1/2+y,1/2-z
-x,1/2+y,1/2+z
x,1/2-y,1/2+z
1/2+x,y,1/2+z
1/2-x,-y,1/2+z
1/2+x,-y,1/2-z
1/2-x,y,1/2-z
1/2-x,-y,1/2-z
1/2+x,y,1/2-z
1/2-x,y,1/2+z
1/2+x,-y,1/2+z
1/2+x,1/2+y,z
1/2-x,1/2-y,z
1/2+x,1/2-y,-z
1/2-x,1/2+y,-z
1/2-x,1/2-y,-z
1/2+x,1/2+y,-z
1/2-x,1/2+y,z
1/2+x,1/2-y,z
loop_
_atom_site_type_symbol
_atom_site_label
_atom_site_fract_x
_atom_site_fract_y
_atom_site_fract_z
Si Si1 0.928287 0.557345 0.000000
Si Si2 0.173230 0.781535 0.362439
Si Si3 0.929163 0.282529 0.860714
Si Si4 0.049160 0.609932 0.231937
Si Si5 0.372058 0.555289 0.141651
Si Si6 0.800455 0.112604 0.720077
Si Si7 0.671062 0.443239 0.500000
O O1 0.955291 0.573773 0.882142
O O2 0.878297 0.581168 0.000000
O O3 0.924537 0.500000 0.000000
O O4 0.194167 0.771261 0.500000
O O5 0.195604 0.750000 0.250000
O O6 0.121938 0.766958 0.370486
O O7 0.176659 0.838443 0.329453
O O8 0.951383 0.250000 0.750000
O O9 0.934390 0.338251 0.819185
O O10 0.949796 0.274735 0.000000
O O11 0.084107 0.586248 0.325291
O O12 0.000000 0.614306 0.293146
O O13 0.371219 0.500000 0.204206
O O14 0.328776 0.588443 0.170450
O O15 0.372629 0.546240 0.000000
O O16 0.750000 0.125316 0.750000
O O17 0.800277 0.071861 0.615899
O O18 0.664528 0.500000 0.500000
#
# Coordination Sequence:
#
# PCOD8285322 Si02
#       7
#    16  32  32  32  32  32  16
#     4  11  21  38  67 100 131 166 215 278 335 388
#     4  10  21  42  69  98 133 175 223 278 339 404
#     4  10  21  40  66  96 132 174 221 277 339 404
#     4  12  24  41  67  98 132 172 221 275 334 400
#     4  11  26  46  66  94 136 181 225 276 333 400
#     4  12  25  43  68 100 134 176 223 277 334 402
#     4  11  22  41  70  96 131 176 220 274 337 392
#
# _framework density 21.518512999999999
#
# number of rings (size 3 to 8) (size 9 to 14) (size 15 to 20)
#    0.000    1.000    5.000    1.250    1.167    5.333 
#    0.000    1.667    0.000    0.000    0.000    0.000 
#    0.000    0.000    0.000    0.000    0.000    0.000 
#
# Total GULP energy -594755.800475 kJ/mol
# GULP energy per Si atom -12390.745843 kJ/mol
# Density = 2.146954 g / cm^3
# Si number density = 21.518513 Si / 1000 Ang^3
#
#
#
# Elastic Constant Matrix: (Units=GPa)
#
#
# Indices 1 2 3 4 5 6 
#
# 1 72.2519 12.4198 24.5386 0.0006 0.0002 0.0003
# 2 12.4198 110.0981 63.8759 0.0021 -0.0003 0.0004
# 3 24.5386 63.8759 136.5853 0.0071 -0.0048 -0.0021
# 4 0.0006 0.0021 0.0071 39.2980 -0.0019 -0.0005
# 5 0.0002 -0.0003 -0.0048 -0.0019 7.1107 0.0013
# 6 0.0003 0.0004 -0.0021 -0.0005 0.0013 2.9756
#
#
#
# Elastic Compliance Matrix: (Units=1/GPa)
#
#
# Indices 1 2 3 4 5 6 
#
# 1 0.014742 -0.000173 -0.002567 0.000000 -0.000002 -0.000003
# 2 -0.000173 0.012467 -0.005799 0.000000 -0.000003 -0.000006
# 3 -0.002567 -0.005799 0.010495 -0.000002 0.000007 0.000009
# 4 0.000000 0.000000 -0.000002 0.025447 0.000007 0.000005
# 5 -0.000002 -0.000003 0.000007 0.000007 0.140634 -0.000061
# 6 -0.000003 -0.000006 0.000009 0.000005 -0.000061 0.336062
#
#
# Mechanical properties :
#
#
# Convention : Reuss Voigt Hill
#
# Bulk Modulus (GPa) = 48.48771 57.84488 53.16629
# Shear Modulus (GPa) = 8.86838 24.41693 16.64265
#
# Velocity S-wave (km/s) = 2.03230 3.37218 2.78404
# Velocity P-wave (km/s) = 5.29990 6.48860 5.92414
#
# Compressibility (1/GPa) = 0.02062378
#
# Stress axis : x y z
#
# Youngs Moduli (GPa) = 67.83229 80.21256 95.28595
#
# Poissons Ratio (x) = 0.01391 0.24464
# Poissons Ratio (y) = 0.01177 0.55258
# Poissons Ratio (z) = 0.17415 0.46516
#
# Static dielectric constant tensor:
#      x y z
#    x 4.067610 0.000000 0.000000 
#    y 0.000000 3.918860 0.000000 
#    z 0.000000 0.000000 4.194410 
# 
# 
# High freq. dielectric constant tensor:
#      x y z
#    x 1.830270 0.000000 0.000000 
#    y 0.000000 1.853380 0.000000 
#    z 0.000000 0.000000 1.848980 
# 
# From -- ./inp_files/12426.got.cif
#   From: 2010.03.12/outbox.cif.g09.slc.cpg/sg69_7_cif.got.tgz:12426.got - 2010.04.10 23:52:46.
