data_PCOD8285236
_publ_section_title
;
Structure prediction by ZEFSAII (Michael W. Deem and Ramdas Pophale) SiO2 
 PCOD8285236
Probable space group: F M M M
;
_chemical_formula_sum "Si O2"
_cell_formula_units_Z 160
_cell_length_a 28.171577
_cell_length_b 17.935589
_cell_length_c 14.678030
_cell_angle_alpha 90.000000
_cell_angle_beta 90.000000
_cell_angle_gamma 90.000000
_cell_volume 7416.424384
_symmetry_space_group_name_H-M "F M M M"
_symmetry_group_IT_number 69
_symmetry_cell_setting 'orthorhombic'
loop_
_space_group_symop_operation_xyz
x,y,z
-x,-y,z
x,-y,-z
-x,y,-z
-x,-y,-z
x,y,-z
-x,y,z
x,-y,z
x,1/2+y,1/2+z
-x,1/2-y,1/2+z
x,1/2-y,1/2-z
-x,1/2+y,1/2-z
-x,1/2-y,1/2-z
x,1/2+y,1/2-z
-x,1/2+y,1/2+z
x,1/2-y,1/2+z
1/2+x,y,1/2+z
1/2-x,-y,1/2+z
1/2+x,-y,1/2-z
1/2-x,y,1/2-z
1/2-x,-y,1/2-z
1/2+x,y,1/2-z
1/2-x,y,1/2+z
1/2+x,-y,1/2+z
1/2+x,1/2+y,z
1/2-x,1/2-y,z
1/2+x,1/2-y,-z
1/2-x,1/2+y,-z
1/2-x,1/2-y,-z
1/2+x,1/2+y,-z
1/2-x,1/2+y,z
1/2+x,1/2-y,z
loop_
_atom_site_type_symbol
_atom_site_label
_atom_site_fract_x
_atom_site_fract_y
_atom_site_fract_z
Si Si1 0.681805 0.642590 0.399782
Si Si2 0.445832 0.500000 0.765639
Si Si3 0.724377 0.915538 0.346209
Si Si4 0.650689 0.298703 0.106045
Si Si5 0.553415 0.864326 0.396016
Si Si6 0.373539 0.500000 0.390457
O O1 0.659744 0.651350 0.500000
O O2 0.737987 0.627144 0.410343
O O3 0.669351 0.720782 0.349672
O O4 0.656413 0.571138 0.354880
O O5 0.500000 0.500000 0.738315
O O6 0.433003 0.570738 0.826765
O O7 0.421470 0.500000 0.666893
O O8 0.750000 0.915830 0.250000
O O9 0.675835 0.868294 0.342949
O O10 0.713635 0.000000 0.379842
O O11 0.593507 0.301144 0.119294
O O12 0.664662 0.305445 0.000000
O O13 0.556146 0.894576 0.500000
O O14 0.500000 0.832774 0.377131
O O15 0.382521 0.500000 0.500000
#
# Coordination Sequence:
#
# PCOD8285236 Si02
#       6
#    32  16  32  32  32  16
#     4  10  21  40  59  80 114 159 201 246 302 357
#     4  10  21  37  61  90 121 156 199 250 301 363
#     4  11  24  37  55  86 120 158 197 245 298 359
#     4  10  22  37  59  89 119 155 201 248 298 361
#     4   9  19  37  61  91 126 159 191 241 309 365
#     4  10  22  40  63  82 111 160 208 254 304 348
#
# _framework density 21.573739
#
# number of rings (size 3 to 8) (size 9 to 14) (size 15 to 20)
#    0.000    2.000    1.000    1.500    4.200    5.800 
#    0.000    1.000    0.000    6.000    0.000    0.000 
#    0.000    0.000    0.000    0.000    0.000    0.000 
#
# Total GULP energy -495744.801247 kJ/mol
# GULP energy per Si atom -12393.620031 kJ/mol
# Density = 2.152464 g / cm^3
# Si number density = 21.573739 Si / 1000 Ang^3
#
#
#
# Elastic Constant Matrix: (Units=GPa)
#
#
# Indices 1 2 3 4 5 6 
#
# 1 141.0877 82.1096 27.4071 0.0000 0.0000 0.0000
# 2 82.1096 178.0653 21.3485 0.0000 0.0000 0.0000
# 3 27.4071 21.3485 50.2460 0.0000 0.0000 0.0000
# 4 0.0000 0.0000 0.0000 20.0380 0.0000 0.0000
# 5 0.0000 0.0000 0.0000 0.0000 28.6242 0.0000
# 6 0.0000 0.0000 0.0000 0.0000 0.0000 26.0357
#
#
#
# Elastic Compliance Matrix: (Units=1/GPa)
#
#
# Indices 1 2 3 4 5 6 
#
# 1 0.010335 -0.004309 -0.003806 0.000000 0.000000 0.000000
# 2 -0.004309 0.007714 -0.000927 0.000000 0.000000 0.000000
# 3 -0.003806 -0.000927 0.022372 0.000000 0.000000 0.000000
# 4 0.000000 0.000000 0.000000 0.049905 0.000000 0.000000
# 5 0.000000 0.000000 0.000000 0.000000 0.034935 0.000000
# 6 0.000000 0.000000 0.000000 0.000000 0.000000 0.038409
#
#
# Mechanical properties :
#
#
# Convention : Reuss Voigt Hill
#
# Bulk Modulus (GPa) = 44.77100 70.12549 57.44825
# Shear Modulus (GPa) = 26.42679 30.84184 28.63431
#
# Velocity S-wave (km/s) = 3.50373 3.78511 3.64713
# Velocity P-wave (km/s) = 6.09637 7.18876 6.66499
#
# Compressibility (1/GPa) = 0.02233589
#
# Stress axis : x y z
#
# Youngs Moduli (GPa) = 96.75691 129.63079 44.69838
#
# Poissons Ratio (x) = 0.55863 0.17014
# Poissons Ratio (y) = 0.41697 0.04144
# Poissons Ratio (z) = 0.36830 0.12017
#
# Static dielectric constant tensor:
#      x y z
#    x 3.947460 0.000000 0.000000 
#    y 0.000000 3.995840 0.000000 
#    z 0.000000 0.000000 3.730330 
# 
# 
# High freq. dielectric constant tensor:
#      x y z
#    x 1.843950 0.000000 0.000000 
#    y 0.000000 1.839990 0.000000 
#    z 0.000000 0.000000 1.842080 
# 
# From -- ./inp_files/19588.got.cif
#   From: 2010.03.12/outbox.cif.g09.slc.cpg/sg69_10_cif.got.tgz:19588.got - 2010.04.10 23:52:46.
