data_PCOD8285331
_publ_section_title
;
Structure prediction by ZEFSAII (Michael W. Deem and Ramdas Pophale) SiO2 
 PCOD8285331
Probable space group: F M M M
;
_chemical_formula_sum "Si O2"
_cell_formula_units_Z 192
_cell_length_a 14.592662
_cell_length_b 22.274899
_cell_length_c 28.875200
_cell_angle_alpha 90.000000
_cell_angle_beta 90.000000
_cell_angle_gamma 90.000000
_cell_volume 9385.885845
_symmetry_space_group_name_H-M "F M M M"
_symmetry_group_IT_number 69
_symmetry_cell_setting 'orthorhombic'
loop_
_space_group_symop_operation_xyz
x,y,z
-x,-y,z
x,-y,-z
-x,y,-z
-x,-y,-z
x,y,-z
-x,y,z
x,-y,z
x,1/2+y,1/2+z
-x,1/2-y,1/2+z
x,1/2-y,1/2-z
-x,1/2+y,1/2-z
-x,1/2-y,1/2-z
x,1/2+y,1/2-z
-x,1/2+y,1/2+z
x,1/2-y,1/2+z
1/2+x,y,1/2+z
1/2-x,-y,1/2+z
1/2+x,-y,1/2-z
1/2-x,y,1/2-z
1/2-x,-y,1/2-z
1/2+x,y,1/2-z
1/2-x,y,1/2+z
1/2+x,-y,1/2+z
1/2+x,1/2+y,z
1/2-x,1/2-y,z
1/2+x,1/2-y,-z
1/2-x,1/2+y,-z
1/2-x,1/2-y,-z
1/2+x,1/2+y,-z
1/2-x,1/2+y,z
1/2+x,1/2-y,z
loop_
_atom_site_type_symbol
_atom_site_label
_atom_site_fract_x
_atom_site_fract_y
_atom_site_fract_z
Si Si1 0.815963 0.933418 0.711701
Si Si2 0.266648 0.567336 0.446120
Si Si3 0.104679 0.654218 0.446815
Si Si4 0.000000 0.934682 0.765095
Si Si5 0.644159 0.744338 0.866431
Si Si6 0.000000 0.296346 0.705504
Si Si7 0.603581 0.121934 0.124714
O O1 0.750000 0.901954 0.750000
O O2 0.823618 0.895851 0.664706
O O3 0.915616 0.937268 0.731579
O O4 0.776803 0.000000 0.700160
O O5 0.288188 0.569200 0.500000
O O6 0.257679 0.500000 0.427238
O O7 0.170091 0.598648 0.434565
O O8 0.353937 0.598770 0.422945
O O9 0.118240 0.675189 0.500000
O O10 0.133164 0.708283 0.413879
O O11 0.000000 0.634020 0.437765
O O12 0.000000 0.869015 0.788663
O O13 0.000000 0.000000 0.794143
O O14 0.750000 0.750000 0.852617
O O15 0.592176 0.714713 0.823282
O O16 0.596507 0.807087 0.876612
O O17 0.000000 0.250000 0.750000
O O18 0.500000 0.096044 0.131209
#
# Coordination Sequence:
#
# PCOD8285331 Si02
#       7
#    32  32  32  16  32  16  32
#     4  10  22  40  63  91 123 164 217 267 317 384
#     4  10  23  41  64  99 136 171 214 263 322 394
#     4  10  21  42  70  96 128 167 210 267 328 383
#     4  10  22  42  66  93 127 167 218 276 331 391
#     4  12  25  43  66  94 129 168 218 274 321 397
#     4  12  26  46  65  97 138 175 220 275 332 393
#     4  12  23  41  66  93 127 174 219 263 327 387
#
# _framework density 20.456247000000001
#
# number of rings (size 3 to 8) (size 9 to 14) (size 15 to 20)
#    0.000    1.167    4.167    1.500    2.333    3.000 
#    0.000    3.333    0.000    0.000    0.000    0.000 
#    0.000    0.000    0.000    0.000    0.000    0.000 
#
# Total GULP energy -594906.873764 kJ/mol
# GULP energy per Si atom -12393.893203 kJ/mol
# Density = 2.040969 g / cm^3
# Si number density = 20.456247 Si / 1000 Ang^3
#
#
#
# Elastic Constant Matrix: (Units=GPa)
#
#
# Indices 1 2 3 4 5 6 
#
# 1 115.3791 18.0467 38.2903 0.0000 0.0000 0.0000
# 2 18.0467 140.9881 50.5892 0.0000 0.0000 0.0000
# 3 38.2903 50.5892 84.3145 0.0000 0.0000 0.0000
# 4 0.0000 0.0000 0.0000 33.1553 0.0000 0.0000
# 5 0.0000 0.0000 0.0000 0.0000 60.7333 0.0000
# 6 0.0000 0.0000 0.0000 0.0000 0.0000 23.7233
#
#
#
# Elastic Compliance Matrix: (Units=1/GPa)
#
#
# Indices 1 2 3 4 5 6 
#
# 1 0.010228 0.000456 -0.004918 0.000000 0.000000 0.000000
# 2 0.000456 0.009059 -0.005642 0.000000 0.000000 0.000000
# 3 -0.004918 -0.005642 0.017479 0.000000 0.000000 0.000000
# 4 0.000000 0.000000 0.000000 0.030161 0.000000 0.000000
# 5 0.000000 0.000000 0.000000 0.000000 0.016465 0.000000
# 6 0.000000 0.000000 0.000000 0.000000 0.000000 0.042153
#
#
# Mechanical properties :
#
#
# Convention : Reuss Voigt Hill
#
# Bulk Modulus (GPa) = 60.39992 61.61491 61.00741
# Shear Modulus (GPa) = 33.05247 39.10607 36.07927
#
# Velocity S-wave (km/s) = 4.02402 4.37703 4.20423
# Velocity P-wave (km/s) = 7.15407 7.46527 7.31133
#
# Compressibility (1/GPa) = 0.01655631
#
# Stress axis : x y z
#
# Youngs Moduli (GPa) = 97.77058 110.38639 57.21018
#
# Poissons Ratio (x) = -0.05029 0.28137
# Poissons Ratio (y) = -0.04454 0.32280
# Poissons Ratio (z) = 0.48086 0.62284
#
# Static dielectric constant tensor:
#      x y z
#    x 4.135040 0.000000 0.000000 
#    y 0.000000 4.071580 0.000000 
#    z 0.000000 0.000000 3.683340 
# 
# 
# High freq. dielectric constant tensor:
#      x y z
#    x 1.814560 0.000000 0.000000 
#    y 0.000000 1.804410 0.000000 
#    z 0.000000 0.000000 1.795100 
# 
# From -- ./inp_files/41141.got.cif
#   From: 2010.03.12/outbox.cif.g09.slc.cpg/sg69_21_cif.got.tgz:41141.got - 2010.04.10 23:52:46.
