data_PCOD8285206
_publ_section_title
;
Structure prediction by ZEFSAII (Michael W. Deem and Ramdas Pophale) SiO2 
 PCOD8285206
Probable space group: F M M M
;
_chemical_formula_sum "Si O2"
_cell_formula_units_Z 192
_cell_length_a 16.406255
_cell_length_b 20.594758
_cell_length_c 29.564326
_cell_angle_alpha 90.000000
_cell_angle_beta 90.000000
_cell_angle_gamma 90.000000
_cell_volume 9989.278769
_symmetry_space_group_name_H-M "F M M M"
_symmetry_group_IT_number 69
_symmetry_cell_setting 'orthorhombic'
loop_
_space_group_symop_operation_xyz
x,y,z
-x,-y,z
x,-y,-z
-x,y,-z
-x,-y,-z
x,y,-z
-x,y,z
x,-y,z
x,1/2+y,1/2+z
-x,1/2-y,1/2+z
x,1/2-y,1/2-z
-x,1/2+y,1/2-z
-x,1/2-y,1/2-z
x,1/2+y,1/2-z
-x,1/2+y,1/2+z
x,1/2-y,1/2+z
1/2+x,y,1/2+z
1/2-x,-y,1/2+z
1/2+x,-y,1/2-z
1/2-x,y,1/2-z
1/2-x,-y,1/2-z
1/2+x,y,1/2-z
1/2-x,y,1/2+z
1/2+x,-y,1/2+z
1/2+x,1/2+y,z
1/2-x,1/2-y,z
1/2+x,1/2-y,-z
1/2-x,1/2+y,-z
1/2-x,1/2-y,-z
1/2+x,1/2+y,-z
1/2-x,1/2+y,z
1/2+x,1/2-y,z
loop_
_atom_site_type_symbol
_atom_site_label
_atom_site_fract_x
_atom_site_fract_y
_atom_site_fract_z
Si Si1 0.804232 0.575099 0.085041
Si Si2 0.843511 0.839200 0.263011
Si Si3 0.594092 0.776829 0.678477
Si Si4 0.409956 0.924217 0.168056
Si Si5 0.685824 0.807741 0.587165
Si Si6 0.902885 0.385109 0.000000
Si Si7 0.904346 0.264682 0.500000
O O1 0.775823 0.500000 0.090824
O O2 0.854715 0.602450 0.127582
O O3 0.725851 0.621281 0.081312
O O4 0.864895 0.579601 0.043001
O O5 0.750000 0.834046 0.250000
O O6 0.898342 0.829667 0.218551
O O7 0.862035 0.787902 0.303170
O O8 0.866654 0.908486 0.284120
O O9 0.500000 0.762700 0.668049
O O10 0.635733 0.804381 0.633597
O O11 0.500000 0.891977 0.165450
O O12 0.418651 0.000000 0.163464
O O13 0.750000 0.750000 0.586212
O O14 0.626755 0.800433 0.544629
O O15 0.875731 0.310093 0.000000
O O16 0.000000 0.394326 0.000000
O O17 0.000000 0.269327 0.500000
#
# Coordination Sequence:
#
# PCOD8285206 Si02
#       7
#    32  32  32  32  32  16  16
#     4  11  23  38  59  89 122 158 198 243 296 353
#     4  11  21  36  56  84 115 148 191 243 295 354
#     4  11  22  36  58  84 112 148 194 246 295 343
#     4  10  21  37  56  81 117 157 193 235 291 353
#     4  12  22  40  62  85 118 156 195 243 295 354
#     4  11  22  38  60  90 123 158 195 241 296 352
#     4  11  24  40  61  91 121 151 195 244 297 352
#
# _framework density 19.220606
#
# number of rings (size 3 to 8) (size 9 to 14) (size 15 to 20)
#    0.000    1.000    1.667    8.000    0.000    1.667 
#    0.000    0.833    0.000    3.500    0.000    0.000 
#    0.000    0.000    0.000    0.000    0.000    0.000 
#
# Total GULP energy -595266.686739 kJ/mol
# GULP energy per Si atom -12401.389307 kJ/mol
# Density = 1.917686 g / cm^3
# Si number density = 19.220606 Si / 1000 Ang^3
#
#
#
# Elastic Constant Matrix: (Units=GPa)
#
#
# Indices 1 2 3 4 5 6 
#
# 1 98.8323 38.9834 30.6685 0.0000 0.0000 0.0000
# 2 38.9834 67.9678 34.3834 0.0000 0.0000 0.0000
# 3 30.6685 34.3834 130.5873 0.0000 0.0000 0.0000
# 4 0.0000 0.0000 0.0000 102.4108 0.0000 0.0000
# 5 0.0000 0.0000 0.0000 0.0000 21.1303 0.0000
# 6 0.0000 0.0000 0.0000 0.0000 0.0000 24.3624
#
#
#
# Elastic Compliance Matrix: (Units=1/GPa)
#
#
# Indices 1 2 3 4 5 6 
#
# 1 0.013260 -0.006957 -0.001282 0.000000 0.000000 0.000000
# 2 -0.006957 0.020623 -0.003796 0.000000 0.000000 0.000000
# 3 -0.001282 -0.003796 0.008958 0.000000 0.000000 0.000000
# 4 0.000000 0.000000 0.000000 0.009765 0.000000 0.000000
# 5 0.000000 0.000000 0.000000 0.000000 0.047325 0.000000
# 6 0.000000 0.000000 0.000000 0.000000 0.000000 0.041047
#
#
# Mechanical properties :
#
#
# Convention : Reuss Voigt Hill
#
# Bulk Modulus (GPa) = 53.27352 56.16198 54.71775
# Shear Modulus (GPa) = 29.18741 42.47083 35.82912
#
# Velocity S-wave (km/s) = 3.90108 4.70579 4.32221
# Velocity P-wave (km/s) = 6.93313 7.66871 7.31018
#
# Compressibility (1/GPa) = 0.01877105
#
# Stress axis : x y z
#
# Youngs Moduli (GPa) = 75.41425 48.48869 111.62629
#
# Poissons Ratio (x) = 0.33732 0.14316
# Poissons Ratio (y) = 0.52463 0.42377
# Poissons Ratio (z) = 0.09672 0.18408
#
# Static dielectric constant tensor:
#      x y z
#    x 3.697170 0.000000 0.000000 
#    y 0.000000 3.454230 0.000000 
#    z 0.000000 0.000000 4.484680 
# 
# 
# High freq. dielectric constant tensor:
#      x y z
#    x 1.751660 0.000000 0.000000 
#    y 0.000000 1.734080 0.000000 
#    z 0.000000 0.000000 1.765400 
# 
# From -- ./inp_files/41173.got.cif
#   From: 2010.03.12/outbox.cif.g09.slc.cpg/sg69_21_cif.got.tgz:41173.got - 2010.04.10 23:52:46.
