data_PCOD8285140
_publ_section_title
;
Structure prediction by ZEFSAII (Michael W. Deem and Ramdas Pophale) SiO2 
 PCOD8285140
Probable space group: F M M M
;
_chemical_formula_sum "Si O2"
_cell_formula_units_Z 144
_cell_length_a 27.040507
_cell_length_b 9.053399
_cell_length_c 31.953753
_cell_angle_alpha 90.000000
_cell_angle_beta 90.000000
_cell_angle_gamma 90.000000
_cell_volume 7822.550310
_symmetry_space_group_name_H-M "F M M M"
_symmetry_group_IT_number 69
_symmetry_cell_setting 'orthorhombic'
loop_
_space_group_symop_operation_xyz
x,y,z
-x,-y,z
x,-y,-z
-x,y,-z
-x,-y,-z
x,y,-z
-x,y,z
x,-y,z
x,1/2+y,1/2+z
-x,1/2-y,1/2+z
x,1/2-y,1/2-z
-x,1/2+y,1/2-z
-x,1/2-y,1/2-z
x,1/2+y,1/2-z
-x,1/2+y,1/2+z
x,1/2-y,1/2+z
1/2+x,y,1/2+z
1/2-x,-y,1/2+z
1/2+x,-y,1/2-z
1/2-x,y,1/2-z
1/2-x,-y,1/2-z
1/2+x,y,1/2-z
1/2-x,y,1/2+z
1/2+x,-y,1/2+z
1/2+x,1/2+y,z
1/2-x,1/2-y,z
1/2+x,1/2-y,-z
1/2-x,1/2+y,-z
1/2-x,1/2-y,-z
1/2+x,1/2+y,-z
1/2-x,1/2+y,z
1/2+x,1/2-y,z
loop_
_atom_site_type_symbol
_atom_site_label
_atom_site_fract_x
_atom_site_fract_y
_atom_site_fract_z
Si Si1 0.555437 0.175583 0.500000
Si Si2 0.855512 0.673023 0.791590
Si Si3 0.943572 0.170405 0.831683
Si Si4 0.198303 0.673786 0.876306
Si Si5 0.890256 0.828518 0.083042
O O1 0.500000 0.242041 0.500000
O O2 0.584411 0.231413 0.540904
O O3 0.552193 0.000000 0.500000
O O4 0.858109 0.500000 0.784057
O O5 0.834200 0.750000 0.750000
O O6 0.910576 0.731213 0.800930
O O7 0.819189 0.715392 0.829521
O O8 0.929159 0.197868 0.879789
O O9 0.000000 0.219566 0.825561
O O10 0.935512 0.000000 0.819549
O O11 0.203556 0.500000 0.882264
O O12 0.250000 0.750000 0.885512
O O13 0.159196 0.734712 0.909764
O O14 0.875455 0.000000 0.079473
#
# Coordination Sequence:
#
# PCOD8285140 Si02
#       5
#    16  32  32  32  32
#     4   9  16  28  52  85 114 139 170 207 246 291
#     4  10  21  35  51  73 100 129 164 208 254 302
#     4   9  17  30  49  72 100 136 173 207 247 296
#     4  10  21  37  56  76  99 130 168 209 255 304
#     4   9  17  31  52  78 107 136 169 209 250 295
#
# _framework density 18.408318000000001
#
# number of rings (size 3 to 8) (size 9 to 14) (size 15 to 20)
#    0.000    2.556    0.000    2.000    0.000    6.667 
#    0.000    3.333    0.000    2.667    0.000    0.000 
#    0.000    0.000    0.000    0.000    0.000    0.000 
#
# Total GULP energy -446507.188798 kJ/mol
# GULP energy per Si atom -12402.977467 kJ/mol
# Density = 1.836642 g / cm^3
# Si number density = 18.408318 Si / 1000 Ang^3
#
#
#
# Elastic Constant Matrix: (Units=GPa)
#
#
# Indices 1 2 3 4 5 6 
#
# 1 132.5138 46.1135 44.7751 0.0000 -0.0001 -0.0002
# 2 46.1135 62.9585 35.5624 0.0000 -0.0002 -0.0001
# 3 44.7751 35.5624 106.4867 0.0000 0.0000 -0.0001
# 4 0.0000 0.0000 0.0000 21.0961 0.0000 0.0000
# 5 -0.0001 -0.0002 0.0000 0.0000 16.0100 0.0001
# 6 -0.0002 -0.0001 -0.0001 0.0000 0.0001 26.1523
#
#
#
# Elastic Compliance Matrix: (Units=1/GPa)
#
#
# Indices 1 2 3 4 5 6 
#
# 1 0.010562 -0.006443 -0.002289 0.000000 0.000000 0.000000
# 2 -0.006443 0.023507 -0.005141 0.000000 0.000000 0.000000
# 3 -0.002289 -0.005141 0.012070 0.000000 0.000000 0.000000
# 4 0.000000 0.000000 0.000000 0.047402 0.000000 0.000000
# 5 0.000000 0.000000 0.000000 0.000000 0.062461 0.000000
# 6 0.000000 0.000000 0.000000 0.000000 0.000000 0.038238
#
#
# Mechanical properties :
#
#
# Convention : Reuss Voigt Hill
#
# Bulk Modulus (GPa) = 54.37133 61.65121 58.01127
# Shear Modulus (GPa) = 21.91854 24.35221 23.13538
#
# Velocity S-wave (km/s) = 3.45438 3.64110 3.54897
# Velocity P-wave (km/s) = 6.74616 7.15825 6.95526
#
# Compressibility (1/GPa) = 0.01839204
#
# Stress axis : x y z
#
# Youngs Moduli (GPa) = 94.67895 42.54133 82.84703
#
# Poissons Ratio (x) = 0.27409 0.18967
# Poissons Ratio (y) = 0.61001 0.42593
# Poissons Ratio (z) = 0.21676 0.21871
#
# Static dielectric constant tensor:
#      x y z
#    x 3.348500 0.000000 0.000000 
#    y 0.000000 3.246730 0.000000 
#    z 0.000000 0.000000 3.418740 
# 
# 
# High freq. dielectric constant tensor:
#      x y z
#    x 1.713430 0.000000 0.000000 
#    y 0.000000 1.702150 0.000000 
#    z 0.000000 0.000000 1.710310 
# 
# From -- ./inp_files/5566.got.cif
#   From: 2010.03.12/outbox.cif.g09.slc.cpg/sg69_3_cif.got.tgz:5566.got - 2010.04.10 23:52:46.
