data_PCOD8285794
_publ_section_title
;
Structure prediction by ZEFSAII (Michael W. Deem and Ramdas Pophale) SiO2 
 PCOD8285794
Probable space group: F D D D
;
_chemical_formula_sum "Si O2"
_cell_formula_units_Z 144
_cell_length_a 27.917864
_cell_length_b 15.247250
_cell_length_c 17.633062
_cell_angle_alpha 90.000000
_cell_angle_beta 90.000000
_cell_angle_gamma 90.000000
_cell_volume 7505.876996
_symmetry_space_group_name_H-M "F D D D"
_symmetry_group_IT_number 70
_space_group.IT_coordinate_system_code '2'
_symmetry_cell_setting 'orthorhombic'
loop_
_space_group_symop_operation_xyz
x,y,z
1/4-x,1/4-y,z
x,1/4-y,1/4-z
1/4-x,y,1/4-z
-x,-y,-z
3/4+x,3/4+y,-z
-x,3/4+y,3/4+z
3/4+x,-y,3/4+z
x,1/2+y,1/2+z
1/4-x,3/4-y,1/2+z
x,3/4-y,3/4-z
1/4-x,1/2+y,3/4-z
-x,1/2-y,1/2-z
3/4+x,1/4+y,1/2-z
-x,1/4+y,1/4+z
3/4+x,1/2-y,1/4+z
1/2+x,y,1/2+z
3/4-x,1/4-y,1/2+z
1/2+x,1/4-y,3/4-z
3/4-x,y,3/4-z
1/2-x,-y,1/2-z
1/4+x,3/4+y,1/2-z
1/2-x,3/4+y,1/4+z
1/4+x,-y,1/4+z
1/2+x,1/2+y,z
3/4-x,3/4-y,z
1/2+x,3/4-y,1/4-z
3/4-x,1/2+y,1/4-z
1/2-x,1/2-y,-z
1/4+x,1/4+y,-z
1/2-x,1/4+y,3/4+z
1/4+x,1/2-y,3/4+z
loop_
_atom_site_type_symbol
_atom_site_label
_atom_site_fract_x
_atom_site_fract_y
_atom_site_fract_z
Si Si1 0.427801 0.073030 0.201234
Si Si2 0.321533 0.375663 0.669229
Si Si3 0.252187 0.125000 0.125000
Si Si4 0.272882 0.560367 0.901256
Si Si5 0.927805 0.049559 0.001698
O O1 0.441195 0.125000 0.125000
O O2 0.458898 0.107948 0.272338
O O3 0.372764 0.088812 0.222927
O O4 0.442007 0.971937 0.192374
O O5 0.375000 0.375000 0.631717
O O6 0.282189 0.409987 0.609439
O O7 0.322271 0.442576 0.741758
O O8 0.221786 0.204888 0.159917
O O9 0.282615 0.085015 0.192459
O O10 0.308039 0.584451 0.831385
#
# Coordination Sequence:
#
# PCOD8285794 Si02
#       5
#    32  32  16  32  32
#     4  11  22  36  52  77 115 148 182 220 264 317
#     4   9  20  36  54  81 112 140 173 224 281 315
#     4  10  18  34  57  84 110 132 173 228 286 324
#     4  11  20  33  58  83 106 143 183 219 270 331
#     4  10  19  35  56  82 111 136 177 225 280 328
#
# _framework density 19.184967
#
# number of rings (size 3 to 8) (size 9 to 14) (size 15 to 20)
#    0.000    1.778    1.111    6.000    0.000    0.889 
#    0.000    4.444    0.000    0.667    0.000    0.000 
#    0.000    0.000    0.000    0.000    0.000    0.000 
#
# Total GULP energy -446200.526245 kJ/mol
# GULP energy per Si atom -12394.459062 kJ/mol
# Density = 1.914130 g / cm^3
# Si number density = 19.184967 Si / 1000 Ang^3
#
#
#
# Elastic Constant Matrix: (Units=GPa)
#
#
# Indices 1 2 3 4 5 6 
#
# 1 63.9951 9.0325 48.4348 0.0000 0.0000 0.0000
# 2 9.0325 45.0718 41.0338 0.0000 0.0000 0.0000
# 3 48.4348 41.0338 152.4818 0.0000 0.0000 0.0000
# 4 0.0000 0.0000 0.0000 19.3104 0.0000 0.0000
# 5 0.0000 0.0000 0.0000 0.0000 52.4225 0.0000
# 6 0.0000 0.0000 0.0000 0.0000 0.0000 32.7983
#
#
#
# Elastic Compliance Matrix: (Units=1/GPa)
#
#
# Indices 1 2 3 4 5 6 
#
# 1 0.020773 0.002443 -0.007256 0.000000 0.000000 0.000000
# 2 0.002443 0.029674 -0.008761 0.000000 0.000000 0.000000
# 3 -0.007256 -0.008761 0.011221 0.000000 0.000000 0.000000
# 4 0.000000 0.000000 0.000000 0.051786 0.000000 0.000000
# 5 0.000000 0.000000 0.000000 0.000000 0.019076 0.000000
# 6 0.000000 0.000000 0.000000 0.000000 0.000000 0.030489
#
#
# Mechanical properties :
#
#
# Convention : Reuss Voigt Hill
#
# Bulk Modulus (GPa) = 28.96986 50.95009 39.95997
# Shear Modulus (GPa) = 24.79265 31.77608 28.28437
#
# Velocity S-wave (km/s) = 3.59875 4.07418 3.84382
# Velocity P-wave (km/s) = 5.69220 6.98190 6.36977
#
# Compressibility (1/GPa) = 0.03451863
#
# Stress axis : x y z
#
# Youngs Moduli (GPa) = 48.13951 33.69998 89.12171
#
# Poissons Ratio (x) = -0.08232 0.64664
# Poissons Ratio (y) = -0.11759 0.78082
# Poissons Ratio (z) = 0.34929 0.29525
#
# Static dielectric constant tensor:
#      x y z
#    x 3.610310 0.000000 0.000000 
#    y 0.000000 3.400660 0.000000 
#    z 0.000000 0.000000 3.367410 
# 
# 
# High freq. dielectric constant tensor:
#      x y z
#    x 1.753140 0.000000 0.000000 
#    y 0.000000 1.726710 0.000000 
#    z 0.000000 0.000000 1.732310 
# 
# From -- ./inp_files/26571.got.cif
#   From: 2010.03.12/outbox.cif.g09.slc.cpg/sg70_14_cif.got.tgz:26571.got - 2010.04.16 13:46:32.
