data_PCOD8285448
_publ_section_title
;
Structure prediction by ZEFSAII (Michael W. Deem and Ramdas Pophale) SiO2 
 PCOD8285448
Probable space group: F M M M
;
_chemical_formula_sum "Si O2"
_cell_formula_units_Z 136
_cell_length_a 13.096465
_cell_length_b 25.828864
_cell_length_c 19.876834
_cell_angle_alpha 90.000000
_cell_angle_beta 90.000000
_cell_angle_gamma 90.000000
_cell_volume 6723.673297
_symmetry_space_group_name_H-M "F M M M"
_symmetry_group_IT_number 69
_symmetry_cell_setting 'orthorhombic'
loop_
_space_group_symop_operation_xyz
x,y,z
-x,-y,z
x,-y,-z
-x,y,-z
-x,-y,-z
x,y,-z
-x,y,z
x,-y,z
x,1/2+y,1/2+z
-x,1/2-y,1/2+z
x,1/2-y,1/2-z
-x,1/2+y,1/2-z
-x,1/2-y,1/2-z
x,1/2+y,1/2-z
-x,1/2+y,1/2+z
x,1/2-y,1/2+z
1/2+x,y,1/2+z
1/2-x,-y,1/2+z
1/2+x,-y,1/2-z
1/2-x,y,1/2-z
1/2-x,-y,1/2-z
1/2+x,y,1/2-z
1/2-x,y,1/2+z
1/2+x,-y,1/2+z
1/2+x,1/2+y,z
1/2-x,1/2-y,z
1/2+x,1/2-y,-z
1/2-x,1/2+y,-z
1/2-x,1/2-y,-z
1/2+x,1/2+y,-z
1/2-x,1/2+y,z
1/2+x,1/2-y,z
loop_
_atom_site_type_symbol
_atom_site_label
_atom_site_fract_x
_atom_site_fract_y
_atom_site_fract_z
Si Si1 0.500000 0.748286 0.329395
Si Si2 0.783892 0.889363 0.074748
Si Si3 0.796471 0.000000 0.578251
Si Si4 0.000000 0.500000 0.162953
Si Si5 0.000000 0.396265 0.757500
Si Si6 0.675695 0.674702 0.310995
Si Si7 0.500000 0.863296 0.613036
O O1 0.500000 0.750000 0.250000
O O2 0.606835 0.719353 0.346415
O O3 0.500000 0.803225 0.364991
O O4 0.738342 0.849683 0.128207
O O5 0.903125 0.877185 0.068247
O O6 0.766808 0.948665 0.098434
O O7 0.735827 0.880871 0.000000
O O8 0.821944 0.000000 0.500000
O O9 0.902622 0.000000 0.616091
O O10 0.000000 0.547777 0.212079
O O11 0.102152 0.367746 0.779682
O O12 0.000000 0.400511 0.677584
O O13 0.750000 0.694508 0.250000
#
# Coordination Sequence:
#
# PCOD8285448 Si02
#       7
#    16  32  16   8  16  32  16
#     4  11  22  39  65  95 123 168 219 262 319 377
#     4  11  24  43  65  92 128 171 212 260 319 385
#     4  10  23  40  64  90 124 176 215 246 312 394
#     4  12  21  38  62 100 133 156 206 270 324 378
#     4  11  22  37  61  96 130 157 202 263 325 362
#     4  11  21  41  64  94 128 163 213 265 313 380
#     4  12  24  44  59  93 132 165 213 270 312 377
#
# _framework density 20.227038
#
# number of rings (size 3 to 8) (size 9 to 14) (size 15 to 20)
#    0.000    0.941    7.059    0.529    0.000    4.706 
#    0.000   10.000    0.000    0.000    0.000    0.000 
#    0.000    0.000    0.000    0.000    0.000    0.000 
#
# Total GULP energy -421506.469987 kJ/mol
# GULP energy per Si atom -12397.249117 kJ/mol
# Density = 2.018100 g / cm^3
# Si number density = 20.227038 Si / 1000 Ang^3
#
#
#
# Elastic Constant Matrix: (Units=GPa)
#
#
# Indices 1 2 3 4 5 6 
#
# 1 130.0051 54.6351 32.3574 0.0000 0.0000 0.0000
# 2 54.6351 132.0535 33.8188 0.0000 0.0000 0.0000
# 3 32.3574 33.8188 80.7832 0.0000 0.0000 0.0000
# 4 0.0000 0.0000 0.0000 15.3708 0.0000 0.0000
# 5 0.0000 0.0000 0.0000 0.0000 28.4287 0.0000
# 6 0.0000 0.0000 0.0000 0.0000 0.0000 23.7554
#
#
#
# Elastic Compliance Matrix: (Units=1/GPa)
#
#
# Indices 1 2 3 4 5 6 
#
# 1 0.009735 -0.003393 -0.002479 0.000000 0.000000 0.000000
# 2 -0.003393 0.009665 -0.002687 0.000000 0.000000 0.000000
# 3 -0.002479 -0.002687 0.014497 0.000000 0.000000 0.000000
# 4 0.000000 0.000000 0.000000 0.065058 0.000000 0.000000
# 5 0.000000 0.000000 0.000000 0.000000 0.035176 0.000000
# 6 0.000000 0.000000 0.000000 0.000000 0.000000 0.042096
#
#
# Mechanical properties :
#
#
# Convention : Reuss Voigt Hill
#
# Bulk Modulus (GPa) = 59.59957 64.94049 62.27003
# Shear Modulus (GPa) = 25.13370 28.31300 26.72335
#
# Velocity S-wave (km/s) = 3.52885 3.74540 3.63873
# Velocity P-wave (km/s) = 6.79212 7.13298 6.96464
#
# Compressibility (1/GPa) = 0.01677864
#
# Stress axis : x y z
#
# Youngs Moduli (GPa) = 102.72407 103.47114 68.98181
#
# Poissons Ratio (x) = 0.35106 0.17100
# Poissons Ratio (y) = 0.34852 0.18535
# Poissons Ratio (z) = 0.25464 0.27802
#
# Static dielectric constant tensor:
#      x y z
#    x 3.844590 0.000000 0.000000 
#    y 0.000000 3.235220 0.000000 
#    z 0.000000 0.000000 3.514010 
# 
# 
# High freq. dielectric constant tensor:
#      x y z
#    x 1.805720 0.000000 0.000000 
#    y 0.000000 1.795190 0.000000 
#    z 0.000000 0.000000 1.782280 
# 
# From -- ./inp_files/29124.got.cif
#   From: 2010.03.12/outbox.cif.g09.slc.cpg/sg69_15_cif.got.tgz:29124.got - 2010.04.10 23:52:46.
