data_PCOD8285286
_publ_section_title
;
Structure prediction by ZEFSAII (Michael W. Deem and Ramdas Pophale) SiO2 
 PCOD8285286
Probable space group: F M M M
;
_chemical_formula_sum "Si O2"
_cell_formula_units_Z 144
_cell_length_a 14.474790
_cell_length_b 28.513895
_cell_length_c 18.603965
_cell_angle_alpha 90.000000
_cell_angle_beta 90.000000
_cell_angle_gamma 90.000000
_cell_volume 7678.463630
_symmetry_space_group_name_H-M "F M M M"
_symmetry_group_IT_number 69
_symmetry_cell_setting 'orthorhombic'
loop_
_space_group_symop_operation_xyz
x,y,z
-x,-y,z
x,-y,-z
-x,y,-z
-x,-y,-z
x,y,-z
-x,y,z
x,-y,z
x,1/2+y,1/2+z
-x,1/2-y,1/2+z
x,1/2-y,1/2-z
-x,1/2+y,1/2-z
-x,1/2-y,1/2-z
x,1/2+y,1/2-z
-x,1/2+y,1/2+z
x,1/2-y,1/2+z
1/2+x,y,1/2+z
1/2-x,-y,1/2+z
1/2+x,-y,1/2-z
1/2-x,y,1/2-z
1/2-x,-y,1/2-z
1/2+x,y,1/2-z
1/2-x,y,1/2+z
1/2+x,-y,1/2+z
1/2+x,1/2+y,z
1/2-x,1/2-y,z
1/2+x,1/2-y,-z
1/2-x,1/2+y,-z
1/2-x,1/2-y,-z
1/2+x,1/2+y,-z
1/2-x,1/2+y,z
1/2+x,1/2-y,z
loop_
_atom_site_type_symbol
_atom_site_label
_atom_site_fract_x
_atom_site_fract_y
_atom_site_fract_z
Si Si1 0.394259 0.316450 0.583218
Si Si2 0.605810 0.772810 0.324020
Si Si3 0.400212 0.000000 0.916412
Si Si4 0.227176 0.448458 0.417358
Si Si5 0.767221 0.860902 0.167284
O O1 0.366016 0.317399 0.500000
O O2 0.500000 0.332772 0.594750
O O3 0.381529 0.263545 0.611378
O O4 0.329396 0.351351 0.627447
O O5 0.500000 0.788196 0.313067
O O6 0.643839 0.750000 0.250000
O O7 0.663602 0.818180 0.344910
O O8 0.337573 0.953973 0.899332
O O9 0.500000 0.000000 0.875480
O O10 0.420662 0.000000 0.000000
O O11 0.211882 0.433769 0.500000
O O12 0.180051 0.500000 0.403384
O O13 0.186602 0.407731 0.366717
O O14 0.750000 0.870870 0.250000
#
# Coordination Sequence:
#
# PCOD8285286 Si02
#       5
#    32  32  16  32  32
#     4  10  22  38  57  85 119 153 195 248 296 347
#     4  10  21  39  57  78 117 160 199 241 293 353
#     4   7  12  28  53  76 105 149 189 229 292 347
#     4   8  18  35  52  77 112 148 188 242 294 341
#     4  12  22  32  58  88 113 156 199 238 298 358
#
# _framework density 18.753751999999999
#
# number of rings (size 3 to 8) (size 9 to 14) (size 15 to 20)
#    0.667    1.667    2.222    1.333    0.000    4.000 
#    0.000    2.222    0.000    0.667    0.000    1.556 
#    0.000    0.000    0.000    0.000    0.000    0.000 
#
# Total GULP energy -446100.563878 kJ/mol
# GULP energy per Si atom -12391.682330 kJ/mol
# Density = 1.871107 g / cm^3
# Si number density = 18.753752 Si / 1000 Ang^3
#
#
#
# Elastic Constant Matrix: (Units=GPa)
#
#
# Indices 1 2 3 4 5 6 
#
# 1 48.2116 33.9237 32.7887 0.0000 0.0000 0.0000
# 2 33.9237 117.0866 60.4499 0.0000 0.0000 0.0000
# 3 32.7887 60.4499 131.6579 0.0000 0.0000 0.0000
# 4 0.0000 0.0000 0.0000 34.7834 0.0000 0.0000
# 5 0.0000 0.0000 0.0000 0.0000 22.5856 0.0000
# 6 0.0000 0.0000 0.0000 0.0000 0.0000 65.2770
#
#
#
# Elastic Compliance Matrix: (Units=1/GPa)
#
#
# Indices 1 2 3 4 5 6 
#
# 1 0.027731 -0.005858 -0.004217 0.000000 0.000000 0.000000
# 2 -0.005858 0.012432 -0.004249 0.000000 0.000000 0.000000
# 3 -0.004217 -0.004249 0.010597 0.000000 0.000000 0.000000
# 4 0.000000 0.000000 0.000000 0.028749 0.000000 0.000000
# 5 0.000000 0.000000 0.000000 0.000000 0.044276 0.000000
# 6 0.000000 0.000000 0.000000 0.000000 0.000000 0.015319
#
#
# Mechanical properties :
#
#
# Convention : Reuss Voigt Hill
#
# Bulk Modulus (GPa) = 45.22333 61.25341 53.23837
# Shear Modulus (GPa) = 28.55151 35.84879 32.20015
#
# Velocity S-wave (km/s) = 3.90608 4.37687 4.14816
# Velocity P-wave (km/s) = 6.67158 7.63384 7.16887
#
# Compressibility (1/GPa) = 0.02211248
#
# Stress axis : x y z
#
# Youngs Moduli (GPa) = 36.06014 80.44063 94.37015
#
# Poissons Ratio (x) = 0.47119 0.39795
# Poissons Ratio (y) = 0.21122 0.40098
# Poissons Ratio (z) = 0.15206 0.34180
#
# Static dielectric constant tensor:
#      x y z
#    x 3.414420 0.000000 0.000000 
#    y 0.000000 3.348160 0.000000 
#    z 0.000000 0.000000 3.376000 
# 
# 
# High freq. dielectric constant tensor:
#      x y z
#    x 1.705640 0.000000 0.000000 
#    y 0.000000 1.724160 0.000000 
#    z 0.000000 0.000000 1.720230 
# 
# From -- ./inp_files/21779.got.cif
#   From: 2010.03.12/outbox.cif.g09.slc.cpg/sg69_11_cif.got.tgz:21779.got - 2010.04.10 23:52:46.
