data_PCOD8285089
_publ_section_title
;
Structure prediction by ZEFSAII (Michael W. Deem and Ramdas Pophale) SiO2 
 PCOD8285089
Probable space group: F M M M
;
_chemical_formula_sum "Si O2"
_cell_formula_units_Z 144
_cell_length_a 15.346882
_cell_length_b 26.914729
_cell_length_c 17.049589
_cell_angle_alpha 90.000000
_cell_angle_beta 90.000000
_cell_angle_gamma 90.000000
_cell_volume 7042.454982
_symmetry_space_group_name_H-M "F M M M"
_symmetry_group_IT_number 69
_symmetry_cell_setting 'orthorhombic'
loop_
_space_group_symop_operation_xyz
x,y,z
-x,-y,z
x,-y,-z
-x,y,-z
-x,-y,-z
x,y,-z
-x,y,z
x,-y,z
x,1/2+y,1/2+z
-x,1/2-y,1/2+z
x,1/2-y,1/2-z
-x,1/2+y,1/2-z
-x,1/2-y,1/2-z
x,1/2+y,1/2-z
-x,1/2+y,1/2+z
x,1/2-y,1/2+z
1/2+x,y,1/2+z
1/2-x,-y,1/2+z
1/2+x,-y,1/2-z
1/2-x,y,1/2-z
1/2-x,-y,1/2-z
1/2+x,y,1/2-z
1/2-x,y,1/2+z
1/2+x,-y,1/2+z
1/2+x,1/2+y,z
1/2-x,1/2-y,z
1/2+x,1/2-y,-z
1/2-x,1/2+y,-z
1/2-x,1/2-y,-z
1/2+x,1/2+y,-z
1/2-x,1/2+y,z
1/2+x,1/2-y,z
loop_
_atom_site_type_symbol
_atom_site_label
_atom_site_fract_x
_atom_site_fract_y
_atom_site_fract_z
Si Si1 0.352331 0.375712 0.639527
Si Si2 0.500000 0.808575 0.592240
Si Si3 0.899278 0.441930 0.000000
Si Si4 0.151188 0.445655 0.275184
Si Si5 0.500000 0.302645 0.593176
Si Si6 0.336881 0.374995 0.906207
O O1 0.355042 0.419304 0.575878
O O2 0.385844 0.401847 0.719522
O O3 0.413497 0.329208 0.623614
O O4 0.252703 0.355637 0.634960
O O5 0.500000 0.804112 0.500000
O O6 0.500000 0.753060 0.627794
O O7 0.587644 0.836610 0.618459
O O8 0.882900 0.500000 0.000000
O O9 0.000000 0.426952 0.000000
O O10 0.104830 0.500000 0.266309
O O11 0.250000 0.452340 0.250000
O O12 0.140510 0.428006 0.365608
O O13 0.500000 0.303999 0.500000
O O14 0.328887 0.381454 0.000000
#
# Coordination Sequence:
#
# PCOD8285089 Si02
#       6
#    32  16  16  32  16  32
#     4  11  19  36  57  87 118 150 182 227 289 342
#     4   9  22  39  59  83 110 148 197 248 282 315
#     4  11  20  32  54  86 124 150 180 221 274 353
#     4   9  20  36  56  85 118 149 185 231 281 336
#     4  11  20  37  60  88 118 141 187 239 286 355
#     4  10  20  39  60  80 111 154 196 237 277 331
#
# _framework density 20.447414999999999
#
# number of rings (size 3 to 8) (size 9 to 14) (size 15 to 20)
#    0.000    1.889    3.333    0.667    0.000    3.111 
#    0.000    7.222    0.000    6.000    0.000    0.000 
#    0.000    0.000    0.000    0.000    0.000    0.000 
#
# Total GULP energy -446163.105162 kJ/mol
# GULP energy per Si atom -12393.419588 kJ/mol
# Density = 2.040088 g / cm^3
# Si number density = 20.447415 Si / 1000 Ang^3
#
#
#
# Elastic Constant Matrix: (Units=GPa)
#
#
# Indices 1 2 3 4 5 6 
#
# 1 121.4370 69.7062 20.5316 0.0000 0.0000 0.0000
# 2 69.7062 151.7603 50.7537 0.0000 0.0000 0.0000
# 3 20.5316 50.7537 89.4204 0.0000 0.0000 0.0000
# 4 0.0000 0.0000 0.0000 24.4597 0.0000 0.0000
# 5 0.0000 0.0000 0.0000 0.0000 -2.2911 0.0000
# 6 0.0000 0.0000 0.0000 0.0000 0.0000 28.3049
#
#
#
# Elastic Compliance Matrix: (Units=1/GPa)
#
#
# Indices 1 2 3 4 5 6 
#
# 1 0.011197 -0.005286 0.000430 0.000000 0.000000 0.000000
# 2 -0.005286 0.010629 -0.004819 0.000000 0.000000 0.000000
# 3 0.000430 -0.004819 0.013820 0.000000 0.000000 0.000000
# 4 0.000000 0.000000 0.000000 0.040884 0.000000 0.000000
# 5 0.000000 0.000000 0.000000 0.000000 -0.436469 0.000000
# 6 0.000000 0.000000 0.000000 0.000000 0.000000 0.035330
#
#
# Mechanical properties :
#
#
# Convention : Reuss Voigt Hill
#
# Bulk Modulus (GPa) = 61.37362 71.62231 66.49797
# Shear Modulus (GPa) = -16.67627 24.86979 4.09676
#
# Velocity S-wave (km/s) = -2.85891 3.49130 1.41701
# Velocity P-wave (km/s) = 4.37980 7.16630 5.93879
#
# Compressibility (1/GPa) = 0.01629365
#
# Stress axis : x y z
#
# Youngs Moduli (GPa) = 89.31299 94.08042 72.36026
#
# Poissons Ratio (x) = 0.49736 -0.03109
# Poissons Ratio (y) = 0.47215 0.34872
# Poissons Ratio (z) = -0.03838 0.45339
#
# Static dielectric constant tensor:
#      x y z
#    x 3.846020 0.000000 0.000000 
#    y 0.000000 3.888880 0.000000 
#    z 0.000000 0.000000 3.823220 
# 
# 
# High freq. dielectric constant tensor:
#      x y z
#    x 1.797500 0.000000 0.000000 
#    y 0.000000 1.789600 0.000000 
#    z 0.000000 0.000000 1.796250 
# 
# From -- ./inp_files/21814.got.cif
#   From: 2010.03.12/outbox.cif.g09.slc.cpg/sg69_11_cif.got.tgz:21814.got - 2010.04.10 23:52:46.
