data_PCOD8285231
_publ_section_title
;
Structure prediction by ZEFSAII (Michael W. Deem and Ramdas Pophale) SiO2 
 PCOD8285231
Probable space group: F M M M
;
_chemical_formula_sum "Si O2"
_cell_formula_units_Z 160
_cell_length_a 17.149469
_cell_length_b 21.941556
_cell_length_c 19.211899
_cell_angle_alpha 90.000000
_cell_angle_beta 90.000000
_cell_angle_gamma 90.000000
_cell_volume 7229.169289
_symmetry_space_group_name_H-M "F M M M"
_symmetry_group_IT_number 69
_symmetry_cell_setting 'orthorhombic'
loop_
_space_group_symop_operation_xyz
x,y,z
-x,-y,z
x,-y,-z
-x,y,-z
-x,-y,-z
x,y,-z
-x,y,z
x,-y,z
x,1/2+y,1/2+z
-x,1/2-y,1/2+z
x,1/2-y,1/2-z
-x,1/2+y,1/2-z
-x,1/2-y,1/2-z
x,1/2+y,1/2-z
-x,1/2+y,1/2+z
x,1/2-y,1/2+z
1/2+x,y,1/2+z
1/2-x,-y,1/2+z
1/2+x,-y,1/2-z
1/2-x,y,1/2-z
1/2-x,-y,1/2-z
1/2+x,y,1/2-z
1/2-x,y,1/2+z
1/2+x,-y,1/2+z
1/2+x,1/2+y,z
1/2-x,1/2-y,z
1/2+x,1/2-y,-z
1/2-x,1/2+y,-z
1/2-x,1/2-y,-z
1/2+x,1/2+y,-z
1/2-x,1/2+y,z
1/2+x,1/2-y,z
loop_
_atom_site_type_symbol
_atom_site_label
_atom_site_fract_x
_atom_site_fract_y
_atom_site_fract_z
Si Si1 0.263179 0.070038 0.422942
Si Si2 0.091750 0.310284 0.791410
Si Si3 0.159151 0.261929 0.078380
Si Si4 0.585593 0.634039 0.918778
Si Si5 0.329858 0.431880 0.709233
O O1 0.247822 0.100786 0.500000
O O2 0.343530 0.094512 0.387651
O O3 0.190502 0.081779 0.372058
O O4 0.277767 0.000000 0.434439
O O5 0.123171 0.250000 0.750000
O O6 0.129665 0.312318 0.867961
O O7 0.117101 0.376457 0.759826
O O8 0.000000 0.308011 0.795260
O O9 0.250000 0.250000 0.091111
O O10 0.106117 0.203816 0.095334
O O11 0.144769 0.284890 0.000000
O O12 0.500000 0.620540 0.884534
O O13 0.580292 0.619650 0.000000
O O14 0.369200 0.500000 0.715694
O O15 0.250000 0.433216 0.750000
#
# Coordination Sequence:
#
# PCOD8285231 Si02
#       5
#    32  32  32  32  32
#     4   9  18  34  57  86 117 152 203 256 298 357
#     4  11  26  42  62  95 128 163 207 258 314 368
#     4  10  21  37  60  89 121 161 204 250 310 370
#     4   9  17  29  48  78 117 155 189 235 297 358
#     4  10  23  43  65  88 119 163 207 250 309 371
#
# _framework density 22.132556999999998
#
# number of rings (size 3 to 8) (size 9 to 14) (size 15 to 20)
#    0.000    2.200    0.000    1.800    5.600    4.400 
#    0.000    2.000    0.000    3.600    0.000    4.200 
#    0.000    0.000    0.000    0.000    0.000    0.000 
#
# Total GULP energy -495559.638281 kJ/mol
# GULP energy per Si atom -12388.990957 kJ/mol
# Density = 2.208218 g / cm^3
# Si number density = 22.132557 Si / 1000 Ang^3
#
#
#
# Elastic Constant Matrix: (Units=GPa)
#
#
# Indices 1 2 3 4 5 6 
#
# 1 55.6729 46.8867 9.4089 0.0000 0.0000 0.0000
# 2 46.8867 140.5029 29.3296 0.0000 0.0000 0.0000
# 3 9.4089 29.3296 63.3531 0.0000 0.0000 0.0000
# 4 0.0000 0.0000 0.0000 23.1309 0.0000 0.0000
# 5 0.0000 0.0000 0.0000 0.0000 0.0177 0.0000
# 6 0.0000 0.0000 0.0000 0.0000 0.0000 41.1203
#
#
#
# Elastic Compliance Matrix: (Units=1/GPa)
#
#
# Indices 1 2 3 4 5 6 
#
# 1 0.024985 -0.008372 0.000165 0.000000 0.000000 0.000000
# 2 -0.008372 0.010684 -0.003703 0.000000 0.000000 0.000000
# 3 0.000165 -0.003703 0.017474 0.000000 0.000000 0.000000
# 4 0.000000 0.000000 0.000000 0.043232 0.000000 0.000000
# 5 0.000000 0.000000 0.000000 0.000000 56.605980 0.000000
# 6 0.000000 0.000000 0.000000 0.000000 0.000000 0.024319
#
#
# Mechanical properties :
#
#
# Convention : Reuss Voigt Hill
#
# Bulk Modulus (GPa) = 34.10190 47.86437 40.98314
# Shear Modulus (GPa) = 0.08809 24.44735 12.26772
#
# Velocity S-wave (km/s) = 0.19972 3.32714 2.35688
# Velocity P-wave (km/s) = 3.93633 6.03597 5.09547
#
# Compressibility (1/GPa) = 0.02932388
#
# Stress axis : x y z
#
# Youngs Moduli (GPa) = 40.02396 93.59707 57.22708
#
# Poissons Ratio (x) = 0.78361 -0.00946
# Poissons Ratio (y) = 0.33509 0.21190
# Poissons Ratio (z) = -0.00661 0.34658
#
# Static dielectric constant tensor:
#      x y z
#    x 3.753460 0.000000 0.000000 
#    y 0.000000 4.193750 0.000000 
#    z 0.000000 0.000000 4.340360 
# 
# 
# High freq. dielectric constant tensor:
#      x y z
#    x 1.848200 0.000000 0.000000 
#    y 0.000000 1.874330 0.000000 
#    z 0.000000 0.000000 1.873550 
# 
# From -- ./inp_files/24603.got.cif
#   From: 2010.03.12/outbox.cif.g09.slc.cpg/sg69_13_cif.got.tgz:24603.got - 2010.04.10 23:52:46.
