data_PCOD8285620
_publ_section_title
;
Structure prediction by ZEFSAII (Michael W. Deem and Ramdas Pophale) SiO2 
 PCOD8285620
Probable space group: F M M M
;
_chemical_formula_sum "Si O2"
_cell_formula_units_Z 136
_cell_length_a 17.727199
_cell_length_b 24.266062
_cell_length_c 15.303045
_cell_angle_alpha 90.000000
_cell_angle_beta 90.000000
_cell_angle_gamma 90.000000
_cell_volume 6582.900309
_symmetry_space_group_name_H-M "F M M M"
_symmetry_group_IT_number 69
_symmetry_cell_setting 'orthorhombic'
loop_
_space_group_symop_operation_xyz
x,y,z
-x,-y,z
x,-y,-z
-x,y,-z
-x,-y,-z
x,y,-z
-x,y,z
x,-y,z
x,1/2+y,1/2+z
-x,1/2-y,1/2+z
x,1/2-y,1/2-z
-x,1/2+y,1/2-z
-x,1/2-y,1/2-z
x,1/2+y,1/2-z
-x,1/2+y,1/2+z
x,1/2-y,1/2+z
1/2+x,y,1/2+z
1/2-x,-y,1/2+z
1/2+x,-y,1/2-z
1/2-x,y,1/2-z
1/2-x,-y,1/2-z
1/2+x,y,1/2-z
1/2-x,y,1/2+z
1/2+x,-y,1/2+z
1/2+x,1/2+y,z
1/2-x,1/2-y,z
1/2+x,1/2-y,-z
1/2-x,1/2+y,-z
1/2-x,1/2-y,-z
1/2+x,1/2+y,-z
1/2-x,1/2+y,z
1/2+x,1/2-y,z
loop_
_atom_site_type_symbol
_atom_site_label
_atom_site_fract_x
_atom_site_fract_y
_atom_site_fract_z
Si Si1 0.911295 0.803944 0.000000
Si Si2 0.412216 0.616582 0.846338
Si Si3 0.250000 0.750000 0.250000
Si Si4 0.911100 0.317849 0.000000
Si Si5 0.162998 0.849158 0.672817
Si Si6 0.271441 0.062076 0.601246
O O1 0.885932 0.834943 0.087888
O O2 0.875046 0.743365 0.000000
O O3 0.000000 0.798369 0.000000
O O4 0.500000 0.600634 0.857180
O O5 0.396091 0.636500 0.748637
O O6 0.360174 0.564722 0.872851
O O7 0.199207 0.789227 0.311155
O O8 0.884250 0.350545 0.915490
O O9 0.000000 0.315559 0.000000
O O10 0.227889 0.895452 0.664365
O O11 0.259586 0.077925 0.500000
O O12 0.242854 0.000000 0.619008
#
# Coordination Sequence:
#
# PCOD8285620 Si02
#       6
#    16  32   8  16  32  32
#     4   9  20  37  59  90 130 166 203 260 325 374
#     4  11  22  41  66  95 127 165 215 269 324 382
#     4  12  24  38  68 104 124 170 226 256 324 388
#     4  11  24  40  62  93 132 179 215 261 325 381
#     4  12  24  41  65  96 134 169 216 266 313 393
#     4  11  24  44  69  94 126 173 220 265 322 383
#
# _framework density 20.659587999999999
#
# number of rings (size 3 to 8) (size 9 to 14) (size 15 to 20)
#    0.000    0.941    4.706    2.118    0.000    2.824 
#    0.000    5.882    0.000    2.824    0.000    0.000 
#    0.000    0.000    0.000    0.000    0.000    0.000 
#
# Total GULP energy -421647.755236 kJ/mol
# GULP energy per Si atom -12401.404566 kJ/mol
# Density = 2.061257 g / cm^3
# Si number density = 20.659588 Si / 1000 Ang^3
#
#
#
# Elastic Constant Matrix: (Units=GPa)
#
#
# Indices 1 2 3 4 5 6 
#
# 1 91.4526 37.3300 34.1453 0.0000 0.0000 0.0000
# 2 37.3300 103.3181 37.7333 0.0000 0.0000 0.0000
# 3 34.1453 37.7333 144.5592 0.0000 0.0000 0.0000
# 4 0.0000 0.0000 0.0000 32.6001 0.0000 0.0000
# 5 0.0000 0.0000 0.0000 0.0000 35.0648 0.0000
# 6 0.0000 0.0000 0.0000 0.0000 0.0000 17.7871
#
#
#
# Elastic Compliance Matrix: (Units=1/GPa)
#
#
# Indices 1 2 3 4 5 6 
#
# 1 0.013378 -0.004067 -0.002098 0.000000 0.000000 0.000000
# 2 -0.004067 0.011935 -0.002155 0.000000 0.000000 0.000000
# 3 -0.002098 -0.002155 0.007976 0.000000 0.000000 0.000000
# 4 0.000000 0.000000 0.000000 0.030675 0.000000 0.000000
# 5 0.000000 0.000000 0.000000 0.000000 0.028519 0.000000
# 6 0.000000 0.000000 0.000000 0.000000 0.000000 0.056220
#
#
# Mechanical properties :
#
#
# Convention : Reuss Voigt Hill
#
# Bulk Modulus (GPa) = 60.06532 61.97190 61.01861
# Shear Modulus (GPa) = 29.25799 32.43182 30.84491
#
# Velocity S-wave (km/s) = 3.76732 3.96639 3.86814
# Velocity P-wave (km/s) = 6.93257 7.14410 7.03913
#
# Compressibility (1/GPa) = 0.01664854
#
# Stress axis : x y z
#
# Youngs Moduli (GPa) = 74.74767 83.78455 125.38198
#
# Poissons Ratio (x) = 0.34079 0.26309
# Poissons Ratio (y) = 0.30403 0.27016
# Poissons Ratio (z) = 0.15684 0.18053
#
# Static dielectric constant tensor:
#      x y z
#    x 3.583730 0.000000 0.000000 
#    y 0.000000 3.663020 0.000000 
#    z 0.000000 0.000000 3.840540 
# 
# 
# High freq. dielectric constant tensor:
#      x y z
#    x 1.801280 0.000000 0.000000 
#    y 0.000000 1.793610 0.000000 
#    z 0.000000 0.000000 1.829350 
# 
# From -- ./inp_files/17577.got.cif
#   From: 2010.03.12/outbox.cif.g09.slc.cpg/sg69_9_cif.got.tgz:17577.got - 2010.04.10 23:52:46.
