data_PCOD8285570
_publ_section_title
;
Structure prediction by ZEFSAII (Michael W. Deem and Ramdas Pophale) SiO2 
 PCOD8285570
Probable space group: F M M M
;
_chemical_formula_sum "Si O2"
_cell_formula_units_Z 144
_cell_length_a 23.285386
_cell_length_b 17.900409
_cell_length_c 17.133068
_cell_angle_alpha 90.000000
_cell_angle_beta 90.000000
_cell_angle_gamma 90.000000
_cell_volume 7141.369992
_symmetry_space_group_name_H-M "F M M M"
_symmetry_group_IT_number 69
_symmetry_cell_setting 'orthorhombic'
loop_
_space_group_symop_operation_xyz
x,y,z
-x,-y,z
x,-y,-z
-x,y,-z
-x,-y,-z
x,y,-z
-x,y,z
x,-y,z
x,1/2+y,1/2+z
-x,1/2-y,1/2+z
x,1/2-y,1/2-z
-x,1/2+y,1/2-z
-x,1/2-y,1/2-z
x,1/2+y,1/2-z
-x,1/2+y,1/2+z
x,1/2-y,1/2+z
1/2+x,y,1/2+z
1/2-x,-y,1/2+z
1/2+x,-y,1/2-z
1/2-x,y,1/2-z
1/2-x,-y,1/2-z
1/2+x,y,1/2-z
1/2-x,y,1/2+z
1/2+x,-y,1/2+z
1/2+x,1/2+y,z
1/2-x,1/2-y,z
1/2+x,1/2-y,-z
1/2-x,1/2+y,-z
1/2-x,1/2-y,-z
1/2+x,1/2+y,-z
1/2-x,1/2+y,z
1/2+x,1/2-y,z
loop_
_atom_site_type_symbol
_atom_site_label
_atom_site_fract_x
_atom_site_fract_y
_atom_site_fract_z
Si Si1 0.936352 0.334484 0.777735
Si Si2 0.743687 0.085605 0.161094
Si Si3 0.567600 0.084785 0.500000
Si Si4 0.138386 0.145358 0.863299
Si Si5 0.146378 0.688032 0.907692
O O1 0.942387 0.250000 0.750000
O O2 0.890373 0.373679 0.720421
O O3 0.911547 0.341527 0.865537
O O4 0.000000 0.371916 0.775666
O O5 0.750000 0.114513 0.250000
O O6 0.806650 0.092920 0.122755
O O7 0.699689 0.135183 0.112251
O O8 0.723025 0.000000 0.157451
O O9 0.500000 0.089208 0.500000
O O10 0.589350 0.128351 0.425045
O O11 0.589782 0.000000 0.500000
O O12 0.160005 0.230330 0.872975
O O13 0.135914 0.689590 0.000000
#
# Coordination Sequence:
#
# PCOD8285570 Si02
#       5
#    32  32  16  32  32
#     4   9  19  36  60  89 121 158 203 253 305 365
#     4  11  24  41  63  88 120 161 206 256 316 379
#     4  11  24  40  61  96 137 167 199 252 312 372
#     4  11  21  40  64  90 123 164 208 252 312 372
#     4  11  23  39  61  94 125 161 206 260 312 372
#
# _framework density 20.164197999999999
#
# number of rings (size 3 to 8) (size 9 to 14) (size 15 to 20)
#    0.000    1.444    3.333    2.000    1.556    3.556 
#    0.000    0.000    0.000    2.000    0.000    1.556 
#    0.000    0.000    0.000    0.000    0.000    0.000 
#
# Total GULP energy -446429.162801 kJ/mol
# GULP energy per Si atom -12400.810078 kJ/mol
# Density = 2.011830 g / cm^3
# Si number density = 20.164198 Si / 1000 Ang^3
#
#
#
# Elastic Constant Matrix: (Units=GPa)
#
#
# Indices 1 2 3 4 5 6 
#
# 1 133.5107 30.5016 46.0432 0.0000 0.0000 0.0000
# 2 30.5016 68.5368 16.2879 0.0000 0.0000 0.0000
# 3 46.0432 16.2879 134.5515 0.0000 0.0000 0.0000
# 4 0.0000 0.0000 0.0000 13.8060 0.0000 0.0000
# 5 0.0000 0.0000 0.0000 0.0000 31.8826 0.0000
# 6 0.0000 0.0000 0.0000 0.0000 0.0000 18.3785
#
#
#
# Elastic Compliance Matrix: (Units=1/GPa)
#
#
# Indices 1 2 3 4 5 6 
#
# 1 0.009223 -0.003454 -0.002738 0.000000 0.000000 0.000000
# 2 -0.003454 0.016316 -0.000793 0.000000 0.000000 0.000000
# 3 -0.002738 -0.000793 0.008465 0.000000 0.000000 0.000000
# 4 0.000000 0.000000 0.000000 0.072433 0.000000 0.000000
# 5 0.000000 0.000000 0.000000 0.000000 0.031365 0.000000
# 6 0.000000 0.000000 0.000000 0.000000 0.000000 0.054411
#
#
# Mechanical properties :
#
#
# Convention : Reuss Voigt Hill
#
# Bulk Modulus (GPa) = 49.91465 58.02937 53.97201
# Shear Modulus (GPa) = 23.48931 29.06450 26.27691
#
# Velocity S-wave (km/s) = 3.41677 3.80068 3.61383
# Velocity P-wave (km/s) = 6.35402 6.93550 6.65112
#
# Compressibility (1/GPa) = 0.02003420
#
# Stress axis : x y z
#
# Youngs Moduli (GPa) = 108.41960 61.28804 118.13227
#
# Poissons Ratio (x) = 0.21169 0.32346
# Poissons Ratio (y) = 0.37449 0.09370
# Poissons Ratio (z) = 0.29686 0.04861
#
# Static dielectric constant tensor:
#      x y z
#    x 3.786500 0.000000 0.000000 
#    y 0.000000 3.480880 0.000000 
#    z 0.000000 0.000000 3.745180 
# 
# 
# High freq. dielectric constant tensor:
#      x y z
#    x 1.798120 0.000000 0.000000 
#    y 0.000000 1.763230 0.000000 
#    z 0.000000 0.000000 1.789840 
# 
# From -- ./inp_files/22847.got.cif
#   From: 2010.03.12/outbox.cif.g09.slc.cpg/sg69_12_cif.got.tgz:22847.got - 2010.04.10 23:52:46.
