data_PCOD8285727
_publ_section_title
;
Structure prediction by ZEFSAII (Michael W. Deem and Ramdas Pophale) SiO2 
 PCOD8285727
Probable space group: F D D D
;
_chemical_formula_sum "Si O2"
_cell_formula_units_Z 144
_cell_length_a 26.813688
_cell_length_b 24.939894
_cell_length_c 11.545643
_cell_angle_alpha 90.000000
_cell_angle_beta 90.000000
_cell_angle_gamma 90.000000
_cell_volume 7720.924037
_symmetry_space_group_name_H-M "F D D D"
_symmetry_group_IT_number 70
_space_group.IT_coordinate_system_code '2'
_symmetry_cell_setting 'orthorhombic'
loop_
_space_group_symop_operation_xyz
x,y,z
1/4-x,1/4-y,z
x,1/4-y,1/4-z
1/4-x,y,1/4-z
-x,-y,-z
3/4+x,3/4+y,-z
-x,3/4+y,3/4+z
3/4+x,-y,3/4+z
x,1/2+y,1/2+z
1/4-x,3/4-y,1/2+z
x,3/4-y,3/4-z
1/4-x,1/2+y,3/4-z
-x,1/2-y,1/2-z
3/4+x,1/4+y,1/2-z
-x,1/4+y,1/4+z
3/4+x,1/2-y,1/4+z
1/2+x,y,1/2+z
3/4-x,1/4-y,1/2+z
1/2+x,1/4-y,3/4-z
3/4-x,y,3/4-z
1/2-x,-y,1/2-z
1/4+x,3/4+y,1/2-z
1/2-x,3/4+y,1/4+z
1/4+x,-y,1/4+z
1/2+x,1/2+y,z
3/4-x,3/4-y,z
1/2+x,3/4-y,1/4-z
3/4-x,1/2+y,1/4-z
1/2-x,1/2-y,-z
1/4+x,1/4+y,-z
1/2-x,1/4+y,3/4+z
1/4+x,1/2-y,3/4+z
loop_
_atom_site_type_symbol
_atom_site_label
_atom_site_fract_x
_atom_site_fract_y
_atom_site_fract_z
Si Si1 0.081924 0.785717 0.821589
Si Si2 0.752752 0.923086 0.962159
Si Si3 0.611780 0.683115 0.992435
Si Si4 0.156513 0.875000 0.875000
Si Si5 0.430122 0.115511 0.372493
O O1 0.104956 0.726723 0.823443
O O2 0.118737 0.824992 0.892349
O O3 0.073172 0.808189 0.690276
O O4 0.028972 0.783260 0.889257
O O5 0.767283 0.875000 0.875000
O O6 0.803019 0.947481 0.016823
O O7 0.720755 0.903216 0.070424
O O8 0.625000 0.625000 0.937574
O O9 0.625000 0.683748 0.125000
O O10 0.192231 0.861598 0.765085
O O11 0.375000 0.141927 0.375000
#
# Coordination Sequence:
#
# PCOD8285727 Si02
#       5
#    32  32  32  16  32
#     4  10  19  34  58  85 115 144 188 237 281 341
#     4  10  18  37  57  82 115 148 183 231 294 329
#     4  11  22  36  51  85 125 149 179 231 293 349
#     4  10  16  32  58  84 110 132 200 242 264 318
#     4   9  16  32  58  83 108 141 188 238 274 325
#
# _framework density 18.650617
#
# number of rings (size 3 to 8) (size 9 to 14) (size 15 to 20)
#    0.000    2.000    7.778    2.000    0.000    0.889 
#    8.000    1.111    0.000    0.000    0.000    0.000 
#    0.000    0.000    0.000    0.000    0.000    0.000 
#
# Total GULP energy -446054.952523 kJ/mol
# GULP energy per Si atom -12390.415348 kJ/mol
# Density = 1.860817 g / cm^3
# Si number density = 18.650617 Si / 1000 Ang^3
#
#
#
# Elastic Constant Matrix: (Units=GPa)
#
#
# Indices 1 2 3 4 5 6 
#
# 1 133.2395 52.3678 39.9383 0.0000 0.0000 0.0000
# 2 52.3678 122.2071 22.2728 0.0000 0.0000 0.0000
# 3 39.9383 22.2728 91.8260 -0.0001 0.0001 0.0001
# 4 0.0000 0.0000 -0.0001 9.6191 0.0000 0.0000
# 5 0.0000 0.0000 0.0001 0.0000 12.9848 0.0000
# 6 0.0000 0.0000 0.0001 0.0000 0.0000 25.0027
#
#
#
# Elastic Compliance Matrix: (Units=1/GPa)
#
#
# Indices 1 2 3 4 5 6 
#
# 1 0.009973 -0.003644 -0.003454 0.000000 0.000000 0.000000
# 2 -0.003644 0.009893 -0.000815 0.000000 0.000000 0.000000
# 3 -0.003454 -0.000815 0.012590 0.000000 0.000000 0.000000
# 4 0.000000 0.000000 0.000000 0.103960 0.000000 0.000000
# 5 0.000000 0.000000 0.000000 0.000000 0.077013 0.000000
# 6 0.000000 0.000000 0.000000 0.000000 0.000000 0.039996
#
#
# Mechanical properties :
#
#
# Convention : Reuss Voigt Hill
#
# Bulk Modulus (GPa) = 60.12921 64.04781 62.08851
# Shear Modulus (GPa) = 18.19556 25.03424 21.61490
#
# Velocity S-wave (km/s) = 3.12685 3.66768 3.40801
# Velocity P-wave (km/s) = 6.73395 7.23542 6.98918
#
# Compressibility (1/GPa) = 0.01663085
#
# Stress axis : x y z
#
# Youngs Moduli (GPa) = 100.27344 101.08331 79.42911
#
# Poissons Ratio (x) = 0.36835 0.27432
# Poissons Ratio (y) = 0.36540 0.06470
# Poissons Ratio (z) = 0.34631 0.08234
#
# Static dielectric constant tensor:
#      x y z
#    x 3.628850 0.000000 0.000000 
#    y 0.000000 3.560470 0.000000 
#    z 0.000000 0.000000 4.639850 
# 
# 
# High freq. dielectric constant tensor:
#      x y z
#    x 1.724650 0.000000 0.000000 
#    y 0.000000 1.694640 0.000000 
#    z 0.000000 0.000000 1.698410 
# 
# From -- ./inp_files/20641.got.cif
#   From: 2010.03.12/outbox.cif.g09.slc.cpg/sg70_11_cif.got.tgz:20641.got - 2010.04.16 13:46:32.
