data_PCOD8285738
_publ_section_title
;
Structure prediction by ZEFSAII (Michael W. Deem and Ramdas Pophale) SiO2 
 PCOD8285738
Probable space group: F D D D
;
_chemical_formula_sum "Si O2"
_cell_formula_units_Z 208
_cell_length_a 20.965008
_cell_length_b 20.469835
_cell_length_c 31.509140
_cell_angle_alpha 90.000000
_cell_angle_beta 90.000000
_cell_angle_gamma 90.000000
_cell_volume 13522.155451
_symmetry_space_group_name_H-M "F D D D"
_symmetry_group_IT_number 70
_space_group.IT_coordinate_system_code '2'
_symmetry_cell_setting 'orthorhombic'
loop_
_space_group_symop_operation_xyz
x,y,z
1/4-x,1/4-y,z
x,1/4-y,1/4-z
1/4-x,y,1/4-z
-x,-y,-z
3/4+x,3/4+y,-z
-x,3/4+y,3/4+z
3/4+x,-y,3/4+z
x,1/2+y,1/2+z
1/4-x,3/4-y,1/2+z
x,3/4-y,3/4-z
1/4-x,1/2+y,3/4-z
-x,1/2-y,1/2-z
3/4+x,1/4+y,1/2-z
-x,1/4+y,1/4+z
3/4+x,1/2-y,1/4+z
1/2+x,y,1/2+z
3/4-x,1/4-y,1/2+z
1/2+x,1/4-y,3/4-z
3/4-x,y,3/4-z
1/2-x,-y,1/2-z
1/4+x,3/4+y,1/2-z
1/2-x,3/4+y,1/4+z
1/4+x,-y,1/4+z
1/2+x,1/2+y,z
3/4-x,3/4-y,z
1/2+x,3/4-y,1/4-z
3/4-x,1/2+y,1/4-z
1/2-x,1/2-y,-z
1/4+x,1/4+y,-z
1/2-x,1/4+y,3/4+z
1/4+x,1/2-y,3/4+z
loop_
_atom_site_type_symbol
_atom_site_label
_atom_site_fract_x
_atom_site_fract_y
_atom_site_fract_z
Si Si1 0.150786 0.875000 0.375000
Si Si2 0.991322 0.246054 0.113016
Si Si3 0.836763 0.310517 0.425967
Si Si4 0.368644 0.180729 0.710454
Si Si5 0.549677 0.753408 0.027187
Si Si6 0.074492 0.567157 0.433967
Si Si7 0.505464 0.367896 0.757366
O O1 0.196253 0.932964 0.391117
O O2 0.105569 0.897024 0.335461
O O3 0.955416 0.303241 0.138015
O O4 0.059596 0.225695 0.133999
O O5 0.005886 0.275711 0.066643
O O6 0.875000 0.375000 0.412293
O O7 0.879868 0.264575 0.455521
O O8 0.774398 0.330912 0.452290
O O9 0.307014 0.189004 0.741572
O O10 0.391964 0.254162 0.703072
O O11 0.418969 0.137308 0.736671
O O12 0.516669 0.692310 0.004596
O O13 0.125000 0.625000 0.430687
O O14 0.015144 0.584355 0.463799
#
# Coordination Sequence:
#
# PCOD8285738 Si02
#       7
#    16  32  32  32  32  32  32
#     4  10  18  30  45  62  86 124 151 196 218 264
#     4  11  20  30  41  63  93 121 166 195 222 265
#     4  10  17  25  39  60  92 130 162 183 214 258
#     4  11  19  30  45  61  92 122 163 191 229 268
#     4  11  20  28  41  64  92 124 156 189 232 271
#     4  11  19  30  44  63  88 129 161 196 229 269
#     4  11  17  28  41  65  91 129 163 190 212 273
#
# _framework density 15.382161999999999
#
# number of rings (size 3 to 8) (size 9 to 14) (size 15 to 20)
#    0.000    1.231    7.692    3.231    0.000    1.846 
#    0.000    0.000    0.000    0.000    0.000    4.308 
#    0.000    0.000    0.000    0.000    0.000    0.000 
#
# Total GULP energy -644638.547038 kJ/mol
# GULP energy per Si atom -12396.895135 kJ/mol
# Density = 1.534715 g / cm^3
# Si number density = 15.382162 Si / 1000 Ang^3
#
#
#
# Elastic Constant Matrix: (Units=GPa)
#
#
# Indices 1 2 3 4 5 6 
#
# 1 25.8604 17.6840 29.6531 0.0000 0.0000 0.0000
# 2 17.6840 43.1110 39.6136 0.0000 0.0000 0.0000
# 3 29.6531 39.6136 121.0722 0.0000 0.0000 0.0000
# 4 0.0000 0.0000 0.0000 26.8296 0.0000 0.0000
# 5 0.0000 0.0000 0.0000 0.0000 18.2854 0.0000
# 6 0.0000 0.0000 0.0000 0.0000 0.0000 15.3997
#
#
#
# Elastic Compliance Matrix: (Units=1/GPa)
#
#
# Indices 1 2 3 4 5 6 
#
# 1 0.060663 -0.016060 -0.009603 0.000000 0.000000 0.000000
# 2 -0.016060 0.037419 -0.008310 0.000000 0.000000 0.000000
# 3 -0.009603 -0.008310 0.013330 0.000000 0.000000 0.000000
# 4 0.000000 0.000000 0.000000 0.037272 0.000000 0.000000
# 5 0.000000 0.000000 0.000000 0.000000 0.054688 0.000000
# 6 0.000000 0.000000 0.000000 0.000000 0.000000 0.064937
#
#
# Mechanical properties :
#
#
# Convention : Reuss Voigt Hill
#
# Bulk Modulus (GPa) = 23.00582 40.43833 31.72207
# Shear Modulus (GPa) = 14.25543 18.97580 16.61561
#
# Velocity S-wave (km/s) = 3.04756 3.51611 3.29019
# Velocity P-wave (km/s) = 5.23184 6.54448 5.92462
#
# Compressibility (1/GPa) = 0.04346727
#
# Stress axis : x y z
#
# Youngs Moduli (GPa) = 16.48462 26.72417 75.01649
#
# Poissons Ratio (x) = 0.42918 0.72038
# Poissons Ratio (y) = 0.26474 0.62338
# Poissons Ratio (z) = 0.15830 0.22207
#
# Static dielectric constant tensor:
#      x y z
#    x 2.717780 0.000000 0.000000 
#    y 0.000000 2.760820 0.000000 
#    z 0.000000 0.000000 3.188390 
# 
# 
# High freq. dielectric constant tensor:
#      x y z
#    x 1.546900 0.000000 0.000000 
#    y 0.000000 1.551880 0.000000 
#    z 0.000000 0.000000 1.602450 
# 
# From -- ./inp_files/46177.got.cif
#   From: 2010.03.12/outbox.cif.g09.slc.cpg/sg70_24_cif.got.tgz:46177.got - 2010.04.16 13:46:32.
