data_PCOD8285803
_publ_section_title
;
Structure prediction by ZEFSAII (Michael W. Deem and Ramdas Pophale) SiO2 
 PCOD8285803
Probable space group: F D D D
;
_chemical_formula_sum "Si O2"
_cell_formula_units_Z 160
_cell_length_a 24.986167
_cell_length_b 12.100426
_cell_length_c 26.276519
_cell_angle_alpha 90.000000
_cell_angle_beta 90.000000
_cell_angle_gamma 90.000000
_cell_volume 7944.528542
_symmetry_space_group_name_H-M "F D D D"
_symmetry_group_IT_number 70
_space_group.IT_coordinate_system_code '2'
_symmetry_cell_setting 'orthorhombic'
loop_
_space_group_symop_operation_xyz
x,y,z
1/4-x,1/4-y,z
x,1/4-y,1/4-z
1/4-x,y,1/4-z
-x,-y,-z
3/4+x,3/4+y,-z
-x,3/4+y,3/4+z
3/4+x,-y,3/4+z
x,1/2+y,1/2+z
1/4-x,3/4-y,1/2+z
x,3/4-y,3/4-z
1/4-x,1/2+y,3/4-z
-x,1/2-y,1/2-z
3/4+x,1/4+y,1/2-z
-x,1/4+y,1/4+z
3/4+x,1/2-y,1/4+z
1/2+x,y,1/2+z
3/4-x,1/4-y,1/2+z
1/2+x,1/4-y,3/4-z
3/4-x,y,3/4-z
1/2-x,-y,1/2-z
1/4+x,3/4+y,1/2-z
1/2-x,3/4+y,1/4+z
1/4+x,-y,1/4+z
1/2+x,1/2+y,z
3/4-x,3/4-y,z
1/2+x,3/4-y,1/4-z
3/4-x,1/2+y,1/4-z
1/2-x,1/2-y,-z
1/4+x,1/4+y,-z
1/2-x,1/4+y,3/4+z
1/4+x,1/2-y,3/4+z
loop_
_atom_site_type_symbol
_atom_site_label
_atom_site_fract_x
_atom_site_fract_y
_atom_site_fract_z
Si Si1 0.375000 0.875000 0.728105
Si Si2 0.937270 0.470521 0.645372
Si Si3 0.537164 0.343414 0.127618
Si Si4 0.629503 0.844790 0.707966
Si Si5 0.218201 0.875000 0.875000
Si Si6 0.130907 0.819631 0.438355
O O1 0.325314 0.872623 0.688173
O O2 0.380683 0.769589 0.763332
O O3 0.900497 0.462186 0.593576
O O4 0.924743 0.587014 0.672474
O O5 0.998305 0.449777 0.628910
O O6 0.580206 0.365159 0.171146
O O7 0.565174 0.339622 0.072615
O O8 0.505916 0.229239 0.136269
O O9 0.632692 0.942894 0.750371
O O10 0.179821 0.852228 0.826634
#
# Coordination Sequence:
#
# PCOD8285803 Si02
#       6
#    16  32  32  32  16  32
#     4  10  18  35  56  78 108 141 170 224 280 318
#     4   9  18  34  56  73 101 142 182 219 263 307
#     4  11  21  34  53  82 114 145 173 214 268 323
#     4  10  22  34  51  81 116 141 175 218 266 322
#     4  10  20  33  56  82 108 137 178 218 268 332
#     4   9  20  37  54  78 103 137 188 230 255 309
#
# _framework density 20.139647
#
# number of rings (size 3 to 8) (size 9 to 14) (size 15 to 20)
#    0.000    2.400    0.000    4.800    0.000    8.800 
#    0.000    0.000    0.000   14.400    0.000    0.000 
#    0.000    0.000    0.000    0.000    0.000    0.000 
#
# Total GULP energy -495530.059626 kJ/mol
# GULP energy per Si atom -12388.251491 kJ/mol
# Density = 2.009381 g / cm^3
# Si number density = 20.139647 Si / 1000 Ang^3
#
#
#
# Elastic Constant Matrix: (Units=GPa)
#
#
# Indices 1 2 3 4 5 6 
#
# 1 122.3845 26.2466 50.0623 0.0000 0.0000 0.0000
# 2 26.2466 28.3757 15.7420 0.0000 0.0000 0.0000
# 3 50.0623 15.7420 154.0397 0.0000 0.0000 0.0000
# 4 0.0000 0.0000 0.0000 25.2379 0.0000 0.0000
# 5 0.0000 0.0000 0.0000 0.0000 23.6047 0.0000
# 6 0.0000 0.0000 0.0000 0.0000 0.0000 26.5197
#
#
#
# Elastic Compliance Matrix: (Units=1/GPa)
#
#
# Indices 1 2 3 4 5 6 
#
# 1 0.011181 -0.008827 -0.002732 0.000000 0.000000 0.000000
# 2 -0.008827 0.044328 -0.001661 0.000000 0.000000 0.000000
# 3 -0.002732 -0.001661 0.007549 0.000000 0.000000 0.000000
# 4 0.000000 0.000000 0.000000 0.039623 0.000000 0.000000
# 5 0.000000 0.000000 0.000000 0.000000 0.042364 0.000000
# 6 0.000000 0.000000 0.000000 0.000000 0.000000 0.037708
#
#
# Mechanical properties :
#
#
# Convention : Reuss Voigt Hill
#
# Bulk Modulus (GPa) = 27.30868 54.32241 40.81555
# Shear Modulus (GPa) = 22.58354 29.25574 25.91964
#
# Velocity S-wave (km/s) = 3.35228 3.81549 3.59136
# Velocity P-wave (km/s) = 5.34536 6.81484 6.12433
#
# Compressibility (1/GPa) = 0.03661839
#
# Stress axis : x y z
#
# Youngs Moduli (GPa) = 89.43354 22.55925 132.45982
#
# Poissons Ratio (x) = 0.19913 0.36186
# Poissons Ratio (y) = 0.78942 0.22006
# Poissons Ratio (z) = 0.24432 0.03748
#
# Static dielectric constant tensor:
#      x y z
#    x 3.630580 0.000000 0.000000 
#    y 0.000000 3.640360 0.000000 
#    z 0.000000 0.000000 4.118160 
# 
# 
# High freq. dielectric constant tensor:
#      x y z
#    x 1.779660 0.000000 0.000000 
#    y 0.000000 1.761520 0.000000 
#    z 0.000000 0.000000 1.796870 
# 
# From -- ./inp_files/61061.got.cif
#   From: 2010.03.12/outbox.cif.g09.slc.cpg/sg70_31_cif.got.tgz:61061.got - 2010.04.16 13:46:32.
