data_PCOD8285329
_publ_section_title
;
Structure prediction by ZEFSAII (Michael W. Deem and Ramdas Pophale) SiO2 
 PCOD8285329
Probable space group: F M M M
;
_chemical_formula_sum "Si O2"
_cell_formula_units_Z 104
_cell_length_a 28.168507
_cell_length_b 13.559285
_cell_length_c 14.306498
_cell_angle_alpha 90.000000
_cell_angle_beta 90.000000
_cell_angle_gamma 90.000000
_cell_volume 5464.292724
_symmetry_space_group_name_H-M "F M M M"
_symmetry_group_IT_number 69
_symmetry_cell_setting 'orthorhombic'
loop_
_space_group_symop_operation_xyz
x,y,z
-x,-y,z
x,-y,-z
-x,y,-z
-x,-y,-z
x,y,-z
-x,y,z
x,-y,z
x,1/2+y,1/2+z
-x,1/2-y,1/2+z
x,1/2-y,1/2-z
-x,1/2+y,1/2-z
-x,1/2-y,1/2-z
x,1/2+y,1/2-z
-x,1/2+y,1/2+z
x,1/2-y,1/2+z
1/2+x,y,1/2+z
1/2-x,-y,1/2+z
1/2+x,-y,1/2-z
1/2-x,y,1/2-z
1/2-x,-y,1/2-z
1/2+x,y,1/2-z
1/2-x,y,1/2+z
1/2+x,-y,1/2+z
1/2+x,1/2+y,z
1/2-x,1/2-y,z
1/2+x,1/2-y,-z
1/2-x,1/2+y,-z
1/2-x,1/2-y,-z
1/2+x,1/2+y,-z
1/2-x,1/2+y,z
1/2+x,1/2-y,z
loop_
_atom_site_type_symbol
_atom_site_label
_atom_site_fract_x
_atom_site_fract_y
_atom_site_fract_z
Si Si1 0.287549 0.662241 0.000000
Si Si2 0.444977 0.000000 0.608071
Si Si3 0.379884 0.292720 0.500000
Si Si4 0.553426 0.289856 0.147932
Si Si5 0.830097 0.000000 0.500000
Si Si6 0.754045 0.500000 0.636250
O O1 0.250000 0.750000 0.000000
O O2 0.280849 0.596743 0.905364
O O3 0.339337 0.709743 0.000000
O O4 0.423507 0.100269 0.650832
O O5 0.500000 0.000000 0.631508
O O6 0.432764 0.000000 0.500000
O O7 0.412832 0.281364 0.590103
O O8 0.361726 0.403353 0.500000
O O9 0.500000 0.292891 0.104034
O O10 0.550842 0.250000 0.250000
O O11 0.798871 0.000000 0.405795
O O12 0.750000 0.500000 0.750000
#
# Coordination Sequence:
#
# PCOD8285329 Si02
#       6
#    16  16  16  32   8  16
#     4  10  21  42  62  90 124 160 202 248 301 376
#     4   9  16  33  60  82 115 158 199 254 305 346
#     4  12  22  40  64  86 126 168 207 254 312 369
#     4  10  22  38  60  92 126 165 212 259 307 361
#     4  10  24  42  57  92 128 160 197 260 314 376
#     4  10  22  42  67  92 123 160 199 254 316 365
#
# _framework density 19.032654999999998
#
# number of rings (size 3 to 8) (size 9 to 14) (size 15 to 20)
#    0.000    2.000    4.615    0.462    0.000    6.769 
#    0.000    3.077    0.000    0.000    0.000    0.000 
#    0.000    0.000    0.000    0.000    0.000    0.000 
#
# Total GULP energy -322207.548912 kJ/mol
# GULP energy per Si atom -12392.598035 kJ/mol
# Density = 1.898934 g / cm^3
# Si number density = 19.032655 Si / 1000 Ang^3
#
#
#
# Elastic Constant Matrix: (Units=GPa)
#
#
# Indices 1 2 3 4 5 6 
#
# 1 107.4919 60.2578 44.7759 0.0000 0.0000 0.0000
# 2 60.2578 171.7490 64.1905 0.0000 0.0000 0.0000
# 3 44.7759 64.1905 132.4172 0.0000 0.0000 0.0000
# 4 0.0000 0.0000 0.0000 25.0862 0.0000 0.0000
# 5 0.0000 0.0000 0.0000 0.0000 18.8445 0.0000
# 6 0.0000 0.0000 0.0000 0.0000 0.0000 33.3662
#
#
#
# Elastic Compliance Matrix: (Units=1/GPa)
#
#
# Indices 1 2 3 4 5 6 
#
# 1 0.012228 -0.003352 -0.002510 0.000000 0.000000 0.000000
# 2 -0.003352 0.008030 -0.002759 0.000000 0.000000 0.000000
# 3 -0.002510 -0.002759 0.009738 0.000000 0.000000 0.000000
# 4 0.000000 0.000000 0.000000 0.039863 0.000000 0.000000
# 5 0.000000 0.000000 0.000000 0.000000 0.053066 0.000000
# 6 0.000000 0.000000 0.000000 0.000000 0.000000 0.029970
#
#
# Mechanical properties :
#
#
# Convention : Reuss Voigt Hill
#
# Bulk Modulus (GPa) = 78.40860 83.34517 80.87689
# Shear Modulus (GPa) = 28.67191 31.62164 30.14677
#
# Velocity S-wave (km/s) = 3.88552 4.08050 3.98420
# Velocity P-wave (km/s) = 7.83684 8.12935 7.98443
#
# Compressibility (1/GPa) = 0.01275370
#
# Stress axis : x y z
#
# Youngs Moduli (GPa) = 81.78274 124.53836 102.69067
#
# Poissons Ratio (x) = 0.41745 0.25773
# Poissons Ratio (y) = 0.27414 0.28332
# Poissons Ratio (z) = 0.20525 0.34360
#
# Static dielectric constant tensor:
#      x y z
#    x 3.583720 0.000000 0.000000 
#    y 0.000000 3.802030 0.000000 
#    z 0.000000 0.000000 3.302760 
# 
# 
# High freq. dielectric constant tensor:
#      x y z
#    x 1.733070 0.000000 0.000000 
#    y 0.000000 1.758480 0.000000 
#    z 0.000000 0.000000 1.726520 
# 
# From -- ./inp_files/13381.got.cif
#   From: 2010.03.12/outbox.cif.g09.slc.cpg/sg69_7_cif.got.tgz:13381.got - 2010.04.10 23:52:46.
