data_PCOD8285226
_publ_section_title
;
Structure prediction by ZEFSAII (Michael W. Deem and Ramdas Pophale) SiO2 
 PCOD8285226
Probable space group: F M M M
;
_chemical_formula_sum "Si O2"
_cell_formula_units_Z 160
_cell_length_a 19.742367
_cell_length_b 21.257965
_cell_length_c 19.662783
_cell_angle_alpha 90.000000
_cell_angle_beta 90.000000
_cell_angle_gamma 90.000000
_cell_volume 8252.126845
_symmetry_space_group_name_H-M "F M M M"
_symmetry_group_IT_number 69
_symmetry_cell_setting 'orthorhombic'
loop_
_space_group_symop_operation_xyz
x,y,z
-x,-y,z
x,-y,-z
-x,y,-z
-x,-y,-z
x,y,-z
-x,y,z
x,-y,z
x,1/2+y,1/2+z
-x,1/2-y,1/2+z
x,1/2-y,1/2-z
-x,1/2+y,1/2-z
-x,1/2-y,1/2-z
x,1/2+y,1/2-z
-x,1/2+y,1/2+z
x,1/2-y,1/2+z
1/2+x,y,1/2+z
1/2-x,-y,1/2+z
1/2+x,-y,1/2-z
1/2-x,y,1/2-z
1/2-x,-y,1/2-z
1/2+x,y,1/2-z
1/2-x,y,1/2+z
1/2+x,-y,1/2+z
1/2+x,1/2+y,z
1/2-x,1/2-y,z
1/2+x,1/2-y,-z
1/2-x,1/2+y,-z
1/2-x,1/2-y,-z
1/2+x,1/2+y,-z
1/2-x,1/2+y,z
1/2+x,1/2-y,z
loop_
_atom_site_type_symbol
_atom_site_label
_atom_site_fract_x
_atom_site_fract_y
_atom_site_fract_z
Si Si1 0.122361 0.863562 0.500000
Si Si2 0.866677 0.624602 0.393722
Si Si3 0.923373 0.927869 0.364725
Si Si4 0.581849 0.221836 0.500000
Si Si5 0.829389 0.428102 0.740290
Si Si6 0.500000 0.429702 0.072834
Si Si7 0.234693 0.572568 0.500000
O O1 0.085671 0.888287 0.567115
O O2 0.116684 0.789010 0.500000
O O3 0.200763 0.882551 0.500000
O O4 0.888157 0.688916 0.431505
O O5 0.842681 0.626751 0.315809
O O6 0.933918 0.583700 0.384556
O O7 0.809678 0.586308 0.433881
O O8 0.869824 0.906231 0.307539
O O9 0.000000 0.917854 0.337472
O O10 0.909706 0.000000 0.384087
O O11 0.500000 0.227050 0.500000
O O12 0.851809 0.500000 0.720145
O O13 0.750000 0.427631 0.750000
O O14 0.500000 0.500000 0.049684
O O15 0.500000 0.390275 0.000000
O O16 0.257926 0.500000 0.500000
#
# Coordination Sequence:
#
# PCOD8285226 Si02
#       7
#    16  32  32  16  32  16  16
#     4  12  24  40  63  80 116 165 208 260 300 346
#     4  11  21  36  59  89 127 161 193 244 298 370
#     4  10  21  37  59  88 113 145 202 262 311 358
#     4  11  23  42  61  89 121 162 210 249 293 359
#     4  10  21  37  58  89 127 159 189 241 313 376
#     4  11  18  30  54  90 123 156 196 244 301 362
#     4  11  21  35  59  92 120 154 202 250 312 372
#
# _framework density 19.388940999999999
#
# number of rings (size 3 to 8) (size 9 to 14) (size 15 to 20)
#    0.000    1.300    3.000    4.800    1.400    4.000 
#    0.000    1.000    0.000    3.600    0.000    0.000 
#    0.000    0.000    0.000    0.000    0.000    0.000 
#
# Total GULP energy -495710.783481 kJ/mol
# GULP energy per Si atom -12392.769587 kJ/mol
# Density = 1.934481 g / cm^3
# Si number density = 19.388941 Si / 1000 Ang^3
#
#
#
# Elastic Constant Matrix: (Units=GPa)
#
#
# Indices 1 2 3 4 5 6 
#
# 1 129.8650 46.1855 45.4683 0.0000 0.0000 0.0000
# 2 46.1855 111.1294 53.3539 0.0000 0.0000 0.0000
# 3 45.4683 53.3539 138.2998 0.0000 0.0000 0.0000
# 4 0.0000 0.0000 0.0000 -299.4582 0.0000 0.0000
# 5 0.0000 0.0000 0.0000 0.0000 24.7019 0.0000
# 6 0.0000 0.0000 0.0000 0.0000 0.0000 14.9742
#
#
#
# Elastic Compliance Matrix: (Units=1/GPa)
#
#
# Indices 1 2 3 4 5 6 
#
# 1 0.009447 -0.002989 -0.001953 0.000000 0.000000 0.000000
# 2 -0.002989 0.011990 -0.003643 0.000000 0.000000 0.000000
# 3 -0.001953 -0.003643 0.009278 0.000000 0.000000 0.000000
# 4 0.000000 0.000000 0.000000 -0.003339 0.000000 0.000000
# 5 0.000000 0.000000 0.000000 0.000000 0.040483 0.000000
# 6 0.000000 0.000000 0.000000 0.000000 0.000000 0.066782
#
#
# Mechanical properties :
#
#
# Convention : Reuss Voigt Hill
#
# Bulk Modulus (GPa) = 73.82288 74.36774 74.09531
# Shear Modulus (GPa) = 31.98499 -36.33734 -2.17617
#
# Velocity S-wave (km/s) = 4.06600 -4.33382 -1.06057
# Velocity P-wave (km/s) = 7.75890 3.66011 6.06617
#
# Compressibility (1/GPa) = 0.01354594
#
# Stress axis : x y z
#
# Youngs Moduli (GPa) = 105.85475 83.40623 107.78113
#
# Poissons Ratio (x) = 0.24926 0.21048
# Poissons Ratio (y) = 0.31635 0.39263
# Poissons Ratio (z) = 0.20672 0.30384
#
# Static dielectric constant tensor:
#      x y z
#    x 3.733490 0.000000 0.000000 
#    y 0.000000 3.331970 0.000000 
#    z 0.000000 0.000000 3.483470 
# 
# 
# High freq. dielectric constant tensor:
#      x y z
#    x 1.778170 0.000000 0.000000 
#    y 0.000000 1.723030 0.000000 
#    z 0.000000 0.000000 1.751880 
# 
# From -- ./inp_files/30877.got.cif
#   From: 2010.03.12/outbox.cif.g09.slc.cpg/sg69_16_cif.got.tgz:30877.got - 2010.04.10 23:52:46.
