data_PCOD8285312
_publ_section_title
;
Structure prediction by ZEFSAII (Michael W. Deem and Ramdas Pophale) SiO2 
 PCOD8285312
Probable space group: F M M M
;
_chemical_formula_sum "Si O2"
_cell_formula_units_Z 160
_cell_length_a 15.017253
_cell_length_b 28.079049
_cell_length_c 17.650544
_cell_angle_alpha 90.000000
_cell_angle_beta 90.000000
_cell_angle_gamma 90.000000
_cell_volume 7442.708116
_symmetry_space_group_name_H-M "F M M M"
_symmetry_group_IT_number 69
_symmetry_cell_setting 'orthorhombic'
loop_
_space_group_symop_operation_xyz
x,y,z
-x,-y,z
x,-y,-z
-x,y,-z
-x,-y,-z
x,y,-z
-x,y,z
x,-y,z
x,1/2+y,1/2+z
-x,1/2-y,1/2+z
x,1/2-y,1/2-z
-x,1/2+y,1/2-z
-x,1/2-y,1/2-z
x,1/2+y,1/2-z
-x,1/2+y,1/2+z
x,1/2-y,1/2+z
1/2+x,y,1/2+z
1/2-x,-y,1/2+z
1/2+x,-y,1/2-z
1/2-x,y,1/2-z
1/2-x,-y,1/2-z
1/2+x,y,1/2-z
1/2-x,y,1/2+z
1/2+x,-y,1/2+z
1/2+x,1/2+y,z
1/2-x,1/2-y,z
1/2+x,1/2-y,-z
1/2-x,1/2+y,-z
1/2-x,1/2-y,-z
1/2+x,1/2+y,-z
1/2-x,1/2+y,z
1/2+x,1/2-y,z
loop_
_atom_site_type_symbol
_atom_site_label
_atom_site_fract_x
_atom_site_fract_y
_atom_site_fract_z
Si Si1 0.899440 0.553347 0.633074
Si Si2 0.734699 0.945658 0.500000
Si Si3 0.901625 0.229631 0.915283
Si Si4 0.359881 0.349694 0.191349
Si Si5 0.101850 0.875987 0.500000
Si Si6 0.661920 0.821530 0.851495
O O1 0.881509 0.500000 0.666442
O O2 0.826697 0.566857 0.570901
O O3 0.887016 0.594474 0.695553
O O4 0.000000 0.554915 0.599783
O O5 0.827765 0.918498 0.500000
O O6 0.763284 0.000000 0.500000
O O7 0.911979 0.179032 0.873439
O O8 0.836064 0.264996 0.869306
O O9 0.000000 0.252834 0.919630
O O10 0.863525 0.221068 0.000000
O O11 0.390856 0.329605 0.273025
O O12 0.257513 0.343130 0.167722
O O13 0.116749 0.845422 0.424319
O O14 0.000000 0.895123 0.500000
#
# Coordination Sequence:
#
# PCOD8285312 Si02
#       6
#    32  16  32  32  16  32
#     4  10  21  39  66  99 132 169 213 268 337 396
#     4  10  21  41  65  94 133 172 212 273 334 387
#     4  11  24  39  61  95 132 172 220 272 325 392
#     4  11  24  41  65  97 129 172 224 275 329 396
#     4  12  24  42  69  92 127 180 229 272 324 390
#     4  11  24  43  63  92 129 177 220 271 334 389
#
# _framework density 21.497551999999999
#
# number of rings (size 3 to 8) (size 9 to 14) (size 15 to 20)
#    0.000    1.200    3.000    2.700    2.800    7.800 
#    0.000    3.000    0.000    0.000    0.000    0.000 
#    0.000    0.000    0.000    0.000    0.000    0.000 
#
# Total GULP energy -495691.607892 kJ/mol
# GULP energy per Si atom -12392.290197 kJ/mol
# Density = 2.144862 g / cm^3
# Si number density = 21.497552 Si / 1000 Ang^3
#
#
#
# Elastic Constant Matrix: (Units=GPa)
#
#
# Indices 1 2 3 4 5 6 
#
# 1 104.6973 30.4691 29.1350 0.0000 0.0000 0.0000
# 2 30.4691 145.8925 69.5648 0.0000 0.0000 0.0000
# 3 29.1350 69.5648 170.1919 0.0000 0.0000 0.0000
# 4 0.0000 0.0000 0.0000 18.4430 0.0000 0.0000
# 5 0.0000 0.0000 0.0000 0.0000 17.3525 0.0000
# 6 0.0000 0.0000 0.0000 0.0000 0.0000 25.3779
#
#
#
# Elastic Compliance Matrix: (Units=1/GPa)
#
#
# Indices 1 2 3 4 5 6 
#
# 1 0.010333 -0.001633 -0.001102 0.000000 0.000000 0.000000
# 2 -0.001633 0.008772 -0.003306 0.000000 0.000000 0.000000
# 3 -0.001102 -0.003306 0.007416 0.000000 0.000000 0.000000
# 4 0.000000 0.000000 0.000000 0.054221 0.000000 0.000000
# 5 0.000000 0.000000 0.000000 0.000000 0.057629 0.000000
# 6 0.000000 0.000000 0.000000 0.000000 0.000000 0.039404
#
#
# Mechanical properties :
#
#
# Convention : Reuss Voigt Hill
#
# Bulk Modulus (GPa) = 69.25231 75.45769 72.35500
# Shear Modulus (GPa) = 25.68476 31.67554 28.68015
#
# Velocity S-wave (km/s) = 3.46030 3.84272 3.65651
# Velocity P-wave (km/s) = 6.94614 7.40712 7.18033
#
# Compressibility (1/GPa) = 0.01443995
#
# Stress axis : x y z
#
# Youngs Moduli (GPa) = 96.77687 114.00349 134.85223
#
# Poissons Ratio (x) = 0.18614 0.14854
# Poissons Ratio (y) = 0.15802 0.44580
# Poissons Ratio (z) = 0.10660 0.37688
#
# Static dielectric constant tensor:
#      x y z
#    x 3.879830 0.000000 0.000000 
#    y 0.000000 3.921890 0.000000 
#    z 0.000000 0.000000 4.117770 
# 
# 
# High freq. dielectric constant tensor:
#      x y z
#    x 1.850470 0.000000 0.000000 
#    y 0.000000 1.843830 0.000000 
#    z 0.000000 0.000000 1.835860 
# 
# From -- ./inp_files/21880.got.cif
#   From: 2010.03.12/outbox.cif.g09.slc.cpg/sg69_11_cif.got.tgz:21880.got - 2010.04.10 23:52:46.
