data_PCOD8285666
_publ_section_title
;
Structure prediction by ZEFSAII (Michael W. Deem and Ramdas Pophale) SiO2 
 PCOD8285666
Probable space group: F M M M
;
_chemical_formula_sum "Si O2"
_cell_formula_units_Z 104
_cell_length_a 7.634474
_cell_length_b 28.743070
_cell_length_c 23.260689
_cell_angle_alpha 90.000000
_cell_angle_beta 90.000000
_cell_angle_gamma 90.000000
_cell_volume 5104.284204
_symmetry_space_group_name_H-M "F M M M"
_symmetry_group_IT_number 69
_symmetry_cell_setting 'orthorhombic'
loop_
_space_group_symop_operation_xyz
x,y,z
-x,-y,z
x,-y,-z
-x,y,-z
-x,-y,-z
x,y,-z
-x,y,z
x,-y,z
x,1/2+y,1/2+z
-x,1/2-y,1/2+z
x,1/2-y,1/2-z
-x,1/2+y,1/2-z
-x,1/2-y,1/2-z
x,1/2+y,1/2-z
-x,1/2+y,1/2+z
x,1/2-y,1/2+z
1/2+x,y,1/2+z
1/2-x,-y,1/2+z
1/2+x,-y,1/2-z
1/2-x,y,1/2-z
1/2-x,-y,1/2-z
1/2+x,y,1/2-z
1/2-x,y,1/2+z
1/2+x,-y,1/2+z
1/2+x,1/2+y,z
1/2-x,1/2-y,z
1/2+x,1/2-y,-z
1/2-x,1/2+y,-z
1/2-x,1/2-y,-z
1/2+x,1/2+y,-z
1/2-x,1/2+y,z
1/2+x,1/2-y,z
loop_
_atom_site_type_symbol
_atom_site_label
_atom_site_fract_x
_atom_site_fract_y
_atom_site_fract_z
Si Si1 0.295321 0.301363 0.619575
Si Si2 0.696266 0.161229 0.500000
Si Si3 0.302510 0.390437 0.184129
Si Si4 0.000000 0.946965 0.624490
Si Si5 0.000000 0.412886 0.000000
O O1 0.500000 0.311807 0.619905
O O2 0.250000 0.250000 0.642186
O O3 0.222270 0.306415 0.555332
O O4 0.204237 0.337457 0.662454
O O5 0.500000 0.140727 0.500000
O O6 0.826984 0.118272 0.500000
O O7 0.500000 0.409335 0.176608
O O8 0.250000 0.392264 0.250000
O O9 0.174754 0.422489 0.147157
O O10 0.000000 0.945372 0.555645
O O11 0.000000 0.000000 0.645594
#
# Coordination Sequence:
#
# PCOD8285666 Si02
#       5
#    32  16  32  16   8
#     4  12  23  40  63  99 137 183 232 276 335 401
#     4  12  21  38  64  93 135 181 222 285 337 395
#     4  12  24  46  70  99 140 180 228 285 337 404
#     4  12  27  48  74 102 135 178 228 286 350 408
#     4  12  23  46  72  98 138 176 224 282 351 402
#
# _framework density 20.375041
#
# number of rings (size 3 to 8) (size 9 to 14) (size 15 to 20)
#    0.000    0.000    7.692    3.462    0.000    1.846 
#    0.000    3.077    0.000    2.769    0.000    0.000 
#    0.000    0.000    0.000    0.000    0.000    0.000 
#
# Total GULP energy -322575.960415 kJ/mol
# GULP energy per Si atom -12406.767708 kJ/mol
# Density = 2.032867 g / cm^3
# Si number density = 20.375041 Si / 1000 Ang^3
#
#
#
# Elastic Constant Matrix: (Units=GPa)
#
#
# Indices 1 2 3 4 5 6 
#
# 1 183.5453 40.3745 40.8111 0.0000 0.0000 0.0000
# 2 40.3745 124.8443 34.7472 0.0000 0.0000 0.0000
# 3 40.8111 34.7472 130.0287 0.0000 0.0000 0.0000
# 4 0.0000 0.0000 0.0000 15.1575 0.0000 0.0000
# 5 0.0000 0.0000 0.0000 0.0000 -75.4015 0.0000
# 6 0.0000 0.0000 0.0000 0.0000 0.0000 17.1391
#
#
#
# Elastic Compliance Matrix: (Units=1/GPa)
#
#
# Indices 1 2 3 4 5 6 
#
# 1 0.006127 -0.001562 -0.001505 0.000000 0.000000 0.000000
# 2 -0.001562 0.009052 -0.001929 0.000000 0.000000 0.000000
# 3 -0.001505 -0.001929 0.008678 0.000000 0.000000 0.000000
# 4 0.000000 0.000000 0.000000 0.065974 0.000000 0.000000
# 5 0.000000 0.000000 0.000000 0.000000 -0.013262 0.000000
# 6 0.000000 0.000000 0.000000 0.000000 0.000000 0.058346
#
#
# Mechanical properties :
#
#
# Convention : Reuss Voigt Hill
#
# Bulk Modulus (GPa) = 72.12707 74.47600 73.30153
# Shear Modulus (GPa) = 33.43827 12.87803 23.15815
#
# Velocity S-wave (km/s) = 4.05549 2.51679 3.37500
# Velocity P-wave (km/s) = 7.57667 6.71398 7.15833
#
# Compressibility (1/GPa) = 0.01386442
#
# Stress axis : x y z
#
# Youngs Moduli (GPa) = 163.22145 110.47268 115.22767
#
# Poissons Ratio (x) = 0.17260 0.17347
# Poissons Ratio (y) = 0.25501 0.22223
# Poissons Ratio (z) = 0.24572 0.21306
#
# Static dielectric constant tensor:
#      x y z
#    x 4.035860 0.000000 0.000000 
#    y 0.000000 3.545830 0.000000 
#    z 0.000000 0.000000 3.896090 
# 
# 
# High freq. dielectric constant tensor:
#      x y z
#    x 1.819310 0.000000 0.000000 
#    y 0.000000 1.781330 0.000000 
#    z 0.000000 0.000000 1.805260 
# 
# From -- ./inp_files/34475.got.cif
#   From: 2010.03.12/outbox.cif.g09.slc.cpg/sg69_18_cif.got.tgz:34475.got - 2010.04.10 23:52:46.
