data_PCOD8285817
_publ_section_title
;
Structure prediction by ZEFSAII (Michael W. Deem and Ramdas Pophale) SiO2 
 PCOD8285817
Probable space group: F D D D
;
_chemical_formula_sum "Si O2"
_cell_formula_units_Z 160
_cell_length_a 25.870630
_cell_length_b 34.531232
_cell_length_c 9.806325
_cell_angle_alpha 90.000000
_cell_angle_beta 90.000000
_cell_angle_gamma 90.000000
_cell_volume 8760.428725
_symmetry_space_group_name_H-M "F D D D"
_symmetry_group_IT_number 70
_space_group.IT_coordinate_system_code '2'
_symmetry_cell_setting 'orthorhombic'
loop_
_space_group_symop_operation_xyz
x,y,z
1/4-x,1/4-y,z
x,1/4-y,1/4-z
1/4-x,y,1/4-z
-x,-y,-z
3/4+x,3/4+y,-z
-x,3/4+y,3/4+z
3/4+x,-y,3/4+z
x,1/2+y,1/2+z
1/4-x,3/4-y,1/2+z
x,3/4-y,3/4-z
1/4-x,1/2+y,3/4-z
-x,1/2-y,1/2-z
3/4+x,1/4+y,1/2-z
-x,1/4+y,1/4+z
3/4+x,1/2-y,1/4+z
1/2+x,y,1/2+z
3/4-x,1/4-y,1/2+z
1/2+x,1/4-y,3/4-z
3/4-x,y,3/4-z
1/2-x,-y,1/2-z
1/4+x,3/4+y,1/2-z
1/2-x,3/4+y,1/4+z
1/4+x,-y,1/4+z
1/2+x,1/2+y,z
3/4-x,3/4-y,z
1/2+x,3/4-y,1/4-z
3/4-x,1/2+y,1/4-z
1/2-x,1/2-y,-z
1/4+x,1/4+y,-z
1/2-x,1/4+y,3/4+z
1/4+x,1/2-y,3/4+z
loop_
_atom_site_type_symbol
_atom_site_label
_atom_site_fract_x
_atom_site_fract_y
_atom_site_fract_z
Si Si1 0.062771 0.493684 0.348085
Si Si2 0.677778 0.744882 0.374683
Si Si3 0.524474 0.949429 0.086919
Si Si4 0.711585 0.788358 0.128458
Si Si5 0.175671 0.371163 0.215957
O O1 0.118953 0.513399 0.333820
O O2 0.052768 0.468233 0.215655
O O3 0.060328 0.464161 0.475404
O O4 0.022618 0.528791 0.366673
O O5 0.701348 0.781795 0.452345
O O6 0.712667 0.707101 0.406759
O O7 0.680898 0.756028 0.215397
O O8 0.533444 0.903737 0.080121
O O9 0.703383 0.830792 0.187270
O O10 0.125000 0.375942 0.125000
O O11 0.160839 0.375000 0.375000
#
# Coordination Sequence:
#
# PCOD8285817 Si02
#       5
#    32  32  32  32  32
#     4  10  20  37  58  82 108 148 187 226 276 321
#     4  10  18  37  56  78 110 146 185 227 273 319
#     4  10  22  33  55  83 109 144 185 226 270 336
#     4  10  22  35  57  84 112 142 188 230 268 335
#     4  12  24  38  56  82 116 148 180 232 287 330
#
# _framework density 18.263946000000001
#
# number of rings (size 3 to 8) (size 9 to 14) (size 15 to 20)
#    0.000    1.600    2.000    3.600    2.800    0.000 
#    0.000    1.000    0.000    1.200    0.000    8.400 
#    0.000    0.000    0.000    0.000    0.000    0.000 
#
# Total GULP energy -496075.463674 kJ/mol
# GULP energy per Si atom -12401.886592 kJ/mol
# Density = 1.822238 g / cm^3
# Si number density = 18.263946 Si / 1000 Ang^3
#
#
#
# Elastic Constant Matrix: (Units=GPa)
#
#
# Indices 1 2 3 4 5 6 
#
# 1 132.6793 41.4304 37.3494 -0.0034 0.0136 0.0003
# 2 41.4304 97.5496 28.3858 -0.0006 0.0038 0.0005
# 3 37.3494 28.3858 99.8440 -0.0257 0.0408 0.0082
# 4 -0.0034 -0.0006 -0.0257 24.2354 0.0136 0.0040
# 5 0.0136 0.0038 0.0408 0.0136 17.4138 -0.0040
# 6 0.0003 0.0005 0.0082 0.0040 -0.0040 14.2294
#
#
#
# Elastic Compliance Matrix: (Units=1/GPa)
#
#
# Indices 1 2 3 4 5 6 
#
# 1 0.009251 -0.003186 -0.002555 -0.000001 -0.000001 0.000001
# 2 -0.003186 0.012273 -0.002298 -0.000003 0.000005 0.000001
# 3 -0.002555 -0.002298 0.011625 0.000012 -0.000025 -0.000007
# 4 -0.000001 -0.000003 0.000012 0.041262 -0.000032 -0.000012
# 5 -0.000001 0.000005 -0.000025 -0.000032 0.057426 0.000016
# 6 0.000001 0.000001 -0.000007 -0.000012 0.000016 0.070277
#
#
# Mechanical properties :
#
#
# Convention : Reuss Voigt Hill
#
# Bulk Modulus (GPa) = 58.57457 60.48935 59.53196
# Shear Modulus (GPa) = 22.33344 26.03621 24.18483
#
# Velocity S-wave (km/s) = 3.50067 3.77974 3.64288
# Velocity P-wave (km/s) = 6.96279 7.22773 7.09649
#
# Compressibility (1/GPa) = 0.01707226
#
# Stress axis : x y z
#
# Youngs Moduli (GPa) = 108.09778 81.48190 86.02481
#
# Poissons Ratio (x) = 0.25956 0.21979
# Poissons Ratio (y) = 0.34435 0.19764
# Poissons Ratio (z) = 0.27618 0.18721
#
# Static dielectric constant tensor:
#      x y z
#    x 3.464490 0.000000 0.000010 
#    y 0.000000 3.160660 0.000000 
#    z 0.000010 0.000000 3.686570 
# 
# 
# High freq. dielectric constant tensor:
#      x y z
#    x 1.708670 0.000000 0.000000 
#    y 0.000000 1.678680 0.000000 
#    z 0.000000 0.000000 1.735030 
# 
# From -- ./inp_files/20845.got.cif
#   From: 2010.03.12/outbox.cif.g09.slc.cpg/sg70_11_cif.got.tgz:20845.got - 2010.04.16 13:46:32.
