data_PCOD8285643
_publ_section_title
;
Structure prediction by ZEFSAII (Michael W. Deem and Ramdas Pophale) SiO2 
 PCOD8285643
Probable space group: F M M M
;
_chemical_formula_sum "Si O2"
_cell_formula_units_Z 160
_cell_length_a 18.713711
_cell_length_b 30.049292
_cell_length_c 14.652534
_cell_angle_alpha 90.000000
_cell_angle_beta 90.000000
_cell_angle_gamma 90.000000
_cell_volume 8239.614629
_symmetry_space_group_name_H-M "F M M M"
_symmetry_group_IT_number 69
_symmetry_cell_setting 'orthorhombic'
loop_
_space_group_symop_operation_xyz
x,y,z
-x,-y,z
x,-y,-z
-x,y,-z
-x,-y,-z
x,y,-z
-x,y,z
x,-y,z
x,1/2+y,1/2+z
-x,1/2-y,1/2+z
x,1/2-y,1/2-z
-x,1/2+y,1/2-z
-x,1/2-y,1/2-z
x,1/2+y,1/2-z
-x,1/2+y,1/2+z
x,1/2-y,1/2+z
1/2+x,y,1/2+z
1/2-x,-y,1/2+z
1/2+x,-y,1/2-z
1/2-x,y,1/2-z
1/2-x,-y,1/2-z
1/2+x,y,1/2-z
1/2-x,y,1/2+z
1/2+x,-y,1/2+z
1/2+x,1/2+y,z
1/2-x,1/2-y,z
1/2+x,1/2-y,-z
1/2-x,1/2+y,-z
1/2-x,1/2-y,-z
1/2+x,1/2+y,-z
1/2-x,1/2+y,z
1/2+x,1/2-y,z
loop_
_atom_site_type_symbol
_atom_site_label
_atom_site_fract_x
_atom_site_fract_y
_atom_site_fract_z
Si Si1 0.834548 0.179506 0.756532
Si Si2 0.186867 0.947123 0.500000
Si Si3 0.077126 0.051076 0.357854
Si Si4 0.081522 0.094753 0.177338
Si Si5 0.848344 0.053622 0.000000
Si Si6 0.165671 0.246064 0.602721
O O1 0.750000 0.170790 0.750000
O O2 0.876135 0.134288 0.773656
O O3 0.857670 0.202263 0.660210
O O4 0.858711 0.210607 0.841090
O O5 0.143874 0.927791 0.587538
O O6 0.267025 0.928889 0.500000
O O7 0.193213 0.000000 0.500000
O O8 0.087120 0.054822 0.249660
O O9 0.000000 0.072672 0.385933
O O10 0.075035 0.000000 0.385732
O O11 0.115673 0.075945 0.086503
O O12 0.000000 0.109267 0.157722
O O13 0.857277 0.000000 0.000000
O O14 0.132218 0.244745 0.500000
O O15 0.250000 0.250000 0.595374
#
# Coordination Sequence:
#
# PCOD8285643 Si02
#       6
#    32  16  32  32  16  32
#     4   9  19  34  57  87 114 146 192 239 286 343
#     4   9  19  35  57  85 110 139 191 246 288 343
#     4   9  18  35  58  81 112 154 191 232 293 352
#     4  11  24  39  56  82 116 155 199 245 290 349
#     4  11  25  41  59  83 115 158 205 253 297 343
#     4   8  15  33  58  84 115 151 185 227 288 353
#
# _framework density 19.418384
#
# number of rings (size 3 to 8) (size 9 to 14) (size 15 to 20)
#    0.000    2.600    0.000    2.400    4.200    2.800 
#    1.800    5.000    0.000    1.200    0.000    0.000 
#    0.000    0.000    0.000    0.000    0.000    0.000 
#
# Total GULP energy -495567.776805 kJ/mol
# GULP energy per Si atom -12389.194420 kJ/mol
# Density = 1.937419 g / cm^3
# Si number density = 19.418384 Si / 1000 Ang^3
#
#
#
# Elastic Constant Matrix: (Units=GPa)
#
#
# Indices 1 2 3 4 5 6 
#
# 1 124.5845 39.6205 66.5662 0.0000 0.0000 0.0000
# 2 39.6205 63.8589 35.4256 0.0000 0.0000 0.0000
# 3 66.5662 35.4256 164.8196 0.0000 0.0000 0.0000
# 4 0.0000 0.0000 0.0000 25.0967 0.0000 0.0000
# 5 0.0000 0.0000 0.0000 0.0000 13.7655 0.0000
# 6 0.0000 0.0000 0.0000 0.0000 0.0000 15.4937
#
#
#
# Elastic Compliance Matrix: (Units=1/GPa)
#
#
# Indices 1 2 3 4 5 6 
#
# 1 0.011586 -0.005214 -0.003559 0.000000 0.000000 0.000000
# 2 -0.005214 0.020126 -0.002220 0.000000 0.000000 0.000000
# 3 -0.003559 -0.002220 0.007982 0.000000 0.000000 0.000000
# 4 0.000000 0.000000 0.000000 0.039846 0.000000 0.000000
# 5 0.000000 0.000000 0.000000 0.000000 0.072645 0.000000
# 6 0.000000 0.000000 0.000000 0.000000 0.000000 0.064542
#
#
# Mechanical properties :
#
#
# Convention : Reuss Voigt Hill
#
# Bulk Modulus (GPa) = 56.47078 70.72083 63.59580
# Shear Modulus (GPa) = 20.44013 24.98122 22.71067
#
# Velocity S-wave (km/s) = 3.24793 3.59063 3.42357
# Velocity P-wave (km/s) = 6.57340 7.32726 6.96055
#
# Compressibility (1/GPa) = 0.01770827
#
# Stress axis : x y z
#
# Youngs Moduli (GPa) = 86.30799 49.68634 125.28797
#
# Poissons Ratio (x) = 0.25909 0.44586
# Poissons Ratio (y) = 0.45005 0.27812
# Poissons Ratio (z) = 0.30714 0.11030
#
# Static dielectric constant tensor:
#      x y z
#    x 3.600370 0.000000 0.000000 
#    y 0.000000 3.335870 0.000000 
#    z 0.000000 0.000000 3.941340 
# 
# 
# High freq. dielectric constant tensor:
#      x y z
#    x 1.742310 0.000000 0.000000 
#    y 0.000000 1.732390 0.000000 
#    z 0.000000 0.000000 1.771520 
# 
# From -- ./inp_files/15669.got.cif
#   From: 2010.03.12/outbox.cif.g09.slc.cpg/sg69_8_cif.got.tgz:15669.got - 2010.04.10 23:52:46.
