data_PCOD8285391
_publ_section_title
;
Structure prediction by ZEFSAII (Michael W. Deem and Ramdas Pophale) SiO2 
 PCOD8285391
Probable space group: F M M M
;
_chemical_formula_sum "Si O2"
_cell_formula_units_Z 160
_cell_length_a 18.917778
_cell_length_b 18.918218
_cell_length_c 22.188502
_cell_angle_alpha 90.000000
_cell_angle_beta 90.000000
_cell_angle_gamma 90.000000
_cell_volume 7941.057365
_symmetry_space_group_name_H-M "F M M M"
_symmetry_group_IT_number 69
_symmetry_cell_setting 'orthorhombic'
loop_
_space_group_symop_operation_xyz
x,y,z
-x,-y,z
x,-y,-z
-x,y,-z
-x,-y,-z
x,y,-z
-x,y,z
x,-y,z
x,1/2+y,1/2+z
-x,1/2-y,1/2+z
x,1/2-y,1/2-z
-x,1/2+y,1/2-z
-x,1/2-y,1/2-z
x,1/2+y,1/2-z
-x,1/2+y,1/2+z
x,1/2-y,1/2+z
1/2+x,y,1/2+z
1/2-x,-y,1/2+z
1/2+x,-y,1/2-z
1/2-x,y,1/2-z
1/2-x,-y,1/2-z
1/2+x,y,1/2-z
1/2-x,y,1/2+z
1/2+x,-y,1/2+z
1/2+x,1/2+y,z
1/2-x,1/2-y,z
1/2+x,1/2-y,-z
1/2-x,1/2+y,-z
1/2-x,1/2-y,-z
1/2+x,1/2+y,-z
1/2-x,1/2+y,z
1/2+x,1/2-y,z
loop_
_atom_site_type_symbol
_atom_site_label
_atom_site_fract_x
_atom_site_fract_y
_atom_site_fract_z
Si Si1 0.081231 0.689677 0.432473
Si Si2 0.689676 0.418772 0.567526
Si Si3 0.167165 0.667175 0.750001
Si Si4 0.831403 0.583756 0.367478
Si Si5 0.083758 0.168598 0.367482
O O1 0.098587 0.716850 0.500000
O O2 0.122535 0.616888 0.421029
O O3 0.101890 0.750027 0.383759
O O4 0.000000 0.670688 0.425882
O O5 0.716854 0.401420 0.500000
O O6 0.670681 0.500000 0.574118
O O7 0.750026 0.398116 0.616244
O O8 0.616887 0.377464 0.578965
O O9 0.150939 0.750000 0.750000
O O10 0.250000 0.651002 0.750000
O O11 0.140552 0.622984 0.692566
O O12 0.122994 0.640547 0.807442
O O13 0.844052 0.500000 0.362583
O O14 0.000000 0.155952 0.362583
#
# Coordination Sequence:
#
# PCOD8285391 Si02
#       5
#    32  32  32  32  32
#     4  10  22  40  62  91 128 167 207 257 315 371
#     4  10  22  40  62  91 128 167 207 257 315 371
#     4  11  22  40  64  89 118 162 205 252 312 369
#     4  11  23  40  64  92 125 164 210 260 311 372
#     4  11  23  40  64  92 125 164 210 260 311 372
#
# _framework density 20.148451000000001
#
# number of rings (size 3 to 8) (size 9 to 14) (size 15 to 20)
#    0.000    1.400    4.000    1.200    0.000    6.400 
#    0.000    4.000    0.000    0.000    0.000    0.000 
#    0.000    0.000    0.000    0.000    0.000    0.000 
#
# Total GULP energy -495824.783922 kJ/mol
# GULP energy per Si atom -12395.619598 kJ/mol
# Density = 2.010259 g / cm^3
# Si number density = 20.148451 Si / 1000 Ang^3
#
#
#
# Elastic Constant Matrix: (Units=GPa)
#
#
# Indices 1 2 3 4 5 6 
#
# 1 88.7864 70.8737 59.7057 0.0000 0.0000 0.0000
# 2 70.8737 88.8623 59.7112 0.0000 0.0000 0.0000
# 3 59.7057 59.7112 99.0753 0.0000 0.0000 0.0000
# 4 0.0000 0.0000 0.0000 34.2059 0.0000 0.0000
# 5 0.0000 0.0000 0.0000 0.0000 34.2051 0.0000
# 6 0.0000 0.0000 0.0000 0.0000 0.0000 30.7610
#
#
#
# Elastic Compliance Matrix: (Units=1/GPa)
#
#
# Indices 1 2 3 4 5 6 
#
# 1 0.033575 -0.022155 -0.006881 0.000000 0.000000 0.000000
# 2 -0.022155 0.033531 -0.006858 0.000000 0.000000 0.000000
# 3 -0.006881 -0.006858 0.018373 0.000000 0.000000 0.000000
# 4 0.000000 0.000000 0.000000 0.029235 0.000000 0.000000
# 5 0.000000 0.000000 0.000000 0.000000 0.029235 0.000000
# 6 0.000000 0.000000 0.000000 0.000000 0.000000 0.032509
#
#
# Mechanical properties :
#
#
# Convention : Reuss Voigt Hill
#
# Bulk Modulus (GPa) = 73.03232 73.03390 73.03311
# Shear Modulus (GPa) = 19.77766 25.59662 22.68714
#
# Velocity S-wave (km/s) = 3.13644 3.56814 3.35923
# Velocity P-wave (km/s) = 7.03151 7.30082 7.16743
#
# Compressibility (1/GPa) = 0.01369257
#
# Stress axis : x y z
#
# Youngs Moduli (GPa) = 29.78367 29.82276 54.42719
#
# Poissons Ratio (x) = 0.66072 0.37452
# Poissons Ratio (y) = 0.65985 0.37325
# Poissons Ratio (z) = 0.20495 0.20452
#
# Static dielectric constant tensor:
#      x y z
#    x 3.494850 0.000000 0.000000 
#    y 0.000000 3.495040 0.000000 
#    z 0.000000 0.000000 3.827700 
# 
# 
# High freq. dielectric constant tensor:
#      x y z
#    x 1.778430 0.000000 0.000000 
#    y 0.000000 1.778430 0.000000 
#    z 0.000000 0.000000 1.799770 
# 
# From -- ./inp_files/24573.got.cif
#   From: 2010.03.12/outbox.cif.g09.slc.cpg/sg69_13_cif.got.tgz:24573.got - 2010.04.10 23:52:46.
