data_PCOD8285291
_publ_section_title
;
Structure prediction by ZEFSAII (Michael W. Deem and Ramdas Pophale) SiO2 
 PCOD8285291
Probable space group: F M M M
;
_chemical_formula_sum "Si O2"
_cell_formula_units_Z 136
_cell_length_a 24.329366
_cell_length_b 17.671343
_cell_length_c 13.098306
_cell_angle_alpha 90.000000
_cell_angle_beta 90.000000
_cell_angle_gamma 90.000000
_cell_volume 5631.388382
_symmetry_space_group_name_H-M "F M M M"
_symmetry_group_IT_number 69
_symmetry_cell_setting 'orthorhombic'
loop_
_space_group_symop_operation_xyz
x,y,z
-x,-y,z
x,-y,-z
-x,y,-z
-x,-y,-z
x,y,-z
-x,y,z
x,-y,z
x,1/2+y,1/2+z
-x,1/2-y,1/2+z
x,1/2-y,1/2-z
-x,1/2+y,1/2-z
-x,1/2-y,1/2-z
x,1/2+y,1/2-z
-x,1/2+y,1/2+z
x,1/2-y,1/2+z
1/2+x,y,1/2+z
1/2-x,-y,1/2+z
1/2+x,-y,1/2-z
1/2-x,y,1/2-z
1/2-x,-y,1/2-z
1/2+x,y,1/2-z
1/2-x,y,1/2+z
1/2+x,-y,1/2+z
1/2+x,1/2+y,z
1/2-x,1/2-y,z
1/2+x,1/2-y,-z
1/2-x,1/2+y,-z
1/2-x,1/2-y,-z
1/2+x,1/2+y,-z
1/2-x,1/2+y,z
1/2+x,1/2-y,z
loop_
_atom_site_type_symbol
_atom_site_label
_atom_site_fract_x
_atom_site_fract_y
_atom_site_fract_z
Si Si1 0.000000 0.296238 0.877993
Si Si2 0.086000 0.917774 0.620515
Si Si3 0.207342 0.874851 0.619173
Si Si4 0.000000 0.124342 0.878217
Si Si5 0.084530 0.000000 0.121587
Si Si6 0.750000 0.750000 0.250000
Si Si7 0.708074 0.000000 0.379328
O O1 0.947927 0.345450 0.837599
O O2 0.000000 0.210140 0.830937
O O3 0.000000 0.287654 0.000000
O O4 0.076511 0.919864 0.500000
O O5 0.149995 0.913158 0.647198
O O6 0.066101 0.000000 0.666231
O O7 0.211475 0.857899 0.500000
O O8 0.209455 0.796610 0.678240
O O9 0.258256 0.926516 0.657143
O O10 0.053927 0.077119 0.841268
O O11 0.000000 0.130039 0.000000
O O12 0.146438 0.000000 0.166173
O O13 0.084161 0.000000 0.000000
O O14 0.705434 0.000000 0.500000
#
# Coordination Sequence:
#
# PCOD8285291 Si02
#       7
#    16  32  32  16  16   8  16
#     4   9  16  24  46  82 117 152 190 238 303 363
#     4   9  16  30  52  80 115 154 198 249 298 351
#     4  10  21  39  60  85 121 159 201 251 299 353
#     4   8  14  24  36  66 109 144 186 242 293 348
#     4   8  14  25  45  69 103 150 195 236 288 350
#     4  12  26  38  56  88 124 158 202 244 308 366
#     4   9  17  33  58  82 107 154 204 242 288 348
#
# _framework density 24.150351000000001
#
# number of rings (size 3 to 8) (size 9 to 14) (size 15 to 20)
#    0.000    2.824    1.176    1.412    0.000    3.765 
#    0.000    7.059    0.000    0.706    0.000    3.294 
#    0.000    0.000    0.000    0.000    0.000    0.000 
#
# Total GULP energy -421489.777205 kJ/mol
# GULP energy per Si atom -12396.758153 kJ/mol
# Density = 2.409538 g / cm^3
# Si number density = 24.150351 Si / 1000 Ang^3
#
#
#
# Elastic Constant Matrix: (Units=GPa)
#
#
# Indices 1 2 3 4 5 6 
#
# 1 203.8160 103.7372 20.0381 0.0000 0.0000 0.0000
# 2 103.7372 240.8105 54.2931 0.0000 0.0000 0.0000
# 3 20.0381 54.2931 43.1385 0.0000 0.0000 0.0000
# 4 0.0000 0.0000 0.0000 47.8457 0.0000 0.0000
# 5 0.0000 0.0000 0.0000 0.0000 -2.2633 0.0000
# 6 0.0000 0.0000 0.0000 0.0000 0.0000 0.1109
#
#
#
# Elastic Compliance Matrix: (Units=1/GPa)
#
#
# Indices 1 2 3 4 5 6 
#
# 1 0.006299 -0.002867 0.000683 0.000000 0.000000 0.000000
# 2 -0.002867 0.007103 -0.007608 0.000000 0.000000 0.000000
# 3 0.000683 -0.007608 0.032439 0.000000 0.000000 0.000000
# 4 0.000000 0.000000 0.000000 0.020901 0.000000 0.000000
# 5 0.000000 0.000000 0.000000 0.000000 -0.441828 0.000000
# 6 0.000000 0.000000 0.000000 0.000000 0.000000 9.017626
#
#
# Mechanical properties :
#
#
# Convention : Reuss Voigt Hill
#
# Bulk Modulus (GPa) = 38.08616 93.76687 65.92651
# Shear Modulus (GPa) = 0.57664 29.78510 15.18087
#
# Velocity S-wave (km/s) = 0.48917 3.51568 2.50991
# Velocity P-wave (km/s) = 4.01544 7.44248 5.97973
#
# Compressibility (1/GPa) = 0.02625626
#
# Stress axis : x y z
#
# Youngs Moduli (GPa) = 158.76445 140.78309 30.82709
#
# Poissons Ratio (x) = 0.40367 -0.02106
# Poissons Ratio (y) = 0.45523 0.23453
# Poissons Ratio (z) = -0.10844 1.07107
#
# Static dielectric constant tensor:
#      x y z
#    x 4.582270 0.000000 0.000000 
#    y 0.000000 4.799430 0.000000 
#    z 0.000000 0.000000 4.252440 
# 
# 
# High freq. dielectric constant tensor:
#      x y z
#    x 1.947100 0.000000 0.000000 
#    y 0.000000 1.959630 0.000000 
#    z 0.000000 0.000000 1.988040 
# 
# From -- ./inp_files/25663.got.cif
#   From: 2010.03.12/outbox.cif.g09.slc.cpg/sg69_13_cif.got.tgz:25663.got - 2010.04.10 23:52:46.
