data_PCOD8285186
_publ_section_title
;
Structure prediction by ZEFSAII (Michael W. Deem and Ramdas Pophale) SiO2 
 PCOD8285186
Probable space group: F M M M
;
_chemical_formula_sum "Si O2"
_cell_formula_units_Z 176
_cell_length_a 27.426295
_cell_length_b 16.342455
_cell_length_c 17.568181
_cell_angle_alpha 90.000000
_cell_angle_beta 90.000000
_cell_angle_gamma 90.000000
_cell_volume 7874.286967
_symmetry_space_group_name_H-M "F M M M"
_symmetry_group_IT_number 69
_symmetry_cell_setting 'orthorhombic'
loop_
_space_group_symop_operation_xyz
x,y,z
-x,-y,z
x,-y,-z
-x,y,-z
-x,-y,-z
x,y,-z
-x,y,z
x,-y,z
x,1/2+y,1/2+z
-x,1/2-y,1/2+z
x,1/2-y,1/2-z
-x,1/2+y,1/2-z
-x,1/2-y,1/2-z
x,1/2+y,1/2-z
-x,1/2+y,1/2+z
x,1/2-y,1/2+z
1/2+x,y,1/2+z
1/2-x,-y,1/2+z
1/2+x,-y,1/2-z
1/2-x,y,1/2-z
1/2-x,-y,1/2-z
1/2+x,y,1/2-z
1/2-x,y,1/2+z
1/2+x,-y,1/2+z
1/2+x,1/2+y,z
1/2-x,1/2-y,z
1/2+x,1/2-y,-z
1/2-x,1/2+y,-z
1/2-x,1/2-y,-z
1/2+x,1/2+y,-z
1/2-x,1/2+y,z
1/2+x,1/2-y,z
loop_
_atom_site_type_symbol
_atom_site_label
_atom_site_fract_x
_atom_site_fract_y
_atom_site_fract_z
Si Si1 0.773216 0.333853 0.588758
Si Si2 0.444156 0.098012 0.000000
Si Si3 0.556324 0.164594 0.714486
Si Si4 0.375171 0.403435 0.089618
Si Si5 0.290512 0.408139 0.694092
Si Si6 0.105805 0.593352 0.152361
O O1 0.778049 0.327908 0.500000
O O2 0.750000 0.250000 0.622685
O O3 0.826391 0.358678 0.620653
O O4 0.735161 0.405171 0.611284
O O5 0.415915 0.133211 0.925310
O O6 0.500000 0.130698 0.000000
O O7 0.445209 0.000000 0.000000
O O8 0.500000 0.169277 0.694243
O O9 0.575577 0.250000 0.750000
O O10 0.581616 0.139524 0.635735
O O11 0.566079 0.098005 0.780489
O O12 0.372133 0.500000 0.108034
O O13 0.383988 0.389171 0.000000
O O14 0.298842 0.500000 0.723673
O O15 0.250000 0.364188 0.750000
O O16 0.343715 0.365113 0.683760
O O17 0.117860 0.500000 0.132694
#
# Coordination Sequence:
#
# PCOD8285186 Si02
#       6
#    32  16  32  32  32  32
#     4  10  22  38  60  91 126 167 208 252 317 385
#     4   9  18  34  56  86 117 148 201 257 305 372
#     4  11  25  43  63  93 129 170 218 269 338 405
#     4  10  22  43  71 100 131 172 224 281 335 397
#     4  10  21  36  56  85 119 157 206 258 309 376
#     4  10  21  37  61  88 119 162 209 258 316 383
#
# _framework density 22.351230000000001
#
# number of rings (size 3 to 8) (size 9 to 14) (size 15 to 20)
#    0.000    1.909    0.000    2.727    3.818    5.455 
#    1.636    0.909    0.000    0.000    0.000    0.000 
#    0.000    0.000    0.000    0.000    0.000    0.000 
#
# Total GULP energy -545174.085380 kJ/mol
# GULP energy per Si atom -12390.320122 kJ/mol
# Density = 2.230036 g / cm^3
# Si number density = 22.351230 Si / 1000 Ang^3
#
#
#
# Elastic Constant Matrix: (Units=GPa)
#
#
# Indices 1 2 3 4 5 6 
#
# 1 157.6275 53.5216 70.7307 0.0000 0.0000 0.0000
# 2 53.5216 62.9073 42.4167 0.0000 0.0000 0.0000
# 3 70.7307 42.4167 85.4830 0.0000 0.0000 0.0000
# 4 0.0000 0.0000 0.0000 30.1449 0.0000 0.0000
# 5 0.0000 0.0000 0.0000 0.0000 47.8484 0.0000
# 6 0.0000 0.0000 0.0000 0.0000 0.0000 25.8451
#
#
#
# Elastic Compliance Matrix: (Units=1/GPa)
#
#
# Indices 1 2 3 4 5 6 
#
# 1 0.010990 -0.004837 -0.006693 0.000000 0.000000 0.000000
# 2 -0.004837 0.026018 -0.008908 0.000000 0.000000 0.000000
# 3 -0.006693 -0.008908 0.021656 0.000000 0.000000 0.000000
# 4 0.000000 0.000000 0.000000 0.033173 0.000000 0.000000
# 5 0.000000 0.000000 0.000000 0.000000 0.020899 0.000000
# 6 0.000000 0.000000 0.000000 0.000000 0.000000 0.038692
#
#
# Mechanical properties :
#
#
# Convention : Reuss Voigt Hill
#
# Bulk Modulus (GPa) = 56.21704 71.03953 63.62829
# Shear Modulus (GPa) = 25.22269 30.05761 27.64015
#
# Velocity S-wave (km/s) = 3.36291 3.67111 3.52039
# Velocity P-wave (km/s) = 6.34706 7.05845 6.71219
#
# Compressibility (1/GPa) = 0.01778820
#
# Stress axis : x y z
#
# Youngs Moduli (GPa) = 90.99338 38.43459 46.17613
#
# Poissons Ratio (x) = 0.18592 0.30906
# Poissons Ratio (y) = 0.44016 0.41133
# Poissons Ratio (z) = 0.60902 0.34237
#
# Static dielectric constant tensor:
#      x y z
#    x 4.201190 0.000000 0.000000 
#    y 0.000000 3.897500 0.000000 
#    z 0.000000 0.000000 4.036000 
# 
# 
# High freq. dielectric constant tensor:
#      x y z
#    x 1.892450 0.000000 0.000000 
#    y 0.000000 1.849700 0.000000 
#    z 0.000000 0.000000 1.887900 
# 
# From -- ./inp_files/26767.got.cif
#   From: 2010.03.12/outbox.cif.g09.slc.cpg/sg69_14_cif.got.tgz:26767.got - 2010.04.10 23:52:46.
