data_PCOD8285623
_publ_section_title
;
Structure prediction by ZEFSAII (Michael W. Deem and Ramdas Pophale) SiO2 
 PCOD8285623
Probable space group: F M M M
;
_chemical_formula_sum "Si O2"
_cell_formula_units_Z 96
_cell_length_a 22.011378
_cell_length_b 22.081853
_cell_length_c 9.942037
_cell_angle_alpha 90.000000
_cell_angle_beta 90.000000
_cell_angle_gamma 90.000000
_cell_volume 4832.347100
_symmetry_space_group_name_H-M "F M M M"
_symmetry_group_IT_number 69
_symmetry_cell_setting 'orthorhombic'
loop_
_space_group_symop_operation_xyz
x,y,z
-x,-y,z
x,-y,-z
-x,y,-z
-x,-y,-z
x,y,-z
-x,y,z
x,-y,z
x,1/2+y,1/2+z
-x,1/2-y,1/2+z
x,1/2-y,1/2-z
-x,1/2+y,1/2-z
-x,1/2-y,1/2-z
x,1/2+y,1/2-z
-x,1/2+y,1/2+z
x,1/2-y,1/2+z
1/2+x,y,1/2+z
1/2-x,-y,1/2+z
1/2+x,-y,1/2-z
1/2-x,y,1/2-z
1/2-x,-y,1/2-z
1/2+x,y,1/2-z
1/2-x,y,1/2+z
1/2+x,-y,1/2+z
1/2+x,1/2+y,z
1/2-x,1/2-y,z
1/2+x,1/2-y,-z
1/2-x,1/2+y,-z
1/2-x,1/2-y,-z
1/2+x,1/2+y,-z
1/2-x,1/2+y,z
1/2+x,1/2-y,z
loop_
_atom_site_type_symbol
_atom_site_label
_atom_site_fract_x
_atom_site_fract_y
_atom_site_fract_z
Si Si1 0.571910 0.000000 0.160544
Si Si2 0.617460 0.626932 0.269726
Si Si3 0.835185 0.186409 0.000000
Si Si4 0.691831 0.675839 0.500000
Si Si5 0.500000 0.803647 0.851988
O O1 0.604650 0.055624 0.235824
O O2 0.500000 0.000000 0.189246
O O3 0.584479 0.000000 0.000000
O O4 0.674177 0.639841 0.366254
O O5 0.558221 0.655130 0.335544
O O6 0.631724 0.656140 0.126227
O O7 0.763834 0.176232 0.000000
O O8 0.842596 0.259052 0.000000
O O9 0.500000 0.750000 0.750000
O O10 0.500000 0.774796 0.000000
#
# Coordination Sequence:
#
# PCOD8285623 Si02
#       5
#    16  32  16  16  16
#     4  11  22  45  68  90 129 182 225 268 328 405
#     4  12  24  42  68  98 129 175 225 267 328 399
#     4  11  26  42  67 100 140 168 214 279 340 385
#     4  11  22  46  69  96 132 182 216 263 332 405
#     4  12  24  39  65  98 132 167 217 280 339 399
#
# _framework density 19.866123000000002
#
# number of rings (size 3 to 8) (size 9 to 14) (size 15 to 20)
#    0.000    0.500    5.000    4.000    2.333    3.333 
#    0.000    5.833    0.000    0.000    0.000    0.000 
#    0.000    0.000    0.000    0.000    0.000    0.000 
#
# Total GULP energy -297651.843049 kJ/mol
# GULP energy per Si atom -12402.160127 kJ/mol
# Density = 1.982091 g / cm^3
# Si number density = 19.866123 Si / 1000 Ang^3
#
#
#
# Elastic Constant Matrix: (Units=GPa)
#
#
# Indices 1 2 3 4 5 6 
#
# 1 77.9656 38.3540 36.3250 0.0000 0.0001 0.0000
# 2 38.3540 145.3490 42.2679 0.0000 0.0001 0.0000
# 3 36.3250 42.2679 145.1566 0.0002 0.0003 0.0001
# 4 0.0000 0.0000 0.0002 46.4806 -0.0003 0.0000
# 5 0.0001 0.0001 0.0003 -0.0003 28.0098 -0.0001
# 6 0.0000 0.0000 0.0001 0.0000 -0.0001 17.1739
#
#
#
# Elastic Compliance Matrix: (Units=1/GPa)
#
#
# Indices 1 2 3 4 5 6 
#
# 1 0.015854 -0.003310 -0.003004 0.000000 0.000000 0.000000
# 2 -0.003310 0.008208 -0.001562 0.000000 0.000000 0.000000
# 3 -0.003004 -0.001562 0.008095 0.000000 0.000000 0.000000
# 4 0.000000 0.000000 0.000000 0.021514 0.000000 0.000000
# 5 0.000000 0.000000 0.000000 0.000000 0.035702 0.000000
# 6 0.000000 0.000000 0.000000 0.000000 0.000000 0.058228
#
#
# Mechanical properties :
#
#
# Convention : Reuss Voigt Hill
#
# Bulk Modulus (GPa) = 60.95135 66.92944 63.94040
# Shear Modulus (GPa) = 29.61734 35.10116 32.35925
#
# Velocity S-wave (km/s) = 3.86534 4.20799 4.04030
# Velocity P-wave (km/s) = 7.11820 7.57450 7.34989
#
# Compressibility (1/GPa) = 0.01640653
#
# Stress axis : x y z
#
# Youngs Moduli (GPa) = 63.07617 121.83920 123.52597
#
# Poissons Ratio (x) = 0.40329 0.37102
# Poissons Ratio (y) = 0.20878 0.19290
# Poissons Ratio (z) = 0.18945 0.19027
#
# Static dielectric constant tensor:
#      x y z
#    x 3.736100 0.000000 0.000000 
#    y 0.000000 3.893710 0.000000 
#    z 0.000000 0.000000 3.218070 
# 
# 
# High freq. dielectric constant tensor:
#      x y z
#    x 1.788370 0.000000 0.000000 
#    y 0.000000 1.778660 0.000000 
#    z 0.000000 0.000000 1.779310 
# 
# From -- ./inp_files/3499.got.cif
#   From: 2010.03.12/outbox.cif.g09.slc.cpg/sg69_2_cif.got.tgz:3499.got - 2010.04.10 23:52:46.
