data_PCOD8285175
_publ_section_title
;
Structure prediction by ZEFSAII (Michael W. Deem and Ramdas Pophale) SiO2 
 PCOD8285175
Probable space group: F M M M
;
_chemical_formula_sum "Si O2"
_cell_formula_units_Z 192
_cell_length_a 12.462706
_cell_length_b 29.306094
_cell_length_c 24.810054
_cell_angle_alpha 90.000000
_cell_angle_beta 90.000000
_cell_angle_gamma 90.000000
_cell_volume 9061.456246
_symmetry_space_group_name_H-M "F M M M"
_symmetry_group_IT_number 69
_symmetry_cell_setting 'orthorhombic'
loop_
_space_group_symop_operation_xyz
x,y,z
-x,-y,z
x,-y,-z
-x,y,-z
-x,-y,-z
x,y,-z
-x,y,z
x,-y,z
x,1/2+y,1/2+z
-x,1/2-y,1/2+z
x,1/2-y,1/2-z
-x,1/2+y,1/2-z
-x,1/2-y,1/2-z
x,1/2+y,1/2-z
-x,1/2+y,1/2+z
x,1/2-y,1/2+z
1/2+x,y,1/2+z
1/2-x,-y,1/2+z
1/2+x,-y,1/2-z
1/2-x,y,1/2-z
1/2-x,-y,1/2-z
1/2+x,y,1/2-z
1/2-x,y,1/2+z
1/2+x,-y,1/2+z
1/2+x,1/2+y,z
1/2-x,1/2-y,z
1/2+x,1/2-y,-z
1/2-x,1/2+y,-z
1/2-x,1/2-y,-z
1/2+x,1/2+y,-z
1/2-x,1/2+y,z
1/2+x,1/2-y,z
loop_
_atom_site_type_symbol
_atom_site_label
_atom_site_fract_x
_atom_site_fract_y
_atom_site_fract_z
Si Si1 0.628581 0.723921 0.669572
Si Si2 0.122292 0.406042 0.343795
Si Si3 0.717191 0.589816 0.559670
Si Si4 0.877305 0.500000 0.101268
Si Si5 0.872099 0.182007 0.780006
Si Si6 0.623887 0.314484 0.558761
Si Si7 0.296814 0.500000 0.808100
O O1 0.500000 0.721054 0.669581
O O2 0.667791 0.775789 0.681900
O O3 0.670742 0.689479 0.717928
O O4 0.675632 0.710653 0.610666
O O5 0.184948 0.406067 0.399546
O O6 0.166156 0.366545 0.303750
O O7 0.131095 0.455148 0.315679
O O8 0.000000 0.395785 0.358568
O O9 0.768105 0.589827 0.500000
O O10 0.647413 0.544461 0.566297
O O11 0.636470 0.631658 0.567836
O O12 0.805846 0.500000 0.154058
O O13 0.000000 0.500000 0.119860
O O14 0.000000 0.184654 0.777687
O O15 0.675206 0.300146 0.500000
O O16 0.500000 0.302094 0.556592
O O17 0.250000 0.500000 0.750000
#
# Coordination Sequence:
#
# PCOD8285175 Si02
#       7
#    32  32  32  16  32  32  16
#     4   8  14  28  51  78 106 139 182 227 273 323
#     4  10  21  38  58  80 109 145 185 227 270 320
#     4  10  21  36  54  79 110 143 183 229 277 332
#     4  10  21  37  59  85 110 139 180 230 279 328
#     4   8  15  29  52  79 105 138 182 229 270 315
#     4   9  17  30  50  77 111 148 181 221 279 340
#     4  10  23  40  58  84 116 146 177 216 270 336
#
# _framework density 21.188648000000001
#
# number of rings (size 3 to 8) (size 9 to 14) (size 15 to 20)
#    0.000    2.833    0.000    2.000    0.000    5.000 
#    0.000    3.333    0.000   10.000    0.000    0.000 
#    0.000    0.000    0.000    3.833    0.000    0.167 
#
# Total GULP energy -595105.476337 kJ/mol
# GULP energy per Si atom -12398.030757 kJ/mol
# Density = 2.114042 g / cm^3
# Si number density = 21.188648 Si / 1000 Ang^3
#
#
#
# Elastic Constant Matrix: (Units=GPa)
#
#
# Indices 1 2 3 4 5 6 
#
# 1 56.1138 26.9193 30.8006 0.0000 0.0000 0.0000
# 2 26.9193 155.6290 82.6075 0.0000 0.0000 0.0000
# 3 30.8006 82.6075 180.7944 0.0000 0.0000 0.0000
# 4 0.0000 0.0000 0.0000 32.2431 0.0000 0.0000
# 5 0.0000 0.0000 0.0000 0.0000 21.4255 0.0000
# 6 0.0000 0.0000 0.0000 0.0000 0.0000 31.0096
#
#
#
# Elastic Compliance Matrix: (Units=1/GPa)
#
#
# Indices 1 2 3 4 5 6 
#
# 1 0.020216 -0.002203 -0.002437 0.000000 0.000000 0.000000
# 2 -0.002203 0.008723 -0.003610 0.000000 0.000000 0.000000
# 3 -0.002437 -0.003610 0.007596 0.000000 0.000000 0.000000
# 4 0.000000 0.000000 0.000000 0.031014 0.000000 0.000000
# 5 0.000000 0.000000 0.000000 0.000000 0.046673 0.000000
# 6 0.000000 0.000000 0.000000 0.000000 0.000000 0.032248
#
#
# Mechanical properties :
#
#
# Convention : Reuss Voigt Hill
#
# Bulk Modulus (GPa) = 49.91724 74.79910 62.35817
# Shear Modulus (GPa) = 29.47251 33.74961 31.61106
#
# Velocity S-wave (km/s) = 3.73360 3.99534 3.86669
# Velocity P-wave (km/s) = 6.49584 7.52740 7.03057
#
# Compressibility (1/GPa) = 0.02003316
#
# Stress axis : x y z
#
# Youngs Moduli (GPa) = 49.46671 114.64029 131.64818
#
# Poissons Ratio (x) = 0.25255 0.32088
# Poissons Ratio (y) = 0.10897 0.47529
# Poissons Ratio (z) = 0.12057 0.41389
#
# Static dielectric constant tensor:
#      x y z
#    x 3.716420 0.000000 0.000000 
#    y 0.000000 4.002710 0.000000 
#    z 0.000000 0.000000 4.182100 
# 
# 
# High freq. dielectric constant tensor:
#      x y z
#    x 1.839180 0.000000 0.000000 
#    y 0.000000 1.831670 0.000000 
#    z 0.000000 0.000000 1.839920 
# 
# From -- ./inp_files/41298.got.cif
#   From: 2010.03.12/outbox.cif.g09.slc.cpg/sg69_21_cif.got.tgz:41298.got - 2010.04.10 23:52:46.
