data_PCOD8285157
_publ_section_title
;
Structure prediction by ZEFSAII (Michael W. Deem and Ramdas Pophale) SiO2 
 PCOD8285157
Probable space group: F M M M
;
_chemical_formula_sum "Si O2"
_cell_formula_units_Z 136
_cell_length_a 22.353066
_cell_length_b 24.486849
_cell_length_c 12.858542
_cell_angle_alpha 90.000000
_cell_angle_beta 90.000000
_cell_angle_gamma 90.000000
_cell_volume 7038.202067
_symmetry_space_group_name_H-M "F M M M"
_symmetry_group_IT_number 69
_symmetry_cell_setting 'orthorhombic'
loop_
_space_group_symop_operation_xyz
x,y,z
-x,-y,z
x,-y,-z
-x,y,-z
-x,-y,-z
x,y,-z
-x,y,z
x,-y,z
x,1/2+y,1/2+z
-x,1/2-y,1/2+z
x,1/2-y,1/2-z
-x,1/2+y,1/2-z
-x,1/2-y,1/2-z
x,1/2+y,1/2-z
-x,1/2+y,1/2+z
x,1/2-y,1/2+z
1/2+x,y,1/2+z
1/2-x,-y,1/2+z
1/2+x,-y,1/2-z
1/2-x,y,1/2-z
1/2-x,-y,1/2-z
1/2+x,y,1/2-z
1/2-x,y,1/2+z
1/2+x,-y,1/2+z
1/2+x,1/2+y,z
1/2-x,1/2-y,z
1/2+x,1/2-y,-z
1/2-x,1/2+y,-z
1/2-x,1/2-y,-z
1/2+x,1/2+y,-z
1/2-x,1/2+y,z
1/2+x,1/2-y,z
loop_
_atom_site_type_symbol
_atom_site_label
_atom_site_fract_x
_atom_site_fract_y
_atom_site_fract_z
Si Si1 0.000000 0.813451 0.276960
Si Si2 0.373536 0.165120 0.712088
Si Si3 0.000000 0.866033 0.500000
Si Si4 0.877275 0.436662 0.000000
Si Si5 0.182986 0.760954 0.385012
Si Si6 0.819165 0.939099 0.720969
O O1 0.000000 0.750000 0.250000
O O2 0.944162 0.840726 0.220386
O O3 0.000000 0.826125 0.400138
O O4 0.347653 0.193565 0.815477
O O5 0.353500 0.203606 0.616741
O O6 0.349808 0.103697 0.700829
O O7 0.939434 0.902537 0.500000
O O8 0.836005 0.423755 0.898661
O O9 0.896206 0.500000 0.000000
O O10 0.182394 0.785165 0.500000
O O11 0.250000 0.750000 0.345763
O O12 0.750000 0.935297 0.750000
O O13 0.842872 0.000000 0.745594
#
# Coordination Sequence:
#
# PCOD8285157 Si02
#       6
#    16  32   8  16  32  32
#     4  12  24  37  57  84 115 158 201 239 299 356
#     4  11  21  38  55  81 118 152 193 245 295 357
#     4  12  23  40  64  84 124 162 193 260 306 348
#     4  10  21  38  64  95 118 152 203 248 307 366
#     4  10  21  35  57  83 110 149 193 243 300 359
#     4  10  21  38  60  87 122 157 193 243 301 361
#
# _framework density 19.323117
#
# number of rings (size 3 to 8) (size 9 to 14) (size 15 to 20)
#    0.000    1.412    4.706    3.000    3.294    0.000 
#    2.118    0.588    0.000    0.000    0.000    0.000 
#    0.000    1.882    0.000    0.000    0.000    0.000 
#
# Total GULP energy -421359.963205 kJ/mol
# GULP energy per Si atom -12392.940094 kJ/mol
# Density = 1.927914 g / cm^3
# Si number density = 19.323117 Si / 1000 Ang^3
#
#
#
# Elastic Constant Matrix: (Units=GPa)
#
#
# Indices 1 2 3 4 5 6 
#
# 1 141.0015 42.1929 24.0935 0.0000 0.0000 0.0000
# 2 42.1929 116.6588 8.0632 0.0000 0.0000 0.0000
# 3 24.0935 8.0632 59.7122 0.0000 0.0000 0.0000
# 4 0.0000 0.0000 0.0000 18.1033 0.0000 0.0000
# 5 0.0000 0.0000 0.0000 0.0000 19.6970 0.0000
# 6 0.0000 0.0000 0.0000 0.0000 0.0000 24.0092
#
#
#
# Elastic Compliance Matrix: (Units=1/GPa)
#
#
# Indices 1 2 3 4 5 6 
#
# 1 0.008463 -0.002852 -0.003030 0.000000 0.000000 0.000000
# 2 -0.002852 0.009614 -0.000148 0.000000 0.000000 0.000000
# 3 -0.003030 -0.000148 0.017989 0.000000 0.000000 0.000000
# 4 0.000000 0.000000 0.000000 0.055239 0.000000 0.000000
# 5 0.000000 0.000000 0.000000 0.000000 0.050769 0.000000
# 6 0.000000 0.000000 0.000000 0.000000 0.000000 0.041651
#
#
# Mechanical properties :
#
#
# Convention : Reuss Voigt Hill
#
# Bulk Modulus (GPa) = 41.65216 51.78573 46.71895
# Shear Modulus (GPa) = 24.53563 28.56341 26.54952
#
# Velocity S-wave (km/s) = 3.56723 3.84891 3.71074
# Velocity P-wave (km/s) = 6.21041 6.82716 6.52608
#
# Compressibility (1/GPa) = 0.02400836
#
# Stress axis : x y z
#
# Youngs Moduli (GPa) = 118.15993 104.02007 55.58821
#
# Poissons Ratio (x) = 0.29661 0.16842
# Poissons Ratio (y) = 0.33693 0.00820
# Poissons Ratio (z) = 0.35800 0.01535
#
# Static dielectric constant tensor:
#      x y z
#    x 3.300200 0.000000 0.000000 
#    y 0.000000 3.739260 0.000000 
#    z 0.000000 0.000000 3.466650 
# 
# 
# High freq. dielectric constant tensor:
#      x y z
#    x 1.761400 0.000000 0.000000 
#    y 0.000000 1.757530 0.000000 
#    z 0.000000 0.000000 1.732380 
# 
# From -- ./inp_files/16600.got.cif
#   From: 2010.03.12/outbox.cif.g09.slc.cpg/sg69_9_cif.got.tgz:16600.got - 2010.04.10 23:52:46.
