data_PCOD8285146
_publ_section_title
;
Structure prediction by ZEFSAII (Michael W. Deem and Ramdas Pophale) SiO2 
 PCOD8285146
Probable space group: F M M M
;
_chemical_formula_sum "Si O2"
_cell_formula_units_Z 176
_cell_length_a 22.844985
_cell_length_b 17.662375
_cell_length_c 23.287558
_cell_angle_alpha 90.000000
_cell_angle_beta 90.000000
_cell_angle_gamma 90.000000
_cell_volume 9396.452616
_symmetry_space_group_name_H-M "F M M M"
_symmetry_group_IT_number 69
_symmetry_cell_setting 'orthorhombic'
loop_
_space_group_symop_operation_xyz
x,y,z
-x,-y,z
x,-y,-z
-x,y,-z
-x,-y,-z
x,y,-z
-x,y,z
x,-y,z
x,1/2+y,1/2+z
-x,1/2-y,1/2+z
x,1/2-y,1/2-z
-x,1/2+y,1/2-z
-x,1/2-y,1/2-z
x,1/2+y,1/2-z
-x,1/2+y,1/2+z
x,1/2-y,1/2+z
1/2+x,y,1/2+z
1/2-x,-y,1/2+z
1/2+x,-y,1/2-z
1/2-x,y,1/2-z
1/2-x,-y,1/2-z
1/2+x,y,1/2-z
1/2-x,y,1/2+z
1/2+x,-y,1/2+z
1/2+x,1/2+y,z
1/2-x,1/2-y,z
1/2+x,1/2-y,-z
1/2-x,1/2+y,-z
1/2-x,1/2-y,-z
1/2+x,1/2+y,-z
1/2-x,1/2+y,z
1/2+x,1/2-y,z
loop_
_atom_site_type_symbol
_atom_site_label
_atom_site_fract_x
_atom_site_fract_y
_atom_site_fract_z
Si Si1 0.432328 0.312141 0.932860
Si Si2 0.654673 0.410957 0.141379
Si Si3 0.617348 0.655120 0.433603
Si Si4 0.273595 0.831812 0.867482
Si Si5 0.566613 0.500000 0.568433
Si Si6 0.182632 0.082789 0.265951
O O1 0.500000 0.331406 0.922673
O O2 0.394504 0.370337 0.895814
O O3 0.419409 0.227063 0.910391
O O4 0.415364 0.320810 0.000000
O O5 0.648032 0.500000 0.131939
O O6 0.719751 0.387815 0.120757
O O7 0.647609 0.389287 0.209079
O O8 0.604152 0.648446 0.500000
O O9 0.686505 0.670312 0.424242
O O10 0.596835 0.575635 0.405229
O O11 0.250000 0.750000 0.850028
O O12 0.319963 0.857795 0.818031
O O13 0.500000 0.500000 0.588932
O O14 0.572016 0.500000 0.500000
O O15 0.250000 0.074651 0.250000
O O16 0.158906 0.000000 0.285107
#
# Coordination Sequence:
#
# PCOD8285146 Si02
#       6
#    32  32  32  32  16  32
#     4  10  21  39  60  81 110 150 195 237 278 331
#     4  10  21  37  55  83 115 146 186 232 280 334
#     4  10  21  35  53  83 117 149 185 232 287 340
#     4  11  20  33  55  85 113 148 185 231 281 348
#     4   9  18  34  56  78 103 146 195 231 273 336
#     4   8  17  33  53  76 107 142 181 225 272 328
#
# _framework density 18.730473
#
# number of rings (size 3 to 8) (size 9 to 14) (size 15 to 20)
#    0.000    2.273    1.818    2.182    2.545    7.273 
#    0.000    0.909    0.000    3.273    0.000    0.000 
#    0.000    0.000    0.000    0.000    0.000    0.000 
#
# Total GULP energy -545338.255470 kJ/mol
# GULP energy per Si atom -12394.051261 kJ/mol
# Density = 1.868784 g / cm^3
# Si number density = 18.730473 Si / 1000 Ang^3
#
#
#
# Elastic Constant Matrix: (Units=GPa)
#
#
# Indices 1 2 3 4 5 6 
#
# 1 98.8660 57.2646 39.6783 0.0000 0.0000 0.0000
# 2 57.2646 147.3457 49.9679 0.0000 0.0000 0.0000
# 3 39.6783 49.9679 36.8341 0.0000 0.0000 0.0000
# 4 0.0000 0.0000 0.0000 25.3556 0.0000 0.0000
# 5 0.0000 0.0000 0.0000 0.0000 24.5511 0.0000
# 6 0.0000 0.0000 0.0000 0.0000 0.0000 21.7999
#
#
#
# Elastic Compliance Matrix: (Units=1/GPa)
#
#
# Indices 1 2 3 4 5 6 
#
# 1 0.017865 -0.000772 -0.018197 0.000000 0.000000 0.000000
# 2 -0.000772 0.012602 -0.016264 0.000000 0.000000 0.000000
# 3 -0.018197 -0.016264 0.068814 0.000000 0.000000 0.000000
# 4 0.000000 0.000000 0.000000 0.039439 0.000000 0.000000
# 5 0.000000 0.000000 0.000000 0.000000 0.040731 0.000000
# 6 0.000000 0.000000 0.000000 0.000000 0.000000 0.045872
#
#
# Mechanical properties :
#
#
# Convention : Reuss Voigt Hill
#
# Bulk Modulus (GPa) = 34.70415 64.09638 49.40027
# Shear Modulus (GPa) = 16.37219 23.41698 19.89459
#
# Velocity S-wave (km/s) = 2.95972 3.53966 3.26260
# Velocity P-wave (km/s) = 5.49984 7.14145 6.37372
#
# Compressibility (1/GPa) = 0.02881500
#
# Stress axis : x y z
#
# Youngs Moduli (GPa) = 55.97524 79.35032 14.53183
#
# Poissons Ratio (x) = 0.06126 0.26444
# Poissons Ratio (y) = 0.04322 0.23635
# Poissons Ratio (z) = 1.01859 1.29057
#
# Static dielectric constant tensor:
#      x y z
#    x 3.233520 0.000000 0.000000 
#    y 0.000000 3.710880 0.000000 
#    z 0.000000 0.000000 3.527500 
# 
# 
# High freq. dielectric constant tensor:
#      x y z
#    x 1.704430 0.000000 0.000000 
#    y 0.000000 1.742860 0.000000 
#    z 0.000000 0.000000 1.706500 
# 
# From -- ./inp_files/41848.got.cif
#   From: 2010.03.12/outbox.cif.g09.slc.cpg/sg69_21_cif.got.tgz:41848.got - 2010.04.10 23:52:46.
