data_PCOD8285074
_publ_section_title
;
Structure prediction by ZEFSAII (Michael W. Deem and Ramdas Pophale) SiO2 
 PCOD8285074
Probable space group: F M M M
;
_chemical_formula_sum "Si O2"
_cell_formula_units_Z 192
_cell_length_a 18.141177
_cell_length_b 31.574978
_cell_length_c 14.910368
_cell_angle_alpha 90.000000
_cell_angle_beta 90.000000
_cell_angle_gamma 90.000000
_cell_volume 8540.767109
_symmetry_space_group_name_H-M "F M M M"
_symmetry_group_IT_number 69
_symmetry_cell_setting 'orthorhombic'
loop_
_space_group_symop_operation_xyz
x,y,z
-x,-y,z
x,-y,-z
-x,y,-z
-x,-y,-z
x,y,-z
-x,y,z
x,-y,z
x,1/2+y,1/2+z
-x,1/2-y,1/2+z
x,1/2-y,1/2-z
-x,1/2+y,1/2-z
-x,1/2-y,1/2-z
x,1/2+y,1/2-z
-x,1/2+y,1/2+z
x,1/2-y,1/2+z
1/2+x,y,1/2+z
1/2-x,-y,1/2+z
1/2+x,-y,1/2-z
1/2-x,y,1/2-z
1/2-x,-y,1/2-z
1/2+x,y,1/2-z
1/2-x,y,1/2+z
1/2+x,-y,1/2+z
1/2+x,1/2+y,z
1/2-x,1/2-y,z
1/2+x,1/2-y,-z
1/2-x,1/2+y,-z
1/2-x,1/2-y,-z
1/2+x,1/2+y,-z
1/2-x,1/2+y,z
1/2+x,1/2-y,z
loop_
_atom_site_type_symbol
_atom_site_label
_atom_site_fract_x
_atom_site_fract_y
_atom_site_fract_z
Si Si1 0.000000 0.045487 0.742541
Si Si2 0.080509 0.167937 0.605054
Si Si3 0.230584 0.453337 0.352055
Si Si4 0.839859 0.867899 0.103043
Si Si5 0.230470 0.703714 0.107395
Si Si6 0.000000 0.385349 0.603279
Si Si7 0.388270 0.928243 0.099626
O O1 0.929019 0.046354 0.677455
O O2 0.000000 0.078025 0.823415
O O3 0.000000 0.000000 0.790304
O O4 0.075087 0.175531 0.500000
O O5 0.147597 0.195645 0.644104
O O6 0.101386 0.120160 0.627623
O O7 0.000000 0.179009 0.648254
O O8 0.201996 0.500000 0.385875
O O9 0.250000 0.457603 0.250000
O O10 0.170792 0.415906 0.361062
O O11 0.302940 0.440314 0.406990
O O12 0.787597 0.831677 0.147400
O O13 0.926446 0.856802 0.118292
O O14 0.818216 0.868677 0.000000
O O15 0.250000 0.750000 0.144546
O O16 0.233242 0.702526 0.000000
O O17 0.000000 0.403007 0.500000
O O18 0.422037 0.936401 0.000000
#
# Coordination Sequence:
#
# PCOD8285074 Si02
#       7
#    16  32  32  32  32  16  32
#     4  12  25  39  58  90 126 163 210 264 324 386
#     4   9  16  30  53  84 122 162 202 241 301 383
#     4  11  23  37  55  83 117 160 212 259 310 376
#     4  10  20  38  61  83 113 155 205 260 315 370
#     4   9  17  32  57  90 124 156 199 258 317 380
#     4  10  24  44  63  83 113 164 222 272 321 372
#     4  11  21  36  59  89 127 167 205 253 318 391
#
# _framework density 22.480416000000002
#
# number of rings (size 3 to 8) (size 9 to 14) (size 15 to 20)
#    0.000    1.833    2.500    2.250    0.000    4.833 
#    1.500    1.667    0.000    0.500    0.000    1.167 
#    0.000    0.000    0.000    0.000    0.000    0.000 
#
# Total GULP energy -594741.691364 kJ/mol
# GULP energy per Si atom -12390.451903 kJ/mol
# Density = 2.242925 g / cm^3
# Si number density = 22.480416 Si / 1000 Ang^3
#
#
#
# Elastic Constant Matrix: (Units=GPa)
#
#
# Indices 1 2 3 4 5 6 
#
# 1 168.4680 88.8106 12.7688 0.0000 0.0000 0.0000
# 2 88.8106 156.7551 12.5740 0.0000 0.0000 0.0000
# 3 12.7688 12.5740 47.5727 0.0000 0.0000 0.0000
# 4 0.0000 0.0000 0.0000 -26.5646 0.0000 0.0000
# 5 0.0000 0.0000 0.0000 0.0000 17.0251 0.0000
# 6 0.0000 0.0000 0.0000 0.0000 0.0000 38.7380
#
#
#
# Elastic Compliance Matrix: (Units=1/GPa)
#
#
# Indices 1 2 3 4 5 6 
#
# 1 0.008513 -0.004740 -0.001032 0.000000 0.000000 0.000000
# 2 -0.004740 0.009157 -0.001148 0.000000 0.000000 0.000000
# 3 -0.001032 -0.001148 0.021601 0.000000 0.000000 0.000000
# 4 0.000000 0.000000 0.000000 -0.037644 0.000000 0.000000
# 5 0.000000 0.000000 0.000000 0.000000 0.058737 0.000000
# 6 0.000000 0.000000 0.000000 0.000000 0.000000 0.025814
#
#
# Mechanical properties :
#
#
# Convention : Reuss Voigt Hill
#
# Bulk Modulus (GPa) = 39.32311 66.78919 53.05615
# Shear Modulus (GPa) = 46.08474 23.08252 34.58363
#
# Velocity S-wave (km/s) = 4.53260 3.20782 3.92649
# Velocity P-wave (km/s) = 6.70244 6.59504 6.64896
#
# Compressibility (1/GPa) = 0.02543034
#
# Stress axis : x y z
#
# Youngs Moduli (GPa) = 117.46750 109.20468 46.29438
#
# Poissons Ratio (x) = 0.51766 0.04778
# Poissons Ratio (y) = 0.55683 0.05315
# Poissons Ratio (z) = 0.12123 0.12537
#
# Static dielectric constant tensor:
#      x y z
#    x 4.547510 0.000000 0.000000 
#    y 0.000000 4.243660 0.000000 
#    z 0.000000 0.000000 3.742830 
# 
# 
# High freq. dielectric constant tensor:
#      x y z
#    x 1.897140 0.000000 0.000000 
#    y 0.000000 1.863610 0.000000 
#    z 0.000000 0.000000 1.863560 
# 
# From -- ./inp_files/23757.got.cif
#   From: 2010.03.12/outbox.cif.g09.slc.cpg/sg69_12_cif.got.tgz:23757.got - 2010.04.10 23:52:46.
