data_PCOD8285034
_publ_section_title
;
Structure prediction by ZEFSAII (Michael W. Deem and Ramdas Pophale) SiO2 
 PCOD8285034
Probable space group: F M M M
;
_chemical_formula_sum "Si O2"
_cell_formula_units_Z 160
_cell_length_a 15.151118
_cell_length_b 29.676683
_cell_length_c 18.786463
_cell_angle_alpha 90.000000
_cell_angle_beta 90.000000
_cell_angle_gamma 90.000000
_cell_volume 8447.049900
_symmetry_space_group_name_H-M "F M M M"
_symmetry_group_IT_number 69
_symmetry_cell_setting 'orthorhombic'
loop_
_space_group_symop_operation_xyz
x,y,z
-x,-y,z
x,-y,-z
-x,y,-z
-x,-y,-z
x,y,-z
-x,y,z
x,-y,z
x,1/2+y,1/2+z
-x,1/2-y,1/2+z
x,1/2-y,1/2-z
-x,1/2+y,1/2-z
-x,1/2-y,1/2-z
x,1/2+y,1/2-z
-x,1/2+y,1/2+z
x,1/2-y,1/2+z
1/2+x,y,1/2+z
1/2-x,-y,1/2+z
1/2+x,-y,1/2-z
1/2-x,y,1/2-z
1/2-x,-y,1/2-z
1/2+x,y,1/2-z
1/2-x,y,1/2+z
1/2+x,-y,1/2+z
1/2+x,1/2+y,z
1/2-x,1/2-y,z
1/2+x,1/2-y,-z
1/2-x,1/2+y,-z
1/2-x,1/2-y,-z
1/2+x,1/2+y,-z
1/2-x,1/2+y,z
1/2+x,1/2-y,z
loop_
_atom_site_type_symbol
_atom_site_label
_atom_site_fract_x
_atom_site_fract_y
_atom_site_fract_z
Si Si1 0.102632 0.448172 0.661877
Si Si2 0.000000 0.678805 0.781801
Si Si3 0.160518 0.388280 0.786041
Si Si4 0.811691 0.711416 0.582101
Si Si5 0.500000 0.733175 0.862831
Si Si6 0.235044 0.111382 0.916714
O O1 0.130742 0.500000 0.657016
O O2 0.126762 0.431025 0.740965
O O3 0.152217 0.420722 0.599925
O O4 0.000000 0.441082 0.647267
O O5 0.087855 0.650042 0.787491
O O6 0.000000 0.703878 0.707558
O O7 0.000000 0.713845 0.846446
O O8 0.250000 0.369249 0.750000
O O9 0.181782 0.403710 0.867523
O O10 0.788286 0.711031 0.500000
O O11 0.750000 0.750000 0.619362
O O12 0.914257 0.721774 0.591692
O O13 0.789001 0.661708 0.610479
O O14 0.259593 0.108090 0.000000
#
# Coordination Sequence:
#
# PCOD8285034 Si02
#       6
#    32  16  32  32  16  32
#     4  10  21  38  62  89 117 152 194 243 299 360
#     4  11  22  34  53  82 109 146 194 244 292 338
#     4  10  20  37  59  81 115 151 192 236 287 351
#     4  10  21  37  55  78 113 155 195 236 291 356
#     4  11  21  32  52  80 108 142 193 244 294 337
#     4  10  22  37  58  86 118 155 195 244 297 346
#
# _framework density 18.941524999999999
#
# number of rings (size 3 to 8) (size 9 to 14) (size 15 to 20)
#    0.000    1.800    1.000    3.900    1.400    4.400 
#    0.000    4.500    0.000    0.000    0.000    1.400 
#    0.000    0.000    0.000    0.000    0.000    0.000 
#
# Total GULP energy -495924.174487 kJ/mol
# GULP energy per Si atom -12398.104362 kJ/mol
# Density = 1.889841 g / cm^3
# Si number density = 18.941525 Si / 1000 Ang^3
#
#
#
# Elastic Constant Matrix: (Units=GPa)
#
#
# Indices 1 2 3 4 5 6 
#
# 1 81.6984 35.9948 14.4323 0.0000 0.0000 0.0000
# 2 35.9948 113.8937 35.3431 0.0000 0.0000 0.0000
# 3 14.4323 35.3431 86.6114 0.0000 0.0000 0.0000
# 4 0.0000 0.0000 0.0000 24.0522 0.0000 0.0000
# 5 0.0000 0.0000 0.0000 0.0000 14.1005 0.0000
# 6 0.0000 0.0000 0.0000 0.0000 0.0000 29.9399
#
#
#
# Elastic Compliance Matrix: (Units=1/GPa)
#
#
# Indices 1 2 3 4 5 6 
#
# 1 0.014249 -0.004312 -0.000615 0.000000 0.000000 0.000000
# 2 -0.004312 0.011358 -0.003916 0.000000 0.000000 0.000000
# 3 -0.000615 -0.003916 0.013246 0.000000 0.000000 0.000000
# 4 0.000000 0.000000 0.000000 0.041576 0.000000 0.000000
# 5 0.000000 0.000000 0.000000 0.000000 0.070920 0.000000
# 6 0.000000 0.000000 0.000000 0.000000 0.000000 0.033400
#
#
# Mechanical properties :
#
#
# Convention : Reuss Voigt Hill
#
# Bulk Modulus (GPa) = 47.24399 50.41599 48.82999
# Shear Modulus (GPa) = 23.86730 26.71407 25.29068
#
# Velocity S-wave (km/s) = 3.55357 3.75953 3.65800
# Velocity P-wave (km/s) = 6.46787 6.74684 6.60883
#
# Compressibility (1/GPa) = 0.02116671
#
# Stress axis : x y z
#
# Youngs Moduli (GPa) = 70.18192 88.04124 75.49248
#
# Poissons Ratio (x) = 0.37967 0.04639
# Poissons Ratio (y) = 0.30265 0.29565
# Poissons Ratio (z) = 0.04313 0.34480
#
# Static dielectric constant tensor:
#      x y z
#    x 3.510920 0.000000 0.000000 
#    y 0.000000 3.657870 0.000000 
#    z 0.000000 0.000000 3.435900 
# 
# 
# High freq. dielectric constant tensor:
#      x y z
#    x 1.739590 0.000000 0.000000 
#    y 0.000000 1.737820 0.000000 
#    z 0.000000 0.000000 1.730620 
# 
# From -- ./inp_files/15683.got.cif
#   From: 2010.03.12/outbox.cif.g09.slc.cpg/sg69_8_cif.got.tgz:15683.got - 2010.04.10 23:52:46.
