data_PCOD8285560
_publ_section_title
;
Structure prediction by ZEFSAII (Michael W. Deem and Ramdas Pophale) SiO2 
 PCOD8285560
Probable space group: F M M M
;
_chemical_formula_sum "Si O2"
_cell_formula_units_Z 96
_cell_length_a 12.160454
_cell_length_b 19.471856
_cell_length_c 21.580568
_cell_angle_alpha 90.000000
_cell_angle_beta 90.000000
_cell_angle_gamma 90.000000
_cell_volume 5109.989521
_symmetry_space_group_name_H-M "F M M M"
_symmetry_group_IT_number 69
_symmetry_cell_setting 'orthorhombic'
loop_
_space_group_symop_operation_xyz
x,y,z
-x,-y,z
x,-y,-z
-x,y,-z
-x,-y,-z
x,y,-z
-x,y,z
x,-y,z
x,1/2+y,1/2+z
-x,1/2-y,1/2+z
x,1/2-y,1/2-z
-x,1/2+y,1/2-z
-x,1/2-y,1/2-z
x,1/2+y,1/2-z
-x,1/2+y,1/2+z
x,1/2-y,1/2+z
1/2+x,y,1/2+z
1/2-x,-y,1/2+z
1/2+x,-y,1/2-z
1/2-x,y,1/2-z
1/2-x,-y,1/2-z
1/2+x,y,1/2-z
1/2-x,y,1/2+z
1/2+x,-y,1/2+z
1/2+x,1/2+y,z
1/2-x,1/2-y,z
1/2+x,1/2-y,-z
1/2-x,1/2+y,-z
1/2-x,1/2-y,-z
1/2+x,1/2+y,-z
1/2-x,1/2+y,z
1/2+x,1/2-y,z
loop_
_atom_site_type_symbol
_atom_site_label
_atom_site_fract_x
_atom_site_fract_y
_atom_site_fract_z
Si Si1 0.697061 0.177723 0.930675
Si Si2 0.000000 0.189057 0.341276
Si Si3 0.122056 0.078204 0.890367
Si Si4 0.000000 0.654829 0.297922
O O1 0.750000 0.250000 0.913372
O O2 0.604522 0.163414 0.879913
O O3 0.788349 0.118032 0.930578
O O4 0.646264 0.180055 0.000000
O O5 0.000000 0.269860 0.328404
O O6 0.000000 0.150940 0.275673
O O7 0.109160 0.115047 0.822848
O O8 0.000000 0.081480 0.922635
O O9 0.161348 0.000000 0.882125
#
# Coordination Sequence:
#
# PCOD8285560 Si02
#       4
#    32  16  32  16
#     4  11  22  37  59  86 120 157 196 239 291 347
#     4  11  21  38  58  88 121 149 191 245 291 355
#     4   9  19  40  61  87 117 148 198 244 288 337
#     4   9  19  38  60  88 114 150 197 241 297 339
#
# _framework density 18.786731
#
# number of rings (size 3 to 8) (size 9 to 14) (size 15 to 20)
#    1.000    1.000    3.333    0.500    0.000    2.667 
#    0.000    7.500    0.000    2.000    0.000    0.000 
#    0.000    0.000    0.000    0.000    0.000    0.000 
#
# Total GULP energy -297396.477598 kJ/mol
# GULP energy per Si atom -12391.519900 kJ/mol
# Density = 1.874397 g / cm^3
# Si number density = 18.786731 Si / 1000 Ang^3
#
#
#
# Elastic Constant Matrix: (Units=GPa)
#
#
# Indices 1 2 3 4 5 6 
#
# 1 84.2529 35.5017 39.3175 0.0000 0.0000 0.0000
# 2 35.5017 114.3207 19.6087 0.0000 0.0000 0.0000
# 3 39.3175 19.6087 95.4059 0.0000 0.0000 0.0000
# 4 0.0000 0.0000 0.0000 9.8895 0.0000 0.0000
# 5 0.0000 0.0000 0.0000 0.0000 29.9828 0.0000
# 6 0.0000 0.0000 0.0000 0.0000 0.0000 27.5140
#
#
#
# Elastic Compliance Matrix: (Units=1/GPa)
#
#
# Indices 1 2 3 4 5 6 
#
# 1 0.016331 -0.004060 -0.005896 0.000000 0.000000 0.000000
# 2 -0.004060 0.010076 -0.000398 0.000000 0.000000 0.000000
# 3 -0.005896 -0.000398 0.012993 0.000000 0.000000 0.000000
# 4 0.000000 0.000000 0.000000 0.101117 0.000000 0.000000
# 5 0.000000 0.000000 0.000000 0.000000 0.033352 0.000000
# 6 0.000000 0.000000 0.000000 0.000000 0.000000 0.036345
#
#
# Mechanical properties :
#
#
# Convention : Reuss Voigt Hill
#
# Bulk Modulus (GPa) = 53.49562 53.64838 53.57200
# Shear Modulus (GPa) = 21.08338 26.78070 23.93204
#
# Velocity S-wave (km/s) = 3.35363 3.77969 3.57302
# Velocity P-wave (km/s) = 6.59794 6.90410 6.75276
#
# Compressibility (1/GPa) = 0.01869312
#
# Stress axis : x y z
#
# Youngs Moduli (GPa) = 61.23236 99.24126 76.96484
#
# Poissons Ratio (x) = 0.40295 0.45376
# Poissons Ratio (y) = 0.24862 0.03061
# Poissons Ratio (z) = 0.36101 0.03947
#
# Static dielectric constant tensor:
#      x y z
#    x 3.247580 0.000000 0.000000 
#    y 0.000000 3.372080 0.000000 
#    z 0.000000 0.000000 3.282720 
# 
# 
# High freq. dielectric constant tensor:
#      x y z
#    x 1.711800 0.000000 0.000000 
#    y 0.000000 1.727480 0.000000 
#    z 0.000000 0.000000 1.722070 
# 
# From -- ./inp_files/8948.got.cif
#   From: 2010.03.12/outbox.cif.g09.slc.cpg/sg69_5_cif.got.tgz:8948.got - 2010.04.10 23:52:46.
