data_PCOD8285462
_publ_section_title
;
Structure prediction by ZEFSAII (Michael W. Deem and Ramdas Pophale) SiO2 
 PCOD8285462
Probable space group: F M M M
;
_chemical_formula_sum "Si O2"
_cell_formula_units_Z 160
_cell_length_a 20.096921
_cell_length_b 13.710274
_cell_length_c 26.698235
_cell_angle_alpha 90.000000
_cell_angle_beta 90.000000
_cell_angle_gamma 90.000000
_cell_volume 7356.279318
_symmetry_space_group_name_H-M "F M M M"
_symmetry_group_IT_number 69
_symmetry_cell_setting 'orthorhombic'
loop_
_space_group_symop_operation_xyz
x,y,z
-x,-y,z
x,-y,-z
-x,y,-z
-x,-y,-z
x,y,-z
-x,y,z
x,-y,z
x,1/2+y,1/2+z
-x,1/2-y,1/2+z
x,1/2-y,1/2-z
-x,1/2+y,1/2-z
-x,1/2-y,1/2-z
x,1/2+y,1/2-z
-x,1/2+y,1/2+z
x,1/2-y,1/2+z
1/2+x,y,1/2+z
1/2-x,-y,1/2+z
1/2+x,-y,1/2-z
1/2-x,y,1/2-z
1/2-x,-y,1/2-z
1/2+x,y,1/2-z
1/2-x,y,1/2+z
1/2+x,-y,1/2+z
1/2+x,1/2+y,z
1/2-x,1/2-y,z
1/2+x,1/2-y,-z
1/2-x,1/2+y,-z
1/2-x,1/2-y,-z
1/2+x,1/2+y,-z
1/2-x,1/2+y,z
1/2+x,1/2-y,z
loop_
_atom_site_type_symbol
_atom_site_label
_atom_site_fract_x
_atom_site_fract_y
_atom_site_fract_z
Si Si1 0.780366 0.609403 0.555874
Si Si2 0.688732 0.612609 0.286016
Si Si3 0.424266 0.888560 0.708761
Si Si4 0.855370 0.746733 0.368437
Si Si5 0.878016 0.391627 0.944452
O O1 0.804568 0.640806 0.500000
O O2 0.805555 0.500000 0.567628
O O3 0.807772 0.682294 0.597145
O O4 0.701377 0.612706 0.557237
O O5 0.694224 0.500000 0.303743
O O6 0.750000 0.639561 0.250000
O O7 0.620160 0.633977 0.257229
O O8 0.690589 0.682875 0.333922
O O9 0.500000 0.867133 0.724231
O O10 0.403876 0.821714 0.662638
O O11 0.413826 0.000000 0.691663
O O12 0.903466 0.813998 0.403369
O O13 0.903159 0.500000 0.930196
O O14 0.904044 0.364576 0.000000
#
# Coordination Sequence:
#
# PCOD8285462 Si02
#       5
#    32  32  32  32  32
#     4   9  19  34  52  82 123 160 194 241 302 364
#     4  10  24  41  57  86 127 161 195 249 310 358
#     4  10  24  45  63  82 117 162 205 250 302 363
#     4  12  21  32  60  88 113 149 205 248 297 358
#     4   9  19  34  52  82 123 158 191 240 305 368
#
# _framework density 21.750126000000002
#
# number of rings (size 3 to 8) (size 9 to 14) (size 15 to 20)
#    0.000    2.000    0.000    4.200    5.600    4.000 
#    0.000    0.000    0.000    4.800    0.000    8.400 
#    0.000    0.000    0.000    0.000    0.000    0.000 
#
# Total GULP energy -495958.939682 kJ/mol
# GULP energy per Si atom -12398.973492 kJ/mol
# Density = 2.170062 g / cm^3
# Si number density = 21.750126 Si / 1000 Ang^3
#
#
#
# Elastic Constant Matrix: (Units=GPa)
#
#
# Indices 1 2 3 4 5 6 
#
# 1 70.8793 26.1393 33.5734 0.0000 0.0000 0.0000
# 2 26.1393 136.9044 92.1177 0.0000 0.0000 0.0000
# 3 33.5734 92.1177 141.5180 0.0000 0.0000 0.0000
# 4 0.0000 0.0000 0.0000 59.3811 0.0000 0.0000
# 5 0.0000 0.0000 0.0000 0.0000 16.8227 0.0000
# 6 0.0000 0.0000 0.0000 0.0000 0.0000 15.1477
#
#
#
# Elastic Compliance Matrix: (Units=1/GPa)
#
#
# Indices 1 2 3 4 5 6 
#
# 1 0.015955 -0.000889 -0.003207 0.000000 0.000000 0.000000
# 2 -0.000889 0.013046 -0.008281 0.000000 0.000000 0.000000
# 3 -0.003207 -0.008281 0.013217 0.000000 0.000000 0.000000
# 4 0.000000 0.000000 0.000000 0.016840 0.000000 0.000000
# 5 0.000000 0.000000 0.000000 0.000000 0.059443 0.000000
# 6 0.000000 0.000000 0.000000 0.000000 0.000000 0.066017
#
#
# Mechanical properties :
#
#
# Convention : Reuss Voigt Hill
#
# Bulk Modulus (GPa) = 57.25566 72.55138 64.90352
# Shear Modulus (GPa) = 23.24561 31.43506 27.34033
#
# Velocity S-wave (km/s) = 3.27273 3.80581 3.54929
# Velocity P-wave (km/s) = 6.37671 7.26233 6.83388
#
# Compressibility (1/GPa) = 0.01746552
#
# Stress axis : x y z
#
# Youngs Moduli (GPa) = 62.67577 76.65076 75.65741
#
# Poissons Ratio (x) = 0.06812 0.24261
# Poissons Ratio (y) = 0.05570 0.62654
# Poissons Ratio (z) = 0.20098 0.63477
#
# Static dielectric constant tensor:
#      x y z
#    x 3.419330 0.000000 0.000000 
#    y 0.000000 4.646010 0.000000 
#    z 0.000000 0.000000 4.522100 
# 
# 
# High freq. dielectric constant tensor:
#      x y z
#    x 1.799380 0.000000 0.000000 
#    y 0.000000 1.885200 0.000000 
#    z 0.000000 0.000000 1.865230 
# 
# From -- ./inp_files/43101.got.cif
#   From: 2010.03.12/outbox.cif.g09.slc.cpg/sg69_22_cif.got.tgz:43101.got - 2010.04.10 23:52:46.
