data_PCOD8285724
_publ_section_title
;
Structure prediction by ZEFSAII (Michael W. Deem and Ramdas Pophale) SiO2 
 PCOD8285724
Probable space group: F D D D
;
_chemical_formula_sum "Si O2"
_cell_formula_units_Z 144
_cell_length_a 26.854004
_cell_length_b 29.973539
_cell_length_c 8.920501
_cell_angle_alpha 90.000000
_cell_angle_beta 90.000000
_cell_angle_gamma 90.000000
_cell_volume 7180.196323
_symmetry_space_group_name_H-M "F D D D"
_symmetry_group_IT_number 70
_space_group.IT_coordinate_system_code '2'
_symmetry_cell_setting 'orthorhombic'
loop_
_space_group_symop_operation_xyz
x,y,z
1/4-x,1/4-y,z
x,1/4-y,1/4-z
1/4-x,y,1/4-z
-x,-y,-z
3/4+x,3/4+y,-z
-x,3/4+y,3/4+z
3/4+x,-y,3/4+z
x,1/2+y,1/2+z
1/4-x,3/4-y,1/2+z
x,3/4-y,3/4-z
1/4-x,1/2+y,3/4-z
-x,1/2-y,1/2-z
3/4+x,1/4+y,1/2-z
-x,1/4+y,1/4+z
3/4+x,1/2-y,1/4+z
1/2+x,y,1/2+z
3/4-x,1/4-y,1/2+z
1/2+x,1/4-y,3/4-z
3/4-x,y,3/4-z
1/2-x,-y,1/2-z
1/4+x,3/4+y,1/2-z
1/2-x,3/4+y,1/4+z
1/4+x,-y,1/4+z
1/2+x,1/2+y,z
3/4-x,3/4-y,z
1/2+x,3/4-y,1/4-z
3/4-x,1/2+y,1/4-z
1/2-x,1/2-y,-z
1/4+x,1/4+y,-z
1/2-x,1/4+y,3/4+z
1/4+x,1/2-y,3/4+z
loop_
_atom_site_type_symbol
_atom_site_label
_atom_site_fract_x
_atom_site_fract_y
_atom_site_fract_z
Si Si1 0.125000 0.125000 0.625000
Si Si2 0.125000 0.625000 0.625000
Si Si3 0.856006 0.170988 0.710926
Si Si4 0.089688 0.065843 0.875101
Si Si5 0.676352 0.250357 0.904575
Si Si6 0.280803 0.006102 0.982084
O O1 0.087928 0.096450 0.727930
O O2 0.086895 0.595691 0.524462
O O3 0.849192 0.125000 0.625000
O O4 0.897164 0.202922 0.631538
O O5 0.802228 0.195907 0.715718
O O6 0.875000 0.158668 0.875000
O O7 0.142064 0.040835 0.885637
O O8 0.044549 0.030701 0.858782
O O9 0.721809 0.245890 0.788508
O O10 0.692187 0.244062 0.076421
#
# Coordination Sequence:
#
# PCOD8285724 Si02
#       6
#     8   8  32  32  32  32
#     4  10  16  30  60  78 102 148 196 226 300 326
#     4  10  24  34  52  78 126 148 192 226 308 354
#     4   9  18  35  56  83 116 154 192 239 296 349
#     4  10  18  36  53  82 111 154 184 245 290 355
#     4   9  17  34  60  84 107 146 203 245 283 356
#     4   9  17  34  60  83 110 146 199 244 296 342
#
# _framework density 20.055163
#
# number of rings (size 3 to 8) (size 9 to 14) (size 15 to 20)
#    0.000    2.667    2.222    1.333    0.000    0.000 
#   12.000    3.333    0.000    0.000    0.000    0.000 
#    0.000    0.000    0.000    0.000    0.000    0.000 
#
# Total GULP energy -446250.973508 kJ/mol
# GULP energy per Si atom -12395.860375 kJ/mol
# Density = 2.000952 g / cm^3
# Si number density = 20.055163 Si / 1000 Ang^3
#
#
#
# Elastic Constant Matrix: (Units=GPa)
#
#
# Indices 1 2 3 4 5 6 
#
# 1 128.6737 58.5582 35.5538 0.0127 -0.0248 -0.0273
# 2 58.5582 151.5833 69.7233 0.0079 -0.0165 -0.0167
# 3 35.5538 69.7233 91.0304 0.0328 -0.0573 -0.0583
# 4 0.0127 0.0079 0.0328 29.6802 -0.0245 -0.0165
# 5 -0.0248 -0.0165 -0.0573 -0.0245 24.4242 0.0381
# 6 -0.0273 -0.0167 -0.0583 -0.0165 0.0381 7.7969
#
#
#
# Elastic Compliance Matrix: (Units=1/GPa)
#
#
# Indices 1 2 3 4 5 6 
#
# 1 0.009543 -0.003045 -0.001395 -0.000002 0.000004 0.000016
# 2 -0.003045 0.011157 -0.007356 0.000006 -0.000013 -0.000042
# 3 -0.001395 -0.007356 0.017165 -0.000016 0.000034 0.000107
# 4 -0.000002 0.000006 -0.000016 0.033693 0.000034 0.000071
# 5 0.000004 -0.000013 0.000034 0.000034 0.040943 -0.000200
# 6 0.000016 -0.000042 0.000107 0.000071 -0.000200 0.128258
#
#
# Mechanical properties :
#
#
# Convention : Reuss Voigt Hill
#
# Bulk Modulus (GPa) = 70.06626 77.66198 73.86412
# Shear Modulus (GPa) = 18.57993 26.21039 22.39516
#
# Velocity S-wave (km/s) = 3.04705 3.61905 3.34530
# Velocity P-wave (km/s) = 6.88418 7.50144 7.19943
#
# Compressibility (1/GPa) = 0.01427220
#
# Stress axis : x y z
#
# Youngs Moduli (GPa) = 104.79212 89.63055 58.25907
#
# Poissons Ratio (x) = 0.27291 0.08127
# Poissons Ratio (y) = 0.31907 0.42857
# Poissons Ratio (z) = 0.14618 0.65935
#
# Static dielectric constant tensor:
#      x y z
#    x 3.462510 0.000040 0.000050 
#    y 0.000040 3.710650 -0.000060 
#    z 0.000050 -0.000060 3.529380 
# 
# 
# High freq. dielectric constant tensor:
#      x y z
#    x 1.756990 0.000000 0.000000 
#    y 0.000000 1.791980 -0.000010 
#    z 0.000000 -0.000010 1.772370 
# 
# From -- ./inp_files/12273.got.cif
#   From: 2010.03.12/outbox.cif.g09.slc.cpg/sg70_7_cif.got.tgz:12273.got - 2010.04.16 13:46:32.
