data_PCOD8285914
_publ_section_title
;
Structure prediction by ZEFSAII (Michael W. Deem and Ramdas Pophale) SiO2 
 PCOD8285914
Probable space group: F D D D
;
_chemical_formula_sum "Si O2"
_cell_formula_units_Z 152
_cell_length_a 13.181760
_cell_length_b 28.532662
_cell_length_c 21.286936
_cell_angle_alpha 90.000000
_cell_angle_beta 90.000000
_cell_angle_gamma 90.000000
_cell_volume 8006.244456
_symmetry_space_group_name_H-M "F D D D"
_symmetry_group_IT_number 70
_space_group.IT_coordinate_system_code '2'
_symmetry_cell_setting 'orthorhombic'
loop_
_space_group_symop_operation_xyz
x,y,z
1/4-x,1/4-y,z
x,1/4-y,1/4-z
1/4-x,y,1/4-z
-x,-y,-z
3/4+x,3/4+y,-z
-x,3/4+y,3/4+z
3/4+x,-y,3/4+z
x,1/2+y,1/2+z
1/4-x,3/4-y,1/2+z
x,3/4-y,3/4-z
1/4-x,1/2+y,3/4-z
-x,1/2-y,1/2-z
3/4+x,1/4+y,1/2-z
-x,1/4+y,1/4+z
3/4+x,1/2-y,1/4+z
1/2+x,y,1/2+z
3/4-x,1/4-y,1/2+z
1/2+x,1/4-y,3/4-z
3/4-x,y,3/4-z
1/2-x,-y,1/2-z
1/4+x,3/4+y,1/2-z
1/2-x,3/4+y,1/4+z
1/4+x,-y,1/4+z
1/2+x,1/2+y,z
3/4-x,3/4-y,z
1/2+x,3/4-y,1/4-z
3/4-x,1/2+y,1/4-z
1/2-x,1/2-y,-z
1/4+x,1/4+y,-z
1/2-x,1/4+y,3/4+z
1/4+x,1/2-y,3/4+z
loop_
_atom_site_type_symbol
_atom_site_label
_atom_site_fract_x
_atom_site_fract_y
_atom_site_fract_z
Si Si1 0.044902 0.415073 0.959448
Si Si2 0.176906 0.435635 0.498137
Si Si3 0.625000 0.625000 0.625000
Si Si4 0.656638 0.265330 0.378754
Si Si5 0.375000 0.018417 0.375000
Si Si6 0.638121 0.071761 0.305505
O O1 0.103187 0.366431 0.974532
O O2 0.123494 0.449948 0.927124
O O3 0.947066 0.407932 0.915810
O O4 0.998240 0.436210 0.023672
O O5 0.138946 0.471917 0.445953
O O6 0.125029 0.447619 0.564438
O O7 0.298576 0.439176 0.505219
O O8 0.778526 0.265850 0.378981
O O9 0.618173 0.212726 0.364671
O O10 0.625000 0.125000 0.329920
#
# Coordination Sequence:
#
# PCOD8285914 Si02
#       6
#    32  32   8  32  16  32
#     4  11  18  34  60  91 112 138 180 237 295 344
#     4  10  19  37  57  76 109 149 186 228 284 327
#     4  12  16  32  64  92 116 132 174 230 312 338
#     4  11  20  35  58  83 109 152 190 226 274 340
#     4  10  24  38  51  75 114 158 192 220 266 332
#     4   9  19  35  56  86 117 137 177 237 296 338
#
# _framework density 18.98518
#
# number of rings (size 3 to 8) (size 9 to 14) (size 15 to 20)
#    0.000    1.684    5.263    1.263    0.000    0.000 
#    0.000   14.737    0.000    5.053    0.000    0.000 
#    0.000    0.000    0.000    0.000    0.000    0.000 
#
# Total GULP energy -471137.132053 kJ/mol
# GULP energy per Si atom -12398.345580 kJ/mol
# Density = 1.894197 g / cm^3
# Si number density = 18.985180 Si / 1000 Ang^3
#
#
#
# Elastic Constant Matrix: (Units=GPa)
#
#
# Indices 1 2 3 4 5 6 
#
# 1 100.7284 65.4120 44.9949 0.0000 0.0000 0.0000
# 2 65.4120 127.8795 79.2629 0.0000 0.0000 0.0000
# 3 44.9949 79.2629 116.8554 0.0000 0.0000 0.0000
# 4 0.0000 0.0000 0.0000 23.5982 0.0000 0.0000
# 5 0.0000 0.0000 0.0000 0.0000 27.1332 0.0000
# 6 0.0000 0.0000 0.0000 0.0000 0.0000 32.8266
#
#
#
# Elastic Compliance Matrix: (Units=1/GPa)
#
#
# Indices 1 2 3 4 5 6 
#
# 1 0.014931 -0.007029 -0.000981 0.000000 0.000000 0.000000
# 2 -0.007029 0.016802 -0.008690 0.000000 0.000000 0.000000
# 3 -0.000981 -0.008690 0.014830 0.000000 0.000000 0.000000
# 4 0.000000 0.000000 0.000000 0.042376 0.000000 0.000000
# 5 0.000000 0.000000 0.000000 0.000000 0.036855 0.000000
# 6 0.000000 0.000000 0.000000 0.000000 0.000000 0.030463
#
#
# Mechanical properties :
#
#
# Convention : Reuss Voigt Hill
#
# Bulk Modulus (GPa) = 75.97899 80.53367 78.25633
# Shear Modulus (GPa) = 25.76737 27.09784 26.43261
#
# Velocity S-wave (km/s) = 3.68807 3.78208 3.73537
# Velocity P-wave (km/s) = 7.63170 7.84752 7.74036
#
# Compressibility (1/GPa) = 0.01316153
#
# Stress axis : x y z
#
# Youngs Moduli (GPa) = 66.97682 59.51833 67.43181
#
# Poissons Ratio (x) = 0.41835 0.06616
# Poissons Ratio (y) = 0.47078 0.58598
# Poissons Ratio (z) = 0.06572 0.51721
#
# Static dielectric constant tensor:
#      x y z
#    x 3.517790 0.000000 0.000000 
#    y 0.000000 3.542160 0.000000 
#    z 0.000000 0.000000 3.578570 
# 
# 
# High freq. dielectric constant tensor:
#      x y z
#    x 1.725980 0.000000 0.000000 
#    y 0.000000 1.733310 0.000000 
#    z 0.000000 0.000000 1.737580 
# 
# From -- ./inp_files/27627.got.cif
#   From: 2010.03.12/outbox.cif.g09.slc.cpg/sg70_14_cif.got.tgz:27627.got - 2010.04.16 13:46:32.
