data_PCOD8285813
_publ_section_title
;
Structure prediction by ZEFSAII (Michael W. Deem and Ramdas Pophale) SiO2 
 PCOD8285813
Probable space group: F D D D
;
_chemical_formula_sum "Si O2"
_cell_formula_units_Z 176
_cell_length_a 22.382661
_cell_length_b 22.316416
_cell_length_c 16.352376
_cell_angle_alpha 90.000000
_cell_angle_beta 90.000000
_cell_angle_gamma 90.000000
_cell_volume 8168.024470
_symmetry_space_group_name_H-M "F D D D"
_symmetry_group_IT_number 70
_space_group.IT_coordinate_system_code '2'
_symmetry_cell_setting 'orthorhombic'
loop_
_space_group_symop_operation_xyz
x,y,z
1/4-x,1/4-y,z
x,1/4-y,1/4-z
1/4-x,y,1/4-z
-x,-y,-z
3/4+x,3/4+y,-z
-x,3/4+y,3/4+z
3/4+x,-y,3/4+z
x,1/2+y,1/2+z
1/4-x,3/4-y,1/2+z
x,3/4-y,3/4-z
1/4-x,1/2+y,3/4-z
-x,1/2-y,1/2-z
3/4+x,1/4+y,1/2-z
-x,1/4+y,1/4+z
3/4+x,1/2-y,1/4+z
1/2+x,y,1/2+z
3/4-x,1/4-y,1/2+z
1/2+x,1/4-y,3/4-z
3/4-x,y,3/4-z
1/2-x,-y,1/2-z
1/4+x,3/4+y,1/2-z
1/2-x,3/4+y,1/4+z
1/4+x,-y,1/4+z
1/2+x,1/2+y,z
3/4-x,3/4-y,z
1/2+x,3/4-y,1/4-z
3/4-x,1/2+y,1/4-z
1/2-x,1/2-y,-z
1/4+x,1/4+y,-z
1/2-x,1/4+y,3/4+z
1/4+x,1/2-y,3/4+z
loop_
_atom_site_type_symbol
_atom_site_label
_atom_site_fract_x
_atom_site_fract_y
_atom_site_fract_z
Si Si1 0.029831 0.833344 0.943568
Si Si2 0.167768 0.745620 0.692172
Si Si3 0.939337 0.626947 0.862775
Si Si4 0.256678 0.625000 0.125000
Si Si5 0.780537 0.809921 0.528094
Si Si6 0.145571 0.271288 0.369372
O O1 0.001288 0.875000 0.875000
O O2 0.089147 0.801520 0.910964
O O3 0.978488 0.787163 0.967560
O O4 0.047056 0.877636 0.016901
O O5 0.125000 0.712547 0.625000
O O6 0.187571 0.807410 0.650509
O O7 0.130242 0.752734 0.776179
O O8 0.875000 0.595092 0.875000
O O9 0.989607 0.588286 0.903745
O O10 0.213503 0.607516 0.202342
O O11 0.298808 0.682560 0.139645
O O12 0.750000 0.750000 0.500000
O O13 0.840882 0.787926 0.574302
#
# Coordination Sequence:
#
# PCOD8285813 Si02
#       6
#    32  32  32  16  32  32
#     4  12  25  43  68  96 130 176 227 279 343 411
#     4  11  25  42  66  96 131 173 231 285 337 398
#     4  11  21  40  66  96 129 171 220 270 334 405
#     4  10  18  36  66  99 131 170 220 268 330 402
#     4  10  20  34  65  99 134 171 212 273 325 393
#     4  11  21  41  65  99 131 174 224 278 335 407
#
# _framework density 21.547438
#
# number of rings (size 3 to 8) (size 9 to 14) (size 15 to 20)
#    0.000    1.091    4.545    4.364    0.000    3.273 
#    0.000    0.909    0.000    1.091    0.000    0.000 
#    0.000    0.000    0.000    0.000    0.000    0.000 
#
# Total GULP energy -545207.536769 kJ/mol
# GULP energy per Si atom -12391.080381 kJ/mol
# Density = 2.149839 g / cm^3
# Si number density = 21.547438 Si / 1000 Ang^3
#
#
#
# Elastic Constant Matrix: (Units=GPa)
#
#
# Indices 1 2 3 4 5 6 
#
# 1 52.0599 28.2309 25.5163 0.0000 0.0000 0.0000
# 2 28.2309 55.8513 27.9414 0.0000 0.0000 0.0000
# 3 25.5163 27.9414 153.0393 0.0000 0.0000 0.0000
# 4 0.0000 0.0000 0.0000 36.0067 0.0000 0.0000
# 5 0.0000 0.0000 0.0000 0.0000 32.8551 0.0000
# 6 0.0000 0.0000 0.0000 0.0000 0.0000 28.7925
#
#
#
# Elastic Compliance Matrix: (Units=1/GPa)
#
#
# Indices 1 2 3 4 5 6 
#
# 1 0.027132 -0.012602 -0.002223 0.000000 0.000000 0.000000
# 2 -0.012602 0.025558 -0.002565 0.000000 0.000000 0.000000
# 3 -0.002223 -0.002565 0.007373 0.000000 0.000000 0.000000
# 4 0.000000 0.000000 0.000000 0.027773 0.000000 0.000000
# 5 0.000000 0.000000 0.000000 0.000000 0.030437 0.000000
# 6 0.000000 0.000000 0.000000 0.000000 0.000000 0.034731
#
#
# Mechanical properties :
#
#
# Convention : Reuss Voigt Hill
#
# Bulk Modulus (GPa) = 39.55261 47.14753 43.35007
# Shear Modulus (GPa) = 25.48265 31.48164 28.48215
#
# Velocity S-wave (km/s) = 3.44267 3.82650 3.63965
# Velocity P-wave (km/s) = 5.84795 6.43825 6.15019
#
# Compressibility (1/GPa) = 0.02528278
#
# Stress axis : x y z
#
# Youngs Moduli (GPa) = 36.85676 39.12675 135.62602
#
# Poissons Ratio (x) = 0.49309 0.30148
# Poissons Ratio (y) = 0.46448 0.34790
# Poissons Ratio (z) = 0.08193 0.10036
#
# Static dielectric constant tensor:
#      x y z
#    x 3.898500 0.000000 0.000000 
#    y 0.000000 3.998040 0.000000 
#    z 0.000000 0.000000 4.555700 
# 
# 
# High freq. dielectric constant tensor:
#      x y z
#    x 1.823600 0.000000 0.000000 
#    y 0.000000 1.834390 0.000000 
#    z 0.000000 0.000000 1.875090 
# 
# From -- ./inp_files/28752.got.cif
#   From: 2010.03.12/outbox.cif.g09.slc.cpg/sg70_15_cif.got.tgz:28752.got - 2010.04.16 13:46:32.
