data_PCOD8285762
_publ_section_title
;
Structure prediction by ZEFSAII (Michael W. Deem and Ramdas Pophale) SiO2 
 PCOD8285762
Probable space group: F D D D
;
_chemical_formula_sum "Si O2"
_cell_formula_units_Z 208
_cell_length_a 30.248333
_cell_length_b 20.953318
_cell_length_c 21.398140
_cell_angle_alpha 90.000000
_cell_angle_beta 90.000000
_cell_angle_gamma 90.000000
_cell_volume 13562.204049
_symmetry_space_group_name_H-M "F D D D"
_symmetry_group_IT_number 70
_space_group.IT_coordinate_system_code '2'
_symmetry_cell_setting 'orthorhombic'
loop_
_space_group_symop_operation_xyz
x,y,z
1/4-x,1/4-y,z
x,1/4-y,1/4-z
1/4-x,y,1/4-z
-x,-y,-z
3/4+x,3/4+y,-z
-x,3/4+y,3/4+z
3/4+x,-y,3/4+z
x,1/2+y,1/2+z
1/4-x,3/4-y,1/2+z
x,3/4-y,3/4-z
1/4-x,1/2+y,3/4-z
-x,1/2-y,1/2-z
3/4+x,1/4+y,1/2-z
-x,1/4+y,1/4+z
3/4+x,1/2-y,1/4+z
1/2+x,y,1/2+z
3/4-x,1/4-y,1/2+z
1/2+x,1/4-y,3/4-z
3/4-x,y,3/4-z
1/2-x,-y,1/2-z
1/4+x,3/4+y,1/2-z
1/2-x,3/4+y,1/4+z
1/4+x,-y,1/4+z
1/2+x,1/2+y,z
3/4-x,3/4-y,z
1/2+x,3/4-y,1/4-z
3/4-x,1/2+y,1/4-z
1/2-x,1/2-y,-z
1/4+x,1/4+y,-z
1/2-x,1/4+y,3/4+z
1/4+x,1/2-y,3/4+z
loop_
_atom_site_type_symbol
_atom_site_label
_atom_site_fract_x
_atom_site_fract_y
_atom_site_fract_z
Si Si1 0.986960 0.375802 0.492518
Si Si2 0.279604 0.508023 0.947937
Si Si3 0.385939 0.502057 0.728826
Si Si4 0.875000 0.375000 0.151553
Si Si5 0.832652 0.300438 0.412764
Si Si6 0.061428 0.933366 0.920661
Si Si7 0.287629 0.821069 0.624682
O O1 0.996358 0.301145 0.479702
O O2 0.945467 0.393038 0.446367
O O3 0.977035 0.387984 0.564945
O O4 0.030643 0.417247 0.479832
O O5 0.300913 0.489649 0.881782
O O6 0.246988 0.568724 0.933032
O O7 0.317408 0.529126 0.997109
O O8 0.391433 0.433217 0.695640
O O9 0.350375 0.496437 0.784167
O O10 0.363334 0.555810 0.685523
O O11 0.914888 0.351452 0.106475
O O12 0.875000 0.328635 0.375000
O O13 0.056453 0.875000 0.875000
O O14 0.041992 0.996909 0.890918
#
# Coordination Sequence:
#
# PCOD8285762 Si02
#       7
#    32  32  32  16  32  32  32
#     4  12  18  29  40  64  93 131 164 193 218 270
#     4  11  20  29  42  63  91 125 159 187 232 273
#     4  10  19  31  42  62  90 121 162 192 223 273
#     4  10  18  30  45  62  88 124 149 196 224 262
#     4  10  18  25  38  59  90 129 162 188 208 257
#     4  11  19  29  44  64  90 125 158 197 233 270
#     4  11  20  30  44  62  92 124 162 192 230 273
#
# _framework density 15.336741
#
# number of rings (size 3 to 8) (size 9 to 14) (size 15 to 20)
#    0.000    1.231    7.692    1.846    0.000    4.923 
#    0.000    0.000    0.000    0.000    0.000    4.308 
#    0.000    0.000    0.000    0.000    0.000    0.000 
#
# Total GULP energy -644299.911893 kJ/mol
# GULP energy per Si atom -12390.382921 kJ/mol
# Density = 1.530183 g / cm^3
# Si number density = 15.336741 Si / 1000 Ang^3
#
#
#
# Elastic Constant Matrix: (Units=GPa)
#
#
# Indices 1 2 3 4 5 6 
#
# 1 105.9675 30.7354 25.5972 0.0000 0.0000 0.0000
# 2 30.7354 41.6933 14.4649 0.0000 0.0000 0.0000
# 3 25.5972 14.4649 26.6934 0.0000 0.0000 0.0000
# 4 0.0000 0.0000 0.0000 11.4873 0.0000 0.0000
# 5 0.0000 0.0000 0.0000 0.0000 17.3810 0.0000
# 6 0.0000 0.0000 0.0000 0.0000 0.0000 15.7334
#
#
#
# Elastic Compliance Matrix: (Units=1/GPa)
#
#
# Indices 1 2 3 4 5 6 
#
# 1 0.013695 -0.006822 -0.009436 0.000000 0.000000 0.000000
# 2 -0.006822 0.032936 -0.011306 0.000000 0.000000 0.000000
# 3 -0.009436 -0.011306 0.052637 0.000000 0.000000 0.000000
# 4 0.000000 0.000000 0.000000 0.087052 0.000000 0.000000
# 5 0.000000 0.000000 0.000000 0.000000 0.057534 0.000000
# 6 0.000000 0.000000 0.000000 0.000000 0.000000 0.063559
#
#
# Mechanical properties :
#
#
# Convention : Reuss Voigt Hill
#
# Bulk Modulus (GPa) = 22.65471 35.10545 28.88008
# Shear Modulus (GPa) = 13.25366 15.82413 14.53889
#
# Velocity S-wave (km/s) = 2.94288 3.21562 3.08227
# Velocity P-wave (km/s) = 5.13332 6.06023 5.61593
#
# Compressibility (1/GPa) = 0.04414094
#
# Stress axis : x y z
#
# Youngs Moduli (GPa) = 73.02068 30.36178 18.99800
#
# Poissons Ratio (x) = 0.20713 0.17926
# Poissons Ratio (y) = 0.49814 0.21479
# Poissons Ratio (z) = 0.68899 0.34327
#
# Static dielectric constant tensor:
#      x y z
#    x 3.254170 0.000000 0.000000 
#    y 0.000000 2.728440 0.000000 
#    z 0.000000 0.000000 2.766350 
# 
# 
# High freq. dielectric constant tensor:
#      x y z
#    x 1.596300 0.000000 0.000000 
#    y 0.000000 1.552480 0.000000 
#    z 0.000000 0.000000 1.546650 
# 
# From -- ./inp_files/45235.got.cif
#   From: 2010.03.12/outbox.cif.g09.slc.cpg/sg70_23_cif.got.tgz:45235.got - 2010.04.16 13:46:32.
