data_PCOD8285196
_publ_section_title
;
Structure prediction by ZEFSAII (Michael W. Deem and Ramdas Pophale) SiO2 
 PCOD8285196
Probable space group: F M M M
;
_chemical_formula_sum "Si O2"
_cell_formula_units_Z 144
_cell_length_a 18.023741
_cell_length_b 18.396569
_cell_length_c 21.363710
_cell_angle_alpha 90.000000
_cell_angle_beta 90.000000
_cell_angle_gamma 90.000000
_cell_volume 7083.672035
_symmetry_space_group_name_H-M "F M M M"
_symmetry_group_IT_number 69
_symmetry_cell_setting 'orthorhombic'
loop_
_space_group_symop_operation_xyz
x,y,z
-x,-y,z
x,-y,-z
-x,y,-z
-x,-y,-z
x,y,-z
-x,y,z
x,-y,z
x,1/2+y,1/2+z
-x,1/2-y,1/2+z
x,1/2-y,1/2-z
-x,1/2+y,1/2-z
-x,1/2-y,1/2-z
x,1/2+y,1/2-z
-x,1/2+y,1/2+z
x,1/2-y,1/2+z
1/2+x,y,1/2+z
1/2-x,-y,1/2+z
1/2+x,-y,1/2-z
1/2-x,y,1/2-z
1/2-x,-y,1/2-z
1/2+x,y,1/2-z
1/2-x,y,1/2+z
1/2+x,-y,1/2+z
1/2+x,1/2+y,z
1/2-x,1/2-y,z
1/2+x,1/2-y,-z
1/2-x,1/2+y,-z
1/2-x,1/2-y,-z
1/2+x,1/2+y,-z
1/2-x,1/2+y,z
1/2+x,1/2-y,z
loop_
_atom_site_type_symbol
_atom_site_label
_atom_site_fract_x
_atom_site_fract_y
_atom_site_fract_z
Si Si1 0.082620 0.085211 0.000000
Si Si2 0.168163 0.781544 0.432163
Si Si3 0.418205 0.583285 0.750111
Si Si4 0.859419 0.357141 0.370203
Si Si5 0.697780 0.086133 0.144318
O O1 0.126805 0.107247 0.937798
O O2 0.000000 0.119973 0.000000
O O3 0.075968 0.000000 0.000000
O O4 0.128026 0.775327 0.500000
O O5 0.250000 0.750000 0.439409
O O6 0.131775 0.729889 0.379518
O O7 0.166213 0.866467 0.413388
O O8 0.500000 0.596178 0.719884
O O9 0.405831 0.500000 0.767250
O O10 0.417864 0.624863 0.816378
O O11 0.353126 0.607589 0.703435
O O12 0.781108 0.386725 0.343061
O O13 0.694046 0.000000 0.129030
#
# Coordination Sequence:
#
# PCOD8285196 Si02
#       5
#    16  32  32  32  32
#     4  11  22  34  53  88 126 154 183 224 283 351
#     4   9  19  36  55  83 119 150 186 240 291 331
#     4  10  21  38  58  83 119 155 189 240 295 339
#     4  11  20  36  59  86 119 154 190 233 286 350
#     4  10  21  36  60  87 112 149 203 244 278 340
#
# _framework density 20.328440000000001
#
# number of rings (size 3 to 8) (size 9 to 14) (size 15 to 20)
#    0.000    1.889    1.111    3.333    1.556    4.889 
#    0.000    6.667    0.000    0.000    0.000    3.111 
#    0.000    0.000    0.000    0.000    0.000    0.000 
#
# Total GULP energy -446092.265050 kJ/mol
# GULP energy per Si atom -12391.451807 kJ/mol
# Density = 2.028217 g / cm^3
# Si number density = 20.328440 Si / 1000 Ang^3
#
#
#
# Elastic Constant Matrix: (Units=GPa)
#
#
# Indices 1 2 3 4 5 6 
#
# 1 90.5705 18.1045 44.5407 0.0000 0.0000 0.0000
# 2 18.1045 121.6769 44.4872 0.0000 0.0000 0.0000
# 3 44.5407 44.4872 116.0192 0.0000 0.0000 0.0000
# 4 0.0000 0.0000 0.0000 13.8519 0.0000 0.0000
# 5 0.0000 0.0000 0.0000 0.0000 86.8414 0.0000
# 6 0.0000 0.0000 0.0000 0.0000 0.0000 15.0954
#
#
#
# Elastic Compliance Matrix: (Units=1/GPa)
#
#
# Indices 1 2 3 4 5 6 
#
# 1 0.013613 -0.000133 -0.005175 0.000000 0.000000 0.000000
# 2 -0.000133 0.009560 -0.003614 0.000000 0.000000 0.000000
# 3 -0.005175 -0.003614 0.011992 0.000000 0.000000 0.000000
# 4 0.000000 0.000000 0.000000 0.072192 0.000000 0.000000
# 5 0.000000 0.000000 0.000000 0.000000 0.011515 0.000000
# 6 0.000000 0.000000 0.000000 0.000000 0.000000 0.066245
#
#
# Mechanical properties :
#
#
# Convention : Reuss Voigt Hill
#
# Bulk Modulus (GPa) = 57.74036 60.28126 59.01081
# Shear Modulus (GPa) = 23.95373 37.90002 30.92688
#
# Velocity S-wave (km/s) = 3.43641 4.32254 3.90469
# Velocity P-wave (km/s) = 6.64911 7.39124 7.02998
#
# Compressibility (1/GPa) = 0.01731891
#
# Stress axis : x y z
#
# Youngs Moduli (GPa) = 73.46092 104.60406 83.38973
#
# Poissons Ratio (x) = 0.01396 0.43153
# Poissons Ratio (y) = 0.00980 0.30141
# Poissons Ratio (z) = 0.38015 0.37809
#
# Static dielectric constant tensor:
#      x y z
#    x 3.699890 0.000000 0.000000 
#    y 0.000000 3.887350 0.000000 
#    z 0.000000 0.000000 3.703240 
# 
# 
# High freq. dielectric constant tensor:
#      x y z
#    x 1.778100 0.000000 0.000000 
#    y 0.000000 1.794680 0.000000 
#    z 0.000000 0.000000 1.792640 
# 
# From -- ./inp_files/30724.got.cif
#   From: 2010.03.12/outbox.cif.g09.slc.cpg/sg69_16_cif.got.tgz:30724.got - 2010.04.10 23:52:46.
