data_PCOD8285627
_publ_section_title
;
Structure prediction by ZEFSAII (Michael W. Deem and Ramdas Pophale) SiO2 
 PCOD8285627
Probable space group: F M M M
;
_chemical_formula_sum "Si O2"
_cell_formula_units_Z 128
_cell_length_a 15.193597
_cell_length_b 27.278861
_cell_length_c 14.663034
_cell_angle_alpha 90.000000
_cell_angle_beta 90.000000
_cell_angle_gamma 90.000000
_cell_volume 6077.300027
_symmetry_space_group_name_H-M "F M M M"
_symmetry_group_IT_number 69
_symmetry_cell_setting 'orthorhombic'
loop_
_space_group_symop_operation_xyz
x,y,z
-x,-y,z
x,-y,-z
-x,y,-z
-x,-y,-z
x,y,-z
-x,y,z
x,-y,z
x,1/2+y,1/2+z
-x,1/2-y,1/2+z
x,1/2-y,1/2-z
-x,1/2+y,1/2-z
-x,1/2-y,1/2-z
x,1/2+y,1/2-z
-x,1/2+y,1/2+z
x,1/2-y,1/2+z
1/2+x,y,1/2+z
1/2-x,-y,1/2+z
1/2+x,-y,1/2-z
1/2-x,y,1/2-z
1/2-x,-y,1/2-z
1/2+x,y,1/2-z
1/2-x,y,1/2+z
1/2+x,-y,1/2+z
1/2+x,1/2+y,z
1/2-x,1/2-y,z
1/2+x,1/2-y,-z
1/2-x,1/2+y,-z
1/2-x,1/2-y,-z
1/2+x,1/2+y,-z
1/2-x,1/2+y,z
1/2+x,1/2-y,z
loop_
_atom_site_type_symbol
_atom_site_label
_atom_site_fract_x
_atom_site_fract_y
_atom_site_fract_z
Si Si1 0.000000 0.298007 0.402615
Si Si2 0.400536 0.870173 0.101431
Si Si3 0.500000 0.405093 0.888025
Si Si4 0.660208 0.266424 0.647185
Si Si5 0.853397 0.942483 0.246312
O O1 0.000000 0.348796 0.345842
O O2 0.917929 0.262586 0.398088
O O3 0.000000 0.323470 0.500000
O O4 0.500000 0.851620 0.096510
O O5 0.345092 0.824861 0.140485
O O6 0.395163 0.917266 0.165487
O O7 0.366487 0.884210 0.000000
O O8 0.590696 0.427817 0.845159
O O9 0.500000 0.412738 0.000000
O O10 0.660912 0.250000 0.750000
O O11 0.750000 0.250000 0.597980
O O12 0.750000 0.927302 0.250000
O O13 0.863691 0.000000 0.259076
#
# Coordination Sequence:
#
# PCOD8285627 Si02
#       5
#    16  32  16  32  32
#     4  11  23  40  60  91 133 172 218 272 326 395
#     4  11  24  42  67  97 132 175 226 277 332 404
#     4  11  25  45  74 105 139 183 234 291 348 418
#     4  11  24  39  63  94 132 178 219 271 329 395
#     4  11  26  47  71  99 135 176 227 291 353 417
#
# _framework density 21.061983999999999
#
# number of rings (size 3 to 8) (size 9 to 14) (size 15 to 20)
#    0.000    1.000    2.500    3.000    7.000    4.500 
#    0.000    3.750    0.000    0.000    0.000    0.000 
#    0.000    0.000    0.000    0.000    0.000    0.000 
#
# Total GULP energy -396417.679064 kJ/mol
# GULP energy per Si atom -12388.052471 kJ/mol
# Density = 2.101405 g / cm^3
# Si number density = 21.061984 Si / 1000 Ang^3
#
#
#
# Elastic Constant Matrix: (Units=GPa)
#
#
# Indices 1 2 3 4 5 6 
#
# 1 153.0864 41.8116 42.1736 0.0000 0.0000 0.0000
# 2 41.8116 125.6825 43.8563 0.0000 0.0000 0.0000
# 3 42.1736 43.8563 139.1497 0.0000 0.0000 0.0000
# 4 0.0000 0.0000 0.0000 27.2128 0.0000 0.0000
# 5 0.0000 0.0000 0.0000 0.0000 -85.1102 0.0000
# 6 0.0000 0.0000 0.0000 0.0000 0.0000 28.9195
#
#
#
# Elastic Compliance Matrix: (Units=1/GPa)
#
#
# Indices 1 2 3 4 5 6 
#
# 1 0.007517 -0.001916 -0.001674 0.000000 0.000000 0.000000
# 2 -0.001916 0.009428 -0.002391 0.000000 0.000000 0.000000
# 3 -0.001674 -0.002391 0.008447 0.000000 0.000000 0.000000
# 4 0.000000 0.000000 0.000000 0.036747 0.000000 0.000000
# 5 0.000000 0.000000 0.000000 0.000000 -0.011749 0.000000
# 6 0.000000 0.000000 0.000000 0.000000 0.000000 0.034579
#
#
# Mechanical properties :
#
#
# Convention : Reuss Voigt Hill
#
# Bulk Modulus (GPa) = 74.46092 74.84461 74.65276
# Shear Modulus (GPa) = 49.30534 13.54288 31.42411
#
# Velocity S-wave (km/s) = 4.84360 2.53850 3.86681
# Velocity P-wave (km/s) = 8.16765 6.64865 7.44698
#
# Compressibility (1/GPa) = 0.01342986
#
# Stress axis : x y z
#
# Youngs Moduli (GPa) = 133.03311 106.06298 118.37940
#
# Poissons Ratio (x) = 0.20327 0.19819
# Poissons Ratio (y) = 0.25496 0.28301
# Poissons Ratio (z) = 0.22272 0.25357
#
# Static dielectric constant tensor:
#      x y z
#    x 3.532310 0.000000 0.000000 
#    y 0.000000 3.806070 0.000000 
#    z 0.000000 0.000000 3.883010 
# 
# 
# High freq. dielectric constant tensor:
#      x y z
#    x 1.836870 0.000000 0.000000 
#    y 0.000000 1.833870 0.000000 
#    z 0.000000 0.000000 1.830220 
# 
# From -- ./inp_files/15333.got.cif
#   From: 2010.03.12/outbox.cif.g09.slc.cpg/sg69_8_cif.got.tgz:15333.got - 2010.04.10 23:52:46.
