data_PCOD8285883
_publ_section_title
;
Structure prediction by ZEFSAII (Michael W. Deem and Ramdas Pophale) SiO2 
 PCOD8285883
Probable space group: F D D D
;
_chemical_formula_sum "Si O2"
_cell_formula_units_Z 168
_cell_length_a 19.522403
_cell_length_b 36.361294
_cell_length_c 13.225474
_cell_angle_alpha 90.000000
_cell_angle_beta 90.000000
_cell_angle_gamma 90.000000
_cell_volume 9388.232792
_symmetry_space_group_name_H-M "F D D D"
_symmetry_group_IT_number 70
_space_group.IT_coordinate_system_code '2'
_symmetry_cell_setting 'orthorhombic'
loop_
_space_group_symop_operation_xyz
x,y,z
1/4-x,1/4-y,z
x,1/4-y,1/4-z
1/4-x,y,1/4-z
-x,-y,-z
3/4+x,3/4+y,-z
-x,3/4+y,3/4+z
3/4+x,-y,3/4+z
x,1/2+y,1/2+z
1/4-x,3/4-y,1/2+z
x,3/4-y,3/4-z
1/4-x,1/2+y,3/4-z
-x,1/2-y,1/2-z
3/4+x,1/4+y,1/2-z
-x,1/4+y,1/4+z
3/4+x,1/2-y,1/4+z
1/2+x,y,1/2+z
3/4-x,1/4-y,1/2+z
1/2+x,1/4-y,3/4-z
3/4-x,y,3/4-z
1/2-x,-y,1/2-z
1/4+x,3/4+y,1/2-z
1/2-x,3/4+y,1/4+z
1/4+x,-y,1/4+z
1/2+x,1/2+y,z
3/4-x,3/4-y,z
1/2+x,3/4-y,1/4-z
3/4-x,1/2+y,1/4-z
1/2-x,1/2-y,-z
1/4+x,1/4+y,-z
1/2-x,1/4+y,3/4+z
1/4+x,1/2-y,3/4+z
loop_
_atom_site_type_symbol
_atom_site_label
_atom_site_fract_x
_atom_site_fract_y
_atom_site_fract_z
Si Si1 0.205176 0.674836 0.278732
Si Si2 0.625000 0.625000 0.625000
Si Si3 0.465762 0.036832 0.115960
Si Si4 0.434448 0.793551 0.681915
Si Si5 0.870229 0.151999 0.035346
Si Si6 0.735423 0.889392 0.109012
O O1 0.175229 0.647747 0.195121
O O2 0.267238 0.697450 0.227259
O O3 0.147479 0.704023 0.310836
O O4 0.230477 0.651035 0.376234
O O5 0.397091 0.056336 0.071379
O O6 0.452432 0.993606 0.127346
O O7 0.530963 0.043751 0.042695
O O8 0.458448 0.828667 0.617645
O O9 0.851454 0.125000 0.125000
O O10 0.948693 0.145466 0.999756
O O11 0.820773 0.142626 0.944612
#
# Coordination Sequence:
#
# PCOD8285883 Si02
#       6
#    32   8  32  32  32  32
#     4  12  18  32  53  78 110 145 180 223 275 333
#     4  12  16  28  52  76 106 144 168 216 266 332
#     4  10  20  31  49  78 112 144 170 219 287 327
#     4  10  20  30  48  81 113 138 173 223 280 331
#     4  10  19  35  52  76 108 142 183 226 263 320
#     4  10  20  32  53  81 107 140 188 221 264 328
#
# _framework density 17.894742000000001
#
# number of rings (size 3 to 8) (size 9 to 14) (size 15 to 20)
#    0.000    1.524    5.714    1.143    2.667    0.000 
#    0.000    0.000    0.000    3.429    4.952    0.000 
#    0.000    0.000    0.000    0.000    0.000    0.000 
#
# Total GULP energy -520662.851579 kJ/mol
# GULP energy per Si atom -12396.734561 kJ/mol
# Density = 1.785401 g / cm^3
# Si number density = 17.894742 Si / 1000 Ang^3
#
#
#
# Elastic Constant Matrix: (Units=GPa)
#
#
# Indices 1 2 3 4 5 6 
#
# 1 78.8609 38.2958 26.7847 0.0000 0.0000 0.0000
# 2 38.2958 114.3515 27.9582 0.0000 0.0000 0.0000
# 3 26.7847 27.9582 35.9952 0.0000 0.0000 0.0000
# 4 0.0000 0.0000 0.0000 6.2557 0.0000 0.0000
# 5 0.0000 0.0000 0.0000 0.0000 8.5601 0.0000
# 6 0.0000 0.0000 0.0000 0.0000 0.0000 139.3616
#
#
#
# Elastic Compliance Matrix: (Units=1/GPa)
#
#
# Indices 1 2 3 4 5 6 
#
# 1 0.017977 -0.003394 -0.010740 0.000000 0.000000 0.000000
# 2 -0.003394 0.011436 -0.006357 0.000000 0.000000 0.000000
# 3 -0.010740 -0.006357 0.040711 0.000000 0.000000 0.000000
# 4 0.000000 0.000000 0.000000 0.159855 0.000000 0.000000
# 5 0.000000 0.000000 0.000000 0.000000 0.116821 0.000000
# 6 0.000000 0.000000 0.000000 0.000000 0.000000 0.007176
#
#
# Mechanical properties :
#
#
# Convention : Reuss Voigt Hill
#
# Bulk Modulus (GPa) = 34.31620 46.14279 40.22950
# Shear Modulus (GPa) = 12.35567 39.91339 26.13453
#
# Velocity S-wave (km/s) = 2.63052 4.72789 3.82574
# Velocity P-wave (km/s) = 5.33334 7.45960 6.48421
#
# Compressibility (1/GPa) = 0.02914075
#
# Stress axis : x y z
#
# Youngs Moduli (GPa) = 55.62716 87.44390 24.56344
#
# Poissons Ratio (x) = 0.29682 0.26382
# Poissons Ratio (y) = 0.18882 0.15614
# Poissons Ratio (z) = 0.59746 0.55585
#
# Static dielectric constant tensor:
#      x y z
#    x 3.471900 0.000000 0.000000 
#    y 0.000000 3.408550 0.000000 
#    z 0.000000 0.000000 2.699560 
# 
# 
# High freq. dielectric constant tensor:
#      x y z
#    x 1.681640 0.000000 0.000000 
#    y 0.000000 1.696740 0.000000 
#    z 0.000000 0.000000 1.643780 
# 
# From -- ./inp_files/27830.got.cif
#   From: 2010.03.12/outbox.cif.g09.slc.cpg/sg70_14_cif.got.tgz:27830.got - 2010.04.16 13:46:32.
