data_PCOD8285584
_publ_section_title
;
Structure prediction by ZEFSAII (Michael W. Deem and Ramdas Pophale) SiO2 
 PCOD8285584
Probable space group: F M M M
;
_chemical_formula_sum "Si O2"
_cell_formula_units_Z 144
_cell_length_a 8.685179
_cell_length_b 30.618706
_cell_length_c 28.894804
_cell_angle_alpha 90.000000
_cell_angle_beta 90.000000
_cell_angle_gamma 90.000000
_cell_volume 7683.964667
_symmetry_space_group_name_H-M "F M M M"
_symmetry_group_IT_number 69
_symmetry_cell_setting 'orthorhombic'
loop_
_space_group_symop_operation_xyz
x,y,z
-x,-y,z
x,-y,-z
-x,y,-z
-x,-y,-z
x,y,-z
-x,y,z
x,-y,z
x,1/2+y,1/2+z
-x,1/2-y,1/2+z
x,1/2-y,1/2-z
-x,1/2+y,1/2-z
-x,1/2-y,1/2-z
x,1/2+y,1/2-z
-x,1/2+y,1/2+z
x,1/2-y,1/2+z
1/2+x,y,1/2+z
1/2-x,-y,1/2+z
1/2+x,-y,1/2-z
1/2-x,y,1/2-z
1/2-x,-y,1/2-z
1/2+x,y,1/2-z
1/2-x,y,1/2+z
1/2+x,-y,1/2+z
1/2+x,1/2+y,z
1/2-x,1/2-y,z
1/2+x,1/2-y,-z
1/2-x,1/2+y,-z
1/2-x,1/2-y,-z
1/2+x,1/2+y,-z
1/2-x,1/2+y,z
1/2+x,1/2-y,z
loop_
_atom_site_type_symbol
_atom_site_label
_atom_site_fract_x
_atom_site_fract_y
_atom_site_fract_z
Si Si1 0.318474 0.048757 0.799274
Si Si2 0.180959 0.594530 0.553923
Si Si3 0.681656 0.000000 0.449470
Si Si4 0.180333 0.629837 0.139914
Si Si5 0.681853 0.296861 0.201323
O O1 0.500000 0.049125 0.794257
O O2 0.250000 0.062135 0.750000
O O3 0.264179 0.084669 0.836311
O O4 0.261215 0.000000 0.814263
O O5 0.226068 0.600594 0.500000
O O6 0.230532 0.546025 0.573467
O O7 0.275716 0.628223 0.585532
O O8 0.000000 0.602482 0.560503
O O9 0.500000 0.000000 0.455489
O O10 0.757886 0.000000 0.500000
O O11 0.273479 0.669669 0.161427
O O12 0.000000 0.638165 0.146162
O O13 0.500000 0.293086 0.205910
O O14 0.750000 0.313619 0.250000
O O15 0.750000 0.250000 0.187920
#
# Coordination Sequence:
#
# PCOD8285584 Si02
#       5
#    32  32  16  32  32
#     4   9  19  34  49  69 102 142 181 220 261 312
#     4   9  18  33  52  75 105 143 188 236 281 325
#     4   7  12  26  47  69  96 133 180 231 277 319
#     4  11  22  34  53  80 111 145 185 227 273 328
#     4  11  22  39  62  87 115 142 177 221 274 329
#
# _framework density 18.740324000000001
#
# number of rings (size 3 to 8) (size 9 to 14) (size 15 to 20)
#    0.000    2.333    0.000    5.333    1.556    4.000 
#    0.000    0.000    0.000    2.667    0.000    0.000 
#    0.000    0.000    0.000    0.000    0.000    0.000 
#
# Total GULP energy -446183.384388 kJ/mol
# GULP energy per Si atom -12393.982900 kJ/mol
# Density = 1.869767 g / cm^3
# Si number density = 18.740324 Si / 1000 Ang^3
#
#
#
# Elastic Constant Matrix: (Units=GPa)
#
#
# Indices 1 2 3 4 5 6 
#
# 1 79.3045 41.9978 35.8977 0.0000 0.0000 0.0000
# 2 41.9978 91.5295 61.5945 0.0000 0.0000 0.0000
# 3 35.8977 61.5945 100.3542 0.0000 0.0000 0.0000
# 4 0.0000 0.0000 0.0000 7.3461 0.0000 0.0000
# 5 0.0000 0.0000 0.0000 0.0000 28.1566 0.0000
# 6 0.0000 0.0000 0.0000 0.0000 0.0000 21.9074
#
#
#
# Elastic Compliance Matrix: (Units=1/GPa)
#
#
# Indices 1 2 3 4 5 6 
#
# 1 0.016936 -0.006294 -0.002195 0.000000 0.000000 0.000000
# 2 -0.006294 0.020952 -0.010609 0.000000 0.000000 0.000000
# 3 -0.002195 -0.010609 0.017261 0.000000 0.000000 0.000000
# 4 0.000000 0.000000 0.000000 0.136127 0.000000 0.000000
# 5 0.000000 0.000000 0.000000 0.000000 0.035516 0.000000
# 6 0.000000 0.000000 0.000000 0.000000 0.000000 0.045647
#
#
# Mechanical properties :
#
#
# Convention : Reuss Voigt Hill
#
# Bulk Modulus (GPa) = 58.98143 61.12980 60.05562
# Shear Modulus (GPa) = 15.80846 20.26188 18.03517
#
# Velocity S-wave (km/s) = 2.90755 3.29171 3.10558
# Velocity P-wave (km/s) = 6.54317 6.86567 6.70636
#
# Compressibility (1/GPa) = 0.01695449
#
# Stress axis : x y z
#
# Youngs Moduli (GPa) = 59.04427 47.72732 57.93323
#
# Poissons Ratio (x) = 0.30039 0.12718
# Poissons Ratio (y) = 0.37162 0.61459
# Poissons Ratio (z) = 0.12962 0.50632
#
# Static dielectric constant tensor:
#      x y z
#    x 3.272070 0.000000 0.000000 
#    y 0.000000 3.511870 0.000000 
#    z 0.000000 0.000000 3.302770 
# 
# 
# High freq. dielectric constant tensor:
#      x y z
#    x 1.719450 0.000000 0.000000 
#    y 0.000000 1.716890 0.000000 
#    z 0.000000 0.000000 1.719350 
# 
# From -- ./inp_files/5547.got.cif
#   From: 2010.03.12/outbox.cif.g09.slc.cpg/sg69_3_cif.got.tgz:5547.got - 2010.04.10 23:52:46.
