data_PCOD8285516
_publ_section_title
;
Structure prediction by ZEFSAII (Michael W. Deem and Ramdas Pophale) SiO2 
 PCOD8285516
Probable space group: F M M M
;
_chemical_formula_sum "Si O2"
_cell_formula_units_Z 144
_cell_length_a 18.891629
_cell_length_b 16.688333
_cell_length_c 23.012885
_cell_angle_alpha 90.000000
_cell_angle_beta 90.000000
_cell_angle_gamma 90.000000
_cell_volume 7255.267552
_symmetry_space_group_name_H-M "F M M M"
_symmetry_group_IT_number 69
_symmetry_cell_setting 'orthorhombic'
loop_
_space_group_symop_operation_xyz
x,y,z
-x,-y,z
x,-y,-z
-x,y,-z
-x,-y,-z
x,y,-z
-x,y,z
x,-y,z
x,1/2+y,1/2+z
-x,1/2-y,1/2+z
x,1/2-y,1/2-z
-x,1/2+y,1/2-z
-x,1/2-y,1/2-z
x,1/2+y,1/2-z
-x,1/2+y,1/2+z
x,1/2-y,1/2+z
1/2+x,y,1/2+z
1/2-x,-y,1/2+z
1/2+x,-y,1/2-z
1/2-x,y,1/2-z
1/2-x,-y,1/2-z
1/2+x,y,1/2-z
1/2-x,y,1/2+z
1/2+x,-y,1/2+z
1/2+x,1/2+y,z
1/2-x,1/2-y,z
1/2+x,1/2-y,-z
1/2-x,1/2+y,-z
1/2-x,1/2-y,-z
1/2+x,1/2+y,-z
1/2-x,1/2+y,z
1/2+x,1/2-y,z
loop_
_atom_site_type_symbol
_atom_site_label
_atom_site_fract_x
_atom_site_fract_y
_atom_site_fract_z
Si Si1 0.578711 0.500000 0.066078
Si Si2 0.672441 0.657346 0.236619
Si Si3 0.669017 0.328276 0.432806
Si Si4 0.420380 0.092359 0.163156
Si Si5 0.824314 0.853006 0.897655
O O1 0.500000 0.500000 0.097911
O O2 0.625380 0.421031 0.076996
O O3 0.559202 0.500000 0.000000
O O4 0.667294 0.750000 0.250000
O O5 0.750000 0.623354 0.250000
O O6 0.618834 0.608979 0.276483
O O7 0.655005 0.646363 0.169572
O O8 0.659184 0.353020 0.500000
O O9 0.606736 0.361140 0.393147
O O10 0.740912 0.368967 0.407927
O O11 0.664067 0.232365 0.428232
O O12 0.500000 0.120745 0.173512
O O13 0.414417 0.000000 0.147860
#
# Coordination Sequence:
#
# PCOD8285516 Si02
#       5
#    16  32  32  32  32
#     4  11  26  44  61  94 139 173 209 266 332 394
#     4  11  20  41  68  93 123 159 207 265 322 380
#     4  11  22  42  69  95 124 169 222 266 314 379
#     4  11  26  43  60  92 132 167 211 267 321 378
#     4  11  22  41  68  97 128 162 217 267 319 383
#
# _framework density 19.847648
#
# number of rings (size 3 to 8) (size 9 to 14) (size 15 to 20)
#    0.000    1.000    4.444    4.000    3.111    3.556 
#    0.000    1.111    0.000    0.000    0.000    0.000 
#    0.000    0.000    0.000    0.000    0.000    0.000 
#
# Total GULP energy -446291.330303 kJ/mol
# GULP energy per Si atom -12396.981397 kJ/mol
# Density = 1.980247 g / cm^3
# Si number density = 19.847648 Si / 1000 Ang^3
#
#
#
# Elastic Constant Matrix: (Units=GPa)
#
#
# Indices 1 2 3 4 5 6 
#
# 1 138.3828 66.2795 34.1142 0.0000 0.0000 0.0000
# 2 66.2795 73.5353 20.6564 0.0000 0.0000 0.0000
# 3 34.1142 20.6564 144.9042 0.0000 0.0000 0.0000
# 4 0.0000 0.0000 0.0000 18.7443 0.0000 0.0000
# 5 0.0000 0.0000 0.0000 0.0000 28.5715 0.0000
# 6 0.0000 0.0000 0.0000 0.0000 0.0000 27.3439
#
#
#
# Elastic Compliance Matrix: (Units=1/GPa)
#
#
# Indices 1 2 3 4 5 6 
#
# 1 0.013001 -0.011311 -0.001448 0.000000 0.000000 0.000000
# 2 -0.011311 0.024007 -0.000759 0.000000 0.000000 0.000000
# 3 -0.001448 -0.000759 0.007350 0.000000 0.000000 0.000000
# 4 0.000000 0.000000 0.000000 0.053350 0.000000 0.000000
# 5 0.000000 0.000000 0.000000 0.000000 0.035000 0.000000
# 6 0.000000 0.000000 0.000000 0.000000 0.000000 0.036571
#
#
# Mechanical properties :
#
#
# Convention : Reuss Voigt Hill
#
# Bulk Modulus (GPa) = 57.73406 66.54695 62.14051
# Shear Modulus (GPa) = 24.74131 30.65009 27.69570
#
# Velocity S-wave (km/s) = 3.53450 3.93398 3.73958
# Velocity P-wave (km/s) = 6.76821 7.36455 7.07267
#
# Compressibility (1/GPa) = 0.01732080
#
# Stress axis : x y z
#
# Youngs Moduli (GPa) = 76.91694 41.65371 136.04836
#
# Poissons Ratio (x) = 0.47116 0.19704
# Poissons Ratio (y) = 0.87004 0.10330
# Poissons Ratio (z) = 0.11140 0.03163
#
# Static dielectric constant tensor:
#      x y z
#    x 3.804930 0.000000 0.000000 
#    y 0.000000 3.568240 0.000000 
#    z 0.000000 0.000000 3.572650 
# 
# 
# High freq. dielectric constant tensor:
#      x y z
#    x 1.775470 0.000000 0.000000 
#    y 0.000000 1.772890 0.000000 
#    z 0.000000 0.000000 1.789260 
# 
# From -- ./inp_files/31689.got.cif
#   From: 2010.03.12/outbox.cif.g09.slc.cpg/sg69_16_cif.got.tgz:31689.got - 2010.04.10 23:52:46.
