data_PCOD8285754
_publ_section_title
;
Structure prediction by ZEFSAII (Michael W. Deem and Ramdas Pophale) SiO2 
 PCOD8285754
Probable space group: F D D D
;
_chemical_formula_sum "Si O2"
_cell_formula_units_Z 192
_cell_length_a 25.970158
_cell_length_b 24.227646
_cell_length_c 16.571774
_cell_angle_alpha 90.000000
_cell_angle_beta 90.000000
_cell_angle_gamma 90.000000
_cell_volume 10426.890510
_symmetry_space_group_name_H-M "F D D D"
_symmetry_group_IT_number 70
_space_group.IT_coordinate_system_code '2'
_symmetry_cell_setting 'orthorhombic'
loop_
_space_group_symop_operation_xyz
x,y,z
1/4-x,1/4-y,z
x,1/4-y,1/4-z
1/4-x,y,1/4-z
-x,-y,-z
3/4+x,3/4+y,-z
-x,3/4+y,3/4+z
3/4+x,-y,3/4+z
x,1/2+y,1/2+z
1/4-x,3/4-y,1/2+z
x,3/4-y,3/4-z
1/4-x,1/2+y,3/4-z
-x,1/2-y,1/2-z
3/4+x,1/4+y,1/2-z
-x,1/4+y,1/4+z
3/4+x,1/2-y,1/4+z
1/2+x,y,1/2+z
3/4-x,1/4-y,1/2+z
1/2+x,1/4-y,3/4-z
3/4-x,y,3/4-z
1/2-x,-y,1/2-z
1/4+x,3/4+y,1/2-z
1/2-x,3/4+y,1/4+z
1/4+x,-y,1/4+z
1/2+x,1/2+y,z
3/4-x,3/4-y,z
1/2+x,3/4-y,1/4-z
3/4-x,1/2+y,1/4-z
1/2-x,1/2-y,-z
1/4+x,1/4+y,-z
1/2-x,1/4+y,3/4+z
1/4+x,1/2-y,3/4+z
loop_
_atom_site_type_symbol
_atom_site_label
_atom_site_fract_x
_atom_site_fract_y
_atom_site_fract_z
Si Si1 0.642694 0.687359 0.928436
Si Si2 0.875000 0.158207 0.375000
Si Si3 0.938949 0.100372 0.260045
Si Si4 0.222593 0.170253 0.063245
Si Si5 0.892594 0.625000 0.125000
Si Si6 0.973982 0.753729 0.568204
Si Si7 0.926779 0.216185 0.518764
O O1 0.625000 0.625000 0.908809
O O2 0.676835 0.709711 0.852981
O O3 0.591822 0.724261 0.946814
O O4 0.676117 0.691599 0.009400
O O5 0.921417 0.116798 0.350132
O O6 0.886139 0.196729 0.451399
O O7 0.892610 0.105397 0.197591
O O8 0.955313 0.036953 0.252927
O O9 0.985038 0.141745 0.241821
O O10 0.199939 0.125000 0.125000
O O11 0.249525 0.221190 0.108075
O O12 0.928277 0.675030 0.094899
O O13 0.017567 0.788404 0.522738
#
# Coordination Sequence:
#
# PCOD8285754 Si02
#       7
#    32  16  32  32  16  32  32
#     4  12  23  35  54  87 125 156 187 232 298 358
#     4  10  20  32  57  82 107 140 200 234 276 344
#     4  10  17  35  56  80 109 150 187 237 286 336
#     4  10  19  32  54  83 119 152 182 227 291 361
#     4  10  18  38  56  76 108 154 194 230 284 334
#     4  11  20  35  57  79 114 152 196 238 294 344
#     4  11  22  35  57  83 114 151 192 241 282 349
#
# _framework density 18.413927000000001
#
# number of rings (size 3 to 8) (size 9 to 14) (size 15 to 20)
#    0.000    1.333    4.167    5.500    0.000    1.667 
#    0.000    0.000    3.667    3.000    0.000    0.000 
#    0.000    0.000    0.000    0.000    0.000    0.000 
#
# Total GULP energy -594965.172672 kJ/mol
# GULP energy per Si atom -12395.107764 kJ/mol
# Density = 1.837202 g / cm^3
# Si number density = 18.413927 Si / 1000 Ang^3
#
#
#
# Elastic Constant Matrix: (Units=GPa)
#
#
# Indices 1 2 3 4 5 6 
#
# 1 64.5068 30.5176 23.7119 0.0000 0.0000 0.0000
# 2 30.5176 105.8985 34.9244 0.0000 0.0000 0.0000
# 3 23.7119 34.9244 45.3193 0.0000 0.0000 0.0000
# 4 0.0000 0.0000 0.0000 19.6505 0.0000 0.0000
# 5 0.0000 0.0000 0.0000 0.0000 31.8721 0.0000
# 6 0.0000 0.0000 0.0000 0.0000 0.0000 25.1791
#
#
#
# Elastic Compliance Matrix: (Units=1/GPa)
#
#
# Indices 1 2 3 4 5 6 
#
# 1 0.019919 -0.003088 -0.008043 0.000000 0.000000 0.000000
# 2 -0.003088 0.013139 -0.008510 0.000000 0.000000 0.000000
# 3 -0.008043 -0.008510 0.032832 0.000000 0.000000 0.000000
# 4 0.000000 0.000000 0.000000 0.050889 0.000000 0.000000
# 5 0.000000 0.000000 0.000000 0.000000 0.031375 0.000000
# 6 0.000000 0.000000 0.000000 0.000000 0.000000 0.039716
#
#
# Mechanical properties :
#
#
# Convention : Reuss Voigt Hill
#
# Bulk Modulus (GPa) = 37.58037 43.78137 40.68087
# Shear Modulus (GPa) = 21.18451 23.77839 22.48145
#
# Velocity S-wave (km/s) = 3.39552 3.59740 3.49792
# Velocity P-wave (km/s) = 5.98546 6.40959 6.20116
#
# Compressibility (1/GPa) = 0.02660964
#
# Stress axis : x y z
#
# Youngs Moduli (GPa) = 50.20214 76.10715 30.45841
#
# Poissons Ratio (x) = 0.23502 0.24496
# Poissons Ratio (y) = 0.15502 0.25920
# Poissons Ratio (z) = 0.40375 0.64766
#
# Static dielectric constant tensor:
#      x y z
#    x 3.485010 0.000000 0.000000 
#    y 0.000000 3.585430 0.000000 
#    z 0.000000 0.000000 3.458510 
# 
# 
# High freq. dielectric constant tensor:
#      x y z
#    x 1.704100 0.000000 0.000000 
#    y 0.000000 1.715100 0.000000 
#    z 0.000000 0.000000 1.689800 
# 
# From -- ./inp_files/30055.got.cif
#   From: 2010.03.12/outbox.cif.g09.slc.cpg/sg70_16_cif.got.tgz:30055.got - 2010.04.16 13:46:32.
