data_PCOD8285576
_publ_section_title
;
Structure prediction by ZEFSAII (Michael W. Deem and Ramdas Pophale) SiO2 
 PCOD8285576
Probable space group: F M M M
;
_chemical_formula_sum "Si O2"
_cell_formula_units_Z 136
_cell_length_a 15.607105
_cell_length_b 23.666339
_cell_length_c 17.462473
_cell_angle_alpha 90.000000
_cell_angle_beta 90.000000
_cell_angle_gamma 90.000000
_cell_volume 6449.992074
_symmetry_space_group_name_H-M "F M M M"
_symmetry_group_IT_number 69
_symmetry_cell_setting 'orthorhombic'
loop_
_space_group_symop_operation_xyz
x,y,z
-x,-y,z
x,-y,-z
-x,y,-z
-x,-y,-z
x,y,-z
-x,y,z
x,-y,z
x,1/2+y,1/2+z
-x,1/2-y,1/2+z
x,1/2-y,1/2-z
-x,1/2+y,1/2-z
-x,1/2-y,1/2-z
x,1/2+y,1/2-z
-x,1/2+y,1/2+z
x,1/2-y,1/2+z
1/2+x,y,1/2+z
1/2-x,-y,1/2+z
1/2+x,-y,1/2-z
1/2-x,y,1/2-z
1/2-x,-y,1/2-z
1/2+x,y,1/2-z
1/2-x,y,1/2+z
1/2+x,-y,1/2+z
1/2+x,1/2+y,z
1/2-x,1/2-y,z
1/2+x,1/2-y,-z
1/2-x,1/2+y,-z
1/2-x,1/2-y,-z
1/2+x,1/2+y,-z
1/2-x,1/2+y,z
1/2+x,1/2-y,z
loop_
_atom_site_type_symbol
_atom_site_label
_atom_site_fract_x
_atom_site_fract_y
_atom_site_fract_z
Si Si1 0.841076 0.317962 0.847029
Si Si2 0.000000 0.000000 0.638091
Si Si3 0.903954 0.878553 0.206740
Si Si4 0.657597 0.303442 0.090435
Si Si5 0.000000 0.621039 0.084132
Si Si6 0.351269 0.000000 0.260277
O O1 0.840075 0.338280 0.757705
O O2 0.752161 0.327436 0.891272
O O3 0.864742 0.252538 0.860297
O O4 0.912859 0.358730 0.878734
O O5 0.000000 0.946315 0.583641
O O6 0.910784 0.000000 0.685291
O O7 0.906858 0.851177 0.121677
O O8 0.000000 0.879202 0.242487
O O9 0.872287 0.942506 0.194456
O O10 0.646227 0.292296 0.000000
O O11 0.000000 0.646090 0.000000
O O12 0.250000 0.000000 0.250000
#
# Coordination Sequence:
#
# PCOD8285576 Si02
#       6
#    32   8  32  32  16  16
#     4  11  21  43  65  93 128 167 213 262 316 389
#     4  12  23  44  62 100 131 156 228 274 327 404
#     4  12  24  42  68  95 125 166 222 265 316 386
#     4  11  25  41  62  96 133 171 212 261 316 380
#     4  12  23  38  66  97 133 167 201 274 345 385
#     4  12  22  43  68  90 122 170 214 278 318 374
#
# _framework density 21.085297000000001
#
# number of rings (size 3 to 8) (size 9 to 14) (size 15 to 20)
#    0.000    0.471    4.706    5.824    1.647    3.294 
#    0.000    0.588    0.000    1.412    0.000    0.000 
#    0.000    0.000    0.000    0.000    0.000    0.000 
#
# Total GULP energy -421327.047944 kJ/mol
# GULP energy per Si atom -12391.971998 kJ/mol
# Density = 2.103731 g / cm^3
# Si number density = 21.085297 Si / 1000 Ang^3
#
#
#
# Elastic Constant Matrix: (Units=GPa)
#
#
# Indices 1 2 3 4 5 6 
#
# 1 99.1956 44.6489 14.1650 0.0000 0.0000 0.0000
# 2 44.6489 170.3506 53.1864 0.0000 0.0000 0.0000
# 3 14.1650 53.1864 80.0211 0.0000 0.0000 0.0000
# 4 0.0000 0.0000 0.0000 0.4279 0.0000 0.0000
# 5 0.0000 0.0000 0.0000 0.0000 19.0398 0.0000
# 6 0.0000 0.0000 0.0000 0.0000 0.0000 42.0470
#
#
#
# Elastic Compliance Matrix: (Units=1/GPa)
#
#
# Indices 1 2 3 4 5 6 
#
# 1 0.011430 -0.002983 -0.000041 0.000000 0.000000 0.000000
# 2 -0.002983 0.008186 -0.004913 0.000000 0.000000 0.000000
# 3 -0.000041 -0.004913 0.015769 0.000000 0.000000 0.000000
# 4 0.000000 0.000000 0.000000 2.336822 0.000000 0.000000
# 5 0.000000 0.000000 0.000000 0.000000 0.052521 0.000000
# 6 0.000000 0.000000 0.000000 0.000000 0.000000 0.023783
#
#
# Mechanical properties :
#
#
# Convention : Reuss Voigt Hill
#
# Bulk Modulus (GPa) = 51.25049 63.72977 57.49013
# Shear Modulus (GPa) = 2.02356 28.14075 15.08216
#
# Velocity S-wave (km/s) = 0.98071 3.65720 2.67740
# Velocity P-wave (km/s) = 5.06374 6.93714 6.07311
#
# Compressibility (1/GPa) = 0.01951201
#
# Stress axis : x y z
#
# Youngs Moduli (GPa) = 87.49233 122.16042 63.41480
#
# Poissons Ratio (x) = 0.36441 0.00257
# Poissons Ratio (y) = 0.26099 0.31154
# Poissons Ratio (z) = 0.00355 0.60015
#
# Static dielectric constant tensor:
#      x y z
#    x 3.828220 0.000000 0.000000 
#    y 0.000000 4.034000 0.000000 
#    z 0.000000 0.000000 3.834730 
# 
# 
# High freq. dielectric constant tensor:
#      x y z
#    x 1.837250 0.000000 0.000000 
#    y 0.000000 1.835880 0.000000 
#    z 0.000000 0.000000 1.809290 
# 
# From -- ./inp_files/22912.got.cif
#   From: 2010.03.12/outbox.cif.g09.slc.cpg/sg69_12_cif.got.tgz:22912.got - 2010.04.10 23:52:46.
