data_PCOD8285736
_publ_section_title
;
Structure prediction by ZEFSAII (Michael W. Deem and Ramdas Pophale) SiO2 
 PCOD8285736
Probable space group: F D D D
;
_chemical_formula_sum "Si O2"
_cell_formula_units_Z 216
_cell_length_a 25.840679
_cell_length_b 19.492027
_cell_length_c 22.257059
_cell_angle_alpha 90.000000
_cell_angle_beta 90.000000
_cell_angle_gamma 90.000000
_cell_volume 11210.596012
_symmetry_space_group_name_H-M "F D D D"
_symmetry_group_IT_number 70
_space_group.IT_coordinate_system_code '2'
_symmetry_cell_setting 'orthorhombic'
loop_
_space_group_symop_operation_xyz
x,y,z
1/4-x,1/4-y,z
x,1/4-y,1/4-z
1/4-x,y,1/4-z
-x,-y,-z
3/4+x,3/4+y,-z
-x,3/4+y,3/4+z
3/4+x,-y,3/4+z
x,1/2+y,1/2+z
1/4-x,3/4-y,1/2+z
x,3/4-y,3/4-z
1/4-x,1/2+y,3/4-z
-x,1/2-y,1/2-z
3/4+x,1/4+y,1/2-z
-x,1/4+y,1/4+z
3/4+x,1/2-y,1/4+z
1/2+x,y,1/2+z
3/4-x,1/4-y,1/2+z
1/2+x,1/4-y,3/4-z
3/4-x,y,3/4-z
1/2-x,-y,1/2-z
1/4+x,3/4+y,1/2-z
1/2-x,3/4+y,1/4+z
1/4+x,-y,1/4+z
1/2+x,1/2+y,z
3/4-x,3/4-y,z
1/2+x,3/4-y,1/4-z
3/4-x,1/2+y,1/4-z
1/2-x,1/2-y,-z
1/4+x,1/4+y,-z
1/2-x,1/4+y,3/4+z
1/4+x,1/2-y,3/4+z
loop_
_atom_site_type_symbol
_atom_site_label
_atom_site_fract_x
_atom_site_fract_y
_atom_site_fract_z
Si Si1 0.835789 0.170283 0.322181
Si Si2 0.891366 0.072454 0.693097
Si Si3 0.246371 0.075516 0.816734
Si Si4 0.990107 0.163327 0.681967
Si Si5 0.537514 0.056313 0.699367
Si Si6 0.549136 0.875000 0.375000
Si Si7 0.625000 0.125000 0.625000
Si Si8 0.925779 0.829262 0.076015
O O1 0.875000 0.187755 0.375000
O O2 0.871573 0.173181 0.263434
O O3 0.805054 0.098994 0.333309
O O4 0.789267 0.224304 0.308519
O O5 0.930713 0.135756 0.679928
O O6 0.835665 0.075745 0.662858
O O7 0.914617 0.001503 0.669425
O O8 0.234263 0.101028 0.747954
O O9 0.205486 0.106583 0.864510
O O10 0.242797 0.994348 0.826053
O O11 0.018827 0.125000 0.625000
O O12 0.485155 0.080382 0.669297
O O13 0.589854 0.078676 0.666888
O O14 0.537896 0.086058 0.767070
O O15 0.875000 0.875000 0.067815
#
# Coordination Sequence:
#
# PCOD8285736 Si02
#       8
#    32  32  32  32  32  16   8  32
#     4  10  22  39  57  84 122 154 197 254 316 363
#     4  10  21  38  60  85 116 163 191 257 312 364
#     4  10  22  35  65  90 107 161 210 248 312 384
#     4  10  18  41  65  81 118 158 199 249 328 383
#     4  10  22  36  57  81 123 162 197 243 292 367
#     4  11  22  35  60  86 108 156 213 236 273 374
#     4  10  16  40  52  76 108 184 196 212 306 360
#     4  11  22  38  58  89 124 155 200 253 309 361
#
# _framework density 19.267486000000002
#
# number of rings (size 3 to 8) (size 9 to 14) (size 15 to 20)
#    0.000    1.778    3.704    0.000    4.148    0.000 
#    0.000    1.481    6.519    0.000    0.000    0.000 
#    0.000    0.000    0.000    0.000    0.000    0.000 
#
# Total GULP energy -669023.652593 kJ/mol
# GULP energy per Si atom -12389.326900 kJ/mol
# Density = 1.922363 g / cm^3
# Si number density = 19.267486 Si / 1000 Ang^3
#
#
#
# Elastic Constant Matrix: (Units=GPa)
#
#
# Indices 1 2 3 4 5 6 
#
# 1 100.6861 33.1486 68.0707 0.0000 0.0000 0.0000
# 2 33.1486 71.9760 38.5547 0.0000 0.0000 0.0000
# 3 68.0707 38.5547 183.7376 0.0000 0.0000 0.0000
# 4 0.0000 0.0000 0.0000 31.4897 0.0000 0.0000
# 5 0.0000 0.0000 0.0000 0.0000 100.7844 0.0000
# 6 0.0000 0.0000 0.0000 0.0000 0.0000 15.7897
#
#
#
# Elastic Compliance Matrix: (Units=1/GPa)
#
#
# Indices 1 2 3 4 5 6 
#
# 1 0.014307 -0.004225 -0.004414 0.000000 0.000000 0.000000
# 2 -0.004225 0.016900 -0.001981 0.000000 0.000000 0.000000
# 3 -0.004414 -0.001981 0.007494 0.000000 0.000000 0.000000
# 4 0.000000 0.000000 0.000000 0.031756 0.000000 0.000000
# 5 0.000000 0.000000 0.000000 0.000000 0.009922 0.000000
# 6 0.000000 0.000000 0.000000 0.000000 0.000000 0.063332
#
#
# Mechanical properties :
#
#
# Convention : Reuss Voigt Hill
#
# Bulk Modulus (GPa) = 57.26944 70.66085 63.96515
# Shear Modulus (GPa) = 29.27886 44.05447 36.66667
#
# Velocity S-wave (km/s) = 3.90243 4.78689 4.36711
# Velocity P-wave (km/s) = 7.07765 8.20400 7.66155
#
# Compressibility (1/GPa) = 0.01746132
#
# Stress axis : x y z
#
# Youngs Moduli (GPa) = 69.89673 59.17011 133.44896
#
# Poissons Ratio (x) = 0.24998 0.58903
# Poissons Ratio (y) = 0.29529 0.26438
# Poissons Ratio (z) = 0.30851 0.11723
#
# Static dielectric constant tensor:
#      x y z
#    x 3.188970 0.000000 0.000000 
#    y 0.000000 3.559670 0.000000 
#    z 0.000000 0.000000 4.086200 
# 
# 
# High freq. dielectric constant tensor:
#      x y z
#    x 1.716880 0.000000 0.000000 
#    y 0.000000 1.750100 0.000000 
#    z 0.000000 0.000000 1.778610 
# 
# From -- ./inp_files/54458.got.cif
#   From: 2010.03.12/outbox.cif.g09.slc.cpg/sg70_28_cif.got.tgz:54458.got - 2010.04.16 13:46:32.
