data_PCOD8285751
_publ_section_title
;
Structure prediction by ZEFSAII (Michael W. Deem and Ramdas Pophale) SiO2 
 PCOD8285751
Probable space group: F D D D
;
_chemical_formula_sum "Si O2"
_cell_formula_units_Z 192
_cell_length_a 22.534182
_cell_length_b 14.942775
_cell_length_c 30.828155
_cell_angle_alpha 90.000000
_cell_angle_beta 90.000000
_cell_angle_gamma 90.000000
_cell_volume 10380.555354
_symmetry_space_group_name_H-M "F D D D"
_symmetry_group_IT_number 70
_space_group.IT_coordinate_system_code '2'
_symmetry_cell_setting 'orthorhombic'
loop_
_space_group_symop_operation_xyz
x,y,z
1/4-x,1/4-y,z
x,1/4-y,1/4-z
1/4-x,y,1/4-z
-x,-y,-z
3/4+x,3/4+y,-z
-x,3/4+y,3/4+z
3/4+x,-y,3/4+z
x,1/2+y,1/2+z
1/4-x,3/4-y,1/2+z
x,3/4-y,3/4-z
1/4-x,1/2+y,3/4-z
-x,1/2-y,1/2-z
3/4+x,1/4+y,1/2-z
-x,1/4+y,1/4+z
3/4+x,1/2-y,1/4+z
1/2+x,y,1/2+z
3/4-x,1/4-y,1/2+z
1/2+x,1/4-y,3/4-z
3/4-x,y,3/4-z
1/2-x,-y,1/2-z
1/4+x,3/4+y,1/2-z
1/2-x,3/4+y,1/4+z
1/4+x,-y,1/4+z
1/2+x,1/2+y,z
3/4-x,3/4-y,z
1/2+x,3/4-y,1/4-z
3/4-x,1/2+y,1/4-z
1/2-x,1/2-y,-z
1/4+x,1/4+y,-z
1/2-x,1/4+y,3/4+z
1/4+x,1/2-y,3/4+z
loop_
_atom_site_type_symbol
_atom_site_label
_atom_site_fract_x
_atom_site_fract_y
_atom_site_fract_z
Si Si1 0.532727 0.625000 0.625000
Si Si2 0.875000 0.516732 0.875000
Si Si3 0.199489 0.758431 0.825398
Si Si4 0.399539 0.640246 0.214770
Si Si5 0.699482 0.377382 0.189564
Si Si6 0.614400 0.525868 0.843506
Si Si7 0.742043 0.287326 0.397584
O O1 0.572595 0.544806 0.605553
O O2 0.494360 0.589624 0.665211
O O3 0.898951 0.575971 0.836170
O O4 0.155699 0.790153 0.787015
O O5 0.236176 0.671359 0.810189
O O6 0.163009 0.740501 0.869271
O O7 0.423861 0.634259 0.262745
O O8 0.377934 0.544769 0.195581
O O9 0.452187 0.679265 0.186692
O O10 0.706948 0.473997 0.166964
O O11 0.625000 0.625000 0.824326
O O12 0.548372 0.516942 0.863199
O O13 0.771275 0.375000 0.375000
#
# Coordination Sequence:
#
# PCOD8285751 Si02
#       7
#    16  16  32  32  32  32  32
#     4   9  16  38  60  78 102 150 192 233 286 352
#     4   9  22  36  59  78 112 152 199 222 290 375
#     4  10  18  35  64  80 113 154 189 241 308 350
#     4  10  21  35  56  95 115 143 202 253 286 352
#     4  11  21  39  57  83 120 156 191 242 302 351
#     4  10  17  34  59  91 112 145 203 247 289 355
#     4   9  19  36  61  81 116 154 195 241 294 350
#
# _framework density 18.496120999999999
#
# number of rings (size 3 to 8) (size 9 to 14) (size 15 to 20)
#    0.000    2.167    3.333    1.500    0.000    0.000 
#   12.000    1.250    0.000    0.000    0.000    0.000 
#    0.000    0.000    0.000    0.000    0.000    0.000 
#
# Total GULP energy -595038.709801 kJ/mol
# GULP energy per Si atom -12396.639788 kJ/mol
# Density = 1.845402 g / cm^3
# Si number density = 18.496121 Si / 1000 Ang^3
#
#
#
# Elastic Constant Matrix: (Units=GPa)
#
#
# Indices 1 2 3 4 5 6 
#
# 1 80.7265 48.5055 43.9674 0.0000 0.0000 0.0000
# 2 48.5055 130.9465 54.6409 0.0000 0.0000 0.0000
# 3 43.9674 54.6409 88.4455 0.0000 0.0000 0.0000
# 4 0.0000 0.0000 0.0000 20.3768 0.0000 0.0000
# 5 0.0000 0.0000 0.0000 0.0000 25.7950 0.0000
# 6 0.0000 0.0000 0.0000 0.0000 0.0000 -24.6149
#
#
#
# Elastic Compliance Matrix: (Units=1/GPa)
#
#
# Indices 1 2 3 4 5 6 
#
# 1 0.018456 -0.004053 -0.006671 0.000000 0.000000 0.000000
# 2 -0.004053 0.011179 -0.004892 0.000000 0.000000 0.000000
# 3 -0.006671 -0.004892 0.017645 0.000000 0.000000 0.000000
# 4 0.000000 0.000000 0.000000 0.049075 0.000000 0.000000
# 5 0.000000 0.000000 0.000000 0.000000 0.038767 0.000000
# 6 0.000000 0.000000 0.000000 0.000000 0.000000 -0.040626
#
#
# Mechanical properties :
#
#
# Convention : Reuss Voigt Hill
#
# Bulk Modulus (GPa) = 62.30948 66.03845 64.17396
# Shear Modulus (GPa) = 38.14550 14.51169 26.32859
#
# Velocity S-wave (km/s) = 4.54624 2.80407 3.77698
# Velocity P-wave (km/s) = 7.83063 6.80186 7.33430
#
# Compressibility (1/GPa) = 0.01604892
#
# Stress axis : x y z
#
# Youngs Moduli (GPa) = 54.18290 89.45208 56.67463
#
# Poissons Ratio (x) = 0.36254 0.37807
# Poissons Ratio (y) = 0.21960 0.27723
# Poissons Ratio (z) = 0.36145 0.43757
#
# Static dielectric constant tensor:
#      x y z
#    x 3.464250 0.000000 0.000000 
#    y 0.000000 3.707130 0.000000 
#    z 0.000000 0.000000 3.124400 
# 
# 
# High freq. dielectric constant tensor:
#      x y z
#    x 1.714220 0.000000 0.000000 
#    y 0.000000 1.733190 0.000000 
#    z 0.000000 0.000000 1.683600 
# 
# From -- ./inp_files/67939.got.cif
#   From: 2010.03.12/outbox.cif.g09.slc.cpg/sg70_34_cif.got.tgz:67939.got - 2010.04.16 13:46:32.
