data_PCOD8285300
_publ_section_title
;
Structure prediction by ZEFSAII (Michael W. Deem and Ramdas Pophale) SiO2 
 PCOD8285300
Probable space group: F M M M
;
_chemical_formula_sum "Si O2"
_cell_formula_units_Z 208
_cell_length_a 18.447863
_cell_length_b 20.652321
_cell_length_c 29.084365
_cell_angle_alpha 90.000000
_cell_angle_beta 90.000000
_cell_angle_gamma 90.000000
_cell_volume 11080.886786
_symmetry_space_group_name_H-M "F M M M"
_symmetry_group_IT_number 69
_symmetry_cell_setting 'orthorhombic'
loop_
_space_group_symop_operation_xyz
x,y,z
-x,-y,z
x,-y,-z
-x,y,-z
-x,-y,-z
x,y,-z
-x,y,z
x,-y,z
x,1/2+y,1/2+z
-x,1/2-y,1/2+z
x,1/2-y,1/2-z
-x,1/2+y,1/2-z
-x,1/2-y,1/2-z
x,1/2+y,1/2-z
-x,1/2+y,1/2+z
x,1/2-y,1/2+z
1/2+x,y,1/2+z
1/2-x,-y,1/2+z
1/2+x,-y,1/2-z
1/2-x,y,1/2-z
1/2-x,-y,1/2-z
1/2+x,y,1/2-z
1/2-x,y,1/2+z
1/2+x,-y,1/2+z
1/2+x,1/2+y,z
1/2-x,1/2-y,z
1/2+x,1/2-y,-z
1/2-x,1/2+y,-z
1/2-x,1/2-y,-z
1/2+x,1/2+y,-z
1/2-x,1/2+y,z
1/2+x,1/2-y,z
loop_
_atom_site_type_symbol
_atom_site_label
_atom_site_fract_x
_atom_site_fract_y
_atom_site_fract_z
Si Si1 0.333645 0.241591 0.383429
Si Si2 0.583542 0.927665 0.173316
Si Si3 0.166853 0.927810 0.420609
Si Si4 0.419631 0.323789 0.449794
Si Si5 0.323010 0.621060 0.054936
Si Si6 0.084506 0.214202 0.704020
Si Si7 0.080832 0.500000 0.554106
O O1 0.250000 0.250000 0.372221
O O2 0.359431 0.300692 0.414504
O O3 0.353488 0.179748 0.414464
O O4 0.376205 0.245226 0.335870
O O5 0.500000 0.921805 0.155986
O O6 0.640615 0.924074 0.132053
O O7 0.601129 0.864150 0.205137
O O8 0.593066 0.000000 0.197168
O O9 0.102510 0.899312 0.452818
O O10 0.241657 0.890396 0.428813
O O11 0.180854 0.000000 0.437295
O O12 0.414431 0.291071 0.500000
O O13 0.500000 0.313919 0.429646
O O14 0.374830 0.562578 0.069827
O O15 0.326216 0.635775 0.000000
O O16 0.111766 0.250000 0.750000
O O17 0.000000 0.225687 0.696795
O O18 0.073219 0.500000 0.500000
O O19 0.000000 0.500000 0.576291
#
# Coordination Sequence:
#
# PCOD8285300 Si02
#       7
#    32  32  32  32  32  32  16
#     4  12  23  37  58  85 116 155 198 244 294 359
#     4   9  17  32  57  87 119 155 192 232 287 360
#     4  11  20  33  56  84 117 156 198 242 288 344
#     4  11  23  36  52  81 122 159 194 241 293 349
#     4  11  22  36  57  82 112 156 203 248 296 343
#     4  10  21  39  63  89 117 151 192 244 308 372
#     4   9  20  38  56  76 103 144 203 255 292 339
#
# _framework density 18.771061
#
# number of rings (size 3 to 8) (size 9 to 14) (size 15 to 20)
#    0.000    1.462    3.846    1.846    0.000    4.000 
#    0.000    2.308    1.692    0.000    0.000    3.231 
#    0.000    0.000    0.000    0.000    0.000    0.000 
#
# Total GULP energy -644182.488930 kJ/mol
# GULP energy per Si atom -12388.124787 kJ/mol
# Density = 1.872834 g / cm^3
# Si number density = 18.771061 Si / 1000 Ang^3
#
#
#
# Elastic Constant Matrix: (Units=GPa)
#
#
# Indices 1 2 3 4 5 6 
#
# 1 90.2006 39.2708 41.8604 0.0000 0.0000 0.0000
# 2 39.2708 121.6954 65.0239 0.0000 0.0000 0.0000
# 3 41.8604 65.0239 104.6523 0.0000 0.0000 0.0000
# 4 0.0000 0.0000 0.0000 28.7249 0.0000 0.0000
# 5 0.0000 0.0000 0.0000 0.0000 34.4564 0.0000
# 6 0.0000 0.0000 0.0000 0.0000 0.0000 23.5889
#
#
#
# Elastic Compliance Matrix: (Units=1/GPa)
#
#
# Indices 1 2 3 4 5 6 
#
# 1 0.014027 -0.002288 -0.004189 0.000000 0.000000 0.000000
# 2 -0.002288 0.012674 -0.006960 0.000000 0.000000 0.000000
# 3 -0.004189 -0.006960 0.015555 0.000000 0.000000 0.000000
# 4 0.000000 0.000000 0.000000 0.034813 0.000000 0.000000
# 5 0.000000 0.000000 0.000000 0.000000 0.029022 0.000000
# 6 0.000000 0.000000 0.000000 0.000000 0.000000 0.042393
#
#
# Mechanical properties :
#
#
# Convention : Reuss Voigt Hill
#
# Bulk Modulus (GPa) = 65.00807 67.65093 66.32950
# Shear Modulus (GPa) = 27.70311 28.71358 28.20834
#
# Velocity S-wave (km/s) = 3.84584 3.91535 3.88075
# Velocity P-wave (km/s) = 7.37752 7.52052 7.44936
#
# Compressibility (1/GPa) = 0.01538270
#
# Stress axis : x y z
#
# Youngs Moduli (GPa) = 71.29328 78.89967 64.28691
#
# Poissons Ratio (x) = 0.18054 0.26929
# Poissons Ratio (y) = 0.16313 0.44742
# Poissons Ratio (z) = 0.29864 0.54912
#
# Static dielectric constant tensor:
#      x y z
#    x 3.472740 0.000000 0.000000 
#    y 0.000000 3.942680 0.000000 
#    z 0.000000 0.000000 3.457110 
# 
# 
# High freq. dielectric constant tensor:
#      x y z
#    x 1.734010 0.000000 0.000000 
#    y 0.000000 1.745450 0.000000 
#    z 0.000000 0.000000 1.692620 
# 
# From -- ./inp_files/46529.got.cif
#   From: 2010.03.12/outbox.cif.g09.slc.cpg/sg69_24_cif.got.tgz:46529.got - 2010.04.10 23:52:46.
