data_PCOD8285758
_publ_section_title
;
Structure prediction by ZEFSAII (Michael W. Deem and Ramdas Pophale) SiO2 
 PCOD8285758
Probable space group: F D D D
;
_chemical_formula_sum "Si O2"
_cell_formula_units_Z 144
_cell_length_a 21.072841
_cell_length_b 27.125585
_cell_length_c 12.781070
_cell_angle_alpha 90.000000
_cell_angle_beta 90.000000
_cell_angle_gamma 90.000000
_cell_volume 7305.827552
_symmetry_space_group_name_H-M "F D D D"
_symmetry_group_IT_number 70
_space_group.IT_coordinate_system_code '2'
_symmetry_cell_setting 'orthorhombic'
loop_
_space_group_symop_operation_xyz
x,y,z
1/4-x,1/4-y,z
x,1/4-y,1/4-z
1/4-x,y,1/4-z
-x,-y,-z
3/4+x,3/4+y,-z
-x,3/4+y,3/4+z
3/4+x,-y,3/4+z
x,1/2+y,1/2+z
1/4-x,3/4-y,1/2+z
x,3/4-y,3/4-z
1/4-x,1/2+y,3/4-z
-x,1/2-y,1/2-z
3/4+x,1/4+y,1/2-z
-x,1/4+y,1/4+z
3/4+x,1/2-y,1/4+z
1/2+x,y,1/2+z
3/4-x,1/4-y,1/2+z
1/2+x,1/4-y,3/4-z
3/4-x,y,3/4-z
1/2-x,-y,1/2-z
1/4+x,3/4+y,1/2-z
1/2-x,3/4+y,1/4+z
1/4+x,-y,1/4+z
1/2+x,1/2+y,z
3/4-x,3/4-y,z
1/2+x,3/4-y,1/4-z
3/4-x,1/2+y,1/4-z
1/2-x,1/2-y,-z
1/4+x,1/4+y,-z
1/2-x,1/4+y,3/4+z
1/4+x,1/2-y,3/4+z
loop_
_atom_site_type_symbol
_atom_site_label
_atom_site_fract_x
_atom_site_fract_y
_atom_site_fract_z
Si Si1 0.751097 0.478618 0.984519
Si Si2 0.727045 0.914069 0.955243
Si Si3 0.914286 0.685456 0.192403
Si Si4 0.445744 0.106335 0.342909
Si Si5 0.875000 0.251053 0.875000
O O1 0.700292 0.465935 0.895399
O O2 0.822669 0.468582 0.941111
O O3 0.737808 0.533549 0.029279
O O4 0.739646 0.441805 0.081425
O O5 0.760468 0.875000 0.875000
O O6 0.657945 0.926151 0.906438
O O7 0.725942 0.890811 0.069797
O O8 0.945315 0.633171 0.228063
O O9 0.916106 0.717041 0.298731
O O10 0.375000 0.090626 0.375000
#
# Coordination Sequence:
#
# PCOD8285758 Si02
#       5
#    32  32  32  32  16
#     4  11  21  34  63  86 121 151 188 249 295 348
#     4  10  21  37  58  85 114 152 202 242 282 348
#     4  10  17  37  60  85 114 148 197 245 283 339
#     4  10  19  36  59  87 109 155 206 240 285 343
#     4  10  20  34  57  92 120 146 183 242 306 356
#
# _framework density 19.710291999999999
#
# number of rings (size 3 to 8) (size 9 to 14) (size 15 to 20)
#    0.000    1.778    5.556    4.000    0.000    0.889 
#    0.000    2.222    0.000    6.000    0.000    0.000 
#    0.000    0.000    0.000    0.000    0.000    0.000 
#
# Total GULP energy -446176.742862 kJ/mol
# GULP energy per Si atom -12393.798413 kJ/mol
# Density = 1.966543 g / cm^3
# Si number density = 19.710292 Si / 1000 Ang^3
#
#
#
# Elastic Constant Matrix: (Units=GPa)
#
#
# Indices 1 2 3 4 5 6 
#
# 1 50.0793 57.6900 28.0058 0.0000 0.0000 0.0000
# 2 57.6900 157.6208 51.2832 0.0000 0.0000 0.0000
# 3 28.0058 51.2832 61.7091 0.0000 0.0000 0.0000
# 4 0.0000 0.0000 0.0000 48.1113 0.0000 0.0000
# 5 0.0000 0.0000 0.0000 0.0000 26.9143 0.0000
# 6 0.0000 0.0000 0.0000 0.0000 0.0000 36.8047
#
#
#
# Elastic Compliance Matrix: (Units=1/GPa)
#
#
# Indices 1 2 3 4 5 6 
#
# 1 0.036942 -0.011055 -0.007578 0.000000 0.000000 0.000000
# 2 -0.011055 0.012004 -0.004959 0.000000 0.000000 0.000000
# 3 -0.007578 -0.004959 0.023765 0.000000 0.000000 0.000000
# 4 0.000000 0.000000 0.000000 0.020785 0.000000 0.000000
# 5 0.000000 0.000000 0.000000 0.000000 0.037155 0.000000
# 6 0.000000 0.000000 0.000000 0.000000 0.000000 0.027170
#
#
# Mechanical properties :
#
#
# Convention : Reuss Voigt Hill
#
# Bulk Modulus (GPa) = 39.17433 60.37413 49.77423
# Shear Modulus (GPa) = 23.41772 31.19474 27.30623
#
# Velocity S-wave (km/s) = 3.45062 3.98258 3.72611
# Velocity P-wave (km/s) = 5.98280 7.20036 6.61963
#
# Compressibility (1/GPa) = 0.02552692
#
# Stress axis : x y z
#
# Youngs Moduli (GPa) = 27.06982 83.30615 42.07861
#
# Poissons Ratio (x) = 0.92097 0.31887
# Poissons Ratio (y) = 0.29926 0.20865
# Poissons Ratio (z) = 0.20513 0.41308
#
# Static dielectric constant tensor:
#      x y z
#    x 3.316680 0.000000 0.000000 
#    y 0.000000 3.846190 0.000000 
#    z 0.000000 0.000000 3.720750 
# 
# 
# High freq. dielectric constant tensor:
#      x y z
#    x 1.721480 0.000000 0.000000 
#    y 0.000000 1.773310 0.000000 
#    z 0.000000 0.000000 1.779050 
# 
# From -- ./inp_files/19190.got.cif
#   From: 2010.03.12/outbox.cif.g09.slc.cpg/sg70_10_cif.got.tgz:19190.got - 2010.04.16 13:46:32.
