data_PCOD8285190
_publ_section_title
;
Structure prediction by ZEFSAII (Michael W. Deem and Ramdas Pophale) SiO2 
 PCOD8285190
Probable space group: F M M M
;
_chemical_formula_sum "Si O2"
_cell_formula_units_Z 144
_cell_length_a 17.352227
_cell_length_b 13.751077
_cell_length_c 31.603380
_cell_angle_alpha 90.000000
_cell_angle_beta 90.000000
_cell_angle_gamma 90.000000
_cell_volume 7540.939691
_symmetry_space_group_name_H-M "F M M M"
_symmetry_group_IT_number 69
_symmetry_cell_setting 'orthorhombic'
loop_
_space_group_symop_operation_xyz
x,y,z
-x,-y,z
x,-y,-z
-x,y,-z
-x,-y,-z
x,y,-z
-x,y,z
x,-y,z
x,1/2+y,1/2+z
-x,1/2-y,1/2+z
x,1/2-y,1/2-z
-x,1/2+y,1/2-z
-x,1/2-y,1/2-z
x,1/2+y,1/2-z
-x,1/2+y,1/2+z
x,1/2-y,1/2+z
1/2+x,y,1/2+z
1/2-x,-y,1/2+z
1/2+x,-y,1/2-z
1/2-x,y,1/2-z
1/2-x,-y,1/2-z
1/2+x,y,1/2-z
1/2-x,y,1/2+z
1/2+x,-y,1/2+z
1/2+x,1/2+y,z
1/2-x,1/2-y,z
1/2+x,1/2-y,-z
1/2-x,1/2+y,-z
1/2-x,1/2-y,-z
1/2+x,1/2+y,-z
1/2-x,1/2+y,z
1/2+x,1/2-y,z
loop_
_atom_site_type_symbol
_atom_site_label
_atom_site_fract_x
_atom_site_fract_y
_atom_site_fract_z
Si Si1 0.372930 0.891403 0.668852
Si Si2 0.874397 0.385353 0.892070
Si Si3 0.000000 0.395254 0.831170
Si Si4 0.000000 0.640518 0.263004
Si Si5 0.750000 0.750000 0.139532
Si Si6 0.500000 0.697441 0.450219
Si Si7 0.000000 0.610453 0.400510
O O1 0.423880 0.885033 0.711162
O O2 0.304214 0.813753 0.670289
O O3 0.424699 0.871325 0.627783
O O4 0.337893 0.000000 0.666935
O O5 0.854220 0.500000 0.891926
O O6 0.795748 0.323925 0.891184
O O7 0.923980 0.357277 0.933162
O O8 0.922306 0.347037 0.850067
O O9 0.000000 0.414604 0.781462
O O10 0.000000 0.500000 0.854352
O O11 0.000000 0.750000 0.250000
O O12 0.500000 0.688258 0.500000
O O13 0.500000 0.811851 0.438219
O O14 0.000000 0.500000 0.418614
#
# Coordination Sequence:
#
# PCOD8285190 Si02
#       7
#    32  32  16  16  16  16  16
#     4  10  21  36  58  85 114 153 194 235 282 337
#     4  10  22  38  59  86 114 152 195 235 288 344
#     4   9  18  36  57  75 106 147 192 243 276 314
#     4  11  20  33  57  84 110 147 200 242 278 322
#     4  12  20  36  60  82 120 156 190 228 287 355
#     4  11  21  39  66  89 111 143 190 245 284 331
#     4   9  18  37  61  85 115 148 188 232 278 337
#
# _framework density 19.095763999999999
#
# number of rings (size 3 to 8) (size 9 to 14) (size 15 to 20)
#    0.000    1.778    2.222    4.667    3.111    1.111 
#    0.000    5.556    0.000    8.000    0.000    0.000 
#    0.000    0.000    0.000    0.000    0.000    0.000 
#
# Total GULP energy -446222.886622 kJ/mol
# GULP energy per Si atom -12395.080184 kJ/mol
# Density = 1.905230 g / cm^3
# Si number density = 19.095764 Si / 1000 Ang^3
#
#
#
# Elastic Constant Matrix: (Units=GPa)
#
#
# Indices 1 2 3 4 5 6 
#
# 1 116.0103 66.1964 47.7095 0.0000 0.0000 0.0000
# 2 66.1964 143.1529 37.9938 0.0000 0.0000 0.0000
# 3 47.7095 37.9938 128.5313 0.0000 0.0000 0.0000
# 4 0.0000 0.0000 0.0000 23.5559 0.0000 0.0000
# 5 0.0000 0.0000 0.0000 0.0000 7.2275 0.0000
# 6 0.0000 0.0000 0.0000 0.0000 0.0000 27.9286
#
#
#
# Elastic Compliance Matrix: (Units=1/GPa)
#
#
# Indices 1 2 3 4 5 6 
#
# 1 0.012865 -0.005080 -0.003274 0.000000 0.000000 0.000000
# 2 -0.005080 0.009586 -0.000948 0.000000 0.000000 0.000000
# 3 -0.003274 -0.000948 0.009276 0.000000 0.000000 0.000000
# 4 0.000000 0.000000 0.000000 0.042452 0.000000 0.000000
# 5 0.000000 0.000000 0.000000 0.000000 0.138361 0.000000
# 6 0.000000 0.000000 0.000000 0.000000 0.000000 0.035806
#
#
# Mechanical properties :
#
#
# Convention : Reuss Voigt Hill
#
# Bulk Modulus (GPa) = 76.20067 76.83265 76.51666
# Shear Modulus (GPa) = 18.42818 27.46205 22.94511
#
# Velocity S-wave (km/s) = 3.10988 3.79637 3.47014
# Velocity P-wave (km/s) = 7.27229 7.71618 7.49752
#
# Compressibility (1/GPa) = 0.01312324
#
# Stress axis : x y z
#
# Youngs Moduli (GPa) = 77.73028 104.31563 107.80986
#
# Poissons Ratio (x) = 0.52994 0.35293
# Poissons Ratio (y) = 0.39488 0.10220
# Poissons Ratio (z) = 0.25446 0.09889
#
# Static dielectric constant tensor:
#      x y z
#    x 3.439490 0.000000 0.000000 
#    y 0.000000 3.785960 0.000000 
#    z 0.000000 0.000000 2.839420 
# 
# 
# High freq. dielectric constant tensor:
#      x y z
#    x 1.732310 0.000000 0.000000 
#    y 0.000000 1.777970 0.000000 
#    z 0.000000 0.000000 1.701840 
# 
# From -- ./inp_files/46240.got.cif
#   From: 2010.03.12/outbox.cif.g09.slc.cpg/sg69_24_cif.got.tgz:46240.got - 2010.04.10 23:52:46.
