data_PCOD8285266
_publ_section_title
;
Structure prediction by ZEFSAII (Michael W. Deem and Ramdas Pophale) SiO2 
 PCOD8285266
Probable space group: F M M M
;
_chemical_formula_sum "Si O2"
_cell_formula_units_Z 144
_cell_length_a 18.329227
_cell_length_b 13.370208
_cell_length_c 28.305253
_cell_angle_alpha 90.000000
_cell_angle_beta 90.000000
_cell_angle_gamma 90.000000
_cell_volume 6936.643172
_symmetry_space_group_name_H-M "F M M M"
_symmetry_group_IT_number 69
_symmetry_cell_setting 'orthorhombic'
loop_
_space_group_symop_operation_xyz
x,y,z
-x,-y,z
x,-y,-z
-x,y,-z
-x,-y,-z
x,y,-z
-x,y,z
x,-y,z
x,1/2+y,1/2+z
-x,1/2-y,1/2+z
x,1/2-y,1/2-z
-x,1/2+y,1/2-z
-x,1/2-y,1/2-z
x,1/2+y,1/2-z
-x,1/2+y,1/2+z
x,1/2-y,1/2+z
1/2+x,y,1/2+z
1/2-x,-y,1/2+z
1/2+x,-y,1/2-z
1/2-x,y,1/2-z
1/2-x,-y,1/2-z
1/2+x,y,1/2-z
1/2-x,y,1/2+z
1/2+x,-y,1/2+z
1/2+x,1/2+y,z
1/2-x,1/2-y,z
1/2+x,1/2-y,-z
1/2-x,1/2+y,-z
1/2-x,1/2-y,-z
1/2+x,1/2+y,-z
1/2-x,1/2+y,z
1/2+x,1/2-y,z
loop_
_atom_site_type_symbol
_atom_site_label
_atom_site_fract_x
_atom_site_fract_y
_atom_site_fract_z
Si Si1 0.421201 0.884206 0.247782
Si Si2 0.144969 0.115490 0.844626
Si Si3 0.802959 0.616124 0.822263
Si Si4 0.913088 0.882420 0.500000
Si Si5 0.332066 0.220812 0.914221
O O1 0.500000 0.839024 0.233009
O O2 0.414637 0.869102 0.304076
O O3 0.357131 0.832219 0.216516
O O4 0.419579 0.000000 0.235118
O O5 0.220173 0.157872 0.820890
O O6 0.128857 0.180668 0.891535
O O7 0.151415 0.000000 0.860541
O O8 0.798116 0.500000 0.810534
O O9 0.832711 0.634425 0.874733
O O10 0.880363 0.823794 0.544335
O O11 0.000000 0.871789 0.500000
O O12 0.890429 0.000000 0.500000
O O13 0.250000 0.250000 0.931370
#
# Coordination Sequence:
#
# PCOD8285266 Si02
#       5
#    32  32  32  16  32
#     4   9  17  29  47  74 110 151 190 228 275 330
#     4   9  18  33  53  78 110 148 188 231 276 324
#     4   9  17  31  52  77 107 144 187 235 282 327
#     4  11  25  44  65  89 117 145 176 229 300 360
#     4  10  21  38  60  85 110 143 191 238 284 341
#
# _framework density 20.759322000000001
#
# number of rings (size 3 to 8) (size 9 to 14) (size 15 to 20)
#    0.000    2.556    0.000    1.667    0.000    6.222 
#    0.000    7.222    0.000    0.667    0.000    0.000 
#    0.000    0.000    0.000    0.000    0.000    0.000 
#
# Total GULP energy -446007.809195 kJ/mol
# GULP energy per Si atom -12389.105811 kJ/mol
# Density = 2.071207 g / cm^3
# Si number density = 20.759322 Si / 1000 Ang^3
#
#
#
# Elastic Constant Matrix: (Units=GPa)
#
#
# Indices 1 2 3 4 5 6 
#
# 1 98.9102 32.0540 67.0366 0.0000 0.0000 0.0000
# 2 32.0540 67.8695 25.9056 0.0000 0.0000 0.0000
# 3 67.0366 25.9056 124.7394 0.0000 0.0000 0.0000
# 4 0.0000 0.0000 0.0000 -11.6914 0.0000 0.0000
# 5 0.0000 0.0000 0.0000 0.0000 21.5299 0.0000
# 6 0.0000 0.0000 0.0000 0.0000 0.0000 11.1420
#
#
#
# Elastic Compliance Matrix: (Units=1/GPa)
#
#
# Indices 1 2 3 4 5 6 
#
# 1 0.017354 -0.005036 -0.008281 0.000000 0.000000 0.000000
# 2 -0.005036 0.017464 -0.000921 0.000000 0.000000 0.000000
# 3 -0.008281 -0.000921 0.012658 0.000000 0.000000 0.000000
# 4 0.000000 0.000000 0.000000 -0.085533 0.000000 0.000000
# 5 0.000000 0.000000 0.000000 0.000000 0.046447 0.000000
# 6 0.000000 0.000000 0.000000 0.000000 0.000000 0.089751
#
#
# Mechanical properties :
#
#
# Convention : Reuss Voigt Hill
#
# Bulk Modulus (GPa) = 52.62491 60.16793 56.39642
# Shear Modulus (GPa) = 37.60843 15.29763 26.45303
#
# Velocity S-wave (km/s) = 4.26095 2.71754 3.57357
# Velocity P-wave (km/s) = 7.04363 6.23644 6.65229
#
# Compressibility (1/GPa) = 0.01900241
#
# Stress axis : x y z
#
# Youngs Moduli (GPa) = 57.62271 57.26134 79.00116
#
# Poissons Ratio (x) = 0.28834 0.65418
# Poissons Ratio (y) = 0.29016 0.07273
# Poissons Ratio (z) = 0.47715 0.05272
#
# Static dielectric constant tensor:
#      x y z
#    x 3.973760 0.000000 0.000000 
#    y 0.000000 3.974290 0.000000 
#    z 0.000000 0.000000 3.556140 
# 
# 
# High freq. dielectric constant tensor:
#      x y z
#    x 1.808070 0.000000 0.000000 
#    y 0.000000 1.830500 0.000000 
#    z 0.000000 0.000000 1.785900 
# 
# From -- ./inp_files/15561.got.cif
#   From: 2010.03.12/outbox.cif.g09.slc.cpg/sg69_8_cif.got.tgz:15561.got - 2010.04.10 23:52:46.
