data_PCOD8285534
_publ_section_title
;
Structure prediction by ZEFSAII (Michael W. Deem and Ramdas Pophale) SiO2 
 PCOD8285534
Probable space group: F M M M
;
_chemical_formula_sum "Si O2"
_cell_formula_units_Z 144
_cell_length_a 17.153226
_cell_length_b 14.454967
_cell_length_c 33.469542
_cell_angle_alpha 90.000000
_cell_angle_beta 90.000000
_cell_angle_gamma 90.000000
_cell_volume 8298.750038
_symmetry_space_group_name_H-M "F M M M"
_symmetry_group_IT_number 69
_symmetry_cell_setting 'orthorhombic'
loop_
_space_group_symop_operation_xyz
x,y,z
-x,-y,z
x,-y,-z
-x,y,-z
-x,-y,-z
x,y,-z
-x,y,z
x,-y,z
x,1/2+y,1/2+z
-x,1/2-y,1/2+z
x,1/2-y,1/2-z
-x,1/2+y,1/2-z
-x,1/2-y,1/2-z
x,1/2+y,1/2-z
-x,1/2+y,1/2+z
x,1/2-y,1/2+z
1/2+x,y,1/2+z
1/2-x,-y,1/2+z
1/2+x,-y,1/2-z
1/2-x,y,1/2-z
1/2-x,-y,1/2-z
1/2+x,y,1/2-z
1/2-x,y,1/2+z
1/2+x,-y,1/2+z
1/2+x,1/2+y,z
1/2-x,1/2-y,z
1/2+x,1/2-y,-z
1/2-x,1/2+y,-z
1/2-x,1/2-y,-z
1/2+x,1/2+y,-z
1/2-x,1/2+y,z
1/2+x,1/2-y,z
loop_
_atom_site_type_symbol
_atom_site_label
_atom_site_fract_x
_atom_site_fract_y
_atom_site_fract_z
Si Si1 0.912259 0.000000 0.189784
Si Si2 0.908712 0.355015 0.755150
Si Si3 0.781374 0.651383 0.563656
Si Si4 0.708062 0.500000 0.870858
Si Si5 0.194567 0.500000 0.789351
Si Si6 0.841241 0.100527 0.500000
Si Si7 0.907669 0.798117 0.000000
O O1 0.889424 0.907903 0.214112
O O2 0.877900 0.000000 0.146112
O O3 0.000000 0.000000 0.179229
O O4 0.880400 0.250000 0.750000
O O5 0.859359 0.407582 0.789275
O O6 0.000000 0.360706 0.766423
O O7 0.750000 0.750000 0.577350
O O8 0.787370 0.592300 0.603441
O O9 0.715001 0.603491 0.537786
O O10 0.863261 0.660664 0.539079
O O11 0.763443 0.500000 0.831942
O O12 0.250000 0.500000 0.750000
O O13 0.901682 0.185954 0.500000
O O14 0.884814 0.000000 0.500000
O O15 0.000000 0.825274 0.000000
#
# Coordination Sequence:
#
# PCOD8285534 Si02
#       7
#    16  32  32  16  16  16  16
#     4   9  19  34  48  74 106 134 177 220 274 336
#     4   9  18  36  58  73  98 140 178 224 284 332
#     4   9  20  35  54  79 111 148 179 216 268 328
#     4  12  21  33  53  79 110 145 182 230 283 307
#     4  11  21  35  50  82 107 135 189 242 268 324
#     4   9  15  34  61  78 106 146 181 212 262 328
#     4   9  19  35  57  86 113 142 184 219 255 325
#
# _framework density 17.352011999999998
#
# number of rings (size 3 to 8) (size 9 to 14) (size 15 to 20)
#    0.000    2.444    3.333    2.333    0.000    3.333 
#    0.000    0.556    0.000   10.667    0.000    0.000 
#    0.000    0.000    0.000    0.000    0.000    0.000 
#
# Total GULP energy -445985.725985 kJ/mol
# GULP energy per Si atom -12388.492388 kJ/mol
# Density = 1.731252 g / cm^3
# Si number density = 17.352012 Si / 1000 Ang^3
#
#
#
# Elastic Constant Matrix: (Units=GPa)
#
#
# Indices 1 2 3 4 5 6 
#
# 1 79.2032 40.0412 51.5161 0.0000 0.0000 0.0000
# 2 40.0412 149.8197 62.6603 0.0000 0.0000 0.0000
# 3 51.5161 62.6603 131.2529 0.0000 0.0000 0.0000
# 4 0.0000 0.0000 0.0000 23.3756 0.0000 0.0000
# 5 0.0000 0.0000 0.0000 0.0000 21.6413 0.0000
# 6 0.0000 0.0000 0.0000 0.0000 0.0000 18.6092
#
#
#
# Elastic Compliance Matrix: (Units=1/GPa)
#
#
# Indices 1 2 3 4 5 6 
#
# 1 0.017546 -0.002260 -0.005808 0.000000 0.000000 0.000000
# 2 -0.002260 0.008631 -0.003233 0.000000 0.000000 0.000000
# 3 -0.005808 -0.003233 0.011442 0.000000 0.000000 0.000000
# 4 0.000000 0.000000 0.000000 0.042780 0.000000 0.000000
# 5 0.000000 0.000000 0.000000 0.000000 0.046208 0.000000
# 6 0.000000 0.000000 0.000000 0.000000 0.000000 0.053737
#
#
# Mechanical properties :
#
#
# Convention : Reuss Voigt Hill
#
# Bulk Modulus (GPa) = 66.59403 74.30123 70.44763
# Shear Modulus (GPa) = 24.04410 26.46244 25.25327
#
# Velocity S-wave (km/s) = 3.72649 3.90941 3.81904
# Velocity P-wave (km/s) = 7.54833 7.95556 7.75462
#
# Compressibility (1/GPa) = 0.01501636
#
# Stress axis : x y z
#
# Youngs Moduli (GPa) = 56.99338 115.85998 87.39821
#
# Poissons Ratio (x) = 0.26189 0.50757
# Poissons Ratio (y) = 0.12883 0.28258
# Poissons Ratio (z) = 0.33099 0.37461
#
# Static dielectric constant tensor:
#      x y z
#    x 3.282350 0.000000 0.000000 
#    y 0.000000 3.430750 0.000000 
#    z 0.000000 0.000000 3.809490 
# 
# 
# High freq. dielectric constant tensor:
#      x y z
#    x 1.666330 0.000000 0.000000 
#    y 0.000000 1.683960 0.000000 
#    z 0.000000 0.000000 1.648720 
# 
# From -- ./inp_files/46244.got.cif
#   From: 2010.03.12/outbox.cif.g09.slc.cpg/sg69_24_cif.got.tgz:46244.got - 2010.04.10 23:52:46.
