data_PCOD8285103
_publ_section_title
;
Structure prediction by ZEFSAII (Michael W. Deem and Ramdas Pophale) SiO2 
 PCOD8285103
Probable space group: F M M M
;
_chemical_formula_sum "Si O2"
_cell_formula_units_Z 176
_cell_length_a 11.316419
_cell_length_b 25.711825
_cell_length_c 27.676154
_cell_angle_alpha 90.000000
_cell_angle_beta 90.000000
_cell_angle_gamma 90.000000
_cell_volume 8052.813873
_symmetry_space_group_name_H-M "F M M M"
_symmetry_group_IT_number 69
_symmetry_cell_setting 'orthorhombic'
loop_
_space_group_symop_operation_xyz
x,y,z
-x,-y,z
x,-y,-z
-x,y,-z
-x,-y,-z
x,y,-z
-x,y,z
x,-y,z
x,1/2+y,1/2+z
-x,1/2-y,1/2+z
x,1/2-y,1/2-z
-x,1/2+y,1/2-z
-x,1/2-y,1/2-z
x,1/2+y,1/2-z
-x,1/2+y,1/2+z
x,1/2-y,1/2+z
1/2+x,y,1/2+z
1/2-x,-y,1/2+z
1/2+x,-y,1/2-z
1/2-x,y,1/2-z
1/2-x,-y,1/2-z
1/2+x,y,1/2-z
1/2-x,y,1/2+z
1/2+x,-y,1/2+z
1/2+x,1/2+y,z
1/2-x,1/2-y,z
1/2+x,1/2-y,-z
1/2-x,1/2+y,-z
1/2-x,1/2-y,-z
1/2+x,1/2+y,-z
1/2-x,1/2+y,z
1/2+x,1/2-y,z
loop_
_atom_site_type_symbol
_atom_site_label
_atom_site_fract_x
_atom_site_fract_y
_atom_site_fract_z
Si Si1 0.000000 0.363603 0.555685
Si Si2 0.136908 0.101962 0.609089
Si Si3 0.705375 0.609344 0.802254
Si Si4 0.358705 0.000000 0.054962
Si Si5 0.742796 0.807946 0.555915
Si Si6 0.500000 0.941379 0.643293
Si Si7 0.130988 0.273255 0.696828
O O1 0.887766 0.328155 0.567003
O O2 0.000000 0.410416 0.593046
O O3 0.000000 0.383552 0.500000
O O4 0.181827 0.109129 0.663185
O O5 0.162215 0.154528 0.580083
O O6 0.000000 0.092583 0.612846
O O7 0.192302 0.051522 0.581733
O O8 0.750000 0.591179 0.750000
O O9 0.613264 0.568600 0.823540
O O10 0.642870 0.665078 0.800274
O O11 0.500000 0.000000 0.054825
O O12 0.310867 0.000000 0.000000
O O13 0.774728 0.806931 0.500000
O O14 0.750000 0.750000 0.577767
O O15 0.500000 0.000000 0.625996
O O16 0.129898 0.250000 0.750000
O O17 0.250000 0.250000 0.669961
O O18 0.000000 0.260689 0.673026
#
# Coordination Sequence:
#
# PCOD8285103 Si02
#       7
#    16  32  32  16  32  16  32
#     4  10  22  47  74 103 142 182 234 299 353 428
#     4  11  25  42  67 105 139 178 237 292 349 424
#     4  12  26  46  69  98 141 186 236 291 347 421
#     4   9  20  44  73 101 137 177 223 290 355 416
#     4  10  22  41  68 102 143 187 225 280 357 435
#     4  12  28  51  73 101 138 185 247 296 360 425
#     4  10  20  39  68  99 131 180 232 290 351 409
#
# _framework density 21.855715
#
# number of rings (size 3 to 8) (size 9 to 14) (size 15 to 20)
#    0.000    1.364    4.545    0.545    3.818    3.091 
#    0.000    0.000    0.000    0.000    0.000    0.000 
#    0.000    0.000    0.000    0.000    0.000    0.000 
#
# Total GULP energy -545497.852605 kJ/mol
# GULP energy per Si atom -12397.678468 kJ/mol
# Density = 2.180597 g / cm^3
# Si number density = 21.855715 Si / 1000 Ang^3
#
#
#
# Elastic Constant Matrix: (Units=GPa)
#
#
# Indices 1 2 3 4 5 6 
#
# 1 127.1097 39.0020 45.6733 0.0000 0.0000 0.0000
# 2 39.0020 166.9578 70.7119 0.0000 0.0000 0.0000
# 3 45.6733 70.7119 122.5356 0.0000 0.0000 0.0000
# 4 0.0000 0.0000 0.0000 35.3503 0.0000 0.0000
# 5 0.0000 0.0000 0.0000 0.0000 1396.9042 0.0000
# 6 0.0000 0.0000 0.0000 0.0000 0.0000 34.6557
#
#
#
# Elastic Compliance Matrix: (Units=1/GPa)
#
#
# Indices 1 2 3 4 5 6 
#
# 1 0.009190 -0.000921 -0.002894 0.000000 0.000000 0.000000
# 2 -0.000921 0.008019 -0.004284 0.000000 0.000000 0.000000
# 3 -0.002894 -0.004284 0.011712 0.000000 0.000000 0.000000
# 4 0.000000 0.000000 0.000000 0.028288 0.000000 0.000000
# 5 0.000000 0.000000 0.000000 0.000000 0.000716 0.000000
# 6 0.000000 0.000000 0.000000 0.000000 0.000000 0.028855
#
#
# Mechanical properties :
#
#
# Convention : Reuss Voigt Hill
#
# Bulk Modulus (GPa) = 78.60201 80.81970 79.71085
# Shear Modulus (GPa) = 46.63331 310.79645 178.71488
#
# Velocity S-wave (km/s) = 4.62420 11.93786 9.05250
# Velocity P-wave (km/s) = 8.03449 15.06903 12.07536
#
# Compressibility (1/GPa) = 0.01272232
#
# Stress axis : x y z
#
# Youngs Moduli (GPa) = 108.81814 124.69938 85.38339
#
# Poissons Ratio (x) = 0.11487 0.24708
# Poissons Ratio (y) = 0.10024 0.36581
# Poissons Ratio (z) = 0.31489 0.53426
#
# Static dielectric constant tensor:
#      x y z
#    x 4.440070 0.000000 0.000000 
#    y 0.000000 3.749280 0.000000 
#    z 0.000000 0.000000 3.847900 
# 
# 
# High freq. dielectric constant tensor:
#      x y z
#    x 1.866500 0.000000 0.000000 
#    y 0.000000 1.859350 0.000000 
#    z 0.000000 0.000000 1.860070 
# 
# From -- ./inp_files/40356.got.cif
#   From: 2010.03.12/outbox.cif.g09.slc.cpg/sg69_21_cif.got.tgz:40356.got - 2010.04.10 23:52:46.
