data_PCOD8285849
_publ_section_title
;
Structure prediction by ZEFSAII (Michael W. Deem and Ramdas Pophale) SiO2 
 PCOD8285849
Probable space group: F D D D
;
_chemical_formula_sum "Si O2"
_cell_formula_units_Z 160
_cell_length_a 11.483538
_cell_length_b 24.354203
_cell_length_c 28.277992
_cell_angle_alpha 90.000000
_cell_angle_beta 90.000000
_cell_angle_gamma 90.000000
_cell_volume 7908.574331
_symmetry_space_group_name_H-M "F D D D"
_symmetry_group_IT_number 70
_space_group.IT_coordinate_system_code '2'
_symmetry_cell_setting 'orthorhombic'
loop_
_space_group_symop_operation_xyz
x,y,z
1/4-x,1/4-y,z
x,1/4-y,1/4-z
1/4-x,y,1/4-z
-x,-y,-z
3/4+x,3/4+y,-z
-x,3/4+y,3/4+z
3/4+x,-y,3/4+z
x,1/2+y,1/2+z
1/4-x,3/4-y,1/2+z
x,3/4-y,3/4-z
1/4-x,1/2+y,3/4-z
-x,1/2-y,1/2-z
3/4+x,1/4+y,1/2-z
-x,1/4+y,1/4+z
3/4+x,1/2-y,1/4+z
1/2+x,y,1/2+z
3/4-x,1/4-y,1/2+z
1/2+x,1/4-y,3/4-z
3/4-x,y,3/4-z
1/2-x,-y,1/2-z
1/4+x,3/4+y,1/2-z
1/2-x,3/4+y,1/4+z
1/4+x,-y,1/4+z
1/2+x,1/2+y,z
3/4-x,3/4-y,z
1/2+x,3/4-y,1/4-z
3/4-x,1/2+y,1/4-z
1/2-x,1/2-y,-z
1/4+x,1/4+y,-z
1/2-x,1/4+y,3/4+z
1/4+x,1/2-y,3/4+z
loop_
_atom_site_type_symbol
_atom_site_label
_atom_site_fract_x
_atom_site_fract_y
_atom_site_fract_z
Si Si1 0.125000 0.625000 0.207361
Si Si2 0.376863 0.028055 0.150230
Si Si3 0.382983 0.609108 0.737588
Si Si4 0.785572 0.924174 0.930316
Si Si5 0.920916 0.535846 0.425022
Si Si6 0.875000 0.289817 0.875000
O O1 0.234914 0.619835 0.242729
O O2 0.118765 0.676863 0.173252
O O3 0.391293 0.067729 0.194230
O O4 0.301381 0.063214 0.112815
O O5 0.501602 0.007282 0.128909
O O6 0.308428 0.974493 0.167900
O O7 0.291614 0.657815 0.726009
O O8 0.343500 0.582078 0.786112
O O9 0.875000 0.875000 0.917652
O O10 0.858745 0.979159 0.941466
O O11 0.875000 0.558030 0.375000
#
# Coordination Sequence:
#
# PCOD8285849 Si02
#       6
#    16  32  32  32  32  16
#     4   9  18  30  56  82 114 152 186 228 299 350
#     4  10  19  31  56  88 117 139 187 242 305 337
#     4  11  20  35  57  84 117 155 194 241 297 355
#     4  11  21  32  58  87 117 145 186 243 300 348
#     4  10  23  36  57  86 118 151 196 249 293 347
#     4   9  16  30  52  90 114 146 172 240 296 356
#
# _framework density 20.231206
#
# number of rings (size 3 to 8) (size 9 to 14) (size 15 to 20)
#    0.000    1.800    4.000    1.200    5.600    0.000 
#    0.000    1.000    2.200    0.000    5.200    0.000 
#    0.000    0.000    0.000    0.000    0.000    0.000 
#
# Total GULP energy -495602.031183 kJ/mol
# GULP energy per Si atom -12390.050780 kJ/mol
# Density = 2.018516 g / cm^3
# Si number density = 20.231206 Si / 1000 Ang^3
#
#
#
# Elastic Constant Matrix: (Units=GPa)
#
#
# Indices 1 2 3 4 5 6 
#
# 1 196.1563 33.0161 59.8222 0.0000 0.0000 0.0000
# 2 33.0161 35.7662 54.7482 0.0000 0.0000 0.0000
# 3 59.8222 54.7482 94.5351 0.0000 0.0000 0.0000
# 4 0.0000 0.0000 0.0000 57.9810 0.0000 0.0000
# 5 0.0000 0.0000 0.0000 0.0000 21.3263 0.0000
# 6 0.0000 0.0000 0.0000 0.0000 0.0000 5.8630
#
#
#
# Elastic Compliance Matrix: (Units=1/GPa)
#
#
# Indices 1 2 3 4 5 6 
#
# 1 0.006343 0.002545 -0.005488 0.000000 0.000000 0.000000
# 2 0.002545 0.247332 -0.144848 0.000000 0.000000 0.000000
# 3 -0.005488 -0.144848 0.097936 0.000000 0.000000 0.000000
# 4 0.000000 0.000000 0.000000 0.017247 0.000000 0.000000
# 5 0.000000 0.000000 0.000000 0.000000 0.046891 0.000000
# 6 0.000000 0.000000 0.000000 0.000000 0.000000 0.170561
#
#
# Mechanical properties :
#
#
# Convention : Reuss Voigt Hill
#
# Bulk Modulus (GPa) = 17.84757 69.07007 43.45882
# Shear Modulus (GPa) = 5.55205 28.95880 17.25543
#
# Velocity S-wave (km/s) = 1.65839 3.78748 2.92363
# Velocity P-wave (km/s) = 3.53666 7.30350 5.73799
#
# Compressibility (1/GPa) = 0.05603005
#
# Stress axis : x y z
#
# Youngs Moduli (GPa) = 157.64710 4.04316 10.21070
#
# Poissons Ratio (x) = -0.01029 0.05603
# Poissons Ratio (y) = -0.40119 1.47900
# Poissons Ratio (z) = 0.86514 0.58564
#
# Static dielectric constant tensor:
#      x y z
#    x 4.762210 0.000000 0.000000 
#    y 0.000000 3.150800 0.000000 
#    z 0.000000 0.000000 3.092130 
# 
# 
# High freq. dielectric constant tensor:
#      x y z
#    x 1.821890 0.000000 0.000000 
#    y 0.000000 1.728200 0.000000 
#    z 0.000000 0.000000 1.774640 
# 
# From -- ./inp_files/64874.got.cif
#   From: 2010.03.12/outbox.cif.g09.slc.cpg/sg70_33_cif.got.tgz:64874.got - 2010.04.16 13:46:32.
