data_PCOD8285424
_publ_section_title
;
Structure prediction by ZEFSAII (Michael W. Deem and Ramdas Pophale) SiO2 
 PCOD8285424
Probable space group: F M M M
;
_chemical_formula_sum "Si O2"
_cell_formula_units_Z 160
_cell_length_a 23.022609
_cell_length_b 15.405156
_cell_length_c 22.184597
_cell_angle_alpha 90.000000
_cell_angle_beta 90.000000
_cell_angle_gamma 90.000000
_cell_volume 7868.141872
_symmetry_space_group_name_H-M "F M M M"
_symmetry_group_IT_number 69
_symmetry_cell_setting 'orthorhombic'
loop_
_space_group_symop_operation_xyz
x,y,z
-x,-y,z
x,-y,-z
-x,y,-z
-x,-y,-z
x,y,-z
-x,y,z
x,-y,z
x,1/2+y,1/2+z
-x,1/2-y,1/2+z
x,1/2-y,1/2-z
-x,1/2+y,1/2-z
-x,1/2-y,1/2-z
x,1/2+y,1/2-z
-x,1/2+y,1/2+z
x,1/2-y,1/2+z
1/2+x,y,1/2+z
1/2-x,-y,1/2+z
1/2+x,-y,1/2-z
1/2-x,y,1/2-z
1/2-x,-y,1/2-z
1/2+x,y,1/2-z
1/2-x,y,1/2+z
1/2+x,-y,1/2+z
1/2+x,1/2+y,z
1/2-x,1/2-y,z
1/2+x,1/2-y,-z
1/2-x,1/2+y,-z
1/2-x,1/2-y,-z
1/2+x,1/2+y,-z
1/2-x,1/2+y,z
1/2+x,1/2-y,z
loop_
_atom_site_type_symbol
_atom_site_label
_atom_site_fract_x
_atom_site_fract_y
_atom_site_fract_z
Si Si1 0.857937 0.402700 0.698333
Si Si2 0.310827 0.901618 0.500000
Si Si3 0.065451 0.237808 0.870813
Si Si4 0.365980 0.097830 0.162527
Si Si5 0.935379 0.663352 0.500000
Si Si6 0.744958 0.349219 0.122550
O O1 0.883478 0.500000 0.688670
O O2 0.898094 0.333234 0.665292
O O3 0.851926 0.380150 0.768300
O O4 0.793688 0.400196 0.670846
O O5 0.381505 0.903484 0.500000
O O6 0.285412 0.852662 0.442413
O O7 0.288966 0.000000 0.500000
O O8 0.085476 0.335736 0.859464
O O9 0.070714 0.224092 0.942006
O O10 0.000000 0.228260 0.847524
O O11 0.308269 0.107719 0.122152
O O12 0.389967 0.000000 0.154964
O O13 0.000000 0.617592 0.500000
O O14 0.750000 0.250000 0.142829
#
# Coordination Sequence:
#
# PCOD8285424 Si02
#       6
#    32  16  32  32  16  32
#     4  11  23  40  64  94 127 165 211 260 316 383
#     4  12  23  38  62  94 130 167 212 267 319 375
#     4  11  24  43  66  92 126 165 214 268 319 372
#     4  11  24  41  63  93 129 169 210 257 315 378
#     4  10  22  42  65  91 124 167 212 262 318 378
#     4  12  23  39  63  92 129 168 213 259 318 382
#
# _framework density 20.335170000000002
#
# number of rings (size 3 to 8) (size 9 to 14) (size 15 to 20)
#    0.000    0.800    4.000    3.300    0.000    5.800 
#    0.000    5.500    0.000    1.800    0.000    0.000 
#    0.000    0.000    0.000    0.000    0.000    0.000 
#
# Total GULP energy -496116.616933 kJ/mol
# GULP energy per Si atom -12402.915423 kJ/mol
# Density = 2.028889 g / cm^3
# Si number density = 20.335170 Si / 1000 Ang^3
#
#
#
# Elastic Constant Matrix: (Units=GPa)
#
#
# Indices 1 2 3 4 5 6 
#
# 1 88.9632 36.1368 27.4977 0.0000 0.0000 0.0000
# 2 36.1368 121.4614 24.0541 0.0000 0.0000 0.0000
# 3 27.4977 24.0541 90.7822 0.0000 0.0000 0.0000
# 4 0.0000 0.0000 0.0000 22.2796 0.0000 0.0000
# 5 0.0000 0.0000 0.0000 0.0000 7.3762 0.0000
# 6 0.0000 0.0000 0.0000 0.0000 0.0000 20.1025
#
#
#
# Elastic Compliance Matrix: (Units=1/GPa)
#
#
# Indices 1 2 3 4 5 6 
#
# 1 0.013624 -0.003415 -0.003222 0.000000 0.000000 0.000000
# 2 -0.003415 0.009545 -0.001495 0.000000 0.000000 0.000000
# 3 -0.003222 -0.001495 0.012387 0.000000 0.000000 0.000000
# 4 0.000000 0.000000 0.000000 0.044884 0.000000 0.000000
# 5 0.000000 0.000000 0.000000 0.000000 0.135572 0.000000
# 6 0.000000 0.000000 0.000000 0.000000 0.000000 0.049745
#
#
# Mechanical properties :
#
#
# Convention : Reuss Voigt Hill
#
# Bulk Modulus (GPa) = 51.83246 52.95378 52.39312
# Shear Modulus (GPa) = 17.33395 24.18618 20.76006
#
# Velocity S-wave (km/s) = 2.92278 3.45248 3.19861
# Velocity P-wave (km/s) = 6.07738 6.47995 6.28189
#
# Compressibility (1/GPa) = 0.01929293
#
# Stress axis : x y z
#
# Youngs Moduli (GPa) = 73.40167 104.76511 80.72820
#
# Poissons Ratio (x) = 0.35780 0.26008
# Poissons Ratio (y) = 0.25069 0.12066
# Poissons Ratio (z) = 0.23647 0.15659
#
# Static dielectric constant tensor:
#      x y z
#    x 3.823980 0.000000 0.000000 
#    y 0.000000 3.684080 0.000000 
#    z 0.000000 0.000000 3.790900 
# 
# 
# High freq. dielectric constant tensor:
#      x y z
#    x 1.794030 0.000000 0.000000 
#    y 0.000000 1.798900 0.000000 
#    z 0.000000 0.000000 1.802810 
# 
# From -- ./inp_files/37793.got.cif
#   From: 2010.03.12/outbox.cif.g09.slc.cpg/sg69_19_cif.got.tgz:37793.got - 2010.04.10 23:52:46.
