data_PCOD8285450
_publ_section_title
;
Structure prediction by ZEFSAII (Michael W. Deem and Ramdas Pophale) SiO2 
 PCOD8285450
Probable space group: F M M M
;
_chemical_formula_sum "Si O2"
_cell_formula_units_Z 176
_cell_length_a 17.554633
_cell_length_b 25.472665
_cell_length_c 20.165801
_cell_angle_alpha 90.000000
_cell_angle_beta 90.000000
_cell_angle_gamma 90.000000
_cell_volume 9017.405832
_symmetry_space_group_name_H-M "F M M M"
_symmetry_group_IT_number 69
_symmetry_cell_setting 'orthorhombic'
loop_
_space_group_symop_operation_xyz
x,y,z
-x,-y,z
x,-y,-z
-x,y,-z
-x,-y,-z
x,y,-z
-x,y,z
x,-y,z
x,1/2+y,1/2+z
-x,1/2-y,1/2+z
x,1/2-y,1/2-z
-x,1/2+y,1/2-z
-x,1/2-y,1/2-z
x,1/2+y,1/2-z
-x,1/2+y,1/2+z
x,1/2-y,1/2+z
1/2+x,y,1/2+z
1/2-x,-y,1/2+z
1/2+x,-y,1/2-z
1/2-x,y,1/2-z
1/2-x,-y,1/2-z
1/2+x,y,1/2-z
1/2-x,y,1/2+z
1/2+x,-y,1/2+z
1/2+x,1/2+y,z
1/2-x,1/2-y,z
1/2+x,1/2-y,-z
1/2-x,1/2+y,-z
1/2-x,1/2-y,-z
1/2+x,1/2+y,-z
1/2-x,1/2+y,z
1/2+x,1/2-y,z
loop_
_atom_site_type_symbol
_atom_site_label
_atom_site_fract_x
_atom_site_fract_y
_atom_site_fract_z
Si Si1 0.000000 0.937969 0.076560
Si Si2 0.282224 0.439515 0.578362
Si Si3 0.589254 0.310665 0.754899
Si Si4 0.140873 0.622808 0.375816
Si Si5 0.587359 0.865068 0.116877
Si Si6 0.822032 0.183659 0.000000
Si Si7 0.151824 0.195006 0.500000
O O1 0.927311 0.918319 0.117294
O O2 0.000000 0.000000 0.078580
O O3 0.000000 0.918572 0.000000
O O4 0.265271 0.433908 0.500000
O O5 0.281803 0.500000 0.599538
O O6 0.219281 0.409381 0.621761
O O7 0.364069 0.416317 0.598442
O O8 0.500000 0.312360 0.772807
O O9 0.616643 0.250000 0.750000
O O10 0.636710 0.342229 0.809864
O O11 0.608316 0.340645 0.687387
O O12 0.134676 0.663164 0.435993
O O13 0.500000 0.882802 0.113779
O O14 0.603312 0.819201 0.064359
O O15 0.829004 0.245012 0.000000
O O16 0.733334 0.164543 0.000000
#
# Coordination Sequence:
#
# PCOD8285450 Si02
#       7
#    16  32  32  32  32  16  16
#     4  11  22  36  61  94 124 163 210 255 309 371
#     4  11  23  42  67  93 124 161 206 269 328 371
#     4  10  23  41  62  91 131 171 206 251 311 374
#     4  12  20  41  61  91 126 164 207 252 310 380
#     4  11  22  42  64  90 123 165 213 263 311 374
#     4  11  22  35  63  92 127 155 204 257 312 374
#     4  11  21  40  59  92 124 158 204 264 312 369
#
# _framework density 19.517809
#
# number of rings (size 3 to 8) (size 9 to 14) (size 15 to 20)
#    0.000    1.000    5.455    1.909    0.000    2.545 
#    3.273    4.545    0.000    0.000    0.000    0.000 
#    0.000    0.000    0.000    0.000    0.000    0.000 
#
# Total GULP energy -545729.643511 kJ/mol
# GULP energy per Si atom -12402.946443 kJ/mol
# Density = 1.947339 g / cm^3
# Si number density = 19.517809 Si / 1000 Ang^3
#
#
#
# Elastic Constant Matrix: (Units=GPa)
#
#
# Indices 1 2 3 4 5 6 
#
# 1 102.5419 51.3691 49.8815 0.0000 0.0000 0.0000
# 2 51.3691 128.8666 56.7728 0.0000 0.0000 0.0000
# 3 49.8815 56.7728 139.8247 0.0000 0.0000 0.0000
# 4 0.0000 0.0000 0.0000 13.6193 0.0000 0.0000
# 5 0.0000 0.0000 0.0000 0.0000 23.8675 0.0000
# 6 0.0000 0.0000 0.0000 0.0000 0.0000 21.5624
#
#
#
# Elastic Compliance Matrix: (Units=1/GPa)
#
#
# Indices 1 2 3 4 5 6 
#
# 1 0.013228 -0.003890 -0.003140 0.000000 0.000000 0.000000
# 2 -0.003890 0.010594 -0.002914 0.000000 0.000000 0.000000
# 3 -0.003140 -0.002914 0.009455 0.000000 0.000000 0.000000
# 4 0.000000 0.000000 0.000000 0.073425 0.000000 0.000000
# 5 0.000000 0.000000 0.000000 0.000000 0.041898 0.000000
# 6 0.000000 0.000000 0.000000 0.000000 0.000000 0.046377
#
#
# Mechanical properties :
#
#
# Convention : Reuss Voigt Hill
#
# Bulk Modulus (GPa) = 74.67941 76.36443 75.52192
# Shear Modulus (GPa) = 22.79697 26.02383 24.41040
#
# Velocity S-wave (km/s) = 3.42132 3.65545 3.54032
# Velocity P-wave (km/s) = 7.34524 7.55161 7.44914
#
# Compressibility (1/GPa) = 0.01339057
#
# Stress axis : x y z
#
# Youngs Moduli (GPa) = 75.59718 94.39071 105.76428
#
# Poissons Ratio (x) = 0.36716 0.33206
# Poissons Ratio (y) = 0.29406 0.30819
# Poissons Ratio (z) = 0.23735 0.27505
#
# Static dielectric constant tensor:
#      x y z
#    x 3.649240 0.000000 0.000000 
#    y 0.000000 3.593070 0.000000 
#    z 0.000000 0.000000 3.501730 
# 
# 
# High freq. dielectric constant tensor:
#      x y z
#    x 1.762300 0.000000 0.000000 
#    y 0.000000 1.771190 0.000000 
#    z 0.000000 0.000000 1.755450 
# 
# From -- ./inp_files/23322.got.cif
#   From: 2010.03.12/outbox.cif.g09.slc.cpg/sg69_12_cif.got.tgz:23322.got - 2010.04.10 23:52:46.
