data_PCOD8285307
_publ_section_title
;
Structure prediction by ZEFSAII (Michael W. Deem and Ramdas Pophale) SiO2 
 PCOD8285307
Probable space group: F M M M
;
_chemical_formula_sum "Si O2"
_cell_formula_units_Z 136
_cell_length_a 17.215145
_cell_length_b 18.678163
_cell_length_c 20.791971
_cell_angle_alpha 90.000000
_cell_angle_beta 90.000000
_cell_angle_gamma 90.000000
_cell_volume 6685.601812
_symmetry_space_group_name_H-M "F M M M"
_symmetry_group_IT_number 69
_symmetry_cell_setting 'orthorhombic'
loop_
_space_group_symop_operation_xyz
x,y,z
-x,-y,z
x,-y,-z
-x,y,-z
-x,-y,-z
x,y,-z
-x,y,z
x,-y,z
x,1/2+y,1/2+z
-x,1/2-y,1/2+z
x,1/2-y,1/2-z
-x,1/2+y,1/2-z
-x,1/2-y,1/2-z
x,1/2+y,1/2-z
-x,1/2+y,1/2+z
x,1/2-y,1/2+z
1/2+x,y,1/2+z
1/2-x,-y,1/2+z
1/2+x,-y,1/2-z
1/2-x,y,1/2-z
1/2-x,-y,1/2-z
1/2+x,y,1/2-z
1/2-x,y,1/2+z
1/2+x,-y,1/2+z
1/2+x,1/2+y,z
1/2-x,1/2-y,z
1/2+x,1/2-y,-z
1/2-x,1/2+y,-z
1/2-x,1/2-y,-z
1/2+x,1/2+y,-z
1/2-x,1/2+y,z
1/2+x,1/2-y,z
loop_
_atom_site_type_symbol
_atom_site_label
_atom_site_fract_x
_atom_site_fract_y
_atom_site_fract_z
Si Si1 0.909551 0.000000 0.120985
Si Si2 0.592145 0.500000 0.270988
Si Si3 0.688242 0.127210 0.574055
Si Si4 0.332428 0.636475 0.337948
Si Si5 0.750000 0.750000 0.750000
Si Si6 0.913330 0.738324 0.925898
O O1 0.888053 0.000000 0.195907
O O2 0.877296 0.068937 0.085107
O O3 0.000000 0.000000 0.109766
O O4 0.500000 0.500000 0.284299
O O5 0.631712 0.429750 0.299974
O O6 0.715312 0.127256 0.500000
O O7 0.760797 0.109489 0.619062
O O8 0.651199 0.203319 0.593238
O O9 0.306471 0.699130 0.290367
O O10 0.398931 0.667415 0.384388
O O11 0.000000 0.767690 0.911689
O O12 0.904534 0.716967 0.000000
#
# Coordination Sequence:
#
# PCOD8285307 Si02
#       6
#    16  16  32  32   8  32
#     4  11  24  42  60  90 129 167 211 260 318 381
#     4  11  27  45  64  90 132 179 213 259 314 374
#     4  11  22  39  65  95 126 164 207 265 325 377
#     4  12  23  43  64  94 128 166 219 259 312 382
#     4  12  24  38  68 100 120 174 214 266 316 366
#     4  10  21  39  64  93 126 163 208 266 322 374
#
# _framework density 20.342222
#
# number of rings (size 3 to 8) (size 9 to 14) (size 15 to 20)
#    0.000    0.941    2.353    4.588    0.000    5.176 
#    0.000    2.941    0.000    4.235    0.000    0.000 
#    0.000    0.000    0.000    0.000    0.000    0.000 
#
# Total GULP energy -421735.502209 kJ/mol
# GULP energy per Si atom -12403.985359 kJ/mol
# Density = 2.029592 g / cm^3
# Si number density = 20.342222 Si / 1000 Ang^3
#
#
#
# Elastic Constant Matrix: (Units=GPa)
#
#
# Indices 1 2 3 4 5 6 
#
# 1 97.9373 30.8066 36.2203 0.0000 0.0000 0.0000
# 2 30.8066 107.4931 34.9307 0.0000 0.0000 0.0000
# 3 36.2203 34.9307 60.5318 0.0000 0.0000 0.0000
# 4 0.0000 0.0000 0.0000 96.4251 0.0000 0.0000
# 5 0.0000 0.0000 0.0000 0.0000 36.4335 0.0000
# 6 0.0000 0.0000 0.0000 0.0000 0.0000 65.4350
#
#
#
# Elastic Compliance Matrix: (Units=1/GPa)
#
#
# Indices 1 2 3 4 5 6 
#
# 1 0.013308 -0.001509 -0.007092 0.000000 0.000000 0.000000
# 2 -0.001509 0.011621 -0.005803 0.000000 0.000000 0.000000
# 3 -0.007092 -0.005803 0.024113 0.000000 0.000000 0.000000
# 4 0.000000 0.000000 0.000000 0.010371 0.000000 0.000000
# 5 0.000000 0.000000 0.000000 0.000000 0.027447 0.000000
# 6 0.000000 0.000000 0.000000 0.000000 0.000000 0.015282
#
#
# Mechanical properties :
#
#
# Convention : Reuss Voigt Hill
#
# Bulk Modulus (GPa) = 49.42428 52.20858 50.81643
# Shear Modulus (GPa) = 36.31178 50.59237 43.45208
#
# Velocity S-wave (km/s) = 4.22956 4.99246 4.62676
# Velocity P-wave (km/s) = 6.94272 7.67813 7.31967
#
# Compressibility (1/GPa) = 0.02023297
#
# Stress axis : x y z
#
# Youngs Moduli (GPa) = 75.14080 86.04942 41.47182
#
# Poissons Ratio (x) = 0.12988 0.29413
# Poissons Ratio (y) = 0.11341 0.24066
# Poissons Ratio (z) = 0.53292 0.49935
#
# Static dielectric constant tensor:
#      x y z
#    x 3.749390 0.000000 0.000000 
#    y 0.000000 3.559040 0.000000 
#    z 0.000000 0.000000 3.865660 
# 
# 
# High freq. dielectric constant tensor:
#      x y z
#    x 1.804310 0.000000 0.000000 
#    y 0.000000 1.796580 0.000000 
#    z 0.000000 0.000000 1.810250 
# 
# From -- ./inp_files/22619.got.cif
#   From: 2010.03.12/outbox.cif.g09.slc.cpg/sg69_12_cif.got.tgz:22619.got - 2010.04.10 23:52:46.
