data_PCOD8285060
_publ_section_title
;
Structure prediction by ZEFSAII (Michael W. Deem and Ramdas Pophale) SiO2 
 PCOD8285060
Probable space group: F M M M
;
_chemical_formula_sum "Si O2"
_cell_formula_units_Z 80
_cell_length_a 15.230193
_cell_length_b 22.351720
_cell_length_c 10.424486
_cell_angle_alpha 90.000000
_cell_angle_beta 90.000000
_cell_angle_gamma 90.000000
_cell_volume 3548.714047
_symmetry_space_group_name_H-M "F M M M"
_symmetry_group_IT_number 69
_symmetry_cell_setting 'orthorhombic'
loop_
_space_group_symop_operation_xyz
x,y,z
-x,-y,z
x,-y,-z
-x,y,-z
-x,-y,-z
x,y,-z
-x,y,z
x,-y,z
x,1/2+y,1/2+z
-x,1/2-y,1/2+z
x,1/2-y,1/2-z
-x,1/2+y,1/2-z
-x,1/2-y,1/2-z
x,1/2+y,1/2-z
-x,1/2+y,1/2+z
x,1/2-y,1/2+z
1/2+x,y,1/2+z
1/2-x,-y,1/2+z
1/2+x,-y,1/2-z
1/2-x,y,1/2-z
1/2-x,-y,1/2-z
1/2+x,y,1/2-z
1/2-x,y,1/2+z
1/2+x,-y,1/2+z
1/2+x,1/2+y,z
1/2-x,1/2-y,z
1/2+x,1/2-y,-z
1/2-x,1/2+y,-z
1/2-x,1/2-y,-z
1/2+x,1/2+y,-z
1/2-x,1/2+y,z
1/2+x,1/2-y,z
loop_
_atom_site_type_symbol
_atom_site_label
_atom_site_fract_x
_atom_site_fract_y
_atom_site_fract_z
Si Si1 0.394824 0.871625 0.730350
Si Si2 0.095902 0.830506 0.500000
Si Si3 0.603710 0.000000 0.358246
Si Si4 0.337853 0.209258 0.500000
O O1 0.500000 0.862268 0.716658
O O2 0.345431 0.831812 0.625203
O O3 0.366135 0.940563 0.715810
O O4 0.356949 0.852502 0.869669
O O5 0.085411 0.758624 0.500000
O O6 0.000000 0.860092 0.500000
O O7 0.500000 0.000000 0.371063
O O8 0.645697 0.000000 0.500000
O O9 0.250000 0.250000 0.500000
#
# Coordination Sequence:
#
# PCOD8285060 Si02
#       4
#    32  16  16  16
#     4  10  20  37  62  91 119 152 196 246 298 355
#     4  10  22  37  57  87 122 156 193 243 302 355
#     4   9  16  31  61  92 116 147 190 243 301 353
#     4  12  24  37  57  83 119 160 207 247 288 351
#
# _framework density 22.543375999999999
#
# number of rings (size 3 to 8) (size 9 to 14) (size 15 to 20)
#    0.000    1.800    2.000    3.000    0.000    7.200 
#    0.000    4.000    0.000    7.200    0.000    0.000 
#    0.000    0.000    0.000    0.000    0.000    0.000 
#
# Total GULP energy -247873.232747 kJ/mol
# GULP energy per Si atom -12393.661637 kJ/mol
# Density = 2.249207 g / cm^3
# Si number density = 22.543376 Si / 1000 Ang^3
#
#
#
# Elastic Constant Matrix: (Units=GPa)
#
#
# Indices 1 2 3 4 5 6 
#
# 1 58.6682 21.5497 23.1516 0.0000 0.0000 0.0000
# 2 21.5497 221.2035 122.3856 0.0000 0.0000 0.0000
# 3 23.1516 122.3856 247.2225 0.0000 0.0000 0.0000
# 4 0.0000 0.0000 0.0000 2.8691 0.0000 0.0000
# 5 0.0000 0.0000 0.0000 0.0000 3.9883 0.0000
# 6 0.0000 0.0000 0.0000 0.0000 0.0000 18.3523
#
#
#
# Elastic Compliance Matrix: (Units=1/GPa)
#
#
# Indices 1 2 3 4 5 6 
#
# 1 0.017900 -0.001124 -0.001120 0.000000 0.000000 0.000000
# 2 -0.001124 0.006297 -0.003012 0.000000 0.000000 0.000000
# 3 -0.001120 -0.003012 0.005641 0.000000 0.000000 0.000000
# 4 0.000000 0.000000 0.000000 0.348538 0.000000 0.000000
# 5 0.000000 0.000000 0.000000 0.000000 0.250735 0.000000
# 6 0.000000 0.000000 0.000000 0.000000 0.000000 0.054489
#
#
# Mechanical properties :
#
#
# Convention : Reuss Voigt Hill
#
# Bulk Modulus (GPa) = 51.74479 95.69644 73.72061
# Shear Modulus (GPa) = 7.13721 29.04241 18.08981
#
# Velocity S-wave (km/s) = 1.78125 3.59317 2.83582
# Velocity P-wave (km/s) = 5.21860 7.73024 6.59509
#
# Compressibility (1/GPa) = 0.01932562
#
# Stress axis : x y z
#
# Youngs Moduli (GPa) = 55.86641 158.81597 177.28105
#
# Poissons Ratio (x) = 0.17856 0.19850
# Poissons Ratio (y) = 0.06281 0.53393
# Poissons Ratio (z) = 0.06255 0.47832
#
# Static dielectric constant tensor:
#      x y z
#    x 3.650660 0.000000 0.000000 
#    y 0.000000 4.416160 0.000000 
#    z 0.000000 0.000000 4.310760 
# 
# 
# High freq. dielectric constant tensor:
#      x y z
#    x 1.858910 0.000000 0.000000 
#    y 0.000000 1.899030 0.000000 
#    z 0.000000 0.000000 1.899900 
# 
# From -- ./inp_files/7852.got.cif
#   From: 2010.03.12/outbox.cif.g09.slc.cpg/sg69_4_cif.got.tgz:7852.got - 2010.04.10 23:52:46.
