data_PCOD8285574
_publ_section_title
;
Structure prediction by ZEFSAII (Michael W. Deem and Ramdas Pophale) SiO2 
 PCOD8285574
Probable space group: F M M M
;
_chemical_formula_sum "Si O2"
_cell_formula_units_Z 176
_cell_length_a 23.883291
_cell_length_b 23.050509
_cell_length_c 14.878564
_cell_angle_alpha 90.000000
_cell_angle_beta 90.000000
_cell_angle_gamma 90.000000
_cell_volume 8190.977021
_symmetry_space_group_name_H-M "F M M M"
_symmetry_group_IT_number 69
_symmetry_cell_setting 'orthorhombic'
loop_
_space_group_symop_operation_xyz
x,y,z
-x,-y,z
x,-y,-z
-x,y,-z
-x,-y,-z
x,y,-z
-x,y,z
x,-y,z
x,1/2+y,1/2+z
-x,1/2-y,1/2+z
x,1/2-y,1/2-z
-x,1/2+y,1/2-z
-x,1/2-y,1/2-z
x,1/2+y,1/2-z
-x,1/2+y,1/2+z
x,1/2-y,1/2+z
1/2+x,y,1/2+z
1/2-x,-y,1/2+z
1/2+x,-y,1/2-z
1/2-x,y,1/2-z
1/2-x,-y,1/2-z
1/2+x,y,1/2-z
1/2-x,y,1/2+z
1/2+x,-y,1/2+z
1/2+x,1/2+y,z
1/2-x,1/2-y,z
1/2+x,1/2-y,-z
1/2-x,1/2+y,-z
1/2-x,1/2-y,-z
1/2+x,1/2+y,-z
1/2-x,1/2+y,z
1/2+x,1/2-y,z
loop_
_atom_site_type_symbol
_atom_site_label
_atom_site_fract_x
_atom_site_fract_y
_atom_site_fract_z
Si Si1 0.259775 0.316330 0.353589
Si Si2 0.500000 0.068653 0.398298
Si Si3 0.564107 0.235117 0.353312
Si Si4 0.384876 0.352081 0.401105
Si Si5 0.403167 0.932457 0.263748
Si Si6 0.850451 0.867388 0.097655
O O1 0.250000 0.329394 0.250000
O O2 0.250000 0.250000 0.376930
O O3 0.321166 0.336934 0.379674
O O4 0.213759 0.349086 0.412485
O O5 0.500000 0.095376 0.500000
O O6 0.552025 0.089393 0.338394
O O7 0.500000 0.000000 0.406227
O O8 0.500000 0.215307 0.375093
O O9 0.572457 0.250000 0.250000
O O10 0.577786 0.294286 0.405491
O O11 0.608785 0.186364 0.379111
O O12 0.388374 0.381118 0.500000
O O13 0.409662 0.397604 0.328823
O O14 0.348498 0.914994 0.321176
O O15 0.406778 0.000000 0.240196
O O16 0.868448 0.893366 0.000000
#
# Coordination Sequence:
#
# PCOD8285574 Si02
#       6
#    32  16  32  32  32  32
#     4  11  21  40  66  94 131 169 216 269 328 400
#     4   9  20  42  71  96 123 169 225 277 324 373
#     4  11  23  41  64  96 136 171 209 263 333 403
#     4  12  25  42  67  98 133 177 221 267 328 400
#     4  11  25  45  65  93 133 175 223 274 322 381
#     4  12  24  39  66  99 128 166 214 270 336 394
#
# _framework density 21.487058999999999
#
# number of rings (size 3 to 8) (size 9 to 14) (size 15 to 20)
#    0.000    0.818    5.455    1.636    2.545    3.636 
#    0.000    1.818    0.000    3.818    0.000    0.000 
#    0.000    0.000    0.000    0.000    0.000    0.000 
#
# Total GULP energy -545312.197200 kJ/mol
# GULP energy per Si atom -12393.459027 kJ/mol
# Density = 2.143815 g / cm^3
# Si number density = 21.487059 Si / 1000 Ang^3
#
#
#
# Elastic Constant Matrix: (Units=GPa)
#
#
# Indices 1 2 3 4 5 6 
#
# 1 82.6184 7.6208 -30.7381 0.0000 0.0000 0.0000
# 2 7.6208 71.6989 7.6953 0.0000 0.0000 0.0000
# 3 -30.7381 7.6953 4.1743 0.0000 0.0000 0.0000
# 4 0.0000 0.0000 0.0000 28.8679 0.0000 0.0000
# 5 0.0000 0.0000 0.0000 0.0000 71.2978 0.0000
# 6 0.0000 0.0000 0.0000 0.0000 0.0000 24.8998
#
#
#
# Elastic Compliance Matrix: (Units=1/GPa)
#
#
# Indices 1 2 3 4 5 6 
#
# 1 -0.004639 0.005185 -0.043715 0.000000 0.000000 0.000000
# 2 0.005185 0.011592 0.016810 0.000000 0.000000 0.000000
# 3 -0.043715 0.016810 -0.113330 0.000000 0.000000 0.000000
# 4 0.000000 0.000000 0.000000 0.034641 0.000000 0.000000
# 5 0.000000 0.000000 0.000000 0.000000 0.014026 0.000000
# 6 0.000000 0.000000 0.000000 0.000000 0.000000 0.040161
#
#
# Mechanical properties :
#
#
# Convention : Reuss Voigt Hill
#
# Bulk Modulus (GPa) = -6.67478 14.18305 3.75414
# Shear Modulus (GPa) = -207.91271 36.60734 -85.65268
#
# Velocity S-wave (km/s) = -9.84743 4.13206 -6.32052
# Velocity P-wave (km/s) = 11.50691 5.42036 7.17735
#
# Compressibility (1/GPa) = -0.14981773
#
# Stress axis : x y z
#
# Youngs Moduli (GPa) = -215.58198 86.26677 -8.82375
#
# Poissons Ratio (x) = -0.44728 -0.38573
# Poissons Ratio (y) = 1.11777 0.14833
# Poissons Ratio (z) = -9.42419 -1.45014
#
# Static dielectric constant tensor:
#      x y z
#    x 4.091200 0.000000 0.000000 
#    y 0.000000 3.641600 0.000000 
#    z 0.000000 0.000000 4.297200 
# 
# 
# High freq. dielectric constant tensor:
#      x y z
#    x 1.848550 0.000000 0.000000 
#    y 0.000000 1.817160 0.000000 
#    z 0.000000 0.000000 1.865010 
# 
# From -- ./inp_files/17875.got.cif
#   From: 2010.03.12/outbox.cif.g09.slc.cpg/sg69_9_cif.got.tgz:17875.got - 2010.04.10 23:52:46.
