data_PCOD8285342
_publ_section_title
;
Structure prediction by ZEFSAII (Michael W. Deem and Ramdas Pophale) SiO2 
 PCOD8285342
Probable space group: F M M M
;
_chemical_formula_sum "Si O2"
_cell_formula_units_Z 128
_cell_length_a 29.741630
_cell_length_b 24.352665
_cell_length_c 9.464408
_cell_angle_alpha 90.000000
_cell_angle_beta 90.000000
_cell_angle_gamma 90.000000
_cell_volume 6854.956687
_symmetry_space_group_name_H-M "F M M M"
_symmetry_group_IT_number 69
_symmetry_cell_setting 'orthorhombic'
loop_
_space_group_symop_operation_xyz
x,y,z
-x,-y,z
x,-y,-z
-x,y,-z
-x,-y,-z
x,y,-z
-x,y,z
x,-y,z
x,1/2+y,1/2+z
-x,1/2-y,1/2+z
x,1/2-y,1/2-z
-x,1/2+y,1/2-z
-x,1/2-y,1/2-z
x,1/2+y,1/2-z
-x,1/2+y,1/2+z
x,1/2-y,1/2+z
1/2+x,y,1/2+z
1/2-x,-y,1/2+z
1/2+x,-y,1/2-z
1/2-x,y,1/2-z
1/2-x,-y,1/2-z
1/2+x,y,1/2-z
1/2-x,y,1/2+z
1/2+x,-y,1/2+z
1/2+x,1/2+y,z
1/2-x,1/2-y,z
1/2+x,1/2-y,-z
1/2-x,1/2+y,-z
1/2-x,1/2-y,-z
1/2+x,1/2+y,-z
1/2-x,1/2+y,z
1/2+x,1/2-y,z
loop_
_atom_site_type_symbol
_atom_site_label
_atom_site_fract_x
_atom_site_fract_y
_atom_site_fract_z
Si Si1 0.446576 0.000000 0.340688
Si Si2 0.704057 0.119197 0.164694
Si Si3 0.793769 0.000000 0.340151
Si Si4 0.947963 0.396753 0.162569
Si Si5 0.877235 0.805449 0.664997
O O1 0.429406 0.053842 0.258971
O O2 0.500000 0.000000 0.341091
O O3 0.427238 0.000000 0.500000
O O4 0.750000 0.127920 0.250000
O O5 0.681372 0.058214 0.190977
O O6 0.667746 0.163399 0.216006
O O7 0.715244 0.127206 0.000000
O O8 0.750000 0.000000 0.250000
O O9 0.777173 0.000000 0.500000
O O10 0.920509 0.342286 0.200251
O O11 0.000000 0.383891 0.193560
O O12 0.940374 0.414212 0.000000
O O13 0.874681 0.791734 0.500000
O O14 0.882391 0.750000 0.750000
#
# Coordination Sequence:
#
# PCOD8285342 Si02
#       5
#    16  32  16  32  32
#     4   9  17  30  51  81 111 135 164 206 256 306
#     4   9  18  33  53  76 101 130 163 204 255 306
#     4   8  14  27  48  72  96 121 153 194 242 297
#     4   9  18  34  55  77 103 137 173 208 252 308
#     4  10  22  37  52  73 101 135 177 219 256 299
#
# _framework density 18.672619999999998
#
# number of rings (size 3 to 8) (size 9 to 14) (size 15 to 20)
#    0.000    2.875    0.000    0.375    0.000    5.500 
#    0.000    6.250    0.000    6.000    0.000    0.000 
#    0.000    0.000    0.000    0.000    0.000    0.000 
#
# Total GULP energy -396581.335739 kJ/mol
# GULP energy per Si atom -12393.166742 kJ/mol
# Density = 1.863012 g / cm^3
# Si number density = 18.672620 Si / 1000 Ang^3
#
#
#
# Elastic Constant Matrix: (Units=GPa)
#
#
# Indices 1 2 3 4 5 6 
#
# 1 85.9025 68.7319 46.5939 -0.0006 0.0003 0.0009
# 2 68.7319 177.6560 81.3693 -0.0024 0.0015 0.0006
# 3 46.5939 81.3693 80.8931 -0.0075 0.0043 0.0031
# 4 -0.0006 -0.0024 -0.0075 37.8235 0.0021 0.0010
# 5 0.0003 0.0015 0.0043 0.0021 21.2954 -0.0017
# 6 0.0009 0.0006 0.0031 0.0010 -0.0017 20.3287
#
#
#
# Elastic Compliance Matrix: (Units=1/GPa)
#
#
# Indices 1 2 3 4 5 6 
#
# 1 0.018493 -0.004220 -0.006407 -0.000001 0.000001 0.000000
# 2 -0.004220 0.011401 -0.009037 -0.000001 0.000001 0.000001
# 3 -0.006407 -0.009037 0.025142 0.000004 -0.000004 -0.000003
# 4 -0.000001 -0.000001 0.000004 0.026439 -0.000003 -0.000001
# 5 0.000001 0.000001 -0.000004 -0.000003 0.046959 0.000004
# 6 0.000000 0.000001 -0.000003 -0.000001 0.000004 0.049191
#
#
# Mechanical properties :
#
#
# Convention : Reuss Voigt Hill
#
# Bulk Modulus (GPa) = 63.66137 81.98241 72.82189
# Shear Modulus (GPa) = 22.50346 25.73995 24.12171
#
# Velocity S-wave (km/s) = 3.47531 3.71683 3.59809
# Velocity P-wave (km/s) = 7.09021 7.90064 7.50637
#
# Compressibility (1/GPa) = 0.01570811
#
# Stress axis : x y z
#
# Youngs Moduli (GPa) = 54.07534 87.71441 39.77344
#
# Poissons Ratio (x) = 0.37017 0.25482
# Poissons Ratio (y) = 0.22820 0.35943
# Poissons Ratio (z) = 0.34645 0.79267
#
# Static dielectric constant tensor:
#      x y z
#    x 3.142600 0.000000 0.000000 
#    y 0.000000 3.794330 0.000000 
#    z 0.000000 0.000000 3.445790 
# 
# 
# High freq. dielectric constant tensor:
#      x y z
#    x 1.709030 0.000000 0.000000 
#    y 0.000000 1.730950 0.000000 
#    z 0.000000 0.000000 1.720550 
# 
# From -- ./inp_files/5315.got.cif
#   From: 2010.03.12/outbox.cif.g09.slc.cpg/sg69_3_cif.got.tgz:5315.got - 2010.04.10 23:52:46.
