data_PCOD8285275
_publ_section_title
;
Structure prediction by ZEFSAII (Michael W. Deem and Ramdas Pophale) SiO2 
 PCOD8285275
Probable space group: F M M M
;
_chemical_formula_sum "Si O2"
_cell_formula_units_Z 160
_cell_length_a 18.072987
_cell_length_b 16.209902
_cell_length_c 27.026461
_cell_angle_alpha 90.000000
_cell_angle_beta 90.000000
_cell_angle_gamma 90.000000
_cell_volume 7917.708449
_symmetry_space_group_name_H-M "F M M M"
_symmetry_group_IT_number 69
_symmetry_cell_setting 'orthorhombic'
loop_
_space_group_symop_operation_xyz
x,y,z
-x,-y,z
x,-y,-z
-x,y,-z
-x,-y,-z
x,y,-z
-x,y,z
x,-y,z
x,1/2+y,1/2+z
-x,1/2-y,1/2+z
x,1/2-y,1/2-z
-x,1/2+y,1/2-z
-x,1/2-y,1/2-z
x,1/2+y,1/2-z
-x,1/2+y,1/2+z
x,1/2-y,1/2+z
1/2+x,y,1/2+z
1/2-x,-y,1/2+z
1/2+x,-y,1/2-z
1/2-x,y,1/2-z
1/2-x,-y,1/2-z
1/2+x,y,1/2-z
1/2-x,y,1/2+z
1/2+x,-y,1/2+z
1/2+x,1/2+y,z
1/2-x,1/2-y,z
1/2+x,1/2-y,-z
1/2-x,1/2+y,-z
1/2-x,1/2-y,-z
1/2+x,1/2+y,-z
1/2-x,1/2+y,z
1/2+x,1/2-y,z
loop_
_atom_site_type_symbol
_atom_site_label
_atom_site_fract_x
_atom_site_fract_y
_atom_site_fract_z
Si Si1 0.258886 0.096367 0.444020
Si Si2 0.080298 0.406571 0.581271
Si Si3 0.582158 0.825322 0.322248
Si Si4 0.316340 0.692071 0.642891
Si Si5 0.665883 0.590378 0.736615
O O1 0.230360 0.106662 0.500000
O O2 0.343665 0.131725 0.440974
O O3 0.204985 0.151276 0.409739
O O4 0.256462 0.000000 0.427455
O O5 0.078298 0.500000 0.563298
O O6 0.084795 0.403902 0.641164
O O7 0.000000 0.365847 0.564619
O O8 0.500000 0.802749 0.304880
O O9 0.612061 0.750928 0.357182
O O10 0.627713 0.843204 0.272565
O O11 0.250000 0.750000 0.662809
O O12 0.336886 0.619394 0.680276
O O13 0.627351 0.500000 0.740580
O O14 0.750000 0.581524 0.750000
#
# Coordination Sequence:
#
# PCOD8285275 Si02
#       5
#    32  32  32  32  32
#     4  10  21  38  61  88 116 153 205 255 300 357
#     4   9  17  32  54  83 122 160 193 237 297 361
#     4  11  23  38  58  87 122 158 196 245 299 355
#     4  12  22  37  58  86 118 157 198 247 301 349
#     4  11  22  36  58  85 117 158 201 236 280 351
#
# _framework density 20.207867
#
# number of rings (size 3 to 8) (size 9 to 14) (size 15 to 20)
#    0.000    1.400    4.000    1.800    0.000    6.800 
#    0.000    2.000    0.000    2.400    0.000    1.400 
#    0.000    0.000    0.000    0.000    0.000    0.000 
#
# Total GULP energy -495533.204032 kJ/mol
# GULP energy per Si atom -12388.330101 kJ/mol
# Density = 2.016187 g / cm^3
# Si number density = 20.207867 Si / 1000 Ang^3
#
#
#
# Elastic Constant Matrix: (Units=GPa)
#
#
# Indices 1 2 3 4 5 6 
#
# 1 104.6239 45.2464 48.7315 0.0000 0.0000 0.0000
# 2 45.2464 85.3985 44.3580 0.0000 0.0000 0.0000
# 3 48.7315 44.3580 117.3725 0.0000 0.0000 0.0000
# 4 0.0000 0.0000 0.0000 31.5245 0.0000 0.0000
# 5 0.0000 0.0000 0.0000 0.0000 21.3500 0.0000
# 6 0.0000 0.0000 0.0000 0.0000 0.0000 23.5019
#
#
#
# Elastic Compliance Matrix: (Units=1/GPa)
#
#
# Indices 1 2 3 4 5 6 
#
# 1 0.013531 -0.005289 -0.003619 0.000000 0.000000 0.000000
# 2 -0.005289 0.016638 -0.004092 0.000000 0.000000 0.000000
# 3 -0.003619 -0.004092 0.011569 0.000000 0.000000 0.000000
# 4 0.000000 0.000000 0.000000 0.031721 0.000000 0.000000
# 5 0.000000 0.000000 0.000000 0.000000 0.046838 0.000000
# 6 0.000000 0.000000 0.000000 0.000000 0.000000 0.042550
#
#
# Mechanical properties :
#
#
# Convention : Reuss Voigt Hill
#
# Bulk Modulus (GPa) = 63.54265 64.89628 64.21947
# Shear Modulus (GPa) = 25.76087 26.54589 26.15338
#
# Velocity S-wave (km/s) = 3.57430 3.62835 3.60143
# Velocity P-wave (km/s) = 6.96756 7.05247 7.01014
#
# Compressibility (1/GPa) = 0.01573746
#
# Stress axis : x y z
#
# Youngs Moduli (GPa) = 73.90352 60.10489 86.43955
#
# Poissons Ratio (x) = 0.31792 0.31282
# Poissons Ratio (y) = 0.39090 0.35368
# Poissons Ratio (z) = 0.26745 0.24593
#
# Static dielectric constant tensor:
#      x y z
#    x 3.765130 0.000000 0.000000 
#    y 0.000000 3.852890 0.000000 
#    z 0.000000 0.000000 3.700010 
# 
# 
# High freq. dielectric constant tensor:
#      x y z
#    x 1.776830 0.000000 0.000000 
#    y 0.000000 1.776120 0.000000 
#    z 0.000000 0.000000 1.779940 
# 
# From -- ./inp_files/23149.got.cif
#   From: 2010.03.12/outbox.cif.g09.slc.cpg/sg69_12_cif.got.tgz:23149.got - 2010.04.10 23:52:46.
