data_PCOD8285149
_publ_section_title
;
Structure prediction by ZEFSAII (Michael W. Deem and Ramdas Pophale) SiO2 
 PCOD8285149
Probable space group: F M M M
;
_chemical_formula_sum "Si O2"
_cell_formula_units_Z 208
_cell_length_a 28.410426
_cell_length_b 21.950645
_cell_length_c 17.969222
_cell_angle_alpha 90.000000
_cell_angle_beta 90.000000
_cell_angle_gamma 90.000000
_cell_volume 11206.095160
_symmetry_space_group_name_H-M "F M M M"
_symmetry_group_IT_number 69
_symmetry_cell_setting 'orthorhombic'
loop_
_space_group_symop_operation_xyz
x,y,z
-x,-y,z
x,-y,-z
-x,y,-z
-x,-y,-z
x,y,-z
-x,y,z
x,-y,z
x,1/2+y,1/2+z
-x,1/2-y,1/2+z
x,1/2-y,1/2-z
-x,1/2+y,1/2-z
-x,1/2-y,1/2-z
x,1/2+y,1/2-z
-x,1/2+y,1/2+z
x,1/2-y,1/2+z
1/2+x,y,1/2+z
1/2-x,-y,1/2+z
1/2+x,-y,1/2-z
1/2-x,y,1/2-z
1/2-x,-y,1/2-z
1/2+x,y,1/2-z
1/2-x,y,1/2+z
1/2+x,-y,1/2+z
1/2+x,1/2+y,z
1/2-x,1/2-y,z
1/2+x,1/2-y,-z
1/2-x,1/2+y,-z
1/2-x,1/2-y,-z
1/2+x,1/2+y,-z
1/2-x,1/2+y,z
1/2+x,1/2-y,z
loop_
_atom_site_type_symbol
_atom_site_label
_atom_site_fract_x
_atom_site_fract_y
_atom_site_fract_z
Si Si1 0.554035 0.500000 0.418736
Si Si2 0.733718 0.572318 0.082546
Si Si3 0.444953 0.646803 0.189413
Si Si4 0.678455 0.569202 0.676721
Si Si5 0.585327 0.373388 0.646453
Si Si6 0.445545 0.254438 0.418287
Si Si7 0.144262 0.068452 0.158832
O O1 0.500000 0.500000 0.436223
O O2 0.580235 0.500000 0.500000
O O3 0.564237 0.560584 0.371809
O O4 0.729753 0.500000 0.085715
O O5 0.771805 0.592942 0.144431
O O6 0.681348 0.598687 0.100845
O O7 0.748681 0.594728 0.000000
O O8 0.500000 0.629516 0.171796
O O9 0.437906 0.652163 0.277587
O O10 0.430399 0.709169 0.147882
O O11 0.407233 0.598306 0.159285
O O12 0.668057 0.500000 0.647783
O O13 0.640978 0.617705 0.647683
O O14 0.674668 0.570445 0.765369
O O15 0.578016 0.320907 0.586270
O O16 0.432954 0.226937 0.500000
O O17 0.500000 0.267432 0.411318
O O18 0.132209 0.000000 0.136275
#
# Coordination Sequence:
#
# PCOD8285149 Si02
#       7
#    16  32  32  32  32  32  32
#     4  11  22  32  46  76 116 149 171 205 266 329
#     4   9  17  29  48  73 102 138 176 216 261 317
#     4  10  21  35  55  79 105 140 187 229 264 318
#     4   9  17  31  48  75 107 139 172 208 261 321
#     4  11  20  34  53  80 110 144 180 219 263 320
#     4  10  21  37  54  73 102 144 189 230 272 315
#     4   9  18  32  51  76 106 137 173 219 274 320
#
# _framework density 18.561326999999999
#
# number of rings (size 3 to 8) (size 9 to 14) (size 15 to 20)
#    0.000    2.231    0.769    2.769    1.077    6.462 
#    0.000    0.000    0.000    0.923    0.000   10.769 
#    0.000    0.000    0.000    0.000    0.000    0.000 
#
# Total GULP energy -644200.950226 kJ/mol
# GULP energy per Si atom -12388.479812 kJ/mol
# Density = 1.851908 g / cm^3
# Si number density = 18.561327 Si / 1000 Ang^3
#
#
#
# Elastic Constant Matrix: (Units=GPa)
#
#
# Indices 1 2 3 4 5 6 
#
# 1 112.2821 35.1752 33.9782 0.0000 0.0000 0.0000
# 2 35.1752 80.2294 45.5066 0.0000 0.0000 0.0000
# 3 33.9782 45.5066 84.2557 0.0000 0.0000 0.0000
# 4 0.0000 0.0000 0.0000 22.1350 0.0000 0.0000
# 5 0.0000 0.0000 0.0000 0.0000 21.7871 0.0000
# 6 0.0000 0.0000 0.0000 0.0000 0.0000 13.5506
#
#
#
# Elastic Compliance Matrix: (Units=1/GPa)
#
#
# Indices 1 2 3 4 5 6 
#
# 1 0.010696 -0.003233 -0.002567 0.000000 0.000000 0.000000
# 2 -0.003233 0.018947 -0.008929 0.000000 0.000000 0.000000
# 3 -0.002567 -0.008929 0.017726 0.000000 0.000000 0.000000
# 4 0.000000 0.000000 0.000000 0.045177 0.000000 0.000000
# 5 0.000000 0.000000 0.000000 0.000000 0.045899 0.000000
# 6 0.000000 0.000000 0.000000 0.000000 0.000000 0.073797
#
#
# Mechanical properties :
#
#
# Convention : Reuss Voigt Hill
#
# Bulk Modulus (GPa) = 55.83517 56.23190 56.03354
# Shear Modulus (GPa) = 20.18805 22.30169 21.24487
#
# Velocity S-wave (km/s) = 3.30152 3.47005 3.38683
# Velocity P-wave (km/s) = 6.68432 6.81292 6.74893
#
# Compressibility (1/GPa) = 0.01790986
#
# Stress axis : x y z
#
# Youngs Moduli (GPa) = 93.49380 52.78016 56.41289
#
# Poissons Ratio (x) = 0.17066 0.14481
# Poissons Ratio (y) = 0.30230 0.50372
# Poissons Ratio (z) = 0.24000 0.47128
#
# Static dielectric constant tensor:
#      x y z
#    x 3.513430 0.000000 0.000000 
#    y 0.000000 3.118050 0.000000 
#    z 0.000000 0.000000 3.607060 
# 
# 
# High freq. dielectric constant tensor:
#      x y z
#    x 1.721880 0.000000 0.000000 
#    y 0.000000 1.682820 0.000000 
#    z 0.000000 0.000000 1.725540 
# 
# From -- ./inp_files/27907.got.cif
#   From: 2010.03.12/outbox.cif.g09.slc.cpg/sg69_14_cif.got.tgz:27907.got - 2010.04.10 23:52:46.
