data_PCOD8285052
_publ_section_title
;
Structure prediction by ZEFSAII (Michael W. Deem and Ramdas Pophale) SiO2 
 PCOD8285052
Probable space group: F M M M
;
_chemical_formula_sum "Si O2"
_cell_formula_units_Z 192
_cell_length_a 17.885724
_cell_length_b 18.031680
_cell_length_c 30.301250
_cell_angle_alpha 90.000000
_cell_angle_beta 90.000000
_cell_angle_gamma 90.000000
_cell_volume 9772.445585
_symmetry_space_group_name_H-M "F M M M"
_symmetry_group_IT_number 69
_symmetry_cell_setting 'orthorhombic'
loop_
_space_group_symop_operation_xyz
x,y,z
-x,-y,z
x,-y,-z
-x,y,-z
-x,-y,-z
x,y,-z
-x,y,z
x,-y,z
x,1/2+y,1/2+z
-x,1/2-y,1/2+z
x,1/2-y,1/2-z
-x,1/2+y,1/2-z
-x,1/2-y,1/2-z
x,1/2+y,1/2-z
-x,1/2+y,1/2+z
x,1/2-y,1/2+z
1/2+x,y,1/2+z
1/2-x,-y,1/2+z
1/2+x,-y,1/2-z
1/2-x,y,1/2-z
1/2-x,-y,1/2-z
1/2+x,y,1/2-z
1/2-x,y,1/2+z
1/2+x,-y,1/2+z
1/2+x,1/2+y,z
1/2-x,1/2-y,z
1/2+x,1/2-y,-z
1/2-x,1/2+y,-z
1/2-x,1/2-y,-z
1/2+x,1/2+y,-z
1/2-x,1/2+y,z
1/2+x,1/2-y,z
loop_
_atom_site_type_symbol
_atom_site_label
_atom_site_fract_x
_atom_site_fract_y
_atom_site_fract_z
Si Si1 0.144810 0.416187 0.583231
Si Si2 0.912890 0.586494 0.833597
Si Si3 0.414413 0.083290 0.674756
Si Si4 0.684383 0.915491 0.081800
Si Si5 0.665545 0.337446 0.251376
Si Si6 0.321086 0.305934 0.500000
Si Si7 0.412429 0.169510 0.500000
O O1 0.124388 0.500000 0.569168
O O2 0.095096 0.389568 0.624432
O O3 0.230651 0.410098 0.598466
O O4 0.127678 0.364098 0.542428
O O5 0.902366 0.500000 0.822730
O O6 0.870421 0.608191 0.878584
O O7 0.878185 0.632529 0.793661
O O8 0.000000 0.607034 0.839078
O O9 0.500000 0.085454 0.688621
O O10 0.371179 0.137344 0.706339
O O11 0.382030 0.000000 0.679214
O O12 0.666418 0.000000 0.066298
O O13 0.674994 0.858459 0.042185
O O14 0.662372 0.250000 0.250000
O O15 0.750000 0.367290 0.250000
O O16 0.250000 0.250000 0.500000
O O17 0.396545 0.257141 0.500000
O O18 0.500000 0.152514 0.500000
#
# Coordination Sequence:
#
# PCOD8285052 Si02
#       7
#    32  32  32  32  32  16  16
#     4  10  20  37  61  89 119 157 201 244 296 369
#     4  10  22  41  65  92 121 157 207 264 313 361
#     4  10  21  37  59  86 116 151 193 242 296 355
#     4  10  21  40  67  91 116 159 209 250 302 364
#     4  11  24  40  58  86 120 159 202 250 307 374
#     4  12  23  41  61  89 125 164 196 253 299 361
#     4  12  25  38  57  88 125 163 199 243 309 372
#
# _framework density 19.647076999999999
#
# number of rings (size 3 to 8) (size 9 to 14) (size 15 to 20)
#    0.000    1.500    1.667    3.000    0.000   10.000 
#    3.000    0.000    0.000    2.500    0.000    0.000 
#    0.000    0.000    0.000    0.000    0.000    0.000 
#
# Total GULP energy -595312.892207 kJ/mol
# GULP energy per Si atom -12402.351921 kJ/mol
# Density = 1.960236 g / cm^3
# Si number density = 19.647077 Si / 1000 Ang^3
#
#
#
# Elastic Constant Matrix: (Units=GPa)
#
#
# Indices 1 2 3 4 5 6 
#
# 1 117.8295 38.0379 47.3323 0.0000 0.0000 0.0000
# 2 38.0379 81.7614 57.3423 0.0000 0.0000 0.0000
# 3 47.3323 57.3423 112.5582 0.0000 0.0000 0.0000
# 4 0.0000 0.0000 0.0000 -773.1691 0.0000 0.0000
# 5 0.0000 0.0000 0.0000 0.0000 27.2155 0.0000
# 6 0.0000 0.0000 0.0000 0.0000 0.0000 18.9717
#
#
#
# Elastic Compliance Matrix: (Units=1/GPa)
#
#
# Indices 1 2 3 4 5 6 
#
# 1 0.010612 -0.002812 -0.003030 0.000000 0.000000 0.000000
# 2 -0.002812 0.019775 -0.008892 0.000000 0.000000 0.000000
# 3 -0.003030 -0.008892 0.014688 0.000000 0.000000 0.000000
# 4 0.000000 0.000000 0.000000 -0.001293 0.000000 0.000000
# 5 0.000000 0.000000 0.000000 0.000000 0.036744 0.000000
# 6 0.000000 0.000000 0.000000 0.000000 0.000000 0.052710
#
#
# Mechanical properties :
#
#
# Convention : Reuss Voigt Hill
#
# Bulk Modulus (GPa) = 64.07056 66.39712 65.23384
# Shear Modulus (GPa) = 29.77863 -134.10062 -52.16100
#
# Velocity S-wave (km/s) = 3.89739 -8.27061 -5.15816
# Velocity P-wave (km/s) = 7.27561 7.57203 1.48344
#
# Compressibility (1/GPa) = 0.01560779
#
# Stress axis : x y z
#
# Youngs Moduli (GPa) = 94.23576 50.56858 68.08127
#
# Poissons Ratio (x) = 0.14220 0.20627
# Poissons Ratio (y) = 0.26498 0.60537
# Poissons Ratio (z) = 0.28552 0.44965
#
# Static dielectric constant tensor:
#      x y z
#    x 3.778070 0.000000 0.000000 
#    y 0.000000 3.611300 0.000000 
#    z 0.000000 0.000000 3.605930 
# 
# 
# High freq. dielectric constant tensor:
#      x y z
#    x 1.774660 0.000000 0.000000 
#    y 0.000000 1.763570 0.000000 
#    z 0.000000 0.000000 1.774440 
# 
# From -- ./inp_files/46392.got.cif
#   From: 2010.03.12/outbox.cif.g09.slc.cpg/sg69_24_cif.got.tgz:46392.got - 2010.04.10 23:52:46.
