data_PCOD8285320
_publ_section_title
;
Structure prediction by ZEFSAII (Michael W. Deem and Ramdas Pophale) SiO2 
 PCOD8285320
Probable space group: F M M M
;
_chemical_formula_sum "Si O2"
_cell_formula_units_Z 96
_cell_length_a 29.703006
_cell_length_b 9.965819
_cell_length_c 14.198755
_cell_angle_alpha 90.000000
_cell_angle_beta 90.000000
_cell_angle_gamma 90.000000
_cell_volume 4203.041360
_symmetry_space_group_name_H-M "F M M M"
_symmetry_group_IT_number 69
_symmetry_cell_setting 'orthorhombic'
loop_
_space_group_symop_operation_xyz
x,y,z
-x,-y,z
x,-y,-z
-x,y,-z
-x,-y,-z
x,y,-z
-x,y,z
x,-y,z
x,1/2+y,1/2+z
-x,1/2-y,1/2+z
x,1/2-y,1/2-z
-x,1/2+y,1/2-z
-x,1/2-y,1/2-z
x,1/2+y,1/2-z
-x,1/2+y,1/2+z
x,1/2-y,1/2+z
1/2+x,y,1/2+z
1/2-x,-y,1/2+z
1/2+x,-y,1/2-z
1/2-x,y,1/2-z
1/2-x,-y,1/2-z
1/2+x,y,1/2-z
1/2-x,y,1/2+z
1/2+x,-y,1/2+z
1/2+x,1/2+y,z
1/2-x,1/2-y,z
1/2+x,1/2-y,-z
1/2-x,1/2+y,-z
1/2-x,1/2-y,-z
1/2+x,1/2+y,-z
1/2-x,1/2+y,z
1/2+x,1/2-y,z
loop_
_atom_site_type_symbol
_atom_site_label
_atom_site_fract_x
_atom_site_fract_y
_atom_site_fract_z
Si Si1 0.286794 0.849872 0.389164
Si Si2 0.050254 0.000000 0.803685
Si Si3 0.885086 0.289798 0.392932
Si Si4 0.078776 0.500000 0.103704
O O1 0.289884 0.822286 0.500000
O O2 0.250000 0.750000 0.343257
O O3 0.336683 0.825260 0.347542
O O4 0.270673 0.000000 0.366220
O O5 0.076224 0.134332 0.834685
O O6 0.044005 0.000000 0.690116
O O7 0.000000 0.000000 0.847377
O O8 0.888513 0.342239 0.500000
O O9 0.889810 0.130163 0.387277
O O10 0.054574 0.500000 0.000000
#
# Coordination Sequence:
#
# PCOD8285320 Si02
#       4
#    32  16  32  16
#     4   9  17  30  55  92 131 170 212 255 308 377
#     4  12  25  43  67  92 124 173 220 265 327 388
#     4  10  21  40  64  96 134 171 213 264 319 383
#     4  10  24  42  64  91 123 166 214 268 330 387
#
# _framework density 22.840603000000002
#
# number of rings (size 3 to 8) (size 9 to 14) (size 15 to 20)
#    0.000    2.000    1.667    1.500    2.333    4.333 
#    0.000    3.333    0.000    6.000    0.000    0.000 
#    0.000    0.000    0.000    0.000    0.000    0.000 
#
# Total GULP energy -297549.292469 kJ/mol
# GULP energy per Si atom -12397.887186 kJ/mol
# Density = 2.278862 g / cm^3
# Si number density = 22.840603 Si / 1000 Ang^3
#
#
#
# Elastic Constant Matrix: (Units=GPa)
#
#
# Indices 1 2 3 4 5 6 
#
# 1 195.1930 81.3006 32.5994 0.0000 0.0000 0.0000
# 2 81.3006 175.7792 23.8852 0.0000 0.0000 0.0000
# 3 32.5994 23.8852 94.4453 0.0000 0.0000 0.0000
# 4 0.0000 0.0000 0.0000 10.1022 0.0000 0.0000
# 5 0.0000 0.0000 0.0000 0.0000 -41.0908 0.0000
# 6 0.0000 0.0000 0.0000 0.0000 0.0000 25.2632
#
#
#
# Elastic Compliance Matrix: (Units=1/GPa)
#
#
# Indices 1 2 3 4 5 6 
#
# 1 0.006558 -0.002822 -0.001550 0.000000 0.000000 0.000000
# 2 -0.002822 0.007106 -0.000823 0.000000 0.000000 0.000000
# 3 -0.001550 -0.000823 0.011331 0.000000 0.000000 0.000000
# 4 0.000000 0.000000 0.000000 0.098988 0.000000 0.000000
# 5 0.000000 0.000000 0.000000 0.000000 -0.024336 0.000000
# 6 0.000000 0.000000 0.000000 0.000000 0.000000 0.039583
#
#
# Mechanical properties :
#
#
# Convention : Reuss Voigt Hill
#
# Bulk Modulus (GPa) = 68.47038 82.33199 75.40119
# Shear Modulus (GPa) = 32.36497 20.69708 26.53103
#
# Velocity S-wave (km/s) = 3.76838 3.01350 3.41188
# Velocity P-wave (km/s) = 6.99834 6.94499 6.97172
#
# Compressibility (1/GPa) = 0.01460485
#
# Stress axis : x y z
#
# Youngs Moduli (GPa) = 152.49700 140.72266 88.25222
#
# Poissons Ratio (x) = 0.39717 0.13676
# Poissons Ratio (y) = 0.43040 0.07263
# Poissons Ratio (z) = 0.23632 0.11581
#
# Static dielectric constant tensor:
#      x y z
#    x 3.898270 0.000000 0.000000 
#    y 0.000000 4.089190 0.000000 
#    z 0.000000 0.000000 4.123110 
# 
# 
# High freq. dielectric constant tensor:
#      x y z
#    x 1.883180 0.000000 0.000000 
#    y 0.000000 1.914110 0.000000 
#    z 0.000000 0.000000 1.893070 
# 
# From -- ./inp_files/25317.got.cif
#   From: 2010.03.12/outbox.cif.g09.slc.cpg/sg69_13_cif.got.tgz:25317.got - 2010.04.10 23:52:46.
