data_PCOD8285472
_publ_section_title
;
Structure prediction by ZEFSAII (Michael W. Deem and Ramdas Pophale) SiO2 
 PCOD8285472
Probable space group: F M M M
;
_chemical_formula_sum "Si O2"
_cell_formula_units_Z 176
_cell_length_a 14.143011
_cell_length_b 24.982130
_cell_length_c 29.147569
_cell_angle_alpha 90.000000
_cell_angle_beta 90.000000
_cell_angle_gamma 90.000000
_cell_volume 10298.493096
_symmetry_space_group_name_H-M "F M M M"
_symmetry_group_IT_number 69
_symmetry_cell_setting 'orthorhombic'
loop_
_space_group_symop_operation_xyz
x,y,z
-x,-y,z
x,-y,-z
-x,y,-z
-x,-y,-z
x,y,-z
-x,y,z
x,-y,z
x,1/2+y,1/2+z
-x,1/2-y,1/2+z
x,1/2-y,1/2-z
-x,1/2+y,1/2-z
-x,1/2-y,1/2-z
x,1/2+y,1/2-z
-x,1/2+y,1/2+z
x,1/2-y,1/2+z
1/2+x,y,1/2+z
1/2-x,-y,1/2+z
1/2+x,-y,1/2-z
1/2-x,y,1/2-z
1/2-x,-y,1/2-z
1/2+x,y,1/2-z
1/2-x,y,1/2+z
1/2+x,-y,1/2+z
1/2+x,1/2+y,z
1/2-x,1/2-y,z
1/2+x,1/2-y,-z
1/2-x,1/2+y,-z
1/2-x,1/2-y,-z
1/2+x,1/2+y,-z
1/2-x,1/2+y,z
1/2+x,1/2-y,z
loop_
_atom_site_type_symbol
_atom_site_label
_atom_site_fract_x
_atom_site_fract_y
_atom_site_fract_z
Si Si1 0.602351 0.342134 0.553887
Si Si2 0.646055 0.728786 0.949932
Si Si3 0.798931 0.120459 0.915161
Si Si4 0.104896 0.563379 0.231839
Si Si5 0.391738 0.936723 0.500000
Si Si6 0.214665 0.063348 0.821590
O O1 0.627608 0.342473 0.500000
O O2 0.500000 0.369957 0.563316
O O3 0.590031 0.279903 0.570171
O O4 0.685379 0.372989 0.580117
O O5 0.750000 0.750000 0.957480
O O6 0.646183 0.677517 0.916347
O O7 0.606048 0.710494 0.000000
O O8 0.837631 0.083034 0.955042
O O9 0.819818 0.093564 0.866726
O O10 0.100019 0.500000 0.231036
O O11 0.142383 0.581011 0.281737
O O12 0.179023 0.581880 0.192712
O O13 0.000000 0.587893 0.222923
O O14 0.500000 0.916478 0.500000
O O15 0.387279 0.000000 0.500000
O O16 0.211416 0.000000 0.830327
#
# Coordination Sequence:
#
# PCOD8285472 Si02
#       6
#    32  32  32  32  16  32
#     4   9  17  30  50  72  94 123 161 207 252 284
#     4   8  14  27  45  66  91 122 159 200 235 269
#     4  11  18  32  49  70 100 131 163 198 234 285
#     4   8  15  31  50  67  90 117 153 205 252 284
#     4  11  24  36  44  61  97 143 176 192 218 269
#     4   9  18  29  47  73  95 124 160 194 238 285
#
# _framework density 17.089879
#
# number of rings (size 3 to 8) (size 9 to 14) (size 15 to 20)
#    0.000    2.818    1.818    2.727    0.000    2.182 
#    0.000    1.818    0.000    2.182    0.000   22.909 
#    0.000   18.909    0.000    0.000    0.000    0.000 
#
# Total GULP energy -545124.161959 kJ/mol
# GULP energy per Si atom -12389.185499 kJ/mol
# Density = 1.705098 g / cm^3
# Si number density = 17.089879 Si / 1000 Ang^3
#
#
#
# Elastic Constant Matrix: (Units=GPa)
#
#
# Indices 1 2 3 4 5 6 
#
# 1 84.1522 12.9070 15.9146 0.0000 0.0000 0.0000
# 2 12.9070 51.5027 30.6021 0.0000 0.0000 0.0000
# 3 15.9146 30.6021 91.9204 0.0000 0.0000 0.0000
# 4 0.0000 0.0000 0.0000 11.6184 0.0000 0.0000
# 5 0.0000 0.0000 0.0000 0.0000 10.7804 0.0000
# 6 0.0000 0.0000 0.0000 0.0000 0.0000 13.9249
#
#
#
# Elastic Compliance Matrix: (Units=1/GPa)
#
#
# Indices 1 2 3 4 5 6 
#
# 1 0.012501 -0.002302 -0.001398 0.000000 0.000000 0.000000
# 2 -0.002302 0.024628 -0.007801 0.000000 0.000000 0.000000
# 3 -0.001398 -0.007801 0.013718 0.000000 0.000000 0.000000
# 4 0.000000 0.000000 0.000000 0.086071 0.000000 0.000000
# 5 0.000000 0.000000 0.000000 0.000000 0.092761 0.000000
# 6 0.000000 0.000000 0.000000 0.000000 0.000000 0.071814
#
#
# Mechanical properties :
#
#
# Convention : Reuss Voigt Hill
#
# Bulk Modulus (GPa) = 35.91227 38.49143 37.20185
# Shear Modulus (GPa) = 14.98010 18.47484 16.72747
#
# Velocity S-wave (km/s) = 2.96387 3.29148 3.13196
# Velocity P-wave (km/s) = 5.72469 6.08416 5.90716
#
# Compressibility (1/GPa) = 0.02784564
#
# Stress axis : x y z
#
# Youngs Moduli (GPa) = 79.99561 40.60342 72.89690
#
# Poissons Ratio (x) = 0.09348 0.10190
# Poissons Ratio (y) = 0.18416 0.56865
# Poissons Ratio (z) = 0.11182 0.31674
#
# Static dielectric constant tensor:
#      x y z
#    x 3.154140 0.000000 0.000000 
#    y 0.000000 3.117380 0.000000 
#    z 0.000000 0.000000 2.896390 
# 
# 
# High freq. dielectric constant tensor:
#      x y z
#    x 1.672900 0.000000 0.000000 
#    y 0.000000 1.629320 0.000000 
#    z 0.000000 0.000000 1.628940 
# 
# From -- ./inp_files/19019.got.cif
#   From: 2010.03.12/outbox.cif.g09.slc.cpg/sg69_10_cif.got.tgz:19019.got - 2010.04.10 23:52:46.
