data_PCOD8285605
_publ_section_title
;
Structure prediction by ZEFSAII (Michael W. Deem and Ramdas Pophale) SiO2 
 PCOD8285605
Probable space group: F M M M
;
_chemical_formula_sum "Si O2"
_cell_formula_units_Z 144
_cell_length_a 15.194954
_cell_length_b 26.756894
_cell_length_c 17.188287
_cell_angle_alpha 90.000000
_cell_angle_beta 90.000000
_cell_angle_gamma 90.000000
_cell_volume 6988.237953
_symmetry_space_group_name_H-M "F M M M"
_symmetry_group_IT_number 69
_symmetry_cell_setting 'orthorhombic'
loop_
_space_group_symop_operation_xyz
x,y,z
-x,-y,z
x,-y,-z
-x,y,-z
-x,-y,-z
x,y,-z
-x,y,z
x,-y,z
x,1/2+y,1/2+z
-x,1/2-y,1/2+z
x,1/2-y,1/2-z
-x,1/2+y,1/2-z
-x,1/2-y,1/2-z
x,1/2+y,1/2-z
-x,1/2+y,1/2+z
x,1/2-y,1/2+z
1/2+x,y,1/2+z
1/2-x,-y,1/2+z
1/2+x,-y,1/2-z
1/2-x,y,1/2-z
1/2-x,-y,1/2-z
1/2+x,y,1/2-z
1/2-x,y,1/2+z
1/2+x,-y,1/2+z
1/2+x,1/2+y,z
1/2-x,1/2-y,z
1/2+x,1/2-y,-z
1/2-x,1/2+y,-z
1/2-x,1/2-y,-z
1/2+x,1/2+y,-z
1/2-x,1/2+y,z
1/2+x,1/2-y,z
loop_
_atom_site_type_symbol
_atom_site_label
_atom_site_fract_x
_atom_site_fract_y
_atom_site_fract_z
Si Si1 0.101369 0.442918 0.215386
Si Si2 0.900417 0.441144 0.500000
Si Si3 0.839177 0.881740 0.142852
Si Si4 0.000000 0.198129 0.648131
Si Si5 0.500000 0.185997 0.670812
Si Si6 0.848607 0.868627 0.591106
O O1 0.134426 0.500000 0.212672
O O2 0.159196 0.411136 0.275745
O O3 0.112318 0.418922 0.130039
O O4 0.000000 0.440323 0.242487
O O5 0.897593 0.500000 0.500000
O O6 0.850876 0.422638 0.576177
O O7 0.000000 0.421022 0.500000
O O8 0.912887 0.839244 0.136617
O O9 0.745133 0.855215 0.130271
O O10 0.000000 0.179300 0.736582
O O11 0.000000 0.257415 0.642487
O O12 0.912913 0.178012 0.605841
O O13 0.838992 0.878800 0.500000
#
# Coordination Sequence:
#
# PCOD8285605 Si02
#       6
#    32  16  32  16  16  32
#     4  11  23  42  70  98 131 179 225 270 326 394
#     4  11  22  38  64  98 140 176 210 269 332 389
#     4  12  22  43  67  99 134 169 222 271 332 394
#     4  11  25  48  69  98 126 172 222 276 336 385
#     4  11  24  45  77  96 125 165 224 281 334 396
#     4  12  25  44  66  97 140 178 217 270 326 397
#
# _framework density 20.606052999999999
#
# number of rings (size 3 to 8) (size 9 to 14) (size 15 to 20)
#    0.000    0.556    6.667    1.667    0.000    5.778 
#    4.000    4.444    0.000    0.000    0.000    0.000 
#    0.000    0.000    0.000    0.000    0.000    0.000 
#
# Total GULP energy -446616.272826 kJ/mol
# GULP energy per Si atom -12406.007578 kJ/mol
# Density = 2.055915 g / cm^3
# Si number density = 20.606053 Si / 1000 Ang^3
#
#
#
# Elastic Constant Matrix: (Units=GPa)
#
#
# Indices 1 2 3 4 5 6 
#
# 1 151.4104 55.3240 38.4637 0.0000 0.0000 0.0000
# 2 55.3240 118.3567 49.0769 0.0000 0.0000 0.0000
# 3 38.4637 49.0769 123.5290 0.0000 0.0000 0.0000
# 4 0.0000 0.0000 0.0000 28.3916 0.0000 0.0000
# 5 0.0000 0.0000 0.0000 0.0000 32.2983 0.0000
# 6 0.0000 0.0000 0.0000 0.0000 0.0000 8.9010
#
#
#
# Elastic Compliance Matrix: (Units=1/GPa)
#
#
# Indices 1 2 3 4 5 6 
#
# 1 0.008116 -0.003287 -0.001221 0.000000 0.000000 0.000000
# 2 -0.003287 0.011447 -0.003524 0.000000 0.000000 0.000000
# 3 -0.001221 -0.003524 0.009876 0.000000 0.000000 0.000000
# 4 0.000000 0.000000 0.000000 0.035222 0.000000 0.000000
# 5 0.000000 0.000000 0.000000 0.000000 0.030961 0.000000
# 6 0.000000 0.000000 0.000000 0.000000 0.000000 0.112347
#
#
# Mechanical properties :
#
#
# Convention : Reuss Voigt Hill
#
# Bulk Modulus (GPa) = 74.77574 75.44727 75.11150
# Shear Modulus (GPa) = 21.88261 30.61361 26.24811
#
# Velocity S-wave (km/s) = 3.26229 3.85861 3.57291
# Velocity P-wave (km/s) = 7.11035 7.51967 7.31787
#
# Compressibility (1/GPa) = 0.01337332
#
# Stress axis : x y z
#
# Youngs Moduli (GPa) = 123.21456 87.35946 101.25975
#
# Poissons Ratio (x) = 0.28718 0.12364
# Poissons Ratio (y) = 0.40505 0.35686
# Poissons Ratio (z) = 0.15045 0.30787
#
# Static dielectric constant tensor:
#      x y z
#    x 3.949420 0.000000 0.000000 
#    y 0.000000 3.590550 0.000000 
#    z 0.000000 0.000000 3.791170 
# 
# 
# High freq. dielectric constant tensor:
#      x y z
#    x 1.820600 0.000000 0.000000 
#    y 0.000000 1.795250 0.000000 
#    z 0.000000 0.000000 1.812130 
# 
# From -- ./inp_files/21786.got.cif
#   From: 2010.03.12/outbox.cif.g09.slc.cpg/sg69_11_cif.got.tgz:21786.got - 2010.04.10 23:52:46.
