data_PCOD8285838
_publ_section_title
;
Structure prediction by ZEFSAII (Michael W. Deem and Ramdas Pophale) SiO2 
 PCOD8285838
Probable space group: F D D D
;
_chemical_formula_sum "Si O2"
_cell_formula_units_Z 160
_cell_length_a 21.289609
_cell_length_b 22.959761
_cell_length_c 14.279306
_cell_angle_alpha 90.000000
_cell_angle_beta 90.000000
_cell_angle_gamma 90.000000
_cell_volume 6979.786665
_symmetry_space_group_name_H-M "F D D D"
_symmetry_group_IT_number 70
_space_group.IT_coordinate_system_code '2'
_symmetry_cell_setting 'orthorhombic'
loop_
_space_group_symop_operation_xyz
x,y,z
1/4-x,1/4-y,z
x,1/4-y,1/4-z
1/4-x,y,1/4-z
-x,-y,-z
3/4+x,3/4+y,-z
-x,3/4+y,3/4+z
3/4+x,-y,3/4+z
x,1/2+y,1/2+z
1/4-x,3/4-y,1/2+z
x,3/4-y,3/4-z
1/4-x,1/2+y,3/4-z
-x,1/2-y,1/2-z
3/4+x,1/4+y,1/2-z
-x,1/4+y,1/4+z
3/4+x,1/2-y,1/4+z
1/2+x,y,1/2+z
3/4-x,1/4-y,1/2+z
1/2+x,1/4-y,3/4-z
3/4-x,y,3/4-z
1/2-x,-y,1/2-z
1/4+x,3/4+y,1/2-z
1/2-x,3/4+y,1/4+z
1/4+x,-y,1/4+z
1/2+x,1/2+y,z
3/4-x,3/4-y,z
1/2+x,3/4-y,1/4-z
3/4-x,1/2+y,1/4-z
1/2-x,1/2-y,-z
1/4+x,1/4+y,-z
1/2-x,1/4+y,3/4+z
1/4+x,1/2-y,3/4+z
loop_
_atom_site_type_symbol
_atom_site_label
_atom_site_fract_x
_atom_site_fract_y
_atom_site_fract_z
Si Si1 0.120983 0.382215 0.730685
Si Si2 0.806022 0.890075 0.666356
Si Si3 0.765787 0.565821 0.175522
Si Si4 0.481443 0.839833 0.961996
Si Si5 0.531340 0.962669 0.232596
O O1 0.125000 0.405329 0.625000
O O2 0.162145 0.426360 0.792733
O O3 0.051003 0.385300 0.770160
O O4 0.148461 0.315645 0.735437
O O5 0.875000 0.875000 0.702310
O O6 0.809105 0.905004 0.556706
O O7 0.761106 0.834918 0.680693
O O8 0.779340 0.943864 0.732847
O O9 0.742357 0.625000 0.125000
O O10 0.760917 0.519788 0.090319
O O11 0.451598 0.875000 0.875000
O O12 0.476377 0.772797 0.927316
#
# Coordination Sequence:
#
# PCOD8285838 Si02
#       5
#    32  32  32  32  32
#     4  10  18  43  70  94 134 170 224 284 338 400
#     4  10  22  42  58  93 141 169 219 287 335 405
#     4   8  17  37  65  92 127 167 216 274 345 402
#     4  12  25  42  67  98 130 183 234 265 332 415
#     4  10  23  42  67 101 128 176 218 284 347 386
#
# _framework density 22.923337
#
# number of rings (size 3 to 8) (size 9 to 14) (size 15 to 20)
#    0.000    2.400    4.000    1.800    0.000    8.800 
#    7.200    0.000    0.000    0.000    0.000    0.000 
#    0.000    0.000    0.000    0.000    0.000    0.000 
#
# Total GULP energy -495568.715381 kJ/mol
# GULP energy per Si atom -12389.217885 kJ/mol
# Density = 2.287116 g / cm^3
# Si number density = 22.923337 Si / 1000 Ang^3
#
#
#
# Elastic Constant Matrix: (Units=GPa)
#
#
# Indices 1 2 3 4 5 6 
#
# 1 72.6224 1.4915 -27.4086 0.0000 0.0000 0.0000
# 2 1.4915 70.3383 -0.5314 0.0000 0.0000 0.0000
# 3 -27.4086 -0.5314 103.0724 0.0000 0.0000 0.0000
# 4 0.0000 0.0000 0.0000 33.8008 0.0000 0.0000
# 5 0.0000 0.0000 0.0000 0.0000 20.8561 0.0000
# 6 0.0000 0.0000 0.0000 0.0000 0.0000 20.4255
#
#
#
# Elastic Compliance Matrix: (Units=1/GPa)
#
#
# Indices 1 2 3 4 5 6 
#
# 1 0.015312 -0.000294 0.004070 0.000000 0.000000 0.000000
# 2 -0.000294 0.014223 -0.000005 0.000000 0.000000 0.000000
# 3 0.004070 -0.000005 0.010784 0.000000 0.000000 0.000000
# 4 0.000000 0.000000 0.000000 0.029585 0.000000 0.000000
# 5 0.000000 0.000000 0.000000 0.000000 0.047948 0.000000
# 6 0.000000 0.000000 0.000000 0.000000 0.000000 0.048958
#
#
# Mechanical properties :
#
#
# Convention : Reuss Voigt Hill
#
# Bulk Modulus (GPa) = 20.89325 21.45956 21.17640
# Shear Modulus (GPa) = 28.53525 33.18191 30.85858
#
# Velocity S-wave (km/s) = 3.53202 3.80875 3.67299
# Velocity P-wave (km/s) = 5.07619 5.35947 5.21975
#
# Compressibility (1/GPa) = 0.04786234
#
# Stress axis : x y z
#
# Youngs Moduli (GPa) = 65.30808 70.30763 92.72806
#
# Poissons Ratio (x) = 0.02067 -0.37742
# Poissons Ratio (y) = 0.01920 0.00045
# Poissons Ratio (z) = -0.26582 0.00034
#
# Static dielectric constant tensor:
#      x y z
#    x 3.964690 0.000000 0.000000 
#    y 0.000000 4.000340 0.000000 
#    z 0.000000 0.000000 4.870000 
# 
# 
# High freq. dielectric constant tensor:
#      x y z
#    x 1.880510 0.000000 0.000000 
#    y 0.000000 1.879830 0.000000 
#    z 0.000000 0.000000 1.931220 
# 
# From -- ./inp_files/36325.got.cif
#   From: 2010.03.12/outbox.cif.g09.slc.cpg/sg70_19_cif.got.tgz:36325.got - 2010.04.16 13:46:32.
