data_PCOD8285018
_publ_section_title
;
Structure prediction by ZEFSAII (Michael W. Deem and Ramdas Pophale) SiO2 
 PCOD8285018
Probable space group: F M M M
;
_chemical_formula_sum "Si O2"
_cell_formula_units_Z 160
_cell_length_a 22.917438
_cell_length_b 17.370226
_cell_length_c 20.214091
_cell_angle_alpha 90.000000
_cell_angle_beta 90.000000
_cell_angle_gamma 90.000000
_cell_volume 8046.847124
_symmetry_space_group_name_H-M "F M M M"
_symmetry_group_IT_number 69
_symmetry_cell_setting 'orthorhombic'
loop_
_space_group_symop_operation_xyz
x,y,z
-x,-y,z
x,-y,-z
-x,y,-z
-x,-y,-z
x,y,-z
-x,y,z
x,-y,z
x,1/2+y,1/2+z
-x,1/2-y,1/2+z
x,1/2-y,1/2-z
-x,1/2+y,1/2-z
-x,1/2-y,1/2-z
x,1/2+y,1/2-z
-x,1/2+y,1/2+z
x,1/2-y,1/2+z
1/2+x,y,1/2+z
1/2-x,-y,1/2+z
1/2+x,-y,1/2-z
1/2-x,y,1/2-z
1/2-x,-y,1/2-z
1/2+x,y,1/2-z
1/2-x,y,1/2+z
1/2+x,-y,1/2+z
1/2+x,1/2+y,z
1/2-x,1/2-y,z
1/2+x,1/2-y,-z
1/2-x,1/2+y,-z
1/2-x,1/2-y,-z
1/2+x,1/2+y,-z
1/2-x,1/2+y,z
1/2+x,1/2-y,z
loop_
_atom_site_type_symbol
_atom_site_label
_atom_site_fract_x
_atom_site_fract_y
_atom_site_fract_z
Si Si1 0.757160 0.912854 0.075307
Si Si2 0.934905 0.408870 0.000000
Si Si3 0.366504 0.410920 0.371692
Si Si4 0.066520 0.280057 0.176454
Si Si5 0.565154 0.500000 0.921605
Si Si6 0.377630 0.342472 0.922221
O O1 0.702564 0.895015 0.122792
O O2 0.807905 0.850895 0.088402
O O3 0.780540 0.000000 0.087618
O O4 0.734534 0.906791 0.000000
O O5 0.899377 0.380488 0.063105
O O6 0.938132 0.500000 0.000000
O O7 0.000000 0.373168 0.000000
O O8 0.378889 0.500000 0.356381
O O9 0.396058 0.358782 0.315670
O O10 0.067085 0.250000 0.250000
O O11 0.097696 0.224952 0.123155
O O12 0.000000 0.294853 0.153042
O O13 0.500000 0.500000 0.893517
O O14 0.595250 0.577652 0.896117
O O15 0.567485 0.500000 0.000000
O O16 0.391917 0.326901 0.000000
#
# Coordination Sequence:
#
# PCOD8285018 Si02
#       6
#    32  16  32  32  16  32
#     4   9  16  32  59  93 130 157 193 243 300 358
#     4   9  16  28  52  87 116 143 189 244 289 337
#     4  10  20  37  61  89 118 157 198 242 297 366
#     4  11  26  45  59  82 122 160 203 259 311 361
#     4   9  16  30  54  88 119 146 193 249 294 347
#     4  10  20  36  62  92 120 158 197 245 301 362
#
# _framework density 19.883564
#
# number of rings (size 3 to 8) (size 9 to 14) (size 15 to 20)
#    0.000    2.200    2.000    1.200    1.400    3.200 
#    1.800    4.000    0.000    2.400    0.000    0.000 
#    0.000    0.000    0.000    0.000    0.000    0.000 
#
# Total GULP energy -495825.378819 kJ/mol
# GULP energy per Si atom -12395.634470 kJ/mol
# Density = 1.983831 g / cm^3
# Si number density = 19.883564 Si / 1000 Ang^3
#
#
#
# Elastic Constant Matrix: (Units=GPa)
#
#
# Indices 1 2 3 4 5 6 
#
# 1 130.2583 61.3890 34.3577 0.0000 0.0000 0.0000
# 2 61.3890 104.1641 34.7891 0.0000 0.0000 0.0000
# 3 34.3577 34.7891 48.6506 0.0000 0.0000 0.0000
# 4 0.0000 0.0000 0.0000 20.6802 0.0000 0.0000
# 5 0.0000 0.0000 0.0000 0.0000 18.2096 0.0000
# 6 0.0000 0.0000 0.0000 0.0000 0.0000 34.2958
#
#
#
# Elastic Compliance Matrix: (Units=1/GPa)
#
#
# Indices 1 2 3 4 5 6 
#
# 1 0.011249 -0.005224 -0.004209 0.000000 0.000000 0.000000
# 2 -0.005224 0.015038 -0.007064 0.000000 0.000000 0.000000
# 3 -0.004209 -0.007064 0.028579 0.000000 0.000000 0.000000
# 4 0.000000 0.000000 0.000000 0.048355 0.000000 0.000000
# 5 0.000000 0.000000 0.000000 0.000000 0.054916 0.000000
# 6 0.000000 0.000000 0.000000 0.000000 0.000000 0.029158
#
#
# Mechanical properties :
#
#
# Convention : Reuss Voigt Hill
#
# Bulk Modulus (GPa) = 45.72076 60.46052 53.09064
# Shear Modulus (GPa) = 21.97021 24.80625 23.38823
#
# Velocity S-wave (km/s) = 3.32767 3.53594 3.43338
# Velocity P-wave (km/s) = 6.14888 6.86613 6.51738
#
# Compressibility (1/GPa) = 0.02187190
#
# Stress axis : x y z
#
# Youngs Moduli (GPa) = 88.89520 66.49639 34.99119
#
# Poissons Ratio (x) = 0.34738 0.14727
# Poissons Ratio (y) = 0.46439 0.24719
# Poissons Ratio (z) = 0.37414 0.46976
#
# Static dielectric constant tensor:
#      x y z
#    x 3.821510 0.000000 0.000000 
#    y 0.000000 3.575960 0.000000 
#    z 0.000000 0.000000 3.227580 
# 
# 
# High freq. dielectric constant tensor:
#      x y z
#    x 1.792640 0.000000 0.000000 
#    y 0.000000 1.773980 0.000000 
#    z 0.000000 0.000000 1.729280 
# 
# From -- ./inp_files/17800.got.cif
#   From: 2010.03.12/outbox.cif.g09.slc.cpg/sg69_9_cif.got.tgz:17800.got - 2010.04.10 23:52:46.
