data_PCOD8285171
_publ_section_title
;
Structure prediction by ZEFSAII (Michael W. Deem and Ramdas Pophale) SiO2 
 PCOD8285171
Probable space group: F M M M
;
_chemical_formula_sum "Si O2"
_cell_formula_units_Z 144
_cell_length_a 8.681198
_cell_length_b 28.884594
_cell_length_c 30.410308
_cell_angle_alpha 90.000000
_cell_angle_beta 90.000000
_cell_angle_gamma 90.000000
_cell_volume 7625.472302
_symmetry_space_group_name_H-M "F M M M"
_symmetry_group_IT_number 69
_symmetry_cell_setting 'orthorhombic'
loop_
_space_group_symop_operation_xyz
x,y,z
-x,-y,z
x,-y,-z
-x,y,-z
-x,-y,-z
x,y,-z
-x,y,z
x,-y,z
x,1/2+y,1/2+z
-x,1/2-y,1/2+z
x,1/2-y,1/2-z
-x,1/2+y,1/2-z
-x,1/2-y,1/2-z
x,1/2+y,1/2-z
-x,1/2+y,1/2+z
x,1/2-y,1/2+z
1/2+x,y,1/2+z
1/2-x,-y,1/2+z
1/2+x,-y,1/2-z
1/2-x,y,1/2-z
1/2-x,-y,1/2-z
1/2+x,y,1/2-z
1/2-x,y,1/2+z
1/2+x,-y,1/2+z
1/2+x,1/2+y,z
1/2-x,1/2-y,z
1/2+x,1/2-y,-z
1/2-x,1/2+y,-z
1/2-x,1/2-y,-z
1/2+x,1/2+y,-z
1/2-x,1/2+y,z
1/2+x,1/2-y,z
loop_
_atom_site_type_symbol
_atom_site_label
_atom_site_fract_x
_atom_site_fract_y
_atom_site_fract_z
Si Si1 0.682332 0.798579 0.797499
Si Si2 0.681386 0.138362 0.370517
Si Si3 0.828779 0.554543 0.500000
Si Si4 0.681148 0.201015 0.450850
Si Si5 0.818758 0.446812 0.090657
O O1 0.500000 0.794419 0.794333
O O2 0.750000 0.810654 0.750000
O O3 0.750000 0.750000 0.815117
O O4 0.729683 0.839373 0.829963
O O5 0.500000 0.142134 0.362493
O O6 0.735246 0.163013 0.415670
O O7 0.733116 0.084756 0.373274
O O8 0.846350 0.500000 0.500000
O O9 0.736374 0.570422 0.542815
O O10 0.000000 0.577649 0.500000
O O11 0.737458 0.186501 0.500000
O O12 0.500000 0.206604 0.449908
O O13 0.750000 0.250000 0.436584
O O14 0.771381 0.500000 0.099385
O O15 0.000000 0.439997 0.094100
#
# Coordination Sequence:
#
# PCOD8285171 Si02
#       5
#    32  32  16  32  32
#     4  11  22  39  62  88 118 147 184 230 284 339
#     4  11  22  35  56  83 112 147 190 233 281 339
#     4   9  17  31  51  73 100 139 186 235 285 333
#     4   9  19  34  50  72 105 144 183 223 265 319
#     4  10  21  36  53  77 110 147 190 240 288 335
#
# _framework density 18.884076
#
# number of rings (size 3 to 8) (size 9 to 14) (size 15 to 20)
#    0.000    1.889    0.000    5.000    1.556    6.222 
#    0.000    0.000    0.000    0.667    0.000    0.000 
#    0.000    0.000    0.000    0.000    0.000    0.000 
#
# Total GULP energy -446479.147359 kJ/mol
# GULP energy per Si atom -12402.198538 kJ/mol
# Density = 1.884109 g / cm^3
# Si number density = 18.884076 Si / 1000 Ang^3
#
#
#
# Elastic Constant Matrix: (Units=GPa)
#
#
# Indices 1 2 3 4 5 6 
#
# 1 100.7177 42.0998 43.6373 0.0000 0.0000 0.0000
# 2 42.0998 102.3959 61.0306 0.0000 0.0000 0.0000
# 3 43.6373 61.0306 88.8901 0.0000 0.0000 0.0000
# 4 0.0000 0.0000 0.0000 100.1332 0.0000 0.0000
# 5 0.0000 0.0000 0.0000 0.0000 30.0964 0.0000
# 6 0.0000 0.0000 0.0000 0.0000 0.0000 30.8043
#
#
#
# Elastic Compliance Matrix: (Units=1/GPa)
#
#
# Indices 1 2 3 4 5 6 
#
# 1 0.013011 -0.002611 -0.004595 0.000000 0.000000 0.000000
# 2 -0.002611 0.017055 -0.010428 0.000000 0.000000 0.000000
# 3 -0.004595 -0.010428 0.020665 0.000000 0.000000 0.000000
# 4 0.000000 0.000000 0.000000 0.009987 0.000000 0.000000
# 5 0.000000 0.000000 0.000000 0.000000 0.033227 0.000000
# 6 0.000000 0.000000 0.000000 0.000000 0.000000 0.032463
#
#
# Mechanical properties :
#
#
# Convention : Reuss Voigt Hill
#
# Bulk Modulus (GPa) = 64.66653 65.05990 64.86322
# Shear Modulus (GPa) = 29.97105 41.88918 35.93012
#
# Velocity S-wave (km/s) = 3.98817 4.71492 4.36669
# Velocity P-wave (km/s) = 7.45155 8.01047 7.73606
#
# Compressibility (1/GPa) = 0.01546395
#
# Stress axis : x y z
#
# Youngs Moduli (GPa) = 76.85966 58.63490 48.39117
#
# Poissons Ratio (x) = 0.15309 0.22234
# Poissons Ratio (y) = 0.20067 0.50461
# Poissons Ratio (z) = 0.35314 0.61143
#
# Static dielectric constant tensor:
#      x y z
#    x 3.507040 0.000000 0.000000 
#    y 0.000000 3.440410 0.000000 
#    z 0.000000 0.000000 3.453950 
# 
# 
# High freq. dielectric constant tensor:
#      x y z
#    x 1.743970 0.000000 0.000000 
#    y 0.000000 1.731060 0.000000 
#    z 0.000000 0.000000 1.716110 
# 
# From -- ./inp_files/5628.got.cif
#   From: 2010.03.12/outbox.cif.g09.slc.cpg/sg69_3_cif.got.tgz:5628.got - 2010.04.10 23:52:46.
