data_PCOD8285245
_publ_section_title
;
Structure prediction by ZEFSAII (Michael W. Deem and Ramdas Pophale) SiO2 
 PCOD8285245
Probable space group: F M M M
;
_chemical_formula_sum "Si O2"
_cell_formula_units_Z 160
_cell_length_a 8.722892
_cell_length_b 30.053394
_cell_length_c 29.522898
_cell_angle_alpha 90.000000
_cell_angle_beta 90.000000
_cell_angle_gamma 90.000000
_cell_volume 7739.501816
_symmetry_space_group_name_H-M "F M M M"
_symmetry_group_IT_number 69
_symmetry_cell_setting 'orthorhombic'
loop_
_space_group_symop_operation_xyz
x,y,z
-x,-y,z
x,-y,-z
-x,y,-z
-x,-y,-z
x,y,-z
-x,y,z
x,-y,z
x,1/2+y,1/2+z
-x,1/2-y,1/2+z
x,1/2-y,1/2-z
-x,1/2+y,1/2-z
-x,1/2-y,1/2-z
x,1/2+y,1/2-z
-x,1/2+y,1/2+z
x,1/2-y,1/2+z
1/2+x,y,1/2+z
1/2-x,-y,1/2+z
1/2+x,-y,1/2-z
1/2-x,y,1/2-z
1/2-x,-y,1/2-z
1/2+x,y,1/2-z
1/2-x,y,1/2+z
1/2+x,-y,1/2+z
1/2+x,1/2+y,z
1/2-x,1/2-y,z
1/2+x,1/2-y,-z
1/2-x,1/2+y,-z
1/2-x,1/2-y,-z
1/2+x,1/2+y,-z
1/2-x,1/2+y,z
1/2+x,1/2-y,z
loop_
_atom_site_type_symbol
_atom_site_label
_atom_site_fract_x
_atom_site_fract_y
_atom_site_fract_z
Si Si1 0.817163 0.704497 0.890753
Si Si2 0.679565 0.000000 0.298915
Si Si3 0.170851 0.912616 0.674099
Si Si4 0.831308 0.113872 0.571203
Si Si5 0.317984 0.174787 0.296588
Si Si6 0.320155 0.050988 0.500000
O O1 0.750000 0.750000 0.911712
O O2 0.766556 0.664711 0.925409
O O3 0.749319 0.699721 0.840242
O O4 0.000000 0.705482 0.886621
O O5 0.750000 0.000000 0.250000
O O6 0.736453 0.042197 0.326141
O O7 0.500000 0.000000 0.295622
O O8 0.154747 0.900607 0.622357
O O9 0.266388 0.876586 0.702169
O O10 0.000000 0.917092 0.695580
O O11 0.726155 0.079496 0.543997
O O12 0.000000 0.113526 0.548410
O O13 0.500000 0.179067 0.296683
O O14 0.250000 0.195765 0.250000
O O15 0.500000 0.046283 0.500000
O O16 0.250818 0.000000 0.500000
#
# Coordination Sequence:
#
# PCOD8285245 Si02
#       6
#    32  16  32  32  32  16
#     4  10  21  39  62  90 120 156 201 248 300 359
#     4  12  24  36  52  77 110 151 198 248 295 350
#     4  10  21  38  57  80 111 150 197 246 298 357
#     4   9  21  41  64  88 118 156 195 238 292 360
#     4  11  21  35  55  81 115 157 201 250 301 350
#     4  11  25  41  62  95 128 155 192 245 294 349
#
# _framework density 20.673166999999999
#
# number of rings (size 3 to 8) (size 9 to 14) (size 15 to 20)
#    0.000    1.700    0.000    6.000    1.400    6.000 
#    0.000    2.500    0.000    0.000    0.000    0.000 
#    0.000    0.000    0.000    0.000    0.000    0.000 
#
# Total GULP energy -495838.789610 kJ/mol
# GULP energy per Si atom -12395.969740 kJ/mol
# Density = 2.062611 g / cm^3
# Si number density = 20.673167 Si / 1000 Ang^3
#
#
#
# Elastic Constant Matrix: (Units=GPa)
#
#
# Indices 1 2 3 4 5 6 
#
# 1 138.8660 52.6980 26.2235 0.0000 0.0000 0.0000
# 2 52.6980 161.2810 27.7781 0.0000 0.0000 0.0000
# 3 26.2235 27.7781 62.6473 0.0000 0.0000 0.0000
# 4 0.0000 0.0000 0.0000 12.4426 0.0000 0.0000
# 5 0.0000 0.0000 0.0000 0.0000 29.3678 0.0000
# 6 0.0000 0.0000 0.0000 0.0000 0.0000 35.7014
#
#
#
# Elastic Compliance Matrix: (Units=1/GPa)
#
#
# Indices 1 2 3 4 5 6 
#
# 1 0.008579 -0.002365 -0.002542 0.000000 0.000000 0.000000
# 2 -0.002365 0.007365 -0.002276 0.000000 0.000000 0.000000
# 3 -0.002542 -0.002276 0.018036 0.000000 0.000000 0.000000
# 4 0.000000 0.000000 0.000000 0.080369 0.000000 0.000000
# 5 0.000000 0.000000 0.000000 0.000000 0.034051 0.000000
# 6 0.000000 0.000000 0.000000 0.000000 0.000000 0.028010
#
#
# Mechanical properties :
#
#
# Convention : Reuss Voigt Hill
#
# Bulk Modulus (GPa) = 50.98600 64.02150 57.50375
# Shear Modulus (GPa) = 25.34038 32.57535 28.95787
#
# Velocity S-wave (km/s) = 3.50489 3.97385 3.74672
# Velocity P-wave (km/s) = 6.41057 7.21741 6.82592
#
# Compressibility (1/GPa) = 0.01961323
#
# Stress axis : x y z
#
# Youngs Moduli (GPa) = 116.56577 135.77472 55.44600
#
# Poissons Ratio (x) = 0.32114 0.14096
# Poissons Ratio (y) = 0.27571 0.12618
# Poissons Ratio (z) = 0.29634 0.30898
#
# Static dielectric constant tensor:
#      x y z
#    x 3.730980 0.000000 0.000000 
#    y 0.000000 3.943150 0.000000 
#    z 0.000000 0.000000 3.684560 
# 
# 
# High freq. dielectric constant tensor:
#      x y z
#    x 1.815230 0.000000 0.000000 
#    y 0.000000 1.821720 0.000000 
#    z 0.000000 0.000000 1.793910 
# 
# From -- ./inp_files/44602.got.cif
#   From: 2010.03.12/outbox.cif.g09.slc.cpg/sg69_23_cif.got.tgz:44602.got - 2010.04.10 23:52:46.
