data_PCOD8285117
_publ_section_title
;
Structure prediction by ZEFSAII (Michael W. Deem and Ramdas Pophale) SiO2 
 PCOD8285117
Probable space group: F M M M
;
_chemical_formula_sum "Si O2"
_cell_formula_units_Z 160
_cell_length_a 22.803912
_cell_length_b 19.876884
_cell_length_c 17.679435
_cell_angle_alpha 90.000000
_cell_angle_beta 90.000000
_cell_angle_gamma 90.000000
_cell_volume 8013.570118
_symmetry_space_group_name_H-M "F M M M"
_symmetry_group_IT_number 69
_symmetry_cell_setting 'orthorhombic'
loop_
_space_group_symop_operation_xyz
x,y,z
-x,-y,z
x,-y,-z
-x,y,-z
-x,-y,-z
x,y,-z
-x,y,z
x,-y,z
x,1/2+y,1/2+z
-x,1/2-y,1/2+z
x,1/2-y,1/2-z
-x,1/2+y,1/2-z
-x,1/2-y,1/2-z
x,1/2+y,1/2-z
-x,1/2+y,1/2+z
x,1/2-y,1/2+z
1/2+x,y,1/2+z
1/2-x,-y,1/2+z
1/2+x,-y,1/2-z
1/2-x,y,1/2-z
1/2-x,-y,1/2-z
1/2+x,y,1/2-z
1/2-x,y,1/2+z
1/2+x,-y,1/2+z
1/2+x,1/2+y,z
1/2-x,1/2-y,z
1/2+x,1/2-y,-z
1/2-x,1/2+y,-z
1/2-x,1/2-y,-z
1/2+x,1/2+y,-z
1/2-x,1/2+y,z
1/2+x,1/2-y,z
loop_
_atom_site_type_symbol
_atom_site_label
_atom_site_fract_x
_atom_site_fract_y
_atom_site_fract_z
Si Si1 0.185613 0.000000 0.086500
Si Si2 0.622160 0.369585 0.858430
Si Si3 0.000000 0.718859 0.917626
Si Si4 0.791397 0.000000 0.677466
Si Si5 0.871981 0.274966 0.087282
Si Si6 0.314533 0.642969 0.287595
Si Si7 0.000000 0.623061 0.583900
O O1 0.164712 0.068344 0.125671
O O2 0.255275 0.000000 0.098900
O O3 0.166842 0.000000 0.000000
O O4 0.632864 0.306282 0.913745
O O5 0.635450 0.342171 0.774384
O O6 0.556756 0.399172 0.868169
O O7 0.936762 0.700599 0.880157
O O8 0.000000 0.798162 0.926751
O O9 0.000000 0.684867 0.000000
O O10 0.750000 0.000000 0.750000
O O11 0.828680 0.931718 0.680647
O O12 0.822347 0.306083 0.141945
O O13 0.862741 0.298124 0.000000
O O14 0.250000 0.652023 0.250000
O O15 0.000000 0.588991 0.500000
#
# Coordination Sequence:
#
# PCOD8285117 Si02
#       7
#    16  32  16  16  32  32  16
#     4  12  22  37  63  84 108 156 200 235 290 346
#     4  11  21  38  59  85 121 155 190 238 293 345
#     4   7  14  33  56  79 114 150 181 232 292 336
#     4  10  20  44  58  74 111 155 193 237 279 344
#     4  10  21  37  60  89 117 149 194 244 290 342
#     4  11  22  41  61  82 115 156 195 237 291 346
#     4   9  18  34  55  85 121 153 189 236 285 345
#
# _framework density 19.966131000000001
#
# number of rings (size 3 to 8) (size 9 to 14) (size 15 to 20)
#    0.000    1.800    4.000    3.600    0.000    3.600 
#    0.000    5.000    0.000    1.800    0.000    2.100 
#    0.000    0.000    0.000    0.000    0.000    0.000 
#
# Total GULP energy -495528.079556 kJ/mol
# GULP energy per Si atom -12388.201989 kJ/mol
# Density = 1.992069 g / cm^3
# Si number density = 19.966131 Si / 1000 Ang^3
#
#
#
# Elastic Constant Matrix: (Units=GPa)
#
#
# Indices 1 2 3 4 5 6 
#
# 1 95.8776 19.4081 48.5911 0.0000 0.0000 0.0000
# 2 19.4081 76.5437 25.4617 0.0000 0.0000 0.0000
# 3 48.5911 25.4617 104.4823 0.0000 0.0000 0.0000
# 4 0.0000 0.0000 0.0000 21.3587 0.0000 0.0000
# 5 0.0000 0.0000 0.0000 0.0000 32.0840 0.0000
# 6 0.0000 0.0000 0.0000 0.0000 0.0000 7.8865
#
#
#
# Elastic Compliance Matrix: (Units=1/GPa)
#
#
# Indices 1 2 3 4 5 6 
#
# 1 0.013800 -0.001485 -0.006056 0.000000 0.000000 0.000000
# 2 -0.001485 0.014377 -0.002813 0.000000 0.000000 0.000000
# 3 -0.006056 -0.002813 0.013073 0.000000 0.000000 0.000000
# 4 0.000000 0.000000 0.000000 0.046819 0.000000 0.000000
# 5 0.000000 0.000000 0.000000 0.000000 0.031168 0.000000
# 6 0.000000 0.000000 0.000000 0.000000 0.000000 0.126799
#
#
# Mechanical properties :
#
#
# Convention : Reuss Voigt Hill
#
# Bulk Modulus (GPa) = 48.68067 51.53619 50.10843
# Shear Modulus (GPa) = 18.27547 24.49534 21.38541
#
# Velocity S-wave (km/s) = 3.02871 3.50643 3.27629
# Velocity P-wave (km/s) = 6.05519 6.50087 6.28198
#
# Compressibility (1/GPa) = 0.02054203
#
# Stress axis : x y z
#
# Youngs Moduli (GPa) = 72.46554 69.55753 76.49374
#
# Poissons Ratio (x) = 0.10326 0.46324
# Poissons Ratio (y) = 0.10758 0.21518
# Poissons Ratio (z) = 0.43885 0.19567
#
# Static dielectric constant tensor:
#      x y z
#    x 3.905680 0.000000 0.000000 
#    y 0.000000 3.606960 0.000000 
#    z 0.000000 0.000000 3.603670 
# 
# 
# High freq. dielectric constant tensor:
#      x y z
#    x 1.769030 0.000000 0.000000 
#    y 0.000000 1.763770 0.000000 
#    z 0.000000 0.000000 1.768030 
# 
# From -- ./inp_files/25853.got.cif
#   From: 2010.03.12/outbox.cif.g09.slc.cpg/sg69_13_cif.got.tgz:25853.got - 2010.04.10 23:52:46.
