data_PCOD8285800
_publ_section_title
;
Structure prediction by ZEFSAII (Michael W. Deem and Ramdas Pophale) SiO2 
 PCOD8285800
Probable space group: F D D D
;
_chemical_formula_sum "Si O2"
_cell_formula_units_Z 208
_cell_length_a 21.935394
_cell_length_b 15.521691
_cell_length_c 30.018069
_cell_angle_alpha 90.000000
_cell_angle_beta 90.000000
_cell_angle_gamma 90.000000
_cell_volume 10220.384261
_symmetry_space_group_name_H-M "F D D D"
_symmetry_group_IT_number 70
_space_group.IT_coordinate_system_code '2'
_symmetry_cell_setting 'orthorhombic'
loop_
_space_group_symop_operation_xyz
x,y,z
1/4-x,1/4-y,z
x,1/4-y,1/4-z
1/4-x,y,1/4-z
-x,-y,-z
3/4+x,3/4+y,-z
-x,3/4+y,3/4+z
3/4+x,-y,3/4+z
x,1/2+y,1/2+z
1/4-x,3/4-y,1/2+z
x,3/4-y,3/4-z
1/4-x,1/2+y,3/4-z
-x,1/2-y,1/2-z
3/4+x,1/4+y,1/2-z
-x,1/4+y,1/4+z
3/4+x,1/2-y,1/4+z
1/2+x,y,1/2+z
3/4-x,1/4-y,1/2+z
1/2+x,1/4-y,3/4-z
3/4-x,y,3/4-z
1/2-x,-y,1/2-z
1/4+x,3/4+y,1/2-z
1/2-x,3/4+y,1/4+z
1/4+x,-y,1/4+z
1/2+x,1/2+y,z
3/4-x,3/4-y,z
1/2+x,3/4-y,1/4-z
3/4-x,1/2+y,1/4-z
1/2-x,1/2-y,-z
1/4+x,1/4+y,-z
1/2-x,1/4+y,3/4+z
1/4+x,1/2-y,3/4+z
loop_
_atom_site_type_symbol
_atom_site_label
_atom_site_fract_x
_atom_site_fract_y
_atom_site_fract_z
Si Si1 0.639742 0.876761 0.229305
Si Si2 0.965537 0.535188 0.822280
Si Si3 0.394917 0.278106 0.042753
Si Si4 0.402652 0.470571 0.136056
Si Si5 0.947607 0.527519 0.056484
Si Si6 0.263927 0.615671 0.910011
Si Si7 0.471926 0.875000 0.875000
O O1 0.579999 0.931983 0.216031
O O2 0.623418 0.789413 0.255260
O O3 0.686254 0.939440 0.256316
O O4 0.673073 0.845121 0.184330
O O5 0.973788 0.606060 0.859825
O O6 0.936214 0.452206 0.849318
O O7 0.032153 0.518636 0.800710
O O8 0.375000 0.375000 0.028681
O O9 0.357428 0.245968 0.085949
O O10 0.375000 0.375000 0.136284
O O11 0.368445 0.531533 0.170535
O O12 0.472590 0.469440 0.152902
O O13 0.976516 0.432801 0.058934
O O14 0.989568 0.591128 0.083830
#
# Coordination Sequence:
#
# PCOD8285800 Si02
#       7
#    32  32  32  32  32  32  16
#     4  12  25  35  62 100 133 155 218 282 329 372
#     4  11  22  41  64  91 130 171 206 261 340 390
#     4  11  21  43  67  89 120 174 223 272 319 391
#     4   9  16  35  64  84 115 168 215 251 311 390
#     4  10  18  34  61  92 122 161 212 262 314 382
#     4  10  21  40  60  85 129 174 202 260 329 399
#     4  10  18  38  67  88 132 172 213 244 330 410
#
# _framework density 20.351486000000001
#
# number of rings (size 3 to 8) (size 9 to 14) (size 15 to 20)
#    0.000    1.538    7.692    0.923    2.154    0.615 
#    0.000    6.154    0.000    1.846    0.000    0.000 
#    0.000    0.000    0.000    0.000    0.000    0.000 
#
# Total GULP energy -644208.879769 kJ/mol
# GULP energy per Si atom -12388.632303 kJ/mol
# Density = 2.030516 g / cm^3
# Si number density = 20.351486 Si / 1000 Ang^3
#
#
#
# Elastic Constant Matrix: (Units=GPa)
#
#
# Indices 1 2 3 4 5 6 
#
# 1 80.9396 25.9093 42.2592 0.0000 0.0000 0.0000
# 2 25.9093 52.7189 35.5293 0.0000 0.0000 0.0000
# 3 42.2592 35.5293 92.5943 0.0000 0.0000 0.0000
# 4 0.0000 0.0000 0.0000 30.3080 0.0000 0.0000
# 5 0.0000 0.0000 0.0000 0.0000 29.9896 0.0000
# 6 0.0000 0.0000 0.0000 0.0000 0.0000 74.3296
#
#
#
# Elastic Compliance Matrix: (Units=1/GPa)
#
#
# Indices 1 2 3 4 5 6 
#
# 1 0.016878 -0.004186 -0.006097 0.000000 0.000000 0.000000
# 2 -0.004186 0.026623 -0.008305 0.000000 0.000000 0.000000
# 3 -0.006097 -0.008305 0.016769 0.000000 0.000000 0.000000
# 4 0.000000 0.000000 0.000000 0.032995 0.000000 0.000000
# 5 0.000000 0.000000 0.000000 0.000000 0.033345 0.000000
# 6 0.000000 0.000000 0.000000 0.000000 0.000000 0.013454
#
#
# Mechanical properties :
#
#
# Convention : Reuss Voigt Hill
#
# Bulk Modulus (GPa) = 43.30070 48.18319 45.74194
# Shear Modulus (GPa) = 27.03629 35.09577 31.06603
#
# Velocity S-wave (km/s) = 3.64877 4.15719 3.91125
# Velocity P-wave (km/s) = 6.25092 6.83885 6.55148
#
# Compressibility (1/GPa) = 0.02309432
#
# Stress axis : x y z
#
# Youngs Moduli (GPa) = 59.24859 37.56172 59.63387
#
# Poissons Ratio (x) = 0.15724 0.36357
# Poissons Ratio (y) = 0.24802 0.49526
# Poissons Ratio (z) = 0.36122 0.31195
#
# Static dielectric constant tensor:
#      x y z
#    x 3.747290 0.000000 0.000000 
#    y 0.000000 3.610110 0.000000 
#    z 0.000000 0.000000 3.697040 
# 
# 
# High freq. dielectric constant tensor:
#      x y z
#    x 1.777970 0.000000 0.000000 
#    y 0.000000 1.773960 0.000000 
#    z 0.000000 0.000000 1.797510 
# 
# From -- ./inp_files/36752.got.cif
#   From: 2010.03.12/outbox.cif.g09.slc.cpg/sg70_19_cif.got.tgz:36752.got - 2010.04.16 13:46:32.
