data_PCOD8285786
_publ_section_title
;
Structure prediction by ZEFSAII (Michael W. Deem and Ramdas Pophale) SiO2 
 PCOD8285786
Probable space group: F D D D
;
_chemical_formula_sum "Si O2"
_cell_formula_units_Z 160
_cell_length_a 24.862547
_cell_length_b 13.482487
_cell_length_c 25.018532
_cell_angle_alpha 90.000000
_cell_angle_beta 90.000000
_cell_angle_gamma 90.000000
_cell_volume 8386.436260
_symmetry_space_group_name_H-M "F D D D"
_symmetry_group_IT_number 70
_space_group.IT_coordinate_system_code '2'
_symmetry_cell_setting 'orthorhombic'
loop_
_space_group_symop_operation_xyz
x,y,z
1/4-x,1/4-y,z
x,1/4-y,1/4-z
1/4-x,y,1/4-z
-x,-y,-z
3/4+x,3/4+y,-z
-x,3/4+y,3/4+z
3/4+x,-y,3/4+z
x,1/2+y,1/2+z
1/4-x,3/4-y,1/2+z
x,3/4-y,3/4-z
1/4-x,1/2+y,3/4-z
-x,1/2-y,1/2-z
3/4+x,1/4+y,1/2-z
-x,1/4+y,1/4+z
3/4+x,1/2-y,1/4+z
1/2+x,y,1/2+z
3/4-x,1/4-y,1/2+z
1/2+x,1/4-y,3/4-z
3/4-x,y,3/4-z
1/2-x,-y,1/2-z
1/4+x,3/4+y,1/2-z
1/2-x,3/4+y,1/4+z
1/4+x,-y,1/4+z
1/2+x,1/2+y,z
3/4-x,3/4-y,z
1/2+x,3/4-y,1/4-z
3/4-x,1/2+y,1/4-z
1/2-x,1/2-y,-z
1/4+x,1/4+y,-z
1/2-x,1/4+y,3/4+z
1/4+x,1/2-y,3/4+z
loop_
_atom_site_type_symbol
_atom_site_label
_atom_site_fract_x
_atom_site_fract_y
_atom_site_fract_z
Si Si1 0.675389 0.243574 0.979465
Si Si2 0.822057 0.252075 0.588742
Si Si3 0.556401 0.219980 0.392187
Si Si4 0.693352 0.305160 0.294257
Si Si5 0.246895 0.161204 0.723130
O O1 0.698718 0.207675 0.921665
O O2 0.611604 0.255996 0.978656
O O3 0.702445 0.348121 0.994790
O O4 0.693836 0.159659 0.022744
O O5 0.885825 0.234488 0.594157
O O6 0.803346 0.364082 0.577130
O O7 0.804594 0.175775 0.541571
O O8 0.795898 0.223462 0.644937
O O9 0.510582 0.295886 0.413823
O O10 0.741127 0.259237 0.259437
#
# Coordination Sequence:
#
# PCOD8285786 Si02
#       5
#    32  32  32  32  32
#     4  10  20  35  50  81 117 139 178 231 275 325
#     4   9  18  32  56  76 109 136 176 232 275 312
#     4  10  18  34  53  82 107 141 177 229 277 322
#     4  10  18  34  53  82 107 141 177 229 277 322
#     4  11  20  29  56  82 108 143 178 222 276 332
#
# _framework density 19.078426
#
# number of rings (size 3 to 8) (size 9 to 14) (size 15 to 20)
#    0.000    2.000    4.000    1.200    0.000    0.800 
#    0.000    0.000    0.000   20.400    0.000    0.000 
#    0.000    0.000    0.000    0.000    0.000    0.000 
#
# Total GULP energy -495549.932672 kJ/mol
# GULP energy per Si atom -12388.748317 kJ/mol
# Density = 1.903500 g / cm^3
# Si number density = 19.078426 Si / 1000 Ang^3
#
#
#
# Elastic Constant Matrix: (Units=GPa)
#
#
# Indices 1 2 3 4 5 6 
#
# 1 40.4441 32.3893 30.2860 0.0000 0.0000 0.0000
# 2 32.3893 108.6900 35.6270 0.0000 0.0000 0.0000
# 3 30.2860 35.6270 45.3714 0.0000 0.0000 0.0000
# 4 0.0000 0.0000 0.0000 36.9075 0.0000 0.0000
# 5 0.0000 0.0000 0.0000 0.0000 25.8574 0.0000
# 6 0.0000 0.0000 0.0000 0.0000 0.0000 37.2077
#
#
#
# Elastic Compliance Matrix: (Units=1/GPa)
#
#
# Indices 1 2 3 4 5 6 
#
# 1 0.051787 -0.005523 -0.030232 0.000000 0.000000 0.000000
# 2 -0.005523 0.012978 -0.006504 0.000000 0.000000 0.000000
# 3 -0.030232 -0.006504 0.047328 0.000000 0.000000 0.000000
# 4 0.000000 0.000000 0.000000 0.027095 0.000000 0.000000
# 5 0.000000 0.000000 0.000000 0.000000 0.038674 0.000000
# 6 0.000000 0.000000 0.000000 0.000000 0.000000 0.026876
#
#
# Mechanical properties :
#
#
# Convention : Reuss Voigt Hill
#
# Bulk Modulus (GPa) = 36.26452 43.45668 39.86060
# Shear Modulus (GPa) = 16.75332 26.40806 21.58069
#
# Velocity S-wave (km/s) = 2.96654 3.72450 3.36692
# Velocity P-wave (km/s) = 5.54826 6.42831 6.00443
#
# Compressibility (1/GPa) = 0.02757516
#
# Stress axis : x y z
#
# Youngs Moduli (GPa) = 19.30978 77.05155 21.12913
#
# Poissons Ratio (x) = 0.42554 0.63877
# Poissons Ratio (y) = 0.10664 0.13743
# Poissons Ratio (z) = 0.58377 0.50118
#
# Static dielectric constant tensor:
#      x y z
#    x 3.202830 0.000000 0.000000 
#    y 0.000000 3.975700 0.000000 
#    z 0.000000 0.000000 3.276040 
# 
# 
# High freq. dielectric constant tensor:
#      x y z
#    x 1.702650 0.000000 0.000000 
#    y 0.000000 1.774270 0.000000 
#    z 0.000000 0.000000 1.697980 
# 
# From -- ./inp_files/28640.got.cif
#   From: 2010.03.12/outbox.cif.g09.slc.cpg/sg70_15_cif.got.tgz:28640.got - 2010.04.16 13:46:32.
