data_PCOD8285783
_publ_section_title
;
Structure prediction by ZEFSAII (Michael W. Deem and Ramdas Pophale) SiO2 
 PCOD8285783
Probable space group: F D D D
;
_chemical_formula_sum "Si O2"
_cell_formula_units_Z 176
_cell_length_a 11.927694
_cell_length_b 33.291309
_cell_length_c 22.084135
_cell_angle_alpha 90.000000
_cell_angle_beta 90.000000
_cell_angle_gamma 90.000000
_cell_volume 8769.357070
_symmetry_space_group_name_H-M "F D D D"
_symmetry_group_IT_number 70
_space_group.IT_coordinate_system_code '2'
_symmetry_cell_setting 'orthorhombic'
loop_
_space_group_symop_operation_xyz
x,y,z
1/4-x,1/4-y,z
x,1/4-y,1/4-z
1/4-x,y,1/4-z
-x,-y,-z
3/4+x,3/4+y,-z
-x,3/4+y,3/4+z
3/4+x,-y,3/4+z
x,1/2+y,1/2+z
1/4-x,3/4-y,1/2+z
x,3/4-y,3/4-z
1/4-x,1/2+y,3/4-z
-x,1/2-y,1/2-z
3/4+x,1/4+y,1/2-z
-x,1/4+y,1/4+z
3/4+x,1/2-y,1/4+z
1/2+x,y,1/2+z
3/4-x,1/4-y,1/2+z
1/2+x,1/4-y,3/4-z
3/4-x,y,3/4-z
1/2-x,-y,1/2-z
1/4+x,3/4+y,1/2-z
1/2-x,3/4+y,1/4+z
1/4+x,-y,1/4+z
1/2+x,1/2+y,z
3/4-x,3/4-y,z
1/2+x,3/4-y,1/4-z
3/4-x,1/2+y,1/4-z
1/2-x,1/2-y,-z
1/4+x,1/4+y,-z
1/2-x,1/4+y,3/4+z
1/4+x,1/2-y,3/4+z
loop_
_atom_site_type_symbol
_atom_site_label
_atom_site_fract_x
_atom_site_fract_y
_atom_site_fract_z
Si Si1 0.104723 0.196608 0.737191
Si Si2 0.921897 0.029039 0.117717
Si Si3 0.089476 0.350845 0.814530
Si Si4 0.375000 0.530308 0.875000
Si Si5 0.863732 0.677935 0.749310
Si Si6 0.275766 0.019151 0.837781
O O1 0.232267 0.183501 0.738510
O O2 0.092088 0.240896 0.709514
O O3 0.034734 0.163941 0.700757
O O4 0.051101 0.197918 0.804696
O O5 0.922969 0.063532 0.170371
O O6 0.801806 0.007274 0.118154
O O7 0.936050 0.046758 0.049935
O O8 0.018771 0.998134 0.135574
O O9 0.071690 0.375000 0.875000
O O10 0.139558 0.380354 0.762145
O O11 0.352703 0.558541 0.816750
O O12 0.375000 0.041275 0.875000
#
# Coordination Sequence:
#
# PCOD8285783 Si02
#       6
#    32  32  32  16  32  32
#     4  10  19  32  58  88 120 151 188 253 314 360
#     4  10  21  38  62  89 115 165 208 257 302 377
#     4   9  21  37  61  90 117 152 204 262 323 367
#     4  12  24  40  61  84 130 170 216 252 304 375
#     4  11  21  38  59  87 122 156 209 254 312 366
#     4  10  18  33  57  90 120 146 194 252 301 358
#
# _framework density 20.069887000000001
#
# number of rings (size 3 to 8) (size 9 to 14) (size 15 to 20)
#    0.000    1.818    3.636    1.091    0.000    2.182 
#    1.636    4.091    0.000    0.000    0.000    0.000 
#    0.000    0.000    0.000    0.000    0.000    0.000 
#
# Total GULP energy -545340.840995 kJ/mol
# GULP energy per Si atom -12394.110023 kJ/mol
# Density = 2.002421 g / cm^3
# Si number density = 20.069887 Si / 1000 Ang^3
#
#
#
# Elastic Constant Matrix: (Units=GPa)
#
#
# Indices 1 2 3 4 5 6 
#
# 1 56.8118 27.6954 26.8641 0.0000 0.0000 0.0000
# 2 27.6954 85.0552 44.1689 0.0000 0.0000 0.0000
# 3 26.8641 44.1689 89.7696 0.0000 0.0000 0.0000
# 4 0.0000 0.0000 0.0000 27.8214 0.0000 0.0000
# 5 0.0000 0.0000 0.0000 0.0000 31.1610 0.0000
# 6 0.0000 0.0000 0.0000 0.0000 0.0000 24.4732
#
#
#
# Elastic Compliance Matrix: (Units=1/GPa)
#
#
# Indices 1 2 3 4 5 6 
#
# 1 0.021996 -0.005029 -0.004108 0.000000 0.000000 0.000000
# 2 -0.005029 0.016942 -0.006831 0.000000 0.000000 0.000000
# 3 -0.004108 -0.006831 0.015730 0.000000 0.000000 0.000000
# 4 0.000000 0.000000 0.000000 0.035944 0.000000 0.000000
# 5 0.000000 0.000000 0.000000 0.000000 0.032091 0.000000
# 6 0.000000 0.000000 0.000000 0.000000 0.000000 0.040861
#
#
# Mechanical properties :
#
#
# Convention : Reuss Voigt Hill
#
# Bulk Modulus (GPa) = 43.99075 47.67704 45.83390
# Shear Modulus (GPa) = 24.62118 25.55166 25.08642
#
# Velocity S-wave (km/s) = 3.50633 3.57197 3.53930
# Velocity P-wave (km/s) = 6.19345 6.38898 6.29197
#
# Compressibility (1/GPa) = 0.02273205
#
# Stress axis : x y z
#
# Youngs Moduli (GPa) = 45.46256 59.02542 63.57296
#
# Poissons Ratio (x) = 0.29684 0.26116
# Poissons Ratio (y) = 0.22863 0.43426
# Poissons Ratio (z) = 0.18676 0.40319
#
# Static dielectric constant tensor:
#      x y z
#    x 3.399740 0.000000 0.000000 
#    y 0.000000 4.009980 0.000000 
#    z 0.000000 0.000000 3.888830 
# 
# 
# High freq. dielectric constant tensor:
#      x y z
#    x 1.761170 0.000000 0.000000 
#    y 0.000000 1.772790 0.000000 
#    z 0.000000 0.000000 1.781910 
# 
# From -- ./inp_files/50412.got.cif
#   From: 2010.03.12/outbox.cif.g09.slc.cpg/sg70_26_cif.got.tgz:50412.got - 2010.04.16 13:46:32.
