data_PCOD8285316
_publ_section_title
;
Structure prediction by ZEFSAII (Michael W. Deem and Ramdas Pophale) SiO2 
 PCOD8285316
Probable space group: F M M M
;
_chemical_formula_sum "Si O2"
_cell_formula_units_Z 192
_cell_length_a 21.326262
_cell_length_b 17.023662
_cell_length_c 25.546339
_cell_angle_alpha 90.000000
_cell_angle_beta 90.000000
_cell_angle_gamma 90.000000
_cell_volume 9274.625862
_symmetry_space_group_name_H-M "F M M M"
_symmetry_group_IT_number 69
_symmetry_cell_setting 'orthorhombic'
loop_
_space_group_symop_operation_xyz
x,y,z
-x,-y,z
x,-y,-z
-x,y,-z
-x,-y,-z
x,y,-z
-x,y,z
x,-y,z
x,1/2+y,1/2+z
-x,1/2-y,1/2+z
x,1/2-y,1/2-z
-x,1/2+y,1/2-z
-x,1/2-y,1/2-z
x,1/2+y,1/2-z
-x,1/2+y,1/2+z
x,1/2-y,1/2+z
1/2+x,y,1/2+z
1/2-x,-y,1/2+z
1/2+x,-y,1/2-z
1/2-x,y,1/2-z
1/2-x,-y,1/2-z
1/2+x,y,1/2-z
1/2-x,y,1/2+z
1/2+x,-y,1/2+z
1/2+x,1/2+y,z
1/2-x,1/2-y,z
1/2+x,1/2-y,-z
1/2-x,1/2+y,-z
1/2-x,1/2-y,-z
1/2+x,1/2+y,-z
1/2-x,1/2+y,z
1/2+x,1/2-y,z
loop_
_atom_site_type_symbol
_atom_site_label
_atom_site_fract_x
_atom_site_fract_y
_atom_site_fract_z
Si Si1 0.738343 0.409896 0.691191
Si Si2 0.572563 0.302565 0.906464
Si Si3 0.122418 0.354778 0.126523
Si Si4 0.425937 0.500000 0.562037
Si Si5 0.070447 0.335126 0.765821
Si Si6 0.622946 0.086739 0.675028
Si Si7 0.074398 0.411595 0.500000
O O1 0.715068 0.500000 0.695089
O O2 0.750000 0.375957 0.750000
O O3 0.689392 0.360448 0.656172
O O4 0.804151 0.404142 0.660350
O O5 0.500000 0.278953 0.915814
O O6 0.616230 0.225204 0.907302
O O7 0.579716 0.347749 0.851770
O O8 0.597974 0.363119 0.949897
O O9 0.108102 0.425161 0.087116
O O10 0.070593 0.350136 0.172126
O O11 0.500000 0.500000 0.574400
O O12 0.413795 0.500000 0.500000
O O13 0.097580 0.250000 0.750000
O O14 0.113597 0.400726 0.737555
O O15 0.000000 0.343858 0.745292
O O16 0.599279 0.000000 0.659335
O O17 0.103261 0.500000 0.500000
O O18 0.000000 0.417913 0.500000
#
# Coordination Sequence:
#
# PCOD8285316 Si02
#       7
#    32  32  32  16  32  32  16
#     4  10  21  40  61  87 125 172 225 267 308 382
#     4  11  23  40  63  94 129 163 208 273 339 401
#     4  12  23  41  64  91 133 176 219 274 333 395
#     4  11  26  44  67  98 130 178 238 286 338 405
#     4  11  22  37  55  90 135 170 206 258 326 400
#     4  11  23  38  61  89 125 168 212 263 322 391
#     4   9  20  40  68  94 123 167 217 271 337 409
#
# _framework density 20.701644000000002
#
# number of rings (size 3 to 8) (size 9 to 14) (size 15 to 20)
#    0.000    1.167    4.167    2.500    2.333    2.667 
#    0.000    1.667    1.833    1.000    0.000    0.000 
#    0.000    0.000    0.000    0.000    0.000    0.000 
#
# Total GULP energy -595173.621595 kJ/mol
# GULP energy per Si atom -12399.450450 kJ/mol
# Density = 2.065453 g / cm^3
# Si number density = 20.701644 Si / 1000 Ang^3
#
#
#
# Elastic Constant Matrix: (Units=GPa)
#
#
# Indices 1 2 3 4 5 6 
#
# 1 80.3184 43.6708 25.8725 0.0000 0.0000 0.0000
# 2 43.6708 155.8607 59.1971 0.0000 0.0000 0.0000
# 3 25.8725 59.1971 108.5122 0.0000 0.0000 0.0000
# 4 0.0000 0.0000 0.0000 40.0683 0.0000 0.0000
# 5 0.0000 0.0000 0.0000 0.0000 25.4188 0.0000
# 6 0.0000 0.0000 0.0000 0.0000 0.0000 31.5635
#
#
#
# Elastic Compliance Matrix: (Units=1/GPa)
#
#
# Indices 1 2 3 4 5 6 
#
# 1 0.014908 -0.003566 -0.001609 0.000000 0.000000 0.000000
# 2 -0.003566 0.008946 -0.004030 0.000000 0.000000 0.000000
# 3 -0.001609 -0.004030 0.011798 0.000000 0.000000 0.000000
# 4 0.000000 0.000000 0.000000 0.024957 0.000000 0.000000
# 5 0.000000 0.000000 0.000000 0.000000 0.039341 0.000000
# 6 0.000000 0.000000 0.000000 0.000000 0.000000 0.031682
#
#
# Mechanical properties :
#
#
# Convention : Reuss Voigt Hill
#
# Bulk Modulus (GPa) = 58.00081 66.90801 62.45441
# Shear Modulus (GPa) = 32.09479 33.80685 32.95082
#
# Velocity S-wave (km/s) = 3.94172 4.04549 3.99394
# Velocity P-wave (km/s) = 6.98531 7.36285 7.17656
#
# Compressibility (1/GPa) = 0.01724114
#
# Stress axis : x y z
#
# Youngs Moduli (GPa) = 67.07992 111.78532 84.76215
#
# Poissons Ratio (x) = 0.39861 0.13639
# Poissons Ratio (y) = 0.23919 0.34159
# Poissons Ratio (z) = 0.10794 0.45049
#
# Static dielectric constant tensor:
#      x y z
#    x 3.499600 0.000000 0.000000 
#    y 0.000000 3.832760 0.000000 
#    z 0.000000 0.000000 3.700890 
# 
# 
# High freq. dielectric constant tensor:
#      x y z
#    x 1.793150 0.000000 0.000000 
#    y 0.000000 1.816070 0.000000 
#    z 0.000000 0.000000 1.799230 
# 
# From -- ./inp_files/43223.got.cif
#   From: 2010.03.12/outbox.cif.g09.slc.cpg/sg69_22_cif.got.tgz:43223.got - 2010.04.10 23:52:46.
