data_PCOD8285152
_publ_section_title
;
Structure prediction by ZEFSAII (Michael W. Deem and Ramdas Pophale) SiO2 
 PCOD8285152
Probable space group: F M M M
;
_chemical_formula_sum "Si O2"
_cell_formula_units_Z 144
_cell_length_a 30.370171
_cell_length_b 14.175640
_cell_length_c 17.056160
_cell_angle_alpha 90.000000
_cell_angle_beta 90.000000
_cell_angle_gamma 90.000000
_cell_volume 7342.960197
_symmetry_space_group_name_H-M "F M M M"
_symmetry_group_IT_number 69
_symmetry_cell_setting 'orthorhombic'
loop_
_space_group_symop_operation_xyz
x,y,z
-x,-y,z
x,-y,-z
-x,y,-z
-x,-y,-z
x,y,-z
-x,y,z
x,-y,z
x,1/2+y,1/2+z
-x,1/2-y,1/2+z
x,1/2-y,1/2-z
-x,1/2+y,1/2-z
-x,1/2-y,1/2-z
x,1/2+y,1/2-z
-x,1/2+y,1/2+z
x,1/2-y,1/2+z
1/2+x,y,1/2+z
1/2-x,-y,1/2+z
1/2+x,-y,1/2-z
1/2-x,y,1/2-z
1/2-x,-y,1/2-z
1/2+x,y,1/2-z
1/2-x,y,1/2+z
1/2+x,-y,1/2+z
1/2+x,1/2+y,z
1/2-x,1/2-y,z
1/2+x,1/2-y,-z
1/2-x,1/2+y,-z
1/2-x,1/2-y,-z
1/2+x,1/2+y,-z
1/2-x,1/2+y,z
1/2+x,1/2-y,z
loop_
_atom_site_type_symbol
_atom_site_label
_atom_site_fract_x
_atom_site_fract_y
_atom_site_fract_z
Si Si1 0.290911 0.313800 0.908631
Si Si2 0.627973 0.000000 0.807053
Si Si3 0.708915 0.000000 0.307347
Si Si4 0.627350 0.684391 0.409006
Si Si5 0.550158 0.319090 0.090275
Si Si6 0.948885 0.000000 0.192184
O O1 0.250000 0.250000 0.882775
O O2 0.288743 0.409567 0.861680
O O3 0.335425 0.259501 0.886741
O O4 0.288733 0.338844 0.000000
O O5 0.663174 0.000000 0.738192
O O6 0.634981 0.091100 0.859922
O O7 0.579007 0.000000 0.771590
O O8 0.750000 0.000000 0.250000
O O9 0.629791 0.656505 0.500000
O O10 0.580379 0.730337 0.387003
O O11 0.500000 0.288041 0.106052
O O12 0.563576 0.408703 0.141530
O O13 0.557546 0.348190 0.000000
O O14 0.000000 0.000000 0.215718
#
# Coordination Sequence:
#
# PCOD8285152 Si02
#       6
#    32  16  16  32  32  16
#     4  10  22  41  63  85 112 149 190 229 271 324
#     4  12  25  38  55  82 116 151 186 229 282 335
#     4  12  25  38  59  90 120 148 180 226 281 333
#     4  10  22  40  60  80 107 148 194 235 275 325
#     4   9  18  35  59  84 110 144 187 232 277 329
#     4  10  21  35  55  85 117 147 179 225 286 342
#
# _framework density 19.610620000000001
#
# number of rings (size 3 to 8) (size 9 to 14) (size 15 to 20)
#    0.000    1.778    0.000    3.667    0.000    8.000 
#    0.000   11.111    0.000    3.333    0.000    0.000 
#    0.000    0.000    0.000    0.000    0.000    0.000 
#
# Total GULP energy -446590.333293 kJ/mol
# GULP energy per Si atom -12405.287036 kJ/mol
# Density = 1.956599 g / cm^3
# Si number density = 19.610620 Si / 1000 Ang^3
#
#
#
# Elastic Constant Matrix: (Units=GPa)
#
#
# Indices 1 2 3 4 5 6 
#
# 1 114.9821 67.1492 53.7003 0.0000 0.0000 0.0000
# 2 67.1492 172.6971 90.3020 0.0000 0.0000 0.0000
# 3 53.7003 90.3020 86.4856 0.0000 0.0000 0.0000
# 4 0.0000 0.0000 0.0000 80.1850 0.0000 0.0000
# 5 0.0000 0.0000 0.0000 0.0000 26.9866 0.0000
# 6 0.0000 0.0000 0.0000 0.0000 0.0000 20.8614
#
#
#
# Elastic Compliance Matrix: (Units=1/GPa)
#
#
# Indices 1 2 3 4 5 6 
#
# 1 0.012489 -0.001765 -0.005912 0.000000 0.000000 0.000000
# 2 -0.001765 0.013003 -0.012481 0.000000 0.000000 0.000000
# 3 -0.005912 -0.012481 0.028265 0.000000 0.000000 0.000000
# 4 0.000000 0.000000 0.000000 0.012471 0.000000 0.000000
# 5 0.000000 0.000000 0.000000 0.000000 0.037055 0.000000
# 6 0.000000 0.000000 0.000000 0.000000 0.000000 0.047935
#
#
# Mechanical properties :
#
#
# Convention : Reuss Voigt Hill
#
# Bulk Modulus (GPa) = 74.39569 88.49641 81.44605
# Shear Modulus (GPa) = 25.50844 36.47415 30.99130
#
# Velocity S-wave (km/s) = 3.61050 4.31736 3.97965
# Velocity P-wave (km/s) = 7.44310 8.37123 7.92077
#
# Compressibility (1/GPa) = 0.01344164
#
# Stress axis : x y z
#
# Youngs Moduli (GPa) = 80.07326 76.90685 35.37945
#
# Poissons Ratio (x) = 0.13571 0.20916
# Poissons Ratio (y) = 0.14130 0.44157
# Poissons Ratio (z) = 0.47338 0.95986
#
# Static dielectric constant tensor:
#      x y z
#    x 3.812680 0.000000 0.000000 
#    y 0.000000 3.508170 0.000000 
#    z 0.000000 0.000000 3.550260 
# 
# 
# High freq. dielectric constant tensor:
#      x y z
#    x 1.781300 0.000000 0.000000 
#    y 0.000000 1.768840 0.000000 
#    z 0.000000 0.000000 1.764710 
# 
# From -- ./inp_files/27436.got.cif
#   From: 2010.03.12/outbox.cif.g09.slc.cpg/sg69_14_cif.got.tgz:27436.got - 2010.04.10 23:52:46.
