data_PCOD8285168
_publ_section_title
;
Structure prediction by ZEFSAII (Michael W. Deem and Ramdas Pophale) SiO2 
 PCOD8285168
Probable space group: F M M M
;
_chemical_formula_sum "Si O2"
_cell_formula_units_Z 160
_cell_length_a 25.889024
_cell_length_b 19.229665
_cell_length_c 18.298842
_cell_angle_alpha 90.000000
_cell_angle_beta 90.000000
_cell_angle_gamma 90.000000
_cell_volume 9109.845339
_symmetry_space_group_name_H-M "F M M M"
_symmetry_group_IT_number 69
_symmetry_cell_setting 'orthorhombic'
loop_
_space_group_symop_operation_xyz
x,y,z
-x,-y,z
x,-y,-z
-x,y,-z
-x,-y,-z
x,y,-z
-x,y,z
x,-y,z
x,1/2+y,1/2+z
-x,1/2-y,1/2+z
x,1/2-y,1/2-z
-x,1/2+y,1/2-z
-x,1/2-y,1/2-z
x,1/2+y,1/2-z
-x,1/2+y,1/2+z
x,1/2-y,1/2+z
1/2+x,y,1/2+z
1/2-x,-y,1/2+z
1/2+x,-y,1/2-z
1/2-x,y,1/2-z
1/2-x,-y,1/2-z
1/2+x,y,1/2-z
1/2-x,y,1/2+z
1/2+x,-y,1/2+z
1/2+x,1/2+y,z
1/2-x,1/2-y,z
1/2+x,1/2-y,-z
1/2-x,1/2+y,-z
1/2-x,1/2-y,-z
1/2+x,1/2+y,-z
1/2-x,1/2+y,z
1/2+x,1/2-y,z
loop_
_atom_site_type_symbol
_atom_site_label
_atom_site_fract_x
_atom_site_fract_y
_atom_site_fract_z
Si Si1 0.112955 0.079597 0.808005
Si Si2 0.500000 0.792328 0.582932
Si Si3 0.704647 0.300936 0.585215
Si Si4 0.701958 0.920196 0.198117
Si Si5 0.111032 0.296120 0.413651
Si Si6 0.000000 0.076534 0.833491
O O1 0.148362 0.098067 0.738740
O O2 0.126758 0.132117 0.873852
O O3 0.052218 0.088344 0.785460
O O4 0.124563 0.000000 0.833348
O O5 0.500000 0.770682 0.500000
O O6 0.444957 0.766401 0.615676
O O7 0.500000 0.875515 0.594780
O O8 0.710132 0.317768 0.500000
O O9 0.750000 0.250000 0.611692
O O10 0.707260 0.373750 0.626392
O O11 0.651068 0.263937 0.604875
O O12 0.750000 0.903543 0.250000
O O13 0.702792 0.000000 0.172300
O O14 0.109215 0.312807 0.500000
O O15 0.000000 0.000000 0.867093
#
# Coordination Sequence:
#
# PCOD8285168 Si02
#       6
#    32  16  32  32  32  16
#     4   9  17  29  46  70  99 130 163 197 235 280
#     4   8  14  25  41  63  94 128 160 196 235 276
#     4  10  21  36  53  73  96 123 156 193 234 280
#     4  10  21  36  53  73  96 123 156 193 234 280
#     4   9  17  29  46  70  99 130 163 197 235 280
#     4   8  14  25  41  63  94 128 160 196 235 276
#
# _framework density 17.563414999999999
#
# number of rings (size 3 to 8) (size 9 to 14) (size 15 to 20)
#    0.000    2.800    0.000    1.200    0.000    3.800 
#    0.000    5.000    0.000   10.800    0.000    0.000 
#    0.000    8.000    0.000    0.000    0.000    0.000 
#
# Total GULP energy -495570.163014 kJ/mol
# GULP energy per Si atom -12389.254075 kJ/mol
# Density = 1.752344 g / cm^3
# Si number density = 17.563415 Si / 1000 Ang^3
#
#
#
# Elastic Constant Matrix: (Units=GPa)
#
#
# Indices 1 2 3 4 5 6 
#
# 1 115.8548 51.1240 35.7618 0.0000 0.0000 0.0000
# 2 51.1240 91.7658 54.4400 0.0000 0.0000 0.0000
# 3 35.7618 54.4400 58.9179 0.0000 0.0000 0.0000
# 4 0.0000 0.0000 0.0000 32.3684 0.0000 0.0000
# 5 0.0000 0.0000 0.0000 0.0000 19.3403 0.0000
# 6 0.0000 0.0000 0.0000 0.0000 0.0000 23.1250
#
#
#
# Elastic Compliance Matrix: (Units=1/GPa)
#
#
# Indices 1 2 3 4 5 6 
#
# 1 0.011592 -0.005055 -0.002366 0.000000 0.000000 0.000000
# 2 -0.005055 0.026322 -0.021253 0.000000 0.000000 0.000000
# 3 -0.002366 -0.021253 0.038046 0.000000 0.000000 0.000000
# 4 0.000000 0.000000 0.000000 0.030894 0.000000 0.000000
# 5 0.000000 0.000000 0.000000 0.000000 0.051705 0.000000
# 6 0.000000 0.000000 0.000000 0.000000 0.000000 0.043243
#
#
# Mechanical properties :
#
#
# Convention : Reuss Voigt Hill
#
# Bulk Modulus (GPa) = 53.72460 61.02113 57.37286
# Shear Modulus (GPa) = 18.84268 23.31426 21.07847
#
# Velocity S-wave (km/s) = 3.27897 3.64735 3.46805
# Velocity P-wave (km/s) = 6.70752 7.24957 6.98381
#
# Compressibility (1/GPa) = 0.01861345
#
# Stress axis : x y z
#
# Youngs Moduli (GPa) = 86.26434 37.99136 26.28367
#
# Poissons Ratio (x) = 0.19204 0.06218
# Poissons Ratio (y) = 0.43605 0.55861
# Poissons Ratio (z) = 0.20407 0.80743
#
# Static dielectric constant tensor:
#      x y z
#    x 3.853610 0.000000 0.000000 
#    y 0.000000 3.100110 0.000000 
#    z 0.000000 0.000000 2.879820 
# 
# 
# High freq. dielectric constant tensor:
#      x y z
#    x 1.709270 0.000000 0.000000 
#    y 0.000000 1.665490 0.000000 
#    z 0.000000 0.000000 1.641280 
# 
# From -- ./inp_files/26659.got.cif
#   From: 2010.03.12/outbox.cif.g09.slc.cpg/sg69_14_cif.got.tgz:26659.got - 2010.04.10 23:52:46.
