data_PCOD8285741
_publ_section_title
;
Structure prediction by ZEFSAII (Michael W. Deem and Ramdas Pophale) SiO2 
 PCOD8285741
Probable space group: F D D D
;
_chemical_formula_sum "Si O2"
_cell_formula_units_Z 192
_cell_length_a 18.130813
_cell_length_b 15.791821
_cell_length_c 31.795036
_cell_angle_alpha 90.000000
_cell_angle_beta 90.000000
_cell_angle_gamma 90.000000
_cell_volume 9103.508715
_symmetry_space_group_name_H-M "F D D D"
_symmetry_group_IT_number 70
_space_group.IT_coordinate_system_code '2'
_symmetry_cell_setting 'orthorhombic'
loop_
_space_group_symop_operation_xyz
x,y,z
1/4-x,1/4-y,z
x,1/4-y,1/4-z
1/4-x,y,1/4-z
-x,-y,-z
3/4+x,3/4+y,-z
-x,3/4+y,3/4+z
3/4+x,-y,3/4+z
x,1/2+y,1/2+z
1/4-x,3/4-y,1/2+z
x,3/4-y,3/4-z
1/4-x,1/2+y,3/4-z
-x,1/2-y,1/2-z
3/4+x,1/4+y,1/2-z
-x,1/4+y,1/4+z
3/4+x,1/2-y,1/4+z
1/2+x,y,1/2+z
3/4-x,1/4-y,1/2+z
1/2+x,1/4-y,3/4-z
3/4-x,y,3/4-z
1/2-x,-y,1/2-z
1/4+x,3/4+y,1/2-z
1/2-x,3/4+y,1/4+z
1/4+x,-y,1/4+z
1/2+x,1/2+y,z
3/4-x,3/4-y,z
1/2+x,3/4-y,1/4-z
3/4-x,1/2+y,1/4-z
1/2-x,1/2-y,-z
1/4+x,1/4+y,-z
1/2-x,1/4+y,3/4+z
1/4+x,1/2-y,3/4+z
loop_
_atom_site_type_symbol
_atom_site_label
_atom_site_fract_x
_atom_site_fract_y
_atom_site_fract_z
Si Si1 0.080002 0.279174 0.166386
Si Si2 0.698713 0.016193 0.883876
Si Si3 0.964719 0.967504 0.621866
Si Si4 0.458185 0.703767 0.954138
Si Si5 0.465942 0.509050 0.786447
Si Si6 0.544173 0.460370 0.537570
O O1 0.125000 0.314308 0.125000
O O2 0.050505 0.354744 0.195241
O O3 0.137012 0.224593 0.195022
O O4 0.008226 0.226407 0.149735
O O5 0.706058 0.116788 0.878697
O O6 0.615342 0.986998 0.875638
O O7 0.718989 0.986689 0.930897
O O8 0.008765 0.999162 0.662834
O O9 0.008649 0.995411 0.580515
O O10 0.378489 0.743546 0.964746
O O11 0.515594 0.716093 0.992263
O O12 0.459334 0.609856 0.782949
O O13 0.500000 0.500000 0.500000
#
# Coordination Sequence:
#
# PCOD8285741 Si02
#       6
#    32  32  32  32  32  32
#     4   8  15  29  47  66  90 120 150 182 221 265
#     4   8  14  27  46  63  82 111 148 184 216 260
#     4   9  16  27  44  64  84 112 147 182 224 265
#     4  10  17  27  43  64  90 112 138 184 227 257
#     4   9  17  28  44  66  87 112 148 184 219 263
#     4  10  19  30  44  61  85 119 154 181 213 265
#
# _framework density 21.090769999999999
#
# number of rings (size 3 to 8) (size 9 to 14) (size 15 to 20)
#    0.000    3.000    0.000    4.500    0.000    2.000 
#    0.000    1.667    0.000    4.000    0.000    0.000 
#    0.000    0.000    0.000    0.000    0.000    0.000 
#
# Total GULP energy -594768.217730 kJ/mol
# GULP energy per Si atom -12391.004536 kJ/mol
# Density = 2.104277 g / cm^3
# Si number density = 21.090770 Si / 1000 Ang^3
#
#
#
# Elastic Constant Matrix: (Units=GPa)
#
#
# Indices 1 2 3 4 5 6 
#
# 1 131.7257 5.2684 85.9629 0.0000 0.0000 0.0000
# 2 5.2684 13.0904 15.3219 0.0000 0.0000 0.0000
# 3 85.9629 15.3219 181.4391 0.0000 0.0000 0.0000
# 4 0.0000 0.0000 0.0000 17.6714 0.0000 0.0000
# 5 0.0000 0.0000 0.0000 0.0000 44.7752 0.0000
# 6 0.0000 0.0000 0.0000 0.0000 0.0000 9.4895
#
#
#
# Elastic Compliance Matrix: (Units=1/GPa)
#
#
# Indices 1 2 3 4 5 6 
#
# 1 0.011030 0.001861 -0.005383 0.000000 0.000000 0.000000
# 2 0.001861 0.085085 -0.008067 0.000000 0.000000 0.000000
# 3 -0.005383 -0.008067 0.008743 0.000000 0.000000 0.000000
# 4 0.000000 0.000000 0.000000 0.056589 0.000000 0.000000
# 5 0.000000 0.000000 0.000000 0.000000 0.022334 0.000000
# 6 0.000000 0.000000 0.000000 0.000000 0.000000 0.105379
#
#
# Mechanical properties :
#
#
# Convention : Reuss Voigt Hill
#
# Bulk Modulus (GPa) = 12.24277 59.92907 36.08592
# Shear Modulus (GPa) = 14.72476 29.03401 21.87938
#
# Velocity S-wave (km/s) = 2.64514 3.71431 3.22435
# Velocity P-wave (km/s) = 3.89184 6.84626 5.56856
#
# Compressibility (1/GPa) = 0.08168088
#
# Stress axis : x y z
#
# Youngs Moduli (GPa) = 90.66191 11.75295 114.37562
#
# Poissons Ratio (x) = -0.02188 0.61569
# Poissons Ratio (y) = -0.16877 0.92268
# Poissons Ratio (z) = 0.48804 0.09481
#
# Static dielectric constant tensor:
#      x y z
#    x 4.524620 0.000000 0.000000 
#    y 0.000000 3.044960 0.000000 
#    z 0.000000 0.000000 3.929120 
# 
# 
# High freq. dielectric constant tensor:
#      x y z
#    x 1.849230 0.000000 0.000000 
#    y 0.000000 1.754280 0.000000 
#    z 0.000000 0.000000 1.831250 
# 
# From -- ./inp_files/60485.got.cif
#   From: 2010.03.12/outbox.cif.g09.slc.cpg/sg70_31_cif.got.tgz:60485.got - 2010.04.16 13:46:32.
