data_PCOD8285913
_publ_section_title
;
Structure prediction by ZEFSAII (Michael W. Deem and Ramdas Pophale) SiO2 
 PCOD8285913
Probable space group: F D D D
;
_chemical_formula_sum "Si O2"
_cell_formula_units_Z 128
_cell_length_a 24.094120
_cell_length_b 11.747864
_cell_length_c 19.611221
_cell_angle_alpha 90.000000
_cell_angle_beta 90.000000
_cell_angle_gamma 90.000000
_cell_volume 5551.043275
_symmetry_space_group_name_H-M "F D D D"
_symmetry_group_IT_number 70
_space_group.IT_coordinate_system_code '2'
_symmetry_cell_setting 'orthorhombic'
loop_
_space_group_symop_operation_xyz
x,y,z
1/4-x,1/4-y,z
x,1/4-y,1/4-z
1/4-x,y,1/4-z
-x,-y,-z
3/4+x,3/4+y,-z
-x,3/4+y,3/4+z
3/4+x,-y,3/4+z
x,1/2+y,1/2+z
1/4-x,3/4-y,1/2+z
x,3/4-y,3/4-z
1/4-x,1/2+y,3/4-z
-x,1/2-y,1/2-z
3/4+x,1/4+y,1/2-z
-x,1/4+y,1/4+z
3/4+x,1/2-y,1/4+z
1/2+x,y,1/2+z
3/4-x,1/4-y,1/2+z
1/2+x,1/4-y,3/4-z
3/4-x,y,3/4-z
1/2-x,-y,1/2-z
1/4+x,3/4+y,1/2-z
1/2-x,3/4+y,1/4+z
1/4+x,-y,1/4+z
1/2+x,1/2+y,z
3/4-x,3/4-y,z
1/2+x,3/4-y,1/4-z
3/4-x,1/2+y,1/4-z
1/2-x,1/2-y,-z
1/4+x,1/4+y,-z
1/2-x,1/4+y,3/4+z
1/4+x,1/2-y,3/4+z
loop_
_atom_site_type_symbol
_atom_site_label
_atom_site_fract_x
_atom_site_fract_y
_atom_site_fract_z
Si Si1 0.573915 0.064732 0.519734
Si Si2 0.125000 0.625000 0.983531
Si Si3 0.291709 0.872441 0.624254
Si Si4 0.015908 0.375000 0.375000
Si Si5 0.327980 0.672925 0.821194
O O1 0.625000 0.125000 0.559086
O O2 0.571538 0.131096 0.448281
O O3 0.517915 0.085883 0.559525
O O4 0.579267 0.927817 0.514572
O O5 0.078036 0.565545 0.933906
O O6 0.092196 0.710330 0.033387
O O7 0.297555 0.739145 0.647341
O O8 0.229779 0.924913 0.615232
O O9 0.375000 0.642204 0.875000
#
# Coordination Sequence:
#
# PCOD8285913 Si02
#       5
#    32  16  32  16  32
#     4  11  20  38  65  98 126 163 224 284 345 393
#     4  12  25  46  68  97 148 180 226 282 336 425
#     4  11  22  41  66 101 130 180 228 282 345 399
#     4  10  19  36  66  92 130 164 223 296 332 388
#     4  11  25  43  68  97 136 183 227 279 343 410
#
# _framework density 23.058729
#
# number of rings (size 3 to 8) (size 9 to 14) (size 15 to 20)
#    0.000    1.000    1.250    9.750    0.000    1.000 
#    0.000    2.500    0.000    0.000    0.000    0.000 
#    0.000    0.000    0.000    0.000    0.000    0.000 
#
# Total GULP energy -396451.686029 kJ/mol
# GULP energy per Si atom -12389.115188 kJ/mol
# Density = 2.300625 g / cm^3
# Si number density = 23.058729 Si / 1000 Ang^3
#
#
#
# Elastic Constant Matrix: (Units=GPa)
#
#
# Indices 1 2 3 4 5 6 
#
# 1 146.2711 27.6526 35.3576 0.0000 0.0000 0.0000
# 2 27.6526 72.1226 26.8430 0.0000 0.0000 0.0000
# 3 35.3576 26.8430 86.7915 0.0000 0.0000 0.0000
# 4 0.0000 0.0000 0.0000 26.8002 0.0000 0.0000
# 5 0.0000 0.0000 0.0000 0.0000 80.8673 0.0000
# 6 0.0000 0.0000 0.0000 0.0000 0.0000 29.3859
#
#
#
# Elastic Compliance Matrix: (Units=1/GPa)
#
#
# Indices 1 2 3 4 5 6 
#
# 1 0.007844 -0.002055 -0.002560 0.000000 0.000000 0.000000
# 2 -0.002055 0.016207 -0.004176 0.000000 0.000000 0.000000
# 3 -0.002560 -0.004176 0.013856 0.000000 0.000000 0.000000
# 4 0.000000 0.000000 0.000000 0.037313 0.000000 0.000000
# 5 0.000000 0.000000 0.000000 0.000000 0.012366 0.000000
# 6 0.000000 0.000000 0.000000 0.000000 0.000000 0.034030
#
#
# Mechanical properties :
#
#
# Convention : Reuss Voigt Hill
#
# Bulk Modulus (GPa) = 49.19608 53.87684 51.53646
# Shear Modulus (GPa) = 34.25310 41.76615 38.00962
#
# Velocity S-wave (km/s) = 3.85836 4.26055 4.06443
# Velocity P-wave (km/s) = 6.42112 6.90064 6.66519
#
# Compressibility (1/GPa) = 0.02032682
#
# Stress axis : x y z
#
# Youngs Moduli (GPa) = 127.48800 61.70135 72.16993
#
# Poissons Ratio (x) = 0.12677 0.18476
# Poissons Ratio (y) = 0.26194 0.30135
# Poissons Ratio (z) = 0.32637 0.25764
#
# Static dielectric constant tensor:
#      x y z
#    x 4.639390 0.000000 0.000000 
#    y 0.000000 4.241130 0.000000 
#    z 0.000000 0.000000 4.265400 
# 
# 
# High freq. dielectric constant tensor:
#      x y z
#    x 1.928190 0.000000 0.000000 
#    y 0.000000 1.879820 0.000000 
#    z 0.000000 0.000000 1.923700 
# 
# From -- ./inp_files/26377.got.cif
#   From: 2010.03.12/outbox.cif.g09.slc.cpg/sg70_14_cif.got.tgz:26377.got - 2010.04.16 13:46:32.
