data_PCOD8285024
_publ_section_title
;
Structure prediction by ZEFSAII (Michael W. Deem and Ramdas Pophale) SiO2 
 PCOD8285024
Probable space group: F M M M
;
_chemical_formula_sum "Si O2"
_cell_formula_units_Z 176
_cell_length_a 25.822733
_cell_length_b 27.810018
_cell_length_c 13.166396
_cell_angle_alpha 90.000000
_cell_angle_beta 90.000000
_cell_angle_gamma 90.000000
_cell_volume 9455.192775
_symmetry_space_group_name_H-M "F M M M"
_symmetry_group_IT_number 69
_symmetry_cell_setting 'orthorhombic'
loop_
_space_group_symop_operation_xyz
x,y,z
-x,-y,z
x,-y,-z
-x,y,-z
-x,-y,-z
x,y,-z
-x,y,z
x,-y,z
x,1/2+y,1/2+z
-x,1/2-y,1/2+z
x,1/2-y,1/2-z
-x,1/2+y,1/2-z
-x,1/2-y,1/2-z
x,1/2+y,1/2-z
-x,1/2+y,1/2+z
x,1/2-y,1/2+z
1/2+x,y,1/2+z
1/2-x,-y,1/2+z
1/2+x,-y,1/2-z
1/2-x,y,1/2-z
1/2-x,-y,1/2-z
1/2+x,y,1/2-z
1/2-x,y,1/2+z
1/2+x,-y,1/2+z
1/2+x,1/2+y,z
1/2-x,1/2-y,z
1/2+x,1/2-y,-z
1/2-x,1/2+y,-z
1/2-x,1/2-y,-z
1/2+x,1/2+y,-z
1/2-x,1/2+y,z
1/2+x,1/2-y,z
loop_
_atom_site_type_symbol
_atom_site_label
_atom_site_fract_x
_atom_site_fract_y
_atom_site_fract_z
Si Si1 0.689604 0.745516 0.000000
Si Si2 0.595392 0.444463 0.281015
Si Si3 0.441198 0.873023 0.385846
Si Si4 0.439239 0.090623 0.000000
Si Si5 0.861890 0.797584 0.189251
Si Si6 0.306206 0.116226 0.207455
Si Si7 0.837701 0.853194 0.500000
O O1 0.750000 0.750000 0.000000
O O2 0.674437 0.715473 0.902973
O O3 0.661163 0.796234 0.000000
O O4 0.592363 0.500000 0.252727
O O5 0.563196 0.416120 0.195408
O O6 0.572688 0.438278 0.395607
O O7 0.654582 0.427085 0.267779
O O8 0.421960 0.888311 0.500000
O O9 0.500000 0.856959 0.391681
O O10 0.412451 0.825358 0.347863
O O11 0.500000 0.106391 0.000000
O O12 0.399506 0.135391 0.000000
O O13 0.879291 0.750000 0.250000
O O14 0.826627 0.832357 0.255891
O O15 0.250000 0.102758 0.250000
O O16 0.304413 0.122399 0.087809
#
# Coordination Sequence:
#
# PCOD8285024 Si02
#       7
#    16  32  32  16  32  32  16
#     4  12  22  34  57  81 115 153 189 232 276 332
#     4  10  22  39  61  88 116 147 193 245 293 356
#     4  10  22  41  60  82 117 157 194 238 290 340
#     4  10  21  38  62  90 120 147 183 243 310 359
#     4  11  22  36  57  86 116 148 195 237 279 334
#     4  10  21  37  57  82 116 153 189 237 291 341
#     4  10  20  37  54  84 119 148 193 240 283 342
#
# _framework density 18.614111000000001
#
# number of rings (size 3 to 8) (size 9 to 14) (size 15 to 20)
#    0.000    1.636    2.727    1.909    0.000    2.909 
#    1.636    1.818    0.000    0.000    0.000    0.000 
#    0.000    0.000    0.000    0.000    0.000    0.000 
#
# Total GULP energy -545380.415705 kJ/mol
# GULP energy per Si atom -12395.009448 kJ/mol
# Density = 1.857174 g / cm^3
# Si number density = 18.614111 Si / 1000 Ang^3
#
#
#
# Elastic Constant Matrix: (Units=GPa)
#
#
# Indices 1 2 3 4 5 6 
#
# 1 134.9267 50.5606 52.5737 0.0000 0.0000 0.0000
# 2 50.5606 120.4282 52.4098 -0.0002 0.0000 0.0000
# 3 52.5737 52.4098 140.9802 -0.0013 0.0000 0.0000
# 4 0.0000 -0.0002 -0.0013-2499.6965 -0.0007 0.0001
# 5 0.0000 0.0000 0.0000 -0.0007 8.4559 0.0000
# 6 0.0000 0.0000 0.0000 0.0001 0.0000 11.8482
#
#
#
# Elastic Compliance Matrix: (Units=1/GPa)
#
#
# Indices 1 2 3 4 5 6 
#
# 1 0.009453 -0.002904 -0.002445 0.000000 0.000000 0.000000
# 2 -0.002904 0.010799 -0.002931 0.000000 0.000000 0.000000
# 3 -0.002445 -0.002931 0.009095 0.000000 0.000000 0.000000
# 4 0.000000 0.000000 0.000000 -0.000400 0.000000 0.000000
# 5 0.000000 0.000000 0.000000 0.000000 0.118261 0.000000
# 6 0.000000 0.000000 0.000000 0.000000 0.000000 0.084401
#
#
# Mechanical properties :
#
#
# Convention : Reuss Voigt Hill
#
# Bulk Modulus (GPa) = 78.22239 78.60258 78.41249
# Shear Modulus (GPa) = 19.80733 -479.82576 -230.00922
#
# Velocity S-wave (km/s) = 3.26560 -16.07280 -11.12813
# Velocity P-wave (km/s) = 7.50555 17.38181 11.08590
#
# Compressibility (1/GPa) = 0.01278406
#
# Stress axis : x y z
#
# Youngs Moduli (GPa) = 105.79114 92.60280 109.95244
#
# Poissons Ratio (x) = 0.26895 0.26887
# Poissons Ratio (y) = 0.30726 0.32231
# Poissons Ratio (z) = 0.25869 0.27146
#
# Static dielectric constant tensor:
#      x y z
#    x 3.364100 0.000000 0.000000 
#    y 0.000000 3.355920 0.000000 
#    z 0.000000 0.000000 3.770140 
# 
# 
# High freq. dielectric constant tensor:
#      x y z
#    x 1.721470 0.000000 0.000000 
#    y 0.000000 1.711450 0.000000 
#    z 0.000000 0.000000 1.747250 
# 
# From -- ./inp_files/11582.got.cif
#   From: 2010.03.12/outbox.cif.g09.slc.cpg/sg69_6_cif.got.tgz:11582.got - 2010.04.10 23:52:46.
