data_PCOD8285903
_publ_section_title
;
Structure prediction by ZEFSAII (Michael W. Deem and Ramdas Pophale) SiO2 
 PCOD8285903
Probable space group: F D D D
;
_chemical_formula_sum "Si O2"
_cell_formula_units_Z 144
_cell_length_a 16.624418
_cell_length_b 20.630255
_cell_length_c 20.555554
_cell_angle_alpha 90.000000
_cell_angle_beta 90.000000
_cell_angle_gamma 90.000000
_cell_volume 7049.855775
_symmetry_space_group_name_H-M "F D D D"
_symmetry_group_IT_number 70
_space_group.IT_coordinate_system_code '2'
_symmetry_cell_setting 'orthorhombic'
loop_
_space_group_symop_operation_xyz
x,y,z
1/4-x,1/4-y,z
x,1/4-y,1/4-z
1/4-x,y,1/4-z
-x,-y,-z
3/4+x,3/4+y,-z
-x,3/4+y,3/4+z
3/4+x,-y,3/4+z
x,1/2+y,1/2+z
1/4-x,3/4-y,1/2+z
x,3/4-y,3/4-z
1/4-x,1/2+y,3/4-z
-x,1/2-y,1/2-z
3/4+x,1/4+y,1/2-z
-x,1/4+y,1/4+z
3/4+x,1/2-y,1/4+z
1/2+x,y,1/2+z
3/4-x,1/4-y,1/2+z
1/2+x,1/4-y,3/4-z
3/4-x,y,3/4-z
1/2-x,-y,1/2-z
1/4+x,3/4+y,1/2-z
1/2-x,3/4+y,1/4+z
1/4+x,-y,1/4+z
1/2+x,1/2+y,z
3/4-x,3/4-y,z
1/2+x,3/4-y,1/4-z
3/4-x,1/2+y,1/4-z
1/2-x,1/2-y,-z
1/4+x,1/4+y,-z
1/2-x,1/4+y,3/4+z
1/4+x,1/2-y,3/4+z
loop_
_atom_site_type_symbol
_atom_site_label
_atom_site_fract_x
_atom_site_fract_y
_atom_site_fract_z
Si Si1 0.404823 0.529729 0.067104
Si Si2 0.216185 0.875000 0.875000
Si Si3 0.599510 0.551488 0.436711
Si Si4 0.410724 0.804591 0.307566
Si Si5 0.563904 0.241777 0.178933
O O1 0.339741 0.586796 0.073799
O O2 0.399075 0.481771 0.128809
O O3 0.493182 0.560404 0.063533
O O4 0.384404 0.492138 0.000824
O O5 0.272698 0.922301 0.833883
O O6 0.625000 0.625000 0.442337
O O7 0.614894 0.512882 0.504245
O O8 0.503114 0.547838 0.427588
O O9 0.375000 0.776698 0.375000
O O10 0.375000 0.875000 0.292617
O O11 0.625000 0.263917 0.125000
#
# Coordination Sequence:
#
# PCOD8285903 Si02
#       5
#    32  16  32  32  32
#     4  10  22  38  59  87 117 154 196 240 297 347
#     4  10  19  36  61  86 118 154 190 240 295 354
#     4  10  21  38  59  86 116 148 191 242 289 346
#     4  10  21  39  60  83 117 159 200 245 292 346
#     4  10  21  37  59  84 115 154 191 234 292 351
#
# _framework density 20.425948999999999
#
# number of rings (size 3 to 8) (size 9 to 14) (size 15 to 20)
#    0.000    2.000    0.000    3.667    0.000    5.333 
#    0.000   18.889    0.000    0.000    0.000    0.000 
#    0.000    0.000    0.000    0.000    0.000    0.000 
#
# Total GULP energy -446395.660161 kJ/mol
# GULP energy per Si atom -12399.879449 kJ/mol
# Density = 2.037946 g / cm^3
# Si number density = 20.425949 Si / 1000 Ang^3
#
#
#
# Elastic Constant Matrix: (Units=GPa)
#
#
# Indices 1 2 3 4 5 6 
#
# 1 61.4066 51.5082 56.0280 0.0000 0.0000 0.0000
# 2 51.5082 87.5577 42.8772 0.0000 0.0000 0.0000
# 3 56.0280 42.8772 160.5570 0.0000 0.0000 0.0000
# 4 0.0000 0.0000 0.0000 25.6924 0.0000 0.0000
# 5 0.0000 0.0000 0.0000 0.0000 30.5251 0.0000
# 6 0.0000 0.0000 0.0000 0.0000 0.0000 44.7567
#
#
#
# Elastic Compliance Matrix: (Units=1/GPa)
#
#
# Indices 1 2 3 4 5 6 
#
# 1 0.041142 -0.019756 -0.009081 0.000000 0.000000 0.000000
# 2 -0.019756 0.022626 0.000852 0.000000 0.000000 0.000000
# 3 -0.009081 0.000852 0.009170 0.000000 0.000000 0.000000
# 4 0.000000 0.000000 0.000000 0.038922 0.000000 0.000000
# 5 0.000000 0.000000 0.000000 0.000000 0.032760 0.000000
# 6 0.000000 0.000000 0.000000 0.000000 0.000000 0.022343
#
#
# Mechanical properties :
#
#
# Convention : Reuss Voigt Hill
#
# Bulk Modulus (GPa) = 58.93725 67.81644 63.37685
# Shear Modulus (GPa) = 21.87338 30.80202 26.33770
#
# Velocity S-wave (km/s) = 3.27595 3.88749 3.59475
# Velocity P-wave (km/s) = 6.57464 7.30912 6.95159
#
# Compressibility (1/GPa) = 0.01696720
#
# Stress axis : x y z
#
# Youngs Moduli (GPa) = 24.30621 44.19726 109.05393
#
# Poissons Ratio (x) = 0.87315 0.99032
# Poissons Ratio (y) = 0.48019 -0.09288
# Poissons Ratio (z) = 0.22072 -0.03764
#
# Static dielectric constant tensor:
#      x y z
#    x 3.767110 0.000000 0.000000 
#    y 0.000000 3.567110 0.000000 
#    z 0.000000 0.000000 3.999130 
# 
# 
# High freq. dielectric constant tensor:
#      x y z
#    x 1.803540 0.000000 0.000000 
#    y 0.000000 1.787510 0.000000 
#    z 0.000000 0.000000 1.815360 
# 
# From -- ./inp_files/37349.got.cif
#   From: 2010.03.12/outbox.cif.g09.slc.cpg/sg70_19_cif.got.tgz:37349.got - 2010.04.16 13:46:32.
