data_PCOD8285055
_publ_section_title
;
Structure prediction by ZEFSAII (Michael W. Deem and Ramdas Pophale) SiO2 
 PCOD8285055
Probable space group: F M M M
;
_chemical_formula_sum "Si O2"
_cell_formula_units_Z 128
_cell_length_a 9.306119
_cell_length_b 25.192048
_cell_length_c 27.188956
_cell_angle_alpha 90.000000
_cell_angle_beta 90.000000
_cell_angle_gamma 90.000000
_cell_volume 6374.184188
_symmetry_space_group_name_H-M "F M M M"
_symmetry_group_IT_number 69
_symmetry_cell_setting 'orthorhombic'
loop_
_space_group_symop_operation_xyz
x,y,z
-x,-y,z
x,-y,-z
-x,y,-z
-x,-y,-z
x,y,-z
-x,y,z
x,-y,z
x,1/2+y,1/2+z
-x,1/2-y,1/2+z
x,1/2-y,1/2-z
-x,1/2+y,1/2-z
-x,1/2-y,1/2-z
x,1/2+y,1/2-z
-x,1/2+y,1/2+z
x,1/2-y,1/2+z
1/2+x,y,1/2+z
1/2-x,-y,1/2+z
1/2+x,-y,1/2-z
1/2-x,y,1/2-z
1/2-x,-y,1/2-z
1/2+x,y,1/2-z
1/2-x,y,1/2+z
1/2+x,-y,1/2+z
1/2+x,1/2+y,z
1/2-x,1/2-y,z
1/2+x,1/2-y,-z
1/2-x,1/2+y,-z
1/2-x,1/2-y,-z
1/2+x,1/2+y,-z
1/2-x,1/2+y,z
1/2+x,1/2-y,z
loop_
_atom_site_type_symbol
_atom_site_label
_atom_site_fract_x
_atom_site_fract_y
_atom_site_fract_z
Si Si1 0.500000 0.824409 0.894819
Si Si2 0.500000 0.282688 0.056451
Si Si3 0.265413 0.139623 0.556530
Si Si4 0.000000 0.439919 0.417540
Si Si5 0.250000 0.874891 0.250000
Si Si6 0.000000 0.561006 0.301467
Si Si7 0.500000 0.302168 0.285655
O O1 0.500000 0.779788 0.936880
O O2 0.634665 0.862891 0.904759
O O3 0.500000 0.790656 0.844002
O O4 0.643044 0.310367 0.077422
O O5 0.500000 0.298779 0.000000
O O6 0.213272 0.146880 0.500000
O O7 0.357307 0.086166 0.560203
O O8 0.000000 0.434484 0.359361
O O9 0.000000 0.500000 0.435355
O O10 0.147479 0.911401 0.216507
O O11 0.356117 0.836472 0.220288
O O12 0.000000 0.500000 0.283280
O O13 0.500000 0.250000 0.250000
#
# Coordination Sequence:
#
# PCOD8285055 Si02
#       7
#    16  16  32  16  16  16  16
#     4  12  22  35  57  84 114 147 185 238 284 331
#     4   9  19  34  53  79 110 146 185 225 274 336
#     4  10  21  36  56  83 113 148 190 233 284 341
#     4  10  21  38  60  83 112 152 196 237 285 352
#     4  10  22  40  58  80 116 148 188 246 290 338
#     4  10  20  37  62  88 110 144 193 246 304 350
#     4  11  25  39  55  81 115 156 194 228 283 351
#
# _framework density 20.081001000000001
#
# number of rings (size 3 to 8) (size 9 to 14) (size 15 to 20)
#    0.000    1.750    0.000    5.250    0.000   11.000 
#    0.000    0.625    0.000    6.000    0.000    0.000 
#    0.000    0.000    0.000    0.000    0.000    0.000 
#
# Total GULP energy -396577.384734 kJ/mol
# GULP energy per Si atom -12393.043273 kJ/mol
# Density = 2.003530 g / cm^3
# Si number density = 20.081001 Si / 1000 Ang^3
#
#
#
# Elastic Constant Matrix: (Units=GPa)
#
#
# Indices 1 2 3 4 5 6 
#
# 1 149.8076 53.1344 42.7091 0.0000 0.0000 0.0000
# 2 53.1344 124.2864 29.9215 0.0000 0.0000 0.0000
# 3 42.7091 29.9215 86.6340 0.0000 0.0000 0.0000
# 4 0.0000 0.0000 0.0000 30.3143 0.0000 0.0000
# 5 0.0000 0.0000 0.0000 0.0000 23.2861 0.0000
# 6 0.0000 0.0000 0.0000 0.0000 0.0000 4.9711
#
#
#
# Elastic Compliance Matrix: (Units=1/GPa)
#
#
# Indices 1 2 3 4 5 6 
#
# 1 0.008634 -0.002908 -0.003252 0.000000 0.000000 0.000000
# 2 -0.002908 0.009755 -0.001936 0.000000 0.000000 0.000000
# 3 -0.003252 -0.001936 0.013814 0.000000 0.000000 0.000000
# 4 0.000000 0.000000 0.000000 0.032988 0.000000 0.000000
# 5 0.000000 0.000000 0.000000 0.000000 0.042944 0.000000
# 6 0.000000 0.000000 0.000000 0.000000 0.000000 0.201163
#
#
# Mechanical properties :
#
#
# Convention : Reuss Voigt Hill
#
# Bulk Modulus (GPa) = 62.45247 68.02866 65.24057
# Shear Modulus (GPa) = 15.11365 27.37851 21.24608
#
# Velocity S-wave (km/s) = 2.74639 3.69644 3.25625
# Velocity P-wave (km/s) = 6.42065 7.22280 6.83350
#
# Compressibility (1/GPa) = 0.01601218
#
# Stress axis : x y z
#
# Youngs Moduli (GPa) = 115.82363 102.50930 72.38804
#
# Poissons Ratio (x) = 0.29812 0.23540
# Poissons Ratio (y) = 0.33684 0.14011
# Poissons Ratio (z) = 0.37665 0.19841
#
# Static dielectric constant tensor:
#      x y z
#    x 3.950070 0.000000 0.000000 
#    y 0.000000 3.594130 0.000000 
#    z 0.000000 0.000000 3.498980 
# 
# 
# High freq. dielectric constant tensor:
#      x y z
#    x 1.798380 0.000000 0.000000 
#    y 0.000000 1.774030 0.000000 
#    z 0.000000 0.000000 1.780220 
# 
# From -- ./inp_files/4937.got.cif
#   From: 2010.03.12/outbox.cif.g09.slc.cpg/sg69_3_cif.got.tgz:4937.got - 2010.04.10 23:52:46.
