data_PCOD8285989
_publ_section_title
;
Structure prediction by ZEFSAII (Michael W. Deem and Ramdas Pophale) SiO2 
 PCOD8285989
Probable space group: F D D D
;
_chemical_formula_sum "Si O2"
_cell_formula_units_Z 160
_cell_length_a 8.366490
_cell_length_b 26.413760
_cell_length_c 36.893110
_cell_angle_alpha 90.000000
_cell_angle_beta 90.000000
_cell_angle_gamma 90.000000
_cell_volume 8153.025309
_symmetry_space_group_name_H-M "F D D D"
_symmetry_group_IT_number 70
_space_group.IT_coordinate_system_code '2'
_symmetry_cell_setting 'orthorhombic'
loop_
_space_group_symop_operation_xyz
x,y,z
1/4-x,1/4-y,z
x,1/4-y,1/4-z
1/4-x,y,1/4-z
-x,-y,-z
3/4+x,3/4+y,-z
-x,3/4+y,3/4+z
3/4+x,-y,3/4+z
x,1/2+y,1/2+z
1/4-x,3/4-y,1/2+z
x,3/4-y,3/4-z
1/4-x,1/2+y,3/4-z
-x,1/2-y,1/2-z
3/4+x,1/4+y,1/2-z
-x,1/4+y,1/4+z
3/4+x,1/2-y,1/4+z
1/2+x,y,1/2+z
3/4-x,1/4-y,1/2+z
1/2+x,1/4-y,3/4-z
3/4-x,y,3/4-z
1/2-x,-y,1/2-z
1/4+x,3/4+y,1/2-z
1/2-x,3/4+y,1/4+z
1/4+x,-y,1/4+z
1/2+x,1/2+y,z
3/4-x,3/4-y,z
1/2+x,3/4-y,1/4-z
3/4-x,1/2+y,1/4-z
1/2-x,1/2-y,-z
1/4+x,1/4+y,-z
1/2-x,1/4+y,3/4+z
1/4+x,1/2-y,3/4+z
loop_
_atom_site_type_symbol
_atom_site_label
_atom_site_fract_x
_atom_site_fract_y
_atom_site_fract_z
Si Si1 0.625000 0.125000 0.125000
Si Si2 0.355859 0.154003 0.755164
Si Si3 0.125000 0.625000 0.625000
Si Si4 0.196830 0.784584 0.163790
Si Si5 0.375000 0.875000 0.195030
Si Si6 0.966301 0.951697 0.523144
Si Si7 0.121465 0.933476 0.327861
O O1 0.720810 0.090681 0.097346
O O2 0.515054 0.160139 0.779096
O O3 0.222548 0.189545 0.774195
O O4 0.306170 0.095439 0.755076
O O5 0.389713 0.168417 0.713887
O O6 0.224097 0.663730 0.599721
O O7 0.274540 0.839562 0.168407
O O8 0.336475 0.743572 0.171746
O O9 0.125000 0.775802 0.125000
O O10 0.037738 0.783181 0.188227
O O11 0.000000 0.000000 0.500000
#
# Coordination Sequence:
#
# PCOD8285989 Si02
#       7
#     8  32   8  32  16  32  32
#     4  10  20  34  64  90 124 158 202 266 316 382
#     4  10  21  39  64  90 122 164 212 268 319 374
#     4  10  26  38  56 100 136 166 198 254 344 400
#     4  11  24  43  65  92 125 170 214 265 324 383
#     4  10  25  44  58  92 130 166 216 264 321 385
#     4  10  20  38  64  95 119 162 215 261 317 384
#     4  11  21  41  62  93 128 163 209 262 324 390
#
# _framework density 19.624617000000001
#
# number of rings (size 3 to 8) (size 9 to 14) (size 15 to 20)
#    0.000    1.600    3.000    1.800    0.000    4.000 
#    9.000    0.000    0.000    0.000    0.000    0.000 
#    0.000    0.000    0.000    0.000    0.000    0.000 
#
# Total GULP energy -495825.187756 kJ/mol
# GULP energy per Si atom -12395.629694 kJ/mol
# Density = 1.957995 g / cm^3
# Si number density = 19.624617 Si / 1000 Ang^3
#
#
#
# Elastic Constant Matrix: (Units=GPa)
#
#
# Indices 1 2 3 4 5 6 
#
# 1 114.4071 37.1750 40.9007 0.0000 0.0000 0.0000
# 2 37.1750 98.2931 51.2174 0.0000 0.0000 0.0000
# 3 40.9007 51.2174 111.0435 0.0000 0.0000 0.0000
# 4 0.0000 0.0000 0.0000 28.5885 0.0000 0.0000
# 5 0.0000 0.0000 0.0000 0.0000 5.6258 0.0000
# 6 0.0000 0.0000 0.0000 0.0000 0.0000 26.5431
#
#
#
# Elastic Compliance Matrix: (Units=1/GPa)
#
#
# Indices 1 2 3 4 5 6 
#
# 1 0.010543 -0.002585 -0.002691 0.000000 0.000000 0.000000
# 2 -0.002585 0.014026 -0.005517 0.000000 0.000000 0.000000
# 3 -0.002691 -0.005517 0.012541 0.000000 0.000000 0.000000
# 4 0.000000 0.000000 0.000000 0.034979 0.000000 0.000000
# 5 0.000000 0.000000 0.000000 0.000000 0.177752 0.000000
# 6 0.000000 0.000000 0.000000 0.000000 0.000000 0.037675
#
#
# Mechanical properties :
#
#
# Convention : Reuss Voigt Hill
#
# Bulk Modulus (GPa) = 64.41716 64.70333 64.56025
# Shear Modulus (GPa) = 15.90955 25.11487 20.51221
#
# Velocity S-wave (km/s) = 2.85036 3.58126 3.23651
# Velocity P-wave (km/s) = 6.61276 7.08115 6.85096
#
# Compressibility (1/GPa) = 0.01552381
#
# Stress axis : x y z
#
# Youngs Moduli (GPa) = 94.85223 71.29491 79.73635
#
# Poissons Ratio (x) = 0.18431 0.21455
# Poissons Ratio (y) = 0.24521 0.43992
# Poissons Ratio (z) = 0.25523 0.39335
#
# Static dielectric constant tensor:
#      x y z
#    x 3.626030 0.000000 0.000000 
#    y 0.000000 3.717410 0.000000 
#    z 0.000000 0.000000 2.958210 
# 
# 
# High freq. dielectric constant tensor:
#      x y z
#    x 1.768130 0.000000 0.000000 
#    y 0.000000 1.772270 0.000000 
#    z 0.000000 0.000000 1.770520 
# 
# From -- ./inp_files/63965.got.cif
#   From: 2010.03.12/outbox.cif.g09.slc.cpg/sg70_32_cif.got.tgz:63965.got - 2010.04.16 13:46:32.
