data_PCOD8285980
_publ_section_title
;
Structure prediction by ZEFSAII (Michael W. Deem and Ramdas Pophale) SiO2 
 PCOD8285980
Probable space group: F D D D
;
_chemical_formula_sum "Si O2"
_cell_formula_units_Z 160
_cell_length_a 10.549226
_cell_length_b 26.232839
_cell_length_c 31.284171
_cell_angle_alpha 90.000000
_cell_angle_beta 90.000000
_cell_angle_gamma 90.000000
_cell_volume 8657.460952
_symmetry_space_group_name_H-M "F D D D"
_symmetry_group_IT_number 70
_space_group.IT_coordinate_system_code '2'
_symmetry_cell_setting 'orthorhombic'
loop_
_space_group_symop_operation_xyz
x,y,z
1/4-x,1/4-y,z
x,1/4-y,1/4-z
1/4-x,y,1/4-z
-x,-y,-z
3/4+x,3/4+y,-z
-x,3/4+y,3/4+z
3/4+x,-y,3/4+z
x,1/2+y,1/2+z
1/4-x,3/4-y,1/2+z
x,3/4-y,3/4-z
1/4-x,1/2+y,3/4-z
-x,1/2-y,1/2-z
3/4+x,1/4+y,1/2-z
-x,1/4+y,1/4+z
3/4+x,1/2-y,1/4+z
1/2+x,y,1/2+z
3/4-x,1/4-y,1/2+z
1/2+x,1/4-y,3/4-z
3/4-x,y,3/4-z
1/2-x,-y,1/2-z
1/4+x,3/4+y,1/2-z
1/2-x,3/4+y,1/4+z
1/4+x,-y,1/4+z
1/2+x,1/2+y,z
3/4-x,3/4-y,z
1/2+x,3/4-y,1/4-z
3/4-x,1/2+y,1/4-z
1/2-x,1/2-y,-z
1/4+x,1/4+y,-z
1/2-x,1/4+y,3/4+z
1/4+x,1/2-y,3/4+z
loop_
_atom_site_type_symbol
_atom_site_label
_atom_site_fract_x
_atom_site_fract_y
_atom_site_fract_z
Si Si1 0.253079 0.674374 0.148750
Si Si2 0.861797 0.974380 0.131268
Si Si3 0.875000 0.375000 0.773317
Si Si4 0.477683 0.046130 0.969226
Si Si5 0.875000 0.570953 0.375000
Si Si6 0.500614 0.101467 0.815004
O O1 0.313561 0.625000 0.125000
O O2 0.125000 0.690631 0.125000
O O3 0.346775 0.722322 0.144685
O O4 0.217637 0.660416 0.197692
O O5 0.786504 0.973529 0.175282
O O6 0.807212 0.927347 0.105443
O O7 0.010432 0.965811 0.139006
O O8 0.791262 0.405787 0.740480
O O9 0.329398 0.061860 0.963803
O O10 0.500000 0.000000 0.000000
O O11 0.841898 0.604709 0.333251
O O12 0.625000 0.125000 0.790245
#
# Coordination Sequence:
#
# PCOD8285980 Si02
#       6
#    32  32  16  32  16  32
#     4   9  18  36  55  76 106 148 185 221 270 337
#     4  11  20  35  58  78 109 143 191 224 279 339
#     4  10  21  32  54  82 114 136 180 236 280 320
#     4  12  21  33  56  86 110 141 187 238 287 339
#     4  10  20  34  55  84 101 138 184 238 264 328
#     4  10  20  35  55  79 110 142 181 229 284 337
#
# _framework density 18.481169999999999
#
# number of rings (size 3 to 8) (size 9 to 14) (size 15 to 20)
#    0.000    1.800    2.000    6.000    1.400    0.000 
#    0.000    2.500    0.000    7.200    0.000    0.000 
#    0.000    0.000    0.000    0.000    0.000    0.000 
#
# Total GULP energy -495793.813103 kJ/mol
# GULP energy per Si atom -12394.845328 kJ/mol
# Density = 1.843911 g / cm^3
# Si number density = 18.481170 Si / 1000 Ang^3
#
#
#
# Elastic Constant Matrix: (Units=GPa)
#
#
# Indices 1 2 3 4 5 6 
#
# 1 124.1860 66.5150 32.7341 0.0000 0.0000 0.0000
# 2 66.5150 100.8231 26.4026 0.0000 0.0000 0.0000
# 3 32.7341 26.4026 66.8445 0.0000 0.0000 0.0000
# 4 0.0000 0.0000 0.0000 28.9732 0.0000 0.0000
# 5 0.0000 0.0000 0.0000 0.0000 17.8787 0.0000
# 6 0.0000 0.0000 0.0000 0.0000 0.0000 25.7715
#
#
#
# Elastic Compliance Matrix: (Units=1/GPa)
#
#
# Indices 1 2 3 4 5 6 
#
# 1 0.013091 -0.007760 -0.003345 0.000000 0.000000 0.000000
# 2 -0.007760 0.015663 -0.002386 0.000000 0.000000 0.000000
# 3 -0.003345 -0.002386 0.017541 0.000000 0.000000 0.000000
# 4 0.000000 0.000000 0.000000 0.034515 0.000000 0.000000
# 5 0.000000 0.000000 0.000000 0.000000 0.055932 0.000000
# 6 0.000000 0.000000 0.000000 0.000000 0.000000 0.038803
#
#
# Mechanical properties :
#
#
# Convention : Reuss Voigt Hill
#
# Bulk Modulus (GPa) = 51.78525 60.35078 56.06802
# Shear Modulus (GPa) = 23.92749 25.60481 24.76615
#
# Velocity S-wave (km/s) = 3.60209 3.72621 3.66467
# Velocity P-wave (km/s) = 6.73658 7.15814 6.95056
#
# Compressibility (1/GPa) = 0.01931052
#
# Stress axis : x y z
#
# Youngs Moduli (GPa) = 76.39073 63.84572 57.00938
#
# Poissons Ratio (x) = 0.49545 0.19072
# Poissons Ratio (y) = 0.59280 0.13605
# Poissons Ratio (z) = 0.25556 0.15236
#
# Static dielectric constant tensor:
#      x y z
#    x 3.797510 0.000000 0.000000 
#    y 0.000000 3.695790 0.000000 
#    z 0.000000 0.000000 2.492080 
# 
# 
# High freq. dielectric constant tensor:
#      x y z
#    x 1.703790 0.000000 0.000000 
#    y 0.000000 1.729870 0.000000 
#    z 0.000000 0.000000 1.698690 
# 
# From -- ./inp_files/12359.got.cif
#   From: 2010.03.12/outbox.cif.g09.slc.cpg/sg70_7_cif.got.tgz:12359.got - 2010.04.16 13:46:32.
