data_PCOD8285399
_publ_section_title
;
Structure prediction by ZEFSAII (Michael W. Deem and Ramdas Pophale) SiO2 
 PCOD8285399
Probable space group: F M M M
;
_chemical_formula_sum "Si O2"
_cell_formula_units_Z 160
_cell_length_a 21.523683
_cell_length_b 18.510968
_cell_length_c 18.679523
_cell_angle_alpha 90.000000
_cell_angle_beta 90.000000
_cell_angle_gamma 90.000000
_cell_volume 7442.374143
_symmetry_space_group_name_H-M "F M M M"
_symmetry_group_IT_number 69
_symmetry_cell_setting 'orthorhombic'
loop_
_space_group_symop_operation_xyz
x,y,z
-x,-y,z
x,-y,-z
-x,y,-z
-x,-y,-z
x,y,-z
-x,y,z
x,-y,z
x,1/2+y,1/2+z
-x,1/2-y,1/2+z
x,1/2-y,1/2-z
-x,1/2+y,1/2-z
-x,1/2-y,1/2-z
x,1/2+y,1/2-z
-x,1/2+y,1/2+z
x,1/2-y,1/2+z
1/2+x,y,1/2+z
1/2-x,-y,1/2+z
1/2+x,-y,1/2-z
1/2-x,y,1/2-z
1/2-x,-y,1/2-z
1/2+x,y,1/2-z
1/2-x,y,1/2+z
1/2+x,-y,1/2+z
1/2+x,1/2+y,z
1/2-x,1/2-y,z
1/2+x,1/2-y,-z
1/2-x,1/2+y,-z
1/2-x,1/2-y,-z
1/2+x,1/2+y,-z
1/2-x,1/2+y,z
1/2+x,1/2-y,z
loop_
_atom_site_type_symbol
_atom_site_label
_atom_site_fract_x
_atom_site_fract_y
_atom_site_fract_z
Si Si1 0.772264 0.329881 0.918658
Si Si2 0.067923 0.000000 0.915120
Si Si3 0.570302 0.175726 0.290427
Si Si4 0.621278 0.086870 0.834032
Si Si5 0.000000 0.585153 0.920877
Si Si6 0.863652 0.140044 0.080477
O O1 0.750000 0.250000 0.892897
O O2 0.820143 0.369853 0.866725
O O3 0.709364 0.376228 0.917303
O O4 0.799387 0.325250 0.000000
O O5 0.103936 0.069192 0.888051
O O6 0.000000 0.000000 0.880504
O O7 0.065328 0.000000 0.000000
O O8 0.500000 0.148727 0.307307
O O9 0.567065 0.250000 0.250000
O O10 0.608217 0.114426 0.246204
O O11 0.609232 0.197415 0.362687
O O12 0.561332 0.110456 0.879690
O O13 0.633100 0.000000 0.835143
O O14 0.000000 0.500000 0.927018
O O15 0.000000 0.620070 0.000000
O O16 0.884398 0.161812 0.000000
#
# Coordination Sequence:
#
# PCOD8285399 Si02
#       6
#    32  16  32  32  16  32
#     4  10  22  41  66  96 135 179 224 272 328 400
#     4   9  18  34  58  89 120 157 209 268 327 375
#     4  11  24  42  65  93 136 178 220 275 341 409
#     4  11  23  40  66  98 131 175 223 275 346 405
#     4   9  18  36  61  94 131 167 217 274 326 390
#     4  10  22  40  64  93 128 167 219 274 326 392
#
# _framework density 21.498515999999999
#
# number of rings (size 3 to 8) (size 9 to 14) (size 15 to 20)
#    0.000    1.800    1.000    2.400    2.800    3.200 
#    0.000    4.000    0.000    0.000    0.000    0.000 
#    0.000    0.000    0.000    0.000    0.000    0.000 
#
# Total GULP energy -495718.087794 kJ/mol
# GULP energy per Si atom -12392.952195 kJ/mol
# Density = 2.144958 g / cm^3
# Si number density = 21.498516 Si / 1000 Ang^3
#
#
#
# Elastic Constant Matrix: (Units=GPa)
#
#
# Indices 1 2 3 4 5 6 
#
# 1 139.6517 48.1571 63.7994 0.0000 0.0000 0.0000
# 2 48.1571 81.9046 24.8021 0.0000 0.0000 0.0000
# 3 63.7994 24.8021 142.1870 0.0000 0.0000 0.0000
# 4 0.0000 0.0000 0.0000 25.4406 0.0000 0.0000
# 5 0.0000 0.0000 0.0000 0.0000 32.0252 0.0000
# 6 0.0000 0.0000 0.0000 0.0000 0.0000 37.8070
#
#
#
# Elastic Compliance Matrix: (Units=1/GPa)
#
#
# Indices 1 2 3 4 5 6 
#
# 1 0.010712 -0.005113 -0.003915 0.000000 0.000000 0.000000
# 2 -0.005113 0.015331 -0.000380 0.000000 0.000000 0.000000
# 3 -0.003915 -0.000380 0.008856 0.000000 0.000000 0.000000
# 4 0.000000 0.000000 0.000000 0.039307 0.000000 0.000000
# 5 0.000000 0.000000 0.000000 0.000000 0.031225 0.000000
# 6 0.000000 0.000000 0.000000 0.000000 0.000000 0.026450
#
#
# Mechanical properties :
#
#
# Convention : Reuss Voigt Hill
#
# Bulk Modulus (GPa) = 62.17614 70.80674 66.49144
# Shear Modulus (GPa) = 32.03938 34.18687 33.11312
#
# Velocity S-wave (km/s) = 3.86464 3.99205 3.92886
# Velocity P-wave (km/s) = 6.99270 7.36585 7.18170
#
# Compressibility (1/GPa) = 0.01608334
#
# Stress axis : x y z
#
# Youngs Moduli (GPa) = 93.35112 65.22883 112.92031
#
# Poissons Ratio (x) = 0.33351 0.44205
# Poissons Ratio (y) = 0.47730 0.04291
# Poissons Ratio (z) = 0.36544 0.02479
#
# Static dielectric constant tensor:
#      x y z
#    x 4.067160 0.000000 0.000000 
#    y 0.000000 3.991760 0.000000 
#    z 0.000000 0.000000 3.974560 
# 
# 
# High freq. dielectric constant tensor:
#      x y z
#    x 1.850530 0.000000 0.000000 
#    y 0.000000 1.835640 0.000000 
#    z 0.000000 0.000000 1.848180 
# 
# From -- ./inp_files/31766.got.cif
#   From: 2010.03.12/outbox.cif.g09.slc.cpg/sg69_16_cif.got.tgz:31766.got - 2010.04.10 23:52:46.
