data_PCOD8285184
_publ_section_title
;
Structure prediction by ZEFSAII (Michael W. Deem and Ramdas Pophale) SiO2 
 PCOD8285184
Probable space group: F M M M
;
_chemical_formula_sum "Si O2"
_cell_formula_units_Z 128
_cell_length_a 9.524883
_cell_length_b 25.981541
_cell_length_c 26.899188
_cell_angle_alpha 90.000000
_cell_angle_beta 90.000000
_cell_angle_gamma 90.000000
_cell_volume 6656.772671
_symmetry_space_group_name_H-M "F M M M"
_symmetry_group_IT_number 69
_symmetry_cell_setting 'orthorhombic'
loop_
_space_group_symop_operation_xyz
x,y,z
-x,-y,z
x,-y,-z
-x,y,-z
-x,-y,-z
x,y,-z
-x,y,z
x,-y,z
x,1/2+y,1/2+z
-x,1/2-y,1/2+z
x,1/2-y,1/2-z
-x,1/2+y,1/2-z
-x,1/2-y,1/2-z
x,1/2+y,1/2-z
-x,1/2+y,1/2+z
x,1/2-y,1/2+z
1/2+x,y,1/2+z
1/2-x,-y,1/2+z
1/2+x,-y,1/2-z
1/2-x,y,1/2-z
1/2-x,-y,1/2-z
1/2+x,y,1/2-z
1/2-x,y,1/2+z
1/2+x,-y,1/2+z
1/2+x,1/2+y,z
1/2-x,1/2-y,z
1/2+x,1/2-y,-z
1/2-x,1/2+y,-z
1/2-x,1/2-y,-z
1/2+x,1/2+y,-z
1/2-x,1/2+y,z
1/2+x,1/2-y,z
loop_
_atom_site_type_symbol
_atom_site_label
_atom_site_fract_x
_atom_site_fract_y
_atom_site_fract_z
Si Si1 0.665322 0.887956 0.801582
Si Si2 0.653872 0.500000 0.703795
Si Si3 0.218869 0.637999 0.401442
Si Si4 0.500000 0.560536 0.941066
Si Si5 0.000000 0.216202 0.940479
Si Si6 0.000000 0.831139 0.557093
O O1 0.500000 0.871969 0.795299
O O2 0.750000 0.881978 0.750000
O O3 0.748645 0.854936 0.842590
O O4 0.676015 0.946175 0.824971
O O5 0.500000 0.500000 0.727370
O O6 0.750000 0.500000 0.750000
O O7 0.135780 0.586144 0.415613
O O8 0.137758 0.688534 0.419417
O O9 0.367148 0.634764 0.428705
O O10 0.500000 0.500000 0.929373
O O11 0.500000 0.571739 0.000000
O O12 0.000000 0.274048 0.918597
O O13 0.000000 0.212486 0.000000
O O14 0.000000 0.819486 0.500000
#
# Coordination Sequence:
#
# PCOD8285184 Si02
#       6
#    32  16  32  16  16  16
#     4  10  21  36  56  84 117 157 200 247 292 345
#     4   8  16  32  50  74 105 140 190 240 277 322
#     4  11  21  37  60  90 118 155 199 246 296 359
#     4  10  23  41  58  84 126 170 202 228 284 369
#     4  10  22  39  62  89 116 153 196 251 312 363
#     4  11  21  38  64  91 116 144 196 263 312 347
#
# _framework density 19.228536999999999
#
# number of rings (size 3 to 8) (size 9 to 14) (size 15 to 20)
#    0.000    1.875    1.250    3.750    5.250    2.000 
#    0.000    0.625    0.000    6.750    0.000    0.000 
#    0.000    0.000    0.000    0.000    0.000    0.000 
#
# Total GULP energy -396487.368941 kJ/mol
# GULP energy per Si atom -12390.230279 kJ/mol
# Density = 1.918477 g / cm^3
# Si number density = 19.228537 Si / 1000 Ang^3
#
#
#
# Elastic Constant Matrix: (Units=GPa)
#
#
# Indices 1 2 3 4 5 6 
#
# 1 159.3523 50.9352 57.9994 0.0000 0.0000 0.0000
# 2 50.9352 83.2511 35.4750 0.0000 0.0000 0.0000
# 3 57.9994 35.4750 115.7561 0.0000 0.0000 0.0000
# 4 0.0000 0.0000 0.0000 12.3673 0.0000 0.0000
# 5 0.0000 0.0000 0.0000 0.0000 40.8235 0.0000
# 6 0.0000 0.0000 0.0000 0.0000 0.0000 14.6332
#
#
#
# Elastic Compliance Matrix: (Units=1/GPa)
#
#
# Indices 1 2 3 4 5 6 
#
# 1 0.008688 -0.003980 -0.003133 0.000000 0.000000 0.000000
# 2 -0.003980 0.015640 -0.002799 0.000000 0.000000 0.000000
# 3 -0.003133 -0.002799 0.011066 0.000000 0.000000 0.000000
# 4 0.000000 0.000000 0.000000 0.080858 0.000000 0.000000
# 5 0.000000 0.000000 0.000000 0.000000 0.024496 0.000000
# 6 0.000000 0.000000 0.000000 0.000000 0.000000 0.068338
#
#
# Mechanical properties :
#
#
# Convention : Reuss Voigt Hill
#
# Bulk Modulus (GPa) = 64.22774 71.90874 68.06824
# Shear Modulus (GPa) = 21.35833 27.82813 24.59323
#
# Velocity S-wave (km/s) = 3.33643 3.80838 3.58019
# Velocity P-wave (km/s) = 6.95105 7.53766 7.25029
#
# Compressibility (1/GPa) = 0.01556960
#
# Stress axis : x y z
#
# Youngs Moduli (GPa) = 115.09939 63.93964 90.36312
#
# Poissons Ratio (x) = 0.25451 0.28314
# Poissons Ratio (y) = 0.45815 0.25289
# Poissons Ratio (z) = 0.36064 0.17894
#
# Static dielectric constant tensor:
#      x y z
#    x 3.763580 0.000000 0.000000 
#    y 0.000000 3.134420 0.000000 
#    z 0.000000 0.000000 3.347510 
# 
# 
# High freq. dielectric constant tensor:
#      x y z
#    x 1.769200 0.000000 0.000000 
#    y 0.000000 1.736360 0.000000 
#    z 0.000000 0.000000 1.734380 
# 
# From -- ./inp_files/44404.got.cif
#   From: 2010.03.12/outbox.cif.g09.slc.cpg/sg69_23_cif.got.tgz:44404.got - 2010.04.10 23:52:46.
