data_PCOD8285248
_publ_section_title
;
Structure prediction by ZEFSAII (Michael W. Deem and Ramdas Pophale) SiO2 
 PCOD8285248
Probable space group: F M M M
;
_chemical_formula_sum "Si O2"
_cell_formula_units_Z 128
_cell_length_a 24.865472
_cell_length_b 27.139511
_cell_length_c 10.304996
_cell_angle_alpha 90.000000
_cell_angle_beta 90.000000
_cell_angle_gamma 90.000000
_cell_volume 6954.190018
_symmetry_space_group_name_H-M "F M M M"
_symmetry_group_IT_number 69
_symmetry_cell_setting 'orthorhombic'
loop_
_space_group_symop_operation_xyz
x,y,z
-x,-y,z
x,-y,-z
-x,y,-z
-x,-y,-z
x,y,-z
-x,y,z
x,-y,z
x,1/2+y,1/2+z
-x,1/2-y,1/2+z
x,1/2-y,1/2-z
-x,1/2+y,1/2-z
-x,1/2-y,1/2-z
x,1/2+y,1/2-z
-x,1/2+y,1/2+z
x,1/2-y,1/2+z
1/2+x,y,1/2+z
1/2-x,-y,1/2+z
1/2+x,-y,1/2-z
1/2-x,y,1/2-z
1/2-x,-y,1/2-z
1/2+x,y,1/2-z
1/2-x,y,1/2+z
1/2+x,-y,1/2+z
1/2+x,1/2+y,z
1/2-x,1/2-y,z
1/2+x,1/2-y,-z
1/2-x,1/2+y,-z
1/2-x,1/2-y,-z
1/2+x,1/2+y,-z
1/2-x,1/2+y,z
1/2+x,1/2-y,z
loop_
_atom_site_type_symbol
_atom_site_label
_atom_site_fract_x
_atom_site_fract_y
_atom_site_fract_z
Si Si1 0.500000 0.053772 0.144683
Si Si2 0.100271 0.895815 0.245483
Si Si3 0.439810 0.443572 0.000000
Si Si4 0.937355 0.793610 0.849130
Si Si5 0.203451 0.556610 0.851760
O O1 0.550765 0.088463 0.166049
O O2 0.500000 0.000000 0.222758
O O3 0.500000 0.036381 0.000000
O O4 0.097060 0.929522 0.119591
O O5 0.097772 0.839179 0.201594
O O6 0.154762 0.906331 0.322871
O O7 0.451134 0.500000 0.000000
O O8 0.500000 0.417402 0.000000
O O9 0.922787 0.750000 0.750000
O O10 0.000000 0.807279 0.839494
O O11 0.922806 0.780626 0.000000
O O12 0.184436 0.500000 0.834205
O O13 0.250000 0.569520 0.750000
O O14 0.223326 0.565422 0.000000
#
# Coordination Sequence:
#
# PCOD8285248 Si02
#       5
#    16  32  16  32  32
#     4  11  22  33  50  81 120 156 188 233 295 360
#     4  12  21  36  57  83 118 154 196 244 293 354
#     4  11  20  30  52  86 120 153 188 227 289 360
#     4  10  21  38  57  83 118 156 200 248 295 353
#     4  10  23  41  60  85 118 158 203 246 293 355
#
# _framework density 18.406169999999999
#
# number of rings (size 3 to 8) (size 9 to 14) (size 15 to 20)
#    0.000    1.250    3.750    3.000    1.750    4.000 
#    0.000    0.000    0.000    0.750    0.000    3.500 
#    0.000    0.000    0.000    0.000    0.000    0.000 
#
# Total GULP energy -396620.323692 kJ/mol
# GULP energy per Si atom -12394.385115 kJ/mol
# Density = 1.836428 g / cm^3
# Si number density = 18.406170 Si / 1000 Ang^3
#
#
#
# Elastic Constant Matrix: (Units=GPa)
#
#
# Indices 1 2 3 4 5 6 
#
# 1 94.6371 39.2728 52.0529 -0.0001 0.0001 0.0000
# 2 39.2728 105.1395 55.5468 -0.0003 0.0002 0.0000
# 3 52.0529 55.5468 140.9401 0.0001 -0.0006 -0.0005
# 4 -0.0001 -0.0003 0.0001 31.2922 0.0000 -0.0002
# 5 0.0001 0.0002 -0.0006 0.0000 31.5687 0.0002
# 6 0.0000 0.0000 -0.0005 -0.0002 0.0002 26.4442
#
#
#
# Elastic Compliance Matrix: (Units=1/GPa)
#
#
# Indices 1 2 3 4 5 6 
#
# 1 0.014048 -0.003165 -0.003941 0.000000 0.000000 0.000000
# 2 -0.003165 0.012726 -0.003846 0.000000 0.000000 0.000000
# 3 -0.003941 -0.003846 0.010067 0.000000 0.000000 0.000000
# 4 0.000000 0.000000 0.000000 0.031957 0.000000 0.000000
# 5 0.000000 0.000000 0.000000 0.000000 0.031677 0.000000
# 6 0.000000 0.000000 0.000000 0.000000 0.000000 0.037815
#
#
# Mechanical properties :
#
#
# Convention : Reuss Voigt Hill
#
# Bulk Modulus (GPa) = 66.95616 70.49576 68.72596
# Shear Modulus (GPa) = 30.27145 30.78396 30.52770
#
# Velocity S-wave (km/s) = 4.05981 4.09403 4.07696
# Velocity P-wave (km/s) = 7.64409 7.79303 7.71892
#
# Compressibility (1/GPa) = 0.01493515
#
# Stress axis : x y z
#
# Youngs Moduli (GPa) = 71.18588 78.58179 99.33923
#
# Poissons Ratio (x) = 0.24874 0.39147
# Poissons Ratio (y) = 0.22533 0.38209
# Poissons Ratio (z) = 0.28052 0.30225
#
# Static dielectric constant tensor:
#      x y z
#    x 3.111520 0.000000 0.000000 
#    y 0.000000 3.255980 0.000000 
#    z 0.000000 0.000000 3.704970 
# 
# 
# High freq. dielectric constant tensor:
#      x y z
#    x 1.679020 0.000000 0.000000 
#    y 0.000000 1.700390 0.000000 
#    z 0.000000 0.000000 1.737750 
# 
# From -- ./inp_files/10108.got.cif
#   From: 2010.03.12/outbox.cif.g09.slc.cpg/sg69_6_cif.got.tgz:10108.got - 2010.04.10 23:52:46.
