data_PCOD8285529
_publ_section_title
;
Structure prediction by ZEFSAII (Michael W. Deem and Ramdas Pophale) SiO2 
 PCOD8285529
Probable space group: F M M M
;
_chemical_formula_sum "Si O2"
_cell_formula_units_Z 176
_cell_length_a 27.427110
_cell_length_b 18.397657
_cell_length_c 19.724026
_cell_angle_alpha 90.000000
_cell_angle_beta 90.000000
_cell_angle_gamma 90.000000
_cell_volume 9952.636266
_symmetry_space_group_name_H-M "F M M M"
_symmetry_group_IT_number 69
_symmetry_cell_setting 'orthorhombic'
loop_
_space_group_symop_operation_xyz
x,y,z
-x,-y,z
x,-y,-z
-x,y,-z
-x,-y,-z
x,y,-z
-x,y,z
x,-y,z
x,1/2+y,1/2+z
-x,1/2-y,1/2+z
x,1/2-y,1/2-z
-x,1/2+y,1/2-z
-x,1/2-y,1/2-z
x,1/2+y,1/2-z
-x,1/2+y,1/2+z
x,1/2-y,1/2+z
1/2+x,y,1/2+z
1/2-x,-y,1/2+z
1/2+x,-y,1/2-z
1/2-x,y,1/2-z
1/2-x,-y,1/2-z
1/2+x,y,1/2-z
1/2-x,y,1/2+z
1/2+x,-y,1/2+z
1/2+x,1/2+y,z
1/2-x,1/2-y,z
1/2+x,1/2-y,-z
1/2-x,1/2+y,-z
1/2-x,1/2-y,-z
1/2+x,1/2+y,-z
1/2-x,1/2+y,z
1/2+x,1/2-y,z
loop_
_atom_site_type_symbol
_atom_site_label
_atom_site_fract_x
_atom_site_fract_y
_atom_site_fract_z
Si Si1 0.334433 0.417187 0.135075
Si Si2 0.000000 0.080632 0.919629
Si Si3 0.869106 0.083103 0.710349
Si Si4 0.912568 0.680081 0.578182
Si Si5 0.056280 0.704696 0.181835
Si Si6 0.232945 0.585290 0.819714
O O1 0.344791 0.500000 0.111093
O O2 0.353073 0.406799 0.211685
O O3 0.360778 0.359584 0.086556
O O4 0.276189 0.399731 0.126296
O O5 0.952857 0.123618 0.893641
O O6 0.000000 0.000000 0.887069
O O7 0.000000 0.074517 0.000000
O O8 0.916721 0.128515 0.691849
O O9 0.822654 0.110652 0.663651
O O10 0.882900 0.000000 0.694859
O O11 0.921235 0.700131 0.500000
O O12 0.916906 0.753585 0.620768
O O13 0.061206 0.750000 0.250000
O O14 0.000000 0.689794 0.163235
O O15 0.228025 0.500000 0.805920
O O16 0.250000 0.623440 0.750000
#
# Coordination Sequence:
#
# PCOD8285529 Si02
#       6
#    32  16  32  32  32  32
#     4   9  16  29  51  80 109 136 169 211 258 315
#     4   9  18  32  49  72 103 141 183 210 239 311
#     4   9  17  32  55  79 103 134 175 221 263 304
#     4  11  21  34  51  74 107 147 177 209 263 321
#     4  11  22  36  52  74 106 142 177 221 270 316
#     4   7  12  25  48  75 102 132 167 209 255 302
#
# _framework density 17.683757
#
# number of rings (size 3 to 8) (size 9 to 14) (size 15 to 20)
#    0.000    2.636    2.727    2.727    0.000    1.455 
#    0.000    0.909    0.000    2.727    0.000    3.818 
#    0.000    0.000    0.000    0.000    0.000    0.000 
#
# Total GULP energy -545163.469320 kJ/mol
# GULP energy per Si atom -12390.078848 kJ/mol
# Density = 1.764351 g / cm^3
# Si number density = 17.683757 Si / 1000 Ang^3
#
#
#
# Elastic Constant Matrix: (Units=GPa)
#
#
# Indices 1 2 3 4 5 6 
#
# 1 110.7064 46.4300 20.6207 0.0000 0.0000 0.0000
# 2 46.4300 77.0747 23.2605 0.0000 0.0000 0.0000
# 3 20.6207 23.2605 47.3142 0.0000 0.0000 0.0000
# 4 0.0000 0.0000 0.0000 17.2234 0.0000 0.0000
# 5 0.0000 0.0000 0.0000 0.0000 15.1684 0.0000
# 6 0.0000 0.0000 0.0000 0.0000 0.0000 13.5070
#
#
#
# Elastic Compliance Matrix: (Units=1/GPa)
#
#
# Indices 1 2 3 4 5 6 
#
# 1 0.012247 -0.006771 -0.002009 0.000000 0.000000 0.000000
# 2 -0.006771 0.018979 -0.006379 0.000000 0.000000 0.000000
# 3 -0.002009 -0.006379 0.025147 0.000000 0.000000 0.000000
# 4 0.000000 0.000000 0.000000 0.058061 0.000000 0.000000
# 5 0.000000 0.000000 0.000000 0.000000 0.065927 0.000000
# 6 0.000000 0.000000 0.000000 0.000000 0.000000 0.074035
#
#
# Mechanical properties :
#
#
# Convention : Reuss Voigt Hill
#
# Bulk Modulus (GPa) = 38.38153 46.19086 42.28619
# Shear Modulus (GPa) = 17.04168 18.83202 17.93685
#
# Velocity S-wave (km/s) = 3.10771 3.26687 3.18828
# Velocity P-wave (km/s) = 5.88461 6.35666 6.12518
#
# Compressibility (1/GPa) = 0.02605420
#
# Stress axis : x y z
#
# Youngs Moduli (GPa) = 81.65307 52.69061 39.76651
#
# Poissons Ratio (x) = 0.35679 0.07987
# Poissons Ratio (y) = 0.55291 0.25368
# Poissons Ratio (z) = 0.16401 0.33612
#
# Static dielectric constant tensor:
#      x y z
#    x 3.666640 0.000000 0.000000 
#    y 0.000000 3.060380 0.000000 
#    z 0.000000 0.000000 2.852680 
# 
# 
# High freq. dielectric constant tensor:
#      x y z
#    x 1.700920 0.000000 0.000000 
#    y 0.000000 1.659470 0.000000 
#    z 0.000000 0.000000 1.634420 
# 
# From -- ./inp_files/27670.got.cif
#   From: 2010.03.12/outbox.cif.g09.slc.cpg/sg69_14_cif.got.tgz:27670.got - 2010.04.10 23:52:46.
