data_PCOD8285126
_publ_section_title
;
Structure prediction by ZEFSAII (Michael W. Deem and Ramdas Pophale) SiO2 
 PCOD8285126
Probable space group: F M M M
;
_chemical_formula_sum "Si O2"
_cell_formula_units_Z 168
_cell_length_a 30.172926
_cell_length_b 9.045315
_cell_length_c 30.172969
_cell_angle_alpha 90.000000
_cell_angle_beta 90.000000
_cell_angle_gamma 90.000000
_cell_volume 8234.915930
_symmetry_space_group_name_H-M "F M M M"
_symmetry_group_IT_number 69
_symmetry_cell_setting 'orthorhombic'
loop_
_space_group_symop_operation_xyz
x,y,z
-x,-y,z
x,-y,-z
-x,y,-z
-x,-y,-z
x,y,-z
-x,y,z
x,-y,z
x,1/2+y,1/2+z
-x,1/2-y,1/2+z
x,1/2-y,1/2-z
-x,1/2+y,1/2-z
-x,1/2-y,1/2-z
x,1/2+y,1/2-z
-x,1/2+y,1/2+z
x,1/2-y,1/2+z
1/2+x,y,1/2+z
1/2-x,-y,1/2+z
1/2+x,-y,1/2-z
1/2-x,y,1/2-z
1/2-x,-y,1/2-z
1/2+x,y,1/2-z
1/2-x,y,1/2+z
1/2+x,-y,1/2+z
1/2+x,1/2+y,z
1/2-x,1/2-y,z
1/2+x,1/2-y,-z
1/2-x,1/2+y,-z
1/2-x,1/2-y,-z
1/2+x,1/2+y,-z
1/2-x,1/2+y,z
1/2+x,1/2-y,z
loop_
_atom_site_type_symbol
_atom_site_label
_atom_site_fract_x
_atom_site_fract_y
_atom_site_fract_z
Si Si1 0.294482 0.324295 0.085824
Si Si2 0.121908 0.669637 0.949908
Si Si3 0.949908 0.330364 0.121908
Si Si4 0.414176 0.175705 0.705518
Si Si5 0.818973 0.836064 0.818973
Si Si6 0.750000 0.250000 0.250000
O O1 0.289151 0.500000 0.083737
O O2 0.250000 0.250000 0.066723
O O3 0.335664 0.273816 0.056303
O O4 0.301519 0.260238 0.135995
O O5 0.135431 0.500000 0.940459
O O6 0.082668 0.721264 0.917332
O O7 0.104543 0.688837 0.000000
O O8 0.940457 0.500000 0.135431
O O9 0.943697 0.226183 0.164336
O O10 0.000000 0.311169 0.104543
O O11 0.433277 0.250000 0.750000
O O12 0.364006 0.239763 0.698480
O O13 0.416263 0.000000 0.710850
O O14 0.781353 0.847102 0.781353
O O15 0.832926 0.000000 0.832926
#
# Coordination Sequence:
#
# PCOD8285126 Si02
#       6
#    32  32  32  32  32   8
#     4  11  22  39  60  88 122 161 205 249 301 363
#     4  10  22  41  65  93 123 158 201 252 312 375
#     4  10  22  41  65  93 123 158 201 252 312 375
#     4  11  22  39  60  88 122 161 205 249 301 363
#     4  10  21  33  51  80 116 156 196 242 294 348
#     4  12  18  36  52  82 120 152 202 256 298 356
#
# _framework density 20.400936999999999
#
# number of rings (size 3 to 8) (size 9 to 14) (size 15 to 20)
#    0.000    1.524    3.810    1.429    0.000    1.905 
#    0.000    1.905    0.000    0.000    0.000    2.667 
#    0.000    0.000    0.000    0.000    0.000    0.000 
#
# Total GULP energy -520804.313351 kJ/mol
# GULP energy per Si atom -12400.102699 kJ/mol
# Density = 2.035450 g / cm^3
# Si number density = 20.400937 Si / 1000 Ang^3
#
#
#
# Elastic Constant Matrix: (Units=GPa)
#
#
# Indices 1 2 3 4 5 6 
#
# 1 122.3827 39.9170 46.2468 0.0000 0.0000 0.0000
# 2 39.9170 85.3038 39.9185 -0.0001 0.0000 0.0001
# 3 46.2468 39.9185 122.3846 0.0000 0.0000 0.0000
# 4 0.0000 -0.0001 0.0000 22.7995 0.0000 0.0000
# 5 0.0000 0.0000 0.0000 0.0000 20.9368 0.0000
# 6 0.0000 0.0001 0.0000 0.0000 0.0000 22.7996
#
#
#
# Elastic Compliance Matrix: (Units=1/GPa)
#
#
# Indices 1 2 3 4 5 6 
#
# 1 0.010376 -0.003565 -0.002758 0.000000 0.000000 0.000000
# 2 -0.003565 0.015059 -0.003565 0.000000 0.000000 0.000000
# 3 -0.002758 -0.003565 0.010376 0.000000 0.000000 0.000000
# 4 0.000000 0.000000 0.000000 0.043861 0.000000 0.000000
# 5 0.000000 0.000000 0.000000 0.000000 0.047763 0.000000
# 6 0.000000 0.000000 0.000000 0.000000 0.000000 0.043860
#
#
# Mechanical properties :
#
#
# Convention : Reuss Voigt Hill
#
# Bulk Modulus (GPa) = 62.36094 64.69288 63.52691
# Shear Modulus (GPa) = 25.45627 26.90646 26.18136
#
# Velocity S-wave (km/s) = 3.53625 3.63558 3.58626
# Velocity P-wave (km/s) = 6.87804 7.02872 6.95379
#
# Compressibility (1/GPa) = 0.01603568
#
# Stress axis : x y z
#
# Youngs Moduli (GPa) = 96.37586 66.40538 96.37629
#
# Poissons Ratio (x) = 0.23671 0.26583
# Poissons Ratio (y) = 0.34354 0.34357
# Poissons Ratio (z) = 0.26583 0.23672
#
# Static dielectric constant tensor:
#      x y z
#    x 3.687760 0.000000 0.000000 
#    y 0.000000 3.416300 0.000000 
#    z 0.000000 0.000000 3.687770 
# 
# 
# High freq. dielectric constant tensor:
#      x y z
#    x 1.798130 0.000000 0.000000 
#    y 0.000000 1.779060 0.000000 
#    z 0.000000 0.000000 1.798130 
# 
# From -- ./inp_files/47505.got.cif
#   From: 2010.03.12/outbox.cif.g09.slc.cpg/sg69_24_cif.got.tgz:47505.got - 2010.04.10 23:52:46.
