data_PCOD8285267
_publ_section_title
;
Structure prediction by ZEFSAII (Michael W. Deem and Ramdas Pophale) SiO2 
 PCOD8285267
Probable space group: F M M M
;
_chemical_formula_sum "Si O2"
_cell_formula_units_Z 144
_cell_length_a 14.412165
_cell_length_b 29.029700
_cell_length_c 18.716044
_cell_angle_alpha 90.000000
_cell_angle_beta 90.000000
_cell_angle_gamma 90.000000
_cell_volume 7830.433954
_symmetry_space_group_name_H-M "F M M M"
_symmetry_group_IT_number 69
_symmetry_cell_setting 'orthorhombic'
loop_
_space_group_symop_operation_xyz
x,y,z
-x,-y,z
x,-y,-z
-x,y,-z
-x,-y,-z
x,y,-z
-x,y,z
x,-y,z
x,1/2+y,1/2+z
-x,1/2-y,1/2+z
x,1/2-y,1/2-z
-x,1/2+y,1/2-z
-x,1/2-y,1/2-z
x,1/2+y,1/2-z
-x,1/2+y,1/2+z
x,1/2-y,1/2+z
1/2+x,y,1/2+z
1/2-x,-y,1/2+z
1/2+x,-y,1/2-z
1/2-x,y,1/2-z
1/2-x,-y,1/2-z
1/2+x,y,1/2-z
1/2-x,y,1/2+z
1/2+x,-y,1/2+z
1/2+x,1/2+y,z
1/2-x,1/2-y,z
1/2+x,1/2-y,-z
1/2-x,1/2+y,-z
1/2-x,1/2-y,-z
1/2+x,1/2+y,-z
1/2-x,1/2+y,z
1/2+x,1/2-y,z
loop_
_atom_site_type_symbol
_atom_site_label
_atom_site_fract_x
_atom_site_fract_y
_atom_site_fract_z
Si Si1 0.351347 0.236350 0.150790
Si Si2 0.750000 0.392162 0.250000
Si Si3 0.109854 0.303335 0.000000
Si Si4 0.900279 0.675043 0.278930
Si Si5 0.390817 0.593593 0.500000
Si Si6 0.892703 0.945998 0.349860
O O1 0.250000 0.250000 0.177129
O O2 0.409514 0.282580 0.165876
O O3 0.386772 0.193447 0.197662
O O4 0.353623 0.223891 0.068199
O O5 0.816845 0.359905 0.298989
O O6 0.820020 0.422205 0.203040
O O7 0.151758 0.354936 0.000000
O O8 0.000000 0.304361 0.000000
O O9 0.000000 0.649165 0.281520
O O10 0.500000 0.597616 0.500000
O O11 0.358996 0.565991 0.570171
O O12 0.000000 0.929768 0.336728
O O13 0.885100 0.000000 0.337500
#
# Coordination Sequence:
#
# PCOD8285267 Si02
#       6
#    32  16  16  32  16  32
#     4  11  20  36  51  76 106 152 192 226 269 314
#     4  12  21  35  54  86 114 140 186 227 279 330
#     4  11  21  32  51  79 110 143 184 231 273 316
#     4  11  21  36  55  74 108 150 188 224 265 321
#     4   9  19  35  58  84 109 142 182 228 282 338
#     4  10  21  38  60  85 113 143 177 228 291 347
#
# _framework density 18.389785
#
# number of rings (size 3 to 8) (size 9 to 14) (size 15 to 20)
#    0.000    1.333    2.222    6.333    0.000    3.111 
#    0.000    0.000    0.000    0.000    0.000    2.333 
#    0.000    8.889    0.000    0.000    0.000    0.000 
#
# Total GULP energy -446213.258898 kJ/mol
# GULP energy per Si atom -12394.812747 kJ/mol
# Density = 1.834793 g / cm^3
# Si number density = 18.389785 Si / 1000 Ang^3
#
#
#
# Elastic Constant Matrix: (Units=GPa)
#
#
# Indices 1 2 3 4 5 6 
#
# 1 125.1663 42.4799 25.3227 0.0000 0.0000 0.0000
# 2 42.4799 91.0676 43.8033 0.0000 0.0000 0.0000
# 3 25.3227 43.8033 96.9531 0.0000 0.0000 0.0000
# 4 0.0000 0.0000 0.0000 -377.9000 0.0000 0.0000
# 5 0.0000 0.0000 0.0000 0.0000 18.2196 0.0000
# 6 0.0000 0.0000 0.0000 0.0000 0.0000 29.8146
#
#
#
# Elastic Compliance Matrix: (Units=1/GPa)
#
#
# Indices 1 2 3 4 5 6 
#
# 1 0.009521 -0.004146 -0.000614 0.000000 0.000000 0.000000
# 2 -0.004146 0.015835 -0.006071 0.000000 0.000000 0.000000
# 3 -0.000614 -0.006071 0.013218 0.000000 0.000000 0.000000
# 4 0.000000 0.000000 0.000000 -0.002646 0.000000 0.000000
# 5 0.000000 0.000000 0.000000 0.000000 0.054886 0.000000
# 6 0.000000 0.000000 0.000000 0.000000 0.000000 0.033541
#
#
# Mechanical properties :
#
#
# Convention : Reuss Voigt Hill
#
# Bulk Modulus (GPa) = 59.13124 59.59986 59.36555
# Shear Modulus (GPa) = 32.97012 -52.53440 -9.78214
#
# Velocity S-wave (km/s) = 4.23880 -5.35062 -2.30887
# Velocity P-wave (km/s) = 7.49538 2.38593 5.02435
#
# Compressibility (1/GPa) = 0.01691153
#
# Stress axis : x y z
#
# Youngs Moduli (GPa) = 105.03584 63.15073 75.65685
#
# Poissons Ratio (x) = 0.26182 0.04642
# Poissons Ratio (y) = 0.43547 0.45935
# Poissons Ratio (z) = 0.06444 0.38342
#
# Static dielectric constant tensor:
#      x y z
#    x 3.479920 0.000000 0.000000 
#    y 0.000000 3.435800 0.000000 
#    z 0.000000 0.000000 3.201210 
# 
# 
# High freq. dielectric constant tensor:
#      x y z
#    x 1.716080 0.000000 0.000000 
#    y 0.000000 1.709940 0.000000 
#    z 0.000000 0.000000 1.695680 
# 
# From -- ./inp_files/21820.got.cif
#   From: 2010.03.12/outbox.cif.g09.slc.cpg/sg69_11_cif.got.tgz:21820.got - 2010.04.10 23:52:46.
