data_PCOD8285015
_publ_section_title
;
Structure prediction by ZEFSAII (Michael W. Deem and Ramdas Pophale) SiO2 
 PCOD8285015
Probable space group: F M M M
;
_chemical_formula_sum "Si O2"
_cell_formula_units_Z 208
_cell_length_a 17.513664
_cell_length_b 21.776032
_cell_length_c 26.302861
_cell_angle_alpha 90.000000
_cell_angle_beta 90.000000
_cell_angle_gamma 90.000000
_cell_volume 10031.335355
_symmetry_space_group_name_H-M "F M M M"
_symmetry_group_IT_number 69
_symmetry_cell_setting 'orthorhombic'
loop_
_space_group_symop_operation_xyz
x,y,z
-x,-y,z
x,-y,-z
-x,y,-z
-x,-y,-z
x,y,-z
-x,y,z
x,-y,z
x,1/2+y,1/2+z
-x,1/2-y,1/2+z
x,1/2-y,1/2-z
-x,1/2+y,1/2-z
-x,1/2-y,1/2-z
x,1/2+y,1/2-z
-x,1/2+y,1/2+z
x,1/2-y,1/2+z
1/2+x,y,1/2+z
1/2-x,-y,1/2+z
1/2+x,-y,1/2-z
1/2-x,y,1/2-z
1/2-x,-y,1/2-z
1/2+x,y,1/2-z
1/2-x,y,1/2+z
1/2+x,-y,1/2+z
1/2+x,1/2+y,z
1/2-x,1/2-y,z
1/2+x,1/2-y,-z
1/2-x,1/2+y,-z
1/2-x,1/2-y,-z
1/2+x,1/2+y,-z
1/2-x,1/2+y,z
1/2+x,1/2-y,z
loop_
_atom_site_type_symbol
_atom_site_label
_atom_site_fract_x
_atom_site_fract_y
_atom_site_fract_z
Si Si1 0.347301 0.395205 0.394799
Si Si2 0.409912 0.812320 0.276027
Si Si3 0.193407 0.069073 0.057346
Si Si4 0.334767 0.273494 0.556155
Si Si5 0.410845 0.334214 0.890294
Si Si6 0.000000 0.433817 0.058925
Si Si7 0.410979 0.929845 0.210839
O O1 0.279136 0.432477 0.420891
O O2 0.330148 0.323104 0.398616
O O3 0.424845 0.398264 0.426095
O O4 0.358254 0.419707 0.338118
O O5 0.500000 0.807339 0.272793
O O6 0.375156 0.750000 0.250000
O O7 0.382683 0.814881 0.334180
O O8 0.384398 0.877086 0.250323
O O9 0.136624 0.106608 0.092945
O O10 0.162308 0.000000 0.056409
O O11 0.194433 0.096653 0.000000
O O12 0.359354 0.298559 0.500000
O O13 0.250000 0.250000 0.551656
O O14 0.394844 0.221261 0.571450
O O15 0.500000 0.351202 0.891200
O O16 0.000000 0.500000 0.087218
O O17 0.000000 0.444358 0.000000
O O18 0.500000 0.920893 0.196247
O O19 0.397727 0.000000 0.231646
#
# Coordination Sequence:
#
# PCOD8285015 Si02
#       7
#    32  32  32  32  32  16  32
#     4  12  22  38  62  90 128 169 210 255 317 384
#     4   9  19  38  64  92 125 162 210 264 320 378
#     4  11  24  42  63  87 123 171 213 257 317 373
#     4  11  23  40  62  89 124 166 210 255 314 380
#     4  11  24  42  66  94 124 162 212 266 311 367
#     4  11  22  34  54  90 129 162 207 257 303 380
#     4  10  20  36  61  94 129 168 210 259 322 391
#
# _framework density 20.735026000000001
#
# number of rings (size 3 to 8) (size 9 to 14) (size 15 to 20)
#    0.000    1.308    2.308    4.154    1.077    4.615 
#    0.000    3.077    0.000    1.846    0.000    0.000 
#    0.000    0.000    0.000    0.000    0.000    0.000 
#
# Total GULP energy -644628.881596 kJ/mol
# GULP energy per Si atom -12396.709261 kJ/mol
# Density = 2.068783 g / cm^3
# Si number density = 20.735026 Si / 1000 Ang^3
#
#
#
# Elastic Constant Matrix: (Units=GPa)
#
#
# Indices 1 2 3 4 5 6 
#
# 1 75.7070 22.3648 40.4219 0.0000 0.0000 0.0000
# 2 22.3648 136.9976 49.0070 0.0000 0.0000 0.0000
# 3 40.4219 49.0070 112.2868 0.0000 0.0000 0.0000
# 4 0.0000 0.0000 0.0000 39.4297 0.0000 0.0000
# 5 0.0000 0.0000 0.0000 0.0000 30.2642 0.0000
# 6 0.0000 0.0000 0.0000 0.0000 0.0000 21.4964
#
#
#
# Elastic Compliance Matrix: (Units=1/GPa)
#
#
# Indices 1 2 3 4 5 6 
#
# 1 0.016403 -0.000670 -0.005613 0.000000 0.000000 0.000000
# 2 -0.000670 0.008677 -0.003546 0.000000 0.000000 0.000000
# 3 -0.005613 -0.003546 0.012474 0.000000 0.000000 0.000000
# 4 0.000000 0.000000 0.000000 0.025362 0.000000 0.000000
# 5 0.000000 0.000000 0.000000 0.000000 0.033042 0.000000
# 6 0.000000 0.000000 0.000000 0.000000 0.000000 0.046520
#
#
# Mechanical properties :
#
#
# Convention : Reuss Voigt Hill
#
# Bulk Modulus (GPa) = 55.87426 60.95320 58.41373
# Shear Modulus (GPa) = 29.74403 32.45123 31.09763
#
# Velocity S-wave (km/s) = 3.79157 3.96036 3.87688
# Velocity P-wave (km/s) = 6.79509 7.09737 6.94787
#
# Compressibility (1/GPa) = 0.01789733
#
# Stress axis : x y z
#
# Youngs Moduli (GPa) = 60.96270 115.24403 80.16791
#
# Poissons Ratio (x) = 0.07723 0.44995
# Poissons Ratio (y) = 0.04085 0.28427
# Poissons Ratio (z) = 0.34216 0.40864
#
# Static dielectric constant tensor:
#      x y z
#    x 3.520910 0.000000 0.000000 
#    y 0.000000 3.943600 0.000000 
#    z 0.000000 0.000000 3.847310 
# 
# 
# High freq. dielectric constant tensor:
#      x y z
#    x 1.792300 0.000000 0.000000 
#    y 0.000000 1.826100 0.000000 
#    z 0.000000 0.000000 1.810710 
# 
# From -- ./inp_files/42021.got.cif
#   From: 2010.03.12/outbox.cif.g09.slc.cpg/sg69_22_cif.got.tgz:42021.got - 2010.04.10 23:52:46.
