data_PCOD8285290
_publ_section_title
;
Structure prediction by ZEFSAII (Michael W. Deem and Ramdas Pophale) SiO2 
 PCOD8285290
Probable space group: F M M M
;
_chemical_formula_sum "Si O2"
_cell_formula_units_Z 160
_cell_length_a 14.351229
_cell_length_b 17.512285
_cell_length_c 31.854823
_cell_angle_alpha 90.000000
_cell_angle_beta 90.000000
_cell_angle_gamma 90.000000
_cell_volume 8005.843703
_symmetry_space_group_name_H-M "F M M M"
_symmetry_group_IT_number 69
_symmetry_cell_setting 'orthorhombic'
loop_
_space_group_symop_operation_xyz
x,y,z
-x,-y,z
x,-y,-z
-x,y,-z
-x,-y,-z
x,y,-z
-x,y,z
x,-y,z
x,1/2+y,1/2+z
-x,1/2-y,1/2+z
x,1/2-y,1/2-z
-x,1/2+y,1/2-z
-x,1/2-y,1/2-z
x,1/2+y,1/2-z
-x,1/2+y,1/2+z
x,1/2-y,1/2+z
1/2+x,y,1/2+z
1/2-x,-y,1/2+z
1/2+x,-y,1/2-z
1/2-x,y,1/2-z
1/2-x,-y,1/2-z
1/2+x,y,1/2-z
1/2-x,y,1/2+z
1/2+x,-y,1/2+z
1/2+x,1/2+y,z
1/2-x,1/2-y,z
1/2+x,1/2-y,-z
1/2-x,1/2+y,-z
1/2-x,1/2-y,-z
1/2+x,1/2+y,-z
1/2-x,1/2+y,z
1/2+x,1/2-y,z
loop_
_atom_site_type_symbol
_atom_site_label
_atom_site_fract_x
_atom_site_fract_y
_atom_site_fract_z
Si Si1 0.605983 0.320770 0.277283
Si Si2 0.393923 0.084907 0.300836
Si Si3 0.241569 0.589264 0.061162
Si Si4 0.608806 0.149381 0.500000
Si Si5 0.107421 0.330499 0.000000
Si Si6 0.744782 0.834914 0.147753
O O1 0.500000 0.301390 0.289884
O O2 0.647539 0.250000 0.250000
O O3 0.613530 0.395906 0.248487
O O4 0.659910 0.339168 0.319797
O O5 0.500000 0.089177 0.316149
O O6 0.339768 0.147135 0.327942
O O7 0.353028 0.000000 0.307603
O O8 0.229479 0.500000 0.052420
O O9 0.235242 0.604458 0.110596
O O10 0.340330 0.616380 0.041517
O O11 0.155980 0.634797 0.040936
O O12 0.500000 0.124733 0.500000
O O13 0.619609 0.239977 0.500000
O O14 0.000000 0.354623 0.000000
O O15 0.750000 0.750000 0.128513
#
# Coordination Sequence:
#
# PCOD8285290 Si02
#       6
#    32  32  32  16  16  32
#     4  10  21  39  60  85 118 160 210 256 307 372
#     4  10  22  39  59  85 119 158 202 256 314 370
#     4  11  24  40  60  93 131 163 203 254 307 374
#     4  10  21  42  71  95 122 164 209 253 308 371
#     4  10  21  42  69  91 120 162 203 251 308 371
#     4  12  23  36  61  89 122 162 205 256 310 363
#
# _framework density 19.985403000000002
#
# number of rings (size 3 to 8) (size 9 to 14) (size 15 to 20)
#    0.000    1.400    2.000    4.800    0.000    5.600 
#    0.000    0.000    0.000    0.000    0.000    0.000 
#    0.000    0.000    0.000    0.000    0.000    0.000 
#
# Total GULP energy -496055.160890 kJ/mol
# GULP energy per Si atom -12401.379022 kJ/mol
# Density = 1.993992 g / cm^3
# Si number density = 19.985403 Si / 1000 Ang^3
#
#
#
# Elastic Constant Matrix: (Units=GPa)
#
#
# Indices 1 2 3 4 5 6 
#
# 1 115.8716 37.5650 53.4866 0.0000 0.0000 0.0000
# 2 37.5650 108.0770 23.2310 0.0000 0.0000 0.0000
# 3 53.4866 23.2310 122.3235 0.0000 0.0000 0.0000
# 4 0.0000 0.0000 0.0000 31.0862 0.0000 0.0000
# 5 0.0000 0.0000 0.0000 0.0000 -7.4415 0.0000
# 6 0.0000 0.0000 0.0000 0.0000 0.0000 24.5947
#
#
#
# Elastic Compliance Matrix: (Units=1/GPa)
#
#
# Indices 1 2 3 4 5 6 
#
# 1 0.011732 -0.003102 -0.004541 0.000000 0.000000 0.000000
# 2 -0.003102 0.010466 -0.000632 0.000000 0.000000 0.000000
# 3 -0.004541 -0.000632 0.010280 0.000000 0.000000 0.000000
# 4 0.000000 0.000000 0.000000 0.032169 0.000000 0.000000
# 5 0.000000 0.000000 0.000000 0.000000 -0.134381 0.000000
# 6 0.000000 0.000000 0.000000 0.000000 0.000000 0.040659
#
#
# Mechanical properties :
#
#
# Convention : Reuss Voigt Hill
#
# Bulk Modulus (GPa) = 62.77122 63.87082 63.32102
# Shear Modulus (GPa) = -692.88983 25.11383 -333.88800
#
# Velocity S-wave (km/s) = -18.64003 3.54871 -12.93942
# Velocity P-wave (km/s) = 20.77958 6.98708 13.83784
#
# Compressibility (1/GPa) = 0.01593087
#
# Stress axis : x y z
#
# Youngs Moduli (GPa) = 85.23836 95.54314 97.27204
#
# Poissons Ratio (x) = 0.29634 0.44169
# Poissons Ratio (y) = 0.26438 0.06143
# Poissons Ratio (z) = 0.38705 0.06034
#
# Static dielectric constant tensor:
#      x y z
#    x 3.674970 0.000000 0.000000 
#    y 0.000000 3.857870 0.000000 
#    z 0.000000 0.000000 3.508970 
# 
# 
# High freq. dielectric constant tensor:
#      x y z
#    x 1.781410 0.000000 0.000000 
#    y 0.000000 1.793630 0.000000 
#    z 0.000000 0.000000 1.769890 
# 
# From -- ./inp_files/45698.got.cif
#   From: 2010.03.12/outbox.cif.g09.slc.cpg/sg69_23_cif.got.tgz:45698.got - 2010.04.10 23:52:46.
