data_PCOD8285524
_publ_section_title
;
Structure prediction by ZEFSAII (Michael W. Deem and Ramdas Pophale) SiO2 
 PCOD8285524
Probable space group: F M M M
;
_chemical_formula_sum "Si O2"
_cell_formula_units_Z 176
_cell_length_a 14.302346
_cell_length_b 27.053571
_cell_length_c 22.632019
_cell_angle_alpha 90.000000
_cell_angle_beta 90.000000
_cell_angle_gamma 90.000000
_cell_volume 8756.996542
_symmetry_space_group_name_H-M "F M M M"
_symmetry_group_IT_number 69
_symmetry_cell_setting 'orthorhombic'
loop_
_space_group_symop_operation_xyz
x,y,z
-x,-y,z
x,-y,-z
-x,y,-z
-x,-y,-z
x,y,-z
-x,y,z
x,-y,z
x,1/2+y,1/2+z
-x,1/2-y,1/2+z
x,1/2-y,1/2-z
-x,1/2+y,1/2-z
-x,1/2-y,1/2-z
x,1/2+y,1/2-z
-x,1/2+y,1/2+z
x,1/2-y,1/2+z
1/2+x,y,1/2+z
1/2-x,-y,1/2+z
1/2+x,-y,1/2-z
1/2-x,y,1/2-z
1/2-x,-y,1/2-z
1/2+x,y,1/2-z
1/2-x,y,1/2+z
1/2+x,-y,1/2+z
1/2+x,1/2+y,z
1/2-x,1/2-y,z
1/2+x,1/2-y,-z
1/2-x,1/2+y,-z
1/2-x,1/2-y,-z
1/2+x,1/2+y,-z
1/2-x,1/2+y,z
1/2+x,1/2-y,z
loop_
_atom_site_type_symbol
_atom_site_label
_atom_site_fract_x
_atom_site_fract_y
_atom_site_fract_z
Si Si1 0.642025 0.260279 0.933522
Si Si2 0.889731 0.305311 0.253879
Si Si3 0.768873 0.407917 0.069395
Si Si4 0.607030 0.858920 0.371216
Si Si5 0.106960 0.000000 0.570130
Si Si6 0.601733 0.666456 0.372263
O O1 0.750000 0.250000 0.923394
O O2 0.613429 0.316318 0.920202
O O3 0.587247 0.223769 0.889775
O O4 0.610997 0.248805 0.000000
O O5 0.845802 0.250000 0.250000
O O6 0.852301 0.336379 0.309920
O O7 0.861359 0.335773 0.195156
O O8 0.000000 0.300395 0.259709
O O9 0.671791 0.404762 0.106420
O O10 0.833734 0.452802 0.092240
O O11 0.826266 0.358047 0.082308
O O12 0.746493 0.412320 0.000000
O O13 0.500000 0.877876 0.364988
O O14 0.100518 0.000000 0.500000
O O15 0.000000 0.000000 0.595734
O O16 0.500000 0.640384 0.376951
#
# Coordination Sequence:
#
# PCOD8285524 Si02
#       6
#    32  32  32  32  16  32
#     4  11  21  33  47  75 118 158 195 235 282 340
#     4   9  18  34  53  77 112 158 209 240 266 321
#     4  11  23  39  59  88 116 141 187 240 292 362
#     4  11  22  37  56  79 117 164 200 238 283 334
#     4   9  20  42  69  90 113 145 180 236 308 363
#     4  11  21  34  55  81 112 149 191 244 290 332
#
# _framework density 20.098216000000001
#
# number of rings (size 3 to 8) (size 9 to 14) (size 15 to 20)
#    0.000    1.545    3.636    2.182    0.000    5.091 
#    0.000    2.273    0.000    3.818    0.000    3.818 
#    0.000    0.000    0.000    0.000    0.000    0.000 
#
# Total GULP energy -545466.447396 kJ/mol
# GULP energy per Si atom -12396.964714 kJ/mol
# Density = 2.005247 g / cm^3
# Si number density = 20.098216 Si / 1000 Ang^3
#
#
#
# Elastic Constant Matrix: (Units=GPa)
#
#
# Indices 1 2 3 4 5 6 
#
# 1 115.8674 39.1120 34.3794 0.0000 0.0000 0.0000
# 2 39.1120 76.6348 20.3427 0.0000 0.0000 0.0000
# 3 34.3794 20.3427 110.9790 0.0000 0.0000 0.0000
# 4 0.0000 0.0000 0.0000 16.9779 0.0000 0.0000
# 5 0.0000 0.0000 0.0000 0.0000 33.9291 0.0000
# 6 0.0000 0.0000 0.0000 0.0000 0.0000 29.6131
#
#
#
# Elastic Compliance Matrix: (Units=1/GPa)
#
#
# Indices 1 2 3 4 5 6 
#
# 1 0.011056 -0.004975 -0.002513 0.000000 0.000000 0.000000
# 2 -0.004975 0.015955 -0.001383 0.000000 0.000000 0.000000
# 3 -0.002513 -0.001383 0.010043 0.000000 0.000000 0.000000
# 4 0.000000 0.000000 0.000000 0.058900 0.000000 0.000000
# 5 0.000000 0.000000 0.000000 0.000000 0.029473 0.000000
# 6 0.000000 0.000000 0.000000 0.000000 0.000000 0.033769
#
#
# Mechanical properties :
#
#
# Convention : Reuss Voigt Hill
#
# Bulk Modulus (GPa) = 51.78522 54.57215 53.17869
# Shear Modulus (GPa) = 27.26637 30.08049 28.67343
#
# Velocity S-wave (km/s) = 3.68728 3.87288 3.78122
# Velocity P-wave (km/s) = 6.62948 6.87100 6.75132
#
# Compressibility (1/GPa) = 0.01931053
#
# Stress axis : x y z
#
# Youngs Moduli (GPa) = 90.45152 62.67464 99.57463
#
# Poissons Ratio (x) = 0.31183 0.25022
# Poissons Ratio (y) = 0.45003 0.13775
# Poissons Ratio (z) = 0.22729 0.08670
#
# Static dielectric constant tensor:
#      x y z
#    x 3.834250 0.000000 0.000000 
#    y 0.000000 3.342310 0.000000 
#    z 0.000000 0.000000 3.704840 
# 
# 
# High freq. dielectric constant tensor:
#      x y z
#    x 1.798130 0.000000 0.000000 
#    y 0.000000 1.731710 0.000000 
#    z 0.000000 0.000000 1.782240 
# 
# From -- ./inp_files/18080.got.cif
#   From: 2010.03.12/outbox.cif.g09.slc.cpg/sg69_10_cif.got.tgz:18080.got - 2010.04.10 23:52:46.
