data_PCOD8285962
_publ_section_title
;
Structure prediction by ZEFSAII (Michael W. Deem and Ramdas Pophale) SiO2 
 PCOD8285962
Probable space group: F D D D
;
_chemical_formula_sum "Si O2"
_cell_formula_units_Z 176
_cell_length_a 24.636577
_cell_length_b 23.694577
_cell_length_c 14.364277
_cell_angle_alpha 90.000000
_cell_angle_beta 90.000000
_cell_angle_gamma 90.000000
_cell_volume 8385.193681
_symmetry_space_group_name_H-M "F D D D"
_symmetry_group_IT_number 70
_space_group.IT_coordinate_system_code '2'
_symmetry_cell_setting 'orthorhombic'
loop_
_space_group_symop_operation_xyz
x,y,z
1/4-x,1/4-y,z
x,1/4-y,1/4-z
1/4-x,y,1/4-z
-x,-y,-z
3/4+x,3/4+y,-z
-x,3/4+y,3/4+z
3/4+x,-y,3/4+z
x,1/2+y,1/2+z
1/4-x,3/4-y,1/2+z
x,3/4-y,3/4-z
1/4-x,1/2+y,3/4-z
-x,1/2-y,1/2-z
3/4+x,1/4+y,1/2-z
-x,1/4+y,1/4+z
3/4+x,1/2-y,1/4+z
1/2+x,y,1/2+z
3/4-x,1/4-y,1/2+z
1/2+x,1/4-y,3/4-z
3/4-x,y,3/4-z
1/2-x,-y,1/2-z
1/4+x,3/4+y,1/2-z
1/2-x,3/4+y,1/4+z
1/4+x,-y,1/4+z
1/2+x,1/2+y,z
3/4-x,3/4-y,z
1/2+x,3/4-y,1/4-z
3/4-x,1/2+y,1/4-z
1/2-x,1/2-y,-z
1/4+x,1/4+y,-z
1/2-x,1/4+y,3/4+z
1/4+x,1/2-y,3/4+z
loop_
_atom_site_type_symbol
_atom_site_label
_atom_site_fract_x
_atom_site_fract_y
_atom_site_fract_z
Si Si1 0.488421 0.914386 0.295388
Si Si2 0.375000 0.875000 0.511552
Si Si3 0.979024 0.283837 0.006740
Si Si4 0.381312 0.791414 0.662966
Si Si5 0.450375 0.062152 0.092168
Si Si6 0.745641 0.098349 0.333709
O O1 0.516626 0.875000 0.375000
O O2 0.424529 0.898992 0.299037
O O3 0.512775 0.906417 0.191540
O O4 0.499513 0.980089 0.316353
O O5 0.353118 0.822273 0.574295
O O6 0.999750 0.284007 0.900052
O O7 0.913408 0.287897 0.005382
O O8 0.005123 0.337179 0.057214
O O9 0.398395 0.727279 0.639826
O O10 0.433637 0.829513 0.687768
O O11 0.436235 0.125000 0.125000
O O12 0.465919 0.060768 0.982909
#
# Coordination Sequence:
#
# PCOD8285962 Si02
#       6
#    32  16  32  32  32  32
#     4  11  23  39  65  92 123 173 222 269 326 387
#     4  10  19  42  64  89 122 168 225 276 319 384
#     4  11  21  37  66  95 124 168 220 267 338 394
#     4  11  19  38  65  90 131 165 212 276 328 401
#     4  10  22  38  64  92 130 172 207 270 348 397
#     4  10  21  41  60  92 131 164 214 277 322 402
#
# _framework density 20.989377000000001
#
# number of rings (size 3 to 8) (size 9 to 14) (size 15 to 20)
#    0.000    1.455    7.273    0.818    0.000    2.182 
#    0.000    2.727    0.000    0.000    0.000    0.000 
#    0.000    0.000    0.000    0.000    0.000    0.000 
#
# Total GULP energy -545234.533750 kJ/mol
# GULP energy per Si atom -12391.693949 kJ/mol
# Density = 2.094160 g / cm^3
# Si number density = 20.989377 Si / 1000 Ang^3
#
#
#
# Elastic Constant Matrix: (Units=GPa)
#
#
# Indices 1 2 3 4 5 6 
#
# 1 54.5329 32.2946 22.4043 0.0000 0.0000 0.0000
# 2 32.2946 150.3428 43.2468 0.0000 0.0000 0.0000
# 3 22.4043 43.2468 104.4777 0.0000 0.0000 0.0000
# 4 0.0000 0.0000 0.0000 19.5347 0.0000 0.0000
# 5 0.0000 0.0000 0.0000 0.0000 17.3854 0.0000
# 6 0.0000 0.0000 0.0000 0.0000 0.0000 35.2458
#
#
#
# Elastic Compliance Matrix: (Units=1/GPa)
#
#
# Indices 1 2 3 4 5 6 
#
# 1 0.021869 -0.003801 -0.003116 0.000000 0.000000 0.000000
# 2 -0.003801 0.008211 -0.002584 0.000000 0.000000 0.000000
# 3 -0.003116 -0.002584 0.011309 0.000000 0.000000 0.000000
# 4 0.000000 0.000000 0.000000 0.051191 0.000000 0.000000
# 5 0.000000 0.000000 0.000000 0.000000 0.057520 0.000000
# 6 0.000000 0.000000 0.000000 0.000000 0.000000 0.028372
#
#
# Mechanical properties :
#
#
# Convention : Reuss Voigt Hill
#
# Bulk Modulus (GPa) = 44.66868 56.13829 50.40348
# Shear Modulus (GPa) = 24.39778 28.52702 26.46240
#
# Velocity S-wave (km/s) = 3.41308 3.69062 3.55456
# Velocity P-wave (km/s) = 6.07124 6.70560 6.39628
#
# Compressibility (1/GPa) = 0.02238705
#
# Stress axis : x y z
#
# Youngs Moduli (GPa) = 45.72707 121.78452 88.42401
#
# Poissons Ratio (x) = 0.46293 0.27554
# Poissons Ratio (y) = 0.17382 0.22847
# Poissons Ratio (z) = 0.14249 0.31466
#
# Static dielectric constant tensor:
#      x y z
#    x 3.457710 0.000000 0.000000 
#    y 0.000000 4.167600 0.000000 
#    z 0.000000 0.000000 3.847360 
# 
# 
# High freq. dielectric constant tensor:
#      x y z
#    x 1.785450 0.000000 0.000000 
#    y 0.000000 1.847510 0.000000 
#    z 0.000000 0.000000 1.808840 
# 
# From -- ./inp_files/30001.got.cif
#   From: 2010.03.12/outbox.cif.g09.slc.cpg/sg70_16_cif.got.tgz:30001.got - 2010.04.16 13:46:32.
