data_PCOD8285796
_publ_section_title
;
Structure prediction by ZEFSAII (Michael W. Deem and Ramdas Pophale) SiO2 
 PCOD8285796
Probable space group: F D D D
;
_chemical_formula_sum "Si O2"
_cell_formula_units_Z 208
_cell_length_a 29.628824
_cell_length_b 21.570832
_cell_length_c 17.785270
_cell_angle_alpha 90.000000
_cell_angle_beta 90.000000
_cell_angle_gamma 90.000000
_cell_volume 11366.893037
_symmetry_space_group_name_H-M "F D D D"
_symmetry_group_IT_number 70
_space_group.IT_coordinate_system_code '2'
_symmetry_cell_setting 'orthorhombic'
loop_
_space_group_symop_operation_xyz
x,y,z
1/4-x,1/4-y,z
x,1/4-y,1/4-z
1/4-x,y,1/4-z
-x,-y,-z
3/4+x,3/4+y,-z
-x,3/4+y,3/4+z
3/4+x,-y,3/4+z
x,1/2+y,1/2+z
1/4-x,3/4-y,1/2+z
x,3/4-y,3/4-z
1/4-x,1/2+y,3/4-z
-x,1/2-y,1/2-z
3/4+x,1/4+y,1/2-z
-x,1/4+y,1/4+z
3/4+x,1/2-y,1/4+z
1/2+x,y,1/2+z
3/4-x,1/4-y,1/2+z
1/2+x,1/4-y,3/4-z
3/4-x,y,3/4-z
1/2-x,-y,1/2-z
1/4+x,3/4+y,1/2-z
1/2-x,3/4+y,1/4+z
1/4+x,-y,1/4+z
1/2+x,1/2+y,z
3/4-x,3/4-y,z
1/2+x,3/4-y,1/4-z
3/4-x,1/2+y,1/4-z
1/2-x,1/2-y,-z
1/4+x,1/4+y,-z
1/2-x,1/4+y,3/4+z
1/4+x,1/2-y,3/4+z
loop_
_atom_site_type_symbol
_atom_site_label
_atom_site_fract_x
_atom_site_fract_y
_atom_site_fract_z
Si Si1 0.091106 0.223856 0.272967
Si Si2 0.937042 0.635266 0.708758
Si Si3 0.154614 0.418192 0.302777
Si Si4 0.549574 0.429014 0.214733
Si Si5 0.511946 0.609291 0.914797
Si Si6 0.125000 0.997139 0.125000
Si Si7 0.566018 0.230014 0.405514
O O1 0.084587 0.296558 0.288248
O O2 0.048953 0.185753 0.301126
O O3 0.096037 0.211220 0.183145
O O4 0.137425 0.202259 0.311833
O O5 0.957657 0.625000 0.625000
O O6 0.897485 0.584508 0.726116
O O7 0.975035 0.626961 0.771531
O O8 0.154901 0.375000 0.375000
O O9 0.189335 0.390878 0.241677
O O10 0.171893 0.486164 0.326672
O O11 0.507599 0.425974 0.158014
O O12 0.593289 0.452836 0.172398
O O13 0.540386 0.474670 0.285222
O O14 0.532985 0.673639 0.887303
#
# Coordination Sequence:
#
# PCOD8285796 Si02
#       7
#    32  32  32  32  32  16  32
#     4  11  21  38  55  78 118 156 184 226 284 348
#     4  11  20  35  61  80 105 154 196 226 270 341
#     4   9  16  37  61  76 101 153 194 220 274 346
#     4  10  19  35  57  80 109 143 187 239 273 331
#     4  12  25  33  54  92 119 137 190 247 287 324
#     4  10  18  34  59  76 108 150 191 220 272 340
#     4  10  22  38  56  80 112 155 187 231 289 340
#
# _framework density 18.298756000000001
#
# number of rings (size 3 to 8) (size 9 to 14) (size 15 to 20)
#    0.000    1.538    7.692    0.923    2.154    1.846 
#    0.000    3.077    0.000    0.000    0.000    0.000 
#    0.000    8.615    0.000    0.000    0.000    0.000 
#
# Total GULP energy -644600.126620 kJ/mol
# GULP energy per Si atom -12396.156281 kJ/mol
# Density = 1.825711 g / cm^3
# Si number density = 18.298756 Si / 1000 Ang^3
#
#
#
# Elastic Constant Matrix: (Units=GPa)
#
#
# Indices 1 2 3 4 5 6 
#
# 1 93.4015 45.2249 48.8038 0.0000 0.0000 0.0000
# 2 45.2249 71.1122 27.8002 0.0000 0.0000 0.0000
# 3 48.8038 27.8002 78.1031 0.0000 0.0000 0.0000
# 4 0.0000 0.0000 0.0000 19.1550 0.0000 0.0000
# 5 0.0000 0.0000 0.0000 0.0000 32.7461 0.0000
# 6 0.0000 0.0000 0.0000 0.0000 0.0000 24.4292
#
#
#
# Elastic Compliance Matrix: (Units=1/GPa)
#
#
# Indices 1 2 3 4 5 6 
#
# 1 0.019907 -0.009058 -0.009215 0.000000 0.000000 0.000000
# 2 -0.009058 0.020457 -0.001621 0.000000 0.000000 0.000000
# 3 -0.009215 -0.001621 0.019139 0.000000 0.000000 0.000000
# 4 0.000000 0.000000 0.000000 0.052206 0.000000 0.000000
# 5 0.000000 0.000000 0.000000 0.000000 0.030538 0.000000
# 6 0.000000 0.000000 0.000000 0.000000 0.000000 0.040935
#
#
# Mechanical properties :
#
#
# Convention : Reuss Voigt Hill
#
# Bulk Modulus (GPa) = 50.72586 54.03052 52.37819
# Shear Modulus (GPa) = 21.78250 23.31859 22.55055
#
# Velocity S-wave (km/s) = 3.45393 3.57364 3.51430
# Velocity P-wave (km/s) = 6.60964 6.82780 6.71961
#
# Compressibility (1/GPa) = 0.01971381
#
# Stress axis : x y z
#
# Youngs Moduli (GPa) = 50.23253 48.88389 52.24904
#
# Poissons Ratio (x) = 0.44278 0.48149
# Poissons Ratio (y) = 0.45500 0.08472
# Poissons Ratio (z) = 0.46291 0.07926
#
# Static dielectric constant tensor:
#      x y z
#    x 3.480530 0.000000 0.000000 
#    y 0.000000 3.347090 0.000000 
#    z 0.000000 0.000000 3.746810 
# 
# 
# High freq. dielectric constant tensor:
#      x y z
#    x 1.706240 0.000000 0.000000 
#    y 0.000000 1.688660 0.000000 
#    z 0.000000 0.000000 1.705710 
# 
# From -- ./inp_files/39928.got.cif
#   From: 2010.03.12/outbox.cif.g09.slc.cpg/sg70_20_cif.got.tgz:39928.got - 2010.04.16 13:46:32.
