data_PCOD8285658
_publ_section_title
;
Structure prediction by ZEFSAII (Michael W. Deem and Ramdas Pophale) SiO2 
 PCOD8285658
Probable space group: F M M M
;
_chemical_formula_sum "Si O2"
_cell_formula_units_Z 112
_cell_length_a 29.705457
_cell_length_b 17.904342
_cell_length_c 10.354843
_cell_angle_alpha 90.000000
_cell_angle_beta 90.000000
_cell_angle_gamma 90.000000
_cell_volume 5507.292227
_symmetry_space_group_name_H-M "F M M M"
_symmetry_group_IT_number 69
_symmetry_cell_setting 'orthorhombic'
loop_
_space_group_symop_operation_xyz
x,y,z
-x,-y,z
x,-y,-z
-x,y,-z
-x,-y,-z
x,y,-z
-x,y,z
x,-y,z
x,1/2+y,1/2+z
-x,1/2-y,1/2+z
x,1/2-y,1/2-z
-x,1/2+y,1/2-z
-x,1/2-y,1/2-z
x,1/2+y,1/2-z
-x,1/2+y,1/2+z
x,1/2-y,1/2+z
1/2+x,y,1/2+z
1/2-x,-y,1/2+z
1/2+x,-y,1/2-z
1/2-x,y,1/2-z
1/2-x,-y,1/2-z
1/2+x,y,1/2-z
1/2-x,y,1/2+z
1/2+x,-y,1/2+z
1/2+x,1/2+y,z
1/2-x,1/2-y,z
1/2+x,1/2-y,-z
1/2-x,1/2+y,-z
1/2-x,1/2-y,-z
1/2+x,1/2+y,-z
1/2-x,1/2+y,z
1/2+x,1/2-y,z
loop_
_atom_site_type_symbol
_atom_site_label
_atom_site_fract_x
_atom_site_fract_y
_atom_site_fract_z
Si Si1 0.553065 0.586419 0.720577
Si Si2 0.951433 0.412597 0.500000
Si Si3 0.627572 0.687741 0.357822
Si Si4 0.712521 0.913573 0.852373
O O1 0.500000 0.604233 0.708165
O O2 0.561723 0.500000 0.685771
O O3 0.581889 0.639087 0.628293
O O4 0.572606 0.607203 0.864894
O O5 0.960650 0.500000 0.500000
O O6 0.000000 0.372078 0.500000
O O7 0.635155 0.723873 0.500000
O O8 0.622825 0.750000 0.250000
O O9 0.668408 0.633626 0.320942
O O10 0.750000 0.887066 0.750000
O O11 0.700362 0.000000 0.830148
O O12 0.729345 0.900260 0.000000
#
# Coordination Sequence:
#
# PCOD8285658 Si02
#       4
#    32  16  32  32
#     4   9  18  35  60  86 113 149 196 245 290 338
#     4   7  12  26  50  80 108 135 173 229 287 328
#     4  11  25  40  56  83 120 158 193 235 287 343
#     4   9  19  39  65  90 115 144 185 237 288 339
#
# _framework density 20.336673000000001
#
# number of rings (size 3 to 8) (size 9 to 14) (size 15 to 20)
#    0.000    2.714    0.000    2.571    2.000    4.571 
#    0.000    4.286    0.000    0.000    0.000    0.000 
#    0.000    0.000    0.000    0.000    0.000    0.000 
#
# Total GULP energy -346911.984942 kJ/mol
# GULP energy per Si atom -12389.713748 kJ/mol
# Density = 2.029039 g / cm^3
# Si number density = 20.336673 Si / 1000 Ang^3
#
#
#
# Elastic Constant Matrix: (Units=GPa)
#
#
# Indices 1 2 3 4 5 6 
#
# 1 112.1224 60.4423 55.1705 0.0000 0.0000 0.0000
# 2 60.4423 81.5287 53.8873 0.0000 0.0000 0.0000
# 3 55.1705 53.8873 105.3599 0.0000 0.0000 0.0000
# 4 0.0000 0.0000 0.0000 22.5785 0.0000 0.0000
# 5 0.0000 0.0000 0.0000 0.0000 68.3412 0.0000
# 6 0.0000 0.0000 0.0000 0.0000 0.0000 11.3514
#
#
#
# Elastic Compliance Matrix: (Units=1/GPa)
#
#
# Indices 1 2 3 4 5 6 
#
# 1 0.015627 -0.009331 -0.003410 0.000000 0.000000 0.000000
# 2 -0.009331 0.024102 -0.007441 0.000000 0.000000 0.000000
# 3 -0.003410 -0.007441 0.015083 0.000000 0.000000 0.000000
# 4 0.000000 0.000000 0.000000 0.044290 0.000000 0.000000
# 5 0.000000 0.000000 0.000000 0.000000 0.014632 0.000000
# 6 0.000000 0.000000 0.000000 0.000000 0.000000 0.088095
#
#
# Mechanical properties :
#
#
# Convention : Reuss Voigt Hill
#
# Bulk Modulus (GPa) = 69.22050 70.89012 70.05531
# Shear Modulus (GPa) = 20.24215 29.08827 24.66521
#
# Velocity S-wave (km/s) = 3.15834 3.78608 3.48637
# Velocity P-wave (km/s) = 6.88559 7.35163 7.12242
#
# Compressibility (1/GPa) = 0.01444659
#
# Stress axis : x y z
#
# Youngs Moduli (GPa) = 63.99105 41.49116 66.30085
#
# Poissons Ratio (x) = 0.38716 0.22612
# Poissons Ratio (y) = 0.59712 0.49333
# Poissons Ratio (z) = 0.21824 0.30873
#
# Static dielectric constant tensor:
#      x y z
#    x 3.485310 0.000000 0.000000 
#    y 0.000000 3.391740 0.000000 
#    z 0.000000 0.000000 4.085600 
# 
# 
# High freq. dielectric constant tensor:
#      x y z
#    x 1.776170 0.000000 0.000000 
#    y 0.000000 1.771290 0.000000 
#    z 0.000000 0.000000 1.811620 
# 
# From -- ./inp_files/8311.got.cif
#   From: 2010.03.12/outbox.cif.g09.slc.cpg/sg69_5_cif.got.tgz:8311.got - 2010.04.10 23:52:46.
