data_PCOD8285823
_publ_section_title
;
Structure prediction by ZEFSAII (Michael W. Deem and Ramdas Pophale) SiO2 
 PCOD8285823
Probable space group: F D D D
;
_chemical_formula_sum "Si O2"
_cell_formula_units_Z 160
_cell_length_a 15.328875
_cell_length_b 20.720953
_cell_length_c 24.995490
_cell_angle_alpha 90.000000
_cell_angle_beta 90.000000
_cell_angle_gamma 90.000000
_cell_volume 7939.289954
_symmetry_space_group_name_H-M "F D D D"
_symmetry_group_IT_number 70
_space_group.IT_coordinate_system_code '2'
_symmetry_cell_setting 'orthorhombic'
loop_
_space_group_symop_operation_xyz
x,y,z
1/4-x,1/4-y,z
x,1/4-y,1/4-z
1/4-x,y,1/4-z
-x,-y,-z
3/4+x,3/4+y,-z
-x,3/4+y,3/4+z
3/4+x,-y,3/4+z
x,1/2+y,1/2+z
1/4-x,3/4-y,1/2+z
x,3/4-y,3/4-z
1/4-x,1/2+y,3/4-z
-x,1/2-y,1/2-z
3/4+x,1/4+y,1/2-z
-x,1/4+y,1/4+z
3/4+x,1/2-y,1/4+z
1/2+x,y,1/2+z
3/4-x,1/4-y,1/2+z
1/2+x,1/4-y,3/4-z
3/4-x,y,3/4-z
1/2-x,-y,1/2-z
1/4+x,3/4+y,1/2-z
1/2-x,3/4+y,1/4+z
1/4+x,-y,1/4+z
1/2+x,1/2+y,z
3/4-x,3/4-y,z
1/2+x,3/4-y,1/4-z
3/4-x,1/2+y,1/4-z
1/2-x,1/2-y,-z
1/4+x,1/4+y,-z
1/2-x,1/4+y,3/4+z
1/4+x,1/2-y,3/4+z
loop_
_atom_site_type_symbol
_atom_site_label
_atom_site_fract_x
_atom_site_fract_y
_atom_site_fract_z
Si Si1 0.075055 0.722774 0.286483
Si Si2 0.034885 0.155107 0.993543
Si Si3 0.027707 0.934221 0.635445
Si Si4 0.128237 0.359814 0.814733
Si Si5 0.514046 0.539870 0.717136
O O1 0.117342 0.783572 0.315287
O O2 0.148973 0.688015 0.249813
O O3 0.000000 0.750000 0.250000
O O4 0.031922 0.677685 0.332218
O O5 0.125000 0.125000 0.012628
O O6 0.035832 0.233414 0.000832
O O7 0.015851 0.138902 0.930885
O O8 0.960200 0.120888 0.028331
O O9 0.125000 0.908110 0.625000
O O10 0.036790 0.007937 0.658967
O O11 0.150917 0.375000 0.875000
O O12 0.043537 0.396594 0.791407
#
# Coordination Sequence:
#
# PCOD8285823 Si02
#       5
#    32  32  32  32  32
#     4  11  20  37  56  85 123 152 195 249 296 360
#     4   9  21  39  56  82 117 153 195 249 299 351
#     4  10  18  38  57  79 120 153 188 242 296 349
#     4  11  20  37  63  84 114 156 201 249 297 355
#     4   9  21  34  54  88 111 150 196 246 294 354
#
# _framework density 20.152936
#
# number of rings (size 3 to 8) (size 9 to 14) (size 15 to 20)
#    1.200    0.800    4.000    0.000    0.000    2.000 
#    7.200    2.000    0.000    0.000    0.000    0.000 
#    0.000    0.000    0.000    0.000    0.000    0.000 
#
# Total GULP energy -495599.750107 kJ/mol
# GULP energy per Si atom -12389.993753 kJ/mol
# Density = 2.010707 g / cm^3
# Si number density = 20.152936 Si / 1000 Ang^3
#
#
#
# Elastic Constant Matrix: (Units=GPa)
#
#
# Indices 1 2 3 4 5 6 
#
# 1 132.8333 11.7056 59.8036 0.0000 0.0000 0.0000
# 2 11.7056 25.9037 3.0067 0.0000 0.0000 0.0000
# 3 59.8036 3.0067 135.6375 0.0000 0.0000 0.0000
# 4 0.0000 0.0000 0.0000 18.5123 0.0000 0.0000
# 5 0.0000 0.0000 0.0000 0.0000 40.8664 0.0000
# 6 0.0000 0.0000 0.0000 0.0000 0.0000 19.6893
#
#
#
# Elastic Compliance Matrix: (Units=1/GPa)
#
#
# Indices 1 2 3 4 5 6 
#
# 1 0.009776 -0.003927 -0.004223 0.000000 0.000000 0.000000
# 2 -0.003927 0.040282 0.000839 0.000000 0.000000 0.000000
# 3 -0.004223 0.000839 0.009216 0.000000 0.000000 0.000000
# 4 0.000000 0.000000 0.000000 0.054018 0.000000 0.000000
# 5 0.000000 0.000000 0.000000 0.000000 0.024470 0.000000
# 6 0.000000 0.000000 0.000000 0.000000 0.000000 0.050789
#
#
# Mechanical properties :
#
#
# Convention : Reuss Voigt Hill
#
# Bulk Modulus (GPa) = 22.39645 49.26737 35.83191
# Shear Modulus (GPa) = 22.92976 30.47085 26.70031
#
# Velocity S-wave (km/s) = 3.37677 3.89264 3.64384
# Velocity P-wave (km/s) = 5.13233 6.68605 5.96004
#
# Compressibility (1/GPa) = 0.04464994
#
# Stress axis : x y z
#
# Youngs Moduli (GPa) = 102.29532 24.82509 108.50699
#
# Poissons Ratio (x) = 0.09750 0.45823
# Poissons Ratio (y) = 0.40174 -0.09100
# Poissons Ratio (z) = 0.43200 -0.02082
#
# Static dielectric constant tensor:
#      x y z
#    x 3.594150 0.000000 0.000000 
#    y 0.000000 2.994170 0.000000 
#    z 0.000000 0.000000 3.658170 
# 
# 
# High freq. dielectric constant tensor:
#      x y z
#    x 1.786100 0.000000 0.000000 
#    y 0.000000 1.749260 0.000000 
#    z 0.000000 0.000000 1.790070 
# 
# From -- ./inp_files/51122.got.cif
#   From: 2010.03.12/outbox.cif.g09.slc.cpg/sg70_26_cif.got.tgz:51122.got - 2010.04.16 13:46:32.
