data_PCOD8285428
_publ_section_title
;
Structure prediction by ZEFSAII (Michael W. Deem and Ramdas Pophale) SiO2 
 PCOD8285428
Probable space group: F M M M
;
_chemical_formula_sum "Si O2"
_cell_formula_units_Z 96
_cell_length_a 9.923836
_cell_length_b 21.874589
_cell_length_c 19.798054
_cell_angle_alpha 90.000000
_cell_angle_beta 90.000000
_cell_angle_gamma 90.000000
_cell_volume 4297.758272
_symmetry_space_group_name_H-M "F M M M"
_symmetry_group_IT_number 69
_symmetry_cell_setting 'orthorhombic'
loop_
_space_group_symop_operation_xyz
x,y,z
-x,-y,z
x,-y,-z
-x,y,-z
-x,-y,-z
x,y,-z
-x,y,z
x,-y,z
x,1/2+y,1/2+z
-x,1/2-y,1/2+z
x,1/2-y,1/2-z
-x,1/2+y,1/2-z
-x,1/2-y,1/2-z
x,1/2+y,1/2-z
-x,1/2+y,1/2+z
x,1/2-y,1/2+z
1/2+x,y,1/2+z
1/2-x,-y,1/2+z
1/2+x,-y,1/2-z
1/2-x,y,1/2-z
1/2-x,-y,1/2-z
1/2+x,y,1/2-z
1/2-x,y,1/2+z
1/2+x,-y,1/2+z
1/2+x,1/2+y,z
1/2-x,1/2-y,z
1/2+x,1/2-y,-z
1/2-x,1/2+y,-z
1/2-x,1/2-y,-z
1/2+x,1/2+y,-z
1/2-x,1/2+y,z
1/2+x,1/2-y,z
loop_
_atom_site_type_symbol
_atom_site_label
_atom_site_fract_x
_atom_site_fract_y
_atom_site_fract_z
Si Si1 0.750000 0.399034 0.250000
Si Si2 0.500000 0.677550 0.243613
Si Si3 0.849412 0.500000 0.653069
Si Si4 0.238354 0.132004 0.000000
Si Si5 0.276796 0.500000 0.000000
Si Si6 0.500000 0.328205 0.088495
Si Si7 0.500000 0.284858 0.500000
O O1 0.630755 0.354262 0.275382
O O2 0.778020 0.440045 0.316135
O O3 0.500000 0.750000 0.250000
O O4 0.500000 0.660656 0.166059
O O5 0.858131 0.500000 0.571149
O O6 0.000000 0.500000 0.681796
O O7 0.304952 0.063881 0.000000
O O8 0.138323 0.140570 0.936627
O O9 0.136867 0.322663 0.000000
O O10 0.500000 0.257056 0.066835
#
# Coordination Sequence:
#
# PCOD8285428 Si02
#       7
#    16  16  16  16   8  16   8
#     4  11  25  46  68 100 137 181 234 278 352 407
#     4  12  26  43  67  97 134 181 231 282 333 405
#     4  11  24  44  75  97 134 180 233 290 341 412
#     4  10  23  39  68  99 135 170 214 280 344 408
#     4  12  25  39  70 108 130 172 234 284 334 412
#     4  10  22  42  68  95 123 178 232 269 323 411
#     4  10  22  43  66  97 140 174 210 276 362 398
#
# _framework density 22.337225
#
# number of rings (size 3 to 8) (size 9 to 14) (size 15 to 20)
#    0.000    1.333    1.667    4.750    4.667    8.333 
#    0.000    1.667    0.000    0.000    0.000    0.000 
#    0.000    0.000    0.000    0.000    0.000    0.000 
#
# Total GULP energy -297353.847826 kJ/mol
# GULP energy per Si atom -12389.743659 kJ/mol
# Density = 2.228638 g / cm^3
# Si number density = 22.337225 Si / 1000 Ang^3
#
#
#
# Elastic Constant Matrix: (Units=GPa)
#
#
# Indices 1 2 3 4 5 6 
#
# 1 151.2358 80.9587 29.0155 0.0000 0.0000 0.0000
# 2 80.9587 205.7121 28.5270 0.0000 0.0000 0.0000
# 3 29.0155 28.5270 107.7788 0.0000 0.0000 0.0000
# 4 0.0000 0.0000 0.0000 5.9289 0.0000 0.0000
# 5 0.0000 0.0000 0.0000 0.0000 49.8550 0.0000
# 6 0.0000 0.0000 0.0000 0.0000 0.0000 11.9639
#
#
#
# Elastic Compliance Matrix: (Units=1/GPa)
#
#
# Indices 1 2 3 4 5 6 
#
# 1 0.008596 -0.003179 -0.001473 0.000000 0.000000 0.000000
# 2 -0.003179 0.006222 -0.000791 0.000000 0.000000 0.000000
# 3 -0.001473 -0.000791 0.009884 0.000000 0.000000 0.000000
# 4 0.000000 0.000000 0.000000 0.168667 0.000000 0.000000
# 5 0.000000 0.000000 0.000000 0.000000 0.020058 0.000000
# 6 0.000000 0.000000 0.000000 0.000000 0.000000 0.083585
#
#
# Mechanical properties :
#
#
# Convention : Reuss Voigt Hill
#
# Bulk Modulus (GPa) = 72.37509 82.41434 77.39472
# Shear Modulus (GPa) = 15.99982 35.29793 25.64888
#
# Velocity S-wave (km/s) = 2.67925 3.97952 3.39227
# Velocity P-wave (km/s) = 6.48403 7.62175 7.07579
#
# Compressibility (1/GPa) = 0.01381691
#
# Stress axis : x y z
#
# Youngs Moduli (GPa) = 116.32644 160.72173 101.17210
#
# Poissons Ratio (x) = 0.51092 0.14902
# Poissons Ratio (y) = 0.36979 0.08003
# Poissons Ratio (z) = 0.17134 0.12713
#
# Static dielectric constant tensor:
#      x y z
#    x 4.266340 0.000000 0.000000 
#    y 0.000000 4.456100 0.000000 
#    z 0.000000 0.000000 4.131860 
# 
# 
# High freq. dielectric constant tensor:
#      x y z
#    x 1.866250 0.000000 0.000000 
#    y 0.000000 1.910530 0.000000 
#    z 0.000000 0.000000 1.872440 
# 
# From -- ./inp_files/28872.got.cif
#   From: 2010.03.12/outbox.cif.g09.slc.cpg/sg69_15_cif.got.tgz:28872.got - 2010.04.10 23:52:46.
