data_PCOD8285083
_publ_section_title
;
Structure prediction by ZEFSAII (Michael W. Deem and Ramdas Pophale) SiO2 
 PCOD8285083
Probable space group: F M M M
;
_chemical_formula_sum "Si O2"
_cell_formula_units_Z 200
_cell_length_a 30.464923
_cell_length_b 19.686631
_cell_length_c 18.350106
_cell_angle_alpha 90.000000
_cell_angle_beta 90.000000
_cell_angle_gamma 90.000000
_cell_volume 11005.507224
_symmetry_space_group_name_H-M "F M M M"
_symmetry_group_IT_number 69
_symmetry_cell_setting 'orthorhombic'
loop_
_space_group_symop_operation_xyz
x,y,z
-x,-y,z
x,-y,-z
-x,y,-z
-x,-y,-z
x,y,-z
-x,y,z
x,-y,z
x,1/2+y,1/2+z
-x,1/2-y,1/2+z
x,1/2-y,1/2-z
-x,1/2+y,1/2-z
-x,1/2-y,1/2-z
x,1/2+y,1/2-z
-x,1/2+y,1/2+z
x,1/2-y,1/2+z
1/2+x,y,1/2+z
1/2-x,-y,1/2+z
1/2+x,-y,1/2-z
1/2-x,y,1/2-z
1/2-x,-y,1/2-z
1/2+x,y,1/2-z
1/2-x,y,1/2+z
1/2+x,-y,1/2+z
1/2+x,1/2+y,z
1/2-x,1/2-y,z
1/2+x,1/2-y,-z
1/2-x,1/2+y,-z
1/2-x,1/2-y,-z
1/2+x,1/2+y,-z
1/2-x,1/2+y,z
1/2+x,1/2-y,z
loop_
_atom_site_type_symbol
_atom_site_label
_atom_site_fract_x
_atom_site_fract_y
_atom_site_fract_z
Si Si1 0.750000 0.750000 0.750000
Si Si2 0.381696 0.244935 0.081177
Si Si3 0.668800 0.880059 0.581125
Si Si4 0.324490 0.845341 0.818722
Si Si5 0.750243 0.924256 0.162853
Si Si6 0.050736 0.804726 0.812923
Si Si7 0.885354 0.422052 0.293218
O O1 0.715743 0.794961 0.797227
O O2 0.345043 0.302143 0.076998
O O3 0.362576 0.185908 0.131974
O O4 0.426101 0.275725 0.114969
O O5 0.392388 0.217096 0.000000
O O6 0.673692 0.910857 0.500000
O O7 0.714627 0.876926 0.623564
O O8 0.632635 0.924868 0.624071
O O9 0.298884 0.904083 0.863884
O O10 0.348045 0.880726 0.750224
O O11 0.750000 0.915090 0.250000
O O12 0.761933 0.000000 0.139103
O O13 0.058688 0.750000 0.750000
O O14 0.069850 0.878397 0.789244
O O15 0.000000 0.815380 0.830832
O O16 0.892891 0.500000 0.265663
#
# Coordination Sequence:
#
# PCOD8285083 Si02
#       7
#     8  32  32  32  32  32  32
#     4  12  20  28  52  80 110 152 204 244 280 308
#     4  10  22  38  57  83 113 147 189 236 287 341
#     4  10  21  36  54  79 111 150 193 236 282 333
#     4  12  20  34  51  80 108 153 195 240 280 328
#     4  11  21  33  49  72 106 150 196 236 278 329
#     4  10  20  38  63  90 112 139 183 230 281 347
#     4  11  21  35  58  86 118 152 185 229 288 350
#
# _framework density 18.172720000000002
#
# number of rings (size 3 to 8) (size 9 to 14) (size 15 to 20)
#    0.000    1.280    4.000    3.840    0.000    2.560 
#    0.000    2.000    0.000    1.440    0.000    4.480 
#    0.000    2.560    0.000    0.000    0.000    0.000 
#
# Total GULP energy -619580.419487 kJ/mol
# GULP energy per Si atom -12391.608390 kJ/mol
# Density = 1.813136 g / cm^3
# Si number density = 18.172720 Si / 1000 Ang^3
#
#
#
# Elastic Constant Matrix: (Units=GPa)
#
#
# Indices 1 2 3 4 5 6 
#
# 1 131.7532 48.6198 53.5490 0.0000 0.0000 0.0000
# 2 48.6198 86.1870 44.1561 0.0000 0.0000 0.0000
# 3 53.5490 44.1561 96.2721 0.0000 0.0000 0.0000
# 4 0.0000 0.0000 0.0000 14.1402 0.0000 0.0000
# 5 0.0000 0.0000 0.0000 0.0000 19.8736 0.0000
# 6 0.0000 0.0000 0.0000 0.0000 0.0000 20.3306
#
#
#
# Elastic Compliance Matrix: (Units=1/GPa)
#
#
# Indices 1 2 3 4 5 6 
#
# 1 0.010731 -0.003916 -0.004173 0.000000 0.000000 0.000000
# 2 -0.003916 0.016595 -0.005434 0.000000 0.000000 0.000000
# 3 -0.004173 -0.005434 0.015200 0.000000 0.000000 0.000000
# 4 0.000000 0.000000 0.000000 0.070721 0.000000 0.000000
# 5 0.000000 0.000000 0.000000 0.000000 0.050318 0.000000
# 6 0.000000 0.000000 0.000000 0.000000 0.000000 0.049187
#
#
# Mechanical properties :
#
#
# Convention : Reuss Voigt Hill
#
# Bulk Modulus (GPa) = 64.58920 67.42912 66.00916
# Shear Modulus (GPa) = 20.41171 22.06136 21.23654
#
# Velocity S-wave (km/s) = 3.35506 3.48800 3.42218
# Velocity P-wave (km/s) = 7.11531 7.30799 7.21229
#
# Compressibility (1/GPa) = 0.01548246
#
# Stress axis : x y z
#
# Youngs Moduli (GPa) = 93.18883 60.25769 65.78741
#
# Poissons Ratio (x) = 0.23595 0.27452
# Poissons Ratio (y) = 0.36489 0.35747
# Poissons Ratio (z) = 0.38886 0.32742
#
# Static dielectric constant tensor:
#      x y z
#    x 3.328690 0.000000 0.000000 
#    y 0.000000 3.580060 0.000000 
#    z 0.000000 0.000000 3.370320 
# 
# 
# High freq. dielectric constant tensor:
#      x y z
#    x 1.696540 0.000000 0.000000 
#    y 0.000000 1.704730 0.000000 
#    z 0.000000 0.000000 1.687880 
# 
# From -- ./inp_files/27918.got.cif
#   From: 2010.03.12/outbox.cif.g09.slc.cpg/sg69_14_cif.got.tgz:27918.got - 2010.04.10 23:52:46.
