data_PCOD8285546
_publ_section_title
;
Structure prediction by ZEFSAII (Michael W. Deem and Ramdas Pophale) SiO2 
 PCOD8285546
Probable space group: F M M M
;
_chemical_formula_sum "Si O2"
_cell_formula_units_Z 136
_cell_length_a 22.545759
_cell_length_b 13.801119
_cell_length_c 25.460130
_cell_angle_alpha 90.000000
_cell_angle_beta 90.000000
_cell_angle_gamma 90.000000
_cell_volume 7922.090106
_symmetry_space_group_name_H-M "F M M M"
_symmetry_group_IT_number 69
_symmetry_cell_setting 'orthorhombic'
loop_
_space_group_symop_operation_xyz
x,y,z
-x,-y,z
x,-y,-z
-x,y,-z
-x,-y,-z
x,y,-z
-x,y,z
x,-y,z
x,1/2+y,1/2+z
-x,1/2-y,1/2+z
x,1/2-y,1/2-z
-x,1/2+y,1/2-z
-x,1/2-y,1/2-z
x,1/2+y,1/2-z
-x,1/2+y,1/2+z
x,1/2-y,1/2+z
1/2+x,y,1/2+z
1/2-x,-y,1/2+z
1/2+x,-y,1/2-z
1/2-x,y,1/2-z
1/2-x,-y,1/2-z
1/2+x,y,1/2-z
1/2-x,y,1/2+z
1/2+x,-y,1/2+z
1/2+x,1/2+y,z
1/2-x,1/2-y,z
1/2+x,1/2-y,-z
1/2-x,1/2+y,-z
1/2-x,1/2-y,-z
1/2+x,1/2+y,-z
1/2-x,1/2+y,z
1/2+x,1/2-y,z
loop_
_atom_site_type_symbol
_atom_site_label
_atom_site_fract_x
_atom_site_fract_y
_atom_site_fract_z
Si Si1 0.315923 0.286098 0.191859
Si Si2 0.218143 0.500000 0.500000
Si Si3 0.123514 0.191439 0.596687
Si Si4 0.281446 0.000000 0.305335
Si Si5 0.802727 0.500000 0.901957
Si Si6 0.682862 0.790057 0.500000
Si Si7 0.000000 0.613981 0.062669
O O1 0.331668 0.250000 0.250000
O O2 0.250000 0.250000 0.175501
O O3 0.364631 0.242063 0.152692
O O4 0.320709 0.402973 0.188712
O O5 0.256277 0.500000 0.448016
O O6 0.178045 0.405435 0.500000
O O7 0.148244 0.259680 0.551571
O O8 0.054634 0.170032 0.588819
O O9 0.156360 0.091228 0.592059
O O10 0.250000 0.000000 0.250000
O O11 0.228735 0.000000 0.346497
O O12 0.750000 0.750000 0.500000
O O13 0.000000 0.500000 0.077345
O O14 0.000000 0.626734 0.000000
#
# Coordination Sequence:
#
# PCOD8285546 Si02
#       7
#    32   8  32  16  16  16  16
#     4  11  21  36  58  89 123 157 187 237 298 355
#     4  12  24  32  50  88 120 152 180 226 304 374
#     4  12  22  38  57  86 118 152 196 245 297 346
#     4  12  20  34  57  88 125 158 192 224 292 371
#     4  12  20  31  57  84 118 150 187 237 287 364
#     4  12  22  35  55  83 119 151 184 237 303 364
#     4  11  24  40  63  86 114 158 208 255 299 336
#
# _framework density 17.167186999999998
#
# number of rings (size 3 to 8) (size 9 to 14) (size 15 to 20)
#    0.000    0.353    9.412    2.118    0.000    0.000 
#    0.000    0.588    0.000    3.529    0.000    0.000 
#    0.000    0.000    0.000    0.000    0.000    0.000 
#
# Total GULP energy -421675.915434 kJ/mol
# GULP energy per Si atom -12402.232807 kJ/mol
# Density = 1.712811 g / cm^3
# Si number density = 17.167187 Si / 1000 Ang^3
#
#
#
# Elastic Constant Matrix: (Units=GPa)
#
#
# Indices 1 2 3 4 5 6 
#
# 1 115.2173 60.2899 67.9360 0.0000 0.0000 0.0000
# 2 60.2899 170.7201 48.4874 0.0000 0.0000 0.0000
# 3 67.9360 48.4874 120.1976 0.0000 0.0000 0.0000
# 4 0.0000 0.0000 0.0000 36.4334 0.0000 0.0000
# 5 0.0000 0.0000 0.0000 0.0000 33.7156 0.0000
# 6 0.0000 0.0000 0.0000 0.0000 0.0000 29.0841
#
#
#
# Elastic Compliance Matrix: (Units=1/GPa)
#
#
# Indices 1 2 3 4 5 6 
#
# 1 0.014354 -0.003123 -0.006853 0.000000 0.000000 0.000000
# 2 -0.003123 0.007295 -0.001178 0.000000 0.000000 0.000000
# 3 -0.006853 -0.001178 0.012668 0.000000 0.000000 0.000000
# 4 0.000000 0.000000 0.000000 0.027447 0.000000 0.000000
# 5 0.000000 0.000000 0.000000 0.000000 0.029660 0.000000
# 6 0.000000 0.000000 0.000000 0.000000 0.000000 0.034383
#
#
# Mechanical properties :
#
#
# Convention : Reuss Voigt Hill
#
# Bulk Modulus (GPa) = 83.26612 84.39573 83.83093
# Shear Modulus (GPa) = 32.86909 35.14139 34.00524
#
# Velocity S-wave (km/s) = 4.38041 4.52930 4.45548
# Velocity P-wave (km/s) = 8.61350 8.75331 8.68369
#
# Compressibility (1/GPa) = 0.01200969
#
# Stress axis : x y z
#
# Youngs Moduli (GPa) = 69.66566 137.08321 78.93734
#
# Poissons Ratio (x) = 0.42808 0.54099
# Poissons Ratio (y) = 0.21755 0.09297
# Poissons Ratio (z) = 0.47744 0.16145
#
# Static dielectric constant tensor:
#      x y z
#    x 2.984680 0.000000 0.000000 
#    y 0.000000 3.642570 0.000000 
#    z 0.000000 0.000000 3.381480 
# 
# 
# High freq. dielectric constant tensor:
#      x y z
#    x 1.624380 0.000000 0.000000 
#    y 0.000000 1.683810 0.000000 
#    z 0.000000 0.000000 1.680250 
# 
# From -- ./inp_files/16659.got.cif
#   From: 2010.03.12/outbox.cif.g09.slc.cpg/sg69_9_cif.got.tgz:16659.got - 2010.04.10 23:52:46.
