data_PCOD8285804
_publ_section_title
;
Structure prediction by ZEFSAII (Michael W. Deem and Ramdas Pophale) SiO2 
 PCOD8285804
Probable space group: F D D D
;
_chemical_formula_sum "Si O2"
_cell_formula_units_Z 168
_cell_length_a 23.706309
_cell_length_b 16.457728
_cell_length_c 23.999302
_cell_angle_alpha 90.000000
_cell_angle_beta 90.000000
_cell_angle_gamma 90.000000
_cell_volume 9363.375324
_symmetry_space_group_name_H-M "F D D D"
_symmetry_group_IT_number 70
_space_group.IT_coordinate_system_code '2'
_symmetry_cell_setting 'orthorhombic'
loop_
_space_group_symop_operation_xyz
x,y,z
1/4-x,1/4-y,z
x,1/4-y,1/4-z
1/4-x,y,1/4-z
-x,-y,-z
3/4+x,3/4+y,-z
-x,3/4+y,3/4+z
3/4+x,-y,3/4+z
x,1/2+y,1/2+z
1/4-x,3/4-y,1/2+z
x,3/4-y,3/4-z
1/4-x,1/2+y,3/4-z
-x,1/2-y,1/2-z
3/4+x,1/4+y,1/2-z
-x,1/4+y,1/4+z
3/4+x,1/2-y,1/4+z
1/2+x,y,1/2+z
3/4-x,1/4-y,1/2+z
1/2+x,1/4-y,3/4-z
3/4-x,y,3/4-z
1/2-x,-y,1/2-z
1/4+x,3/4+y,1/2-z
1/2-x,3/4+y,1/4+z
1/4+x,-y,1/4+z
1/2+x,1/2+y,z
3/4-x,3/4-y,z
1/2+x,3/4-y,1/4-z
3/4-x,1/2+y,1/4-z
1/2-x,1/2-y,-z
1/4+x,1/4+y,-z
1/2-x,1/4+y,3/4+z
1/4+x,1/2-y,3/4+z
loop_
_atom_site_type_symbol
_atom_site_label
_atom_site_fract_x
_atom_site_fract_y
_atom_site_fract_z
Si Si1 0.958802 0.035693 0.775956
Si Si2 0.375000 0.375000 0.375000
Si Si3 0.171960 0.776925 0.516795
Si Si4 0.018516 0.058317 0.665616
Si Si5 0.310253 0.606341 0.381850
Si Si6 0.995171 0.862674 0.809072
O O1 0.992599 0.952782 0.784939
O O2 0.894432 0.019789 0.759277
O O3 0.962262 0.095564 0.828191
O O4 0.990325 0.076546 0.724425
O O5 0.413927 0.426554 0.332560
O O6 0.192634 0.834201 0.566229
O O7 0.198251 0.814166 0.459790
O O8 0.192748 0.687075 0.533301
O O9 0.989451 0.125000 0.625000
O O10 0.015035 0.966021 0.642309
O O11 0.375000 0.575972 0.375000
O O12 0.991977 0.875000 0.875000
#
# Coordination Sequence:
#
# PCOD8285804 Si02
#       6
#    32   8  32  32  32  32
#     4  11  22  34  60  87 112 146 197 239 284 346
#     4   8  20  40  64  76 108 150 196 240 296 340
#     4  10  22  35  57  84 118 152 186 239 287 345
#     4  10  20  38  60  80 111 146 189 243 288 339
#     4  10  18  35  58  83 106 145 190 233 283 344
#     4  11  21  37  57  84 119 154 189 229 291 349
#
# _framework density 17.942247999999999
#
# number of rings (size 3 to 8) (size 9 to 14) (size 15 to 20)
#    0.571    1.143    4.762    0.571    0.000    2.286 
#    0.000    0.000    4.190    0.000    0.000    0.000 
#    0.000    0.000    0.000    0.000    0.000    0.000 
#
# Total GULP energy -520427.679360 kJ/mol
# GULP energy per Si atom -12391.135223 kJ/mol
# Density = 1.790141 g / cm^3
# Si number density = 17.942248 Si / 1000 Ang^3
#
#
#
# Elastic Constant Matrix: (Units=GPa)
#
#
# Indices 1 2 3 4 5 6 
#
# 1 47.4977 -0.0987 40.4346 0.0000 0.0000 0.0000
# 2 -0.0987 80.3679 40.8894 0.0000 0.0000 0.0000
# 3 40.4346 40.8894 105.8245 0.0000 0.0000 0.0000
# 4 0.0000 0.0000 0.0000 27.4849 0.0000 0.0000
# 5 0.0000 0.0000 0.0000 0.0000 28.4027 0.0000
# 6 0.0000 0.0000 0.0000 0.0000 0.0000 13.4165
#
#
#
# Elastic Compliance Matrix: (Units=1/GPa)
#
#
# Indices 1 2 3 4 5 6 
#
# 1 0.035436 0.008629 -0.016874 0.000000 0.000000 0.000000
# 2 0.008629 0.017588 -0.010093 0.000000 0.000000 0.000000
# 3 -0.016874 -0.010093 0.019797 0.000000 0.000000 0.000000
# 4 0.000000 0.000000 0.000000 0.036384 0.000000 0.000000
# 5 0.000000 0.000000 0.000000 0.000000 0.035208 0.000000
# 6 0.000000 0.000000 0.000000 0.000000 0.000000 0.074535
#
#
# Mechanical properties :
#
#
# Convention : Reuss Voigt Hill
#
# Bulk Modulus (GPa) = 27.66625 44.01564 35.84095
# Shear Modulus (GPa) = 18.67953 24.02514 21.35233
#
# Velocity S-wave (km/s) = 3.23010 3.66324 3.45347
# Velocity P-wave (km/s) = 5.41890 6.51748 5.99341
#
# Compressibility (1/GPa) = 0.03614512
#
# Stress axis : x y z
#
# Youngs Moduli (GPa) = 28.21963 56.85556 50.51327
#
# Poissons Ratio (x) = -0.49058 0.85236
# Poissons Ratio (y) = -0.24350 0.50983
# Poissons Ratio (z) = 0.47618 0.57384
#
# Static dielectric constant tensor:
#      x y z
#    x 3.141720 0.000000 0.000000 
#    y 0.000000 3.436740 0.000000 
#    z 0.000000 0.000000 3.287720 
# 
# 
# High freq. dielectric constant tensor:
#      x y z
#    x 1.673790 0.000000 0.000000 
#    y 0.000000 1.710020 0.000000 
#    z 0.000000 0.000000 1.690330 
# 
# From -- ./inp_files/53699.got.cif
#   From: 2010.03.12/outbox.cif.g09.slc.cpg/sg70_27_cif.got.tgz:53699.got - 2010.04.16 13:46:32.
