data_PCOD8285737
_publ_section_title
;
Structure prediction by ZEFSAII (Michael W. Deem and Ramdas Pophale) SiO2 
 PCOD8285737
Probable space group: F D D D
;
_chemical_formula_sum "Si O2"
_cell_formula_units_Z 152
_cell_length_a 30.886884
_cell_length_b 19.220308
_cell_length_c 12.630519
_cell_angle_alpha 90.000000
_cell_angle_beta 90.000000
_cell_angle_gamma 90.000000
_cell_volume 7498.176108
_symmetry_space_group_name_H-M "F D D D"
_symmetry_group_IT_number 70
_space_group.IT_coordinate_system_code '2'
_symmetry_cell_setting 'orthorhombic'
loop_
_space_group_symop_operation_xyz
x,y,z
1/4-x,1/4-y,z
x,1/4-y,1/4-z
1/4-x,y,1/4-z
-x,-y,-z
3/4+x,3/4+y,-z
-x,3/4+y,3/4+z
3/4+x,-y,3/4+z
x,1/2+y,1/2+z
1/4-x,3/4-y,1/2+z
x,3/4-y,3/4-z
1/4-x,1/2+y,3/4-z
-x,1/2-y,1/2-z
3/4+x,1/4+y,1/2-z
-x,1/4+y,1/4+z
3/4+x,1/2-y,1/4+z
1/2+x,y,1/2+z
3/4-x,1/4-y,1/2+z
1/2+x,1/4-y,3/4-z
3/4-x,y,3/4-z
1/2-x,-y,1/2-z
1/4+x,3/4+y,1/2-z
1/2-x,3/4+y,1/4+z
1/4+x,-y,1/4+z
1/2+x,1/2+y,z
3/4-x,3/4-y,z
1/2+x,3/4-y,1/4-z
3/4-x,1/2+y,1/4-z
1/2-x,1/2-y,-z
1/4+x,1/4+y,-z
1/2-x,1/4+y,3/4+z
1/4+x,1/2-y,3/4+z
loop_
_atom_site_type_symbol
_atom_site_label
_atom_site_fract_x
_atom_site_fract_y
_atom_site_fract_z
Si Si1 0.375000 0.875000 0.875000
Si Si2 0.957228 0.451949 0.609976
Si Si3 0.125000 0.859006 0.125000
Si Si4 0.121413 0.736693 0.280997
Si Si5 0.834334 0.325421 0.227853
Si Si6 0.303083 0.027480 0.353791
O O1 0.400667 0.821418 0.797057
O O2 0.921975 0.464903 0.702135
O O3 0.954761 0.373875 0.562189
O O4 0.949517 0.510072 0.519907
O O5 0.005807 0.459198 0.654778
O O6 0.119120 0.812705 0.230345
O O7 0.082115 0.904606 0.116079
O O8 0.095687 0.734669 0.391792
O O9 0.875000 0.375000 0.244746
O O10 0.823775 0.288660 0.337684
#
# Coordination Sequence:
#
# PCOD8285737 Si02
#       6
#     8  32  16  32  32  32
#     4  10  16  40  60  86 106 164 202 236 278 370
#     4  10  22  40  60  91 118 162 198 254 292 362
#     4  11  24  39  59  92 123 164 192 254 307 364
#     4  10  21  38  65  83 121 158 205 239 302 356
#     4  10  20  40  64  88 114 165 204 244 292 374
#     4  11  24  37  61  92 128 150 201 251 311 351
#
# _framework density 20.271597
#
# number of rings (size 3 to 8) (size 9 to 14) (size 15 to 20)
#    0.000    1.684    3.158    3.158    2.947    5.895 
#    0.000    3.158    0.000    0.000    0.000    0.000 
#    0.000    0.000    0.000    0.000    0.000    0.000 
#
# Total GULP energy -471076.845334 kJ/mol
# GULP energy per Si atom -12396.759088 kJ/mol
# Density = 2.022546 g / cm^3
# Si number density = 20.271597 Si / 1000 Ang^3
#
#
#
# Elastic Constant Matrix: (Units=GPa)
#
#
# Indices 1 2 3 4 5 6 
#
# 1 101.4731 48.8450 40.6766 0.0000 0.0000 0.0000
# 2 48.8450 127.4953 32.4982 0.0000 0.0000 0.0000
# 3 40.6766 32.4982 67.5886 0.0000 0.0000 0.0000
# 4 0.0000 0.0000 0.0000 35.6267 0.0000 0.0000
# 5 0.0000 0.0000 0.0000 0.0000 16.2215 0.0000
# 6 0.0000 0.0000 0.0000 0.0000 0.0000 19.9730
#
#
#
# Elastic Compliance Matrix: (Units=1/GPa)
#
#
# Indices 1 2 3 4 5 6 
#
# 1 0.014425 -0.003776 -0.006865 0.000000 0.000000 0.000000
# 2 -0.003776 0.009928 -0.002501 0.000000 0.000000 0.000000
# 3 -0.006865 -0.002501 0.020130 0.000000 0.000000 0.000000
# 4 0.000000 0.000000 0.000000 0.028069 0.000000 0.000000
# 5 0.000000 0.000000 0.000000 0.000000 0.061647 0.000000
# 6 0.000000 0.000000 0.000000 0.000000 0.000000 0.050067
#
#
# Mechanical properties :
#
#
# Convention : Reuss Voigt Hill
#
# Bulk Modulus (GPa) = 54.95424 60.06628 57.51026
# Shear Modulus (GPa) = 23.08239 26.00006 24.54122
#
# Velocity S-wave (km/s) = 3.37806 3.58521 3.48317
# Velocity P-wave (km/s) = 6.51021 6.84349 6.67893
#
# Compressibility (1/GPa) = 0.01819696
#
# Stress axis : x y z
#
# Youngs Moduli (GPa) = 69.32577 100.72924 49.67809
#
# Poissons Ratio (x) = 0.38038 0.34106
# Poissons Ratio (y) = 0.26179 0.12423
# Poissons Ratio (z) = 0.47595 0.25190
#
# Static dielectric constant tensor:
#      x y z
#    x 3.726030 0.000000 0.000000 
#    y 0.000000 3.780260 0.000000 
#    z 0.000000 0.000000 3.796480 
# 
# 
# High freq. dielectric constant tensor:
#      x y z
#    x 1.768240 0.000000 0.000000 
#    y 0.000000 1.798070 0.000000 
#    z 0.000000 0.000000 1.794860 
# 
# From -- ./inp_files/31028.got.cif
#   From: 2010.03.12/outbox.cif.g09.slc.cpg/sg70_16_cif.got.tgz:31028.got - 2010.04.16 13:46:32.
