data_PCOD8285573
_publ_section_title
;
Structure prediction by ZEFSAII (Michael W. Deem and Ramdas Pophale) SiO2 
 PCOD8285573
Probable space group: F M M M
;
_chemical_formula_sum "Si O2"
_cell_formula_units_Z 144
_cell_length_a 17.676742
_cell_length_b 16.861909
_cell_length_c 23.350244
_cell_angle_alpha 90.000000
_cell_angle_beta 90.000000
_cell_angle_gamma 90.000000
_cell_volume 6959.858138
_symmetry_space_group_name_H-M "F M M M"
_symmetry_group_IT_number 69
_symmetry_cell_setting 'orthorhombic'
loop_
_space_group_symop_operation_xyz
x,y,z
-x,-y,z
x,-y,-z
-x,y,-z
-x,-y,-z
x,y,-z
-x,y,z
x,-y,z
x,1/2+y,1/2+z
-x,1/2-y,1/2+z
x,1/2-y,1/2-z
-x,1/2+y,1/2-z
-x,1/2-y,1/2-z
x,1/2+y,1/2-z
-x,1/2+y,1/2+z
x,1/2-y,1/2+z
1/2+x,y,1/2+z
1/2-x,-y,1/2+z
1/2+x,-y,1/2-z
1/2-x,y,1/2-z
1/2-x,-y,1/2-z
1/2+x,y,1/2-z
1/2-x,y,1/2+z
1/2+x,-y,1/2+z
1/2+x,1/2+y,z
1/2-x,1/2-y,z
1/2+x,1/2-y,-z
1/2-x,1/2+y,-z
1/2-x,1/2-y,-z
1/2+x,1/2+y,-z
1/2-x,1/2+y,z
1/2+x,1/2-y,z
loop_
_atom_site_type_symbol
_atom_site_label
_atom_site_fract_x
_atom_site_fract_y
_atom_site_fract_z
Si Si1 0.665776 0.909930 0.261465
Si Si2 0.910745 0.311550 0.360690
Si Si3 0.416354 0.000000 0.940087
Si Si4 0.222020 0.339040 0.436433
Si Si5 0.859629 0.131237 0.638033
O O1 0.750000 0.875597 0.250000
O O2 0.617940 0.853810 0.303003
O O3 0.628132 0.909508 0.199158
O O4 0.667452 0.000000 0.285632
O O5 0.864999 0.346190 0.415263
O O6 0.891728 0.219267 0.356964
O O7 0.000000 0.326535 0.368955
O O8 0.407100 0.918856 0.906209
O O9 0.500000 0.000000 0.961335
O O10 0.367771 0.000000 0.000000
O O11 0.227905 0.379025 0.500000
O O12 0.250000 0.250000 0.442786
O O13 0.273386 0.377138 0.386116
#
# Coordination Sequence:
#
# PCOD8285573 Si02
#       5
#    32  32  16  32  32
#     4  11  23  41  65  91 121 163 213 264 322 382
#     4  11  24  39  62  95 129 167 212 263 323 389
#     4  11  24  40  61  96 137 169 207 266 326 378
#     4   9  19  37  62  89 119 162 212 259 307 372
#     4  11  21  40  65  90 126 167 216 259 317 385
#
# _framework density 20.690076999999999
#
# number of rings (size 3 to 8) (size 9 to 14) (size 15 to 20)
#    0.000    1.444    3.333    2.000    0.000    5.333 
#    0.000    0.000    0.000    0.000    0.000    1.556 
#    0.000    0.000    0.000    0.000    0.000    0.000 
#
# Total GULP energy -446059.897209 kJ/mol
# GULP energy per Si atom -12390.552700 kJ/mol
# Density = 2.064299 g / cm^3
# Si number density = 20.690077 Si / 1000 Ang^3
#
#
#
# Elastic Constant Matrix: (Units=GPa)
#
#
# Indices 1 2 3 4 5 6 
#
# 1 149.0061 31.5528 52.0033 0.0000 0.0000 0.0000
# 2 31.5528 97.7631 47.2195 0.0000 0.0000 0.0000
# 3 52.0033 47.2195 155.7118 0.0000 0.0000 0.0000
# 4 0.0000 0.0000 0.0000 53.4134 0.0000 0.0000
# 5 0.0000 0.0000 0.0000 0.0000 19.0075 0.0000
# 6 0.0000 0.0000 0.0000 0.0000 0.0000 23.8434
#
#
#
# Elastic Compliance Matrix: (Units=1/GPa)
#
#
# Indices 1 2 3 4 5 6 
#
# 1 0.007773 -0.001470 -0.002150 0.000000 0.000000 0.000000
# 2 -0.001470 0.012262 -0.003228 0.000000 0.000000 0.000000
# 3 -0.002150 -0.003228 0.008119 0.000000 0.000000 0.000000
# 4 0.000000 0.000000 0.000000 0.018722 0.000000 0.000000
# 5 0.000000 0.000000 0.000000 0.000000 0.052611 0.000000
# 6 0.000000 0.000000 0.000000 0.000000 0.000000 0.041940
#
#
# Mechanical properties :
#
#
# Convention : Reuss Voigt Hill
#
# Bulk Modulus (GPa) = 69.16380 73.78137 71.47258
# Shear Modulus (GPa) = 31.26132 37.36655 34.31393
#
# Velocity S-wave (km/s) = 3.89129 4.25433 4.07685
# Velocity P-wave (km/s) = 7.32738 7.73758 7.53527
#
# Compressibility (1/GPa) = 0.01445843
#
# Stress axis : x y z
#
# Youngs Moduli (GPa) = 128.65326 81.55151 123.16904
#
# Poissons Ratio (x) = 0.11989 0.26482
# Poissons Ratio (y) = 0.18914 0.39753
# Poissons Ratio (z) = 0.27661 0.26321
#
# Static dielectric constant tensor:
#      x y z
#    x 3.709230 0.000000 0.000000 
#    y 0.000000 3.686590 0.000000 
#    z 0.000000 0.000000 3.980270 
# 
# 
# High freq. dielectric constant tensor:
#      x y z
#    x 1.797910 0.000000 0.000000 
#    y 0.000000 1.794640 0.000000 
#    z 0.000000 0.000000 1.828740 
# 
# From -- ./inp_files/25605.got.cif
#   From: 2010.03.12/outbox.cif.g09.slc.cpg/sg69_13_cif.got.tgz:25605.got - 2010.04.10 23:52:46.
