data_PCOD8285405
_publ_section_title
;
Structure prediction by ZEFSAII (Michael W. Deem and Ramdas Pophale) SiO2 
 PCOD8285405
Probable space group: F M M M
;
_chemical_formula_sum "Si O2"
_cell_formula_units_Z 160
_cell_length_a 25.555805
_cell_length_b 18.751485
_cell_length_c 16.318150
_cell_angle_alpha 90.000000
_cell_angle_beta 90.000000
_cell_angle_gamma 90.000000
_cell_volume 7819.809143
_symmetry_space_group_name_H-M "F M M M"
_symmetry_group_IT_number 69
_symmetry_cell_setting 'orthorhombic'
loop_
_space_group_symop_operation_xyz
x,y,z
-x,-y,z
x,-y,-z
-x,y,-z
-x,-y,-z
x,y,-z
-x,y,z
x,-y,z
x,1/2+y,1/2+z
-x,1/2-y,1/2+z
x,1/2-y,1/2-z
-x,1/2+y,1/2-z
-x,1/2-y,1/2-z
x,1/2+y,1/2-z
-x,1/2+y,1/2+z
x,1/2-y,1/2+z
1/2+x,y,1/2+z
1/2-x,-y,1/2+z
1/2+x,-y,1/2-z
1/2-x,y,1/2-z
1/2-x,-y,1/2-z
1/2+x,y,1/2-z
1/2-x,y,1/2+z
1/2+x,-y,1/2+z
1/2+x,1/2+y,z
1/2-x,1/2-y,z
1/2+x,1/2-y,-z
1/2-x,1/2+y,-z
1/2-x,1/2-y,-z
1/2+x,1/2+y,-z
1/2-x,1/2+y,z
1/2+x,1/2-y,z
loop_
_atom_site_type_symbol
_atom_site_label
_atom_site_fract_x
_atom_site_fract_y
_atom_site_fract_z
Si Si1 0.785015 0.085082 0.500000
Si Si2 0.595382 0.583973 0.500000
Si Si3 0.230439 0.417462 0.335764
Si Si4 0.390844 0.917735 0.316751
Si Si5 0.938672 0.293693 0.589657
Si Si6 0.060067 0.849967 0.663844
O O1 0.844788 0.111759 0.500000
O O2 0.757261 0.116179 0.582679
O O3 0.780083 0.000000 0.500000
O O4 0.595353 0.500000 0.500000
O O5 0.563317 0.611161 0.422587
O O6 0.246489 0.500000 0.333128
O O7 0.250000 0.381809 0.250000
O O8 0.168785 0.406475 0.341927
O O9 0.425095 0.872146 0.379191
O O10 0.401046 0.890301 0.225015
O O11 0.407689 0.000000 0.323724
O O12 0.912935 0.281587 0.500000
O O13 0.920339 0.232051 0.652925
O O14 0.000000 0.287055 0.580686
O O15 0.000000 0.853128 0.696188
#
# Coordination Sequence:
#
# PCOD8285405 Si02
#       6
#    16  16  32  32  32  32
#     4   9  18  33  55  81 116 158 195 241 302 358
#     4  11  21  34  60  92 118 150 196 253 305 348
#     4   9  18  34  55  83 119 155 195 243 300 367
#     4  11  23  36  60  92 119 151 200 254 297 338
#     4  10  22  41  61  82 116 164 204 234 288 365
#     4  11  22  39  59  85 122 161 198 237 299 374
#
# _framework density 20.460857000000001
#
# number of rings (size 3 to 8) (size 9 to 14) (size 15 to 20)
#    0.000    1.800    1.000    3.300    1.400    8.400 
#    0.000    1.000    0.000    9.600    0.000    0.000 
#    0.000    0.000    0.000    0.000    0.000    0.000 
#
# Total GULP energy -495944.627064 kJ/mol
# GULP energy per Si atom -12398.615677 kJ/mol
# Density = 2.041429 g / cm^3
# Si number density = 20.460857 Si / 1000 Ang^3
#
#
#
# Elastic Constant Matrix: (Units=GPa)
#
#
# Indices 1 2 3 4 5 6 
#
# 1 42.1218 31.8800 25.0197 0.0000 0.0000 0.0000
# 2 31.8800 101.9525 18.8832 0.0000 0.0000 0.0000
# 3 25.0197 18.8832 106.0918 0.0000 0.0000 0.0000
# 4 0.0000 0.0000 0.0000 20.9280 0.0000 0.0000
# 5 0.0000 0.0000 0.0000 0.0000 48.2849 0.0000
# 6 0.0000 0.0000 0.0000 0.0000 0.0000 5.8314
#
#
#
# Elastic Compliance Matrix: (Units=1/GPa)
#
#
# Indices 1 2 3 4 5 6 
#
# 1 0.034975 -0.009730 -0.006516 0.000000 0.000000 0.000000
# 2 -0.009730 0.012850 0.000007 0.000000 0.000000 0.000000
# 3 -0.006516 0.000007 0.010961 0.000000 0.000000 0.000000
# 4 0.000000 0.000000 0.000000 0.047783 0.000000 0.000000
# 5 0.000000 0.000000 0.000000 0.000000 0.020710 0.000000
# 6 0.000000 0.000000 0.000000 0.000000 0.000000 0.171487
#
#
# Mechanical properties :
#
#
# Convention : Reuss Voigt Hill
#
# Bulk Modulus (GPa) = 38.01013 44.63687 41.32350
# Shear Modulus (GPa) = 14.70533 26.63439 20.66986
#
# Velocity S-wave (km/s) = 2.68378 3.61186 3.18184
# Velocity P-wave (km/s) = 5.31233 6.26555 5.80853
#
# Compressibility (1/GPa) = 0.02630878
#
# Stress axis : x y z
#
# Youngs Moduli (GPa) = 28.59162 77.82395 91.23046
#
# Poissons Ratio (x) = 0.75720 0.59450
# Poissons Ratio (y) = 0.27819 -0.00068
# Poissons Ratio (z) = 0.18632 -0.00058
#
# Static dielectric constant tensor:
#      x y z
#    x 3.585970 0.000000 0.000000 
#    y 0.000000 3.586680 0.000000 
#    z 0.000000 0.000000 3.927830 
# 
# 
# High freq. dielectric constant tensor:
#      x y z
#    x 1.791110 0.000000 0.000000 
#    y 0.000000 1.773150 0.000000 
#    z 0.000000 0.000000 1.818780 
# 
# From -- ./inp_files/19620.got.cif
#   From: 2010.03.12/outbox.cif.g09.slc.cpg/sg69_10_cif.got.tgz:19620.got - 2010.04.10 23:52:46.
