data_PCOD8285715
_publ_section_title
;
Structure prediction by ZEFSAII (Michael W. Deem and Ramdas Pophale) SiO2 
 PCOD8285715
Probable space group: F M M M
;
_chemical_formula_sum "Si O2"
_cell_formula_units_Z 36
_cell_length_a 30.000000
_cell_length_b 30.000000
_cell_length_c 9.000000
_cell_angle_alpha 90.000000
_cell_angle_beta 90.000000
_cell_angle_gamma 90.000000
_cell_volume 8100.000000
_symmetry_space_group_name_H-M "F M M M"
_symmetry_group_IT_number 69
_symmetry_cell_setting 'orthorhombic'
loop_
_space_group_symop_operation_xyz
x,y,z
-x,-y,z
x,-y,-z
-x,y,-z
-x,-y,-z
x,y,-z
-x,y,z
x,-y,z
x,1/2+y,1/2+z
-x,1/2-y,1/2+z
x,1/2-y,1/2-z
-x,1/2+y,1/2-z
-x,1/2-y,1/2-z
x,1/2+y,1/2-z
-x,1/2+y,1/2+z
x,1/2-y,1/2+z
1/2+x,y,1/2+z
1/2-x,-y,1/2+z
1/2+x,-y,1/2-z
1/2-x,y,1/2-z
1/2-x,-y,1/2-z
1/2+x,y,1/2-z
1/2-x,y,1/2+z
1/2+x,-y,1/2+z
1/2+x,1/2+y,z
1/2-x,1/2-y,z
1/2+x,1/2-y,-z
1/2-x,1/2+y,-z
1/2-x,1/2-y,-z
1/2+x,1/2+y,-z
1/2-x,1/2+y,z
1/2+x,1/2-y,z
loop_
_atom_site_type_symbol
_atom_site_label
_atom_site_fract_x
_atom_site_fract_y
_atom_site_fract_z
Si Si1 0.500000 0.552445 0.663451
Si Si2 0.948211 0.297339 0.174482
Si Si3 0.798106 0.797349 0.680915
Si Si4 0.126068 0.144168 0.176161
Si Si5 0.910833 0.050554 0.827614
O O1 0.500000 0.500000 0.648137
O O2 0.500000 0.574954 0.500000
O O3 0.455581 0.567183 0.747721
O O4 0.937819 0.250000 0.250000
O O5 0.918972 0.334437 0.257927
O O6 0.000000 0.310356 0.195360
O O7 0.935470 0.294801 0.000000
O O8 0.796279 0.795081 0.500000
O O9 0.814083 0.750000 0.750000
O O10 0.750000 0.809209 0.750000
O O11 0.831905 0.835708 0.734872
O O12 0.125276 0.090029 0.203237
O O13 0.129800 0.154472 0.000000
O O14 0.895328 0.000000 0.775681
O O15 0.922304 0.048410 0.000000
#
# Coordination Sequence:
#
# PCOD8285715 Si02
#       5
#    16  32  32  32  32
#     4   9  17  29  47  71 100 135 178 229 277 317
#     4  10  21  36  52  73 105 144 183 224 267 320
#     4  11  22  39  62  87 115 142 175 219 270 326
#     4  11  22  35  55  81 109 143 183 225 272 325
#     4   9  19  35  53  74 104 144 187 229 272 320
#
# _framework density 4.4444439999999998
#
# number of rings (size 3 to 8) (size 9 to 14) (size 15 to 20)
#    0.000    1.889    0.000    5.000    1.556    4.444 
#    0.000    0.000    0.000    0.667    0.000    0.000 
#    0.000    0.000    0.000    0.000    0.000    0.000 
#
# Total GULP energy -446223.659548 kJ/mol
# GULP energy per Si atom -12395.101654 kJ/mol
# Density = 0.443433 g / cm^3
# Si number density = 4.444444 Si / 1000 Ang^3
#
#
#
# Elastic Constant Matrix: (Units=GPa)
#
#
# Indices 1 2 3 4 5 6 
#
# 1 94.6441 59.0108 45.3443 -0.0166 0.0055 -0.0009
# 2 59.0108 131.5983 51.9241 -0.0295 0.0295 0.0104
# 3 45.3443 51.9241 141.5892 0.0133 -0.0193 -0.0019
# 4 -0.0166 -0.0295 0.0133 28.2352 0.0196 0.0060
# 5 0.0055 0.0295 -0.0193 0.0196 34.8878 -0.0077
# 6 -0.0009 0.0104 -0.0019 0.0060 -0.0077 31.0884
#
#
#
# Elastic Compliance Matrix: (Units=1/GPa)
#
#
# Indices 1 2 3 4 5 6 
#
# 1 0.015585 -0.005868 -0.002839 0.000004 0.000001 0.000002
# 2 -0.005868 0.011094 -0.002189 0.000009 -0.000010 -0.000004
# 3 -0.002839 -0.002189 0.008775 -0.000008 0.000007 0.000001
# 4 0.000004 0.000009 -0.000008 0.035417 -0.000020 -0.000007
# 5 0.000001 -0.000010 0.000007 -0.000020 0.028663 0.000007
# 6 0.000002 -0.000004 0.000001 -0.000007 0.000007 0.032166
#
#
# Mechanical properties :
#
#
# Convention : Reuss Voigt Hill
#
# Bulk Modulus (GPa) = 73.20252 75.59887 74.40070
# Shear Modulus (GPa) = 31.63613 32.94578 32.29096
#
# Velocity S-wave (km/s) = 4.22303 4.30955 4.26651
# Velocity P-wave (km/s) = 8.06501 8.20851 8.13708
#
# Compressibility (1/GPa) = 0.01366073
#
# Stress axis : x y z
#
# Youngs Moduli (GPa) = 64.16393 90.13782 113.96391
#
# Poissons Ratio (x) = 0.52897 0.32355
# Poissons Ratio (y) = 0.37654 0.24948
# Poissons Ratio (z) = 0.18217 0.19732
#
# Static dielectric constant tensor:
#      x y z
#    x 3.251850 0.000050 0.000090 
#    y 0.000050 3.592180 -0.000110 
#    z 0.000090 -0.000110 3.716340 
# 
# 
# High freq. dielectric constant tensor:
#      x y z
#    x 1.673970 0.000000 0.000000 
#    y 0.000000 1.701140 -0.000010 
#    z 0.000000 -0.000010 1.717630 
# 
# From -- ./inp_files/5525.got.cif
#   From: 2010.03.12/outbox.ucp.g09.slc.cvg/sg69_3_cif.got.tgz:5525.got - 2010.05.04 19:54:48.
