data_PCOD8285259
_publ_section_title
;
Structure prediction by ZEFSAII (Michael W. Deem and Ramdas Pophale) SiO2 
 PCOD8285259
Probable space group: F M M M
;
_chemical_formula_sum "Si O2"
_cell_formula_units_Z 112
_cell_length_a 38.707959
_cell_length_b 9.928863
_cell_length_c 15.088432
_cell_angle_alpha 90.000000
_cell_angle_beta 90.000000
_cell_angle_gamma 90.000000
_cell_volume 5798.877048
_symmetry_space_group_name_H-M "F M M M"
_symmetry_group_IT_number 69
_symmetry_cell_setting 'orthorhombic'
loop_
_space_group_symop_operation_xyz
x,y,z
-x,-y,z
x,-y,-z
-x,y,-z
-x,-y,-z
x,y,-z
-x,y,z
x,-y,z
x,1/2+y,1/2+z
-x,1/2-y,1/2+z
x,1/2-y,1/2-z
-x,1/2+y,1/2-z
-x,1/2-y,1/2-z
x,1/2+y,1/2-z
-x,1/2+y,1/2+z
x,1/2-y,1/2+z
1/2+x,y,1/2+z
1/2-x,-y,1/2+z
1/2+x,-y,1/2-z
1/2-x,y,1/2-z
1/2-x,-y,1/2-z
1/2+x,y,1/2-z
1/2-x,y,1/2+z
1/2+x,-y,1/2+z
1/2+x,1/2+y,z
1/2-x,1/2-y,z
1/2+x,1/2-y,-z
1/2-x,1/2+y,-z
1/2-x,1/2-y,-z
1/2+x,1/2+y,-z
1/2-x,1/2+y,z
1/2+x,1/2-y,z
loop_
_atom_site_type_symbol
_atom_site_label
_atom_site_fract_x
_atom_site_fract_y
_atom_site_fract_z
Si Si1 0.902949 0.346263 0.896389
Si Si2 0.038314 0.651069 0.394610
Si Si3 0.827877 0.655346 0.828634
Si Si4 0.782811 0.155218 0.500000
O O1 0.913802 0.500000 0.879702
O O2 0.933324 0.253583 0.855687
O O3 0.867654 0.309609 0.847337
O O4 0.897215 0.318628 0.000000
O O5 0.038391 0.659445 0.500000
O O6 0.047859 0.500000 0.363694
O O7 0.000000 0.690549 0.359811
O O8 0.823580 0.500000 0.800540
O O9 0.814162 0.750000 0.750000
O O10 0.805588 0.688505 0.914645
O O11 0.750000 0.250000 0.500000
O O12 0.770818 0.000000 0.500000
#
# Coordination Sequence:
#
# PCOD8285259 Si02
#       4
#    32  32  32  16
#     4   9  16  29  50  73 101 140 182 224 272 323
#     4   8  14  24  39  65 102 139 176 223 276 324
#     4  10  21  38  59  84 115 149 184 227 275 325
#     4  10  22  42  64  86 117 150 181 221 272 327
#
# _framework density 19.314083
#
# number of rings (size 3 to 8) (size 9 to 14) (size 15 to 20)
#    0.000    2.857    1.429    0.857    0.000    3.429 
#    0.000    5.714    0.000    0.857    0.000    0.000 
#    0.000    0.000    0.000    0.000    0.000    0.000 
#
# Total GULP energy -347170.038818 kJ/mol
# GULP energy per Si atom -12398.929958 kJ/mol
# Density = 1.927012 g / cm^3
# Si number density = 19.314083 Si / 1000 Ang^3
#
#
#
# Elastic Constant Matrix: (Units=GPa)
#
#
# Indices 1 2 3 4 5 6 
#
# 1 127.5682 90.7279 49.2759 0.0000 0.0000 0.0000
# 2 90.7279 120.5494 62.8463 0.0000 0.0000 0.0000
# 3 49.2759 62.8463 83.2589 0.0000 0.0000 0.0000
# 4 0.0000 0.0000 0.0000 25.8460 0.0000 0.0000
# 5 0.0000 0.0000 0.0000 0.0000 -4.5083 0.0000
# 6 0.0000 0.0000 0.0000 0.0000 0.0000 43.0510
#
#
#
# Elastic Compliance Matrix: (Units=1/GPa)
#
#
# Indices 1 2 3 4 5 6 
#
# 1 0.016890 -0.012367 -0.000661 0.000000 0.000000 0.000000
# 2 -0.012367 0.022733 -0.009840 0.000000 0.000000 0.000000
# 3 -0.000661 -0.009840 0.019830 0.000000 0.000000 0.000000
# 4 0.000000 0.000000 0.000000 0.038691 0.000000 0.000000
# 5 0.000000 0.000000 0.000000 0.000000 -0.221816 0.000000
# 6 0.000000 0.000000 0.000000 0.000000 0.000000 0.023228
#
#
# Mechanical properties :
#
#
# Convention : Reuss Voigt Hill
#
# Bulk Modulus (GPa) = 72.90839 81.89742 77.40291
# Shear Modulus (GPa) = -99.73076 21.44618 -39.14229
#
# Velocity S-wave (km/s) = -7.19364 3.33587 -4.50668
# Velocity P-wave (km/s) = 5.58275 7.57181 3.61699
#
# Compressibility (1/GPa) = 0.01371584
#
# Stress axis : x y z
#
# Youngs Moduli (GPa) = 59.20714 43.98871 50.42920
#
# Poissons Ratio (x) = 0.54401 0.03334
# Poissons Ratio (y) = 0.73221 0.49624
# Poissons Ratio (z) = 0.03914 0.43286
#
# Static dielectric constant tensor:
#      x y z
#    x 3.662650 0.000000 0.000000 
#    y 0.000000 3.583200 0.000000 
#    z 0.000000 0.000000 3.252340 
# 
# 
# High freq. dielectric constant tensor:
#      x y z
#    x 1.751690 0.000000 0.000000 
#    y 0.000000 1.749660 0.000000 
#    z 0.000000 0.000000 1.731930 
# 
# From -- ./inp_files/11927.got.cif
#   From: 2010.03.12/outbox.cif.g09.slc.cpg/sg69_6_cif.got.tgz:11927.got - 2010.04.10 23:52:46.
