data_PCOD8285048
_publ_section_title
;
Structure prediction by ZEFSAII (Michael W. Deem and Ramdas Pophale) SiO2 
 PCOD8285048
Probable space group: F M M M
;
_chemical_formula_sum "Si O2"
_cell_formula_units_Z 144
_cell_length_a 17.663182
_cell_length_b 27.616837
_cell_length_c 14.399079
_cell_angle_alpha 90.000000
_cell_angle_beta 90.000000
_cell_angle_gamma 90.000000
_cell_volume 7023.888277
_symmetry_space_group_name_H-M "F M M M"
_symmetry_group_IT_number 69
_symmetry_cell_setting 'orthorhombic'
loop_
_space_group_symop_operation_xyz
x,y,z
-x,-y,z
x,-y,-z
-x,y,-z
-x,-y,-z
x,y,-z
-x,y,z
x,-y,z
x,1/2+y,1/2+z
-x,1/2-y,1/2+z
x,1/2-y,1/2-z
-x,1/2+y,1/2-z
-x,1/2-y,1/2-z
x,1/2+y,1/2-z
-x,1/2+y,1/2+z
x,1/2-y,1/2+z
1/2+x,y,1/2+z
1/2-x,-y,1/2+z
1/2+x,-y,1/2-z
1/2-x,y,1/2-z
1/2-x,-y,1/2-z
1/2+x,y,1/2-z
1/2-x,y,1/2+z
1/2+x,-y,1/2+z
1/2+x,1/2+y,z
1/2-x,1/2-y,z
1/2+x,1/2-y,-z
1/2-x,1/2+y,-z
1/2-x,1/2-y,-z
1/2+x,1/2+y,-z
1/2-x,1/2+y,z
1/2+x,1/2-y,z
loop_
_atom_site_type_symbol
_atom_site_label
_atom_site_fract_x
_atom_site_fract_y
_atom_site_fract_z
Si Si1 0.586445 0.873527 0.391317
Si Si2 0.160266 0.695385 0.249725
Si Si3 0.000000 0.446133 0.110120
Si Si4 0.287044 0.446095 0.109533
Si Si5 0.856109 0.385562 0.109923
O O1 0.591820 0.862385 0.500000
O O2 0.500000 0.881065 0.359012
O O3 0.625394 0.828372 0.341530
O O4 0.632413 0.922192 0.365038
O O5 0.128678 0.750000 0.250000
O O6 0.250000 0.695229 0.250000
O O7 0.133989 0.666591 0.157854
O O8 0.074209 0.418125 0.143835
O O9 0.000000 0.500000 0.153197
O O10 0.000000 0.449545 0.000000
O O11 0.283645 0.500000 0.153269
O O12 0.218930 0.412715 0.148266
O O13 0.276054 0.449933 0.000000
O O14 0.854177 0.377011 0.000000
#
# Coordination Sequence:
#
# PCOD8285048 Si02
#       5
#    32  32  16  32  32
#     4  10  22  41  62  86 122 161 199 246 294 353
#     4  11  24  41  63  87 115 154 201 256 307 356
#     4   9  18  34  59  90 123 159 194 235 298 366
#     4   9  17  33  60  88 116 156 199 241 295 356
#     4  10  20  37  60  88 123 157 196 248 303 363
#
# _framework density 20.501465
#
# number of rings (size 3 to 8) (size 9 to 14) (size 15 to 20)
#    0.000    2.111    2.222    0.667    1.556    4.444 
#    0.000    7.778    0.000    0.000    0.000    0.000 
#    0.000    0.000    0.000    0.000    0.000    0.000 
#
# Total GULP energy -446421.189009 kJ/mol
# GULP energy per Si atom -12400.588584 kJ/mol
# Density = 2.045480 g / cm^3
# Si number density = 20.501465 Si / 1000 Ang^3
#
#
#
# Elastic Constant Matrix: (Units=GPa)
#
#
# Indices 1 2 3 4 5 6 
#
# 1 147.5879 69.2670 35.4832 0.0000 0.0000 0.0000
# 2 69.2670 198.8241 51.7808 0.0000 0.0000 0.0000
# 3 35.4832 51.7808 50.1304 0.0000 0.0000 0.0000
# 4 0.0000 0.0000 0.0000 25.4948 0.0000 0.0000
# 5 0.0000 0.0000 0.0000 0.0000 24.1571 0.0000
# 6 0.0000 0.0000 0.0000 0.0000 0.0000 28.2845
#
#
#
# Elastic Compliance Matrix: (Units=1/GPa)
#
#
# Indices 1 2 3 4 5 6 
#
# 1 0.008684 -0.001949 -0.004134 0.000000 0.000000 0.000000
# 2 -0.001949 0.007318 -0.006179 0.000000 0.000000 0.000000
# 3 -0.004134 -0.006179 0.029257 0.000000 0.000000 0.000000
# 4 0.000000 0.000000 0.000000 0.039224 0.000000 0.000000
# 5 0.000000 0.000000 0.000000 0.000000 0.041396 0.000000
# 6 0.000000 0.000000 0.000000 0.000000 0.000000 0.035355
#
#
# Mechanical properties :
#
#
# Convention : Reuss Voigt Hill
#
# Bulk Modulus (GPa) = 48.22818 78.84493 63.53656
# Shear Modulus (GPa) = 25.95131 31.58805 28.76968
#
# Velocity S-wave (km/s) = 3.56171 3.92952 3.75013
# Velocity P-wave (km/s) = 6.36315 7.68960 7.05760
#
# Compressibility (1/GPa) = 0.02073476
#
# Stress axis : x y z
#
# Youngs Moduli (GPa) = 115.15295 136.65265 34.18017
#
# Poissons Ratio (x) = 0.26631 0.14129
# Poissons Ratio (y) = 0.22441 0.21121
# Poissons Ratio (z) = 0.47602 0.84442
#
# Static dielectric constant tensor:
#      x y z
#    x 3.896080 0.000000 0.000000 
#    y 0.000000 3.902500 0.000000 
#    z 0.000000 0.000000 3.499230 
# 
# 
# High freq. dielectric constant tensor:
#      x y z
#    x 1.809530 0.000000 0.000000 
#    y 0.000000 1.797680 0.000000 
#    z 0.000000 0.000000 1.794000 
# 
# From -- ./inp_files/15547.got.cif
#   From: 2010.03.12/outbox.cif.g09.slc.cpg/sg69_8_cif.got.tgz:15547.got - 2010.04.10 23:52:46.
