data_PCOD8285348
_publ_section_title
;
Structure prediction by ZEFSAII (Michael W. Deem and Ramdas Pophale) SiO2 
 PCOD8285348
Probable space group: F M M M
;
_chemical_formula_sum "Si O2"
_cell_formula_units_Z 208
_cell_length_a 26.611871
_cell_length_b 23.362630
_cell_length_c 17.882599
_cell_angle_alpha 90.000000
_cell_angle_beta 90.000000
_cell_angle_gamma 90.000000
_cell_volume 11118.028387
_symmetry_space_group_name_H-M "F M M M"
_symmetry_group_IT_number 69
_symmetry_cell_setting 'orthorhombic'
loop_
_space_group_symop_operation_xyz
x,y,z
-x,-y,z
x,-y,-z
-x,y,-z
-x,-y,-z
x,y,-z
-x,y,z
x,-y,z
x,1/2+y,1/2+z
-x,1/2-y,1/2+z
x,1/2-y,1/2-z
-x,1/2+y,1/2-z
-x,1/2-y,1/2-z
x,1/2+y,1/2-z
-x,1/2+y,1/2+z
x,1/2-y,1/2+z
1/2+x,y,1/2+z
1/2-x,-y,1/2+z
1/2+x,-y,1/2-z
1/2-x,y,1/2-z
1/2-x,-y,1/2-z
1/2+x,y,1/2-z
1/2-x,y,1/2+z
1/2+x,-y,1/2+z
1/2+x,1/2+y,z
1/2-x,1/2-y,z
1/2+x,1/2-y,-z
1/2-x,1/2+y,-z
1/2-x,1/2-y,-z
1/2+x,1/2+y,-z
1/2-x,1/2+y,z
1/2+x,1/2-y,z
loop_
_atom_site_type_symbol
_atom_site_label
_atom_site_fract_x
_atom_site_fract_y
_atom_site_fract_z
Si Si1 0.299473 0.866587 0.836108
Si Si2 0.394019 0.934240 0.156674
Si Si3 0.858273 0.257428 0.161544
Si Si4 0.557981 0.325167 0.413195
Si Si5 0.097513 0.934384 0.831198
Si Si6 0.810928 0.640112 0.339982
Si Si7 0.500000 0.431696 0.085250
O O1 0.334911 0.920471 0.857273
O O2 0.321863 0.807614 0.867321
O O3 0.244319 0.874583 0.873370
O O4 0.300145 0.858486 0.747577
O O5 0.427501 0.889944 0.110441
O O6 0.408316 0.924159 0.243062
O O7 0.404623 0.000000 0.132510
O O8 0.863850 0.250000 0.250000
O O9 0.912942 0.274189 0.129732
O O10 0.834025 0.199447 0.129124
O O11 0.569870 0.318888 0.500000
O O12 0.500000 0.315825 0.394515
O O13 0.148815 0.907562 0.862735
O O14 0.049238 0.907114 0.872683
O O15 0.101694 0.000000 0.852195
O O16 0.500000 0.500000 0.089915
O O17 0.500000 0.409921 0.000000
#
# Coordination Sequence:
#
# PCOD8285348 Si02
#       7
#    32  32  32  32  32  32  16
#     4   8  15  27  48  77 108 132 166 218 265 304
#     4   9  18  32  52  79 106 138 179 219 259 309
#     4   9  17  32  52  76  99 133 177 217 258 312
#     4  10  22  38  53  73 105 140 173 218 269 312
#     4   9  18  31  49  77 107 137 178 221 259 306
#     4   9  15  27  49  77 104 136 170 211 263 317
#     4   9  18  34  52  68  98 143 177 215 273 315
#
# _framework density 18.708352000000001
#
# number of rings (size 3 to 8) (size 9 to 14) (size 15 to 20)
#    0.000    3.000    0.000    1.385    1.077    3.385 
#    1.385    4.615    0.000   11.077    0.000    4.308 
#    0.000    0.000    0.000    0.000    0.000    0.000 
#
# Total GULP energy -644377.391681 kJ/mol
# GULP energy per Si atom -12391.872917 kJ/mol
# Density = 1.866577 g / cm^3
# Si number density = 18.708352 Si / 1000 Ang^3
#
#
#
# Elastic Constant Matrix: (Units=GPa)
#
#
# Indices 1 2 3 4 5 6 
#
# 1 171.9897 48.1083 51.3543 0.0000 0.0000 0.0000
# 2 48.1083 60.7213 20.9904 0.0000 0.0000 0.0000
# 3 51.3543 20.9904 35.1413 0.0000 0.0000 0.0000
# 4 0.0000 0.0000 0.0000 14.3882 0.0000 0.0000
# 5 0.0000 0.0000 0.0000 0.0000 5.6470 0.0000
# 6 0.0000 0.0000 0.0000 0.0000 0.0000 25.7501
#
#
#
# Elastic Compliance Matrix: (Units=1/GPa)
#
#
# Indices 1 2 3 4 5 6 
#
# 1 0.011033 -0.003992 -0.013739 0.000000 0.000000 0.000000
# 2 -0.003992 0.022198 -0.007426 0.000000 0.000000 0.000000
# 3 -0.013739 -0.007426 0.052970 0.000000 0.000000 0.000000
# 4 0.000000 0.000000 0.000000 0.069501 0.000000 0.000000
# 5 0.000000 0.000000 0.000000 0.000000 0.177086 0.000000
# 6 0.000000 0.000000 0.000000 0.000000 0.000000 0.038835
#
#
# Mechanical properties :
#
#
# Convention : Reuss Voigt Hill
#
# Bulk Modulus (GPa) = 27.86441 56.52868 42.19655
# Shear Modulus (GPa) = 11.52338 18.98367 15.25353
#
# Velocity S-wave (km/s) = 2.48452 3.18892 2.85850
# Velocity P-wave (km/s) = 4.81216 6.62120 5.78780
#
# Compressibility (1/GPa) = 0.03588808
#
# Stress axis : x y z
#
# Youngs Moduli (GPa) = 90.63436 45.04820 18.87858
#
# Poissons Ratio (x) = 0.17984 0.25938
# Poissons Ratio (y) = 0.36182 0.14018
# Poissons Ratio (z) = 1.24525 0.33451
#
# Static dielectric constant tensor:
#      x y z
#    x 3.804410 0.000000 0.000000 
#    y 0.000000 3.412900 0.000000 
#    z 0.000000 0.000000 3.049320 
# 
# 
# High freq. dielectric constant tensor:
#      x y z
#    x 1.740160 0.000000 0.000000 
#    y 0.000000 1.717850 0.000000 
#    z 0.000000 0.000000 1.682200 
# 
# From -- ./inp_files/26980.got.cif
#   From: 2010.03.12/outbox.cif.g09.slc.cpg/sg69_14_cif.got.tgz:26980.got - 2010.04.10 23:52:46.
