data_PCOD8285775
_publ_section_title
;
Structure prediction by ZEFSAII (Michael W. Deem and Ramdas Pophale) SiO2 
 PCOD8285775
Probable space group: F D D D
;
_chemical_formula_sum "Si O2"
_cell_formula_units_Z 240
_cell_length_a 33.491279
_cell_length_b 18.304712
_cell_length_c 20.888947
_cell_angle_alpha 90.000000
_cell_angle_beta 90.000000
_cell_angle_gamma 90.000000
_cell_volume 12805.931705
_symmetry_space_group_name_H-M "F D D D"
_symmetry_group_IT_number 70
_space_group.IT_coordinate_system_code '2'
_symmetry_cell_setting 'orthorhombic'
loop_
_space_group_symop_operation_xyz
x,y,z
1/4-x,1/4-y,z
x,1/4-y,1/4-z
1/4-x,y,1/4-z
-x,-y,-z
3/4+x,3/4+y,-z
-x,3/4+y,3/4+z
3/4+x,-y,3/4+z
x,1/2+y,1/2+z
1/4-x,3/4-y,1/2+z
x,3/4-y,3/4-z
1/4-x,1/2+y,3/4-z
-x,1/2-y,1/2-z
3/4+x,1/4+y,1/2-z
-x,1/4+y,1/4+z
3/4+x,1/2-y,1/4+z
1/2+x,y,1/2+z
3/4-x,1/4-y,1/2+z
1/2+x,1/4-y,3/4-z
3/4-x,y,3/4-z
1/2-x,-y,1/2-z
1/4+x,3/4+y,1/2-z
1/2-x,3/4+y,1/4+z
1/4+x,-y,1/4+z
1/2+x,1/2+y,z
3/4-x,3/4-y,z
1/2+x,3/4-y,1/4-z
3/4-x,1/2+y,1/4-z
1/2-x,1/2-y,-z
1/4+x,1/4+y,-z
1/2-x,1/4+y,3/4+z
1/4+x,1/2-y,3/4+z
loop_
_atom_site_type_symbol
_atom_site_label
_atom_site_fract_x
_atom_site_fract_y
_atom_site_fract_z
Si Si1 0.803695 0.499547 0.673934
Si Si2 0.314396 0.642660 0.965205
Si Si3 0.003707 0.541166 0.235999
Si Si4 0.539749 0.661432 0.393926
Si Si5 0.899812 0.628385 0.733226
Si Si6 0.279040 0.605830 0.423939
Si Si7 0.500078 0.125000 0.125000
Si Si8 0.859324 0.240090 0.627924
O O1 0.806524 0.532685 0.745077
O O2 0.784928 0.418998 0.675697
O O3 0.777821 0.553745 0.631045
O O4 0.845193 0.488258 0.637319
O O5 0.302385 0.660923 0.892426
O O6 0.290138 0.573489 0.994962
O O7 0.361372 0.624817 0.970308
O O8 0.024730 0.602666 0.188444
O O9 0.029526 0.532008 0.299607
O O10 0.004509 0.463303 0.201110
O O11 0.505896 0.666024 0.338467
O O12 0.583264 0.685749 0.370342
O O13 0.939377 0.637011 0.775746
O O14 0.903975 0.556909 0.689321
O O15 0.896101 0.698249 0.688287
#
# Coordination Sequence:
#
# PCOD8285775 Si02
#       8
#    32  32  32  32  32  32  16  32
#     4  10  19  34  54  82 111 145 189 228 272 337
#     4   9  21  35  57  82 112 156 193 223 276 349
#     4  10  20  33  51  83 115 149 184 233 280 331
#     4  11  22  33  53  84 116 141 187 240 288 329
#     4  10  20  38  59  76 107 152 196 233 279 340
#     4  11  21  35  56  83 118 145 185 240 285 336
#     4  10  18  32  56  74 109 152 188 212 275 336
#     4  10  20  36  56  78 107 145 190 242 281 333
#
# _framework density 18.741316000000001
#
# number of rings (size 3 to 8) (size 9 to 14) (size 15 to 20)
#    0.000    1.867    2.667    3.200    1.867    2.133 
#    0.000    0.000    0.000    0.000    0.000    0.000 
#    0.000    0.000    0.000    0.000    0.000    0.000 
#
# Total GULP energy -743377.277375 kJ/mol
# GULP energy per Si atom -12389.621290 kJ/mol
# Density = 1.869866 g / cm^3
# Si number density = 18.741316 Si / 1000 Ang^3
#
#
#
# Elastic Constant Matrix: (Units=GPa)
#
#
# Indices 1 2 3 4 5 6 
#
# 1 71.2491 11.2364 24.7200 0.0000 0.0000 0.0000
# 2 11.2364 44.9550 13.7111 0.0000 0.0000 0.0000
# 3 24.7200 13.7111 83.6908 0.0000 0.0000 0.0000
# 4 0.0000 0.0000 0.0000 23.2200 0.0000 0.0000
# 5 0.0000 0.0000 0.0000 0.0000 24.9435 0.0000
# 6 0.0000 0.0000 0.0000 0.0000 0.0000 26.5728
#
#
#
# Elastic Compliance Matrix: (Units=1/GPa)
#
#
# Indices 1 2 3 4 5 6 
#
# 1 0.015939 -0.002682 -0.004269 0.000000 0.000000 0.000000
# 2 -0.002682 0.023866 -0.003118 0.000000 0.000000 0.000000
# 3 -0.004269 -0.003118 0.013720 0.000000 0.000000 0.000000
# 4 0.000000 0.000000 0.000000 0.043066 0.000000 0.000000
# 5 0.000000 0.000000 0.000000 0.000000 0.040091 0.000000
# 6 0.000000 0.000000 0.000000 0.000000 0.000000 0.037632
#
#
# Mechanical properties :
#
#
# Convention : Reuss Voigt Hill
#
# Bulk Modulus (GPa) = 29.95041 33.24776 31.59909
# Shear Modulus (GPa) = 24.32130 24.96241 24.64185
#
# Velocity S-wave (km/s) = 3.60632 3.65354 3.63001
# Velocity P-wave (km/s) = 5.77550 5.96462 5.87082
#
# Compressibility (1/GPa) = 0.03338852
#
# Stress axis : x y z
#
# Youngs Moduli (GPa) = 62.73820 41.90106 72.88441
#
# Poissons Ratio (x) = 0.11238 0.31112
# Poissons Ratio (y) = 0.16827 0.22723
# Poissons Ratio (z) = 0.26780 0.13064
#
# Static dielectric constant tensor:
#      x y z
#    x 3.449700 0.000000 0.000000 
#    y 0.000000 3.200490 0.000000 
#    z 0.000000 0.000000 3.506120 
# 
# 
# High freq. dielectric constant tensor:
#      x y z
#    x 1.725410 0.000000 0.000000 
#    y 0.000000 1.705910 0.000000 
#    z 0.000000 0.000000 1.731270 
# 
# From -- ./inp_files/47807.got.cif
#   From: 2010.03.12/outbox.cif.g09.slc.cpg/sg70_24_cif.got.tgz:47807.got - 2010.04.16 13:46:32.
