data_PCOD8285521
_publ_section_title
;
Structure prediction by ZEFSAII (Michael W. Deem and Ramdas Pophale) SiO2 
 PCOD8285521
Probable space group: F M M M
;
_chemical_formula_sum "Si O2"
_cell_formula_units_Z 160
_cell_length_a 16.519134
_cell_length_b 27.595093
_cell_length_c 18.410893
_cell_angle_alpha 90.000000
_cell_angle_beta 90.000000
_cell_angle_gamma 90.000000
_cell_volume 8392.551060
_symmetry_space_group_name_H-M "F M M M"
_symmetry_group_IT_number 69
_symmetry_cell_setting 'orthorhombic'
loop_
_space_group_symop_operation_xyz
x,y,z
-x,-y,z
x,-y,-z
-x,y,-z
-x,-y,-z
x,y,-z
-x,y,z
x,-y,z
x,1/2+y,1/2+z
-x,1/2-y,1/2+z
x,1/2-y,1/2-z
-x,1/2+y,1/2-z
-x,1/2-y,1/2-z
x,1/2+y,1/2-z
-x,1/2+y,1/2+z
x,1/2-y,1/2+z
1/2+x,y,1/2+z
1/2-x,-y,1/2+z
1/2+x,-y,1/2-z
1/2-x,y,1/2-z
1/2-x,-y,1/2-z
1/2+x,y,1/2-z
1/2-x,y,1/2+z
1/2+x,-y,1/2+z
1/2+x,1/2+y,z
1/2-x,1/2-y,z
1/2+x,1/2-y,-z
1/2-x,1/2+y,-z
1/2-x,1/2-y,-z
1/2+x,1/2+y,-z
1/2-x,1/2+y,z
1/2+x,1/2-y,z
loop_
_atom_site_type_symbol
_atom_site_label
_atom_site_fract_x
_atom_site_fract_y
_atom_site_fract_z
Si Si1 0.593440 0.052865 0.149130
Si Si2 0.903823 0.149099 0.579543
Si Si3 0.904072 0.697661 0.224718
Si Si4 0.338749 0.898128 0.280865
Si Si5 0.093138 0.943339 0.917616
O O1 0.500000 0.047596 0.130297
O O2 0.631910 0.095645 0.099426
O O3 0.601119 0.068750 0.233086
O O4 0.635048 0.000000 0.135192
O O5 0.871008 0.164823 0.500000
O O6 0.877565 0.188017 0.640733
O O7 0.000000 0.145478 0.578803
O O8 0.872498 0.750000 0.250000
O O9 0.861695 0.658407 0.276171
O O10 0.000000 0.693164 0.234104
O O11 0.250000 0.907738 0.250000
O O12 0.347214 0.913894 0.364481
O O13 0.000000 0.929594 0.901287
O O14 0.107094 0.000000 0.905681
O O15 0.115287 0.928639 0.000000
#
# Coordination Sequence:
#
# PCOD8285521 Si02
#       5
#    32  32  32  32  32
#     4   9  17  29  46  68  95 131 172 206 238 290
#     4   8  14  26  45  70  98 122 148 191 245 295
#     4   9  18  34  54  72  92 124 169 216 259 310
#     4  11  21  32  49  74 104 134 166 210 266 323
#     4   9  18  34  56  79 105 141 184 228 267 302
#
# _framework density 19.064525
#
# number of rings (size 3 to 8) (size 9 to 14) (size 15 to 20)
#    0.000    2.800    0.000    4.200    0.000    4.000 
#    0.000    7.000    0.000    3.600    0.000    7.000 
#    0.000    0.000    0.000    0.000    0.000    0.000 
#
# Total GULP energy -495736.749065 kJ/mol
# GULP energy per Si atom -12393.418727 kJ/mol
# Density = 1.902113 g / cm^3
# Si number density = 19.064525 Si / 1000 Ang^3
#
#
#
# Elastic Constant Matrix: (Units=GPa)
#
#
# Indices 1 2 3 4 5 6 
#
# 1 40.6188 25.0831 33.3088 0.0000 0.0000 0.0000
# 2 25.0831 140.6917 82.2706 0.0000 0.0000 0.0000
# 3 33.3088 82.2706 164.8448 0.0000 0.0000 0.0000
# 4 0.0000 0.0000 0.0000 20.9646 0.0000 0.0000
# 5 0.0000 0.0000 0.0000 0.0000 19.7532 0.0000
# 6 0.0000 0.0000 0.0000 0.0000 0.0000 10.3506
#
#
#
# Elastic Compliance Matrix: (Units=1/GPa)
#
#
# Indices 1 2 3 4 5 6 
#
# 1 0.030148 -0.002560 -0.004814 0.000000 0.000000 0.000000
# 2 -0.002560 0.010254 -0.004600 0.000000 0.000000 0.000000
# 3 -0.004814 -0.004600 0.009335 0.000000 0.000000 0.000000
# 4 0.000000 0.000000 0.000000 0.047699 0.000000 0.000000
# 5 0.000000 0.000000 0.000000 0.000000 0.050625 0.000000
# 6 0.000000 0.000000 0.000000 0.000000 0.000000 0.096613
#
#
# Mechanical properties :
#
#
# Convention : Reuss Voigt Hill
#
# Bulk Modulus (GPa) = 38.77735 69.72004 54.24869
# Shear Modulus (GPa) = 18.03631 23.91320 20.97476
#
# Velocity S-wave (km/s) = 3.07916 3.54549 3.32052
# Velocity P-wave (km/s) = 5.74681 7.30826 6.57406
#
# Compressibility (1/GPa) = 0.02578825
#
# Stress axis : x y z
#
# Youngs Moduli (GPa) = 33.17006 97.52049 107.12293
#
# Poissons Ratio (x) = 0.24962 0.51571
# Poissons Ratio (y) = 0.08491 0.49282
# Poissons Ratio (z) = 0.15969 0.44864
#
# Static dielectric constant tensor:
#      x y z
#    x 3.093040 0.000000 0.000000 
#    y 0.000000 3.568850 0.000000 
#    z 0.000000 0.000000 3.667260 
# 
# 
# High freq. dielectric constant tensor:
#      x y z
#    x 1.703520 0.000000 0.000000 
#    y 0.000000 1.730250 0.000000 
#    z 0.000000 0.000000 1.738820 
# 
# From -- ./inp_files/23120.got.cif
#   From: 2010.03.12/outbox.cif.g09.slc.cpg/sg69_12_cif.got.tgz:23120.got - 2010.04.10 23:52:46.
