data_PCOD8285461
_publ_section_title
;
Structure prediction by ZEFSAII (Michael W. Deem and Ramdas Pophale) SiO2 
 PCOD8285461
Probable space group: F M M M
;
_chemical_formula_sum "Si O2"
_cell_formula_units_Z 112
_cell_length_a 15.203259
_cell_length_b 35.269594
_cell_length_c 9.950061
_cell_angle_alpha 90.000000
_cell_angle_beta 90.000000
_cell_angle_gamma 90.000000
_cell_volume 5335.349794
_symmetry_space_group_name_H-M "F M M M"
_symmetry_group_IT_number 69
_symmetry_cell_setting 'orthorhombic'
loop_
_space_group_symop_operation_xyz
x,y,z
-x,-y,z
x,-y,-z
-x,y,-z
-x,-y,-z
x,y,-z
-x,y,z
x,-y,z
x,1/2+y,1/2+z
-x,1/2-y,1/2+z
x,1/2-y,1/2-z
-x,1/2+y,1/2-z
-x,1/2-y,1/2-z
x,1/2+y,1/2-z
-x,1/2+y,1/2+z
x,1/2-y,1/2+z
1/2+x,y,1/2+z
1/2-x,-y,1/2+z
1/2+x,-y,1/2-z
1/2-x,y,1/2-z
1/2-x,-y,1/2-z
1/2+x,y,1/2-z
1/2-x,y,1/2+z
1/2+x,-y,1/2+z
1/2+x,1/2+y,z
1/2-x,1/2-y,z
1/2+x,1/2-y,-z
1/2-x,1/2+y,-z
1/2-x,1/2-y,-z
1/2+x,1/2+y,-z
1/2-x,1/2+y,z
1/2+x,1/2-y,z
loop_
_atom_site_type_symbol
_atom_site_label
_atom_site_fract_x
_atom_site_fract_y
_atom_site_fract_z
Si Si1 0.155459 0.769267 0.000000
Si Si2 0.394562 0.830045 0.712221
Si Si3 0.403098 0.310955 0.500000
Si Si4 0.500000 0.457277 0.840401
Si Si5 0.669073 0.588061 0.152740
O O1 0.250000 0.750000 0.000000
O O2 0.142144 0.794236 0.132167
O O3 0.087426 0.734554 0.000000
O O4 0.500000 0.829738 0.705160
O O5 0.356578 0.826348 0.864637
O O6 0.356732 0.868006 0.649132
O O7 0.500000 0.328466 0.500000
O O8 0.500000 0.500000 0.783552
O O9 0.587102 0.435877 0.788765
O O10 0.500000 0.456662 0.000000
O O11 0.750000 0.579274 0.250000
O O12 0.693056 0.575904 0.000000
#
# Coordination Sequence:
#
# PCOD8285461 Si02
#       5
#    16  32  16  16  32
#     4  12  26  38  58  88 122 167 224 286 338 378
#     4  11  23  42  66  88 127 178 226 276 332 405
#     4  10  24  40  56  86 118 163 219 275 332 379
#     4   9  20  44  75 105 136 176 225 266 323 411
#     4  11  24  41  68 104 136 178 223 273 337 399
#
# _framework density 20.992063000000002
#
# number of rings (size 3 to 8) (size 9 to 14) (size 15 to 20)
#    0.000    1.286    2.857    2.143    6.000    4.000 
#    0.000    0.714    0.000    0.857    0.000    0.000 
#    0.000    0.000    0.000    0.000    0.000    0.000 
#
# Total GULP energy -347208.960646 kJ/mol
# GULP energy per Si atom -12400.320023 kJ/mol
# Density = 2.094428 g / cm^3
# Si number density = 20.992063 Si / 1000 Ang^3
#
#
#
# Elastic Constant Matrix: (Units=GPa)
#
#
# Indices 1 2 3 4 5 6 
#
# 1 141.4133 42.5916 50.8418 0.0000 0.0000 0.0000
# 2 42.5916 97.5499 18.9712 0.0000 0.0000 0.0000
# 3 50.8418 18.9712 133.9945 0.0000 0.0000 0.0000
# 4 0.0000 0.0000 0.0000 7.0780 0.0000 0.0000
# 5 0.0000 0.0000 0.0000 0.0000 31.2643 0.0000
# 6 0.0000 0.0000 0.0000 0.0000 0.0000 22.7203
#
#
#
# Elastic Compliance Matrix: (Units=1/GPa)
#
#
# Indices 1 2 3 4 5 6 
#
# 1 0.009181 -0.003425 -0.002999 0.000000 0.000000 0.000000
# 2 -0.003425 0.011819 -0.000374 0.000000 0.000000 0.000000
# 3 -0.002999 -0.000374 0.008654 0.000000 0.000000 0.000000
# 4 0.000000 0.000000 0.000000 0.141283 0.000000 0.000000
# 5 0.000000 0.000000 0.000000 0.000000 0.031985 0.000000
# 6 0.000000 0.000000 0.000000 0.000000 0.000000 0.044013
#
#
# Mechanical properties :
#
#
# Convention : Reuss Voigt Hill
#
# Bulk Modulus (GPa) = 62.27149 66.41855 64.34502
# Shear Modulus (GPa) = 18.80512 29.58272 24.19392
#
# Velocity S-wave (km/s) = 2.99627 3.75805 3.39857
# Velocity P-wave (km/s) = 6.45747 7.10909 6.79110
#
# Compressibility (1/GPa) = 0.01605871
#
# Stress axis : x y z
#
# Youngs Moduli (GPa) = 108.91719 84.60632 115.55753
#
# Poissons Ratio (x) = 0.28982 0.34652
# Poissons Ratio (y) = 0.37310 0.04318
# Poissons Ratio (z) = 0.32661 0.03162
#
# Static dielectric constant tensor:
#      x y z
#    x 3.857240 0.000000 0.000000 
#    y 0.000000 3.846690 0.000000 
#    z 0.000000 0.000000 3.968370 
# 
# 
# High freq. dielectric constant tensor:
#      x y z
#    x 1.829340 0.000000 0.000000 
#    y 0.000000 1.811040 0.000000 
#    z 0.000000 0.000000 1.819870 
# 
# From -- ./inp_files/7430.got.cif
#   From: 2010.03.12/outbox.cif.g09.slc.cpg/sg69_4_cif.got.tgz:7430.got - 2010.04.10 23:52:46.
