data_PCOD8285634
_publ_section_title
;
Structure prediction by ZEFSAII (Michael W. Deem and Ramdas Pophale) SiO2 
 PCOD8285634
Probable space group: F M M M
;
_chemical_formula_sum "Si O2"
_cell_formula_units_Z 168
_cell_length_a 18.051625
_cell_length_b 15.741149
_cell_length_c 28.808443
_cell_angle_alpha 90.000000
_cell_angle_beta 90.000000
_cell_angle_gamma 90.000000
_cell_volume 8186.014688
_symmetry_space_group_name_H-M "F M M M"
_symmetry_group_IT_number 69
_symmetry_cell_setting 'orthorhombic'
loop_
_space_group_symop_operation_xyz
x,y,z
-x,-y,z
x,-y,-z
-x,y,-z
-x,-y,-z
x,y,-z
-x,y,z
x,-y,z
x,1/2+y,1/2+z
-x,1/2-y,1/2+z
x,1/2-y,1/2-z
-x,1/2+y,1/2-z
-x,1/2-y,1/2-z
x,1/2+y,1/2-z
-x,1/2+y,1/2+z
x,1/2-y,1/2+z
1/2+x,y,1/2+z
1/2-x,-y,1/2+z
1/2+x,-y,1/2-z
1/2-x,y,1/2-z
1/2-x,-y,1/2-z
1/2+x,y,1/2-z
1/2-x,y,1/2+z
1/2+x,-y,1/2+z
1/2+x,1/2+y,z
1/2-x,1/2-y,z
1/2+x,1/2-y,-z
1/2-x,1/2+y,-z
1/2-x,1/2-y,-z
1/2+x,1/2+y,-z
1/2-x,1/2+y,z
1/2+x,1/2-y,z
loop_
_atom_site_type_symbol
_atom_site_label
_atom_site_fract_x
_atom_site_fract_y
_atom_site_fract_z
Si Si1 0.411501 0.673412 0.664769
Si Si2 0.166393 0.597824 0.749528
Si Si3 0.195784 0.598001 0.901778
Si Si4 0.417405 0.500000 0.910376
Si Si5 0.718152 0.843338 0.000000
Si Si6 0.151574 0.355866 0.646142
Si Si7 0.676659 0.500000 0.000000
O O1 0.500000 0.671710 0.662788
O O2 0.385020 0.655295 0.717349
O O3 0.376989 0.602471 0.630552
O O4 0.378023 0.760536 0.645358
O O5 0.162303 0.500000 0.766284
O O6 0.250000 0.632689 0.750000
O O7 0.140677 0.606353 0.697177
O O8 0.216991 0.500000 0.910993
O O9 0.174733 0.642301 0.951242
O O10 0.264722 0.641188 0.874288
O O11 0.500000 0.500000 0.927563
O O12 0.402840 0.413677 0.883077
O O13 0.369690 0.500000 0.954942
O O14 0.750000 0.750000 0.000000
O O15 0.781705 0.911844 0.000000
#
# Coordination Sequence:
#
# PCOD8285634 Si02
#       7
#    32  32  32  16  16  32   8
#     4  12  28  43  64 100 140 177 219 281 341 396
#     4  11  23  41  68  97 129 176 228 275 329 397
#     4  12  23  44  73  99 130 174 231 280 332 407
#     4  12  25  42  67  99 141 176 213 282 351 409
#     4  12  22  41  72 102 130 172 226 290 334 408
#     4  12  22  44  68  97 131 175 228 269 332 410
#     4  12  23  44  68 106 137 170 232 276 359 418
#
# _framework density 20.522807
#
# number of rings (size 3 to 8) (size 9 to 14) (size 15 to 20)
#    0.000    0.190    6.667    3.571    0.000    4.571 
#    0.000    0.476    0.000    1.143    0.000    0.000 
#    0.000    0.000    0.000    0.000    0.000    0.000 
#
# Total GULP energy -520762.237043 kJ/mol
# GULP energy per Si atom -12399.100882 kJ/mol
# Density = 2.047610 g / cm^3
# Si number density = 20.522807 Si / 1000 Ang^3
#
#
#
# Elastic Constant Matrix: (Units=GPa)
#
#
# Indices 1 2 3 4 5 6 
#
# 1 114.9640 31.7717 23.8337 0.0000 0.0000 0.0000
# 2 31.7717 106.4523 27.0830 0.0000 0.0000 0.0000
# 3 23.8337 27.0830 134.1654 0.0000 0.0000 0.0000
# 4 0.0000 0.0000 0.0000 192.6615 0.0000 0.0000
# 5 0.0000 0.0000 0.0000 0.0000 36.9246 0.0000
# 6 0.0000 0.0000 0.0000 0.0000 0.0000 23.8101
#
#
#
# Elastic Compliance Matrix: (Units=1/GPa)
#
#
# Indices 1 2 3 4 5 6 
#
# 1 0.009659 -0.002579 -0.001195 0.000000 0.000000 0.000000
# 2 -0.002579 0.010591 -0.001680 0.000000 0.000000 0.000000
# 3 -0.001195 -0.001680 0.008005 0.000000 0.000000 0.000000
# 4 0.000000 0.000000 0.000000 0.005190 0.000000 0.000000
# 5 0.000000 0.000000 0.000000 0.000000 0.027082 0.000000
# 6 0.000000 0.000000 0.000000 0.000000 0.000000 0.041999
#
#
# Mechanical properties :
#
#
# Convention : Reuss Voigt Hill
#
# Bulk Modulus (GPa) = 57.64670 57.88429 57.76549
# Shear Modulus (GPa) = 41.94063 68.87214 55.40638
#
# Velocity S-wave (km/s) = 4.52554 5.79928 5.20155
# Velocity P-wave (km/s) = 7.44697 8.55034 8.01766
#
# Compressibility (1/GPa) = 0.01734705
#
# Stress axis : x y z
#
# Youngs Moduli (GPa) = 103.53222 94.42091 124.92325
#
# Poissons Ratio (x) = 0.24348 0.14932
# Poissons Ratio (y) = 0.26698 0.20985
# Poissons Ratio (z) = 0.12375 0.15861
#
# Static dielectric constant tensor:
#      x y z
#    x 3.545010 0.000000 0.000000 
#    y 0.000000 3.869320 0.000000 
#    z 0.000000 0.000000 4.260790 
# 
# 
# High freq. dielectric constant tensor:
#      x y z
#    x 1.776520 0.000000 0.000000 
#    y 0.000000 1.817320 0.000000 
#    z 0.000000 0.000000 1.825610 
# 
# From -- ./inp_files/42630.got.cif
#   From: 2010.03.12/outbox.cif.g09.slc.cpg/sg69_22_cif.got.tgz:42630.got - 2010.04.10 23:52:46.
