data_PCOD8285372
_publ_section_title
;
Structure prediction by ZEFSAII (Michael W. Deem and Ramdas Pophale) SiO2 
 PCOD8285372
Probable space group: F M M M
;
_chemical_formula_sum "Si O2"
_cell_formula_units_Z 88
_cell_length_a 13.483011
_cell_length_b 29.208771
_cell_length_c 10.124665
_cell_angle_alpha 90.000000
_cell_angle_beta 90.000000
_cell_angle_gamma 90.000000
_cell_volume 3987.317649
_symmetry_space_group_name_H-M "F M M M"
_symmetry_group_IT_number 69
_symmetry_cell_setting 'orthorhombic'
loop_
_space_group_symop_operation_xyz
x,y,z
-x,-y,z
x,-y,-z
-x,y,-z
-x,-y,-z
x,y,-z
-x,y,z
x,-y,z
x,1/2+y,1/2+z
-x,1/2-y,1/2+z
x,1/2-y,1/2-z
-x,1/2+y,1/2-z
-x,1/2-y,1/2-z
x,1/2+y,1/2-z
-x,1/2+y,1/2+z
x,1/2-y,1/2+z
1/2+x,y,1/2+z
1/2-x,-y,1/2+z
1/2+x,-y,1/2-z
1/2-x,y,1/2-z
1/2-x,-y,1/2-z
1/2+x,y,1/2-z
1/2-x,y,1/2+z
1/2+x,-y,1/2+z
1/2+x,1/2+y,z
1/2-x,1/2-y,z
1/2+x,1/2-y,-z
1/2-x,1/2+y,-z
1/2-x,1/2-y,-z
1/2+x,1/2+y,-z
1/2-x,1/2+y,z
1/2+x,1/2-y,z
loop_
_atom_site_type_symbol
_atom_site_label
_atom_site_fract_x
_atom_site_fract_y
_atom_site_fract_z
Si Si1 0.107459 0.500000 0.844214
Si Si2 0.886293 0.325940 0.648362
Si Si3 0.250000 0.750000 0.750000
Si Si4 0.881494 0.901857 0.351913
O O1 0.162249 0.548016 0.807763
O O2 0.000000 0.500000 0.773535
O O3 0.091743 0.500000 0.000000
O O4 0.879169 0.345475 0.500000
O O5 0.820392 0.280507 0.657659
O O6 0.843371 0.364087 0.748658
O O7 0.000000 0.313588 0.684137
O O8 0.845420 0.888233 0.500000
O O9 0.000000 0.905079 0.349949
#
# Coordination Sequence:
#
# PCOD8285372 Si02
#       4
#    16  32   8  32
#     4   7  10  20  43  76 109 142 180 214 250 312
#     4  10  22  39  58  83 113 142 180 233 283 325
#     4  12  24  40  60  78 102 148 194 226 274 344
#     4   8  14  27  50  79 111 146 181 217 262 321
#
# _framework density 22.069974999999999
#
# number of rings (size 3 to 8) (size 9 to 14) (size 15 to 20)
#    0.000    3.091    0.000    3.273    0.000    2.909 
#    0.000    4.545    0.000    6.545    0.000    0.000 
#    0.000    0.000    0.000    0.000    0.000    2.545 
#
# Total GULP energy -272553.744895 kJ/mol
# GULP energy per Si atom -12388.806586 kJ/mol
# Density = 2.201974 g / cm^3
# Si number density = 22.069975 Si / 1000 Ang^3
#
#
#
# Elastic Constant Matrix: (Units=GPa)
#
#
# Indices 1 2 3 4 5 6 
#
# 1 64.4834 41.6161 28.6488 0.0000 0.0000 0.0000
# 2 41.6161 189.8285 83.8378 0.0000 0.0000 0.0000
# 3 28.6488 83.8378 130.9141 0.0000 0.0000 0.0000
# 4 0.0000 0.0000 0.0000 -16.1148 0.0000 0.0000
# 5 0.0000 0.0000 0.0000 0.0000 3.7912 0.0000
# 6 0.0000 0.0000 0.0000 0.0000 0.0000 -22.1481
#
#
#
# Elastic Compliance Matrix: (Units=1/GPa)
#
#
# Indices 1 2 3 4 5 6 
#
# 1 0.018438 -0.003151 -0.002017 0.000000 0.000000 0.000000
# 2 -0.003151 0.007884 -0.004359 0.000000 0.000000 0.000000
# 3 -0.002017 -0.004359 0.010872 0.000000 0.000000 0.000000
# 4 0.000000 0.000000 0.000000 -0.062055 0.000000 0.000000
# 5 0.000000 0.000000 0.000000 0.000000 0.263771 0.000000
# 6 0.000000 0.000000 0.000000 0.000000 0.000000 -0.045151
#
#
# Mechanical properties :
#
#
# Convention : Reuss Voigt Hill
#
# Bulk Modulus (GPa) = 55.13113 77.04793 66.08953
# Shear Modulus (GPa) = 22.84564 8.51387 15.67976
#
# Velocity S-wave (km/s) = 3.22086 1.96623 2.66833
# Velocity P-wave (km/s) = 6.23428 6.33571 6.28520
#
# Compressibility (1/GPa) = 0.01813857
#
# Stress axis : x y z
#
# Youngs Moduli (GPa) = 54.23673 126.83723 91.98224
#
# Poissons Ratio (x) = 0.39972 0.18550
# Poissons Ratio (y) = 0.17092 0.40098
# Poissons Ratio (z) = 0.10938 0.55293
#
# Static dielectric constant tensor:
#      x y z
#    x 3.663320 0.000000 0.000000 
#    y 0.000000 4.443720 0.000000 
#    z 0.000000 0.000000 3.722220 
# 
# 
# High freq. dielectric constant tensor:
#      x y z
#    x 1.857160 0.000000 0.000000 
#    y 0.000000 1.874610 0.000000 
#    z 0.000000 0.000000 1.842100 
# 
# From -- ./inp_files/6978.got.cif
#   From: 2010.03.12/outbox.cif.g09.slc.cpg/sg69_4_cif.got.tgz:6978.got - 2010.04.10 23:52:46.
