data_PCOD8285335
_publ_section_title
;
Structure prediction by ZEFSAII (Michael W. Deem and Ramdas Pophale) SiO2 
 PCOD8285335
Probable space group: F M M M
;
_chemical_formula_sum "Si O2"
_cell_formula_units_Z 192
_cell_length_a 17.741280
_cell_length_b 27.134794
_cell_length_c 22.258289
_cell_angle_alpha 90.000000
_cell_angle_beta 90.000000
_cell_angle_gamma 90.000000
_cell_volume 10715.273387
_symmetry_space_group_name_H-M "F M M M"
_symmetry_group_IT_number 69
_symmetry_cell_setting 'orthorhombic'
loop_
_space_group_symop_operation_xyz
x,y,z
-x,-y,z
x,-y,-z
-x,y,-z
-x,-y,-z
x,y,-z
-x,y,z
x,-y,z
x,1/2+y,1/2+z
-x,1/2-y,1/2+z
x,1/2-y,1/2-z
-x,1/2+y,1/2-z
-x,1/2-y,1/2-z
x,1/2+y,1/2-z
-x,1/2+y,1/2+z
x,1/2-y,1/2+z
1/2+x,y,1/2+z
1/2-x,-y,1/2+z
1/2+x,-y,1/2-z
1/2-x,y,1/2-z
1/2-x,-y,1/2-z
1/2+x,y,1/2-z
1/2-x,y,1/2+z
1/2+x,-y,1/2+z
1/2+x,1/2+y,z
1/2-x,1/2-y,z
1/2+x,1/2-y,-z
1/2-x,1/2+y,-z
1/2-x,1/2-y,-z
1/2+x,1/2+y,-z
1/2-x,1/2+y,z
1/2+x,1/2-y,z
loop_
_atom_site_type_symbol
_atom_site_label
_atom_site_fract_x
_atom_site_fract_y
_atom_site_fract_z
Si Si1 0.736792 0.945733 0.649938
Si Si2 0.086739 0.197164 0.877479
Si Si3 0.418033 0.340927 0.745020
Si Si4 0.868890 0.054741 0.736965
Si Si5 0.722180 0.146156 0.430876
Si Si6 0.183237 0.285155 0.153493
O O1 0.821073 0.942704 0.675823
O O2 0.681593 0.935083 0.704937
O O3 0.724185 0.908325 0.595974
O O4 0.721656 0.000000 0.623164
O O5 0.099492 0.170982 0.813766
O O6 0.137814 0.167929 0.925207
O O7 0.114761 0.253567 0.874064
O O8 0.000000 0.195868 0.898533
O O9 0.500000 0.318222 0.727254
O O10 0.426674 0.399846 0.735185
O O11 0.349679 0.318033 0.707299
O O12 0.907176 0.000000 0.741249
O O13 0.745262 0.143453 0.500000
O O14 0.783354 0.180325 0.398129
O O15 0.250000 0.250000 0.178666
#
# Coordination Sequence:
#
# PCOD8285335 Si02
#       6
#    32  32  32  32  32  32
#     4   9  17  32  55  81 107 134 172 217 265 318
#     4  10  22  37  53  78 109 140 173 216 267 319
#     4  11  20  33  55  83 112 139 170 210 272 336
#     4   9  17  31  55  83 108 136 168 210 271 330
#     4  11  22  36  56  78 102 140 188 221 255 304
#     4  10  22  35  54  78 107 139 177 223 266 310
#
# _framework density 17.918348999999999
#
# number of rings (size 3 to 8) (size 9 to 14) (size 15 to 20)
#    0.000    2.000    3.333    2.000    0.000   10.000 
#    0.000    0.000    0.000    2.000    0.000    1.167 
#    0.000    2.667    0.000    0.000    0.000    0.000 
#
# Total GULP energy -594996.528397 kJ/mol
# GULP energy per Si atom -12395.761008 kJ/mol
# Density = 1.787757 g / cm^3
# Si number density = 17.918349 Si / 1000 Ang^3
#
#
#
# Elastic Constant Matrix: (Units=GPa)
#
#
# Indices 1 2 3 4 5 6 
#
# 1 67.3213 27.1945 20.9823 0.0000 0.0000 0.0000
# 2 27.1945 117.8986 26.8597 0.0000 0.0000 0.0000
# 3 20.9823 26.8597 65.0383 0.0000 0.0000 0.0000
# 4 0.0000 0.0000 0.0000 12.8551 0.0000 0.0000
# 5 0.0000 0.0000 0.0000 0.0000 14.3722 0.0000
# 6 0.0000 0.0000 0.0000 0.0000 0.0000 20.1061
#
#
#
# Elastic Compliance Matrix: (Units=1/GPa)
#
#
# Indices 1 2 3 4 5 6 
#
# 1 0.017441 -0.003026 -0.004377 0.000000 0.000000 0.000000
# 2 -0.003026 0.009888 -0.003107 0.000000 0.000000 0.000000
# 3 -0.004377 -0.003107 0.018071 0.000000 0.000000 0.000000
# 4 0.000000 0.000000 0.000000 0.077790 0.000000 0.000000
# 5 0.000000 0.000000 0.000000 0.000000 0.069579 0.000000
# 6 0.000000 0.000000 0.000000 0.000000 0.000000 0.049736
#
#
# Mechanical properties :
#
#
# Convention : Reuss Voigt Hill
#
# Bulk Modulus (GPa) = 41.01869 44.48123 42.74996
# Shear Modulus (GPa) = 18.40600 21.14813 19.77706
#
# Velocity S-wave (km/s) = 3.20850 3.43920 3.32585
# Velocity P-wave (km/s) = 6.05538 6.37567 6.21759
#
# Compressibility (1/GPa) = 0.02437913
#
# Stress axis : x y z
#
# Youngs Moduli (GPa) = 57.33763 101.13604 55.33758
#
# Poissons Ratio (x) = 0.30600 0.24221
# Poissons Ratio (y) = 0.17348 0.17195
# Poissons Ratio (z) = 0.25097 0.31426
#
# Static dielectric constant tensor:
#      x y z
#    x 3.303290 0.000000 0.000000 
#    y 0.000000 3.576930 0.000000 
#    z 0.000000 0.000000 2.915150 
# 
# 
# High freq. dielectric constant tensor:
#      x y z
#    x 1.685600 0.000000 0.000000 
#    y 0.000000 1.711640 0.000000 
#    z 0.000000 0.000000 1.657160 
# 
# From -- ./inp_files/32130.got.cif
#   From: 2010.03.12/outbox.cif.g09.slc.cpg/sg69_17_cif.got.tgz:32130.got - 2010.04.10 23:52:46.
