data_PCOD8285668
_publ_section_title
;
Structure prediction by ZEFSAII (Michael W. Deem and Ramdas Pophale) SiO2 
 PCOD8285668
Probable space group: F M M M
;
_chemical_formula_sum "Si O2"
_cell_formula_units_Z 168
_cell_length_a 13.066838
_cell_length_b 19.367405
_cell_length_c 31.594724
_cell_angle_alpha 90.000000
_cell_angle_beta 90.000000
_cell_angle_gamma 90.000000
_cell_volume 7995.700297
_symmetry_space_group_name_H-M "F M M M"
_symmetry_group_IT_number 69
_symmetry_cell_setting 'orthorhombic'
loop_
_space_group_symop_operation_xyz
x,y,z
-x,-y,z
x,-y,-z
-x,y,-z
-x,-y,-z
x,y,-z
-x,y,z
x,-y,z
x,1/2+y,1/2+z
-x,1/2-y,1/2+z
x,1/2-y,1/2-z
-x,1/2+y,1/2-z
-x,1/2-y,1/2-z
x,1/2+y,1/2-z
-x,1/2+y,1/2+z
x,1/2-y,1/2+z
1/2+x,y,1/2+z
1/2-x,-y,1/2+z
1/2+x,-y,1/2-z
1/2-x,y,1/2-z
1/2-x,-y,1/2-z
1/2+x,y,1/2-z
1/2-x,y,1/2+z
1/2+x,-y,1/2+z
1/2+x,1/2+y,z
1/2-x,1/2-y,z
1/2+x,1/2-y,-z
1/2-x,1/2+y,-z
1/2-x,1/2-y,-z
1/2+x,1/2+y,-z
1/2-x,1/2+y,z
1/2+x,1/2-y,z
loop_
_atom_site_type_symbol
_atom_site_label
_atom_site_fract_x
_atom_site_fract_y
_atom_site_fract_z
Si Si1 0.378463 0.423240 0.548212
Si Si2 0.878702 0.575368 0.378950
Si Si3 0.379008 0.164212 0.546357
Si Si4 0.121223 0.296932 0.324267
Si Si5 0.750000 0.750000 0.250000
Si Si6 0.621206 0.206949 0.900985
O O1 0.344961 0.405699 0.500000
O O2 0.500000 0.421229 0.550807
O O3 0.340122 0.500000 0.561397
O O4 0.332337 0.365845 0.581298
O O5 0.831692 0.500000 0.368216
O O6 0.849534 0.595504 0.427280
O O7 0.837600 0.634077 0.347319
O O8 0.000000 0.573200 0.374671
O O9 0.329469 0.157511 0.500000
O O10 0.500000 0.171986 0.543332
O O11 0.335071 0.231599 0.569840
O O12 0.176825 0.296338 0.279208
O O13 0.149987 0.228174 0.352433
O O14 0.000000 0.299875 0.317063
O O15 0.500000 0.203448 0.904756
#
# Coordination Sequence:
#
# PCOD8285668 Si02
#       6
#    32  32  32  32   8  32
#     4   8  12  17  30  58  94 130 168 205 236 269
#     4   8  14  26  44  67  99 135 164 195 239 287
#     4   8  12  17  30  58  94 130 166 198 227 266
#     4   9  19  34  53  77 100 125 159 199 247 300
#     4  12  22  36  58  78  94 116 154 206 256 306
#     4   8  13  23  38  58  91 129 160 196 240 283
#
# _framework density 21.011292999999998
#
# number of rings (size 3 to 8) (size 9 to 14) (size 15 to 20)
#    0.000    3.619    0.000    3.714    0.000    2.667 
#    0.000    2.381    0.000    2.286    0.000   22.000 
#    0.000    0.000    0.000    0.000    0.000    4.762 
#
# Total GULP energy -520371.863655 kJ/mol
# GULP energy per Si atom -12389.806278 kJ/mol
# Density = 2.096347 g / cm^3
# Si number density = 21.011293 Si / 1000 Ang^3
#
#
#
# Elastic Constant Matrix: (Units=GPa)
#
#
# Indices 1 2 3 4 5 6 
#
# 1 30.5038 17.7024 20.0187 0.0000 0.0000 0.0000
# 2 17.7024 174.5900 77.8638 0.0000 0.0000 0.0000
# 3 20.0187 77.8638 163.3840 0.0000 0.0000 0.0000
# 4 0.0000 0.0000 0.0000 6.9259 0.0000 0.0000
# 5 0.0000 0.0000 0.0000 0.0000 -27.8548 0.0000
# 6 0.0000 0.0000 0.0000 0.0000 0.0000 15.3973
#
#
#
# Elastic Compliance Matrix: (Units=1/GPa)
#
#
# Indices 1 2 3 4 5 6 
#
# 1 0.036276 -0.002154 -0.003418 0.000000 0.000000 0.000000
# 2 -0.002154 0.007402 -0.003263 0.000000 0.000000 0.000000
# 3 -0.003418 -0.003263 0.008095 0.000000 0.000000 0.000000
# 4 0.000000 0.000000 0.000000 0.144385 0.000000 0.000000
# 5 0.000000 0.000000 0.000000 0.000000 -0.035900 0.000000
# 6 0.000000 0.000000 0.000000 0.000000 0.000000 0.064946
#
#
# Mechanical properties :
#
#
# Convention : Reuss Voigt Hill
#
# Bulk Modulus (GPa) = 29.32445 66.62752 47.97598
# Shear Modulus (GPa) = 19.66633 15.75321 17.70977
#
# Velocity S-wave (km/s) = 3.06271 2.74113 2.90637
# Velocity P-wave (km/s) = 5.14721 6.46510 5.84343
#
# Compressibility (1/GPa) = 0.03410124
#
# Stress axis : x y z
#
# Youngs Moduli (GPa) = 27.56640 135.10754 123.53841
#
# Poissons Ratio (x) = 0.29098 0.42230
# Poissons Ratio (y) = 0.05937 0.40316
# Poissons Ratio (z) = 0.09423 0.44092
#
# Static dielectric constant tensor:
#      x y z
#    x 3.666550 0.000000 0.000000 
#    y 0.000000 4.254720 0.000000 
#    z 0.000000 0.000000 3.676090 
# 
# 
# High freq. dielectric constant tensor:
#      x y z
#    x 1.841030 0.000000 0.000000 
#    y 0.000000 1.813620 0.000000 
#    z 0.000000 0.000000 1.786300 
# 
# From -- ./inp_files/45783.got.cif
#   From: 2010.03.12/outbox.cif.g09.slc.cpg/sg69_23_cif.got.tgz:45783.got - 2010.04.10 23:52:46.
