data_PCOD8285603
_publ_section_title
;
Structure prediction by ZEFSAII (Michael W. Deem and Ramdas Pophale) SiO2 
 PCOD8285603
Probable space group: F M M M
;
_chemical_formula_sum "Si O2"
_cell_formula_units_Z 176
_cell_length_a 23.227661
_cell_length_b 14.660511
_cell_length_c 23.947020
_cell_angle_alpha 90.000000
_cell_angle_beta 90.000000
_cell_angle_gamma 90.000000
_cell_volume 8154.663864
_symmetry_space_group_name_H-M "F M M M"
_symmetry_group_IT_number 69
_symmetry_cell_setting 'orthorhombic'
loop_
_space_group_symop_operation_xyz
x,y,z
-x,-y,z
x,-y,-z
-x,y,-z
-x,-y,-z
x,y,-z
-x,y,z
x,-y,z
x,1/2+y,1/2+z
-x,1/2-y,1/2+z
x,1/2-y,1/2-z
-x,1/2+y,1/2-z
-x,1/2-y,1/2-z
x,1/2+y,1/2-z
-x,1/2+y,1/2+z
x,1/2-y,1/2+z
1/2+x,y,1/2+z
1/2-x,-y,1/2+z
1/2+x,-y,1/2-z
1/2-x,y,1/2-z
1/2-x,-y,1/2-z
1/2+x,y,1/2-z
1/2-x,y,1/2+z
1/2+x,-y,1/2+z
1/2+x,1/2+y,z
1/2-x,1/2-y,z
1/2+x,1/2-y,-z
1/2-x,1/2+y,-z
1/2-x,1/2-y,-z
1/2+x,1/2+y,-z
1/2-x,1/2+y,z
1/2+x,1/2-y,z
loop_
_atom_site_type_symbol
_atom_site_label
_atom_site_fract_x
_atom_site_fract_y
_atom_site_fract_z
Si Si1 0.865411 0.898703 0.651696
Si Si2 0.735157 0.855011 0.063548
Si Si3 0.691195 0.102849 0.268541
Si Si4 0.351363 0.101903 0.615052
Si Si5 0.068185 0.102474 0.500000
Si Si6 0.932778 0.237395 0.596418
O O1 0.811949 0.879873 0.610087
O O2 0.850667 0.895945 0.716569
O O3 0.914119 0.819306 0.650967
O O4 0.889800 0.000000 0.637422
O O5 0.750000 0.750000 0.068034
O O6 0.794480 0.906788 0.077346
O O7 0.714948 0.880798 0.000000
O O8 0.750000 0.154100 0.250000
O O9 0.662808 0.146624 0.323956
O O10 0.707366 0.000000 0.287479
O O11 0.399035 0.168053 0.587335
O O12 0.378244 0.000000 0.620130
O O13 0.089149 0.162086 0.448075
O O14 0.000000 0.094731 0.500000
O O15 0.095039 0.000000 0.500000
O O16 0.000000 0.259895 0.593832
#
# Coordination Sequence:
#
# PCOD8285603 Si02
#       6
#    32  32  32  32  16  32
#     4  11  22  38  64  94 123 160 207 265 327 382
#     4  11  23  39  60  94 133 162 199 256 326 393
#     4   9  18  36  61  92 126 161 209 259 314 386
#     4  11  23  41  65  92 128 173 212 256 316 381
#     4   9  20  42  69  90 117 163 213 265 318 365
#     4  11  25  43  61  90 127 166 218 266 309 374
#
# _framework density 21.582740000000001
#
# number of rings (size 3 to 8) (size 9 to 14) (size 15 to 20)
#    0.000    1.545    3.636    1.091    2.545    3.636 
#    0.000    3.636    0.000    4.909    0.000    0.000 
#    0.000    0.000    0.000    0.000    0.000    0.000 
#
# Total GULP energy -545214.604628 kJ/mol
# GULP energy per Si atom -12391.241014 kJ/mol
# Density = 2.153362 g / cm^3
# Si number density = 21.582740 Si / 1000 Ang^3
#
#
#
# Elastic Constant Matrix: (Units=GPa)
#
#
# Indices 1 2 3 4 5 6 
#
# 1 75.9676 31.1971 13.3441 0.0000 0.0000 0.0000
# 2 31.1971 122.4953 26.3034 0.0000 0.0000 0.0000
# 3 13.3441 26.3034 99.2699 0.0000 0.0000 0.0000
# 4 0.0000 0.0000 0.0000 543.5007 0.0000 0.0000
# 5 0.0000 0.0000 0.0000 0.0000 21.8107 0.0000
# 6 0.0000 0.0000 0.0000 0.0000 0.0000 31.1525
#
#
#
# Elastic Compliance Matrix: (Units=1/GPa)
#
#
# Indices 1 2 3 4 5 6 
#
# 1 0.014804 -0.003545 -0.001051 0.000000 0.000000 0.000000
# 2 -0.003545 0.009505 -0.002042 0.000000 0.000000 0.000000
# 3 -0.001051 -0.002042 0.010756 0.000000 0.000000 0.000000
# 4 0.000000 0.000000 0.000000 0.001840 0.000000 0.000000
# 5 0.000000 0.000000 0.000000 0.000000 0.045849 0.000000
# 6 0.000000 0.000000 0.000000 0.000000 0.000000 0.032100
#
#
# Mechanical properties :
#
#
# Convention : Reuss Voigt Hill
#
# Bulk Modulus (GPa) = 45.89326 48.82467 47.35896
# Shear Modulus (GPa) = 36.92997 134.41867 85.67432
#
# Velocity S-wave (km/s) = 4.14102 7.90037 6.30729
# Velocity P-wave (km/s) = 6.64636 10.29040 8.66217
#
# Compressibility (1/GPa) = 0.02178969
#
# Stress axis : x y z
#
# Youngs Moduli (GPa) = 67.55070 105.21010 92.97256
#
# Poissons Ratio (x) = 0.37293 0.09769
# Poissons Ratio (y) = 0.23944 0.18985
# Poissons Ratio (z) = 0.07098 0.21484
#
# Static dielectric constant tensor:
#      x y z
#    x 3.585630 0.000000 0.000000 
#    y 0.000000 4.090770 0.000000 
#    z 0.000000 0.000000 4.139350 
# 
# 
# High freq. dielectric constant tensor:
#      x y z
#    x 1.818410 0.000000 0.000000 
#    y 0.000000 1.857120 0.000000 
#    z 0.000000 0.000000 1.853020 
# 
# From -- ./inp_files/35906.got.cif
#   From: 2010.03.12/outbox.cif.g09.slc.cpg/sg69_18_cif.got.tgz:35906.got - 2010.04.10 23:52:46.
