data_PCOD8285380
_publ_section_title
;
Structure prediction by ZEFSAII (Michael W. Deem and Ramdas Pophale) SiO2 
 PCOD8285380
Probable space group: F M M M
;
_chemical_formula_sum "Si O2"
_cell_formula_units_Z 160
_cell_length_a 13.315415
_cell_length_b 25.825563
_cell_length_c 25.829956
_cell_angle_alpha 90.000000
_cell_angle_beta 90.000000
_cell_angle_gamma 90.000000
_cell_volume 8882.355907
_symmetry_space_group_name_H-M "F M M M"
_symmetry_group_IT_number 69
_symmetry_cell_setting 'orthorhombic'
loop_
_space_group_symop_operation_xyz
x,y,z
-x,-y,z
x,-y,-z
-x,y,-z
-x,-y,-z
x,y,-z
-x,y,z
x,-y,z
x,1/2+y,1/2+z
-x,1/2-y,1/2+z
x,1/2-y,1/2-z
-x,1/2+y,1/2-z
-x,1/2-y,1/2-z
x,1/2+y,1/2-z
-x,1/2+y,1/2+z
x,1/2-y,1/2+z
1/2+x,y,1/2+z
1/2-x,-y,1/2+z
1/2+x,-y,1/2-z
1/2-x,y,1/2-z
1/2-x,-y,1/2-z
1/2+x,y,1/2-z
1/2-x,y,1/2+z
1/2+x,-y,1/2+z
1/2+x,1/2+y,z
1/2-x,1/2-y,z
1/2+x,1/2-y,-z
1/2-x,1/2+y,-z
1/2-x,1/2-y,-z
1/2+x,1/2+y,-z
1/2-x,1/2+y,z
1/2+x,1/2-y,z
loop_
_atom_site_type_symbol
_atom_site_label
_atom_site_fract_x
_atom_site_fract_y
_atom_site_fract_z
Si Si1 0.500000 0.872223 0.287792
Si Si2 0.809042 0.197446 0.942450
Si Si3 0.828898 0.381001 0.880981
Si Si4 0.500000 0.712143 0.872232
Si Si5 0.190918 0.942448 0.802525
Si Si6 0.000000 0.321991 0.177979
Si Si7 0.500000 0.060295 0.939827
O O1 0.500000 0.839387 0.339348
O O2 0.595888 0.908349 0.288510
O O3 0.500000 0.833507 0.238976
O O4 0.750000 0.250000 0.947775
O O5 0.741029 0.153486 0.917104
O O6 0.904098 0.211384 0.908343
O O7 0.841241 0.178451 0.000000
O O8 0.758847 0.417034 0.846471
O O9 0.898328 0.345277 0.845307
O O10 0.899070 0.416399 0.916240
O O11 0.500000 0.760989 0.833554
O O12 0.250000 0.947833 0.750000
O O13 0.158722 0.000000 0.821554
O O14 0.500000 0.000000 0.927595
O O15 0.500000 0.073240 0.000000
#
# Coordination Sequence:
#
# PCOD8285380 Si02
#       7
#    16  32  32  16  32  16  16
#     4  12  23  40  60  88 123 158 199 242 295 364
#     4  11  23  39  62  88 118 160 205 249 299 359
#     4  11  21  40  61  86 122 154 197 244 306 355
#     4  12  23  40  60  88 123 158 199 242 295 364
#     4  11  23  39  62  88 118 160 205 249 299 359
#     4  11  23  37  59  91 119 152 198 238 295 361
#     4  10  22  39  61  90 118 150 198 254 308 356
#
# _framework density 18.013238999999999
#
# number of rings (size 3 to 8) (size 9 to 14) (size 15 to 20)
#    0.000    0.900    6.000    2.100    0.000    0.000 
#    0.000    0.000    0.000    0.000    0.000    1.400 
#    0.000    0.000    0.000    0.000    0.000    0.000 
#
# Total GULP energy -496037.397905 kJ/mol
# GULP energy per Si atom -12400.934948 kJ/mol
# Density = 1.797224 g / cm^3
# Si number density = 18.013239 Si / 1000 Ang^3
#
#
#
# Elastic Constant Matrix: (Units=GPa)
#
#
# Indices 1 2 3 4 5 6 
#
# 1 115.9470 44.5638 53.7039 0.0000 0.0000 0.0000
# 2 44.5638 -9.8655 161.4968 0.0000 0.0000 0.0000
# 3 53.7039 161.4968 11.3311 0.0000 0.0000 0.0000
# 4 0.0000 0.0000 0.0000 33.5267 0.0000 0.0000
# 5 0.0000 0.0000 0.0000 0.0000 25.9053 0.0000
# 6 0.0000 0.0000 0.0000 0.0000 0.0000 25.3709
#
#
#
# Elastic Compliance Matrix: (Units=1/GPa)
#
#
# Indices 1 2 3 4 5 6 
#
# 1 0.011600 -0.003617 -0.003422 0.000000 0.000000 0.000000
# 2 -0.003617 0.000695 0.007233 0.000000 0.000000 0.000000
# 3 -0.003422 0.007233 0.001386 0.000000 0.000000 0.000000
# 4 0.000000 0.000000 0.000000 0.029827 0.000000 0.000000
# 5 0.000000 0.000000 0.000000 0.000000 0.038602 0.000000
# 6 0.000000 0.000000 0.000000 0.000000 0.000000 0.039415
#
#
# Mechanical properties :
#
#
# Convention : Reuss Voigt Hill
#
# Bulk Modulus (GPa) = 71.08103 70.77128 70.92616
# Shear Modulus (GPa) = 39.73673 7.47045 23.60359
#
# Velocity S-wave (km/s) = 4.70187 2.03868 3.62380
# Velocity P-wave (km/s) = 8.30800 6.70189 7.54779
#
# Compressibility (1/GPa) = 0.01406845
#
# Stress axis : x y z
#
# Youngs Moduli (GPa) = 86.20796 1437.96699 721.46542
#
# Poissons Ratio (x) = 5.20157 2.46876
# Poissons Ratio (y) = 0.31184 -5.21816
# Poissons Ratio (z) = 0.29499 -10.40042
#
# Static dielectric constant tensor:
#      x y z
#    x 3.113100 0.000000 0.000000 
#    y 0.000000 3.510080 0.000000 
#    z 0.000000 0.000000 3.512900 
# 
# 
# High freq. dielectric constant tensor:
#      x y z
#    x 1.709320 0.000000 0.000000 
#    y 0.000000 1.709540 0.000000 
#    z 0.000000 0.000000 1.709570 
# 
# From -- ./inp_files/11533.got.cif
#   From: 2010.03.12/outbox.cif.g09.slc.cpg/sg69_6_cif.got.tgz:11533.got - 2010.04.10 23:52:46.
