data_PCOD8285271
_publ_section_title
;
Structure prediction by ZEFSAII (Michael W. Deem and Ramdas Pophale) SiO2 
 PCOD8285271
Probable space group: F M M M
;
_chemical_formula_sum "Si O2"
_cell_formula_units_Z 160
_cell_length_a 14.379217
_cell_length_b 32.013676
_cell_length_c 17.777325
_cell_angle_alpha 90.000000
_cell_angle_beta 90.000000
_cell_angle_gamma 90.000000
_cell_volume 8183.464357
_symmetry_space_group_name_H-M "F M M M"
_symmetry_group_IT_number 69
_symmetry_cell_setting 'orthorhombic'
loop_
_space_group_symop_operation_xyz
x,y,z
-x,-y,z
x,-y,-z
-x,y,-z
-x,-y,-z
x,y,-z
-x,y,z
x,-y,z
x,1/2+y,1/2+z
-x,1/2-y,1/2+z
x,1/2-y,1/2-z
-x,1/2+y,1/2-z
-x,1/2-y,1/2-z
x,1/2+y,1/2-z
-x,1/2+y,1/2+z
x,1/2-y,1/2+z
1/2+x,y,1/2+z
1/2-x,-y,1/2+z
1/2+x,-y,1/2-z
1/2-x,y,1/2-z
1/2-x,-y,1/2-z
1/2+x,y,1/2-z
1/2-x,y,1/2+z
1/2+x,-y,1/2+z
1/2+x,1/2+y,z
1/2-x,1/2-y,z
1/2+x,1/2-y,-z
1/2-x,1/2+y,-z
1/2-x,1/2-y,-z
1/2+x,1/2+y,-z
1/2-x,1/2+y,z
1/2+x,1/2-y,z
loop_
_atom_site_type_symbol
_atom_site_label
_atom_site_fract_x
_atom_site_fract_y
_atom_site_fract_z
Si Si1 0.841344 0.101821 0.916971
Si Si2 0.500000 0.453331 0.673894
Si Si3 0.837031 0.453458 0.917624
Si Si4 0.889795 0.761034 0.662278
Si Si5 0.000000 0.952340 0.848977
Si Si6 0.271512 0.809264 0.590047
O O1 0.750663 0.075034 0.920954
O O2 0.911611 0.075202 0.868103
O O3 0.813728 0.146592 0.882441
O O4 0.884668 0.108217 0.000000
O O5 0.500000 0.500000 0.637773
O O6 0.592579 0.431713 0.641623
O O7 0.500000 0.456448 0.761279
O O8 0.806629 0.500000 0.891543
O O9 0.883900 0.454784 0.000000
O O10 0.873367 0.750000 0.750000
O O11 0.824983 0.800261 0.636044
O O12 0.852638 0.723360 0.610592
O O13 0.000000 0.769530 0.647009
O O14 0.000000 0.000000 0.884063
O O15 0.251934 0.808572 0.500000
#
# Coordination Sequence:
#
# PCOD8285271 Si02
#       6
#    32  16  32  32  16  32
#     4  10  22  38  56  84 114 149 197 246 289 341
#     4   9  19  35  53  81 110 143 193 236 284 345
#     4   9  17  34  58  80 109 150 193 237 286 337
#     4  10  21  40  63  88 118 155 190 233 288 359
#     4  11  23  39  57  83 121 158 197 243 295 353
#     4  10  21  38  60  88 119 150 194 243 286 339
#
# _framework density 19.551621000000001
#
# number of rings (size 3 to 8) (size 9 to 14) (size 15 to 20)
#    0.000    2.200    0.000    3.600    1.400    5.200 
#    9.000    3.000    0.000    0.000    0.000    0.000 
#    0.000    0.000    0.000    0.000    0.000    0.000 
#
# Total GULP energy -495564.680633 kJ/mol
# GULP energy per Si atom -12389.117016 kJ/mol
# Density = 1.950712 g / cm^3
# Si number density = 19.551621 Si / 1000 Ang^3
#
#
#
# Elastic Constant Matrix: (Units=GPa)
#
#
# Indices 1 2 3 4 5 6 
#
# 1 113.3399 49.9387 44.3760 0.0000 0.0000 0.0000
# 2 49.9387 122.0773 29.8016 0.0000 0.0000 0.0000
# 3 44.3760 29.8016 82.5392 0.0000 0.0000 0.0000
# 4 0.0000 0.0000 0.0000 15.4540 0.0000 0.0000
# 5 0.0000 0.0000 0.0000 0.0000 43.4407 0.0000
# 6 0.0000 0.0000 0.0000 0.0000 0.0000 28.3258
#
#
#
# Elastic Compliance Matrix: (Units=1/GPa)
#
#
# Indices 1 2 3 4 5 6 
#
# 1 0.012635 -0.003850 -0.005403 0.000000 0.000000 0.000000
# 2 -0.003850 0.010156 -0.001597 0.000000 0.000000 0.000000
# 3 -0.005403 -0.001597 0.015597 0.000000 0.000000 0.000000
# 4 0.000000 0.000000 0.000000 0.064708 0.000000 0.000000
# 5 0.000000 0.000000 0.000000 0.000000 0.023020 0.000000
# 6 0.000000 0.000000 0.000000 0.000000 0.000000 0.035304
#
#
# Mechanical properties :
#
#
# Convention : Reuss Voigt Hill
#
# Bulk Modulus (GPa) = 59.92247 62.90988 61.41617
# Shear Modulus (GPa) = 26.49968 30.36678 28.43323
#
# Velocity S-wave (km/s) = 3.68553 3.94529 3.81762
# Velocity P-wave (km/s) = 6.98754 7.28010 7.13532
#
# Compressibility (1/GPa) = 0.01668823
#
# Stress axis : x y z
#
# Youngs Moduli (GPa) = 79.14816 98.46179 64.11502
#
# Poissons Ratio (x) = 0.37903 0.34640
# Poissons Ratio (y) = 0.30468 0.10242
# Poissons Ratio (z) = 0.42763 0.15728
#
# Static dielectric constant tensor:
#      x y z
#    x 3.435310 0.000000 0.000000 
#    y 0.000000 3.723320 0.000000 
#    z 0.000000 0.000000 3.685870 
# 
# 
# High freq. dielectric constant tensor:
#      x y z
#    x 1.767250 0.000000 0.000000 
#    y 0.000000 1.753080 0.000000 
#    z 0.000000 0.000000 1.762320 
# 
# From -- ./inp_files/21869.got.cif
#   From: 2010.03.12/outbox.cif.g09.slc.cpg/sg69_11_cif.got.tgz:21869.got - 2010.04.10 23:52:46.
