data_PCOD8285886
_publ_section_title
;
Structure prediction by ZEFSAII (Michael W. Deem and Ramdas Pophale) SiO2 
 PCOD8285886
Probable space group: F D D D
;
_chemical_formula_sum "Si O2"
_cell_formula_units_Z 208
_cell_length_a 30.703027
_cell_length_b 16.535762
_cell_length_c 20.328538
_cell_angle_alpha 90.000000
_cell_angle_beta 90.000000
_cell_angle_gamma 90.000000
_cell_volume 10320.757011
_symmetry_space_group_name_H-M "F D D D"
_symmetry_group_IT_number 70
_space_group.IT_coordinate_system_code '2'
_symmetry_cell_setting 'orthorhombic'
loop_
_space_group_symop_operation_xyz
x,y,z
1/4-x,1/4-y,z
x,1/4-y,1/4-z
1/4-x,y,1/4-z
-x,-y,-z
3/4+x,3/4+y,-z
-x,3/4+y,3/4+z
3/4+x,-y,3/4+z
x,1/2+y,1/2+z
1/4-x,3/4-y,1/2+z
x,3/4-y,3/4-z
1/4-x,1/2+y,3/4-z
-x,1/2-y,1/2-z
3/4+x,1/4+y,1/2-z
-x,1/4+y,1/4+z
3/4+x,1/2-y,1/4+z
1/2+x,y,1/2+z
3/4-x,1/4-y,1/2+z
1/2+x,1/4-y,3/4-z
3/4-x,y,3/4-z
1/2-x,-y,1/2-z
1/4+x,3/4+y,1/2-z
1/2-x,3/4+y,1/4+z
1/4+x,-y,1/4+z
1/2+x,1/2+y,z
3/4-x,3/4-y,z
1/2+x,3/4-y,1/4-z
3/4-x,1/2+y,1/4-z
1/2-x,1/2-y,-z
1/4+x,1/4+y,-z
1/2-x,1/4+y,3/4+z
1/4+x,1/2-y,3/4+z
loop_
_atom_site_type_symbol
_atom_site_label
_atom_site_fract_x
_atom_site_fract_y
_atom_site_fract_z
Si Si1 0.543083 0.489819 0.040628
Si Si2 0.255816 0.375000 0.875000
Si Si3 0.038200 0.965040 0.456456
Si Si4 0.039849 0.818742 0.002565
Si Si5 0.880108 0.971340 0.207146
Si Si6 0.619494 0.718465 0.307888
Si Si7 0.288802 0.527560 0.058240
O O1 0.537564 0.548500 0.104675
O O2 0.500000 0.500000 0.000000
O O3 0.548777 0.392988 0.054496
O O4 0.582793 0.515629 0.995043
O O5 0.221447 0.395337 0.931682
O O6 0.030114 0.870698 0.452671
O O7 0.035617 0.001946 0.383518
O O8 0.085746 0.987897 0.484491
O O9 0.000000 0.000000 0.500000
O O10 0.080823 0.757644 0.001275
O O11 0.996878 0.771012 0.019776
O O12 0.875000 0.875000 0.216037
O O13 0.890224 0.999910 0.132070
O O14 0.625000 0.625000 0.316036
O O15 0.663492 0.758126 0.279922
#
# Coordination Sequence:
#
# PCOD8285886 Si02
#       7
#    32  16  32  32  32  32  32
#     4  10  20  34  54  81 115 156 196 239 288 340
#     4  10  22  36  57  86 122 162 198 240 291 350
#     4  10  21  39  60  83 111 143 187 241 293 346
#     4  11  21  37  58  86 119 153 195 241 292 353
#     4  10  20  34  60  88 111 148 195 241 292 352
#     4  10  19  35  56  82 114 149 192 238 283 341
#     4  10  22  37  58  84 112 149 187 234 292 346
#
# _framework density 20.153559999999999
#
# number of rings (size 3 to 8) (size 9 to 14) (size 15 to 20)
#    0.000    1.846    0.000    5.538    0.000    6.154 
#    0.000    4.231    0.000    8.308    0.000    0.000 
#    0.000    0.000    0.000    0.000    0.000    0.000 
#
# Total GULP energy -644462.828927 kJ/mol
# GULP energy per Si atom -12393.515941 kJ/mol
# Density = 2.010769 g / cm^3
# Si number density = 20.153560 Si / 1000 Ang^3
#
#
#
# Elastic Constant Matrix: (Units=GPa)
#
#
# Indices 1 2 3 4 5 6 
#
# 1 116.1429 37.5331 34.0277 0.0000 0.0000 0.0000
# 2 37.5331 103.3568 28.3708 0.0000 0.0000 0.0000
# 3 34.0277 28.3708 38.5119 0.0000 0.0000 0.0000
# 4 0.0000 0.0000 0.0000 34.4258 0.0000 0.0000
# 5 0.0000 0.0000 0.0000 0.0000 38.1220 0.0000
# 6 0.0000 0.0000 0.0000 0.0000 0.0000 37.7798
#
#
#
# Elastic Compliance Matrix: (Units=1/GPa)
#
#
# Indices 1 2 3 4 5 6 
#
# 1 0.011878 -0.001796 -0.009172 0.000000 0.000000 0.000000
# 2 -0.001796 0.012399 -0.007548 0.000000 0.000000 0.000000
# 3 -0.009172 -0.007548 0.039630 0.000000 0.000000 0.000000
# 4 0.000000 0.000000 0.000000 0.029048 0.000000 0.000000
# 5 0.000000 0.000000 0.000000 0.000000 0.026232 0.000000
# 6 0.000000 0.000000 0.000000 0.000000 0.000000 0.026469
#
#
# Mechanical properties :
#
#
# Convention : Reuss Voigt Hill
#
# Bulk Modulus (GPa) = 37.20697 50.87497 44.04097
# Shear Modulus (GPa) = 26.09004 32.60418 29.34711
#
# Velocity S-wave (km/s) = 3.60191 4.02654 3.82013
# Velocity P-wave (km/s) = 5.98332 6.84951 6.43102
#
# Compressibility (1/GPa) = 0.02687668
#
# Stress axis : x y z
#
# Youngs Moduli (GPa) = 84.19270 80.65142 25.23343
#
# Poissons Ratio (x) = 0.14482 0.23144
# Poissons Ratio (y) = 0.15118 0.19045
# Poissons Ratio (z) = 0.77220 0.60872
#
# Static dielectric constant tensor:
#      x y z
#    x 3.620840 0.000000 0.000000 
#    y 0.000000 4.166740 0.000000 
#    z 0.000000 0.000000 3.717720 
# 
# 
# High freq. dielectric constant tensor:
#      x y z
#    x 1.797730 0.000000 0.000000 
#    y 0.000000 1.805890 0.000000 
#    z 0.000000 0.000000 1.752740 
# 
# From -- ./inp_files/47726.got.cif
#   From: 2010.03.12/outbox.cif.g09.slc.cpg/sg70_24_cif.got.tgz:47726.got - 2010.04.16 13:46:32.
