data_PCOD8285023
_publ_section_title
;
Structure prediction by ZEFSAII (Michael W. Deem and Ramdas Pophale) SiO2 
 PCOD8285023
Probable space group: F M M M
;
_chemical_formula_sum "Si O2"
_cell_formula_units_Z 160
_cell_length_a 18.127437
_cell_length_b 22.436750
_cell_length_c 19.288231
_cell_angle_alpha 90.000000
_cell_angle_beta 90.000000
_cell_angle_gamma 90.000000
_cell_volume 7844.924205
_symmetry_space_group_name_H-M "F M M M"
_symmetry_group_IT_number 69
_symmetry_cell_setting 'orthorhombic'
loop_
_space_group_symop_operation_xyz
x,y,z
-x,-y,z
x,-y,-z
-x,y,-z
-x,-y,-z
x,y,-z
-x,y,z
x,-y,z
x,1/2+y,1/2+z
-x,1/2-y,1/2+z
x,1/2-y,1/2-z
-x,1/2+y,1/2-z
-x,1/2-y,1/2-z
x,1/2+y,1/2-z
-x,1/2+y,1/2+z
x,1/2-y,1/2+z
1/2+x,y,1/2+z
1/2-x,-y,1/2+z
1/2+x,-y,1/2-z
1/2-x,y,1/2-z
1/2-x,-y,1/2-z
1/2+x,y,1/2-z
1/2-x,y,1/2+z
1/2+x,-y,1/2+z
1/2+x,1/2+y,z
1/2-x,1/2-y,z
1/2+x,1/2-y,-z
1/2-x,1/2+y,-z
1/2-x,1/2-y,-z
1/2+x,1/2+y,-z
1/2-x,1/2+y,z
1/2+x,1/2-y,z
loop_
_atom_site_type_symbol
_atom_site_label
_atom_site_fract_x
_atom_site_fract_y
_atom_site_fract_z
Si Si1 0.689215 0.803150 0.000000
Si Si2 0.700157 0.873163 0.139830
Si Si3 0.870188 0.374099 0.367792
Si Si4 0.282075 0.000000 0.828509
Si Si5 0.639791 0.000000 0.417693
Si Si6 0.919856 0.818205 0.733245
Si Si7 0.412629 0.700085 0.000000
O O1 0.750000 0.750000 0.000000
O O2 0.695381 0.849478 0.062328
O O3 0.610210 0.769789 0.000000
O O4 0.786256 0.872806 0.161225
O O5 0.670193 0.940497 0.155245
O O6 0.649356 0.830678 0.184937
O O7 0.898868 0.439700 0.390555
O O8 0.920852 0.354927 0.304519
O O9 0.877714 0.329870 0.432307
O O10 0.250000 0.000000 0.750000
O O11 0.221619 0.000000 0.888672
O O12 0.641226 0.000000 0.500000
O O13 0.911507 0.750000 0.750000
O O14 0.000000 0.830667 0.697543
O O15 0.500000 0.694135 0.000000
#
# Coordination Sequence:
#
# PCOD8285023 Si02
#       7
#    16  32  32  16  16  32  16
#     4  12  24  41  63 101 125 167 225 261 311 389
#     4  11  23  40  68  92 131 166 219 272 317 388
#     4  11  21  40  64  94 129 169 217 262 325 393
#     4  10  22  40  62  98 128 167 217 269 332 373
#     4  10  20  36  65  98 132 165 207 267 325 389
#     4  11  25  42  61  90 128 174 221 273 335 386
#     4  12  24  39  62  93 138 172 202 271 334 383
#
# _framework density 20.395353
#
# number of rings (size 3 to 8) (size 9 to 14) (size 15 to 20)
#    0.000    1.000    3.000    4.800    4.200    3.200 
#    0.000    4.000    0.000    0.000    0.000    2.100 
#    0.000    0.000    0.000    0.000    0.000    0.000 
#
# Total GULP energy -495777.684850 kJ/mol
# GULP energy per Si atom -12394.442121 kJ/mol
# Density = 2.034893 g / cm^3
# Si number density = 20.395353 Si / 1000 Ang^3
#
#
#
# Elastic Constant Matrix: (Units=GPa)
#
#
# Indices 1 2 3 4 5 6 
#
# 1 94.6472 44.2477 28.3129 0.0000 0.0000 0.0000
# 2 44.2477 136.5136 55.5307 0.0000 0.0000 0.0000
# 3 28.3129 55.5307 122.6633 0.0000 0.0000 0.0000
# 4 0.0000 0.0000 0.0000 26.7864 0.0000 0.0000
# 5 0.0000 0.0000 0.0000 0.0000 20.5435 0.0000
# 6 0.0000 0.0000 0.0000 0.0000 0.0000 22.4254
#
#
#
# Elastic Compliance Matrix: (Units=1/GPa)
#
#
# Indices 1 2 3 4 5 6 
#
# 1 0.012620 -0.003561 -0.001301 0.000000 0.000000 0.000000
# 2 -0.003561 0.009984 -0.003698 0.000000 0.000000 0.000000
# 3 -0.001301 -0.003698 0.010127 0.000000 0.000000 0.000000
# 4 0.000000 0.000000 0.000000 0.037332 0.000000 0.000000
# 5 0.000000 0.000000 0.000000 0.000000 0.048677 0.000000
# 6 0.000000 0.000000 0.000000 0.000000 0.000000 0.044592
#
#
# Mechanical properties :
#
#
# Convention : Reuss Voigt Hill
#
# Bulk Modulus (GPa) = 64.05874 67.77853 65.91864
# Shear Modulus (GPa) = 26.93173 28.99989 27.96581
#
# Velocity S-wave (km/s) = 3.63779 3.77488 3.70697
# Velocity P-wave (km/s) = 7.00866 7.23216 7.12129
#
# Compressibility (1/GPa) = 0.01561067
#
# Stress axis : x y z
#
# Youngs Moduli (GPa) = 79.24239 100.16296 98.75003
#
# Poissons Ratio (x) = 0.35671 0.12843
# Poissons Ratio (y) = 0.28220 0.36515
# Poissons Ratio (z) = 0.10306 0.37037
#
# Static dielectric constant tensor:
#      x y z
#    x 3.717840 0.000000 0.000000 
#    y 0.000000 4.427850 0.000000 
#    z 0.000000 0.000000 3.722480 
# 
# 
# High freq. dielectric constant tensor:
#      x y z
#    x 1.774740 0.000000 0.000000 
#    y 0.000000 1.815590 0.000000 
#    z 0.000000 0.000000 1.804980 
# 
# From -- ./inp_files/24690.got.cif
#   From: 2010.03.12/outbox.cif.g09.slc.cpg/sg69_13_cif.got.tgz:24690.got - 2010.04.10 23:52:46.
