data_PCOD8285864
_publ_section_title
;
Structure prediction by ZEFSAII (Michael W. Deem and Ramdas Pophale) SiO2 
 PCOD8285864
Probable space group: F D D D
;
_chemical_formula_sum "Si O2"
_cell_formula_units_Z 176
_cell_length_a 30.059298
_cell_length_b 13.646488
_cell_length_c 22.527977
_cell_angle_alpha 90.000000
_cell_angle_beta 90.000000
_cell_angle_gamma 90.000000
_cell_volume 9241.062886
_symmetry_space_group_name_H-M "F D D D"
_symmetry_group_IT_number 70
_space_group.IT_coordinate_system_code '2'
_symmetry_cell_setting 'orthorhombic'
loop_
_space_group_symop_operation_xyz
x,y,z
1/4-x,1/4-y,z
x,1/4-y,1/4-z
1/4-x,y,1/4-z
-x,-y,-z
3/4+x,3/4+y,-z
-x,3/4+y,3/4+z
3/4+x,-y,3/4+z
x,1/2+y,1/2+z
1/4-x,3/4-y,1/2+z
x,3/4-y,3/4-z
1/4-x,1/2+y,3/4-z
-x,1/2-y,1/2-z
3/4+x,1/4+y,1/2-z
-x,1/4+y,1/4+z
3/4+x,1/2-y,1/4+z
1/2+x,y,1/2+z
3/4-x,1/4-y,1/2+z
1/2+x,1/4-y,3/4-z
3/4-x,y,3/4-z
1/2-x,-y,1/2-z
1/4+x,3/4+y,1/2-z
1/2-x,3/4+y,1/4+z
1/4+x,-y,1/4+z
1/2+x,1/2+y,z
3/4-x,3/4-y,z
1/2+x,3/4-y,1/4-z
3/4-x,1/2+y,1/4-z
1/2-x,1/2-y,-z
1/4+x,1/4+y,-z
1/2-x,1/4+y,3/4+z
1/4+x,1/2-y,3/4+z
loop_
_atom_site_type_symbol
_atom_site_label
_atom_site_fract_x
_atom_site_fract_y
_atom_site_fract_z
Si Si1 0.375000 0.375000 0.649487
Si Si2 0.561607 0.448766 0.488281
Si Si3 0.250156 0.828714 0.088287
Si Si4 0.957513 0.269524 0.545536
Si Si5 0.002662 0.443819 0.321972
Si Si6 0.351851 0.699218 0.674002
O O1 0.340762 0.313132 0.689225
O O2 0.346402 0.445794 0.607464
O O3 0.546213 0.456997 0.557206
O O4 0.541300 0.538937 0.451121
O O5 0.543304 0.346717 0.462684
O O6 0.615007 0.453412 0.480663
O O7 0.255090 0.786968 0.154331
O O8 0.250594 0.945012 0.093191
O O9 0.972518 0.324258 0.485572
O O10 0.984879 0.375000 0.375000
O O11 0.053378 0.413977 0.304927
O O12 0.372214 0.625000 0.625000
#
# Coordination Sequence:
#
# PCOD8285864 Si02
#       6
#    16  32  32  32  32  32
#     4  12  20  34  61  86 107 148 198 232 282 336
#     4  10  19  33  59  85 116 140 192 247 285 337
#     4  10  19  34  55  87 112 151 187 236 296 336
#     4  11  21  37  57  85 114 152 192 238 289 344
#     4  10  23  37  54  81 120 152 191 236 287 342
#     4  11  18  34  55  83 109 143 193 237 271 337
#
# _framework density 19.045428000000001
#
# number of rings (size 3 to 8) (size 9 to 14) (size 15 to 20)
#    0.000    1.455    5.455    0.545    0.000    0.727 
#    0.000    1.364    0.000    4.364    0.000    8.909 
#    0.000    0.000    0.000    0.000    0.000    0.000 
#
# Total GULP energy -545497.248063 kJ/mol
# GULP energy per Si atom -12397.664729 kJ/mol
# Density = 1.900208 g / cm^3
# Si number density = 19.045428 Si / 1000 Ang^3
#
#
#
# Elastic Constant Matrix: (Units=GPa)
#
#
# Indices 1 2 3 4 5 6 
#
# 1 65.5000 4.1998 35.3063 0.0000 0.0000 0.0000
# 2 4.1998 92.2278 35.9235 0.0000 0.0000 0.0000
# 3 35.3063 35.9235 111.2824 0.0000 0.0000 0.0000
# 4 0.0000 0.0000 0.0000 26.5300 0.0000 0.0000
# 5 0.0000 0.0000 0.0000 0.0000 29.1980 0.0000
# 6 0.0000 0.0000 0.0000 0.0000 0.0000 22.6653
#
#
#
# Elastic Compliance Matrix: (Units=1/GPa)
#
#
# Indices 1 2 3 4 5 6 
#
# 1 0.018637 0.001664 -0.006450 0.000000 0.000000 0.000000
# 2 0.001664 0.012551 -0.004579 0.000000 0.000000 0.000000
# 3 -0.006450 -0.004579 0.012511 0.000000 0.000000 0.000000
# 4 0.000000 0.000000 0.000000 0.037693 0.000000 0.000000
# 5 0.000000 0.000000 0.000000 0.000000 0.034249 0.000000
# 6 0.000000 0.000000 0.000000 0.000000 0.000000 0.044120
#
#
# Mechanical properties :
#
#
# Convention : Reuss Voigt Hill
#
# Bulk Modulus (GPa) = 40.05248 46.65214 43.35231
# Shear Modulus (GPa) = 26.76444 28.58403 27.67424
#
# Velocity S-wave (km/s) = 3.75279 3.87826 3.81604
# Velocity P-wave (km/s) = 6.31297 6.67854 6.49833
#
# Compressibility (1/GPa) = 0.02496725
#
# Stress axis : x y z
#
# Youngs Moduli (GPa) = 53.65598 79.67711 79.93084
#
# Poissons Ratio (x) = -0.13255 0.51556
# Poissons Ratio (y) = -0.08926 0.36603
# Poissons Ratio (z) = 0.34608 0.36487
#
# Static dielectric constant tensor:
#      x y z
#    x 3.402550 0.000000 0.000000 
#    y 0.000000 3.575750 0.000000 
#    z 0.000000 0.000000 3.461990 
# 
# 
# High freq. dielectric constant tensor:
#      x y z
#    x 1.725790 0.000000 0.000000 
#    y 0.000000 1.755570 0.000000 
#    z 0.000000 0.000000 1.718120 
# 
# From -- ./inp_files/20941.got.cif
#   From: 2010.03.12/outbox.cif.g09.slc.cpg/sg70_11_cif.got.tgz:20941.got - 2010.04.16 13:46:32.
