data_PCOD8285953
_publ_section_title
;
Structure prediction by ZEFSAII (Michael W. Deem and Ramdas Pophale) SiO2 
 PCOD8285953
Probable space group: F D D D
;
_chemical_formula_sum "Si O2"
_cell_formula_units_Z 144
_cell_length_a 26.197119
_cell_length_b 16.537746
_cell_length_c 15.515033
_cell_angle_alpha 90.000000
_cell_angle_beta 90.000000
_cell_angle_gamma 90.000000
_cell_volume 6721.753066
_symmetry_space_group_name_H-M "F D D D"
_symmetry_group_IT_number 70
_space_group.IT_coordinate_system_code '2'
_symmetry_cell_setting 'orthorhombic'
loop_
_space_group_symop_operation_xyz
x,y,z
1/4-x,1/4-y,z
x,1/4-y,1/4-z
1/4-x,y,1/4-z
-x,-y,-z
3/4+x,3/4+y,-z
-x,3/4+y,3/4+z
3/4+x,-y,3/4+z
x,1/2+y,1/2+z
1/4-x,3/4-y,1/2+z
x,3/4-y,3/4-z
1/4-x,1/2+y,3/4-z
-x,1/2-y,1/2-z
3/4+x,1/4+y,1/2-z
-x,1/4+y,1/4+z
3/4+x,1/2-y,1/4+z
1/2+x,y,1/2+z
3/4-x,1/4-y,1/2+z
1/2+x,1/4-y,3/4-z
3/4-x,y,3/4-z
1/2-x,-y,1/2-z
1/4+x,3/4+y,1/2-z
1/2-x,3/4+y,1/4+z
1/4+x,-y,1/4+z
1/2+x,1/2+y,z
3/4-x,3/4-y,z
1/2+x,3/4-y,1/4-z
3/4-x,1/2+y,1/4-z
1/2-x,1/2-y,-z
1/4+x,1/4+y,-z
1/2-x,1/4+y,3/4+z
1/4+x,1/2-y,3/4+z
loop_
_atom_site_type_symbol
_atom_site_label
_atom_site_fract_x
_atom_site_fract_y
_atom_site_fract_z
Si Si1 0.402833 0.047780 0.183806
Si Si2 0.403016 0.296279 0.540505
Si Si3 0.426694 0.615005 0.284470
Si Si4 0.498516 0.875000 0.375000
Si Si5 0.979236 0.541713 0.323985
O O1 0.410906 0.125000 0.125000
O O2 0.365458 0.067582 0.263627
O O3 0.457076 0.026693 0.227724
O O4 0.379391 0.976230 0.126386
O O5 0.375000 0.375000 0.500875
O O6 0.401979 0.225121 0.468363
O O7 0.461228 0.314379 0.568225
O O8 0.468124 0.617151 0.209828
O O9 0.451329 0.633929 0.377219
O O10 0.467446 0.790836 0.371233
#
# Coordination Sequence:
#
# PCOD8285953 Si02
#       5
#    32  32  32  16  32
#     4  10  21  41  62  90 130 172 211 265 326 385
#     4  10  23  39  66  92 131 170 219 276 320 385
#     4  10  19  41  59  92 136 170 208 269 339 387
#     4  10  20  36  63 100 130 162 207 272 340 384
#     4  11  22  36  72  94 128 177 213 268 335 397
#
# _framework density 21.422982000000001
#
# number of rings (size 3 to 8) (size 9 to 14) (size 15 to 20)
#    0.000    1.778    5.556    1.333    6.222    0.000 
#    0.000    5.556   14.667    0.000    0.000    0.000 
#    0.000    0.000    0.000    0.000    0.000    0.000 
#
# Total GULP energy -446171.707245 kJ/mol
# GULP energy per Si atom -12393.658535 kJ/mol
# Density = 2.137422 g / cm^3
# Si number density = 21.422982 Si / 1000 Ang^3
#
#
#
# Elastic Constant Matrix: (Units=GPa)
#
#
# Indices 1 2 3 4 5 6 
#
# 1 93.7023 50.2468 47.1354 0.0000 0.0000 0.0000
# 2 50.2468 114.8031 14.2522 0.0000 0.0000 0.0000
# 3 47.1354 14.2522 63.7620 0.0000 0.0000 0.0000
# 4 0.0000 0.0000 0.0000 15.6744 0.0000 0.0000
# 5 0.0000 0.0000 0.0000 0.0000 27.8615 0.0000
# 6 0.0000 0.0000 0.0000 0.0000 0.0000 38.2191
#
#
#
# Elastic Compliance Matrix: (Units=1/GPa)
#
#
# Indices 1 2 3 4 5 6 
#
# 1 0.022357 -0.007954 -0.014749 0.000000 0.000000 0.000000
# 2 -0.007954 0.011789 0.003245 0.000000 0.000000 0.000000
# 3 -0.014749 0.003245 0.025861 0.000000 0.000000 0.000000
# 4 0.000000 0.000000 0.000000 0.063798 0.000000 0.000000
# 5 0.000000 0.000000 0.000000 0.000000 0.035892 0.000000
# 6 0.000000 0.000000 0.000000 0.000000 0.000000 0.026165
#
#
# Mechanical properties :
#
#
# Convention : Reuss Voigt Hill
#
# Bulk Modulus (GPa) = 47.41507 55.05959 51.23733
# Shear Modulus (GPa) = 21.56955 27.05986 24.31470
#
# Velocity S-wave (km/s) = 3.17652 3.55790 3.37260
# Velocity P-wave (km/s) = 5.96947 6.52956 6.25579
#
# Compressibility (1/GPa) = 0.02109034
#
# Stress axis : x y z
#
# Youngs Moduli (GPa) = 44.72958 84.82467 38.66815
#
# Poissons Ratio (x) = 0.67469 0.57032
# Poissons Ratio (y) = 0.35578 -0.12547
# Poissons Ratio (z) = 0.65972 -0.27524
#
# Static dielectric constant tensor:
#      x y z
#    x 3.961280 0.000000 0.000000 
#    y 0.000000 4.007030 0.000000 
#    z 0.000000 0.000000 3.781400 
# 
# 
# High freq. dielectric constant tensor:
#      x y z
#    x 1.837660 0.000000 0.000000 
#    y 0.000000 1.837670 0.000000 
#    z 0.000000 0.000000 1.822400 
# 
# From -- ./inp_files/34913.got.cif
#   From: 2010.03.12/outbox.cif.g09.slc.cpg/sg70_18_cif.got.tgz:34913.got - 2010.04.16 13:46:32.
