data_PCOD8285771
_publ_section_title
;
Structure prediction by ZEFSAII (Michael W. Deem and Ramdas Pophale) SiO2 
 PCOD8285771
Probable space group: F D D D
;
_chemical_formula_sum "Si O2"
_cell_formula_units_Z 152
_cell_length_a 28.162612
_cell_length_b 14.784657
_cell_length_c 21.621102
_cell_angle_alpha 90.000000
_cell_angle_beta 90.000000
_cell_angle_gamma 90.000000
_cell_volume 9002.476803
_symmetry_space_group_name_H-M "F D D D"
_symmetry_group_IT_number 70
_space_group.IT_coordinate_system_code '2'
_symmetry_cell_setting 'orthorhombic'
loop_
_space_group_symop_operation_xyz
x,y,z
1/4-x,1/4-y,z
x,1/4-y,1/4-z
1/4-x,y,1/4-z
-x,-y,-z
3/4+x,3/4+y,-z
-x,3/4+y,3/4+z
3/4+x,-y,3/4+z
x,1/2+y,1/2+z
1/4-x,3/4-y,1/2+z
x,3/4-y,3/4-z
1/4-x,1/2+y,3/4-z
-x,1/2-y,1/2-z
3/4+x,1/4+y,1/2-z
-x,1/4+y,1/4+z
3/4+x,1/2-y,1/4+z
1/2+x,y,1/2+z
3/4-x,1/4-y,1/2+z
1/2+x,1/4-y,3/4-z
3/4-x,y,3/4-z
1/2-x,-y,1/2-z
1/4+x,3/4+y,1/2-z
1/2-x,3/4+y,1/4+z
1/4+x,-y,1/4+z
1/2+x,1/2+y,z
3/4-x,3/4-y,z
1/2+x,3/4-y,1/4-z
3/4-x,1/2+y,1/4-z
1/2-x,1/2-y,-z
1/4+x,1/4+y,-z
1/2-x,1/4+y,3/4+z
1/4+x,1/2-y,3/4+z
loop_
_atom_site_type_symbol
_atom_site_label
_atom_site_fract_x
_atom_site_fract_y
_atom_site_fract_z
Si Si1 0.048593 0.728216 0.053870
Si Si2 0.084758 0.047611 0.827206
Si Si3 0.786525 0.098140 0.215186
Si Si4 0.375000 0.875000 0.875000
Si Si5 0.366360 0.625000 0.125000
Si Si6 0.250228 0.831022 0.093343
O O1 0.095622 0.692203 0.083881
O O2 0.009614 0.650342 0.057580
O O3 0.027387 0.812286 0.092721
O O4 0.065194 0.751667 0.984822
O O5 0.125000 0.125000 0.815461
O O6 0.038029 0.090634 0.858950
O O7 0.102875 0.966430 0.870424
O O8 0.834353 0.139983 0.186532
O O9 0.788931 0.103902 0.290060
O O10 0.782129 0.998001 0.187160
#
# Coordination Sequence:
#
# PCOD8285771 Si02
#       6
#    32  32  32   8  16  32
#     4  11  20  31  49  83 113 139 163 216 272 328
#     4  11  22  34  54  79 107 141 185 220 259 319
#     4  10  18  31  51  73 113 143 163 204 283 324
#     4  12  18  24  48  84 116 126 164 204 272 336
#     4  12  21  36  52  79 102 149 184 220 251 328
#     4  10  19  33  50  77 110 146 164 210 280 325
#
# _framework density 16.884242
#
# number of rings (size 3 to 8) (size 9 to 14) (size 15 to 20)
#    0.000    1.263    7.368    0.000    2.947    0.000 
#    0.000    1.053    0.000    0.000    0.000    0.000 
#    0.000    0.000    0.000    0.000    0.000    0.000 
#
# Total GULP energy -470890.957904 kJ/mol
# GULP energy per Si atom -12391.867313 kJ/mol
# Density = 1.684581 g / cm^3
# Si number density = 16.884242 Si / 1000 Ang^3
#
#
#
# Elastic Constant Matrix: (Units=GPa)
#
#
# Indices 1 2 3 4 5 6 
#
# 1 91.0933 56.1413 49.3163 0.0000 0.0000 0.0000
# 2 56.1413 81.2527 50.5920 0.0000 0.0000 0.0000
# 3 49.3163 50.5920 83.4547 0.0000 0.0000 0.0000
# 4 0.0000 0.0000 0.0000 27.4519 0.0000 0.0000
# 5 0.0000 0.0000 0.0000 0.0000 29.3576 0.0000
# 6 0.0000 0.0000 0.0000 0.0000 0.0000 48.2025
#
#
#
# Elastic Compliance Matrix: (Units=1/GPa)
#
#
# Indices 1 2 3 4 5 6 
#
# 1 0.020690 -0.010735 -0.005719 0.000000 0.000000 0.000000
# 2 -0.010735 0.025339 -0.009018 0.000000 0.000000 0.000000
# 3 -0.005719 -0.009018 0.020829 0.000000 0.000000 0.000000
# 4 0.000000 0.000000 0.000000 0.036427 0.000000 0.000000
# 5 0.000000 0.000000 0.000000 0.000000 0.034063 0.000000
# 6 0.000000 0.000000 0.000000 0.000000 0.000000 0.020746
#
#
# Mechanical properties :
#
#
# Convention : Reuss Voigt Hill
#
# Bulk Modulus (GPa) = 62.83204 63.09999 62.96602
# Shear Modulus (GPa) = 23.32740 27.65249 25.48995
#
# Velocity S-wave (km/s) = 3.72103 4.05133 3.88969
# Velocity P-wave (km/s) = 7.46697 7.70309 7.58595
#
# Compressibility (1/GPa) = 0.01591545
#
# Stress axis : x y z
#
# Youngs Moduli (GPa) = 48.33350 39.46450 48.01106
#
# Poissons Ratio (x) = 0.42364 0.27456
# Poissons Ratio (y) = 0.51885 0.43295
# Poissons Ratio (z) = 0.27640 0.35588
#
# Static dielectric constant tensor:
#      x y z
#    x 3.222640 0.000000 0.000000 
#    y 0.000000 2.931800 0.000000 
#    z 0.000000 0.000000 3.359930 
# 
# 
# High freq. dielectric constant tensor:
#      x y z
#    x 1.656140 0.000000 0.000000 
#    y 0.000000 1.613770 0.000000 
#    z 0.000000 0.000000 1.640980 
# 
# From -- ./inp_files/19559.got.cif
#   From: 2010.03.12/outbox.cif.g09.slc.cpg/sg70_10_cif.got.tgz:19559.got - 2010.04.16 13:46:32.
