data_PCOD8285710
_publ_section_title
;
Structure prediction by ZEFSAII (Michael W. Deem and Ramdas Pophale) SiO2 
 PCOD8285710
Probable space group: F M M M
;
_chemical_formula_sum "Si O2"
_cell_formula_units_Z 40
_cell_length_a 30.000000
_cell_length_b 30.000000
_cell_length_c 9.000000
_cell_angle_alpha 90.000000
_cell_angle_beta 90.000000
_cell_angle_gamma 90.000000
_cell_volume 8100.000000
_symmetry_space_group_name_H-M "F M M M"
_symmetry_group_IT_number 69
_symmetry_cell_setting 'orthorhombic'
loop_
_space_group_symop_operation_xyz
x,y,z
-x,-y,z
x,-y,-z
-x,y,-z
-x,-y,-z
x,y,-z
-x,y,z
x,-y,z
x,1/2+y,1/2+z
-x,1/2-y,1/2+z
x,1/2-y,1/2-z
-x,1/2+y,1/2-z
-x,1/2-y,1/2-z
x,1/2+y,1/2-z
-x,1/2+y,1/2+z
x,1/2-y,1/2+z
1/2+x,y,1/2+z
1/2-x,-y,1/2+z
1/2+x,-y,1/2-z
1/2-x,y,1/2-z
1/2-x,-y,1/2-z
1/2+x,y,1/2-z
1/2-x,y,1/2+z
1/2+x,-y,1/2+z
1/2+x,1/2+y,z
1/2-x,1/2-y,z
1/2+x,1/2-y,-z
1/2-x,1/2+y,-z
1/2-x,1/2-y,-z
1/2+x,1/2+y,-z
1/2-x,1/2+y,z
1/2+x,1/2-y,z
loop_
_atom_site_type_symbol
_atom_site_label
_atom_site_fract_x
_atom_site_fract_y
_atom_site_fract_z
Si Si1 0.679017 0.205572 0.167201
Si Si2 0.051483 0.500000 0.323963
Si Si3 0.295400 0.893609 0.822763
Si Si4 0.618792 0.576647 0.826029
Si Si5 0.090520 0.661581 0.830625
Si Si6 0.500000 0.204497 0.829385
O O1 0.696466 0.250000 0.250000
O O2 0.697712 0.158185 0.228740
O O3 0.625337 0.202488 0.179757
O O4 0.695416 0.211864 0.000000
O O5 0.047499 0.500000 0.500000
O O6 0.080714 0.542310 0.269506
O O7 0.000000 0.500000 0.259308
O O8 0.250000 0.911183 0.750000
O O9 0.334324 0.926562 0.762830
O O10 0.294179 0.896983 0.000000
O O11 0.600560 0.625301 0.793001
O O12 0.628393 0.569854 0.000000
O O13 0.042473 0.676926 0.781576
O O14 0.092236 0.642121 0.000000
O O15 0.500000 0.250000 0.750000
O O16 0.500000 0.215880 0.000000
#
# Coordination Sequence:
#
# PCOD8285710 Si02
#       6
#    32  16  32  32  32  16
#     4   9  18  31  48  71 104 143 183 230 275 320
#     4   9  20  38  60  89 122 147 178 229 278 329
#     4  10  21  38  58  82 114 148 187 233 281 333
#     4  10  20  36  60  85 111 146 184 226 279 336
#     4   9  19  34  49  71 107 146 183 230 282 328
#     4  10  20  32  48  71 104 143 187 236 281 328
#
# _framework density 4.9382720000000004
#
# number of rings (size 3 to 8) (size 9 to 14) (size 15 to 20)
#    0.000    2.500    0.000    3.000    1.400    5.200 
#    0.000    4.500    0.000    2.400    0.000    0.000 
#    0.000    0.000    0.000    0.000    0.000    0.000 
#
# Total GULP energy -495636.874807 kJ/mol
# GULP energy per Si atom -12390.921870 kJ/mol
# Density = 0.492703 g / cm^3
# Si number density = 4.938272 Si / 1000 Ang^3
#
#
#
# Elastic Constant Matrix: (Units=GPa)
#
#
# Indices 1 2 3 4 5 6 
#
# 1 163.6419 35.8113 42.4496 -0.0068 0.0060 0.0124
# 2 35.8113 67.4379 29.6182 -0.0391 0.0156 0.0150
# 3 42.4496 29.6182 54.5412 -0.0664 0.0412 0.0475
# 4 -0.0068 -0.0391 -0.0664 22.2432 0.0208 0.0281
# 5 0.0060 0.0156 0.0412 0.0208 28.1061 -0.0265
# 6 0.0124 0.0150 0.0475 0.0281 -0.0265 22.8858
#
#
#
# Elastic Compliance Matrix: (Units=1/GPa)
#
#
# Indices 1 2 3 4 5 6 
#
# 1 0.007847 -0.001950 -0.005049 -0.000016 0.000007 0.000008
# 2 -0.001950 0.019957 -0.009320 0.000007 0.000003 0.000007
# 3 -0.005049 -0.009320 0.027326 0.000064 -0.000034 -0.000048
# 4 -0.000016 0.000007 0.000064 0.044958 -0.000033 -0.000055
# 5 0.000007 0.000003 -0.000034 -0.000033 0.035580 0.000041
# 6 0.000008 0.000007 -0.000048 -0.000055 0.000041 0.043695
#
#
# Mechanical properties :
#
#
# Convention : Reuss Voigt Hill
#
# Bulk Modulus (GPa) = 44.45875 55.70879 50.08377
# Shear Modulus (GPa) = 22.77929 26.49649 24.63789
#
# Velocity S-wave (km/s) = 3.39957 3.66647 3.53554
# Velocity P-wave (km/s) = 6.16162 6.79616 6.48665
#
# Compressibility (1/GPa) = 0.02249276
#
# Stress axis : x y z
#
# Youngs Moduli (GPa) = 127.43295 50.10739 36.59572
#
# Poissons Ratio (x) = 0.09770 0.18476
# Poissons Ratio (y) = 0.24846 0.34108
# Poissons Ratio (z) = 0.64338 0.46701
#
# Static dielectric constant tensor:
#      x y z
#    x 4.202410 0.000020 0.000040 
#    y 0.000020 3.370960 -0.000080 
#    z 0.000040 -0.000080 3.393480 
# 
# 
# High freq. dielectric constant tensor:
#      x y z
#    x 1.785270 0.000000 0.000010 
#    y 0.000000 1.745670 -0.000010 
#    z 0.000010 -0.000010 1.755600 
# 
# From -- ./inp_files/5727.got.cif
#   From: 2010.03.12/outbox.ucp.g09.slc.cvg/sg69_3_cif.got.tgz:5727.got - 2010.05.04 19:54:48.
