data_PCOD8285578
_publ_section_title
;
Structure prediction by ZEFSAII (Michael W. Deem and Ramdas Pophale) SiO2 
 PCOD8285578
Probable space group: F M M M
;
_chemical_formula_sum "Si O2"
_cell_formula_units_Z 144
_cell_length_a 18.209728
_cell_length_b 21.155770
_cell_length_c 20.184847
_cell_angle_alpha 90.000000
_cell_angle_beta 90.000000
_cell_angle_gamma 90.000000
_cell_volume 7776.026956
_symmetry_space_group_name_H-M "F M M M"
_symmetry_group_IT_number 69
_symmetry_cell_setting 'orthorhombic'
loop_
_space_group_symop_operation_xyz
x,y,z
-x,-y,z
x,-y,-z
-x,y,-z
-x,-y,-z
x,y,-z
-x,y,z
x,-y,z
x,1/2+y,1/2+z
-x,1/2-y,1/2+z
x,1/2-y,1/2-z
-x,1/2+y,1/2-z
-x,1/2-y,1/2-z
x,1/2+y,1/2-z
-x,1/2+y,1/2+z
x,1/2-y,1/2+z
1/2+x,y,1/2+z
1/2-x,-y,1/2+z
1/2+x,-y,1/2-z
1/2-x,y,1/2-z
1/2-x,-y,1/2-z
1/2+x,y,1/2-z
1/2-x,y,1/2+z
1/2+x,-y,1/2+z
1/2+x,1/2+y,z
1/2-x,1/2-y,z
1/2+x,1/2-y,-z
1/2-x,1/2+y,-z
1/2-x,1/2-y,-z
1/2+x,1/2+y,-z
1/2-x,1/2+y,z
1/2+x,1/2-y,z
loop_
_atom_site_type_symbol
_atom_site_label
_atom_site_fract_x
_atom_site_fract_y
_atom_site_fract_z
Si Si1 0.583020 0.574581 0.879463
Si Si2 0.083245 0.265488 0.000000
Si Si3 0.913658 0.429958 0.765433
Si Si4 0.084446 0.624438 0.099355
Si Si5 0.336718 0.637474 0.000000
Si Si6 0.310611 0.430350 0.500000
O O1 0.500000 0.599786 0.888128
O O2 0.585651 0.500000 0.890127
O O3 0.616112 0.592260 0.806639
O O4 0.632554 0.607220 0.933669
O O5 0.095614 0.306642 0.066781
O O6 0.144365 0.211439 0.000000
O O7 0.000000 0.238044 0.000000
O O8 0.882521 0.500000 0.783930
O O9 0.894588 0.378475 0.822424
O O10 0.000000 0.436423 0.755758
O O11 0.000000 0.602665 0.089428
O O12 0.137611 0.574906 0.064003
O O13 0.249607 0.625425 0.000000
O O14 0.273631 0.500000 0.500000
#
# Coordination Sequence:
#
# PCOD8285578 Si02
#       6
#    32  16  32  32  16  16
#     4   9  17  30  50  73  96 130 173 213 257 298
#     4   9  19  34  53  75  98 136 180 205 241 296
#     4   8  14  27  50  77 100 123 157 208 267 311
#     4   9  18  34  54  76 102 127 162 214 257 301
#     4  12  22  33  46  67 107 142 172 211 237 279
#     4  11  22  32  49  78 103 133 172 202 253 315
#
# _framework density 18.518453999999998
#
# number of rings (size 3 to 8) (size 9 to 14) (size 15 to 20)
#    0.000    2.667    0.000    5.000    0.000    4.444 
#    0.000    2.222    0.000    9.333    0.000    6.222 
#    0.000    0.000    0.000    0.000    0.000    0.000 
#
# Total GULP energy -446093.125108 kJ/mol
# GULP energy per Si atom -12391.475697 kJ/mol
# Density = 1.847631 g / cm^3
# Si number density = 18.518454 Si / 1000 Ang^3
#
#
#
# Elastic Constant Matrix: (Units=GPa)
#
#
# Indices 1 2 3 4 5 6 
#
# 1 67.9058 35.8978 40.5726 0.0000 0.0000 0.0000
# 2 35.8978 81.6239 54.9007 0.0000 0.0000 0.0000
# 3 40.5726 54.9007 171.5237 0.0000 0.0000 0.0000
# 4 0.0000 0.0000 0.0000 37.0957 0.0000 0.0000
# 5 0.0000 0.0000 0.0000 0.0000 21.1782 0.0000
# 6 0.0000 0.0000 0.0000 0.0000 0.0000 23.6428
#
#
#
# Elastic Compliance Matrix: (Units=1/GPa)
#
#
# Indices 1 2 3 4 5 6 
#
# 1 0.019955 -0.007138 -0.002435 0.000000 0.000000 0.000000
# 2 -0.007138 0.018166 -0.004126 0.000000 0.000000 0.000000
# 3 -0.002435 -0.004126 0.007727 0.000000 0.000000 0.000000
# 4 0.000000 0.000000 0.000000 0.026957 0.000000 0.000000
# 5 0.000000 0.000000 0.000000 0.000000 0.047218 0.000000
# 6 0.000000 0.000000 0.000000 0.000000 0.000000 0.042296
#
#
# Mechanical properties :
#
#
# Convention : Reuss Voigt Hill
#
# Bulk Modulus (GPa) = 54.20475 64.86619 59.53547
# Shear Modulus (GPa) = 25.52745 29.02882 27.27814
#
# Velocity S-wave (km/s) = 3.71683 3.96354 3.84216
# Velocity P-wave (km/s) = 6.91042 7.48666 7.20431
#
# Compressibility (1/GPa) = 0.01844857
#
# Stress axis : x y z
#
# Youngs Moduli (GPa) = 50.11313 55.04880 129.41927
#
# Poissons Ratio (x) = 0.39293 0.31520
# Poissons Ratio (y) = 0.35770 0.53398
# Poissons Ratio (z) = 0.12205 0.22713
#
# Static dielectric constant tensor:
#      x y z
#    x 3.165270 0.000000 0.000000 
#    y 0.000000 3.116850 0.000000 
#    z 0.000000 0.000000 3.825810 
# 
# 
# High freq. dielectric constant tensor:
#      x y z
#    x 1.689220 0.000000 0.000000 
#    y 0.000000 1.688810 0.000000 
#    z 0.000000 0.000000 1.732650 
# 
# From -- ./inp_files/24534.got.cif
#   From: 2010.03.12/outbox.cif.g09.slc.cpg/sg69_13_cif.got.tgz:24534.got - 2010.04.10 23:52:46.
