data_PCOD8285001
_publ_section_title
;
Structure prediction by ZEFSAII (Michael W. Deem and Ramdas Pophale) SiO2 
 PCOD8285001
Probable space group: F M M M
;
_chemical_formula_sum "Si O2"
_cell_formula_units_Z 160
_cell_length_a 24.346844
_cell_length_b 15.881114
_cell_length_c 20.764219
_cell_angle_alpha 90.000000
_cell_angle_beta 90.000000
_cell_angle_gamma 90.000000
_cell_volume 8028.589203
_symmetry_space_group_name_H-M "F M M M"
_symmetry_group_IT_number 69
_symmetry_cell_setting 'orthorhombic'
loop_
_space_group_symop_operation_xyz
x,y,z
-x,-y,z
x,-y,-z
-x,y,-z
-x,-y,-z
x,y,-z
-x,y,z
x,-y,z
x,1/2+y,1/2+z
-x,1/2-y,1/2+z
x,1/2-y,1/2-z
-x,1/2+y,1/2-z
-x,1/2-y,1/2-z
x,1/2+y,1/2-z
-x,1/2+y,1/2+z
x,1/2-y,1/2+z
1/2+x,y,1/2+z
1/2-x,-y,1/2+z
1/2+x,-y,1/2-z
1/2-x,y,1/2-z
1/2-x,-y,1/2-z
1/2+x,y,1/2-z
1/2-x,y,1/2+z
1/2+x,-y,1/2+z
1/2+x,1/2+y,z
1/2-x,1/2-y,z
1/2+x,1/2-y,-z
1/2-x,1/2+y,-z
1/2-x,1/2-y,-z
1/2+x,1/2+y,-z
1/2-x,1/2+y,z
1/2+x,1/2-y,z
loop_
_atom_site_type_symbol
_atom_site_label
_atom_site_fract_x
_atom_site_fract_y
_atom_site_fract_z
Si Si1 0.891657 0.098835 0.271548
Si Si2 0.000000 0.683729 0.808645
Si Si3 0.777711 0.341361 0.811550
Si Si4 0.102875 0.099083 0.877479
Si Si5 0.500000 0.303730 0.073214
Si Si6 0.717182 0.098146 0.570378
O O1 0.947312 0.123365 0.307266
O O2 0.843115 0.156274 0.301396
O O3 0.900012 0.122775 0.197299
O O4 0.878339 0.000000 0.280993
O O5 0.000000 0.750000 0.750000
O O6 0.000000 0.726362 0.878105
O O7 0.750000 0.389546 0.750000
O O8 0.750000 0.250000 0.814190
O O9 0.765829 0.385541 0.879352
O O10 0.053472 0.139887 0.916108
O O11 0.159885 0.137202 0.904559
O O12 0.098671 0.000000 0.887817
O O13 0.500000 0.269881 0.000000
O O14 0.732004 0.136625 0.500000
O O15 0.708520 0.000000 0.563680
#
# Coordination Sequence:
#
# PCOD8285001 Si02
#       6
#    32  16  32  32  16  32
#     4  11  23  42  68  95 124 168 219 268 317 371
#     4  12  25  41  67  91 129 162 216 272 316 365
#     4  11  24  37  63  92 129 162 210 259 316 369
#     4  10  20  36  60  90 127 167 207 255 317 386
#     4  12  25  38  59  92 131 168 206 257 327 383
#     4  10  21  38  59  87 125 165 204 253 315 384
#
# _framework density 19.928782000000002
#
# number of rings (size 3 to 8) (size 9 to 14) (size 15 to 20)
#    0.000    1.200    4.000    1.800    5.600    4.400 
#    0.000    1.000    0.000    2.400    0.000    0.000 
#    0.000    0.000    0.000    0.000    0.000    0.000 
#
# Total GULP energy -495984.045078 kJ/mol
# GULP energy per Si atom -12399.601127 kJ/mol
# Density = 1.988342 g / cm^3
# Si number density = 19.928782 Si / 1000 Ang^3
#
#
#
# Elastic Constant Matrix: (Units=GPa)
#
#
# Indices 1 2 3 4 5 6 
#
# 1 142.5568 28.4294 57.0109 0.0000 0.0000 0.0000
# 2 28.4294 49.1760 33.3580 0.0000 0.0000 0.0000
# 3 57.0109 33.3580 173.1415 0.0000 0.0000 0.0000
# 4 0.0000 0.0000 0.0000 27.3069 0.0000 0.0000
# 5 0.0000 0.0000 0.0000 0.0000 11.0118 0.0000
# 6 0.0000 0.0000 0.0000 0.0000 0.0000 16.0692
#
#
#
# Elastic Compliance Matrix: (Units=1/GPa)
#
#
# Indices 1 2 3 4 5 6 
#
# 1 0.008572 -0.003498 -0.002148 0.000000 0.000000 0.000000
# 2 -0.003498 0.024820 -0.003630 0.000000 0.000000 0.000000
# 3 -0.002148 -0.003630 0.007182 0.000000 0.000000 0.000000
# 4 0.000000 0.000000 0.000000 0.036621 0.000000 0.000000
# 5 0.000000 0.000000 0.000000 0.000000 0.090811 0.000000
# 6 0.000000 0.000000 0.000000 0.000000 0.000000 0.062231
#
#
# Mechanical properties :
#
#
# Convention : Reuss Voigt Hill
#
# Bulk Modulus (GPa) = 45.41167 66.94121 56.17644
# Shear Modulus (GPa) = 19.52136 27.28266 23.40201
#
# Velocity S-wave (km/s) = 3.13318 3.70402 3.43050
# Velocity P-wave (km/s) = 5.99379 7.20806 6.62879
#
# Compressibility (1/GPa) = 0.02202077
#
# Stress axis : x y z
#
# Youngs Moduli (GPa) = 116.66532 40.29049 139.22860
#
# Poissons Ratio (x) = 0.14093 0.29913
# Poissons Ratio (y) = 0.40809 0.50541
# Poissons Ratio (z) = 0.25065 0.14626
#
# Static dielectric constant tensor:
#      x y z
#    x 3.700890 0.000000 0.000000 
#    y 0.000000 3.408090 0.000000 
#    z 0.000000 0.000000 4.071080 
# 
# 
# High freq. dielectric constant tensor:
#      x y z
#    x 1.785760 0.000000 0.000000 
#    y 0.000000 1.757530 0.000000 
#    z 0.000000 0.000000 1.778060 
# 
# From -- ./inp_files/24878.got.cif
#   From: 2010.03.12/outbox.cif.g09.slc.cpg/sg69_13_cif.got.tgz:24878.got - 2010.04.10 23:52:46.
