data_PCOD8285511
_publ_section_title
;
Structure prediction by ZEFSAII (Michael W. Deem and Ramdas Pophale) SiO2 
 PCOD8285511
Probable space group: F M M M
;
_chemical_formula_sum "Si O2"
_cell_formula_units_Z 144
_cell_length_a 17.454708
_cell_length_b 22.101542
_cell_length_c 19.727975
_cell_angle_alpha 90.000000
_cell_angle_beta 90.000000
_cell_angle_gamma 90.000000
_cell_volume 7610.578533
_symmetry_space_group_name_H-M "F M M M"
_symmetry_group_IT_number 69
_symmetry_cell_setting 'orthorhombic'
loop_
_space_group_symop_operation_xyz
x,y,z
-x,-y,z
x,-y,-z
-x,y,-z
-x,-y,-z
x,y,-z
-x,y,z
x,-y,z
x,1/2+y,1/2+z
-x,1/2-y,1/2+z
x,1/2-y,1/2-z
-x,1/2+y,1/2-z
-x,1/2-y,1/2-z
x,1/2+y,1/2-z
-x,1/2+y,1/2+z
x,1/2-y,1/2+z
1/2+x,y,1/2+z
1/2-x,-y,1/2+z
1/2+x,-y,1/2-z
1/2-x,y,1/2-z
1/2-x,-y,1/2-z
1/2+x,y,1/2-z
1/2-x,y,1/2+z
1/2+x,-y,1/2+z
1/2+x,1/2+y,z
1/2-x,1/2-y,z
1/2+x,1/2-y,-z
1/2-x,1/2+y,-z
1/2-x,1/2-y,-z
1/2+x,1/2+y,-z
1/2-x,1/2+y,z
1/2+x,1/2-y,z
loop_
_atom_site_type_symbol
_atom_site_label
_atom_site_fract_x
_atom_site_fract_y
_atom_site_fract_z
Si Si1 0.336271 0.774024 0.841593
Si Si2 0.910918 0.832410 0.787282
Si Si3 0.084582 0.500000 0.919792
Si Si4 0.315278 0.887039 0.079304
Si Si5 0.198684 0.431060 0.316792
O O1 0.250000 0.750000 0.837040
O O2 0.357678 0.811936 0.774875
O O3 0.393904 0.716480 0.847490
O O4 0.347845 0.819852 0.904991
O O5 0.883868 0.899534 0.807075
O O6 0.000000 0.833018 0.768250
O O7 0.126927 0.439398 0.894771
O O8 0.000000 0.500000 0.887283
O O9 0.079207 0.500000 0.000000
O O10 0.237369 0.896248 0.120558
O O11 0.298473 0.893240 0.000000
O O12 0.183165 0.500000 0.336869
O O13 0.250000 0.425790 0.250000
#
# Coordination Sequence:
#
# PCOD8285511 Si02
#       5
#    32  32  16  32  32
#     4  11  20  37  60  84 118 153 197 238 293 357
#     4  11  22  37  59  88 120 155 194 244 302 345
#     4   9  20  38  57  84 123 159 189 234 299 359
#     4  11  22  37  61  89 119 157 197 240 294 355
#     4  11  21  39  62  87 116 152 199 246 287 345
#
# _framework density 18.921032
#
# number of rings (size 3 to 8) (size 9 to 14) (size 15 to 20)
#    0.000    1.222    5.556    2.667    0.000    2.667 
#    0.000    0.000    0.000    2.000    0.000    1.556 
#    0.000    0.000    0.000    0.000    0.000    0.000 
#
# Total GULP energy -446269.328584 kJ/mol
# GULP energy per Si atom -12396.370238 kJ/mol
# Density = 1.887797 g / cm^3
# Si number density = 18.921032 Si / 1000 Ang^3
#
#
#
# Elastic Constant Matrix: (Units=GPa)
#
#
# Indices 1 2 3 4 5 6 
#
# 1 95.2270 31.6237 20.5936 0.0000 0.0000 0.0000
# 2 31.6237 114.8582 31.4057 0.0000 0.0000 0.0000
# 3 20.5936 31.4057 68.5875 0.0000 0.0000 0.0000
# 4 0.0000 0.0000 0.0000 30.2602 0.0000 0.0000
# 5 0.0000 0.0000 0.0000 0.0000 12.3639 0.0000
# 6 0.0000 0.0000 0.0000 0.0000 0.0000 26.6213
#
#
#
# Elastic Compliance Matrix: (Units=1/GPa)
#
#
# Indices 1 2 3 4 5 6 
#
# 1 0.011885 -0.002625 -0.002366 0.000000 0.000000 0.000000
# 2 -0.002625 0.010532 -0.004034 0.000000 0.000000 0.000000
# 3 -0.002366 -0.004034 0.017138 0.000000 0.000000 0.000000
# 4 0.000000 0.000000 0.000000 0.033047 0.000000 0.000000
# 5 0.000000 0.000000 0.000000 0.000000 0.080881 0.000000
# 6 0.000000 0.000000 0.000000 0.000000 0.000000 0.037564
#
#
# Mechanical properties :
#
#
# Convention : Reuss Voigt Hill
#
# Bulk Modulus (GPa) = 46.50550 49.54651 48.02601
# Shear Modulus (GPa) = 23.11967 26.85237 24.98602
#
# Velocity S-wave (km/s) = 3.49937 3.77129 3.63787
# Velocity P-wave (km/s) = 6.39996 6.72356 6.56376
#
# Compressibility (1/GPa) = 0.02150283
#
# Stress axis : x y z
#
# Youngs Moduli (GPa) = 84.14135 94.94593 58.35057
#
# Poissons Ratio (x) = 0.24925 0.13808
# Poissons Ratio (y) = 0.22088 0.23541
# Poissons Ratio (z) = 0.19911 0.38305
#
# Static dielectric constant tensor:
#      x y z
#    x 3.336910 0.000000 0.000000 
#    y 0.000000 4.064860 0.000000 
#    z 0.000000 0.000000 3.273830 
# 
# 
# High freq. dielectric constant tensor:
#      x y z
#    x 1.717810 0.000000 0.000000 
#    y 0.000000 1.761490 0.000000 
#    z 0.000000 0.000000 1.699000 
# 
# From -- ./inp_files/36561.got.cif
#   From: 2010.03.12/outbox.cif.g09.slc.cpg/sg69_19_cif.got.tgz:36561.got - 2010.04.10 23:52:46.
