data_PCOD8285772
_publ_section_title
;
Structure prediction by ZEFSAII (Michael W. Deem and Ramdas Pophale) SiO2 
 PCOD8285772
Probable space group: F D D D
;
_chemical_formula_sum "Si O2"
_cell_formula_units_Z 160
_cell_length_a 24.958907
_cell_length_b 11.263747
_cell_length_c 32.464199
_cell_angle_alpha 90.000000
_cell_angle_beta 90.000000
_cell_angle_gamma 90.000000
_cell_volume 9126.686686
_symmetry_space_group_name_H-M "F D D D"
_symmetry_group_IT_number 70
_space_group.IT_coordinate_system_code '2'
_symmetry_cell_setting 'orthorhombic'
loop_
_space_group_symop_operation_xyz
x,y,z
1/4-x,1/4-y,z
x,1/4-y,1/4-z
1/4-x,y,1/4-z
-x,-y,-z
3/4+x,3/4+y,-z
-x,3/4+y,3/4+z
3/4+x,-y,3/4+z
x,1/2+y,1/2+z
1/4-x,3/4-y,1/2+z
x,3/4-y,3/4-z
1/4-x,1/2+y,3/4-z
-x,1/2-y,1/2-z
3/4+x,1/4+y,1/2-z
-x,1/4+y,1/4+z
3/4+x,1/2-y,1/4+z
1/2+x,y,1/2+z
3/4-x,1/4-y,1/2+z
1/2+x,1/4-y,3/4-z
3/4-x,y,3/4-z
1/2-x,-y,1/2-z
1/4+x,3/4+y,1/2-z
1/2-x,3/4+y,1/4+z
1/4+x,-y,1/4+z
1/2+x,1/2+y,z
3/4-x,3/4-y,z
1/2+x,3/4-y,1/4-z
3/4-x,1/2+y,1/4-z
1/2-x,1/2-y,-z
1/4+x,1/4+y,-z
1/2-x,1/4+y,3/4+z
1/4+x,1/2-y,3/4+z
loop_
_atom_site_type_symbol
_atom_site_label
_atom_site_fract_x
_atom_site_fract_y
_atom_site_fract_z
Si Si1 0.917752 0.548327 0.245583
Si Si2 0.738648 0.345775 0.829883
Si Si3 0.688561 0.886082 0.088385
Si Si4 0.927058 0.553156 0.926994
Si Si5 0.192418 0.220156 0.016258
O O1 0.941351 0.631955 0.280880
O O2 0.852988 0.546433 0.241781
O O3 0.934808 0.418185 0.259993
O O4 0.941101 0.602035 0.203310
O O5 0.714101 0.375000 0.875000
O O6 0.759536 0.211558 0.825538
O O7 0.789071 0.432463 0.822795
O O8 0.691877 0.864021 0.137524
O O9 0.636901 0.967373 0.076321
O O10 0.688126 0.760087 0.064413
O O11 0.250000 0.250000 0.000000
#
# Coordination Sequence:
#
# PCOD8285772 Si02
#       5
#    32  32  32  32  32
#     4  10  20  32  53  77  98 135 170 210 255 295
#     4  10  18  31  52  73 105 136 165 202 251 306
#     4   9  17  31  51  77 101 132 166 206 255 301
#     4   9  18  30  50  79 105 126 164 211 257 299
#     4  10  19  34  54  71  99 133 174 210 246 301
#
# _framework density 17.531006000000001
#
# number of rings (size 3 to 8) (size 9 to 14) (size 15 to 20)
#    0.000    2.400    2.000    1.200    0.000    3.200 
#    0.000    4.000    4.400    0.000    0.000    0.000 
#    0.000    0.000    0.000    0.000    0.000    0.000 
#
# Total GULP energy -495574.662515 kJ/mol
# GULP energy per Si atom -12389.366563 kJ/mol
# Density = 1.749110 g / cm^3
# Si number density = 17.531006 Si / 1000 Ang^3
#
#
#
# Elastic Constant Matrix: (Units=GPa)
#
#
# Indices 1 2 3 4 5 6 
#
# 1 86.7928 18.4661 54.7735 0.0000 0.0000 0.0000
# 2 18.4661 52.5604 43.3603 0.0000 0.0000 0.0000
# 3 54.7735 43.3603 143.5853 0.0000 0.0000 0.0000
# 4 0.0000 0.0000 0.0000 27.1182 0.0000 0.0000
# 5 0.0000 0.0000 0.0000 0.0000 26.9247 0.0000
# 6 0.0000 0.0000 0.0000 0.0000 0.0000 11.8627
#
#
#
# Elastic Compliance Matrix: (Units=1/GPa)
#
#
# Indices 1 2 3 4 5 6 
#
# 1 0.015197 -0.000741 -0.005573 0.000000 0.000000 0.000000
# 2 -0.000741 0.025374 -0.007380 0.000000 0.000000 0.000000
# 3 -0.005573 -0.007380 0.011319 0.000000 0.000000 0.000000
# 4 0.000000 0.000000 0.000000 0.036876 0.000000 0.000000
# 5 0.000000 0.000000 0.000000 0.000000 0.037141 0.000000
# 6 0.000000 0.000000 0.000000 0.000000 0.000000 0.084298
#
#
# Mechanical properties :
#
#
# Convention : Reuss Voigt Hill
#
# Bulk Modulus (GPa) = 40.81424 57.34869 49.08147
# Shear Modulus (GPa) = 20.34510 24.27035 22.30773
#
# Velocity S-wave (km/s) = 3.41034 3.72482 3.57104
# Velocity P-wave (km/s) = 6.23209 7.16120 6.71274
#
# Compressibility (1/GPa) = 0.02450125
#
# Stress axis : x y z
#
# Youngs Moduli (GPa) = 65.80441 39.41002 88.34664
#
# Poissons Ratio (x) = 0.02922 0.49237
# Poissons Ratio (y) = 0.04879 0.65198
# Poissons Ratio (z) = 0.36674 0.29084
#
# Static dielectric constant tensor:
#      x y z
#    x 3.793350 0.000000 0.000000 
#    y 0.000000 4.233520 0.000000 
#    z 0.000000 0.000000 3.446610 
# 
# 
# High freq. dielectric constant tensor:
#      x y z
#    x 1.670270 0.000000 0.000000 
#    y 0.000000 1.662560 0.000000 
#    z 0.000000 0.000000 1.678810 
# 
# From -- ./inp_files/19473.got.cif
#   From: 2010.03.12/outbox.cif.g09.slc.cpg/sg70_10_cif.got.tgz:19473.got - 2010.04.16 13:46:32.
