data_PCOD8285837
_publ_section_title
;
Structure prediction by ZEFSAII (Michael W. Deem and Ramdas Pophale) SiO2 
 PCOD8285837
Probable space group: F D D D
;
_chemical_formula_sum "Si O2"
_cell_formula_units_Z 128
_cell_length_a 21.961946
_cell_length_b 10.982421
_cell_length_c 24.163902
_cell_angle_alpha 90.000000
_cell_angle_beta 90.000000
_cell_angle_gamma 90.000000
_cell_volume 5828.220485
_symmetry_space_group_name_H-M "F D D D"
_symmetry_group_IT_number 70
_space_group.IT_coordinate_system_code '2'
_symmetry_cell_setting 'orthorhombic'
loop_
_space_group_symop_operation_xyz
x,y,z
1/4-x,1/4-y,z
x,1/4-y,1/4-z
1/4-x,y,1/4-z
-x,-y,-z
3/4+x,3/4+y,-z
-x,3/4+y,3/4+z
3/4+x,-y,3/4+z
x,1/2+y,1/2+z
1/4-x,3/4-y,1/2+z
x,3/4-y,3/4-z
1/4-x,1/2+y,3/4-z
-x,1/2-y,1/2-z
3/4+x,1/4+y,1/2-z
-x,1/4+y,1/4+z
3/4+x,1/2-y,1/4+z
1/2+x,y,1/2+z
3/4-x,1/4-y,1/2+z
1/2+x,1/4-y,3/4-z
3/4-x,y,3/4-z
1/2-x,-y,1/2-z
1/4+x,3/4+y,1/2-z
1/2-x,3/4+y,1/4+z
1/4+x,-y,1/4+z
1/2+x,1/2+y,z
3/4-x,3/4-y,z
1/2+x,3/4-y,1/4-z
3/4-x,1/2+y,1/4-z
1/2-x,1/2-y,-z
1/4+x,1/4+y,-z
1/2-x,1/4+y,3/4+z
1/4+x,1/2-y,3/4+z
loop_
_atom_site_type_symbol
_atom_site_label
_atom_site_fract_x
_atom_site_fract_y
_atom_site_fract_z
Si Si1 0.180582 0.849842 0.089343
Si Si2 0.000267 0.625000 0.125000
Si Si3 0.375000 0.875000 0.565365
Si Si4 0.294535 0.251801 0.150286
Si Si5 0.400380 0.111985 0.031711
O O1 0.125000 0.907752 0.125000
O O2 0.205408 0.740805 0.127602
O O3 0.232974 0.946707 0.073772
O O4 0.159692 0.805861 0.028762
O O5 0.959323 0.604816 0.070631
O O6 0.316875 0.850409 0.604810
O O7 0.383070 0.755313 0.527629
O O8 0.274733 0.125000 0.125000
O O9 0.347920 0.224696 0.193877
#
# Coordination Sequence:
#
# PCOD8285837 Si02
#       5
#    32  16  16  32  32
#     4  12  28  44  66 107 151 179 233 300 357 415
#     4  12  23  48  70 100 141 192 242 286 350 426
#     4  10  18  42  69 100 135 180 246 280 346 424
#     4  10  21  42  72  98 138 187 239 285 354 428
#     4  11  23  42  76 104 136 194 237 296 348 426
#
# _framework density 21.962105999999999
#
# number of rings (size 3 to 8) (size 9 to 14) (size 15 to 20)
#    0.000    1.000    6.250    1.125    3.500    2.500 
#    4.500    5.000    0.000    0.000    0.000    0.000 
#    0.000    0.000    0.000    0.000    0.000    0.000 
#
# Total GULP energy -396668.497922 kJ/mol
# GULP energy per Si atom -12395.890560 kJ/mol
# Density = 2.191212 g / cm^3
# Si number density = 21.962106 Si / 1000 Ang^3
#
#
#
# Elastic Constant Matrix: (Units=GPa)
#
#
# Indices 1 2 3 4 5 6 
#
# 1 129.9881 54.4881 55.7250 0.0000 0.0000 0.0000
# 2 54.4881 75.5061 21.6234 0.0000 0.0000 0.0000
# 3 55.7250 21.6234 122.5005 0.0000 0.0000 0.0000
# 4 0.0000 0.0000 0.0000 13.5117 0.0000 0.0000
# 5 0.0000 0.0000 0.0000 0.0000 10.9671 0.0000
# 6 0.0000 0.0000 0.0000 0.0000 0.0000 25.8575
#
#
#
# Elastic Compliance Matrix: (Units=1/GPa)
#
#
# Indices 1 2 3 4 5 6 
#
# 1 0.013016 -0.008107 -0.004490 0.000000 0.000000 0.000000
# 2 -0.008107 0.018999 0.000334 0.000000 0.000000 0.000000
# 3 -0.004490 0.000334 0.010147 0.000000 0.000000 0.000000
# 4 0.000000 0.000000 0.000000 0.074010 0.000000 0.000000
# 5 0.000000 0.000000 0.000000 0.000000 0.091181 0.000000
# 6 0.000000 0.000000 0.000000 0.000000 0.000000 0.038673
#
#
# Mechanical properties :
#
#
# Convention : Reuss Voigt Hill
#
# Bulk Modulus (GPa) = 56.70237 65.74086 61.22161
# Shear Modulus (GPa) = 18.08772 23.14448 20.61610
#
# Velocity S-wave (km/s) = 2.87294 3.24981 3.06716
# Velocity P-wave (km/s) = 6.07284 6.63931 6.36238
#
# Compressibility (1/GPa) = 0.01763595
#
# Stress axis : x y z
#
# Youngs Moduli (GPa) = 76.82770 52.63536 98.55441
#
# Poissons Ratio (x) = 0.42672 0.44250
# Poissons Ratio (y) = 0.62285 -0.03295
# Poissons Ratio (z) = 0.34495 -0.01760
#
# Static dielectric constant tensor:
#      x y z
#    x 4.075780 0.000000 0.000000 
#    y 0.000000 4.139200 0.000000 
#    z 0.000000 0.000000 3.540140 
# 
# 
# High freq. dielectric constant tensor:
#      x y z
#    x 1.872110 0.000000 0.000000 
#    y 0.000000 1.870490 0.000000 
#    z 0.000000 0.000000 1.842690 
# 
# From -- ./inp_files/18867.got.cif
#   From: 2010.03.12/outbox.cif.g09.slc.cpg/sg70_10_cif.got.tgz:18867.got - 2010.04.16 13:46:32.
